41
Properties=species:S:1:pos:R:3:Z:I:1 energy=-306.80460511622675 field_type=dipole dipole="0.000000 0.000000 0.000000" charge=0
C	-2.434869	-1.619947	0.052513	6
C	-0.943339	-1.410427	0.044943	6
O	-0.163299	-2.357237	0.114593	8
C	-0.463149	-0.001067	-0.007717	6
C	0.849801	0.266743	-0.011237	6
C	1.374351	1.611563	-0.055847	6
C	2.685071	1.878363	-0.058947	6
H	-2.947559	-0.797447	-0.452447	1
H	-2.784899	-1.693487	1.084553	1
H	-2.671039	-2.541897	-0.485927	1
H	-1.213899	0.778673	-0.038187	1
H	1.569371	-0.550597	0.022103	1
H	0.668161	2.439383	-0.087057	1
H	3.434721	1.093263	-0.028417	1
H	3.040581	2.904123	-0.092917	1
Es	-0.427502	-2.030363	-0.163645	99
Es	1.107439	0.940116	-0.033993	99
Es	0.849890	0.266804	-0.011242	99
Es	2.685171	1.878386	-0.058947	99
Es	1.374250	1.611521	-0.055848	99
Es	1.336418	-0.264205	0.009935	99
Es	-0.313250	-2.633966	0.125309	99
Es	0.141201	0.101977	-0.324594	99
Es	-0.163481	-2.356968	0.114572	99
Es	2.932089	2.569192	-0.081720	99
Es	3.192584	1.350127	-0.038421	99
Es	0.141753	0.126226	0.304730	99
Es	-0.976373	0.528062	-0.028182	99
Es	2.004860	1.703150	-0.374588	99
Es	-2.590265	-2.235744	-0.303926	99
Es	-1.702925	-1.503033	0.040922	99
Es	0.887691	2.165524	-0.076913	99
Es	2.001809	1.724845	0.261688	99
Es	-0.442424	-2.004124	0.338034	99
Es	-2.434837	-1.619921	0.052520	99
Es	-0.714242	-0.691428	0.016896	99
Es	-2.650400	-1.661054	0.741657	99
Es	-2.775693	-1.054692	-0.285253	99
Es	-0.943365	-1.410384	0.044941	99
Es	0.140148	-2.269283	0.120092	99
Es	-0.463248	-0.001115	-0.007719	99
41
Properties=species:S:1:pos:R:3:Z:I:1 energy=-306.80460511622675 field_type=dipole dipole="0.000000 0.000000 0.000000" charge=0
C	-2.434869	-1.619947	0.052513	6
C	-0.943339	-1.410427	0.044943	6
O	-0.163299	-2.357237	0.114593	8
C	-0.463149	-0.001067	-0.007717	6
C	0.849801	0.266743	-0.011237	6
C	1.374351	1.611563	-0.055847	6
C	2.685071	1.878363	-0.058947	6
H	-2.947559	-0.797447	-0.452447	1
H	-2.784899	-1.693487	1.084553	1
H	-2.671039	-2.541897	-0.485927	1
H	-1.213899	0.778673	-0.038187	1
H	1.569371	-0.550597	0.022103	1
H	0.668161	2.439383	-0.087057	1
H	3.434721	1.093263	-0.028417	1
H	3.040581	2.904123	-0.092917	1
Es	-2.434838	-1.619922	0.052521	99
Es	1.107677	0.939361	-0.034083	99
Es	2.001514	1.724912	0.259885	99
Es	3.191540	1.349918	-0.038741	99
Es	-0.327413	-2.630321	0.124728	99
Es	0.888680	2.165433	-0.076850	99
Es	-0.444874	-2.009067	0.318144	99
Es	0.159534	-2.262071	0.118167	99
Es	-2.594366	-2.236476	-0.301062	99
Es	2.685176	1.878388	-0.058947	99
Es	1.335402	-0.263789	0.009794	99
Es	-0.975783	0.528404	-0.028018	99
Es	2.005226	1.703781	-0.372463	99
Es	2.932830	2.570194	-0.082062	99
Es	-0.943365	-1.410383	0.044942	99
Es	-0.432290	-2.034230	-0.141590	99
Es	-2.778051	-1.056386	-0.282035	99
Es	0.849891	0.266804	-0.011238	99
Es	-0.163480	-2.356988	0.114574	99
Es	-2.650015	-1.660131	0.733698	99
Es	-1.698121	-1.502531	0.042991	99
Es	-0.463254	-0.001117	-0.007717	99
Es	0.142401	0.101703	-0.322651	99
Es	1.374245	1.611520	-0.055845	99
Es	0.142364	0.125791	0.302742	99
Es	-0.713334	-0.693149	0.017422	99
41
Properties=species:S:1:pos:R:3:Z:I:1 energy=-306.80460511622675 field_type=dipole dipole="0.000000 0.000000 0.000000" charge=0
C	-2.434869	-1.619947	0.052513	6
C	-0.943339	-1.410427	0.044943	6
O	-0.163299	-2.357237	0.114593	8
C	-0.463149	-0.001067	-0.007717	6
C	0.849801	0.266743	-0.011237	6
C	1.374351	1.611563	-0.055847	6
C	2.685071	1.878363	-0.058947	6
H	-2.947559	-0.797447	-0.452447	1
H	-2.784899	-1.693487	1.084553	1
H	-2.671039	-2.541897	-0.485927	1
H	-1.213899	0.778673	-0.038187	1
H	1.569371	-0.550597	0.022103	1
H	0.668161	2.439383	-0.087057	1
H	3.434721	1.093263	-0.028417	1
H	3.040581	2.904123	-0.092917	1
Es	0.889338	2.165503	-0.076538	99
Es	2.001547	1.725275	0.258478	99
Es	0.142301	0.125109	0.301549	99
Es	0.166586	-2.258623	0.115974	99
Es	-2.598510	-2.238912	-0.296624	99
Es	1.334790	-0.263787	0.009632	99
Es	-2.780592	-1.056828	-0.278779	99
Es	2.685177	1.878388	-0.058945	99
Es	-0.441286	-2.012040	0.304573	99
Es	-0.163483	-2.356996	0.114588	99
Es	-1.696202	-1.502175	0.044480	99
Es	1.374246	1.611521	-0.055840	99
Es	-0.431215	-2.035700	-0.125210	99
Es	2.005196	1.703728	-0.371809	99
Es	-2.434839	-1.619921	0.052521	99
Es	0.849893	0.266804	-0.011241	99
Es	-0.975361	0.528723	-0.027864	99
Es	-2.645738	-1.658194	0.724726	99
Es	0.143776	0.101592	-0.321680	99
Es	3.191243	1.349666	-0.038721	99
Es	-0.463255	-0.001119	-0.007715	99
Es	-0.943369	-1.410382	0.044943	99
Es	2.933037	2.570495	-0.082366	99
Es	-0.340872	-2.627546	0.124065	99
Es	-0.712894	-0.693968	0.017734	99
Es	1.107784	0.939035	-0.033625	99
41
Properties=species:S:1:pos:R:3:Z:I:1 energy=-306.80460511622675 field_type=dipole dipole="0.000000 0.000000 0.000000" charge=0
C	-2.434869	-1.619947	0.052513	6
C	-0.943339	-1.410427	0.044943	6
O	-0.163299	-2.357237	0.114593	8
C	-0.463149	-0.001067	-0.007717	6
C	0.849801	0.266743	-0.011237	6
C	1.374351	1.611563	-0.055847	6
C	2.685071	1.878363	-0.058947	6
H	-2.947559	-0.797447	-0.452447	1
H	-2.784899	-1.693487	1.084553	1
H	-2.671039	-2.541897	-0.485927	1
H	-1.213899	0.778673	-0.038187	1
H	1.569371	-0.550597	0.022103	1
H	0.668161	2.439383	-0.087057	1
H	3.434721	1.093263	-0.028417	1
H	3.040581	2.904123	-0.092917	1
Es	-0.943368	-1.410382	0.044927	99
Es	2.000788	1.724905	0.258295	99
Es	1.107911	0.938870	-0.033586	99
Es	-2.434838	-1.619921	0.052521	99
Es	2.933322	2.570426	-0.082807	99
Es	-0.355082	-2.623705	0.125927	99
Es	-2.783577	-1.056353	-0.274730	99
Es	0.889661	2.165416	-0.076345	99
Es	-2.603863	-2.242154	-0.288607	99
Es	2.685178	1.878388	-0.058948	99
Es	-0.438313	-2.009687	0.291961	99
Es	3.190997	1.349546	-0.039021	99
Es	-0.975299	0.528897	-0.027465	99
Es	-0.424894	-2.040727	-0.112434	99
Es	0.145344	0.101532	-0.321441	99
Es	-0.712408	-0.694303	0.018131	99
Es	0.141807	0.124175	0.301048	99
Es	-2.638527	-1.655719	0.712201	99
Es	1.334437	-0.263700	0.009445	99
Es	-0.163475	-2.356997	0.114581	99
Es	0.849892	0.266804	-0.011243	99
Es	1.374246	1.611521	-0.055847	99
Es	-0.463256	-0.001118	-0.007715	99
Es	0.170005	-2.258263	0.113912	99
Es	2.005944	1.704356	-0.371535	99
Es	-1.695336	-1.502159	0.045084	99
41
Properties=species:S:1:pos:R:3:Z:I:1 energy=-306.80460511622675 field_type=dipole dipole="0.000000 0.000000 0.000000" charge=0
C	-2.434869	-1.619947	0.052513	6
C	-0.943339	-1.410427	0.044943	6
O	-0.163299	-2.357237	0.114593	8
C	-0.463149	-0.001067	-0.007717	6
C	0.849801	0.266743	-0.011237	6
C	1.374351	1.611563	-0.055847	6
C	2.685071	1.878363	-0.058947	6
H	-2.947559	-0.797447	-0.452447	1
H	-2.784899	-1.693487	1.084553	1
H	-2.671039	-2.541897	-0.485927	1
H	-1.213899	0.778673	-0.038187	1
H	1.569371	-0.550597	0.022103	1
H	0.668161	2.439383	-0.087057	1
H	3.434721	1.093263	-0.028417	1
H	3.040581	2.904123	-0.092917	1
Es	-2.610185	-2.244892	-0.276125	99
Es	0.138971	0.121839	0.300085	99
Es	1.374245	1.611519	-0.055846	99
Es	-0.430721	-2.011664	0.282528	99
Es	-2.434838	-1.619920	0.052522	99
Es	-0.163493	-2.356967	0.114574	99
Es	-0.943368	-1.410381	0.044937	99
Es	0.149196	0.102921	-0.320741	99
Es	2.685178	1.878389	-0.058949	99
Es	1.334391	-0.263496	0.009193	99
Es	-0.712214	-0.694385	0.018587	99
Es	-2.629809	-1.653780	0.694752	99
Es	-0.975447	0.528783	-0.027011	99
Es	-0.419597	-2.040573	-0.101090	99
Es	1.999043	1.723435	0.257886	99
Es	3.191088	1.349529	-0.039431	99
Es	0.889824	2.165238	-0.076035	99
Es	-1.694965	-1.502073	0.045055	99
Es	0.849892	0.266805	-0.011239	99
Es	1.107859	0.938763	-0.033489	99
Es	2.007692	1.706029	-0.371006	99
Es	-0.463256	-0.001118	-0.007721	99
Es	2.933366	2.570075	-0.083041	99
Es	0.172145	-2.260425	0.112593	99
Es	-2.786478	-1.055780	-0.269491	99
Es	-0.371220	-2.618221	0.124809	99
41
Properties=species:S:1:pos:R:3:Z:I:1 energy=-306.80460511622675 field_type=dipole dipole="0.000000 0.000000 0.000000" charge=0
C	-2.434869	-1.619947	0.052513	6
C	-0.943339	-1.410427	0.044943	6
O	-0.163299	-2.357237	0.114593	8
C	-0.463149	-0.001067	-0.007717	6
C	0.849801	0.266743	-0.011237	6
C	1.374351	1.611563	-0.055847	6
C	2.685071	1.878363	-0.058947	6
H	-2.947559	-0.797447	-0.452447	1
H	-2.784899	-1.693487	1.084553	1
H	-2.671039	-2.541897	-0.485927	1
H	-1.213899	0.778673	-0.038187	1
H	1.569371	-0.550597	0.022103	1
H	0.668161	2.439383	-0.087057	1
H	3.434721	1.093263	-0.028417	1
H	3.040581	2.904123	-0.092917	1
Es	0.173587	-2.263499	0.112166	99
Es	-1.694806	-1.502123	0.044824	99
Es	-0.463256	-0.001118	-0.007712	99
Es	-2.434837	-1.619922	0.052520	99
Es	-0.975661	0.528565	-0.027000	99
Es	-0.428978	-2.006041	0.270529	99
Es	1.374246	1.611517	-0.055841	99
Es	1.107781	0.938610	-0.033641	99
Es	-0.943368	-1.410380	0.044942	99
Es	-0.409232	-2.048577	-0.088359	99
Es	1.334356	-0.263340	0.009149	99
Es	1.997797	1.722417	0.257379	99
Es	3.191376	1.349698	-0.039381	99
Es	0.890014	2.164913	-0.076018	99
Es	-2.624354	-1.653156	0.681187	99
Es	-0.163463	-2.357010	0.114585	99
Es	0.132092	0.117235	0.293022	99
Es	2.008910	1.707301	-0.370530	99
Es	-2.614657	-2.245588	-0.265561	99
Es	0.849891	0.266805	-0.011243	99
Es	2.685177	1.878387	-0.058948	99
Es	-0.711971	-0.694295	0.018465	99
Es	2.933254	2.569598	-0.082917	99
Es	-2.787715	-1.055681	-0.266225	99
Es	0.156934	0.106707	-0.313365	99
Es	-0.385817	-2.611377	0.124280	99
41
Properties=species:S:1:pos:R:3:Z:I:1 energy=-306.80460511622675 field_type=dipole dipole="0.000000 0.000000 0.000000" charge=0
C	-2.434869	-1.619947	0.052513	6
C	-0.943339	-1.410427	0.044943	6
O	-0.163299	-2.357237	0.114593	8
C	-0.463149	-0.001067	-0.007717	6
C	0.849801	0.266743	-0.011237	6
C	1.374351	1.611563	-0.055847	6
C	2.685071	1.878363	-0.058947	6
H	-2.947559	-0.797447	-0.452447	1
H	-2.784899	-1.693487	1.084553	1
H	-2.671039	-2.541897	-0.485927	1
H	-1.213899	0.778673	-0.038187	1
H	1.569371	-0.550597	0.022103	1
H	0.668161	2.439383	-0.087057	1
H	3.434721	1.093263	-0.028417	1
H	3.040581	2.904123	-0.092917	1
Es	-0.163440	-2.357043	0.114576	99
Es	-0.975992	0.528223	-0.027044	99
Es	-2.616841	-2.245469	-0.259528	99
Es	1.107867	0.938547	-0.033500	99
Es	-2.434837	-1.619921	0.052521	99
Es	2.932976	2.569119	-0.083000	99
Es	0.889899	2.164616	-0.076031	99
Es	3.191795	1.349861	-0.039375	99
Es	2.685178	1.878388	-0.058949	99
Es	1.374245	1.611521	-0.055846	99
Es	0.849892	0.266806	-0.011244	99
Es	-0.463257	-0.001116	-0.007713	99
Es	-0.429391	-1.990340	0.222346	99
Es	-2.787644	-1.056005	-0.265997	99
Es	-1.694720	-1.502280	0.044542	99
Es	0.158586	0.107194	-0.311879	99
Es	0.174860	-2.267803	0.112097	99
Es	-0.403764	-2.601025	0.125526	99
Es	-0.392813	-2.069129	-0.041607	99
Es	1.998172	1.722974	0.258721	99
Es	-2.622370	-1.652877	0.675306	99
Es	-0.943369	-1.410380	0.044942	99
Es	2.008509	1.706964	-0.371931	99
Es	0.131085	0.116005	0.291504	99
Es	-0.711751	-0.694093	0.018698	99
Es	1.334425	-0.263087	0.009170	99
41
Properties=species:S:1:pos:R:3:Z:I:1 energy=-306.80460511622675 field_type=dipole dipole="0.000000 0.000000 0.000000" charge=0
C	-2.434869	-1.619947	0.052513	6
C	-0.943339	-1.410427	0.044943	6
O	-0.163299	-2.357237	0.114593	8
C	-0.463149	-0.001067	-0.007717	6
C	0.849801	0.266743	-0.011237	6
C	1.374351	1.611563	-0.055847	6
C	2.685071	1.878363	-0.058947	6
H	-2.947559	-0.797447	-0.452447	1
H	-2.784899	-1.693487	1.084553	1
H	-2.671039	-2.541897	-0.485927	1
H	-1.213899	0.778673	-0.038187	1
H	1.569371	-0.550597	0.022103	1
H	0.668161	2.439383	-0.087057	1
H	3.434721	1.093263	-0.028417	1
H	3.040581	2.904123	-0.092917	1
Es	1.334929	-0.263304	0.008954	99
Es	3.192297	1.349901	-0.039477	99
Es	1.999951	1.724131	0.260126	99
Es	-2.620876	-1.653670	0.672455	99
Es	-0.463256	-0.001118	-0.007715	99
Es	0.176066	-2.274535	0.111404	99
Es	-0.432281	-2.580521	0.122604	99
Es	-0.163442	-2.357035	0.114586	99
Es	-0.395542	-2.044796	-0.067260	99
Es	2.932509	2.568977	-0.082655	99
Es	0.172025	0.116015	-0.272902	99
Es	0.889583	2.164756	-0.075707	99
Es	0.117724	0.107098	0.252898	99
Es	-2.616410	-2.245405	-0.261504	99
Es	-0.711778	-0.694131	0.018698	99
Es	1.374246	1.611519	-0.055843	99
Es	-1.694740	-1.501967	0.044746	99
Es	0.849891	0.266807	-0.011246	99
Es	-2.434837	-1.619921	0.052520	99
Es	-2.789575	-1.055439	-0.261410	99
Es	1.107662	0.938604	-0.033667	99
Es	-0.976348	0.528377	-0.026801	99
Es	-0.943369	-1.410380	0.044946	99
Es	2.006732	1.705695	-0.373589	99
Es	-0.399040	-2.028397	0.251094	99
Es	2.685178	1.878389	-0.058949	99
41
Properties=species:S:1:pos:R:3:Z:I:1 energy=-306.80460511622675 field_type=dipole dipole="0.000000 0.000000 0.000000" charge=0
C	-2.434869	-1.619947	0.052513	6
C	-0.943339	-1.410427	0.044943	6
O	-0.163299	-2.357237	0.114593	8
C	-0.463149	-0.001067	-0.007717	6
C	0.849801	0.266743	-0.011237	6
C	1.374351	1.611563	-0.055847	6
C	2.685071	1.878363	-0.058947	6
H	-2.947559	-0.797447	-0.452447	1
H	-2.784899	-1.693487	1.084553	1
H	-2.671039	-2.541897	-0.485927	1
H	-1.213899	0.778673	-0.038187	1
H	1.569371	-0.550597	0.022103	1
H	0.668161	2.439383	-0.087057	1
H	3.434721	1.093263	-0.028417	1
H	3.040581	2.904123	-0.092917	1
Es	3.192394	1.349946	-0.039460	99
Es	1.334957	-0.263248	0.008995	99
Es	-0.388148	-2.048319	-0.058229	99
Es	-1.694725	-1.501987	0.044600	99
Es	-0.392381	-2.034505	0.243552	99
Es	-2.619299	-1.653808	0.668284	99
Es	2.685178	1.878388	-0.058949	99
Es	0.889583	2.164619	-0.075839	99
Es	1.374246	1.611519	-0.055843	99
Es	1.107648	0.938583	-0.033726	99
Es	-0.446874	-2.566952	0.120698	99
Es	-0.943370	-1.410379	0.044944	99
Es	0.176654	-2.278133	0.111511	99
Es	-0.163491	-2.356936	0.114566	99
Es	0.115636	0.105300	0.243251	99
Es	-2.790027	-1.055347	-0.259116	99
Es	0.174321	0.117580	-0.263204	99
Es	0.849891	0.266806	-0.011242	99
Es	1.997803	1.722319	0.258360	99
Es	2.008882	1.707599	-0.371645	99
Es	-0.463256	-0.001118	-0.007714	99
Es	-2.617566	-2.245321	-0.259463	99
Es	-2.434842	-1.619920	0.052517	99
Es	-0.976536	0.528259	-0.026827	99
Es	-0.711832	-0.694136	0.018941	99
Es	2.932452	2.568840	-0.082657	99
41
Properties=species:S:1:pos:R:3:Z:I:1 energy=-306.80460511622675 field_type=dipole dipole="0.000000 0.000000 0.000000" charge=0
C	-2.434869	-1.619947	0.052513	6
C	-0.943339	-1.410427	0.044943	6
O	-0.163299	-2.357237	0.114593	8
C	-0.463149	-0.001067	-0.007717	6
C	0.849801	0.266743	-0.011237	6
C	1.374351	1.611563	-0.055847	6
C	2.685071	1.878363	-0.058947	6
H	-2.947559	-0.797447	-0.452447	1
H	-2.784899	-1.693487	1.084553	1
H	-2.671039	-2.541897	-0.485927	1
H	-1.213899	0.778673	-0.038187	1
H	1.569371	-0.550597	0.022103	1
H	0.668161	2.439383	-0.087057	1
H	3.434721	1.093263	-0.028417	1
H	3.040581	2.904123	-0.092917	1
Es	-2.620056	-1.653756	0.670515	99
Es	-0.711731	-0.694091	0.019082	99
Es	1.374246	1.611517	-0.055843	99
Es	-0.463256	-0.001118	-0.007713	99
Es	1.335056	-0.263249	0.008976	99
Es	0.178909	0.120927	-0.239294	99
Es	0.889564	2.164601	-0.075893	99
Es	3.192546	1.350004	-0.039433	99
Es	-0.163449	-2.357008	0.114574	99
Es	1.107590	0.938522	-0.033664	99
Es	0.176861	-2.278523	0.111395	99
Es	-2.616947	-2.245180	-0.260577	99
Es	-1.694709	-1.502066	0.044371	99
Es	1.999024	1.723472	0.259949	99
Es	-0.383252	-2.057149	-0.051470	99
Es	2.007657	1.706462	-0.373200	99
Es	-0.976644	0.528256	-0.026854	99
Es	-0.458515	-2.554794	0.122477	99
Es	2.685178	1.878386	-0.058949	99
Es	-2.789916	-1.055432	-0.260080	99
Es	-0.385986	-2.037202	0.235066	99
Es	-0.943369	-1.410382	0.044944	99
Es	-2.434847	-1.619921	0.052552	99
Es	2.932326	2.568720	-0.082690	99
Es	0.849892	0.266805	-0.011242	99
Es	0.111126	0.101846	0.219308	99
41
Properties=species:S:1:pos:R:3:Z:I:1 energy=-306.80460511622675 field_type=dipole dipole="0.000000 0.000000 0.000000" charge=0
C	-2.434869	-1.619947	0.052513	6
C	-0.943339	-1.410427	0.044943	6
O	-0.163299	-2.357237	0.114593	8
C	-0.463149	-0.001067	-0.007717	6
C	0.849801	0.266743	-0.011237	6
C	1.374351	1.611563	-0.055847	6
C	2.685071	1.878363	-0.058947	6
H	-2.947559	-0.797447	-0.452447	1
H	-2.784899	-1.693487	1.084553	1
H	-2.671039	-2.541897	-0.485927	1
H	-1.213899	0.778673	-0.038187	1
H	1.569371	-0.550597	0.022103	1
H	0.668161	2.439383	-0.087057	1
H	3.434721	1.093263	-0.028417	1
H	3.040581	2.904123	-0.092917	1
Es	0.849892	0.266804	-0.011242	99
Es	0.894234	2.162861	-0.075902	99
Es	1.997505	1.721825	0.258391	99
Es	0.163181	-2.218563	0.111139	99
Es	-0.463255	-0.001118	-0.007717	99
Es	2.938058	2.569805	-0.082412	99
Es	-0.568676	-2.068364	0.134447	99
Es	0.172658	0.116107	-0.271040	99
Es	2.685178	1.878388	-0.058948	99
Es	-0.943370	-1.410381	0.044942	99
Es	-0.385615	-2.079149	0.058699	99
Es	1.374247	1.611519	-0.055837	99
Es	-2.782075	-1.059118	-0.263979	99
Es	-2.434844	-1.619920	0.052544	99
Es	1.108122	0.938768	-0.033936	99
Es	-2.619870	-1.652605	0.665258	99
Es	-0.712132	-0.695017	0.018698	99
Es	-0.263683	-2.561253	0.113074	99
Es	-1.695059	-1.500038	0.044500	99
Es	3.186314	1.351112	-0.039312	99
Es	2.009226	1.708087	-0.371520	99
Es	1.329736	-0.261325	0.009018	99
Es	-0.972032	0.527339	-0.027091	99
Es	-0.163472	-2.357011	0.114586	99
Es	0.117503	0.106123	0.251518	99
Es	-2.624472	-2.245225	-0.251570	99
41
Properties=species:S:1:pos:R:3:Z:I:1 energy=-306.80460511622675 field_type=dipole dipole="0.000000 0.000000 0.000000" charge=0
C	-2.434869	-1.619947	0.052513	6
C	-0.943339	-1.410427	0.044943	6
O	-0.163299	-2.357237	0.114593	8
C	-0.463149	-0.001067	-0.007717	6
C	0.849801	0.266743	-0.011237	6
C	1.374351	1.611563	-0.055847	6
C	2.685071	1.878363	-0.058947	6
H	-2.947559	-0.797447	-0.452447	1
H	-2.784899	-1.693487	1.084553	1
H	-2.671039	-2.541897	-0.485927	1
H	-1.213899	0.778673	-0.038187	1
H	1.569371	-0.550597	0.022103	1
H	0.668161	2.439383	-0.087057	1
H	3.434721	1.093263	-0.028417	1
H	3.040581	2.904123	-0.092917	1
Es	-0.971853	0.527289	-0.026955	99
Es	-1.695063	-1.500003	0.044567	99
Es	-0.463256	-0.001119	-0.007713	99
Es	-2.625154	-2.245115	-0.249954	99
Es	-0.573223	-2.083040	0.133225	99
Es	1.374246	1.611518	-0.055844	99
Es	-2.782170	-1.059051	-0.263354	99
Es	-0.258257	-2.548939	0.113657	99
Es	2.938163	2.569878	-0.082408	99
Es	0.894286	2.162875	-0.075728	99
Es	0.114797	0.104342	0.239326	99
Es	2.685182	1.878380	-0.058951	99
Es	1.108158	0.938805	-0.033800	99
Es	0.175257	0.118102	-0.259004	99
Es	-2.434838	-1.619925	0.052523	99
Es	-2.619081	-1.652821	0.663035	99
Es	-0.712422	-0.694961	0.019164	99
Es	-0.163419	-2.357105	0.114577	99
Es	-0.943370	-1.410381	0.044945	99
Es	1.329646	-0.261394	0.008939	99
Es	2.007622	1.706705	-0.373459	99
Es	-0.385510	-2.079334	0.059571	99
Es	0.162381	-2.216159	0.110452	99
Es	3.186165	1.351135	-0.039392	99
Es	0.849892	0.266806	-0.011243	99
Es	1.999117	1.723161	0.260132	99
41
Properties=species:S:1:pos:R:3:Z:I:1 energy=-306.80460511622675 field_type=dipole dipole="0.000000 0.000000 0.000000" charge=0
C	-2.434869	-1.619947	0.052513	6
C	-0.943339	-1.410427	0.044943	6
O	-0.163299	-2.357237	0.114593	8
C	-0.463149	-0.001067	-0.007717	6
C	0.849801	0.266743	-0.011237	6
C	1.374351	1.611563	-0.055847	6
C	2.685071	1.878363	-0.058947	6
H	-2.947559	-0.797447	-0.452447	1
H	-2.784899	-1.693487	1.084553	1
H	-2.671039	-2.541897	-0.485927	1
H	-1.213899	0.778673	-0.038187	1
H	1.569371	-0.550597	0.022103	1
H	0.668161	2.439383	-0.087057	1
H	3.434721	1.093263	-0.028417	1
H	3.040581	2.904123	-0.092917	1
Es	0.894427	2.162763	-0.075792	99
Es	1.374246	1.611518	-0.055844	99
Es	1.329498	-0.261334	0.008933	99
Es	1.998926	1.723056	0.260124	99
Es	-0.385489	-2.079184	0.063917	99
Es	-0.971812	0.527287	-0.026816	99
Es	-0.943369	-1.410380	0.044944	99
Es	3.186003	1.351217	-0.039375	99
Es	-0.163456	-2.357036	0.114565	99
Es	2.685178	1.878388	-0.058948	99
Es	-2.782090	-1.059212	-0.263057	99
Es	-0.712410	-0.694992	0.019256	99
Es	-0.463255	-0.001118	-0.007716	99
Es	-2.619452	-1.652784	0.664377	99
Es	-0.575611	-2.091310	0.127666	99
Es	-2.434847	-1.619923	0.052548	99
Es	1.108164	0.938813	-0.033847	99
Es	0.112237	0.102367	0.225661	99
Es	-2.624826	-2.245166	-0.251571	99
Es	-1.695087	-1.499853	0.044559	99
Es	-0.255718	-2.541613	0.114874	99
Es	2.007816	1.706818	-0.373382	99
Es	0.849892	0.266804	-0.011243	99
Es	0.177861	0.120008	-0.245427	99
Es	0.162143	-2.215322	0.110351	99
Es	2.938325	2.569837	-0.082452	99
