35
Properties=species:S:1:pos:R:3:Z:I:1 energy=-304.3576944666407 field_type=dipole dipole="0.000000 0.000000 0.000000" charge=0
C	-1.810132	-1.450868	-0.003908	6
C	-0.311772	-1.520228	0.003612	6
O	0.312658	-2.573768	0.008002	8
C	0.401829	-0.265948	0.002422	6
C	0.994508	0.778222	0.001882	6
C	1.749318	2.110892	0.001632	6
C	2.340598	3.154772	0.001472	6
H	-2.160192	-0.414648	0.011232	1
H	-2.197822	-1.963328	0.880662	1
H	-2.187712	-1.934978	-0.908518	1
H	2.868718	4.079882	0.001512	1
Es	0.312491	-2.573481	0.008000	99
Es	-0.311727	-1.520088	0.003615	99
Es	0.088126	-2.174150	0.256975	99
Es	2.340699	3.154945	0.001474	99
Es	0.115744	-2.817992	0.007720	99
Es	-1.055791	-1.463928	0.000227	99
Es	2.295146	2.463446	0.187771	99
Es	0.425113	0.444906	-0.141808	99
Es	-2.050581	-1.792278	0.583333	99
Es	2.034942	2.593117	-0.352513	99
Es	0.055163	-0.851289	0.000523	99
Es	-2.043145	-1.773106	-0.604516	99
Es	0.957005	0.124163	-0.197784	99
Es	-1.810062	-1.450867	-0.003908	99
Es	1.370626	1.441858	0.002867	99
Es	0.620992	-2.537143	0.009782	99
Es	0.401734	-0.266111	0.002421	99
Es	1.759744	2.768271	0.169109	99
Es	0.696048	0.197607	0.347820	99
Es	2.681197	3.752537	0.001248	99
Es	1.749078	2.110466	0.001635	99
Es	0.994729	0.778623	0.001903	99
Es	0.090953	-2.175444	-0.244799	99
Es	-2.037407	-0.750964	0.006225	99
35
Properties=species:S:1:pos:R:3:Z:I:1 energy=-304.3576944666407 field_type=dipole dipole="0.000000 0.000000 0.000000" charge=0
C	-1.810132	-1.450868	-0.003908	6
C	-0.311772	-1.520228	0.003612	6
O	0.312658	-2.573768	0.008002	8
C	0.401829	-0.265948	0.002422	6
C	0.994508	0.778222	0.001882	6
C	1.749318	2.110892	0.001632	6
C	2.340598	3.154772	0.001472	6
H	-2.160192	-0.414648	0.011232	1
H	-2.197822	-1.963328	0.880662	1
H	-2.187712	-1.934978	-0.908518	1
H	2.868718	4.079882	0.001512	1
Es	-0.311728	-1.520087	0.003624	99
Es	0.410301	0.466592	-0.056373	99
Es	-2.037234	-0.745733	0.006263	99
Es	0.994753	0.778649	0.001887	99
Es	1.819128	2.727495	-0.246557	99
Es	-2.041312	-1.774176	-0.602508	99
Es	2.340696	3.154962	0.001475	99
Es	0.107139	-2.168429	-0.229875	99
Es	1.749066	2.110440	0.001636	99
Es	0.585738	-2.517450	0.007833	99
Es	1.934879	2.650320	0.318912	99
Es	2.336344	2.446462	-0.067912	99
Es	1.370351	1.441738	0.001808	99
Es	0.312480	-2.573514	0.008001	99
Es	0.901011	0.134137	-0.247192	99
Es	0.767878	0.166208	0.310513	99
Es	-1.810062	-1.450867	-0.003908	99
Es	0.055981	-0.852342	0.001920	99
Es	-2.049413	-1.794077	0.581398	99
Es	0.113319	-2.850939	0.007609	99
Es	2.680442	3.756038	0.002137	99
Es	0.106457	-2.167471	0.244211	99
Es	0.401726	-0.266126	0.002422	99
Es	-1.057121	-1.468734	-0.000004	99
35
Properties=species:S:1:pos:R:3:Z:I:1 energy=-304.3576944666407 field_type=dipole dipole="0.000000 0.000000 0.000000" charge=0
C	-1.810132	-1.450868	-0.003908	6
C	-0.311772	-1.520228	0.003612	6
O	0.312658	-2.573768	0.008002	8
C	0.401829	-0.265948	0.002422	6
C	0.994508	0.778222	0.001882	6
C	1.749318	2.110892	0.001632	6
C	2.340598	3.154772	0.001472	6
H	-2.160192	-0.414648	0.011232	1
H	-2.197822	-1.963328	0.880662	1
H	-2.187712	-1.934978	-0.908518	1
H	2.868718	4.079882	0.001512	1
Es	0.994740	0.778665	0.001876	99
Es	-2.030186	-0.741321	0.005807	99
Es	0.109437	-2.854168	0.006651	99
Es	1.749062	2.110435	0.001632	99
Es	-1.810064	-1.450866	-0.003910	99
Es	0.056191	-0.852366	0.003395	99
Es	-0.311728	-1.520085	0.003605	99
Es	0.312484	-2.573519	0.007993	99
Es	0.996914	0.116843	0.142794	99
Es	0.495898	-2.526579	0.010964	99
Es	-2.052469	-1.800052	0.580862	99
Es	2.340696	3.154966	0.001471	99
Es	1.369889	1.441959	0.001720	99
Es	0.145205	-2.166998	0.252855	99
Es	-2.036514	-1.770583	-0.601106	99
Es	-1.064039	-1.473131	-0.000713	99
Es	2.291261	2.466353	-0.185790	99
Es	0.159974	-2.154582	-0.240040	99
Es	2.680874	3.756243	0.001521	99
Es	0.408888	0.458905	0.100242	99
Es	0.401723	-0.266129	0.002416	99
Es	0.673955	0.190998	-0.237039	99
Es	2.058098	2.574901	0.300165	99
Es	1.740527	2.783210	-0.110050	99
35
Properties=species:S:1:pos:R:3:Z:I:1 energy=-304.3576944666407 field_type=dipole dipole="0.000000 0.000000 0.000000" charge=0
C	-1.810132	-1.450868	-0.003908	6
C	-0.311772	-1.520228	0.003612	6
O	0.312658	-2.573768	0.008002	8
C	0.401829	-0.265948	0.002422	6
C	0.994508	0.778222	0.001882	6
C	1.749318	2.110892	0.001632	6
C	2.340598	3.154772	0.001472	6
H	-2.160192	-0.414648	0.011232	1
H	-2.197822	-1.963328	0.880662	1
H	-2.187712	-1.934978	-0.908518	1
H	2.868718	4.079882	0.001512	1
Es	1.007694	0.113976	0.118322	99
Es	0.404493	0.463131	0.079754	99
Es	2.340703	3.154963	0.001471	99
Es	1.749076	2.110427	0.001629	99
Es	2.056353	2.576254	-0.301496	99
Es	-2.028339	-1.762324	-0.596218	99
Es	0.056711	-0.852569	0.003409	99
Es	-2.016936	-0.738987	0.006030	99
Es	2.289937	2.467067	0.184092	99
Es	-0.311727	-1.520083	0.003619	99
Es	1.369765	1.442030	0.001753	99
Es	0.312520	-2.573562	0.008000	99
Es	0.121984	-2.861557	0.007380	99
Es	2.680069	3.756714	0.001231	99
Es	0.350294	-2.487626	0.008057	99
Es	0.401725	-0.266130	0.002426	99
Es	-1.810063	-1.450868	-0.003907	99
Es	0.994740	0.778666	0.001878	99
Es	0.125606	-2.228901	0.021927	99
Es	1.743694	2.781078	0.122135	99
Es	-1.077907	-1.476303	0.000348	99
Es	-2.058797	-1.810019	0.575858	99
Es	0.311467	-2.121826	-0.008292	99
Es	0.667756	0.189546	-0.192084	99
