36
Properties=species:S:1:pos:R:3:Z:I:1 energy=-341.42847146758146 field_type=dipole dipole="0.000000 0.000000 0.000000" charge=0
C	-1.708575	-1.229157	-0.003944	6
C	-0.209535	-1.305507	0.004126	6
O	0.412675	-2.359057	0.008896	8
C	0.513746	-0.056007	0.002436	6
C	1.126745	0.977103	0.001736	6
C	1.864125	2.212993	0.001376	6
O	1.278645	3.285842	0.000856	8
H	-2.053804	-0.192097	0.011496	1
H	-2.098165	-1.741127	0.880116	1
H	-2.087355	-1.712157	-0.908764	1
H	2.961495	2.119173	0.001666	1
Es	0.215614	-2.603040	0.008561	99
Es	1.114142	0.295476	0.125121	99
Es	0.513627	-0.056191	0.002435	99
Es	0.771047	0.492856	-0.338501	99
Es	0.412512	-2.358778	0.008896	99
Es	1.487051	1.557621	0.002189	99
Es	1.478681	3.524904	0.001116	99
Es	1.126864	0.977303	0.001731	99
Es	-1.941166	-1.550889	-0.604201	99
Es	0.970918	3.256140	0.000287	99
Es	1.864048	2.212871	0.001374	99
Es	1.278802	3.285554	0.000852	99
Es	-0.952325	-1.246678	0.000685	99
Es	0.580868	0.610019	0.217624	99
Es	0.721311	-2.323659	0.009365	99
Es	-1.949335	-1.570193	0.582547	99
Es	0.161244	-0.638700	0.004129	99
Es	-1.708499	-1.229159	-0.003945	99
Es	-1.931493	-0.530125	0.006187	99
Es	1.496258	2.867465	-0.250027	99
Es	-0.209480	-1.305374	0.004127	99
Es	0.189139	-1.954940	0.258589	99
Es	0.190321	-1.955594	-0.243290	99
Es	1.495453	2.867356	0.252495	99
Es	2.599216	2.136922	0.001632	99
36
Properties=species:S:1:pos:R:3:Z:I:1 energy=-341.42847146758146 field_type=dipole dipole="0.000000 0.000000 0.000000" charge=0
C	-1.708575	-1.229157	-0.003944	6
C	-0.209535	-1.305507	0.004126	6
O	0.412675	-2.359057	0.008896	8
C	0.513746	-0.056007	0.002436	6
C	1.126745	0.977103	0.001736	6
C	1.864125	2.212993	0.001376	6
O	1.278645	3.285842	0.000856	8
H	-2.053804	-0.192097	0.011496	1
H	-2.098165	-1.741127	0.880116	1
H	-2.087355	-1.712157	-0.908764	1
H	2.961495	2.119173	0.001666	1
Es	-1.939118	-1.551969	-0.600052	99
Es	1.278830	3.285569	0.000856	99
Es	0.195740	-1.954715	-0.237165	99
Es	1.126864	0.977318	0.001739	99
Es	0.539971	0.633931	-0.149809	99
Es	-1.708499	-1.229159	-0.003944	99
Es	1.490353	2.865592	-0.244503	99
Es	1.104292	0.301096	-0.153570	99
Es	0.696282	-2.295035	0.010046	99
Es	1.465419	3.557698	0.000870	99
Es	1.490651	2.865122	0.246252	99
Es	1.482421	1.560460	0.001747	99
Es	0.513641	-0.056205	0.002435	99
Es	-0.952887	-1.250600	0.000262	99
Es	0.995866	3.228147	0.000953	99
Es	0.822902	0.462671	0.309575	99
Es	2.598055	2.137872	0.001582	99
Es	1.864052	2.212866	0.001376	99
Es	0.412499	-2.358714	0.008895	99
Es	-1.947138	-1.571382	0.578917	99
Es	0.165018	-0.641015	0.003072	99
Es	-1.933944	-0.524545	0.006100	99
Es	0.229940	-2.636313	0.009242	99
Es	0.193091	-1.952156	0.250977	99
Es	-0.209485	-1.305367	0.004123	99
36
Properties=species:S:1:pos:R:3:Z:I:1 energy=-341.42847146758146 field_type=dipole dipole="0.000000 0.000000 0.000000" charge=0
C	-1.708575	-1.229157	-0.003944	6
C	-0.209535	-1.305507	0.004126	6
O	0.412675	-2.359057	0.008896	8
C	0.513746	-0.056007	0.002436	6
C	1.126745	0.977103	0.001736	6
C	1.864125	2.212993	0.001376	6
O	1.278645	3.285842	0.000856	8
H	-2.053804	-0.192097	0.011496	1
H	-2.098165	-1.741127	0.880116	1
H	-2.087355	-1.712157	-0.908764	1
H	2.961495	2.119173	0.001666	1
Es	0.412521	-2.358834	0.008891	99
Es	-1.947185	-1.572418	0.577103	99
Es	0.197207	-1.949549	0.249341	99
Es	1.864051	2.212865	0.001373	99
Es	-0.953548	-1.252910	0.000322	99
Es	1.480580	1.561226	0.001371	99
Es	-1.708500	-1.229160	-0.003944	99
Es	-0.209484	-1.305367	0.004123	99
Es	0.166561	-0.641644	0.002990	99
Es	1.452881	3.571508	0.000765	99
Es	0.239920	-2.648138	0.009249	99
Es	0.200963	-1.953550	-0.235509	99
Es	1.486322	2.864587	-0.242426	99
Es	2.597209	2.138371	0.001692	99
Es	0.818727	0.465197	-0.239491	99
Es	1.126855	0.977321	0.001729	99
Es	0.513626	-0.056208	0.002435	99
Es	1.278826	3.285597	0.000861	99
Es	0.525449	0.642026	0.125962	99
Es	0.676224	-2.287182	0.010110	99
Es	1.486762	2.863216	0.244523	99
Es	1.123243	0.290355	0.120030	99
Es	-1.933949	-0.522295	0.005958	99
Es	-1.937473	-1.551287	-0.598192	99
Es	1.017032	3.217443	0.000715	99
36
Properties=species:S:1:pos:R:3:Z:I:1 energy=-341.42847146758146 field_type=dipole dipole="0.000000 0.000000 0.000000" charge=0
C	-1.708575	-1.229157	-0.003944	6
C	-0.209535	-1.305507	0.004126	6
O	0.412675	-2.359057	0.008896	8
C	0.513746	-0.056007	0.002436	6
C	1.126745	0.977103	0.001736	6
C	1.864125	2.212993	0.001376	6
O	1.278645	3.285842	0.000856	8
H	-2.053804	-0.192097	0.011496	1
H	-2.098165	-1.741127	0.880116	1
H	-2.087355	-1.712157	-0.908764	1
H	2.961495	2.119173	0.001666	1
Es	-1.708499	-1.229158	-0.003944	99
Es	-1.932930	-0.521161	0.005981	99
Es	1.443806	3.578419	0.000997	99
Es	1.126855	0.977328	0.001735	99
Es	0.510062	0.651206	0.068846	99
Es	0.663006	-2.286326	0.010085	99
Es	1.864051	2.212864	0.001375	99
Es	-1.946990	-1.573267	0.577033	99
Es	1.134435	0.283164	0.078166	99
Es	0.167165	-0.641797	0.003047	99
Es	0.412493	-2.358821	0.008903	99
Es	0.243639	-2.652511	0.009537	99
Es	-0.209484	-1.305366	0.004120	99
Es	1.481602	2.861759	0.245209	99
Es	1.036310	3.214341	0.000623	99
Es	0.822851	0.463226	-0.140640	99
Es	-0.954682	-1.253807	0.000221	99
Es	2.596273	2.138693	0.001603	99
Es	1.278868	3.285569	0.000859	99
Es	0.200562	-1.944623	0.248031	99
Es	1.481885	2.862452	-0.243070	99
Es	0.206467	-1.955129	-0.234729	99
Es	0.513639	-0.056217	0.002435	99
Es	-1.936708	-1.550947	-0.597824	99
Es	1.480142	1.561278	0.001381	99
36
Properties=species:S:1:pos:R:3:Z:I:1 energy=-341.42847146758146 field_type=dipole dipole="0.000000 0.000000 0.000000" charge=0
C	-1.708575	-1.229157	-0.003944	6
C	-0.209535	-1.305507	0.004126	6
O	0.412675	-2.359057	0.008896	8
C	0.513746	-0.056007	0.002436	6
C	1.126745	0.977103	0.001736	6
C	1.864125	2.212993	0.001376	6
O	1.278645	3.285842	0.000856	8
H	-2.053804	-0.192097	0.011496	1
H	-2.098165	-1.741127	0.880116	1
H	-2.087355	-1.712157	-0.908764	1
H	2.961495	2.119173	0.001666	1
Es	1.477570	2.861069	0.244695	99
Es	1.278841	3.285550	0.000855	99
Es	0.206839	-1.947048	0.250030	99
Es	1.479733	1.561338	0.001807	99
Es	0.412495	-2.358813	0.008892	99
Es	0.649727	-2.286206	0.009284	99
Es	1.477450	2.860622	-0.242862	99
Es	1.126856	0.977325	0.001738	99
Es	-1.932106	-0.520258	0.005983	99
Es	1.046155	3.215214	0.001040	99
Es	0.208971	-1.949646	-0.234673	99
Es	-1.935473	-1.549927	-0.597196	99
Es	-1.708497	-1.229161	-0.003943	99
Es	0.513638	-0.056218	0.002440	99
Es	0.821365	0.464410	0.009285	99
Es	-1.947577	-1.574495	0.576357	99
Es	1.442828	3.580135	0.000912	99
Es	0.167539	-0.641860	0.002917	99
Es	-0.955661	-1.254702	0.000053	99
Es	0.247715	-2.655727	0.008445	99
Es	0.505087	0.654242	-0.004347	99
Es	2.595749	2.138922	0.001576	99
Es	-0.209484	-1.305365	0.004123	99
Es	1.864051	2.212864	0.001379	99
Es	1.141007	0.278903	0.001191	99
36
Properties=species:S:1:pos:R:3:Z:I:1 energy=-341.42847146758146 field_type=dipole dipole="0.000000 0.000000 0.000000" charge=0
C	-1.708575	-1.229157	-0.003944	6
C	-0.209535	-1.305507	0.004126	6
O	0.412675	-2.359057	0.008896	8
C	0.513746	-0.056007	0.002436	6
C	1.126745	0.977103	0.001736	6
C	1.864125	2.212993	0.001376	6
O	1.278645	3.285842	0.000856	8
H	-2.053804	-0.192097	0.011496	1
H	-2.098165	-1.741127	0.880116	1
H	-2.087355	-1.712157	-0.908764	1
H	2.961495	2.119173	0.001666	1
Es	1.473669	2.854992	-0.242272	99
Es	1.864049	2.212865	0.001368	99
Es	1.278834	3.285595	0.000858	99
Es	0.412458	-2.358777	0.008895	99
Es	1.140588	0.279078	0.001565	99
Es	0.250457	-2.657639	0.006456	99
Es	1.473909	2.864813	0.242663	99
Es	2.595398	2.139098	0.001384	99
Es	-1.935170	-1.549321	-0.596436	99
Es	0.206977	-1.925859	-0.216972	99
Es	-1.931701	-0.519660	0.006421	99
Es	1.441458	3.581497	0.001825	99
Es	-1.947841	-1.574746	0.575032	99
Es	0.505589	0.654024	0.005318	99
Es	0.214053	-1.969455	0.233276	99
Es	1.055223	3.215696	0.002033	99
Es	-0.209484	-1.305365	0.004121	99
Es	-1.708497	-1.229162	-0.003941	99
Es	-0.955879	-1.255882	-0.000118	99
Es	1.126852	0.977330	0.001733	99
Es	1.479376	1.561375	0.001969	99
Es	0.821398	0.464396	-0.000667	99
Es	0.513636	-0.056218	0.002435	99
Es	0.641662	-2.285646	0.010489	99
Es	0.167805	-0.641858	0.002543	99
36
Properties=species:S:1:pos:R:3:Z:I:1 energy=-341.42847146758146 field_type=dipole dipole="0.000000 0.000000 0.000000" charge=0
C	-1.708575	-1.229157	-0.003944	6
C	-0.209535	-1.305507	0.004126	6
O	0.412675	-2.359057	0.008896	8
C	0.513746	-0.056007	0.002436	6
C	1.126745	0.977103	0.001736	6
C	1.864125	2.212993	0.001376	6
O	1.278645	3.285842	0.000856	8
H	-2.053804	-0.192097	0.011496	1
H	-2.098165	-1.741127	0.880116	1
H	-2.087355	-1.712157	-0.908764	1
H	2.961495	2.119173	0.001666	1
Es	-0.957284	-1.255844	0.000313	99
Es	-0.209484	-1.305366	0.004126	99
Es	2.594935	2.139062	0.002052	99
Es	0.221968	-1.991110	-0.163869	99
Es	0.505979	0.653862	-0.006555	99
Es	1.472584	2.857062	0.245122	99
Es	0.167839	-0.641856	0.002823	99
Es	0.627050	-2.288688	0.006344	99
Es	-1.708500	-1.229159	-0.003942	99
Es	1.060115	3.215323	0.000424	99
Es	1.140006	0.279388	0.017309	99
Es	0.251302	-2.658369	0.011393	99
Es	-1.930663	-0.519345	0.006021	99
Es	-1.930058	-1.543362	-0.594571	99
Es	0.412437	-2.358795	0.008890	99
Es	1.473058	2.862173	-0.243024	99
Es	0.513646	-0.056223	0.002432	99
Es	-1.952465	-1.581163	0.573654	99
Es	0.821591	0.464249	-0.004520	99
Es	0.212818	-1.900400	0.178968	99
Es	1.126852	0.977331	0.001733	99
Es	1.278817	3.285528	0.000855	99
Es	1.864050	2.212864	0.001373	99
Es	1.438865	3.582638	0.000763	99
Es	1.479356	1.561364	0.001864	99
36
Properties=species:S:1:pos:R:3:Z:I:1 energy=-341.42847146758146 field_type=dipole dipole="0.000000 0.000000 0.000000" charge=0
C	-1.708575	-1.229157	-0.003944	6
C	-0.209535	-1.305507	0.004126	6
O	0.412675	-2.359057	0.008896	8
C	0.513746	-0.056007	0.002436	6
C	1.126745	0.977103	0.001736	6
C	1.864125	2.212993	0.001376	6
O	1.278645	3.285842	0.000856	8
H	-2.053804	-0.192097	0.011496	1
H	-2.098165	-1.741127	0.880116	1
H	-2.087355	-1.712157	-0.908764	1
H	2.961495	2.119173	0.001666	1
Es	0.506322	0.653707	0.013613	99
Es	1.468377	2.897014	-0.170306	99
Es	1.074909	3.217059	-0.000985	99
Es	0.253049	-2.659001	0.004079	99
Es	0.821459	0.464404	0.003037	99
Es	-0.209484	-1.305365	0.004126	99
Es	-1.708499	-1.229159	-0.003944	99
Es	0.626357	-2.287806	0.011712	99
Es	0.167849	-0.641835	0.002523	99
Es	-1.929912	-0.519103	0.006608	99
Es	1.479308	1.561336	0.002184	99
Es	2.594941	2.139248	0.001662	99
Es	0.218323	-1.979337	0.214704	99
Es	1.864050	2.212864	0.001375	99
Es	-1.941606	-1.558550	-0.597033	99
Es	0.513642	-0.056223	0.002435	99
Es	0.214962	-1.912530	-0.197748	99
Es	0.412471	-2.358803	0.008894	99
Es	1.437150	3.583625	0.005609	99
Es	1.139786	0.279400	-0.010529	99
Es	1.464045	2.819345	0.169750	99
Es	1.278846	3.285591	0.000855	99
Es	-0.957736	-1.255757	0.000335	99
Es	-1.940648	-1.566284	0.575278	99
Es	1.126858	0.977329	0.001748	99
36
Properties=species:S:1:pos:R:3:Z:I:1 energy=-341.42847146758146 field_type=dipole dipole="0.000000 0.000000 0.000000" charge=0
C	-1.708575	-1.229157	-0.003944	6
C	-0.209535	-1.305507	0.004126	6
O	0.412675	-2.359057	0.008896	8
C	0.513746	-0.056007	0.002436	6
C	1.126745	0.977103	0.001736	6
C	1.864125	2.212993	0.001376	6
O	1.278645	3.285842	0.000856	8
H	-2.053804	-0.192097	0.011496	1
H	-2.098165	-1.741127	0.880116	1
H	-2.087355	-1.712157	-0.908764	1
H	2.961495	2.119173	0.001666	1
Es	1.864050	2.212864	0.001378	99
Es	0.167923	-0.641842	0.002784	99
Es	1.126846	0.977335	0.001737	99
Es	0.821189	0.464503	0.011223	99
Es	-1.930266	-1.543917	-0.595205	99
Es	0.222088	-1.882109	0.062873	99
Es	2.594384	2.139109	0.001764	99
Es	1.466629	2.851402	-0.243864	99
Es	-1.951822	-1.580866	0.574136	99
Es	1.278820	3.285508	0.000856	99
Es	-1.929446	-0.518936	0.006201	99
Es	0.613004	-2.291009	0.009149	99
Es	-1.708500	-1.229159	-0.003944	99
Es	1.479304	1.561336	0.001999	99
Es	-0.209484	-1.305366	0.004127	99
Es	1.139802	0.279375	0.006507	99
Es	1.074638	3.216181	0.001962	99
Es	1.435183	3.584344	0.000736	99
Es	1.468522	2.865400	0.244800	99
Es	0.412472	-2.358768	0.008895	99
Es	0.506569	0.653624	-0.011622	99
Es	0.513647	-0.056224	0.002435	99
Es	-0.958707	-1.256132	0.000036	99
Es	0.226449	-2.006642	-0.048159	99
Es	0.251526	-2.658840	0.009176	99
36
Properties=species:S:1:pos:R:3:Z:I:1 energy=-341.42847146758146 field_type=dipole dipole="0.000000 0.000000 0.000000" charge=0
C	-1.708575	-1.229157	-0.003944	6
C	-0.209535	-1.305507	0.004126	6
O	0.412675	-2.359057	0.008896	8
C	0.513746	-0.056007	0.002436	6
C	1.126745	0.977103	0.001736	6
C	1.864125	2.212993	0.001376	6
O	1.278645	3.285842	0.000856	8
H	-2.053804	-0.192097	0.011496	1
H	-2.098165	-1.741127	0.880116	1
H	-2.087355	-1.712157	-0.908764	1
H	2.961495	2.119173	0.001666	1
Es	0.228089	-1.880541	0.050781	99
Es	1.436304	3.583995	0.003738	99
Es	0.506518	0.653689	-0.001378	99
Es	0.412474	-2.358766	0.008894	99
Es	1.479204	1.561351	0.002255	99
Es	1.126847	0.977334	0.001732	99
Es	0.168002	-0.641863	0.002521	99
Es	-1.708500	-1.229159	-0.003943	99
Es	1.864050	2.212864	0.001376	99
Es	-0.209484	-1.305366	0.004136	99
Es	1.468338	2.879491	-0.226081	99
Es	-1.948517	-1.576558	0.575392	99
Es	-1.929130	-0.518800	0.006550	99
Es	0.603926	-2.290783	0.008952	99
Es	-0.959056	-1.256200	0.000851	99
Es	1.463887	2.836832	0.226803	99
Es	0.226502	-2.007275	-0.034452	99
Es	0.513640	-0.056221	0.002434	99
Es	1.076450	3.216949	-0.000611	99
Es	0.821416	0.464372	0.000707	99
Es	2.594312	2.139149	0.001797	99
Es	1.139651	0.279437	0.006797	99
Es	-1.933405	-1.548303	-0.597238	99
Es	1.278850	3.285560	0.000858	99
Es	0.254450	-2.660020	0.007105	99
36
Properties=species:S:1:pos:R:3:Z:I:1 energy=-341.42847146758146 field_type=dipole dipole="0.000000 0.000000 0.000000" charge=0
C	-1.708575	-1.229157	-0.003944	6
C	-0.209535	-1.305507	0.004126	6
O	0.412675	-2.359057	0.008896	8
C	0.513746	-0.056007	0.002436	6
C	1.126745	0.977103	0.001736	6
C	1.864125	2.212993	0.001376	6
O	1.278645	3.285842	0.000856	8
H	-2.053804	-0.192097	0.011496	1
H	-2.098165	-1.741127	0.880116	1
H	-2.087355	-1.712157	-0.908764	1
H	2.961495	2.119173	0.001666	1
Es	0.603234	-2.290963	0.009426	99
Es	1.459675	2.833725	-0.221730	99
Es	1.864050	2.212864	0.001375	99
Es	-0.209484	-1.305366	0.004132	99
Es	1.139416	0.279557	0.012522	99
Es	1.126849	0.977333	0.001740	99
Es	-1.954700	-1.585120	0.571718	99
Es	0.168012	-0.641843	0.002463	99
Es	1.467370	2.881741	0.222256	99
Es	-1.708498	-1.229158	-0.003944	99
Es	0.506824	0.653539	-0.009506	99
Es	-1.926842	-1.540018	-0.593143	99
Es	0.412448	-2.358811	0.008898	99
Es	-1.928740	-0.518688	0.006398	99
Es	-0.959639	-1.256075	-0.000035	99
Es	1.479246	1.561317	0.002186	99
Es	1.434483	3.584793	0.000098	99
Es	2.594068	2.139211	0.001620	99
Es	0.513638	-0.056220	0.002437	99
Es	0.226470	-2.007947	-0.012677	99
Es	1.278822	3.285601	0.000853	99
Es	0.229118	-1.879767	0.028452	99
Es	1.083532	3.217004	0.003306	99
Es	0.821375	0.464389	0.003104	99
Es	0.254090	-2.659929	0.008031	99
36
Properties=species:S:1:pos:R:3:Z:I:1 energy=-341.42847146758146 field_type=dipole dipole="0.000000 0.000000 0.000000" charge=0
C	-1.708575	-1.229157	-0.003944	6
C	-0.209535	-1.305507	0.004126	6
O	0.412675	-2.359057	0.008896	8
C	0.513746	-0.056007	0.002436	6
C	1.126745	0.977103	0.001736	6
C	1.864125	2.212993	0.001376	6
O	1.278645	3.285842	0.000856	8
H	-2.053804	-0.192097	0.011496	1
H	-2.098165	-1.741127	0.880116	1
H	-2.087355	-1.712157	-0.908764	1
H	2.961495	2.119173	0.001666	1
Es	1.433251	3.585273	0.004108	99
Es	0.226338	-2.006517	-0.049070	99
Es	0.513637	-0.056219	0.002435	99
Es	0.255338	-2.660408	0.007984	99
Es	2.594151	2.139246	0.002220	99
Es	-1.928023	-0.518579	0.006318	99
Es	-1.945740	-1.573423	0.576747	99
Es	1.467510	2.894459	-0.181594	99
Es	1.278848	3.285555	0.000856	99
Es	-1.935785	-1.551860	-0.598238	99
Es	0.506741	0.653596	0.003812	99
Es	1.088962	3.217182	-0.001512	99
Es	0.599521	-2.290780	0.008092	99
Es	1.479143	1.561356	0.002050	99
Es	-0.209484	-1.305366	0.004128	99
Es	0.821412	0.464376	-0.003575	99
Es	1.139431	0.279519	0.005955	99
Es	1.126849	0.977333	0.001737	99
Es	-1.708498	-1.229160	-0.003944	99
Es	1.864050	2.212864	0.001374	99
Es	1.455277	2.820347	0.182347	99
Es	0.231546	-1.880935	0.065619	99
Es	-0.960214	-1.255995	0.000565	99
Es	0.412481	-2.358827	0.008895	99
Es	0.168075	-0.641870	0.002670	99
36
Properties=species:S:1:pos:R:3:Z:I:1 energy=-341.42847146758146 field_type=dipole dipole="0.000000 0.000000 0.000000" charge=0
C	-1.708575	-1.229157	-0.003944	6
C	-0.209535	-1.305507	0.004126	6
O	0.412675	-2.359057	0.008896	8
C	0.513746	-0.056007	0.002436	6
C	1.126745	0.977103	0.001736	6
C	1.864125	2.212993	0.001376	6
O	1.278645	3.285842	0.000856	8
H	-2.053804	-0.192097	0.011496	1
H	-2.098165	-1.741127	0.880116	1
H	-2.087355	-1.712157	-0.908764	1
H	2.961495	2.119173	0.001666	1
Es	1.453043	2.824446	-0.198824	99
Es	0.595981	-2.290667	0.009844	99
Es	0.168149	-0.641888	0.002426	99
Es	1.092333	3.217230	0.004007	99
Es	0.233841	-1.879108	0.021533	99
Es	-1.924852	-1.537688	-0.591601	99
Es	0.513638	-0.056220	0.002428	99
Es	-1.708500	-1.229158	-0.003944	99
Es	1.278852	3.285590	0.000859	99
Es	1.467096	2.890066	0.199096	99
Es	-1.956335	-1.587683	0.569875	99
Es	0.412463	-2.358821	0.008894	99
Es	1.432642	3.585539	0.000026	99
Es	1.479138	1.561332	0.002369	99
Es	0.256461	-2.660831	0.007265	99
Es	-1.928122	-0.518516	0.006641	99
Es	-0.209484	-1.305365	0.004126	99
Es	-0.960423	-1.255962	0.000019	99
Es	0.507148	0.653347	-0.016261	99
Es	1.126846	0.977334	0.001743	99
Es	0.226471	-2.008063	-0.005496	99
Es	1.139351	0.279586	0.010440	99
Es	2.593954	2.139233	0.001349	99
Es	0.821076	0.464572	0.011794	99
Es	1.864051	2.212863	0.001373	99
36
Properties=species:S:1:pos:R:3:Z:I:1 energy=-341.42847146758146 field_type=dipole dipole="0.000000 0.000000 0.000000" charge=0
C	-1.708575	-1.229157	-0.003944	6
C	-0.209535	-1.305507	0.004126	6
O	0.412675	-2.359057	0.008896	8
C	0.513746	-0.056007	0.002436	6
C	1.126745	0.977103	0.001736	6
C	1.864125	2.212993	0.001376	6
O	1.278645	3.285842	0.000856	8
H	-2.053804	-0.192097	0.011496	1
H	-2.098165	-1.741127	0.880116	1
H	-2.087355	-1.712157	-0.908764	1
H	2.961495	2.119173	0.001666	1
Es	0.226295	-2.006544	-0.048932	99
Es	0.821467	0.464333	-0.013839	99
Es	-1.708499	-1.229158	-0.003943	99
Es	0.412521	-2.358830	0.008888	99
Es	-1.945397	-1.573460	0.576988	99
Es	0.235445	-1.880471	0.065103	99
Es	-0.960850	-1.255815	0.000720	99
Es	1.139185	0.279627	0.012007	99
Es	1.431872	3.585850	0.004153	99
Es	1.096931	3.217488	-0.001136	99
Es	0.506952	0.653524	0.008068	99
Es	0.256759	-2.660948	0.008407	99
Es	1.466742	2.900604	-0.150208	99
Es	0.594051	-2.290719	0.007912	99
Es	1.864050	2.212864	0.001376	99
Es	2.594022	2.139332	0.002207	99
Es	-0.209484	-1.305365	0.004128	99
Es	1.449494	2.813371	0.150517	99
Es	1.479125	1.561336	0.002099	99
Es	1.278812	3.285495	0.000856	99
Es	1.126845	0.977335	0.001737	99
Es	0.168138	-0.641878	0.002566	99
Es	0.513643	-0.056223	0.002436	99
Es	-1.935702	-1.552116	-0.598521	99
Es	-1.927598	-0.518462	0.006389	99
36
Properties=species:S:1:pos:R:3:Z:I:1 energy=-341.42847146758146 field_type=dipole dipole="0.000000 0.000000 0.000000" charge=0
C	-1.708575	-1.229157	-0.003944	6
C	-0.209535	-1.305507	0.004126	6
O	0.412675	-2.359057	0.008896	8
C	0.513746	-0.056007	0.002436	6
C	1.126745	0.977103	0.001736	6
C	1.864125	2.212993	0.001376	6
O	1.278645	3.285842	0.000856	8
H	-2.053804	-0.192097	0.011496	1
H	-2.098165	-1.741127	0.880116	1
H	-2.087355	-1.712157	-0.908764	1
H	2.961495	2.119173	0.001666	1
Es	0.591933	-2.290450	0.009959	99
Es	2.593899	2.139274	0.001484	99
Es	1.100811	3.216964	0.003087	99
Es	-1.925604	-1.538766	-0.592490	99
Es	1.139293	0.279601	0.010146	99
Es	0.226548	-2.007910	-0.013596	99
Es	0.168085	-0.641848	0.002546	99
Es	1.864050	2.212866	0.001381	99
Es	1.465967	2.896757	0.171461	99
Es	1.430049	3.586527	-0.000118	99
Es	0.236255	-1.879007	0.028637	99
Es	1.278890	3.285587	0.000852	99
Es	0.412474	-2.358821	0.008894	99
Es	-0.960890	-1.255960	-0.000032	99
Es	-1.708499	-1.229159	-0.003944	99
Es	-1.927432	-0.518397	0.006344	99
Es	1.126846	0.977335	0.001733	99
Es	0.821146	0.464528	0.010320	99
Es	-1.955575	-1.586720	0.571172	99
Es	1.448274	2.817024	-0.170366	99
Es	1.479057	1.561360	0.002185	99
Es	0.257809	-2.661347	0.008176	99
Es	0.513647	-0.056224	0.002450	99
Es	0.507266	0.653319	-0.014427	99
Es	-0.209484	-1.305366	0.004127	99
36
Properties=species:S:1:pos:R:3:Z:I:1 energy=-341.42847146758146 field_type=dipole dipole="0.000000 0.000000 0.000000" charge=0
C	-1.708575	-1.229157	-0.003944	6
C	-0.209535	-1.305507	0.004126	6
O	0.412675	-2.359057	0.008896	8
C	0.513746	-0.056007	0.002436	6
C	1.126745	0.977103	0.001736	6
C	1.864125	2.212993	0.001376	6
O	1.278645	3.285842	0.000856	8
H	-2.053804	-0.192097	0.011496	1
H	-2.098165	-1.741127	0.880116	1
H	-2.087355	-1.712157	-0.908764	1
H	2.961495	2.119173	0.001666	1
Es	0.239849	-1.878817	0.036520	99
Es	1.139222	0.279576	0.001382	99
Es	-0.961375	-1.255866	0.000599	99
Es	0.412415	-2.358809	0.008894	99
Es	1.126846	0.977335	0.001737	99
Es	1.479062	1.561340	0.002304	99
Es	0.168171	-0.641882	0.002485	99
Es	1.278821	3.285604	0.000853	99
Es	1.431287	3.586106	0.004255	99
Es	-0.209489	-1.305366	0.004126	99
Es	1.101202	3.217460	-0.001459	99
Es	2.593894	2.139355	0.002186	99
Es	-1.708500	-1.229159	-0.003946	99
Es	0.513637	-0.056219	0.002433	99
Es	1.445703	2.810489	0.133727	99
Es	-1.936411	-1.553149	-0.598763	99
Es	0.226447	-2.007746	-0.019921	99
Es	0.258922	-2.661729	0.007366	99
Es	-1.927121	-0.518356	0.006491	99
Es	1.466910	2.903163	-0.133136	99
Es	1.864050	2.212864	0.001375	99
Es	0.821405	0.464391	0.003374	99
Es	0.507007	0.653508	0.001346	99
Es	-1.944564	-1.572503	0.577104	99
Es	0.587430	-2.290421	0.008642	99
36
Properties=species:S:1:pos:R:3:Z:I:1 energy=-341.42847146758146 field_type=dipole dipole="0.000000 0.000000 0.000000" charge=0
C	-1.708575	-1.229157	-0.003944	6
C	-0.209535	-1.305507	0.004126	6
O	0.412675	-2.359057	0.008896	8
C	0.513746	-0.056007	0.002436	6
C	1.126745	0.977103	0.001736	6
C	1.864125	2.212993	0.001376	6
O	1.278645	3.285842	0.000856	8
H	-2.053804	-0.192097	0.011496	1
H	-2.098165	-1.741127	0.880116	1
H	-2.087355	-1.712157	-0.908764	1
H	2.961495	2.119173	0.001666	1
Es	1.466278	2.900152	0.153293	99
Es	1.429629	3.586690	-0.000124	99
Es	0.513644	-0.056223	0.002434	99
Es	0.412472	-2.358822	0.008895	99
Es	1.278878	3.285586	0.000856	99
Es	1.104797	3.217111	0.003405	99
Es	-1.924453	-1.537627	-0.591686	99
Es	1.444391	2.813320	-0.152428	99
Es	1.479043	1.561348	0.002052	99
Es	1.126843	0.977336	0.001737	99
Es	0.226424	-2.007591	-0.025830	99
Es	-0.961388	-1.255921	0.000076	99
Es	0.587420	-2.290369	0.008544	99
Es	0.168181	-0.641870	0.002418	99
Es	0.507093	0.653456	-0.006277	99
Es	2.593819	2.139327	0.001457	99
Es	-1.956381	-1.588026	0.570089	99
Es	0.258941	-2.661759	0.008618	99
Es	-0.209484	-1.305366	0.004129	99
Es	-1.927117	-0.518281	0.006453	99
Es	0.821782	0.464133	-0.008953	99
Es	0.239714	-1.879034	0.041860	99
Es	1.138741	0.279892	0.021530	99
Es	-1.708499	-1.229159	-0.003944	99
Es	1.864050	2.212864	0.001376	99
