42
Properties=species:S:1:pos:R:3:Z:I:1 energy=-343.7734668946491 field_type=dipole dipole="0.000000 0.000000 0.000000" charge=0
C	-1.620592	-1.691848	0.190435	6
C	-0.099242	-1.632758	0.184555	6
O	0.379158	-2.306628	-0.976125	8
C	0.382778	-0.271588	0.184555	6
C	0.780058	0.850312	0.184555	6
C	1.262078	2.211482	0.184555	6
O	0.232278	3.076232	-0.272895	8
H	-2.036612	-1.205648	1.078085	1
H	-1.961412	-2.731968	0.168145	1
H	-2.039602	-1.204058	-0.696775	1
H	0.284948	-2.174268	1.055035	1
H	0.155738	-1.742178	-1.736205	1
H	2.125528	2.322572	-0.478505	1
H	1.555208	2.525412	1.191045	1
H	0.599688	3.974932	-0.260465	1
Es	0.193659	-2.021761	-0.545750	99
Es	0.013038	3.068800	-0.060389	99
Es	-0.099162	-1.632734	0.184350	99
Es	-0.857029	-1.638323	0.192629	99
Es	1.849587	2.270705	-0.261906	99
Es	0.164169	-1.983061	0.772998	99
Es	0.922797	0.199081	0.270054	99
Es	0.685149	-2.309393	-0.958880	99
Es	-1.842575	-2.397949	0.180412	99
Es	1.011207	1.507306	0.183746	99
Es	0.451444	3.553070	-0.257994	99
Es	0.246054	-1.991056	-1.371355	99
Es	0.150310	-0.918283	0.187492	99
Es	-1.620555	-1.691838	0.190439	99
Es	0.379003	-2.306312	-0.976130	99
Es	0.483279	0.314453	-0.167300	99
Es	0.639910	2.755354	-0.094402	99
Es	-1.896275	-1.360854	0.795065	99
Es	0.382711	-0.271799	0.184552	99
Es	1.261867	2.211506	0.184480	99
Es	0.185476	3.005743	-0.566278	99
Es	-1.893409	-1.356617	-0.415504	99
Es	0.780146	0.850564	0.184546	99
Es	0.208287	-2.562312	-0.996457	99
Es	0.343451	0.362990	0.446255	99
Es	0.232605	3.076334	-0.272802	99
Es	1.463113	2.407598	0.869380	99
42
Properties=species:S:1:pos:R:3:Z:I:1 energy=-343.7734668946491 field_type=dipole dipole="0.000000 0.000000 0.000000" charge=0
C	-1.620592	-1.691848	0.190435	6
C	-0.099242	-1.632758	0.184555	6
O	0.379158	-2.306628	-0.976125	8
C	0.382778	-0.271588	0.184555	6
C	0.780058	0.850312	0.184555	6
C	1.262078	2.211482	0.184555	6
O	0.232278	3.076232	-0.272895	8
H	-2.036612	-1.205648	1.078085	1
H	-1.961412	-2.731968	0.168145	1
H	-2.039602	-1.204058	-0.696775	1
H	0.284948	-2.174268	1.055035	1
H	0.155738	-1.742178	-1.736205	1
H	2.125528	2.322572	-0.478505	1
H	1.555208	2.525412	1.191045	1
H	0.599688	3.974932	-0.260465	1
Es	0.150472	-0.916681	0.188794	99
Es	-1.620558	-1.691838	0.190439	99
Es	0.382701	-0.271817	0.184561	99
Es	0.254350	-1.985934	-1.369120	99
Es	0.451304	3.561673	-0.259269	99
Es	0.232620	3.076344	-0.272796	99
Es	0.513670	0.299372	-0.173148	99
Es	0.662099	-2.288354	-0.957039	99
Es	0.378969	-2.306298	-0.976106	99
Es	1.011244	1.505381	0.183424	99
Es	0.199427	-2.019513	-0.548485	99
Es	1.463664	2.408936	0.867004	99
Es	-1.893631	-1.360175	0.792271	99
Es	-1.892164	-1.354666	-0.413449	99
Es	0.181418	3.001807	-0.559652	99
Es	-0.856870	-1.638221	0.192856	99
Es	1.261863	2.211508	0.184479	99
Es	0.216549	-2.591047	-0.996930	99
Es	-0.099163	-1.632733	0.184351	99
Es	-1.844490	-2.402387	0.180957	99
Es	0.780150	0.850579	0.184544	99
Es	0.327764	0.372506	0.417365	99
Es	1.848292	2.272472	-0.259850	99
Es	0.636723	2.752785	-0.092581	99
Es	0.021590	3.067128	-0.067328	99
Es	0.908083	0.204661	0.304348	99
Es	0.162177	-1.984272	0.771612	99
42
Properties=species:S:1:pos:R:3:Z:I:1 energy=-343.7734668946491 field_type=dipole dipole="0.000000 0.000000 0.000000" charge=0
C	-1.620592	-1.691848	0.190435	6
C	-0.099242	-1.632758	0.184555	6
O	0.379158	-2.306628	-0.976125	8
C	0.382778	-0.271588	0.184555	6
C	0.780058	0.850312	0.184555	6
C	1.262078	2.211482	0.184555	6
O	0.232278	3.076232	-0.272895	8
H	-2.036612	-1.205648	1.078085	1
H	-1.961412	-2.731968	0.168145	1
H	-2.039602	-1.204058	-0.696775	1
H	0.284948	-2.174268	1.055035	1
H	0.155738	-1.742178	-1.736205	1
H	2.125528	2.322572	-0.478505	1
H	1.555208	2.525412	1.191045	1
H	0.599688	3.974932	-0.260465	1
Es	0.780154	0.850581	0.184544	99
Es	0.378974	-2.306362	-0.976140	99
Es	0.150504	-0.915864	0.189046	99
Es	1.847267	2.273252	-0.258662	99
Es	0.260581	-1.982380	-1.367506	99
Es	0.347029	0.362147	0.435844	99
Es	0.232621	3.076348	-0.272851	99
Es	-0.856680	-1.637898	0.193067	99
Es	0.179131	3.001564	-0.555473	99
Es	0.205539	-2.017883	-0.550153	99
Es	0.646501	-2.283053	-0.957241	99
Es	0.161156	-1.984758	0.770721	99
Es	1.261863	2.211507	0.184480	99
Es	-1.892489	-1.359910	0.790422	99
Es	0.452167	3.564363	-0.259917	99
Es	-1.620558	-1.691838	0.190438	99
Es	0.382689	-0.271820	0.184564	99
Es	0.913485	0.202548	0.278518	99
Es	-0.099162	-1.632734	0.184349	99
Es	0.488736	0.311933	-0.165986	99
Es	0.634428	2.749965	-0.092213	99
Es	-1.845403	-2.404358	0.181263	99
Es	0.025964	3.067677	-0.070984	99
Es	-1.891351	-1.354089	-0.412044	99
Es	0.219348	-2.601557	-0.996138	99
Es	1.011714	1.504229	0.183711	99
Es	1.464046	2.409602	0.865592	99
42
Properties=species:S:1:pos:R:3:Z:I:1 energy=-343.7734668946491 field_type=dipole dipole="0.000000 0.000000 0.000000" charge=0
C	-1.620592	-1.691848	0.190435	6
C	-0.099242	-1.632758	0.184555	6
O	0.379158	-2.306628	-0.976125	8
C	0.382778	-0.271588	0.184555	6
C	0.780058	0.850312	0.184555	6
C	1.262078	2.211482	0.184555	6
O	0.232278	3.076232	-0.272895	8
H	-2.036612	-1.205648	1.078085	1
H	-1.961412	-2.731968	0.168145	1
H	-2.039602	-1.204058	-0.696775	1
H	0.284948	-2.174268	1.055035	1
H	0.155738	-1.742178	-1.736205	1
H	2.125528	2.322572	-0.478505	1
H	1.555208	2.525412	1.191045	1
H	0.599688	3.974932	-0.260465	1
Es	-0.856282	-1.637741	0.193117	99
Es	1.012118	1.503517	0.184040	99
Es	0.632215	-2.281718	-0.958050	99
Es	0.382698	-0.271824	0.184559	99
Es	-1.890936	-1.353744	-0.410682	99
Es	0.221257	-2.607198	-0.995667	99
Es	0.211651	-2.016554	-0.550397	99
Es	-1.620558	-1.691838	0.190439	99
Es	0.917366	0.200358	0.248280	99
Es	1.846630	2.273646	-0.257845	99
Es	0.160392	-1.984872	0.769894	99
Es	1.261869	2.211504	0.184481	99
Es	-0.099162	-1.632733	0.184349	99
Es	-1.846397	-2.405332	0.181362	99
Es	0.033228	3.068879	-0.072273	99
Es	0.452228	3.566092	-0.260475	99
Es	0.232651	3.076349	-0.272787	99
Es	-1.891650	-1.360016	0.788932	99
Es	0.266710	-1.979517	-1.366450	99
Es	0.150504	-0.915323	0.189436	99
Es	0.780155	0.850580	0.184552	99
Es	1.464190	2.410043	0.864565	99
Es	0.633412	2.747741	-0.093362	99
Es	0.463960	0.324739	-0.155959	99
Es	0.173293	3.000932	-0.552503	99
Es	0.367789	0.351576	0.455836	99
Es	0.378925	-2.306333	-0.976141	99
42
Properties=species:S:1:pos:R:3:Z:I:1 energy=-343.7734668946491 field_type=dipole dipole="0.000000 0.000000 0.000000" charge=0
C	-1.620592	-1.691848	0.190435	6
C	-0.099242	-1.632758	0.184555	6
O	0.379158	-2.306628	-0.976125	8
C	0.382778	-0.271588	0.184555	6
C	0.780058	0.850312	0.184555	6
C	1.262078	2.211482	0.184555	6
O	0.232278	3.076232	-0.272895	8
H	-2.036612	-1.205648	1.078085	1
H	-1.961412	-2.731968	0.168145	1
H	-2.039602	-1.204058	-0.696775	1
H	0.284948	-2.174268	1.055035	1
H	0.155738	-1.742178	-1.736205	1
H	2.125528	2.322572	-0.478505	1
H	1.555208	2.525412	1.191045	1
H	0.599688	3.974932	-0.260465	1
Es	0.378973	-2.306303	-0.976120	99
Es	1.261866	2.211506	0.184480	99
Es	-1.847114	-2.405959	0.181468	99
Es	0.170055	3.000212	-0.550363	99
Es	-0.099163	-1.632733	0.184350	99
Es	0.911946	0.202976	0.273140	99
Es	-1.891158	-1.360252	0.787573	99
Es	0.452410	3.567102	-0.261220	99
Es	0.621786	-2.282903	-0.957158	99
Es	0.150444	-0.914975	0.189770	99
Es	0.038486	3.070395	-0.074526	99
Es	1.846379	2.274045	-0.257318	99
Es	-0.856051	-1.637545	0.193418	99
Es	0.159991	-1.984928	0.769280	99
Es	0.485518	0.313705	-0.162774	99
Es	0.232521	3.076350	-0.272840	99
Es	0.351756	0.359967	0.437749	99
Es	0.274734	-1.976473	-1.365628	99
Es	-1.890561	-1.353534	-0.409699	99
Es	1.464140	2.410124	0.863601	99
Es	0.382699	-0.271824	0.184556	99
Es	0.220141	-2.609364	-0.995789	99
Es	-1.620558	-1.691838	0.190439	99
Es	0.214933	-2.016231	-0.551546	99
Es	1.012276	1.503075	0.184132	99
Es	0.631648	2.746035	-0.092268	99
Es	0.780154	0.850583	0.184544	99
42
Properties=species:S:1:pos:R:3:Z:I:1 energy=-343.7734668946491 field_type=dipole dipole="0.000000 0.000000 0.000000" charge=0
C	-1.620592	-1.691848	0.190435	6
C	-0.099242	-1.632758	0.184555	6
O	0.379158	-2.306628	-0.976125	8
C	0.382778	-0.271588	0.184555	6
C	0.780058	0.850312	0.184555	6
C	1.262078	2.211482	0.184555	6
O	0.232278	3.076232	-0.272895	8
H	-2.036612	-1.205648	1.078085	1
H	-1.961412	-2.731968	0.168145	1
H	-2.039602	-1.204058	-0.696775	1
H	0.284948	-2.174268	1.055035	1
H	0.155738	-1.742178	-1.736205	1
H	2.125528	2.322572	-0.478505	1
H	1.555208	2.525412	1.191045	1
H	0.599688	3.974932	-0.260465	1
Es	0.452699	3.567641	-0.261953	99
Es	0.378948	-2.306364	-0.976145	99
Es	1.012677	1.502647	0.184370	99
Es	-0.855786	-1.637261	0.193499	99
Es	0.219766	-2.015874	-0.551767	99
Es	0.456655	0.328712	-0.150983	99
Es	1.846197	2.274463	-0.256818	99
Es	0.780154	0.850585	0.184550	99
Es	0.916720	0.200104	0.238593	99
Es	0.382689	-0.271823	0.184546	99
Es	1.261870	2.211505	0.184481	99
Es	0.150417	-0.914702	0.189742	99
Es	0.048273	3.072964	-0.074673	99
Es	0.160753	2.999348	-0.548044	99
Es	0.375655	0.347886	0.460620	99
Es	0.612926	-2.283409	-0.958092	99
Es	0.279253	-1.974669	-1.364131	99
Es	-1.890221	-1.353991	-0.408679	99
Es	0.159637	-1.984697	0.768598	99
Es	-1.891124	-1.360112	0.786656	99
Es	-1.847496	-2.406397	0.181447	99
Es	0.219646	-2.611068	-0.995844	99
Es	-1.620558	-1.691838	0.190439	99
Es	0.631035	2.743751	-0.093622	99
Es	0.232666	3.076350	-0.272805	99
Es	1.463969	2.410195	0.862915	99
Es	-0.099163	-1.632731	0.184350	99
42
Properties=species:S:1:pos:R:3:Z:I:1 energy=-343.7734668946491 field_type=dipole dipole="0.000000 0.000000 0.000000" charge=0
C	-1.620592	-1.691848	0.190435	6
C	-0.099242	-1.632758	0.184555	6
O	0.379158	-2.306628	-0.976125	8
C	0.382778	-0.271588	0.184555	6
C	0.780058	0.850312	0.184555	6
C	1.262078	2.211482	0.184555	6
O	0.232278	3.076232	-0.272895	8
H	-2.036612	-1.205648	1.078085	1
H	-1.961412	-2.731968	0.168145	1
H	-2.039602	-1.204058	-0.696775	1
H	0.284948	-2.174268	1.055035	1
H	0.155738	-1.742178	-1.736205	1
H	2.125528	2.322572	-0.478505	1
H	1.555208	2.525412	1.191045	1
H	0.599688	3.974932	-0.260465	1
Es	1.846197	2.274748	-0.256511	99
Es	0.159780	2.999651	-0.546436	99
Es	0.159513	-1.984617	0.768115	99
Es	0.220383	-2.612755	-0.995652	99
Es	0.484353	0.314394	-0.159977	99
Es	-0.099162	-1.632732	0.184349	99
Es	-1.620557	-1.691837	0.190440	99
Es	0.352708	0.359601	0.437616	99
Es	-1.890676	-1.360715	0.785542	99
Es	0.911968	0.202721	0.270413	99
Es	0.050878	3.073932	-0.077190	99
Es	0.629514	2.742062	-0.092511	99
Es	0.780155	0.850584	0.184548	99
Es	1.463773	2.410225	0.862268	99
Es	0.378978	-2.306387	-0.976137	99
Es	0.232622	3.076344	-0.272719	99
Es	0.452830	3.568030	-0.262171	99
Es	0.382703	-0.271827	0.184551	99
Es	0.601646	-2.283781	-0.957931	99
Es	-1.890294	-1.353711	-0.407934	99
Es	0.222602	-2.016298	-0.552417	99
Es	0.150429	-0.914525	0.190039	99
Es	1.261864	2.211506	0.184478	99
Es	-0.855503	-1.637039	0.193866	99
Es	-1.848003	-2.406648	0.181574	99
Es	0.286749	-1.972109	-1.363509	99
Es	1.012807	1.502398	0.184545	99
42
Properties=species:S:1:pos:R:3:Z:I:1 energy=-343.7734668946491 field_type=dipole dipole="0.000000 0.000000 0.000000" charge=0
C	-1.620592	-1.691848	0.190435	6
C	-0.099242	-1.632758	0.184555	6
O	0.379158	-2.306628	-0.976125	8
C	0.382778	-0.271588	0.184555	6
C	0.780058	0.850312	0.184555	6
C	1.262078	2.211482	0.184555	6
O	0.232278	3.076232	-0.272895	8
H	-2.036612	-1.205648	1.078085	1
H	-1.961412	-2.731968	0.168145	1
H	-2.039602	-1.204058	-0.696775	1
H	0.284948	-2.174268	1.055035	1
H	0.155738	-1.742178	-1.736205	1
H	2.125528	2.322572	-0.478505	1
H	1.555208	2.525412	1.191045	1
H	0.599688	3.974932	-0.260465	1
Es	0.154216	3.000089	-0.543898	99
Es	1.261866	2.211506	0.184480	99
Es	0.219930	-2.613286	-0.996318	99
Es	0.359951	0.355840	0.444223	99
Es	-0.855365	-1.636820	0.193851	99
Es	0.597217	-2.284001	-0.957574	99
Es	0.628036	2.739258	-0.092661	99
Es	0.379002	-2.306385	-0.976120	99
Es	0.780158	0.850583	0.184544	99
Es	-1.848356	-2.406870	0.181417	99
Es	1.012962	1.502216	0.184776	99
Es	0.290926	-1.969849	-1.362011	99
Es	-0.099162	-1.632732	0.184349	99
Es	-1.889878	-1.354108	-0.407138	99
Es	0.150574	-0.914414	0.190096	99
Es	-1.890695	-1.360534	0.784966	99
Es	0.057857	3.075961	-0.078906	99
Es	0.223234	-2.017812	-0.553462	99
Es	0.476213	0.318621	-0.157416	99
Es	0.453007	3.568296	-0.262411	99
Es	0.159152	-1.984550	0.767585	99
Es	0.382696	-0.271826	0.184558	99
Es	1.463882	2.410293	0.861851	99
Es	-1.620555	-1.691838	0.190439	99
Es	0.912729	0.202298	0.261368	99
Es	1.845961	2.274925	-0.256451	99
Es	0.232697	3.076353	-0.272885	99
42
Properties=species:S:1:pos:R:3:Z:I:1 energy=-343.7734668946491 field_type=dipole dipole="0.000000 0.000000 0.000000" charge=0
C	-1.620592	-1.691848	0.190435	6
C	-0.099242	-1.632758	0.184555	6
O	0.379158	-2.306628	-0.976125	8
C	0.382778	-0.271588	0.184555	6
C	0.780058	0.850312	0.184555	6
C	1.262078	2.211482	0.184555	6
O	0.232278	3.076232	-0.272895	8
H	-2.036612	-1.205648	1.078085	1
H	-1.961412	-2.731968	0.168145	1
H	-2.039602	-1.204058	-0.696775	1
H	0.284948	-2.174268	1.055035	1
H	0.155738	-1.742178	-1.736205	1
H	2.125528	2.322572	-0.478505	1
H	1.555208	2.525412	1.191045	1
H	0.599688	3.974932	-0.260465	1
Es	0.378943	-2.306364	-0.976132	99
Es	1.261862	2.211508	0.184479	99
Es	0.382696	-0.271827	0.184556	99
Es	0.369985	0.350783	0.453888	99
Es	-0.855256	-1.636630	0.193939	99
Es	0.780158	0.850584	0.184548	99
Es	1.846048	2.275102	-0.256195	99
Es	-1.620558	-1.691838	0.190440	99
Es	0.158949	-1.984256	0.767147	99
Es	-0.099161	-1.632733	0.184349	99
Es	1.013071	1.502076	0.184897	99
Es	0.226311	-2.017278	-0.553431	99
Es	0.462441	0.325857	-0.150125	99
Es	-1.848592	-2.407016	0.181341	99
Es	-1.890670	-1.360607	0.784403	99
Es	0.296976	-1.969196	-1.360998	99
Es	0.232623	3.076361	-0.272879	99
Es	1.463634	2.410304	0.861418	99
Es	0.627442	2.738732	-0.093010	99
Es	0.916372	0.200152	0.244468	99
Es	0.144650	2.998111	-0.542579	99
Es	0.588114	-2.284487	-0.958214	99
Es	0.067848	3.078345	-0.079336	99
Es	0.150684	-0.914349	0.190294	99
Es	-1.889736	-1.354364	-0.406473	99
Es	0.453393	3.568371	-0.263001	99
Es	0.220029	-2.614128	-0.996541	99
42
Properties=species:S:1:pos:R:3:Z:I:1 energy=-343.7734668946491 field_type=dipole dipole="0.000000 0.000000 0.000000" charge=0
C	-1.620592	-1.691848	0.190435	6
C	-0.099242	-1.632758	0.184555	6
O	0.379158	-2.306628	-0.976125	8
C	0.382778	-0.271588	0.184555	6
C	0.780058	0.850312	0.184555	6
C	1.262078	2.211482	0.184555	6
O	0.232278	3.076232	-0.272895	8
H	-2.036612	-1.205648	1.078085	1
H	-1.961412	-2.731968	0.168145	1
H	-2.039602	-1.204058	-0.696775	1
H	0.284948	-2.174268	1.055035	1
H	0.155738	-1.742178	-1.736205	1
H	2.125528	2.322572	-0.478505	1
H	1.555208	2.525412	1.191045	1
H	0.599688	3.974932	-0.260465	1
Es	0.232622	3.076366	-0.272753	99
Es	-0.099164	-1.632731	0.184350	99
Es	0.301412	-1.968179	-1.360376	99
Es	0.364804	0.353404	0.449664	99
Es	0.378964	-2.306380	-0.976148	99
Es	-1.620558	-1.691839	0.190440	99
Es	0.150604	-0.914246	0.190265	99
Es	-1.890685	-1.360756	0.783848	99
Es	0.141912	2.999209	-0.539674	99
Es	0.780157	0.850584	0.184544	99
Es	0.453512	3.568586	-0.263357	99
Es	-1.889712	-1.354639	-0.405854	99
Es	0.072668	3.079846	-0.082188	99
Es	-0.855116	-1.636494	0.194114	99
Es	-1.848834	-2.407091	0.181286	99
Es	0.228921	-2.017455	-0.553855	99
Es	1.846182	2.275469	-0.255902	99
Es	0.469177	0.322358	-0.152251	99
Es	0.382695	-0.271826	0.184557	99
Es	0.625311	2.735976	-0.092663	99
Es	1.463342	2.410024	0.861068	99
Es	1.013177	1.501950	0.184826	99
Es	0.914936	0.200987	0.250860	99
Es	1.261867	2.211506	0.184477	99
Es	0.581652	-2.285099	-0.958772	99
Es	0.159019	-1.984024	0.766712	99
Es	0.219388	-2.614295	-0.995967	99
42
Properties=species:S:1:pos:R:3:Z:I:1 energy=-343.7734668946491 field_type=dipole dipole="0.000000 0.000000 0.000000" charge=0
C	-1.620592	-1.691848	0.190435	6
C	-0.099242	-1.632758	0.184555	6
O	0.379158	-2.306628	-0.976125	8
C	0.382778	-0.271588	0.184555	6
C	0.780058	0.850312	0.184555	6
C	1.262078	2.211482	0.184555	6
O	0.232278	3.076232	-0.272895	8
H	-2.036612	-1.205648	1.078085	1
H	-1.961412	-2.731968	0.168145	1
H	-2.039602	-1.204058	-0.696775	1
H	0.284948	-2.174268	1.055035	1
H	0.155738	-1.742178	-1.736205	1
H	2.125528	2.322572	-0.478505	1
H	1.555208	2.525412	1.191045	1
H	0.599688	3.974932	-0.260465	1
Es	1.261862	2.211508	0.184478	99
Es	0.158806	-1.983810	0.766490	99
Es	0.462333	0.326027	-0.147783	99
Es	0.150645	-0.914206	0.190371	99
Es	-1.849011	-2.407136	0.181163	99
Es	0.378991	-2.306296	-0.976126	99
Es	0.382695	-0.271827	0.184557	99
Es	-0.099164	-1.632730	0.184350	99
Es	-1.620559	-1.691839	0.190439	99
Es	0.232881	3.076343	-0.273143	99
Es	0.453250	3.568746	-0.264516	99
Es	-1.890756	-1.360310	0.783875	99
Es	0.780151	0.850586	0.184540	99
Es	1.463207	2.409908	0.860766	99
Es	0.128294	2.996904	-0.536178	99
Es	0.230454	-2.019290	-0.554381	99
Es	0.086201	3.082642	-0.083428	99
Es	0.574027	-2.285706	-0.959183	99
Es	0.625453	2.735346	-0.093237	99
Es	-0.855128	-1.636623	0.193863	99
Es	0.308008	-1.965876	-1.358701	99
Es	0.369966	0.350852	0.455626	99
Es	0.916571	0.199893	0.240514	99
Es	1.846316	2.275629	-0.255875	99
Es	1.013153	1.501918	0.184901	99
Es	-1.889355	-1.355050	-0.405477	99
Es	0.218963	-2.614391	-0.996651	99
42
Properties=species:S:1:pos:R:3:Z:I:1 energy=-343.7734668946491 field_type=dipole dipole="0.000000 0.000000 0.000000" charge=0
C	-1.620592	-1.691848	0.190435	6
C	-0.099242	-1.632758	0.184555	6
O	0.379158	-2.306628	-0.976125	8
C	0.382778	-0.271588	0.184555	6
C	0.780058	0.850312	0.184555	6
C	1.262078	2.211482	0.184555	6
O	0.232278	3.076232	-0.272895	8
H	-2.036612	-1.205648	1.078085	1
H	-1.961412	-2.731968	0.168145	1
H	-2.039602	-1.204058	-0.696775	1
H	0.284948	-2.174268	1.055035	1
H	0.155738	-1.742178	-1.736205	1
H	2.125528	2.322572	-0.478505	1
H	1.555208	2.525412	1.191045	1
H	0.599688	3.974932	-0.260465	1
Es	-1.889432	-1.355523	-0.405234	99
Es	0.625614	2.734744	-0.094860	99
Es	0.453677	3.568603	-0.267413	99
Es	0.150619	-0.914187	0.190680	99
Es	-1.620559	-1.691839	0.190440	99
Es	0.228647	-2.020793	-0.554980	99
Es	0.382693	-0.271827	0.184561	99
Es	0.566797	-2.283795	-0.959281	99
Es	1.261864	2.211506	0.184480	99
Es	0.313271	-1.964477	-1.357867	99
Es	0.780160	0.850584	0.184544	99
Es	-0.855053	-1.636433	0.193499	99
Es	-1.848879	-2.407190	0.181357	99
Es	-1.890797	-1.359988	0.783960	99
Es	0.222670	-2.616160	-0.996858	99
Es	0.912778	0.202070	0.248076	99
Es	-0.099164	-1.632730	0.184352	99
Es	0.232564	3.076346	-0.272854	99
Es	0.474997	0.319360	-0.151825	99
Es	0.111706	3.087665	-0.087957	99
Es	0.361141	0.355325	0.452050	99
Es	1.847180	2.276105	-0.255861	99
Es	1.012958	1.501990	0.184872	99
Es	1.462512	2.409328	0.860204	99
Es	0.102457	2.992688	-0.527199	99
Es	0.378972	-2.306387	-0.976120	99
Es	0.158860	-1.983773	0.766486	99
42
Properties=species:S:1:pos:R:3:Z:I:1 energy=-343.7734668946491 field_type=dipole dipole="0.000000 0.000000 0.000000" charge=0
C	-1.620592	-1.691848	0.190435	6
C	-0.099242	-1.632758	0.184555	6
O	0.379158	-2.306628	-0.976125	8
C	0.382778	-0.271588	0.184555	6
C	0.780058	0.850312	0.184555	6
C	1.262078	2.211482	0.184555	6
O	0.232278	3.076232	-0.272895	8
H	-2.036612	-1.205648	1.078085	1
H	-1.961412	-2.731968	0.168145	1
H	-2.039602	-1.204058	-0.696775	1
H	0.284948	-2.174268	1.055035	1
H	0.155738	-1.742178	-1.736205	1
H	2.125528	2.322572	-0.478505	1
H	1.555208	2.525412	1.191045	1
H	0.599688	3.974932	-0.260465	1
Es	-0.099163	-1.632731	0.184349	99
Es	0.232705	3.076358	-0.272923	99
Es	1.462625	2.409628	0.860137	99
Es	0.379090	-2.306383	-0.976129	99
Es	-1.889702	-1.354943	-0.404887	99
Es	0.907058	0.204769	0.279230	99
Es	1.846822	2.276075	-0.255687	99
Es	-1.849190	-2.407241	0.181407	99
Es	-0.854692	-1.635945	0.194051	99
Es	0.222663	-2.616538	-0.996371	99
Es	0.382698	-0.271827	0.184553	99
Es	0.454197	3.568555	-0.265796	99
Es	-1.890478	-1.361092	0.782838	99
Es	1.013236	1.501800	0.184958	99
Es	0.314065	-1.963423	-1.356773	99
Es	0.500426	0.306280	-0.159836	99
Es	0.150627	-0.914107	0.190745	99
Es	0.564205	-2.283570	-0.959719	99
Es	0.099424	3.085791	-0.087258	99
Es	0.780152	0.850588	0.184552	99
Es	0.230229	-2.021496	-0.555832	99
Es	-1.620561	-1.691839	0.190440	99
Es	1.261863	2.211507	0.184480	99
Es	0.116901	2.996517	-0.530894	99
Es	0.158700	-1.983939	0.766307	99
Es	0.623035	2.732677	-0.093502	99
Es	0.341319	0.365741	0.428812	99
42
Properties=species:S:1:pos:R:3:Z:I:1 energy=-343.7734668946491 field_type=dipole dipole="0.000000 0.000000 0.000000" charge=0
C	-1.620592	-1.691848	0.190435	6
C	-0.099242	-1.632758	0.184555	6
O	0.379158	-2.306628	-0.976125	8
C	0.382778	-0.271588	0.184555	6
C	0.780058	0.850312	0.184555	6
C	1.262078	2.211482	0.184555	6
O	0.232278	3.076232	-0.272895	8
H	-2.036612	-1.205648	1.078085	1
H	-1.961412	-2.731968	0.168145	1
H	-2.039602	-1.204058	-0.696775	1
H	0.284948	-2.174268	1.055035	1
H	0.155738	-1.742178	-1.736205	1
H	2.125528	2.322572	-0.478505	1
H	1.555208	2.525412	1.191045	1
H	0.599688	3.974932	-0.260465	1
Es	0.223692	-2.616907	-0.996804	99
Es	-0.854920	-1.636272	0.193558	99
Es	1.847247	2.276221	-0.255798	99
Es	-1.890662	-1.360153	0.783681	99
Es	-1.620558	-1.691839	0.190440	99
Es	0.623748	2.732489	-0.094963	99
Es	0.557887	-2.283311	-0.960080	99
Es	0.488737	0.312223	-0.156333	99
Es	0.453852	3.568705	-0.268378	99
Es	1.462389	2.409330	0.859857	99
Es	1.261865	2.211506	0.184481	99
Es	-1.889369	-1.355466	-0.404923	99
Es	0.150673	-0.914119	0.190949	99
Es	0.232779	3.076360	-0.273009	99
Es	0.090392	2.992515	-0.519269	99
Es	0.158637	-1.983754	0.766307	99
Es	0.382691	-0.271824	0.184559	99
Es	-0.099162	-1.632733	0.184349	99
Es	0.379080	-2.306222	-0.976133	99
Es	0.125403	3.089913	-0.094600	99
Es	0.351199	0.360408	0.443477	99
Es	0.780156	0.850585	0.184544	99
Es	0.908888	0.204162	0.261074	99
Es	0.228780	-2.021912	-0.555902	99
Es	-1.848904	-2.407314	0.181295	99
Es	0.320840	-1.963317	-1.356115	99
Es	1.012896	1.501939	0.184987	99
42
Properties=species:S:1:pos:R:3:Z:I:1 energy=-343.7734668946491 field_type=dipole dipole="0.000000 0.000000 0.000000" charge=0
C	-1.620592	-1.691848	0.190435	6
C	-0.099242	-1.632758	0.184555	6
O	0.379158	-2.306628	-0.976125	8
C	0.382778	-0.271588	0.184555	6
C	0.780058	0.850312	0.184555	6
C	1.262078	2.211482	0.184555	6
O	0.232278	3.076232	-0.272895	8
H	-2.036612	-1.205648	1.078085	1
H	-1.961412	-2.731968	0.168145	1
H	-2.039602	-1.204058	-0.696775	1
H	0.284948	-2.174268	1.055035	1
H	0.155738	-1.742178	-1.736205	1
H	2.125528	2.322572	-0.478505	1
H	1.555208	2.525412	1.191045	1
H	0.599688	3.974932	-0.260465	1
Es	0.379019	-2.306406	-0.976121	99
Es	0.453729	3.568820	-0.267930	99
Es	-0.099164	-1.632730	0.184355	99
Es	0.083989	2.991847	-0.516231	99
Es	0.913583	0.201400	0.240226	99
Es	1.012966	1.501902	0.184999	99
Es	0.150724	-0.914118	0.190836	99
Es	-1.849007	-2.407323	0.181113	99
Es	-1.890640	-1.359798	0.783942	99
Es	0.132766	3.090812	-0.098972	99
Es	0.382693	-0.271825	0.184567	99
Es	0.780154	0.850586	0.184542	99
Es	0.232657	3.076363	-0.272807	99
Es	1.462281	2.409420	0.859931	99
Es	0.365069	0.353407	0.456572	99
Es	0.325533	-1.963080	-1.354919	99
Es	1.261864	2.211507	0.184478	99
Es	0.551955	-2.282224	-0.960786	99
Es	0.225376	-2.617678	-0.997570	99
Es	-1.620558	-1.691839	0.190440	99
Es	0.470050	0.322014	-0.148506	99
Es	-0.854917	-1.636373	0.193219	99
Es	0.158510	-1.983634	0.766203	99
Es	1.847244	2.276366	-0.255749	99
Es	0.228442	-2.022411	-0.555693	99
Es	0.623128	2.731944	-0.094283	99
Es	-1.889191	-1.355735	-0.404603	99
42
Properties=species:S:1:pos:R:3:Z:I:1 energy=-343.7734668946491 field_type=dipole dipole="0.000000 0.000000 0.000000" charge=0
C	-1.620592	-1.691848	0.190435	6
C	-0.099242	-1.632758	0.184555	6
O	0.379158	-2.306628	-0.976125	8
C	0.382778	-0.271588	0.184555	6
C	0.780058	0.850312	0.184555	6
C	1.262078	2.211482	0.184555	6
O	0.232278	3.076232	-0.272895	8
H	-2.036612	-1.205648	1.078085	1
H	-1.961412	-2.731968	0.168145	1
H	-2.039602	-1.204058	-0.696775	1
H	0.284948	-2.174268	1.055035	1
H	0.155738	-1.742178	-1.736205	1
H	2.125528	2.322572	-0.478505	1
H	1.555208	2.525412	1.191045	1
H	0.599688	3.974932	-0.260465	1
Es	0.780160	0.850582	0.184545	99
Es	1.261866	2.211506	0.184479	99
Es	0.228299	-2.022220	-0.555425	99
Es	-1.890822	-1.359379	0.784167	99
Es	0.375410	0.348542	0.468139	99
Es	0.232796	3.076329	-0.273071	99
Es	-0.099161	-1.632733	0.184347	99
Es	0.227027	-2.618375	-0.997633	99
Es	0.150670	-0.914076	0.190841	99
Es	0.146607	3.092396	-0.105274	99
Es	0.459757	0.327538	-0.143361	99
Es	-1.620559	-1.691839	0.190439	99
Es	-0.854833	-1.636352	0.193111	99
Es	-1.888942	-1.356008	-0.404656	99
Es	1.847197	2.276362	-0.255881	99
Es	0.328455	-1.963424	-1.354599	99
Es	0.069323	2.989867	-0.507587	99
Es	0.453616	3.568855	-0.269037	99
Es	0.547512	-2.281499	-0.961425	99
Es	0.382697	-0.271827	0.184549	99
Es	0.378944	-2.306340	-0.976128	99
Es	0.913557	0.200738	0.223632	99
Es	-1.848835	-2.407386	0.181059	99
Es	0.158396	-1.983746	0.766297	99
Es	1.462382	2.409387	0.859884	99
Es	1.012809	1.501957	0.184940	99
Es	0.623925	2.732358	-0.095101	99
42
Properties=species:S:1:pos:R:3:Z:I:1 energy=-343.7734668946491 field_type=dipole dipole="0.000000 0.000000 0.000000" charge=0
C	-1.620592	-1.691848	0.190435	6
C	-0.099242	-1.632758	0.184555	6
O	0.379158	-2.306628	-0.976125	8
C	0.382778	-0.271588	0.184555	6
C	0.780058	0.850312	0.184555	6
C	1.262078	2.211482	0.184555	6
O	0.232278	3.076232	-0.272895	8
H	-2.036612	-1.205648	1.078085	1
H	-1.961412	-2.731968	0.168145	1
H	-2.039602	-1.204058	-0.696775	1
H	0.284948	-2.174268	1.055035	1
H	0.155738	-1.742178	-1.736205	1
H	2.125528	2.322572	-0.478505	1
H	1.555208	2.525412	1.191045	1
H	0.599688	3.974932	-0.260465	1
Es	-1.848739	-2.407379	0.181360	99
Es	0.158326	-1.984178	0.766737	99
Es	0.453564	3.568816	-0.270859	99
Es	0.156080	3.093507	-0.111643	99
Es	0.379127	-2.306405	-0.976110	99
Es	-1.890572	-1.359509	0.784227	99
Es	0.150611	-0.914064	0.191265	99
Es	0.229357	-2.023483	-0.556006	99
Es	0.330663	-1.962082	-1.353760	99
Es	-0.854761	-1.636392	0.192973	99
Es	0.623620	2.731678	-0.095444	99
Es	0.232285	3.076413	-0.271887	99
Es	-1.620560	-1.691839	0.190438	99
Es	0.060650	2.989470	-0.500152	99
Es	1.012658	1.502015	0.184910	99
Es	0.780157	0.850585	0.184545	99
Es	-0.099163	-1.632731	0.184349	99
Es	0.226920	-2.618327	-0.997241	99
Es	1.461944	2.409016	0.859434	99
Es	-1.889076	-1.355592	-0.405179	99
Es	0.382695	-0.271827	0.184558	99
Es	1.847764	2.276623	-0.255839	99
Es	0.544110	-2.281417	-0.962079	99
Es	0.342733	0.364788	0.438771	99
Es	0.504503	0.304183	-0.161254	99
Es	0.901492	0.207839	0.270657	99
Es	1.261864	2.211506	0.184479	99
42
Properties=species:S:1:pos:R:3:Z:I:1 energy=-343.7734668946491 field_type=dipole dipole="0.000000 0.000000 0.000000" charge=0
C	-1.620592	-1.691848	0.190435	6
C	-0.099242	-1.632758	0.184555	6
O	0.379158	-2.306628	-0.976125	8
C	0.382778	-0.271588	0.184555	6
C	0.780058	0.850312	0.184555	6
C	1.262078	2.211482	0.184555	6
O	0.232278	3.076232	-0.272895	8
H	-2.036612	-1.205648	1.078085	1
H	-1.961412	-2.731968	0.168145	1
H	-2.039602	-1.204058	-0.696775	1
H	0.284948	-2.174268	1.055035	1
H	0.155738	-1.742178	-1.736205	1
H	2.125528	2.322572	-0.478505	1
H	1.555208	2.525412	1.191045	1
H	0.599688	3.974932	-0.260465	1
Es	-1.890767	-1.359349	0.783911	99
Es	0.780164	0.850582	0.184550	99
Es	-0.099159	-1.632735	0.184347	99
Es	0.908782	0.204062	0.248042	99
Es	0.357935	0.357030	0.453192	99
Es	0.453523	3.568972	-0.269333	99
Es	0.331492	-1.962003	-1.353127	99
Es	0.227395	-2.618735	-0.997119	99
Es	0.482011	0.315729	-0.152950	99
Es	-1.848876	-2.407458	0.181173	99
Es	0.622385	2.730898	-0.094691	99
Es	1.012806	1.501910	0.184937	99
Es	0.066039	2.990573	-0.503665	99
Es	0.541772	-2.281106	-0.962544	99
Es	-1.888871	-1.356133	-0.404483	99
Es	0.150632	-0.914029	0.191025	99
Es	0.382697	-0.271828	0.184557	99
Es	-0.854677	-1.636151	0.192958	99
Es	-1.620558	-1.691839	0.190440	99
Es	0.379015	-2.306409	-0.976126	99
Es	0.232614	3.076391	-0.272468	99
Es	0.158202	-1.983811	0.766343	99
Es	0.151774	3.092960	-0.109861	99
Es	1.461878	2.409085	0.859473	99
Es	0.230559	-2.023637	-0.556193	99
Es	1.261864	2.211506	0.184480	99
Es	1.847623	2.276737	-0.255616	99
42
Properties=species:S:1:pos:R:3:Z:I:1 energy=-343.7734668946491 field_type=dipole dipole="0.000000 0.000000 0.000000" charge=0
C	-1.620592	-1.691848	0.190435	6
C	-0.099242	-1.632758	0.184555	6
O	0.379158	-2.306628	-0.976125	8
C	0.382778	-0.271588	0.184555	6
C	0.780058	0.850312	0.184555	6
C	1.262078	2.211482	0.184555	6
O	0.232278	3.076232	-0.272895	8
H	-2.036612	-1.205648	1.078085	1
H	-1.961412	-2.731968	0.168145	1
H	-2.039602	-1.204058	-0.696775	1
H	0.284948	-2.174268	1.055035	1
H	0.155738	-1.742178	-1.736205	1
H	2.125528	2.322572	-0.478505	1
H	1.555208	2.525412	1.191045	1
H	0.599688	3.974932	-0.260465	1
Es	-1.888594	-1.356448	-0.404438	99
Es	-1.620559	-1.691839	0.190439	99
Es	-1.848781	-2.407485	0.181021	99
Es	0.537699	-2.280500	-0.963194	99
Es	-0.099164	-1.632731	0.184346	99
Es	1.462212	2.409377	0.859664	99
Es	0.158042	-1.983686	0.766324	99
Es	0.911324	0.201807	0.222866	99
Es	-0.854681	-1.636219	0.192839	99
Es	0.232820	3.076442	-0.272758	99
Es	0.382693	-0.271826	0.184562	99
Es	0.228501	-2.619136	-0.997832	99
Es	0.229863	-2.023090	-0.555460	99
Es	0.453049	3.569168	-0.269438	99
Es	1.847277	2.276493	-0.255764	99
Es	0.162105	3.093555	-0.116695	99
Es	1.261865	2.211506	0.184479	99
Es	1.012722	1.501943	0.184939	99
Es	0.461155	0.326756	-0.144442	99
Es	0.622842	2.730955	-0.094944	99
Es	0.376171	0.348277	0.469992	99
Es	0.150686	-0.914041	0.190987	99
Es	0.378946	-2.306317	-0.976119	99
Es	0.055581	2.989611	-0.496232	99
Es	0.780156	0.850586	0.184546	99
Es	0.335289	-1.963063	-1.352638	99
Es	-1.890965	-1.358881	0.784200	99
42
Properties=species:S:1:pos:R:3:Z:I:1 energy=-343.7734668946491 field_type=dipole dipole="0.000000 0.000000 0.000000" charge=0
C	-1.620592	-1.691848	0.190435	6
C	-0.099242	-1.632758	0.184555	6
O	0.379158	-2.306628	-0.976125	8
C	0.382778	-0.271588	0.184555	6
C	0.780058	0.850312	0.184555	6
C	1.262078	2.211482	0.184555	6
O	0.232278	3.076232	-0.272895	8
H	-2.036612	-1.205648	1.078085	1
H	-1.961412	-2.731968	0.168145	1
H	-2.039602	-1.204058	-0.696775	1
H	0.284948	-2.174268	1.055035	1
H	0.155738	-1.742178	-1.736205	1
H	2.125528	2.322572	-0.478505	1
H	1.555208	2.525412	1.191045	1
H	0.599688	3.974932	-0.260465	1
Es	0.157313	3.093588	-0.114135	99
Es	-0.854406	-1.635864	0.193084	99
Es	1.461798	2.409044	0.859189	99
Es	1.261866	2.211506	0.184480	99
Es	0.895791	0.210036	0.290851	99
Es	-0.099165	-1.632732	0.184344	99
Es	0.061532	2.990201	-0.500045	99
Es	0.382696	-0.271827	0.184560	99
Es	0.522076	0.295540	-0.165680	99
Es	0.229116	-2.025579	-0.557819	99
Es	-1.848976	-2.407460	0.181403	99
Es	1.012843	1.501867	0.184950	99
Es	0.336965	-1.960503	-1.351005	99
Es	0.780157	0.850586	0.184545	99
Es	0.535550	-2.280069	-0.963373	99
Es	0.453305	3.569074	-0.269798	99
Es	-1.890431	-1.359954	0.783472	99
Es	0.621415	2.730604	-0.092999	99
Es	0.228760	-2.619401	-0.996756	99
Es	1.847709	2.276786	-0.255577	99
Es	0.150554	-0.913982	0.191291	99
Es	0.232786	3.076345	-0.273040	99
Es	0.330887	0.371234	0.422950	99
Es	-1.889177	-1.355659	-0.404532	99
Es	0.158131	-1.984063	0.766538	99
Es	-1.620558	-1.691839	0.190440	99
Es	0.379717	-2.306264	-0.976085	99
