45
Properties=species:S:1:pos:R:3:Z:I:1 energy=-344.97771946160276 field_type=dipole dipole="0.000000 0.000000 0.000000" charge=0
C	-2.767905	1.102540	0.822902	6
C	-1.300785	0.765480	0.630162	6
O	-1.218835	-0.443290	-0.125758	8
C	0.027235	-0.927280	-0.407298	6
C	1.225805	-0.395880	-0.123468	6
C	2.518655	-1.048210	-0.482068	6
O	3.208965	-0.205700	-1.390218	8
H	-2.884135	2.003610	1.431212	1
H	-3.294215	0.275240	1.309952	1
H	-3.254665	1.264720	-0.144248	1
H	-0.829055	0.626210	1.610002	1
H	-0.808625	1.584500	0.093122	1
H	-0.080285	-1.869570	-0.935598	1
H	1.313995	0.550590	0.399182	1
H	2.384905	-2.030880	-0.944458	1
H	3.137214	-1.172140	0.412342	1
H	2.621725	-0.079940	-2.155758	1
Es	1.847386	-0.732549	-0.299534	99
Es	-0.717151	-0.585363	-0.207140	99
Es	-0.040365	-1.567406	-0.766049	99
Es	0.666668	-0.806738	0.034791	99
Es	-1.314092	-0.390530	-0.397078	99
Es	3.454986	-0.362233	-1.488929	99
Es	1.283421	0.243589	0.228993	99
Es	0.026912	-0.927221	-0.407272	99
Es	2.936150	-1.129036	0.127815	99
Es	2.518708	-1.048048	-0.482204	99
Es	-3.119017	0.542671	1.158830	99
Es	2.411761	-1.727376	-0.797709	99
Es	-1.218500	-0.443116	-0.125632	99
Es	-1.205387	0.008683	0.155595	99
Es	0.669356	-0.483663	-0.557747	99
Es	-1.322517	-0.661583	0.039413	99
Es	2.878785	-0.152032	-1.794152	99
Es	3.229038	0.067413	-1.252851	99
Es	-2.035400	0.931243	0.724982	99
Es	-2.835997	1.716243	1.237114	99
Es	2.927396	-0.527355	-1.059838	99
Es	-0.956695	1.325713	0.262791	99
Es	3.208638	-0.205793	-1.390241	99
Es	-0.970473	0.670577	1.300222	99
Es	-2.767865	1.102545	0.822904	99
Es	1.225839	-0.395867	-0.123453	99
Es	-1.300807	0.765266	0.630024	99
Es	-3.092873	1.217358	0.165598	99
45
Properties=species:S:1:pos:R:3:Z:I:1 energy=-344.97771946160276 field_type=dipole dipole="0.000000 0.000000 0.000000" charge=0
C	-2.767905	1.102540	0.822902	6
C	-1.300785	0.765480	0.630162	6
O	-1.218835	-0.443290	-0.125758	8
C	0.027235	-0.927280	-0.407298	6
C	1.225805	-0.395880	-0.123468	6
C	2.518655	-1.048210	-0.482068	6
O	3.208965	-0.205700	-1.390218	8
H	-2.884135	2.003610	1.431212	1
H	-3.294215	0.275240	1.309952	1
H	-3.254665	1.264720	-0.144248	1
H	-0.829055	0.626210	1.610002	1
H	-0.808625	1.584500	0.093122	1
H	-0.080285	-1.869570	-0.935598	1
H	1.313995	0.550590	0.399182	1
H	2.384905	-2.030880	-0.944458	1
H	3.137214	-1.172140	0.412342	1
H	2.621725	-0.079940	-2.155758	1
Es	2.518708	-1.048046	-0.482206	99
Es	-2.034936	0.931800	0.725332	99
Es	-2.836357	1.714836	1.236160	99
Es	-2.767866	1.102544	0.822904	99
Es	1.283508	0.242838	0.229137	99
Es	-0.716020	-0.586182	-0.205953	99
Es	0.026908	-0.927223	-0.407268	99
Es	2.936503	-1.129563	0.128467	99
Es	-1.300805	0.765265	0.630027	99
Es	2.928721	-0.528008	-1.061582	99
Es	-3.093459	1.217979	0.165928	99
Es	0.666730	-0.806726	0.035552	99
Es	-0.956440	1.324981	0.262887	99
Es	1.225840	-0.395870	-0.123446	99
Es	-1.218470	-0.443060	-0.125719	99
Es	-1.204610	0.006677	0.155358	99
Es	-1.311850	-0.387471	-0.397511	99
Es	-0.040295	-1.566983	-0.766212	99
Es	3.221916	0.066086	-1.251887	99
Es	3.460790	-0.358864	-1.486704	99
Es	2.878675	-0.153625	-1.795275	99
Es	-0.969840	0.670449	1.299624	99
Es	2.411607	-1.726536	-0.797959	99
Es	1.847358	-0.732509	-0.299757	99
Es	-3.119588	0.543137	1.159269	99
Es	0.669231	-0.482666	-0.558348	99
Es	-1.326861	-0.662101	0.038679	99
Es	3.208807	-0.205766	-1.390251	99
45
Properties=species:S:1:pos:R:3:Z:I:1 energy=-344.97771946160276 field_type=dipole dipole="0.000000 0.000000 0.000000" charge=0
C	-2.767905	1.102540	0.822902	6
C	-1.300785	0.765480	0.630162	6
O	-1.218835	-0.443290	-0.125758	8
C	0.027235	-0.927280	-0.407298	6
C	1.225805	-0.395880	-0.123468	6
C	2.518655	-1.048210	-0.482068	6
O	3.208965	-0.205700	-1.390218	8
H	-2.884135	2.003610	1.431212	1
H	-3.294215	0.275240	1.309952	1
H	-3.254665	1.264720	-0.144248	1
H	-0.829055	0.626210	1.610002	1
H	-0.808625	1.584500	0.093122	1
H	-0.080285	-1.869570	-0.935598	1
H	1.313995	0.550590	0.399182	1
H	2.384905	-2.030880	-0.944458	1
H	3.137214	-1.172140	0.412342	1
H	2.621725	-0.079940	-2.155758	1
Es	1.847344	-0.732081	-0.300285	99
Es	-3.120628	0.542892	1.159780	99
Es	-1.300803	0.765269	0.630028	99
Es	2.928229	-0.526843	-1.061252	99
Es	3.208661	-0.205860	-1.390278	99
Es	-1.265322	-0.638816	0.060712	99
Es	3.456665	-0.362323	-1.488006	99
Es	-0.715525	-0.575427	-0.224013	99
Es	2.878393	-0.153396	-1.794455	99
Es	1.283591	0.243001	0.228158	99
Es	2.518706	-1.048048	-0.482205	99
Es	0.666417	-0.806765	0.036716	99
Es	3.227098	0.068323	-1.251579	99
Es	-2.836607	1.713628	1.234890	99
Es	-0.040181	-1.566938	-0.765944	99
Es	-3.093331	1.218703	0.166641	99
Es	-0.955693	1.324848	0.262972	99
Es	-1.373908	-0.425927	-0.391039	99
Es	-2.034437	0.932556	0.725743	99
Es	0.026909	-0.927224	-0.407266	99
Es	0.669515	-0.482640	-0.558353	99
Es	-1.218465	-0.443071	-0.125734	99
Es	2.411563	-1.726201	-0.798028	99
Es	1.225850	-0.395855	-0.123459	99
Es	-1.204801	0.010735	0.145113	99
Es	-0.969944	0.670082	1.298789	99
Es	-2.767865	1.102544	0.822904	99
Es	2.936473	-1.129774	0.128694	99
45
Properties=species:S:1:pos:R:3:Z:I:1 energy=-344.97771946160276 field_type=dipole dipole="0.000000 0.000000 0.000000" charge=0
C	-2.767905	1.102540	0.822902	6
C	-1.300785	0.765480	0.630162	6
O	-1.218835	-0.443290	-0.125758	8
C	0.027235	-0.927280	-0.407298	6
C	1.225805	-0.395880	-0.123468	6
C	2.518655	-1.048210	-0.482068	6
O	3.208965	-0.205700	-1.390218	8
H	-2.884135	2.003610	1.431212	1
H	-3.294215	0.275240	1.309952	1
H	-3.254665	1.264720	-0.144248	1
H	-0.829055	0.626210	1.610002	1
H	-0.808625	1.584500	0.093122	1
H	-0.080285	-1.869570	-0.935598	1
H	1.313995	0.550590	0.399182	1
H	2.384905	-2.030880	-0.944458	1
H	3.137214	-1.172140	0.412342	1
H	2.621725	-0.079940	-2.155758	1
Es	-2.836659	1.712071	1.235038	99
Es	-1.218402	-0.443232	-0.125460	99
Es	3.217378	0.063958	-1.252115	99
Es	-2.767867	1.102544	0.822904	99
Es	0.667483	-0.807300	0.036264	99
Es	-3.119170	0.544312	1.160153	99
Es	-3.095076	1.218711	0.164910	99
Es	2.411134	-1.725251	-0.798331	99
Es	3.464205	-0.355376	-1.482842	99
Es	-1.205638	-0.005133	0.167636	99
Es	-1.202894	-0.350357	-0.353195	99
Es	-0.968700	0.670513	1.299912	99
Es	3.208594	-0.205784	-1.390231	99
Es	2.930527	-0.527422	-1.061909	99
Es	-0.718744	-0.605399	-0.176298	99
Es	2.877727	-0.155882	-1.798344	99
Es	0.668632	-0.480932	-0.559956	99
Es	2.518707	-1.048049	-0.482203	99
Es	-0.040215	-1.565825	-0.767091	99
Es	-1.300804	0.765269	0.630029	99
Es	-2.034095	0.933078	0.725993	99
Es	1.847233	-0.732904	-0.299330	99
Es	2.937319	-1.130078	0.129891	99
Es	1.225852	-0.395867	-0.123447	99
Es	1.283810	0.241369	0.230339	99
Es	-0.956847	1.323629	0.262736	99
Es	0.026911	-0.927221	-0.407270	99
Es	-1.432498	-0.668048	-0.048536	99
45
Properties=species:S:1:pos:R:3:Z:I:1 energy=-344.97771946160276 field_type=dipole dipole="0.000000 0.000000 0.000000" charge=0
C	-2.767905	1.102540	0.822902	6
C	-1.300785	0.765480	0.630162	6
O	-1.218835	-0.443290	-0.125758	8
C	0.027235	-0.927280	-0.407298	6
C	1.225805	-0.395880	-0.123468	6
C	2.518655	-1.048210	-0.482068	6
O	3.208965	-0.205700	-1.390218	8
H	-2.884135	2.003610	1.431212	1
H	-3.294215	0.275240	1.309952	1
H	-3.254665	1.264720	-0.144248	1
H	-0.829055	0.626210	1.610002	1
H	-0.808625	1.584500	0.093122	1
H	-0.080285	-1.869570	-0.935598	1
H	1.313995	0.550590	0.399182	1
H	2.384905	-2.030880	-0.944458	1
H	3.137214	-1.172140	0.412342	1
H	2.621725	-0.079940	-2.155758	1
Es	-2.767867	1.102546	0.822904	99
Es	3.208626	-0.205887	-1.390282	99
Es	-0.954905	1.325279	0.262719	99
Es	1.847164	-0.731421	-0.300865	99
Es	2.928270	-0.528487	-1.060067	99
Es	-0.970466	0.669442	1.298431	99
Es	0.669850	-0.482151	-0.559647	99
Es	2.518707	-1.048047	-0.482206	99
Es	-2.033634	0.933631	0.726490	99
Es	-1.300803	0.765269	0.630029	99
Es	-1.218459	-0.443041	-0.125753	99
Es	2.936414	-1.130214	0.129204	99
Es	0.666133	-0.807397	0.039041	99
Es	1.283977	0.242769	0.226729	99
Es	-1.205695	0.013803	0.135454	99
Es	-3.122063	0.542257	1.160998	99
Es	3.453407	-0.360641	-1.487390	99
Es	3.229475	0.067887	-1.252222	99
Es	-0.718364	-0.563573	-0.244663	99
Es	0.026915	-0.927229	-0.407260	99
Es	-3.092926	1.220015	0.166893	99
Es	2.879426	-0.152748	-1.795761	99
Es	-1.186112	-0.584251	0.047195	99
Es	2.411379	-1.725508	-0.797970	99
Es	-0.040192	-1.566688	-0.765134	99
Es	-1.449659	-0.495709	-0.346901	99
Es	1.225852	-0.395864	-0.123455	99
Es	-2.836545	1.711346	1.232736	99
45
Properties=species:S:1:pos:R:3:Z:I:1 energy=-344.97771946160276 field_type=dipole dipole="0.000000 0.000000 0.000000" charge=0
C	-2.767905	1.102540	0.822902	6
C	-1.300785	0.765480	0.630162	6
O	-1.218835	-0.443290	-0.125758	8
C	0.027235	-0.927280	-0.407298	6
C	1.225805	-0.395880	-0.123468	6
C	2.518655	-1.048210	-0.482068	6
O	3.208965	-0.205700	-1.390218	8
H	-2.884135	2.003610	1.431212	1
H	-3.294215	0.275240	1.309952	1
H	-3.254665	1.264720	-0.144248	1
H	-0.829055	0.626210	1.610002	1
H	-0.808625	1.584500	0.093122	1
H	-0.080285	-1.869570	-0.935598	1
H	1.313995	0.550590	0.399182	1
H	2.384905	-2.030880	-0.944458	1
H	3.137214	-1.172140	0.412342	1
H	2.621725	-0.079940	-2.155758	1
Es	0.669940	-0.481724	-0.560452	99
Es	-0.717616	-0.563658	-0.246599	99
Es	3.244179	0.069539	-1.252181	99
Es	3.440347	-0.366133	-1.490065	99
Es	2.518707	-1.048047	-0.482205	99
Es	-0.040261	-1.566240	-0.765049	99
Es	2.927888	-0.527716	-1.058191	99
Es	-2.836375	1.710018	1.232115	99
Es	2.878157	-0.149618	-1.795066	99
Es	-1.465854	-0.518346	-0.326041	99
Es	-0.954988	1.325234	0.262512	99
Es	0.666100	-0.807762	0.039835	99
Es	-2.033362	0.934048	0.726730	99
Es	1.283992	0.242209	0.226500	99
Es	-1.300803	0.765269	0.630028	99
Es	-3.122035	0.542390	1.161606	99
Es	2.411430	-1.724943	-0.797888	99
Es	1.847124	-0.731447	-0.300905	99
Es	1.225849	-0.395865	-0.123449	99
Es	0.026911	-0.927224	-0.407267	99
Es	-1.217809	-0.443236	-0.125659	99
Es	-1.170758	-0.561938	0.031842	99
Es	3.208656	-0.205939	-1.390306	99
Es	-1.206397	0.014598	0.131860	99
Es	-0.970358	0.669290	1.298674	99
Es	-2.767866	1.102544	0.822904	99
Es	2.936504	-1.130531	0.129539	99
Es	-3.093397	1.220620	0.166424	99
45
Properties=species:S:1:pos:R:3:Z:I:1 energy=-344.97771946160276 field_type=dipole dipole="0.000000 0.000000 0.000000" charge=0
C	-2.767905	1.102540	0.822902	6
C	-1.300785	0.765480	0.630162	6
O	-1.218835	-0.443290	-0.125758	8
C	0.027235	-0.927280	-0.407298	6
C	1.225805	-0.395880	-0.123468	6
C	2.518655	-1.048210	-0.482068	6
O	3.208965	-0.205700	-1.390218	8
H	-2.884135	2.003610	1.431212	1
H	-3.294215	0.275240	1.309952	1
H	-3.254665	1.264720	-0.144248	1
H	-0.829055	0.626210	1.610002	1
H	-0.808625	1.584500	0.093122	1
H	-0.080285	-1.869570	-0.935598	1
H	1.313995	0.550590	0.399182	1
H	2.384905	-2.030880	-0.944458	1
H	3.137214	-1.172140	0.412342	1
H	2.621725	-0.079940	-2.155758	1
Es	-3.119788	0.544323	1.161617	99
Es	-1.161840	-0.356250	-0.293121	99
Es	2.410984	-1.723961	-0.798162	99
Es	-0.040275	-1.564977	-0.766749	99
Es	1.225848	-0.395867	-0.123449	99
Es	3.242841	0.067631	-1.251678	99
Es	-3.095653	1.220145	0.164403	99
Es	3.208595	-0.205822	-1.390242	99
Es	2.875967	-0.150912	-1.798459	99
Es	-2.767866	1.102544	0.822904	99
Es	0.026909	-0.927220	-0.407271	99
Es	0.667743	-0.808303	0.038233	99
Es	0.668451	-0.479666	-0.561616	99
Es	1.847252	-0.732654	-0.299599	99
Es	-2.836632	1.708795	1.232792	99
Es	-1.206567	-0.011987	0.173052	99
Es	-0.718471	-0.609726	-0.172179	99
Es	-1.300803	0.765270	0.630028	99
Es	1.283964	0.240222	0.229729	99
Es	-0.956630	1.323565	0.262265	99
Es	3.441649	-0.366264	-1.486703	99
Es	-2.033096	0.934440	0.726890	99
Es	-0.968676	0.670072	1.300122	99
Es	-1.473249	-0.650791	-0.118073	99
Es	2.937474	-1.130853	0.130665	99
Es	2.929442	-0.525035	-1.058601	99
Es	-1.218375	-0.443281	-0.125347	99
Es	2.518707	-1.048048	-0.482205	99
45
Properties=species:S:1:pos:R:3:Z:I:1 energy=-344.97771946160276 field_type=dipole dipole="0.000000 0.000000 0.000000" charge=0
C	-2.767905	1.102540	0.822902	6
C	-1.300785	0.765480	0.630162	6
O	-1.218835	-0.443290	-0.125758	8
C	0.027235	-0.927280	-0.407298	6
C	1.225805	-0.395880	-0.123468	6
C	2.518655	-1.048210	-0.482068	6
O	3.208965	-0.205700	-1.390218	8
H	-2.884135	2.003610	1.431212	1
H	-3.294215	0.275240	1.309952	1
H	-3.254665	1.264720	-0.144248	1
H	-0.829055	0.626210	1.610002	1
H	-0.808625	1.584500	0.093122	1
H	-0.080285	-1.869570	-0.935598	1
H	1.313995	0.550590	0.399182	1
H	2.384905	-2.030880	-0.944458	1
H	3.137214	-1.172140	0.412342	1
H	2.621725	-0.079940	-2.155758	1
Es	2.936803	-1.131087	0.129413	99
Es	-1.218418	-0.442873	-0.125953	99
Es	0.026910	-0.927225	-0.407262	99
Es	-0.716819	-0.562246	-0.248199	99
Es	-3.122396	0.542802	1.161836	99
Es	-2.767866	1.102544	0.822904	99
Es	-1.472127	-0.525583	-0.316854	99
Es	2.875261	-0.143851	-1.792254	99
Es	1.225851	-0.395859	-0.123466	99
Es	-2.836671	1.708699	1.231227	99
Es	3.402321	-0.380048	-1.493784	99
Es	2.518708	-1.048042	-0.482207	99
Es	-0.954827	1.324846	0.262583	99
Es	-0.040111	-1.565771	-0.764753	99
Es	0.669803	-0.481449	-0.560662	99
Es	2.925694	-0.522067	-1.055393	99
Es	-2.032960	0.934575	0.727069	99
Es	3.208599	-0.205764	-1.390215	99
Es	-1.300803	0.765270	0.630028	99
Es	1.283419	0.241415	0.226024	99
Es	0.666095	-0.807655	0.040247	99
Es	3.287420	0.071708	-1.254161	99
Es	-1.206716	0.012875	0.131940	99
Es	2.411853	-1.724121	-0.797651	99
Es	1.847292	-0.731491	-0.300843	99
Es	-1.164541	-0.554387	0.024590	99
Es	-0.970142	0.669190	1.298261	99
Es	-3.093729	1.220989	0.166781	99
45
Properties=species:S:1:pos:R:3:Z:I:1 energy=-344.97771946160276 field_type=dipole dipole="0.000000 0.000000 0.000000" charge=0
C	-2.767905	1.102540	0.822902	6
C	-1.300785	0.765480	0.630162	6
O	-1.218835	-0.443290	-0.125758	8
C	0.027235	-0.927280	-0.407298	6
C	1.225805	-0.395880	-0.123468	6
C	2.518655	-1.048210	-0.482068	6
O	3.208965	-0.205700	-1.390218	8
H	-2.884135	2.003610	1.431212	1
H	-3.294215	0.275240	1.309952	1
H	-3.254665	1.264720	-0.144248	1
H	-0.829055	0.626210	1.610002	1
H	-0.808625	1.584500	0.093122	1
H	-0.080285	-1.869570	-0.935598	1
H	1.313995	0.550590	0.399182	1
H	2.384905	-2.030880	-0.944458	1
H	3.137214	-1.172140	0.412342	1
H	2.621725	-0.079940	-2.155758	1
Es	-0.716628	-0.609411	-0.174376	99
Es	0.026908	-0.927220	-0.407269	99
Es	-1.159028	-0.359022	-0.280819	99
Es	-2.767864	1.102544	0.822903	99
Es	-0.040156	-1.564378	-0.766695	99
Es	2.518706	-1.048047	-0.482205	99
Es	3.401319	-0.380206	-1.490536	99
Es	-1.300804	0.765271	0.630028	99
Es	-0.968334	0.670087	1.299809	99
Es	-1.218472	-0.443128	-0.125614	99
Es	3.288145	0.070116	-1.253195	99
Es	2.937796	-1.131327	0.130376	99
Es	-2.032979	0.934554	0.727149	99
Es	0.667840	-0.808434	0.038664	99
Es	1.847469	-0.732616	-0.299625	99
Es	-3.120003	0.544912	1.162008	99
Es	0.668175	-0.479388	-0.561532	99
Es	-2.836695	1.707921	1.231978	99
Es	-1.206531	-0.014034	0.173280	99
Es	-3.096056	1.220258	0.164568	99
Es	3.208605	-0.205777	-1.390246	99
Es	2.926928	-0.519846	-1.055942	99
Es	1.225848	-0.395869	-0.123444	99
Es	-1.477955	-0.645999	-0.127885	99
Es	2.411642	-1.723198	-0.797849	99
Es	-0.956676	1.323152	0.262326	99
Es	1.283208	0.239283	0.229166	99
Es	2.873495	-0.144804	-1.795774	99
