47
Properties=species:S:1:pos:R:3:Z:I:1 energy=-309.12043988356584 field_type=dipole dipole="0.000000 0.000000 0.000000" charge=0
C	-2.664618	0.684858	0.845952	6
O	-1.248618	0.571478	0.856772	8
C	-0.773498	-0.180151	-0.259248	6
C	0.734432	-0.244761	-0.189788	6
C	1.274442	-1.092201	0.932101	6
C	1.515772	-0.214381	-1.488648	6
C	1.519693	0.988238	-0.588328	6
H	-2.969957	1.265258	1.720422	1
H	-3.128877	-0.304201	0.903342	1
H	-3.000587	1.207759	-0.054458	1
H	-1.102677	0.304259	-1.186818	1
H	-1.192087	-1.192901	-0.230368	1
H	2.370363	-1.090322	0.955922	1
H	0.944873	-2.130221	0.816501	1
H	0.920552	-0.723722	1.900332	1
H	0.973862	-0.141951	-2.425138	1
H	2.429612	-0.794441	-1.560558	1
H	2.429942	1.219729	-0.046148	1
H	0.967383	1.867679	-0.901838	1
Es	1.035453	-0.843658	1.585571	99
Es	1.010669	-0.665994	0.367107	99
Es	1.519649	0.988073	-0.588380	99
Es	-0.773550	-0.180034	-0.259069	99
Es	2.022960	-1.087064	0.939771	99
Es	-1.103141	0.279400	0.424765	99
Es	1.515720	-0.214300	-1.488510	99
Es	-1.000973	0.154537	-0.903878	99
Es	-2.899098	1.039043	0.220755	99
Es	-2.874974	1.079764	1.440590	99
Es	-0.017366	-0.208434	-0.232103	99
Es	1.274440	-1.092195	0.932072	99
Es	-1.248776	0.571403	0.856645	99
Es	1.141589	1.580900	-0.806828	99
Es	1.062760	-0.413889	-0.888880	99
Es	1.630048	0.474407	-1.161102	99
Es	2.138365	1.138251	-0.218792	99
Es	-2.664400	0.684836	0.845947	99
Es	-1.143204	0.854791	0.811822	99
Es	2.135176	-0.611513	-1.531157	99
Es	-1.792105	0.595553	0.822731	99
Es	-2.987426	0.002435	0.877849	99
Es	1.070777	0.464721	-0.232419	99
Es	-1.178650	0.406422	1.106951	99
Es	-1.064490	-0.881039	-0.240851	99
Es	1.140675	-0.164663	-2.122595	99
Es	1.045913	-1.801210	0.849277	99
Es	0.734522	-0.244690	-0.189902	99
47
Properties=species:S:1:pos:R:3:Z:I:1 energy=-309.12043988356584 field_type=dipole dipole="0.000000 0.000000 0.000000" charge=0
C	-2.664618	0.684858	0.845952	6
O	-1.248618	0.571478	0.856772	8
C	-0.773498	-0.180151	-0.259248	6
C	0.734432	-0.244761	-0.189788	6
C	1.274442	-1.092201	0.932101	6
C	1.515772	-0.214381	-1.488648	6
C	1.519693	0.988238	-0.588328	6
H	-2.969957	1.265258	1.720422	1
H	-3.128877	-0.304201	0.903342	1
H	-3.000587	1.207759	-0.054458	1
H	-1.102677	0.304259	-1.186818	1
H	-1.192087	-1.192901	-0.230368	1
H	2.370363	-1.090322	0.955922	1
H	0.944873	-2.130221	0.816501	1
H	0.920552	-0.723722	1.900332	1
H	0.973862	-0.141951	-2.425138	1
H	2.429612	-0.794441	-1.560558	1
H	2.429942	1.219729	-0.046148	1
H	0.967383	1.867679	-0.901838	1
Es	2.137626	1.138753	-0.219141	99
Es	-0.773549	-0.180031	-0.259068	99
Es	1.274440	-1.092194	0.932072	99
Es	1.062176	-0.416217	-0.889211	99
Es	1.046009	-1.801956	0.848389	99
Es	1.519646	0.988071	-0.588378	99
Es	-1.184366	0.403228	1.095889	99
Es	-1.000346	0.154546	-0.903204	99
Es	-0.017339	-0.208048	-0.232048	99
Es	1.069995	0.465495	-0.230486	99
Es	-1.138789	0.860173	0.822398	99
Es	2.022194	-1.086528	0.938957	99
Es	-1.064704	-0.881911	-0.241276	99
Es	1.142462	1.580008	-0.806207	99
Es	1.141590	-0.164818	-2.121914	99
Es	0.734520	-0.244687	-0.189898	99
Es	2.134529	-0.611004	-1.531646	99
Es	-2.664402	0.684838	0.845949	99
Es	-1.791981	0.592502	0.826029	99
Es	-2.898440	1.038422	0.221451	99
Es	1.631329	0.475361	-1.163124	99
Es	-1.248794	0.571382	0.856534	99
Es	-2.987534	0.002039	0.877150	99
Es	1.010793	-0.665960	0.367347	99
Es	1.515716	-0.214302	-1.488504	99
Es	1.035195	-0.842670	1.586439	99
Es	-2.875262	1.080656	1.440942	99
Es	-1.102150	0.280705	0.421946	99
47
Properties=species:S:1:pos:R:3:Z:I:1 energy=-309.12043988356584 field_type=dipole dipole="0.000000 0.000000 0.000000" charge=0
C	-2.664618	0.684858	0.845952	6
O	-1.248618	0.571478	0.856772	8
C	-0.773498	-0.180151	-0.259248	6
C	0.734432	-0.244761	-0.189788	6
C	1.274442	-1.092201	0.932101	6
C	1.515772	-0.214381	-1.488648	6
C	1.519693	0.988238	-0.588328	6
H	-2.969957	1.265258	1.720422	1
H	-3.128877	-0.304201	0.903342	1
H	-3.000587	1.207759	-0.054458	1
H	-1.102677	0.304259	-1.186818	1
H	-1.192087	-1.192901	-0.230368	1
H	2.370363	-1.090322	0.955922	1
H	0.944873	-2.130221	0.816501	1
H	0.920552	-0.723722	1.900332	1
H	0.973862	-0.141951	-2.425138	1
H	2.429612	-0.794441	-1.560558	1
H	2.429942	1.219729	-0.046148	1
H	0.967383	1.867679	-0.901838	1
Es	-1.139132	0.863096	0.824210	99
Es	2.021679	-1.086417	0.938550	99
Es	-1.064757	-0.882313	-0.241566	99
Es	1.141954	-0.165147	-2.121582	99
Es	-1.248867	0.571364	0.856442	99
Es	1.069025	0.465599	-0.229152	99
Es	-2.898089	1.038099	0.221880	99
Es	-2.664397	0.684837	0.845948	99
Es	-0.773549	-0.180036	-0.259072	99
Es	-2.987594	0.001884	0.876726	99
Es	1.274438	-1.092193	0.932069	99
Es	1.519644	0.988071	-0.588378	99
Es	1.046034	-1.802246	0.847898	99
Es	2.137067	1.138934	-0.219471	99
Es	-1.791556	0.588974	0.828614	99
Es	1.515721	-0.214296	-1.488508	99
Es	1.632385	0.476261	-1.164723	99
Es	0.734517	-0.244699	-0.189900	99
Es	1.062045	-0.417143	-0.889239	99
Es	1.143145	1.579450	-0.805725	99
Es	-0.017180	-0.207947	-0.232015	99
Es	2.134003	-0.610579	-1.531863	99
Es	1.011178	-0.666052	0.367403	99
Es	-1.102112	0.280479	0.421350	99
Es	-1.184542	0.404250	1.092160	99
Es	-1.000065	0.154503	-0.902780	99
Es	1.034985	-0.841978	1.586958	99
Es	-2.875418	1.081096	1.441152	99
47
Properties=species:S:1:pos:R:3:Z:I:1 energy=-309.12043988356584 field_type=dipole dipole="0.000000 0.000000 0.000000" charge=0
C	-2.664618	0.684858	0.845952	6
O	-1.248618	0.571478	0.856772	8
C	-0.773498	-0.180151	-0.259248	6
C	0.734432	-0.244761	-0.189788	6
C	1.274442	-1.092201	0.932101	6
C	1.515772	-0.214381	-1.488648	6
C	1.519693	0.988238	-0.588328	6
H	-2.969957	1.265258	1.720422	1
H	-3.128877	-0.304201	0.903342	1
H	-3.000587	1.207759	-0.054458	1
H	-1.102677	0.304259	-1.186818	1
H	-1.192087	-1.192901	-0.230368	1
H	2.370363	-1.090322	0.955922	1
H	0.944873	-2.130221	0.816501	1
H	0.920552	-0.723722	1.900332	1
H	0.973862	-0.141951	-2.425138	1
H	2.429612	-0.794441	-1.560558	1
H	2.429942	1.219729	-0.046148	1
H	0.967383	1.867679	-0.901838	1
Es	-2.987582	0.001712	0.876731	99
Es	-1.064807	-0.882624	-0.241764	99
Es	-0.017245	-0.207858	-0.231756	99
Es	1.274440	-1.092194	0.932073	99
Es	1.068338	0.465776	-0.228135	99
Es	1.142384	-0.165159	-2.121475	99
Es	1.046074	-1.802436	0.847478	99
Es	-2.664405	0.684837	0.845947	99
Es	-1.187070	0.402817	1.085871	99
Es	1.633285	0.476611	-1.165700	99
Es	-2.897887	1.037802	0.221964	99
Es	-0.773549	-0.180032	-0.259070	99
Es	1.519655	0.988080	-0.588385	99
Es	-1.136486	0.864127	0.830167	99
Es	-1.101957	0.281800	0.419661	99
Es	-1.248858	0.571338	0.856466	99
Es	1.061758	-0.417996	-0.889263	99
Es	1.035036	-0.841578	1.587465	99
Es	2.021158	-1.086391	0.938142	99
Es	1.011322	-0.666036	0.367572	99
Es	-0.999634	0.154639	-0.902708	99
Es	2.133555	-0.610178	-1.531963	99
Es	1.515726	-0.214297	-1.488517	99
Es	0.734518	-0.244697	-0.189905	99
Es	1.143722	1.578857	-0.805561	99
Es	-1.792070	0.588217	0.830569	99
Es	-2.875395	1.081509	1.441184	99
Es	2.136537	1.139210	-0.219702	99
47
Properties=species:S:1:pos:R:3:Z:I:1 energy=-309.12043988356584 field_type=dipole dipole="0.000000 0.000000 0.000000" charge=0
C	-2.664618	0.684858	0.845952	6
O	-1.248618	0.571478	0.856772	8
C	-0.773498	-0.180151	-0.259248	6
C	0.734432	-0.244761	-0.189788	6
C	1.274442	-1.092201	0.932101	6
C	1.515772	-0.214381	-1.488648	6
C	1.519693	0.988238	-0.588328	6
H	-2.969957	1.265258	1.720422	1
H	-3.128877	-0.304201	0.903342	1
H	-3.000587	1.207759	-0.054458	1
H	-1.102677	0.304259	-1.186818	1
H	-1.192087	-1.192901	-0.230368	1
H	2.370363	-1.090322	0.955922	1
H	0.944873	-2.130221	0.816501	1
H	0.920552	-0.723722	1.900332	1
H	0.973862	-0.141951	-2.425138	1
H	2.429612	-0.794441	-1.560558	1
H	2.429942	1.219729	-0.046148	1
H	0.967383	1.867679	-0.901838	1
Es	1.142740	-0.165080	-2.121349	99
Es	-1.791282	0.585603	0.831776	99
Es	1.633840	0.476981	-1.166454	99
Es	1.061463	-0.418684	-0.889319	99
Es	-2.664401	0.684839	0.845950	99
Es	-0.017144	-0.207551	-0.231852	99
Es	1.068117	0.465777	-0.227380	99
Es	-1.138532	0.865796	0.829199	99
Es	2.136222	1.139421	-0.219989	99
Es	1.046084	-1.802485	0.847065	99
Es	0.734522	-0.244697	-0.189898	99
Es	-1.248819	0.571360	0.856486	99
Es	-2.875506	1.081850	1.441274	99
Es	1.519647	0.988070	-0.588378	99
Es	-1.185970	0.403867	1.085806	99
Es	-0.773550	-0.180031	-0.259071	99
Es	2.133273	-0.609925	-1.532074	99
Es	1.515718	-0.214299	-1.488505	99
Es	-1.101896	0.281751	0.419460	99
Es	1.143995	1.578410	-0.805248	99
Es	1.274440	-1.092194	0.932073	99
Es	-1.064842	-0.882859	-0.241953	99
Es	-2.987604	0.001643	0.876528	99
Es	1.011390	-0.666206	0.367793	99
Es	2.021029	-1.086265	0.937850	99
Es	-2.897669	1.037509	0.222201	99
Es	-0.999545	0.154572	-0.902362	99
Es	1.034840	-0.841319	1.587757	99
47
Properties=species:S:1:pos:R:3:Z:I:1 energy=-309.12043988356584 field_type=dipole dipole="0.000000 0.000000 0.000000" charge=0
C	-2.664618	0.684858	0.845952	6
O	-1.248618	0.571478	0.856772	8
C	-0.773498	-0.180151	-0.259248	6
C	0.734432	-0.244761	-0.189788	6
C	1.274442	-1.092201	0.932101	6
C	1.515772	-0.214381	-1.488648	6
C	1.519693	0.988238	-0.588328	6
H	-2.969957	1.265258	1.720422	1
H	-3.128877	-0.304201	0.903342	1
H	-3.000587	1.207759	-0.054458	1
H	-1.102677	0.304259	-1.186818	1
H	-1.192087	-1.192901	-0.230368	1
H	2.370363	-1.090322	0.955922	1
H	0.944873	-2.130221	0.816501	1
H	0.920552	-0.723722	1.900332	1
H	0.973862	-0.141951	-2.425138	1
H	2.429612	-0.794441	-1.560558	1
H	2.429942	1.219729	-0.046148	1
H	0.967383	1.867679	-0.901838	1
Es	1.142974	-0.165099	-2.121121	99
Es	-1.101478	0.283351	0.418078	99
Es	-2.664402	0.684837	0.845949	99
Es	2.133064	-0.609787	-1.532201	99
Es	-0.773549	-0.180035	-0.259069	99
Es	-0.017258	-0.207613	-0.231714	99
Es	-2.987602	0.001572	0.876401	99
Es	-1.188342	0.401776	1.082713	99
Es	1.515716	-0.214298	-1.488504	99
Es	1.067598	0.465826	-0.226683	99
Es	1.634344	0.477180	-1.167339	99
Es	2.020694	-1.086238	0.937695	99
Es	-1.064894	-0.883063	-0.242067	99
Es	1.519648	0.988068	-0.588383	99
Es	1.034828	-0.841066	1.587991	99
Es	-1.137137	0.866647	0.833809	99
Es	1.274444	-1.092194	0.932075	99
Es	0.734518	-0.244690	-0.189897	99
Es	2.135941	1.139497	-0.220268	99
Es	-1.790788	0.585336	0.831523	99
Es	-2.875450	1.081912	1.441397	99
Es	1.046172	-1.802599	0.846895	99
Es	1.061329	-0.418938	-0.889175	99
Es	1.144360	1.578086	-0.805070	99
Es	-0.999317	0.154633	-0.902250	99
Es	-1.248824	0.571349	0.856514	99
Es	1.011586	-0.666095	0.367751	99
Es	-2.897613	1.037497	0.222339	99
47
Properties=species:S:1:pos:R:3:Z:I:1 energy=-309.12043988356584 field_type=dipole dipole="0.000000 0.000000 0.000000" charge=0
C	-2.664618	0.684858	0.845952	6
O	-1.248618	0.571478	0.856772	8
C	-0.773498	-0.180151	-0.259248	6
C	0.734432	-0.244761	-0.189788	6
C	1.274442	-1.092201	0.932101	6
C	1.515772	-0.214381	-1.488648	6
C	1.519693	0.988238	-0.588328	6
H	-2.969957	1.265258	1.720422	1
H	-3.128877	-0.304201	0.903342	1
H	-3.000587	1.207759	-0.054458	1
H	-1.102677	0.304259	-1.186818	1
H	-1.192087	-1.192901	-0.230368	1
H	2.370363	-1.090322	0.955922	1
H	0.944873	-2.130221	0.816501	1
H	0.920552	-0.723722	1.900332	1
H	0.973862	-0.141951	-2.425138	1
H	2.429612	-0.794441	-1.560558	1
H	2.429942	1.219729	-0.046148	1
H	0.967383	1.867679	-0.901838	1
Es	1.519643	0.988068	-0.588381	99
Es	-2.875469	1.081941	1.441439	99
Es	-1.248818	0.571347	0.856482	99
Es	-0.999287	0.154615	-0.902268	99
Es	-2.987644	0.001477	0.876226	99
Es	-1.102089	0.282709	0.417969	99
Es	-2.664403	0.684836	0.845948	99
Es	1.034914	-0.840971	1.588170	99
Es	-2.897473	1.037538	0.222461	99
Es	1.274440	-1.092194	0.932072	99
Es	-1.138078	0.867399	0.832773	99
Es	1.143093	-0.165117	-2.121213	99
Es	1.011440	-0.666183	0.367850	99
Es	1.046382	-1.802782	0.846822	99
Es	1.067258	0.465933	-0.226174	99
Es	-1.064762	-0.883131	-0.242088	99
Es	1.634870	0.477250	-1.167825	99
Es	1.061305	-0.419194	-0.889069	99
Es	1.515724	-0.214299	-1.488513	99
Es	-0.017167	-0.207538	-0.231783	99
Es	2.132705	-0.609523	-1.532198	99
Es	-0.773550	-0.180031	-0.259068	99
Es	0.734516	-0.244696	-0.189899	99
Es	-1.186321	0.404522	1.079939	99
Es	1.144612	1.577830	-0.804967	99
Es	2.020404	-1.086055	0.937523	99
Es	2.135673	1.139576	-0.220423	99
Es	-1.791357	0.582526	0.835581	99
47
Properties=species:S:1:pos:R:3:Z:I:1 energy=-309.12043988356584 field_type=dipole dipole="0.000000 0.000000 0.000000" charge=0
C	-2.664618	0.684858	0.845952	6
O	-1.248618	0.571478	0.856772	8
C	-0.773498	-0.180151	-0.259248	6
C	0.734432	-0.244761	-0.189788	6
C	1.274442	-1.092201	0.932101	6
C	1.515772	-0.214381	-1.488648	6
C	1.519693	0.988238	-0.588328	6
H	-2.969957	1.265258	1.720422	1
H	-3.128877	-0.304201	0.903342	1
H	-3.000587	1.207759	-0.054458	1
H	-1.102677	0.304259	-1.186818	1
H	-1.192087	-1.192901	-0.230368	1
H	2.370363	-1.090322	0.955922	1
H	0.944873	-2.130221	0.816501	1
H	0.920552	-0.723722	1.900332	1
H	0.973862	-0.141951	-2.425138	1
H	2.429612	-0.794441	-1.560558	1
H	2.429942	1.219729	-0.046148	1
H	0.967383	1.867679	-0.901838	1
Es	-1.064813	-0.883257	-0.242157	99
Es	-1.102060	0.281935	0.418492	99
Es	-0.999131	0.154710	-0.902250	99
Es	1.274438	-1.092190	0.932066	99
Es	2.135457	1.139782	-0.220485	99
Es	-1.139724	0.868360	0.830733	99
Es	1.143312	-0.165168	-2.121182	99
Es	1.034791	-0.840796	1.588337	99
Es	0.734520	-0.244695	-0.189903	99
Es	-1.184625	0.406778	1.079572	99
Es	2.020225	-1.086124	0.937482	99
Es	1.067055	0.465894	-0.225796	99
Es	1.144746	1.577510	-0.804930	99
Es	-1.791433	0.580112	0.837369	99
Es	2.132599	-0.609367	-1.532152	99
Es	1.519647	0.988066	-0.588378	99
Es	1.046401	-1.802761	0.846629	99
Es	-2.875517	1.082031	1.441543	99
Es	-0.773551	-0.180028	-0.259067	99
Es	-2.987556	0.001510	0.876183	99
Es	-0.017214	-0.207476	-0.231669	99
Es	1.011595	-0.666254	0.367829	99
Es	1.635223	0.477389	-1.168266	99
Es	1.061127	-0.419385	-0.889058	99
Es	-2.664405	0.684837	0.845947	99
Es	-1.248826	0.571339	0.856544	99
Es	-2.897440	1.037401	0.222466	99
Es	1.515721	-0.214298	-1.488510	99
47
Properties=species:S:1:pos:R:3:Z:I:1 energy=-309.12043988356584 field_type=dipole dipole="0.000000 0.000000 0.000000" charge=0
C	-2.664618	0.684858	0.845952	6
O	-1.248618	0.571478	0.856772	8
C	-0.773498	-0.180151	-0.259248	6
C	0.734432	-0.244761	-0.189788	6
C	1.274442	-1.092201	0.932101	6
C	1.515772	-0.214381	-1.488648	6
C	1.519693	0.988238	-0.588328	6
H	-2.969957	1.265258	1.720422	1
H	-3.128877	-0.304201	0.903342	1
H	-3.000587	1.207759	-0.054458	1
H	-1.102677	0.304259	-1.186818	1
H	-1.192087	-1.192901	-0.230368	1
H	2.370363	-1.090322	0.955922	1
H	0.944873	-2.130221	0.816501	1
H	0.920552	-0.723722	1.900332	1
H	0.973862	-0.141951	-2.425138	1
H	2.429612	-0.794441	-1.560558	1
H	2.429942	1.219729	-0.046148	1
H	0.967383	1.867679	-0.901838	1
Es	-1.248816	0.571370	0.856520	99
Es	-2.897336	1.037371	0.222570	99
Es	1.274440	-1.092194	0.932072	99
Es	-0.999056	0.154696	-0.902111	99
Es	-2.875540	1.082109	1.441538	99
Es	1.145082	1.577255	-0.804766	99
Es	1.519646	0.988068	-0.588377	99
Es	1.635364	0.477584	-1.168707	99
Es	-2.664404	0.684837	0.845947	99
Es	2.132475	-0.609259	-1.532239	99
Es	-1.102279	0.283481	0.417485	99
Es	-0.017242	-0.207354	-0.231722	99
Es	1.046428	-1.802860	0.846478	99
Es	0.734517	-0.244696	-0.189900	99
Es	2.020088	-1.086032	0.937363	99
Es	1.011658	-0.666292	0.367975	99
Es	1.143528	-0.165131	-2.121010	99
Es	1.034771	-0.840663	1.588435	99
Es	1.060941	-0.419717	-0.889128	99
Es	-1.138860	0.868269	0.833118	99
Es	2.135336	1.139770	-0.220668	99
Es	-2.987578	0.001407	0.876087	99
Es	-1.064765	-0.883386	-0.242253	99
Es	-1.185494	0.404858	1.078535	99
Es	-0.773545	-0.180037	-0.259075	99
Es	-1.791263	0.580633	0.837140	99
Es	1.515722	-0.214294	-1.488509	99
Es	1.066743	0.466059	-0.225411	99
47
Properties=species:S:1:pos:R:3:Z:I:1 energy=-309.12043988356584 field_type=dipole dipole="0.000000 0.000000 0.000000" charge=0
C	-2.664618	0.684858	0.845952	6
O	-1.248618	0.571478	0.856772	8
C	-0.773498	-0.180151	-0.259248	6
C	0.734432	-0.244761	-0.189788	6
C	1.274442	-1.092201	0.932101	6
C	1.515772	-0.214381	-1.488648	6
C	1.519693	0.988238	-0.588328	6
H	-2.969957	1.265258	1.720422	1
H	-3.128877	-0.304201	0.903342	1
H	-3.000587	1.207759	-0.054458	1
H	-1.102677	0.304259	-1.186818	1
H	-1.192087	-1.192901	-0.230368	1
H	2.370363	-1.090322	0.955922	1
H	0.944873	-2.130221	0.816501	1
H	0.920552	-0.723722	1.900332	1
H	0.973862	-0.141951	-2.425138	1
H	2.429612	-0.794441	-1.560558	1
H	2.429942	1.219729	-0.046148	1
H	0.967383	1.867679	-0.901838	1
Es	1.060998	-0.419930	-0.889139	99
Es	1.034736	-0.840572	1.588500	99
Es	1.066321	0.465926	-0.224970	99
Es	-2.987607	0.001415	0.876024	99
Es	1.011801	-0.666219	0.367935	99
Es	-0.773549	-0.180033	-0.259069	99
Es	2.132252	-0.608973	-1.532233	99
Es	-1.064779	-0.883535	-0.242330	99
Es	1.519647	0.988069	-0.588379	99
Es	1.515721	-0.214292	-1.488504	99
Es	-1.101275	0.282696	0.417979	99
Es	-0.999025	0.154650	-0.901915	99
Es	-1.140031	0.868806	0.832519	99
Es	-2.875537	1.082221	1.441586	99
Es	-2.897295	1.037267	0.222704	99
Es	1.046398	-1.802894	0.846341	99
Es	1.143647	-0.165196	-2.121050	99
Es	-1.248839	0.571289	0.856505	99
Es	-1.790872	0.579929	0.836246	99
Es	2.019973	-1.086056	0.937356	99
Es	-2.664402	0.684836	0.845947	99
Es	-1.185721	0.405888	1.079423	99
Es	-0.017162	-0.207220	-0.231701	99
Es	0.734517	-0.244699	-0.189899	99
Es	2.135214	1.139803	-0.220804	99
Es	1.145326	1.577053	-0.804751	99
Es	1.274439	-1.092193	0.932071	99
Es	1.635667	0.477819	-1.169004	99
47
Properties=species:S:1:pos:R:3:Z:I:1 energy=-309.12043988356584 field_type=dipole dipole="0.000000 0.000000 0.000000" charge=0
C	-2.664618	0.684858	0.845952	6
O	-1.248618	0.571478	0.856772	8
C	-0.773498	-0.180151	-0.259248	6
C	0.734432	-0.244761	-0.189788	6
C	1.274442	-1.092201	0.932101	6
C	1.515772	-0.214381	-1.488648	6
C	1.519693	0.988238	-0.588328	6
H	-2.969957	1.265258	1.720422	1
H	-3.128877	-0.304201	0.903342	1
H	-3.000587	1.207759	-0.054458	1
H	-1.102677	0.304259	-1.186818	1
H	-1.192087	-1.192901	-0.230368	1
H	2.370363	-1.090322	0.955922	1
H	0.944873	-2.130221	0.816501	1
H	0.920552	-0.723722	1.900332	1
H	0.973862	-0.141951	-2.425138	1
H	2.429612	-0.794441	-1.560558	1
H	2.429942	1.219729	-0.046148	1
H	0.967383	1.867679	-0.901838	1
Es	1.515721	-0.214294	-1.488508	99
Es	-2.664405	0.684837	0.845948	99
Es	1.066249	0.466167	-0.224775	99
Es	-2.987602	0.001367	0.876026	99
Es	-1.791194	0.577488	0.839191	99
Es	1.519644	0.988064	-0.588377	99
Es	-2.875504	1.082265	1.441596	99
Es	-1.101373	0.282131	0.418044	99
Es	2.135112	1.139839	-0.220944	99
Es	-0.017188	-0.207376	-0.231689	99
Es	-1.248851	0.571504	0.856343	99
Es	-0.773550	-0.180033	-0.259068	99
Es	1.034806	-0.840470	1.588661	99
Es	1.143701	-0.165179	-2.121027	99
Es	-1.064861	-0.883560	-0.242331	99
Es	-2.897243	1.037255	0.222676	99
Es	0.734518	-0.244695	-0.189901	99
Es	1.145467	1.576933	-0.804765	99
Es	1.046422	-1.802880	0.846299	99
Es	-0.998886	0.154742	-0.901999	99
Es	-1.183464	0.408644	1.078596	99
Es	1.274439	-1.092193	0.932071	99
Es	1.635878	0.477809	-1.169171	99
Es	-1.141860	0.868907	0.830514	99
Es	2.132103	-0.608917	-1.532262	99
Es	1.011716	-0.666299	0.368051	99
Es	1.060895	-0.420137	-0.888966	99
Es	2.019870	-1.086063	0.937154	99
47
Properties=species:S:1:pos:R:3:Z:I:1 energy=-309.12043988356584 field_type=dipole dipole="0.000000 0.000000 0.000000" charge=0
C	-2.664618	0.684858	0.845952	6
O	-1.248618	0.571478	0.856772	8
C	-0.773498	-0.180151	-0.259248	6
C	0.734432	-0.244761	-0.189788	6
C	1.274442	-1.092201	0.932101	6
C	1.515772	-0.214381	-1.488648	6
C	1.519693	0.988238	-0.588328	6
H	-2.969957	1.265258	1.720422	1
H	-3.128877	-0.304201	0.903342	1
H	-3.000587	1.207759	-0.054458	1
H	-1.102677	0.304259	-1.186818	1
H	-1.192087	-1.192901	-0.230368	1
H	2.370363	-1.090322	0.955922	1
H	0.944873	-2.130221	0.816501	1
H	0.920552	-0.723722	1.900332	1
H	0.973862	-0.141951	-2.425138	1
H	2.429612	-0.794441	-1.560558	1
H	2.429942	1.219729	-0.046148	1
H	0.967383	1.867679	-0.901838	1
Es	1.143860	-0.165188	-2.120829	99
Es	-2.897227	1.037232	0.222726	99
Es	1.060793	-0.420256	-0.888972	99
Es	-1.791105	0.579864	0.838410	99
Es	-2.664402	0.684836	0.845947	99
Es	2.019783	-1.085935	0.937068	99
Es	1.011680	-0.666298	0.368111	99
Es	1.046514	-1.802969	0.846260	99
Es	-0.773549	-0.180032	-0.259068	99
Es	1.034807	-0.840421	1.588700	99
Es	1.519647	0.988067	-0.588377	99
Es	1.515719	-0.214295	-1.488505	99
Es	-2.875474	1.082322	1.441587	99
Es	2.134856	1.139853	-0.221073	99
Es	-1.064770	-0.883651	-0.242337	99
Es	-0.017226	-0.207236	-0.231677	99
Es	-1.185859	0.404791	1.076335	99
Es	-1.138616	0.868524	0.834961	99
Es	-1.102393	0.284199	0.416443	99
Es	1.274441	-1.092194	0.932073	99
Es	-1.248837	0.571327	0.856521	99
Es	1.145556	1.576815	-0.804611	99
Es	1.066114	0.466014	-0.224498	99
Es	1.636213	0.478031	-1.169636	99
Es	-0.998892	0.154712	-0.901957	99
Es	0.734519	-0.244699	-0.189900	99
Es	2.132009	-0.608860	-1.532346	99
Es	-2.987599	0.001299	0.876030	99
47
Properties=species:S:1:pos:R:3:Z:I:1 energy=-309.12043988356584 field_type=dipole dipole="0.000000 0.000000 0.000000" charge=0
C	-2.664618	0.684858	0.845952	6
O	-1.248618	0.571478	0.856772	8
C	-0.773498	-0.180151	-0.259248	6
C	0.734432	-0.244761	-0.189788	6
C	1.274442	-1.092201	0.932101	6
C	1.515772	-0.214381	-1.488648	6
C	1.519693	0.988238	-0.588328	6
H	-2.969957	1.265258	1.720422	1
H	-3.128877	-0.304201	0.903342	1
H	-3.000587	1.207759	-0.054458	1
H	-1.102677	0.304259	-1.186818	1
H	-1.192087	-1.192901	-0.230368	1
H	2.370363	-1.090322	0.955922	1
H	0.944873	-2.130221	0.816501	1
H	0.920552	-0.723722	1.900332	1
H	0.973862	-0.141951	-2.425138	1
H	2.429612	-0.794441	-1.560558	1
H	2.429942	1.219729	-0.046148	1
H	0.967383	1.867679	-0.901838	1
Es	2.019720	-1.085995	0.937068	99
Es	1.011685	-0.666243	0.368002	99
Es	1.519644	0.988068	-0.588377	99
Es	-1.248741	0.571395	0.856634	99
Es	-0.998824	0.154804	-0.901983	99
Es	-0.773549	-0.180032	-0.259068	99
Es	1.274440	-1.092194	0.932073	99
Es	1.060707	-0.420396	-0.888973	99
Es	2.134807	1.139893	-0.221117	99
Es	2.132041	-0.608785	-1.532408	99
Es	1.046580	-1.802888	0.846199	99
Es	-0.017236	-0.207284	-0.231574	99
Es	1.636194	0.477755	-1.169604	99
Es	1.145692	1.576670	-0.804601	99
Es	-1.064774	-0.883663	-0.242398	99
Es	-1.140558	0.869841	0.833561	99
Es	-2.897255	1.037259	0.222688	99
Es	1.066045	0.466255	-0.224341	99
Es	-2.987566	0.001351	0.876026	99
Es	-1.184917	0.407124	1.075508	99
Es	-2.875460	1.082262	1.441653	99
Es	0.734518	-0.244691	-0.189897	99
Es	-1.790895	0.576938	0.839901	99
Es	1.034797	-0.840492	1.588818	99
Es	-2.664407	0.684836	0.845947	99
Es	1.143854	-0.164966	-2.120932	99
Es	-1.101699	0.283333	0.417089	99
Es	1.515719	-0.214301	-1.488507	99
47
Properties=species:S:1:pos:R:3:Z:I:1 energy=-309.12043988356584 field_type=dipole dipole="0.000000 0.000000 0.000000" charge=0
C	-2.664618	0.684858	0.845952	6
O	-1.248618	0.571478	0.856772	8
C	-0.773498	-0.180151	-0.259248	6
C	0.734432	-0.244761	-0.189788	6
C	1.274442	-1.092201	0.932101	6
C	1.515772	-0.214381	-1.488648	6
C	1.519693	0.988238	-0.588328	6
H	-2.969957	1.265258	1.720422	1
H	-3.128877	-0.304201	0.903342	1
H	-3.000587	1.207759	-0.054458	1
H	-1.102677	0.304259	-1.186818	1
H	-1.192087	-1.192901	-0.230368	1
H	2.370363	-1.090322	0.955922	1
H	0.944873	-2.130221	0.816501	1
H	0.920552	-0.723722	1.900332	1
H	0.973862	-0.141951	-2.425138	1
H	2.429612	-0.794441	-1.560558	1
H	2.429942	1.219729	-0.046148	1
H	0.967383	1.867679	-0.901838	1
Es	1.274439	-1.092194	0.932072	99
Es	1.046602	-1.803052	0.846096	99
Es	-2.875437	1.082308	1.441666	99
Es	-2.897217	1.037251	0.222774	99
Es	1.515722	-0.214297	-1.488510	99
Es	-1.101737	0.284467	0.416353	99
Es	1.065699	0.465898	-0.224342	99
Es	1.144023	-0.165046	-2.120942	99
Es	1.011905	-0.666347	0.368196	99
Es	1.034792	-0.840282	1.588865	99
Es	-1.064722	-0.883774	-0.242379	99
Es	-1.186989	0.404964	1.073929	99
Es	1.636614	0.478035	-1.169818	99
Es	1.060568	-0.420342	-0.888919	99
Es	-0.773549	-0.180033	-0.259069	99
Es	1.145810	1.576624	-0.804678	99
Es	-1.138174	0.869187	0.836922	99
Es	-0.998746	0.154781	-0.901976	99
Es	0.734518	-0.244696	-0.189900	99
Es	2.019496	-1.085919	0.937013	99
Es	-2.987584	0.001292	0.875977	99
Es	2.131898	-0.608694	-1.532314	99
Es	-0.017315	-0.207195	-0.231549	99
Es	-1.791193	0.578749	0.838857	99
Es	-1.248727	0.571369	0.856596	99
Es	-2.664405	0.684837	0.845948	99
Es	1.519647	0.988071	-0.588379	99
Es	2.134625	1.139892	-0.221103	99
47
Properties=species:S:1:pos:R:3:Z:I:1 energy=-309.12043988356584 field_type=dipole dipole="0.000000 0.000000 0.000000" charge=0
C	-2.664618	0.684858	0.845952	6
O	-1.248618	0.571478	0.856772	8
C	-0.773498	-0.180151	-0.259248	6
C	0.734432	-0.244761	-0.189788	6
C	1.274442	-1.092201	0.932101	6
C	1.515772	-0.214381	-1.488648	6
C	1.519693	0.988238	-0.588328	6
H	-2.969957	1.265258	1.720422	1
H	-3.128877	-0.304201	0.903342	1
H	-3.000587	1.207759	-0.054458	1
H	-1.102677	0.304259	-1.186818	1
H	-1.192087	-1.192901	-0.230368	1
H	2.370363	-1.090322	0.955922	1
H	0.944873	-2.130221	0.816501	1
H	0.920552	-0.723722	1.900332	1
H	0.973862	-0.141951	-2.425138	1
H	2.429612	-0.794441	-1.560558	1
H	2.429942	1.219729	-0.046148	1
H	0.967383	1.867679	-0.901838	1
Es	0.734519	-0.244694	-0.189902	99
Es	-2.987541	0.001343	0.875941	99
Es	-0.017295	-0.207186	-0.231556	99
Es	1.636359	0.477892	-1.169839	99
Es	-1.248802	0.571317	0.856468	99
Es	-2.664405	0.684837	0.845948	99
Es	-2.897195	1.037182	0.222745	99
Es	1.034741	-0.840337	1.588959	99
Es	1.011850	-0.666349	0.368160	99
Es	-2.875493	1.082335	1.441720	99
Es	-1.142201	0.870494	0.831894	99
Es	1.046604	-1.802946	0.845984	99
Es	-0.998674	0.154828	-0.901954	99
Es	1.515720	-0.214298	-1.488508	99
Es	1.144044	-0.165093	-2.121008	99
Es	1.519645	0.988066	-0.588380	99
Es	-1.064751	-0.883749	-0.242476	99
Es	2.134670	1.139939	-0.221251	99
Es	2.019498	-1.085995	0.937014	99
Es	-0.773549	-0.180033	-0.259069	99
Es	1.145827	1.576521	-0.804587	99
Es	-1.101577	0.283012	0.417505	99
Es	1.065851	0.466178	-0.224024	99
Es	1.274440	-1.092194	0.932071	99
Es	-1.790996	0.574628	0.841676	99
Es	2.131894	-0.608529	-1.532284	99
Es	-1.183289	0.409233	1.075167	99
Es	1.060670	-0.420549	-0.889028	99
47
Properties=species:S:1:pos:R:3:Z:I:1 energy=-309.12043988356584 field_type=dipole dipole="0.000000 0.000000 0.000000" charge=0
C	-2.664618	0.684858	0.845952	6
O	-1.248618	0.571478	0.856772	8
C	-0.773498	-0.180151	-0.259248	6
C	0.734432	-0.244761	-0.189788	6
C	1.274442	-1.092201	0.932101	6
C	1.515772	-0.214381	-1.488648	6
C	1.519693	0.988238	-0.588328	6
H	-2.969957	1.265258	1.720422	1
H	-3.128877	-0.304201	0.903342	1
H	-3.000587	1.207759	-0.054458	1
H	-1.102677	0.304259	-1.186818	1
H	-1.192087	-1.192901	-0.230368	1
H	2.370363	-1.090322	0.955922	1
H	0.944873	-2.130221	0.816501	1
H	0.920552	-0.723722	1.900332	1
H	0.973862	-0.141951	-2.425138	1
H	2.429612	-0.794441	-1.560558	1
H	2.429942	1.219729	-0.046148	1
H	0.967383	1.867679	-0.901838	1
Es	1.515720	-0.214299	-1.488509	99
Es	-2.875419	1.082395	1.441661	99
Es	1.034682	-0.840307	1.588932	99
Es	-2.897172	1.037182	0.222772	99
Es	1.046563	-1.802942	0.845945	99
Es	1.519646	0.988068	-0.588379	99
Es	1.144226	-0.165207	-2.121109	99
Es	1.145899	1.576455	-0.804494	99
Es	-0.773549	-0.180032	-0.259068	99
Es	-2.664405	0.684837	0.845948	99
Es	-2.987573	0.001255	0.876002	99
Es	1.274439	-1.092193	0.932072	99
Es	1.060608	-0.420430	-0.888880	99
Es	-0.998777	0.154746	-0.901953	99
Es	-1.101786	0.282712	0.417241	99
Es	-0.017229	-0.207150	-0.231684	99
Es	-1.064653	-0.883806	-0.242387	99
Es	1.636826	0.478085	-1.170244	99
Es	0.734512	-0.244700	-0.189900	99
Es	2.134524	1.139922	-0.221252	99
Es	2.019546	-1.085985	0.937019	99
Es	-1.791074	0.575552	0.841780	99
Es	-1.248814	0.571392	0.856470	99
Es	-1.141280	0.870055	0.832636	99
Es	2.131584	-0.608492	-1.532101	99
Es	1.011864	-0.666340	0.368256	99
Es	-1.183960	0.409031	1.074548	99
Es	1.065617	0.466049	-0.223935	99
47
Properties=species:S:1:pos:R:3:Z:I:1 energy=-309.12043988356584 field_type=dipole dipole="0.000000 0.000000 0.000000" charge=0
C	-2.664618	0.684858	0.845952	6
O	-1.248618	0.571478	0.856772	8
C	-0.773498	-0.180151	-0.259248	6
C	0.734432	-0.244761	-0.189788	6
C	1.274442	-1.092201	0.932101	6
C	1.515772	-0.214381	-1.488648	6
C	1.519693	0.988238	-0.588328	6
H	-2.969957	1.265258	1.720422	1
H	-3.128877	-0.304201	0.903342	1
H	-3.000587	1.207759	-0.054458	1
H	-1.102677	0.304259	-1.186818	1
H	-1.192087	-1.192901	-0.230368	1
H	2.370363	-1.090322	0.955922	1
H	0.944873	-2.130221	0.816501	1
H	0.920552	-0.723722	1.900332	1
H	0.973862	-0.141951	-2.425138	1
H	2.429612	-0.794441	-1.560558	1
H	2.429942	1.219729	-0.046148	1
H	0.967383	1.867679	-0.901838	1
Es	-1.138444	0.869727	0.838101	99
Es	1.519646	0.988067	-0.588378	99
Es	1.011851	-0.666336	0.368395	99
Es	-2.875487	1.082403	1.441729	99
Es	2.134290	1.139899	-0.221413	99
Es	1.146109	1.576363	-0.804526	99
Es	1.046576	-1.803006	0.845937	99
Es	-2.664405	0.684837	0.845948	99
Es	1.515720	-0.214297	-1.488508	99
Es	1.060408	-0.420892	-0.888733	99
Es	-1.064729	-0.883853	-0.242479	99
Es	-0.998546	0.154870	-0.901984	99
Es	2.019518	-1.085887	0.936864	99
Es	1.636989	0.478203	-1.170436	99
Es	1.274440	-1.092194	0.932072	99
Es	-1.790897	0.577927	0.838944	99
Es	2.131662	-0.608374	-1.532376	99
Es	-1.101397	0.285094	0.415992	99
Es	0.734518	-0.244695	-0.189901	99
Es	1.034713	-0.840198	1.588963	99
Es	1.144253	-0.165102	-2.120811	99
Es	-0.017361	-0.207225	-0.231456	99
Es	-2.897157	1.037129	0.222830	99
Es	-1.248776	0.571382	0.856592	99
Es	-0.773550	-0.180033	-0.259068	99
Es	-1.187367	0.404658	1.073037	99
Es	1.065513	0.466113	-0.223853	99
Es	-2.987529	0.001271	0.875909	99
47
Properties=species:S:1:pos:R:3:Z:I:1 energy=-309.12043988356584 field_type=dipole dipole="0.000000 0.000000 0.000000" charge=0
C	-2.664618	0.684858	0.845952	6
O	-1.248618	0.571478	0.856772	8
C	-0.773498	-0.180151	-0.259248	6
C	0.734432	-0.244761	-0.189788	6
C	1.274442	-1.092201	0.932101	6
C	1.515772	-0.214381	-1.488648	6
C	1.519693	0.988238	-0.588328	6
H	-2.969957	1.265258	1.720422	1
H	-3.128877	-0.304201	0.903342	1
H	-3.000587	1.207759	-0.054458	1
H	-1.102677	0.304259	-1.186818	1
H	-1.192087	-1.192901	-0.230368	1
H	2.370363	-1.090322	0.955922	1
H	0.944873	-2.130221	0.816501	1
H	0.920552	-0.723722	1.900332	1
H	0.973862	-0.141951	-2.425138	1
H	2.429612	-0.794441	-1.560558	1
H	2.429942	1.219729	-0.046148	1
H	0.967383	1.867679	-0.901838	1
Es	1.636852	0.478234	-1.170474	99
Es	2.134441	1.140115	-0.221418	99
Es	-2.664405	0.684837	0.845948	99
Es	-1.101300	0.283096	0.417113	99
Es	-1.064751	-0.883840	-0.242546	99
Es	1.146148	1.576050	-0.804519	99
Es	-0.998568	0.154852	-0.901890	99
Es	1.046590	-1.803010	0.845929	99
Es	-2.875455	1.082408	1.441688	99
Es	-1.790415	0.574262	0.841471	99
Es	-2.987601	0.001251	0.875900	99
Es	2.019489	-1.085900	0.936913	99
Es	-0.773549	-0.180032	-0.259068	99
Es	0.734519	-0.244694	-0.189902	99
Es	1.011774	-0.666371	0.368251	99
Es	1.274440	-1.092194	0.932072	99
Es	2.131659	-0.608418	-1.532247	99
Es	-2.897114	1.037173	0.222852	99
Es	-0.017266	-0.207165	-0.231542	99
Es	-1.183645	0.409112	1.075064	99
Es	1.060583	-0.420650	-0.888966	99
Es	-1.142685	0.870880	0.832588	99
Es	1.515719	-0.214300	-1.488511	99
Es	1.034701	-0.840216	1.588962	99
Es	1.519645	0.988069	-0.588378	99
Es	-1.248869	0.571376	0.856473	99
Es	1.065339	0.466110	-0.223481	99
Es	1.144288	-0.165181	-2.120896	99
47
Properties=species:S:1:pos:R:3:Z:I:1 energy=-309.12043988356584 field_type=dipole dipole="0.000000 0.000000 0.000000" charge=0
C	-2.664618	0.684858	0.845952	6
O	-1.248618	0.571478	0.856772	8
C	-0.773498	-0.180151	-0.259248	6
C	0.734432	-0.244761	-0.189788	6
C	1.274442	-1.092201	0.932101	6
C	1.515772	-0.214381	-1.488648	6
C	1.519693	0.988238	-0.588328	6
H	-2.969957	1.265258	1.720422	1
H	-3.128877	-0.304201	0.903342	1
H	-3.000587	1.207759	-0.054458	1
H	-1.102677	0.304259	-1.186818	1
H	-1.192087	-1.192901	-0.230368	1
H	2.370363	-1.090322	0.955922	1
H	0.944873	-2.130221	0.816501	1
H	0.920552	-0.723722	1.900332	1
H	0.973862	-0.141951	-2.425138	1
H	2.429612	-0.794441	-1.560558	1
H	2.429942	1.219729	-0.046148	1
H	0.967383	1.867679	-0.901838	1
Es	1.011843	-0.666365	0.368198	99
Es	-0.773550	-0.180032	-0.259067	99
Es	-2.875474	1.082273	1.441807	99
Es	2.134071	1.139952	-0.221436	99
Es	2.019490	-1.085900	0.936979	99
Es	-1.186582	0.405294	1.071148	99
Es	1.144303	-0.165109	-2.120835	99
Es	-2.987529	0.001270	0.875788	99
Es	-2.664404	0.684837	0.845948	99
Es	0.734518	-0.244697	-0.189901	99
Es	1.146028	1.576308	-0.804400	99
Es	-2.897154	1.037258	0.222878	99
Es	1.065365	0.465868	-0.223470	99
Es	1.637116	0.478285	-1.170558	99
Es	-1.101152	0.286282	0.415490	99
Es	2.131727	-0.608374	-1.532326	99
Es	-1.140015	0.871311	0.838932	99
Es	1.060656	-0.420593	-0.888994	99
Es	1.515719	-0.214298	-1.488509	99
Es	-1.790404	0.574527	0.840577	99
Es	-0.998456	0.154917	-0.902053	99
Es	1.519650	0.988070	-0.588378	99
Es	1.034571	-0.840309	1.589017	99
Es	-1.064659	-0.883897	-0.242487	99
Es	1.274440	-1.092194	0.932072	99
Es	-0.017490	-0.207281	-0.231441	99
Es	-1.248788	0.571371	0.856521	99
Es	1.046721	-1.802922	0.845888	99
47
Properties=species:S:1:pos:R:3:Z:I:1 energy=-309.12043988356584 field_type=dipole dipole="0.000000 0.000000 0.000000" charge=0
C	-2.664618	0.684858	0.845952	6
O	-1.248618	0.571478	0.856772	8
C	-0.773498	-0.180151	-0.259248	6
C	0.734432	-0.244761	-0.189788	6
C	1.274442	-1.092201	0.932101	6
C	1.515772	-0.214381	-1.488648	6
C	1.519693	0.988238	-0.588328	6
H	-2.969957	1.265258	1.720422	1
H	-3.128877	-0.304201	0.903342	1
H	-3.000587	1.207759	-0.054458	1
H	-1.102677	0.304259	-1.186818	1
H	-1.192087	-1.192901	-0.230368	1
H	2.370363	-1.090322	0.955922	1
H	0.944873	-2.130221	0.816501	1
H	0.920552	-0.723722	1.900332	1
H	0.973862	-0.141951	-2.425138	1
H	2.429612	-0.794441	-1.560558	1
H	2.429942	1.219729	-0.046148	1
H	0.967383	1.867679	-0.901838	1
Es	2.134238	1.139967	-0.221377	99
Es	2.019324	-1.085933	0.936957	99
Es	-2.987543	0.001282	0.875889	99
Es	1.637223	0.478457	-1.170717	99
Es	1.060595	-0.420837	-0.888738	99
Es	-2.897080	1.037157	0.222760	99
Es	-2.875448	1.082422	1.441772	99
Es	1.274440	-1.092193	0.932071	99
Es	1.519646	0.988070	-0.588378	99
Es	-1.142722	0.870762	0.832094	99
Es	-0.998485	0.154895	-0.901961	99
Es	1.034603	-0.840088	1.589031	99
Es	1.515722	-0.214294	-1.488507	99
Es	0.734518	-0.244695	-0.189900	99
Es	1.146175	1.576174	-0.804407	99
Es	-1.064755	-0.883857	-0.242540	99
Es	-1.790954	0.573179	0.843593	99
Es	1.144246	-0.165294	-2.120907	99
Es	-0.773549	-0.180032	-0.259070	99
Es	2.131426	-0.608214	-1.532288	99
Es	1.046679	-1.803020	0.845873	99
Es	-1.101607	0.282942	0.417097	99
Es	-1.182860	0.410497	1.073477	99
Es	1.011913	-0.666495	0.368266	99
Es	1.065381	0.465972	-0.223624	99
Es	-1.248858	0.571341	0.856471	99
Es	-2.664399	0.684835	0.845949	99
Es	-0.017305	-0.207145	-0.231501	99
47
Properties=species:S:1:pos:R:3:Z:I:1 energy=-309.12043988356584 field_type=dipole dipole="0.000000 0.000000 0.000000" charge=0
C	-2.664618	0.684858	0.845952	6
O	-1.248618	0.571478	0.856772	8
C	-0.773498	-0.180151	-0.259248	6
C	0.734432	-0.244761	-0.189788	6
C	1.274442	-1.092201	0.932101	6
C	1.515772	-0.214381	-1.488648	6
C	1.519693	0.988238	-0.588328	6
H	-2.969957	1.265258	1.720422	1
H	-3.128877	-0.304201	0.903342	1
H	-3.000587	1.207759	-0.054458	1
H	-1.102677	0.304259	-1.186818	1
H	-1.192087	-1.192901	-0.230368	1
H	2.370363	-1.090322	0.955922	1
H	0.944873	-2.130221	0.816501	1
H	0.920552	-0.723722	1.900332	1
H	0.973862	-0.141951	-2.425138	1
H	2.429612	-0.794441	-1.560558	1
H	2.429942	1.219729	-0.046148	1
H	0.967383	1.867679	-0.901838	1
Es	1.065248	0.466033	-0.223428	99
Es	2.131407	-0.608276	-1.532176	99
Es	0.734518	-0.244696	-0.189900	99
Es	1.637355	0.478418	-1.170850	99
Es	-1.101374	0.283565	0.416622	99
Es	2.134147	1.140080	-0.221438	99
Es	-1.064707	-0.883948	-0.242520	99
Es	-1.183406	0.410105	1.072373	99
Es	1.060485	-0.420621	-0.888771	99
Es	2.019238	-1.085919	0.936967	99
Es	-2.897044	1.037179	0.222788	99
Es	-1.142254	0.870474	0.833568	99
Es	-0.998441	0.154925	-0.901979	99
Es	1.046696	-1.803082	0.845896	99
Es	1.274440	-1.092194	0.932072	99
Es	-1.248868	0.571447	0.856420	99
Es	1.515714	-0.214301	-1.488500	99
Es	1.034731	-0.840170	1.589040	99
Es	-0.017386	-0.207183	-0.231487	99
Es	1.146214	1.576013	-0.804417	99
Es	-0.773549	-0.180032	-0.259069	99
Es	-2.987545	0.001223	0.875850	99
Es	-2.875456	1.082419	1.441756	99
Es	1.519647	0.988069	-0.588378	99
Es	1.144357	-0.165287	-2.120966	99
Es	1.011895	-0.666402	0.368187	99
Es	-1.791093	0.573179	0.843779	99
Es	-2.664406	0.684836	0.845947	99
