42
Properties=species:S:1:pos:R:3:Z:I:1 energy=-343.752198101644 field_type=dipole dipole="0.000000 0.000000 0.000000" charge=0
C	-0.417615	-2.636949	-0.217713	6
O	-1.420445	-1.628959	-0.283613	8
C	-0.998975	-0.329639	-0.320353	6
C	0.250285	0.161451	-0.309853	6
C	0.598505	1.585821	-0.350523	6
C	0.579945	2.372101	0.936697	6
O	1.803695	2.085661	0.250927	8
H	-0.918795	-3.609279	-0.190763	1
H	0.177045	-2.538059	0.696307	1
H	0.222345	-2.610929	-1.105423	1
H	-1.869035	0.317711	-0.361493	1
H	1.101165	-0.511649	-0.271363	1
H	0.273025	2.095001	-1.252643	1
H	0.401935	1.856311	1.871847	1
H	0.216925	3.391402	0.907957	1
Es	-1.013927	-1.976114	-0.259470	99
Es	-0.760325	-3.294418	-0.199591	99
Es	1.403601	1.841572	-0.061204	99
Es	-0.417787	-2.636768	-0.217725	99
Es	1.947075	1.853666	0.395754	99
Es	-1.568654	-1.627101	-0.031014	99
Es	0.465017	2.021982	1.573759	99
Es	-0.339603	-0.057707	0.021190	99
Es	0.598760	1.585878	-0.350356	99
Es	0.819658	-0.292356	-0.283188	99
Es	-1.587112	0.112844	-0.348514	99
Es	0.431691	0.865757	-0.331405	99
Es	0.348497	1.960089	0.301635	99
Es	-1.420042	-1.628851	-0.283636	99
Es	0.384363	1.930413	-0.965955	99
Es	0.250339	0.161491	-0.309849	99
Es	-0.322777	-0.076188	-0.652865	99
Es	0.580209	2.372039	0.936529	99
Es	-0.999120	-0.329906	-0.320356	99
Es	-1.201545	-1.146866	-0.294850	99
Es	-0.006256	-2.563161	0.402464	99
Es	1.395471	2.250774	0.589938	99
Es	0.024568	-2.612634	-0.820132	99
Es	-1.549727	-1.643881	-0.544486	99
Es	0.342427	3.071892	0.921966	99
Es	1.893143	2.334967	0.095014	99
Es	1.803282	2.085692	0.250898	99
42
Properties=species:S:1:pos:R:3:Z:I:1 energy=-343.752198101644 field_type=dipole dipole="0.000000 0.000000 0.000000" charge=0
C	-0.417615	-2.636949	-0.217713	6
O	-1.420445	-1.628959	-0.283613	8
C	-0.998975	-0.329639	-0.320353	6
C	0.250285	0.161451	-0.309853	6
C	0.598505	1.585821	-0.350523	6
C	0.579945	2.372101	0.936697	6
O	1.803695	2.085661	0.250927	8
H	-0.918795	-3.609279	-0.190763	1
H	0.177045	-2.538059	0.696307	1
H	0.222345	-2.610929	-1.105423	1
H	-1.869035	0.317711	-0.361493	1
H	1.101165	-0.511649	-0.271363	1
H	0.273025	2.095001	-1.252643	1
H	0.401935	1.856311	1.871847	1
H	0.216925	3.391402	0.907957	1
Es	0.818959	-0.291709	-0.283738	99
Es	0.598761	1.585875	-0.350356	99
Es	0.580212	2.372039	0.936529	99
Es	1.399387	2.250079	0.592825	99
Es	-0.999120	-0.329907	-0.320371	99
Es	-0.005954	-2.562370	0.402078	99
Es	0.024110	-2.611805	-0.819488	99
Es	-0.760751	-3.295598	-0.199950	99
Es	0.344649	1.960024	0.299691	99
Es	1.930717	1.858542	0.393944	99
Es	-1.574879	-1.650162	-0.540146	99
Es	0.385296	1.929405	-0.964163	99
Es	-1.586824	0.112583	-0.348111	99
Es	-0.323191	-0.075952	-0.654508	99
Es	0.431383	0.865377	-0.330220	99
Es	1.403575	1.837847	-0.062941	99
Es	-1.014551	-1.974387	-0.268236	99
Es	-0.417786	-2.636767	-0.217727	99
Es	-1.543727	-1.623534	-0.027019	99
Es	1.908139	2.335452	0.096512	99
Es	0.343274	3.071014	0.923444	99
Es	0.465618	2.023184	1.572136	99
Es	-1.201155	-1.145808	-0.295025	99
Es	1.803349	2.085648	0.250922	99
Es	-0.338571	-0.058620	0.021971	99
Es	0.250345	0.161496	-0.309854	99
Es	-1.420040	-1.628842	-0.283648	99
42
Properties=species:S:1:pos:R:3:Z:I:1 energy=-343.752198101644 field_type=dipole dipole="0.000000 0.000000 0.000000" charge=0
C	-0.417615	-2.636949	-0.217713	6
O	-1.420445	-1.628959	-0.283613	8
C	-0.998975	-0.329639	-0.320353	6
C	0.250285	0.161451	-0.309853	6
C	0.598505	1.585821	-0.350523	6
C	0.579945	2.372101	0.936697	6
O	1.803695	2.085661	0.250927	8
H	-0.918795	-3.609279	-0.190763	1
H	0.177045	-2.538059	0.696307	1
H	0.222345	-2.610929	-1.105423	1
H	-1.869035	0.317711	-0.361493	1
H	1.101165	-0.511649	-0.271363	1
H	0.273025	2.095001	-1.252643	1
H	0.401935	1.856311	1.871847	1
H	0.216925	3.391402	0.907957	1
Es	-0.999123	-0.329911	-0.320357	99
Es	1.907083	1.863842	0.392301	99
Es	0.598770	1.585883	-0.350359	99
Es	1.931255	2.329676	0.098981	99
Es	0.431193	0.865059	-0.330337	99
Es	-1.201720	-1.145149	-0.303289	99
Es	1.803291	2.085641	0.250928	99
Es	-0.323158	-0.075390	-0.655097	99
Es	-0.006093	-2.562059	0.401819	99
Es	-1.617833	-1.665163	-0.521120	99
Es	0.343582	3.070262	0.924054	99
Es	0.818755	-0.291453	-0.284648	99
Es	-0.338299	-0.059393	0.022636	99
Es	0.580217	2.372036	0.936525	99
Es	-1.014980	-1.972668	-0.277019	99
Es	-1.500052	-1.610778	-0.029188	99
Es	0.386390	1.928364	-0.962485	99
Es	-1.586722	0.112517	-0.347630	99
Es	1.401122	2.253240	0.593027	99
Es	0.341740	1.960352	0.299034	99
Es	0.250341	0.161491	-0.309857	99
Es	0.466043	2.024054	1.571085	99
Es	-0.417789	-2.636767	-0.217724	99
Es	-0.760932	-3.296095	-0.200050	99
Es	1.404067	1.835698	-0.063759	99
Es	-1.420044	-1.628865	-0.283620	99
Es	0.024122	-2.611320	-0.819299	99
42
Properties=species:S:1:pos:R:3:Z:I:1 energy=-343.752198101644 field_type=dipole dipole="0.000000 0.000000 0.000000" charge=0
C	-0.417615	-2.636949	-0.217713	6
O	-1.420445	-1.628959	-0.283613	8
C	-0.998975	-0.329639	-0.320353	6
C	0.250285	0.161451	-0.309853	6
C	0.598505	1.585821	-0.350523	6
C	0.579945	2.372101	0.936697	6
O	1.803695	2.085661	0.250927	8
H	-0.918795	-3.609279	-0.190763	1
H	0.177045	-2.538059	0.696307	1
H	0.222345	-2.610929	-1.105423	1
H	-1.869035	0.317711	-0.361493	1
H	1.101165	-0.511649	-0.271363	1
H	0.273025	2.095001	-1.252643	1
H	0.401935	1.856311	1.871847	1
H	0.216925	3.391402	0.907957	1
Es	-1.015555	-1.971827	-0.284448	99
Es	-1.586659	0.112499	-0.347055	99
Es	0.343873	3.069783	0.924436	99
Es	-0.999123	-0.329912	-0.320357	99
Es	-0.006201	-2.561875	0.401877	99
Es	0.431029	0.864795	-0.330422	99
Es	-1.651670	-1.676125	-0.496414	99
Es	1.888308	1.871708	0.387773	99
Es	0.340133	1.960724	0.298932	99
Es	0.598764	1.585876	-0.350354	99
Es	-0.323551	-0.075030	-0.655535	99
Es	-0.761114	-3.296038	-0.199974	99
Es	-1.464822	-1.601456	-0.041835	99
Es	-1.420038	-1.628863	-0.283615	99
Es	-0.417789	-2.636768	-0.217724	99
Es	1.949127	2.323083	0.102638	99
Es	1.803311	2.085649	0.250928	99
Es	0.466239	2.024442	1.570535	99
Es	0.250344	0.161494	-0.309849	99
Es	-1.202642	-1.144373	-0.308033	99
Es	0.818946	-0.291299	-0.285353	99
Es	0.024181	-2.611234	-0.819513	99
Es	1.401721	2.254359	0.594239	99
Es	1.405060	1.833378	-0.064165	99
Es	-0.337840	-0.059702	0.023044	99
Es	0.386983	1.927782	-0.961733	99
Es	0.580213	2.372034	0.936528	99
42
Properties=species:S:1:pos:R:3:Z:I:1 energy=-343.752198101644 field_type=dipole dipole="0.000000 0.000000 0.000000" charge=0
C	-0.417615	-2.636949	-0.217713	6
O	-1.420445	-1.628959	-0.283613	8
C	-0.998975	-0.329639	-0.320353	6
C	0.250285	0.161451	-0.309853	6
C	0.598505	1.585821	-0.350523	6
C	0.579945	2.372101	0.936697	6
O	1.803695	2.085661	0.250927	8
H	-0.918795	-3.609279	-0.190763	1
H	0.177045	-2.538059	0.696307	1
H	0.222345	-2.610929	-1.105423	1
H	-1.869035	0.317711	-0.361493	1
H	1.101165	-0.511649	-0.271363	1
H	0.273025	2.095001	-1.252643	1
H	0.401935	1.856311	1.871847	1
H	0.216925	3.391402	0.907957	1
Es	-0.337949	-0.059886	0.023434	99
Es	0.818842	-0.291136	-0.285418	99
Es	-1.586651	0.112432	-0.347040	99
Es	0.344056	3.069438	0.924471	99
Es	-1.203553	-1.142800	-0.306868	99
Es	1.969425	2.312229	0.110185	99
Es	0.024188	-2.611261	-0.819663	99
Es	-1.668775	-1.681245	-0.479848	99
Es	-1.016010	-1.970993	-0.289226	99
Es	1.405664	1.833739	-0.065813	99
Es	1.803271	2.085755	0.250863	99
Es	0.580213	2.372034	0.936529	99
Es	0.598769	1.585880	-0.350360	99
Es	0.431199	0.864695	-0.330364	99
Es	1.401628	2.255887	0.594385	99
Es	0.387259	1.927461	-0.961490	99
Es	0.250344	0.161494	-0.309861	99
Es	-1.420085	-1.628865	-0.283590	99
Es	1.867759	1.880703	0.381752	99
Es	-0.323371	-0.074914	-0.655980	99
Es	0.339386	1.960970	0.298832	99
Es	-0.761121	-3.295865	-0.199997	99
Es	-1.446411	-1.598701	-0.054878	99
Es	-0.999122	-0.329910	-0.320357	99
Es	-0.417785	-2.636771	-0.217725	99
Es	0.466285	2.024596	1.570541	99
Es	-0.006228	-2.561861	0.402035	99
42
Properties=species:S:1:pos:R:3:Z:I:1 energy=-343.752198101644 field_type=dipole dipole="0.000000 0.000000 0.000000" charge=0
C	-0.417615	-2.636949	-0.217713	6
O	-1.420445	-1.628959	-0.283613	8
C	-0.998975	-0.329639	-0.320353	6
C	0.250285	0.161451	-0.309853	6
C	0.598505	1.585821	-0.350523	6
C	0.579945	2.372101	0.936697	6
O	1.803695	2.085661	0.250927	8
H	-0.918795	-3.609279	-0.190763	1
H	0.177045	-2.538059	0.696307	1
H	0.222345	-2.610929	-1.105423	1
H	-1.869035	0.317711	-0.361493	1
H	1.101165	-0.511649	-0.271363	1
H	0.273025	2.095001	-1.252643	1
H	0.401935	1.856311	1.871847	1
H	0.216925	3.391402	0.907957	1
Es	0.818924	-0.291020	-0.285460	99
Es	-1.015909	-1.970183	-0.291833	99
Es	-0.006243	-2.561745	0.402013	99
Es	-0.761164	-3.295922	-0.200015	99
Es	0.024170	-2.611228	-0.819613	99
Es	-1.586655	0.112389	-0.347053	99
Es	0.344128	3.069239	0.924606	99
Es	0.250346	0.161495	-0.309861	99
Es	-1.674874	-1.682339	-0.474011	99
Es	1.803324	2.085579	0.250971	99
Es	-0.417787	-2.636769	-0.217725	99
Es	1.402190	2.254565	0.595736	99
Es	0.431146	0.864474	-0.330635	99
Es	0.338784	1.961027	0.298788	99
Es	-1.420034	-1.628846	-0.283569	99
Es	1.405905	1.833135	-0.066125	99
Es	1.978025	2.307820	0.114072	99
Es	0.466345	2.024725	1.570280	99
Es	-1.204088	-1.142371	-0.304341	99
Es	-0.323436	-0.074918	-0.656221	99
Es	1.858602	1.887329	0.376756	99
Es	-0.337856	-0.059844	0.023714	99
Es	-0.999123	-0.329912	-0.320358	99
Es	0.598763	1.585872	-0.350354	99
Es	-1.439969	-1.598795	-0.060756	99
Es	0.580204	2.372038	0.936530	99
Es	0.387507	1.927309	-0.960985	99
42
Properties=species:S:1:pos:R:3:Z:I:1 energy=-343.752198101644 field_type=dipole dipole="0.000000 0.000000 0.000000" charge=0
C	-0.417615	-2.636949	-0.217713	6
O	-1.420445	-1.628959	-0.283613	8
C	-0.998975	-0.329639	-0.320353	6
C	0.250285	0.161451	-0.309853	6
C	0.598505	1.585821	-0.350523	6
C	0.579945	2.372101	0.936697	6
O	1.803695	2.085661	0.250927	8
H	-0.918795	-3.609279	-0.190763	1
H	0.177045	-2.538059	0.696307	1
H	0.222345	-2.610929	-1.105423	1
H	-1.869035	0.317711	-0.361493	1
H	1.101165	-0.511649	-0.271363	1
H	0.273025	2.095001	-1.252643	1
H	0.401935	1.856311	1.871847	1
H	0.216925	3.391402	0.907957	1
Es	0.337757	1.958555	0.297148	99
Es	-1.585881	0.111528	-0.349029	99
Es	0.386575	1.928343	-0.962513	99
Es	0.021715	-2.611527	-0.819007	99
Es	1.400471	1.836166	-0.067959	99
Es	0.345638	3.068029	0.924980	99
Es	-1.211147	-1.159338	-0.206844	99
Es	0.467441	2.026116	1.570262	99
Es	0.580217	2.372033	0.936523	99
Es	-1.420011	-1.628717	-0.283418	99
Es	-1.717023	-1.702205	-0.182234	99
Es	1.407405	2.256013	0.597357	99
Es	1.875176	1.876735	0.382150	99
Es	-0.323433	-0.076756	-0.659423	99
Es	1.960812	2.314841	0.111545	99
Es	0.817872	-0.289794	-0.281484	99
Es	-1.387062	-1.553705	-0.482635	99
Es	-0.337355	-0.058408	0.023185	99
Es	0.431705	0.864239	-0.327198	99
Es	-0.417787	-2.636767	-0.217725	99
Es	-0.761210	-3.295462	-0.201576	99
Es	0.250342	0.161494	-0.309847	99
Es	-0.999122	-0.329909	-0.320362	99
Es	1.803305	2.085727	0.250874	99
Es	-0.004014	-2.561469	0.403257	99
Es	-1.019927	-1.978531	-0.261119	99
Es	0.598767	1.585876	-0.350358	99
42
Properties=species:S:1:pos:R:3:Z:I:1 energy=-343.752198101644 field_type=dipole dipole="0.000000 0.000000 0.000000" charge=0
C	-0.417615	-2.636949	-0.217713	6
O	-1.420445	-1.628959	-0.283613	8
C	-0.998975	-0.329639	-0.320353	6
C	0.250285	0.161451	-0.309853	6
C	0.598505	1.585821	-0.350523	6
C	0.579945	2.372101	0.936697	6
O	1.803695	2.085661	0.250927	8
H	-0.918795	-3.609279	-0.190763	1
H	0.177045	-2.538059	0.696307	1
H	0.222345	-2.610929	-1.105423	1
H	-1.869035	0.317711	-0.361493	1
H	1.101165	-0.511649	-0.271363	1
H	0.273025	2.095001	-1.252643	1
H	0.401935	1.856311	1.871847	1
H	0.216925	3.391402	0.907957	1
Es	0.598766	1.585878	-0.350351	99
Es	0.337894	1.960993	0.298551	99
Es	0.250345	0.161495	-0.309853	99
Es	-0.323564	-0.074857	-0.656726	99
Es	-0.761213	-3.295719	-0.199987	99
Es	1.845790	1.896553	0.370713	99
Es	-1.586648	0.112321	-0.346924	99
Es	-1.686115	-1.685542	-0.460312	99
Es	0.580219	2.372037	0.936523	99
Es	-0.999122	-0.329910	-0.320351	99
Es	-1.427443	-1.597956	-0.071551	99
Es	1.403121	2.255110	0.596228	99
Es	0.024135	-2.611269	-0.819838	99
Es	-0.006248	-2.561728	0.402141	99
Es	1.803312	2.085742	0.250868	99
Es	-1.016682	-1.968827	-0.296513	99
Es	-0.417787	-2.636769	-0.217725	99
Es	-1.420010	-1.628822	-0.283736	99
Es	1.990463	2.298637	0.119897	99
Es	0.818887	-0.290832	-0.285541	99
Es	0.466528	2.024930	1.570123	99
Es	0.431302	0.864381	-0.330393	99
Es	1.405568	1.832603	-0.066119	99
Es	-1.204655	-1.141390	-0.302458	99
Es	0.387679	1.927054	-0.960925	99
Es	-0.337681	-0.059903	0.023989	99
Es	0.344385	3.068892	0.924820	99
42
Properties=species:S:1:pos:R:3:Z:I:1 energy=-343.752198101644 field_type=dipole dipole="0.000000 0.000000 0.000000" charge=0
C	-0.417615	-2.636949	-0.217713	6
O	-1.420445	-1.628959	-0.283613	8
C	-0.998975	-0.329639	-0.320353	6
C	0.250285	0.161451	-0.309853	6
C	0.598505	1.585821	-0.350523	6
C	0.579945	2.372101	0.936697	6
O	1.803695	2.085661	0.250927	8
H	-0.918795	-3.609279	-0.190763	1
H	0.177045	-2.538059	0.696307	1
H	0.222345	-2.610929	-1.105423	1
H	-1.869035	0.317711	-0.361493	1
H	1.101165	-0.511649	-0.271363	1
H	0.273025	2.095001	-1.252643	1
H	0.401935	1.856311	1.871847	1
H	0.216925	3.391402	0.907957	1
Es	-1.420712	-1.597662	-0.077551	99
Es	0.466516	2.025053	1.570299	99
Es	1.842655	1.899399	0.368666	99
Es	0.337776	1.960934	0.298494	99
Es	0.387647	1.927183	-0.960848	99
Es	-1.419926	-1.628813	-0.283840	99
Es	1.993324	2.296069	0.121679	99
Es	-1.586584	0.112198	-0.347003	99
Es	1.803252	2.085812	0.250821	99
Es	-0.417787	-2.636769	-0.217725	99
Es	-0.761226	-3.295677	-0.200091	99
Es	-0.323509	-0.074893	-0.657133	99
Es	0.023916	-2.611276	-0.819845	99
Es	0.580219	2.372034	0.936527	99
Es	1.406063	1.832316	-0.066462	99
Es	0.431450	0.864270	-0.330565	99
Es	-0.337780	-0.059779	0.024326	99
Es	-1.692137	-1.686666	-0.451663	99
Es	-0.006048	-2.561637	0.402267	99
Es	1.402953	2.255065	0.596941	99
Es	0.344594	3.068653	0.924737	99
Es	0.598766	1.585882	-0.350349	99
Es	-0.999120	-0.329905	-0.320364	99
Es	-1.016839	-1.968289	-0.300041	99
Es	0.250345	0.161494	-0.309860	99
Es	0.818711	-0.290689	-0.285344	99
Es	-1.205294	-1.141203	-0.301523	99
42
Properties=species:S:1:pos:R:3:Z:I:1 energy=-343.752198101644 field_type=dipole dipole="0.000000 0.000000 0.000000" charge=0
C	-0.417615	-2.636949	-0.217713	6
O	-1.420445	-1.628959	-0.283613	8
C	-0.998975	-0.329639	-0.320353	6
C	0.250285	0.161451	-0.309853	6
C	0.598505	1.585821	-0.350523	6
C	0.579945	2.372101	0.936697	6
O	1.803695	2.085661	0.250927	8
H	-0.918795	-3.609279	-0.190763	1
H	0.177045	-2.538059	0.696307	1
H	0.222345	-2.610929	-1.105423	1
H	-1.869035	0.317711	-0.361493	1
H	1.101165	-0.511649	-0.271363	1
H	0.273025	2.095001	-1.252643	1
H	0.401935	1.856311	1.871847	1
H	0.216925	3.391402	0.907957	1
Es	1.400801	1.837944	-0.069533	99
Es	-0.337662	-0.058318	0.024011	99
Es	-1.214869	-1.162312	-0.195911	99
Es	1.407267	2.254080	0.599631	99
Es	-0.417787	-2.636768	-0.217725	99
Es	-1.585656	0.111265	-0.349034	99
Es	0.337971	1.958925	0.296997	99
Es	0.386339	1.928290	-0.963368	99
Es	-0.999120	-0.329905	-0.320364	99
Es	1.857653	1.886221	0.373537	99
Es	0.580221	2.372039	0.936523	99
Es	0.598769	1.585870	-0.350353	99
Es	-1.019266	-1.978837	-0.266721	99
Es	0.346072	3.067485	0.924512	99
Es	-1.419919	-1.628492	-0.283378	99
Es	0.817614	-0.289326	-0.281368	99
Es	0.432106	0.864328	-0.326842	99
Es	-0.761302	-3.295093	-0.201527	99
Es	-0.004252	-2.561576	0.403568	99
Es	0.021912	-2.611625	-0.819343	99
Es	-0.323127	-0.076824	-0.660325	99
Es	1.977800	2.305637	0.119206	99
Es	1.803330	2.085538	0.250999	99
Es	0.467129	2.026057	1.571303	99
Es	-1.373315	-1.544927	-0.451596	99
Es	0.250344	0.161494	-0.309852	99
Es	-1.727829	-1.708067	-0.218499	99
42
Properties=species:S:1:pos:R:3:Z:I:1 energy=-343.752198101644 field_type=dipole dipole="0.000000 0.000000 0.000000" charge=0
C	-0.417615	-2.636949	-0.217713	6
O	-1.420445	-1.628959	-0.283613	8
C	-0.998975	-0.329639	-0.320353	6
C	0.250285	0.161451	-0.309853	6
C	0.598505	1.585821	-0.350523	6
C	0.579945	2.372101	0.936697	6
O	1.803695	2.085661	0.250927	8
H	-0.918795	-3.609279	-0.190763	1
H	0.177045	-2.538059	0.696307	1
H	0.222345	-2.610929	-1.105423	1
H	-1.869035	0.317711	-0.361493	1
H	1.101165	-0.511649	-0.271363	1
H	0.273025	2.095001	-1.252643	1
H	0.401935	1.856311	1.871847	1
H	0.216925	3.391402	0.907957	1
Es	-1.214683	-1.162524	-0.195401	99
Es	0.346273	3.067080	0.924402	99
Es	1.858258	1.886946	0.374097	99
Es	0.580215	2.372030	0.936525	99
Es	1.976763	2.306126	0.118281	99
Es	-1.371202	-1.544155	-0.443259	99
Es	0.466997	2.026117	1.571496	99
Es	1.401190	1.836075	-0.068886	99
Es	0.337748	1.959013	0.296959	99
Es	-0.761329	-3.294826	-0.201377	99
Es	-0.323038	-0.076768	-0.660703	99
Es	0.250343	0.161494	-0.309842	99
Es	-0.999121	-0.329908	-0.320360	99
Es	0.817424	-0.289115	-0.281590	99
Es	0.432413	0.864280	-0.326942	99
Es	0.021939	-2.611727	-0.819652	99
Es	-0.004322	-2.561573	0.403692	99
Es	-1.585608	0.111141	-0.348920	99
Es	-0.417787	-2.636769	-0.217725	99
Es	-1.730128	-1.708322	-0.226008	99
Es	0.386329	1.928262	-0.963454	99
Es	1.803403	2.085667	0.250917	99
Es	0.598766	1.585874	-0.350357	99
Es	-1.419964	-1.628557	-0.283311	99
Es	-0.337697	-0.058409	0.024563	99
Es	1.407314	2.254732	0.599531	99
Es	-1.019268	-1.979081	-0.268125	99
42
Properties=species:S:1:pos:R:3:Z:I:1 energy=-343.752198101644 field_type=dipole dipole="0.000000 0.000000 0.000000" charge=0
C	-0.417615	-2.636949	-0.217713	6
O	-1.420445	-1.628959	-0.283613	8
C	-0.998975	-0.329639	-0.320353	6
C	0.250285	0.161451	-0.309853	6
C	0.598505	1.585821	-0.350523	6
C	0.579945	2.372101	0.936697	6
O	1.803695	2.085661	0.250927	8
H	-0.918795	-3.609279	-0.190763	1
H	0.177045	-2.538059	0.696307	1
H	0.222345	-2.610929	-1.105423	1
H	-1.869035	0.317711	-0.361493	1
H	1.101165	-0.511649	-0.271363	1
H	0.273025	2.095001	-1.252643	1
H	0.401935	1.856311	1.871847	1
H	0.216925	3.391402	0.907957	1
Es	0.467264	2.026191	1.571099	99
Es	0.598766	1.585874	-0.350355	99
Es	-1.585662	0.111253	-0.349079	99
Es	0.817556	-0.289298	-0.281424	99
Es	0.580216	2.372036	0.936527	99
Es	0.250345	0.161496	-0.309847	99
Es	0.021644	-2.611637	-0.819340	99
Es	-0.004009	-2.561493	0.403535	99
Es	0.337644	1.958652	0.296901	99
Es	-0.417786	-2.636773	-0.217725	99
Es	-1.728136	-1.707846	-0.219103	99
Es	-0.761278	-3.295098	-0.201541	99
Es	-1.420016	-1.628711	-0.283412	99
Es	-1.372524	-1.544301	-0.453812	99
Es	0.346161	3.067407	0.924632	99
Es	-1.214722	-1.163013	-0.195175	99
Es	-0.323169	-0.076761	-0.660360	99
Es	1.803336	2.085558	0.250989	99
Es	1.985668	2.299781	0.122363	99
Es	1.407689	2.255400	0.598768	99
Es	-0.999122	-0.329910	-0.320364	99
Es	0.386331	1.928370	-0.963149	99
Es	-1.019827	-1.978738	-0.264718	99
Es	1.400603	1.836762	-0.069030	99
Es	0.432181	0.864226	-0.326847	99
Es	-0.337566	-0.058409	0.024048	99
Es	1.849639	1.892085	0.370968	99
42
Properties=species:S:1:pos:R:3:Z:I:1 energy=-343.752198101644 field_type=dipole dipole="0.000000 0.000000 0.000000" charge=0
C	-0.417615	-2.636949	-0.217713	6
O	-1.420445	-1.628959	-0.283613	8
C	-0.998975	-0.329639	-0.320353	6
C	0.250285	0.161451	-0.309853	6
C	0.598505	1.585821	-0.350523	6
C	0.579945	2.372101	0.936697	6
O	1.803695	2.085661	0.250927	8
H	-0.918795	-3.609279	-0.190763	1
H	0.177045	-2.538059	0.696307	1
H	0.222345	-2.610929	-1.105423	1
H	-1.869035	0.317711	-0.361493	1
H	1.101165	-0.511649	-0.271363	1
H	0.273025	2.095001	-1.252643	1
H	0.401935	1.856311	1.871847	1
H	0.216925	3.391402	0.907957	1
Es	1.403807	2.255623	0.597006	99
Es	0.387901	1.926989	-0.960364	99
Es	1.405740	1.831676	-0.066531	99
Es	-0.337560	-0.060018	0.024272	99
Es	-0.006184	-2.561545	0.402263	99
Es	-0.999122	-0.329909	-0.320359	99
Es	-1.693916	-1.688515	-0.449478	99
Es	-1.205160	-1.141122	-0.303026	99
Es	0.431470	0.864330	-0.330493	99
Es	0.580214	2.372035	0.936526	99
Es	1.803246	2.085824	0.250813	99
Es	-1.419047	-1.596075	-0.080146	99
Es	-1.016718	-1.968053	-0.298587	99
Es	0.466655	2.025217	1.569987	99
Es	-1.586535	0.112212	-0.346945	99
Es	0.023991	-2.611164	-0.819750	99
Es	-0.417786	-2.636769	-0.217725	99
Es	0.344638	3.068524	0.924885	99
Es	0.250345	0.161493	-0.309853	99
Es	1.827179	1.913263	0.359860	99
Es	0.337264	1.961012	0.298352	99
Es	2.008513	2.282414	0.130546	99
Es	-1.419998	-1.628861	-0.283505	99
Es	-0.323527	-0.074956	-0.657236	99
Es	-0.761411	-3.295779	-0.200162	99
Es	0.818476	-0.290619	-0.285444	99
Es	0.598753	1.585875	-0.350356	99
42
Properties=species:S:1:pos:R:3:Z:I:1 energy=-343.752198101644 field_type=dipole dipole="0.000000 0.000000 0.000000" charge=0
C	-0.417615	-2.636949	-0.217713	6
O	-1.420445	-1.628959	-0.283613	8
C	-0.998975	-0.329639	-0.320353	6
C	0.250285	0.161451	-0.309853	6
C	0.598505	1.585821	-0.350523	6
C	0.579945	2.372101	0.936697	6
O	1.803695	2.085661	0.250927	8
H	-0.918795	-3.609279	-0.190763	1
H	0.177045	-2.538059	0.696307	1
H	0.222345	-2.610929	-1.105423	1
H	-1.869035	0.317711	-0.361493	1
H	1.101165	-0.511649	-0.271363	1
H	0.273025	2.095001	-1.252643	1
H	0.401935	1.856311	1.871847	1
H	0.216925	3.391402	0.907957	1
Es	-1.017380	-1.967686	-0.302325	99
Es	-1.205313	-1.140436	-0.298359	99
Es	0.023888	-2.611233	-0.819816	99
Es	-1.586464	0.112142	-0.346951	99
Es	1.825863	1.914400	0.359133	99
Es	-0.761400	-3.295736	-0.200090	99
Es	-0.006084	-2.561519	0.402240	99
Es	0.337515	1.960913	0.298252	99
Es	-1.419998	-1.628841	-0.283811	99
Es	0.466501	2.025244	1.570337	99
Es	0.431326	0.864260	-0.330528	99
Es	1.803388	2.085672	0.250900	99
Es	0.598771	1.585878	-0.350356	99
Es	-1.695915	-1.687359	-0.446300	99
Es	-0.323197	-0.074877	-0.657499	99
Es	0.387690	1.927157	-0.960641	99
Es	1.405607	1.831792	-0.066361	99
Es	-0.999122	-0.329910	-0.320358	99
Es	1.403849	2.255552	0.596783	99
Es	0.250345	0.161495	-0.309856	99
Es	2.009797	2.281452	0.131378	99
Es	-1.416272	-1.598349	-0.083847	99
Es	-0.337952	-0.059998	0.024442	99
Es	-0.417786	-2.636770	-0.217725	99
Es	0.818613	-0.290470	-0.285234	99
Es	0.344736	3.068300	0.924622	99
Es	0.580220	2.372033	0.936520	99
42
Properties=species:S:1:pos:R:3:Z:I:1 energy=-343.752198101644 field_type=dipole dipole="0.000000 0.000000 0.000000" charge=0
C	-0.417615	-2.636949	-0.217713	6
O	-1.420445	-1.628959	-0.283613	8
C	-0.998975	-0.329639	-0.320353	6
C	0.250285	0.161451	-0.309853	6
C	0.598505	1.585821	-0.350523	6
C	0.579945	2.372101	0.936697	6
O	1.803695	2.085661	0.250927	8
H	-0.918795	-3.609279	-0.190763	1
H	0.177045	-2.538059	0.696307	1
H	0.222345	-2.610929	-1.105423	1
H	-1.869035	0.317711	-0.361493	1
H	1.101165	-0.511649	-0.271363	1
H	0.273025	2.095001	-1.252643	1
H	0.401935	1.856311	1.871847	1
H	0.216925	3.391402	0.907957	1
Es	0.023996	-2.611196	-0.819898	99
Es	-0.337636	-0.059930	0.024670	99
Es	1.803153	2.085738	0.250858	99
Es	0.580219	2.372034	0.936524	99
Es	-0.417787	-2.636769	-0.217725	99
Es	1.825369	1.915106	0.358268	99
Es	0.431455	0.864271	-0.330186	99
Es	-1.586531	0.112005	-0.346964	99
Es	-0.006203	-2.561545	0.402362	99
Es	-0.999121	-0.329907	-0.320356	99
Es	2.010379	2.280351	0.131757	99
Es	0.598760	1.585875	-0.350355	99
Es	0.466523	2.025198	1.570392	99
Es	1.403780	2.255485	0.597495	99
Es	-0.761304	-3.295640	-0.200129	99
Es	-1.204994	-1.140215	-0.298587	99
Es	-1.419937	-1.628762	-0.283822	99
Es	-1.413620	-1.597075	-0.088350	99
Es	-0.323511	-0.074923	-0.657630	99
Es	-1.698684	-1.688973	-0.442433	99
Es	0.387786	1.927028	-0.960802	99
Es	1.405702	1.832108	-0.066627	99
Es	0.344924	3.068225	0.924751	99
Es	-1.017634	-1.967670	-0.301510	99
Es	0.337352	1.961231	0.298130	99
Es	0.250345	0.161495	-0.309852	99
Es	0.818444	-0.290440	-0.285432	99
42
Properties=species:S:1:pos:R:3:Z:I:1 energy=-343.752198101644 field_type=dipole dipole="0.000000 0.000000 0.000000" charge=0
C	-0.417615	-2.636949	-0.217713	6
O	-1.420445	-1.628959	-0.283613	8
C	-0.998975	-0.329639	-0.320353	6
C	0.250285	0.161451	-0.309853	6
C	0.598505	1.585821	-0.350523	6
C	0.579945	2.372101	0.936697	6
O	1.803695	2.085661	0.250927	8
H	-0.918795	-3.609279	-0.190763	1
H	0.177045	-2.538059	0.696307	1
H	0.222345	-2.610929	-1.105423	1
H	-1.869035	0.317711	-0.361493	1
H	1.101165	-0.511649	-0.271363	1
H	0.273025	2.095001	-1.252643	1
H	0.401935	1.856311	1.871847	1
H	0.216925	3.391402	0.907957	1
Es	0.818427	-0.290648	-0.285415	99
Es	2.015857	2.274826	0.135129	99
Es	-0.999122	-0.329912	-0.320358	99
Es	-1.017214	-1.968350	-0.297691	99
Es	-1.692344	-1.687928	-0.451996	99
Es	1.406201	1.830502	-0.066031	99
Es	-1.586459	0.112189	-0.346893	99
Es	0.387771	1.926956	-0.960201	99
Es	0.431356	0.864375	-0.330507	99
Es	0.024079	-2.610987	-0.819595	99
Es	-0.417787	-2.636769	-0.217725	99
Es	1.803256	2.085805	0.250824	99
Es	-0.006311	-2.561471	0.402094	99
Es	-1.419981	-1.628876	-0.283785	99
Es	-0.337671	-0.059986	0.024313	99
Es	0.337223	1.961004	0.298144	99
Es	0.580217	2.372033	0.936522	99
Es	-0.323414	-0.074975	-0.657198	99
Es	0.598767	1.585873	-0.350357	99
Es	0.250345	0.161495	-0.309854	99
Es	0.466638	2.025308	1.569936	99
Es	1.819631	1.921474	0.355194	99
Es	-1.420900	-1.596635	-0.079483	99
Es	-0.761386	-3.296028	-0.200151	99
Es	1.403827	2.256300	0.596498	99
Es	-1.204504	-1.140836	-0.301747	99
Es	0.344722	3.068364	0.924883	99
42
Properties=species:S:1:pos:R:3:Z:I:1 energy=-343.752198101644 field_type=dipole dipole="0.000000 0.000000 0.000000" charge=0
C	-0.417615	-2.636949	-0.217713	6
O	-1.420445	-1.628959	-0.283613	8
C	-0.998975	-0.329639	-0.320353	6
C	0.250285	0.161451	-0.309853	6
C	0.598505	1.585821	-0.350523	6
C	0.579945	2.372101	0.936697	6
O	1.803695	2.085661	0.250927	8
H	-0.918795	-3.609279	-0.190763	1
H	0.177045	-2.538059	0.696307	1
H	0.222345	-2.610929	-1.105423	1
H	-1.869035	0.317711	-0.361493	1
H	1.101165	-0.511649	-0.271363	1
H	0.273025	2.095001	-1.252643	1
H	0.401935	1.856311	1.871847	1
H	0.216925	3.391402	0.907957	1
Es	0.386177	1.928310	-0.963612	99
Es	-1.019693	-1.978905	-0.269054	99
Es	1.407426	2.254663	0.599272	99
Es	-1.419965	-1.628593	-0.283313	99
Es	-0.004260	-2.561546	0.403729	99
Es	-1.368727	-1.541165	-0.440337	99
Es	0.021839	-2.611563	-0.819373	99
Es	-1.585430	0.111035	-0.349136	99
Es	-1.731184	-1.709256	-0.232804	99
Es	-0.322810	-0.076816	-0.661090	99
Es	1.803263	2.085723	0.250864	99
Es	-0.337886	-0.058361	0.024457	99
Es	0.346368	3.067013	0.924452	99
Es	0.817283	-0.289008	-0.281101	99
Es	-0.999121	-0.329909	-0.320363	99
Es	0.467067	2.026181	1.571461	99
Es	1.401051	1.836480	-0.069179	99
Es	0.580216	2.372032	0.936521	99
Es	0.250344	0.161494	-0.309844	99
Es	1.842088	1.898027	0.366887	99
Es	0.598768	1.585872	-0.350360	99
Es	0.337750	1.958803	0.296731	99
Es	0.432399	0.864430	-0.326542	99
Es	1.993124	2.294719	0.126301	99
Es	-1.215613	-1.164784	-0.190628	99
Es	-0.761461	-3.295001	-0.201666	99
Es	-0.417786	-2.636771	-0.217725	99
42
Properties=species:S:1:pos:R:3:Z:I:1 energy=-343.752198101644 field_type=dipole dipole="0.000000 0.000000 0.000000" charge=0
C	-0.417615	-2.636949	-0.217713	6
O	-1.420445	-1.628959	-0.283613	8
C	-0.998975	-0.329639	-0.320353	6
C	0.250285	0.161451	-0.309853	6
C	0.598505	1.585821	-0.350523	6
C	0.579945	2.372101	0.936697	6
O	1.803695	2.085661	0.250927	8
H	-0.918795	-3.609279	-0.190763	1
H	0.177045	-2.538059	0.696307	1
H	0.222345	-2.610929	-1.105423	1
H	-1.869035	0.317711	-0.361493	1
H	1.101165	-0.511649	-0.271363	1
H	0.273025	2.095001	-1.252643	1
H	0.401935	1.856311	1.871847	1
H	0.216925	3.391402	0.907957	1
Es	-0.337584	-0.060042	0.024816	99
Es	-1.017807	-1.966966	-0.302821	99
Es	0.598764	1.585875	-0.350352	99
Es	-0.323497	-0.074914	-0.657647	99
Es	-0.761400	-3.295682	-0.200141	99
Es	2.012702	2.278242	0.133158	99
Es	1.405387	1.832473	-0.066600	99
Es	-0.417787	-2.636769	-0.217725	99
Es	0.336982	1.961091	0.298170	99
Es	0.387818	1.927011	-0.960542	99
Es	0.345016	3.068015	0.924679	99
Es	-0.999125	-0.329914	-0.320357	99
Es	0.466523	2.025372	1.570370	99
Es	-1.205186	-1.139689	-0.296097	99
Es	-1.419715	-1.628653	-0.284009	99
Es	0.431467	0.864315	-0.330427	99
Es	1.404407	2.254626	0.598480	99
Es	0.250344	0.161494	-0.309853	99
Es	-1.586520	0.112005	-0.346888	99
Es	0.580224	2.372033	0.936524	99
Es	-1.412192	-1.598068	-0.091405	99
Es	1.822889	1.917652	0.355981	99
Es	-0.006153	-2.561433	0.402367	99
Es	-1.699910	-1.689322	-0.440487	99
Es	0.023916	-2.611199	-0.819855	99
Es	1.803201	2.085889	0.250768	99
Es	0.818463	-0.290336	-0.285559	99
42
Properties=species:S:1:pos:R:3:Z:I:1 energy=-343.752198101644 field_type=dipole dipole="0.000000 0.000000 0.000000" charge=0
C	-0.417615	-2.636949	-0.217713	6
O	-1.420445	-1.628959	-0.283613	8
C	-0.998975	-0.329639	-0.320353	6
C	0.250285	0.161451	-0.309853	6
C	0.598505	1.585821	-0.350523	6
C	0.579945	2.372101	0.936697	6
O	1.803695	2.085661	0.250927	8
H	-0.918795	-3.609279	-0.190763	1
H	0.177045	-2.538059	0.696307	1
H	0.222345	-2.610929	-1.105423	1
H	-1.869035	0.317711	-0.361493	1
H	1.101165	-0.511649	-0.271363	1
H	0.273025	2.095001	-1.252643	1
H	0.401935	1.856311	1.871847	1
H	0.216925	3.391402	0.907957	1
Es	-0.322938	-0.076859	-0.661386	99
Es	0.817226	-0.288844	-0.281285	99
Es	0.021856	-2.611649	-0.819615	99
Es	1.989064	2.297758	0.124046	99
Es	0.250343	0.161494	-0.309847	99
Es	-0.999122	-0.329909	-0.320363	99
Es	0.580215	2.372032	0.936524	99
Es	0.337418	1.958953	0.296721	99
Es	-1.367927	-1.540772	-0.430237	99
Es	0.346528	3.066524	0.924258	99
Es	-0.004303	-2.561455	0.403785	99
Es	1.408320	2.254212	0.600269	99
Es	0.467023	2.026340	1.571731	99
Es	1.803303	2.085248	0.251171	99
Es	0.598765	1.585874	-0.350357	99
Es	-1.215257	-1.164500	-0.190621	99
Es	0.432526	0.864274	-0.326635	99
Es	1.400606	1.836504	-0.068962	99
Es	-0.761484	-3.294830	-0.201495	99
Es	-1.019433	-1.978266	-0.272798	99
Es	1.845831	1.896045	0.367551	99
Es	-1.419984	-1.628850	-0.283896	99
Es	-1.585405	0.110965	-0.348972	99
Es	-0.417783	-2.636774	-0.217724	99
Es	0.386228	1.928203	-0.963608	99
Es	-0.337718	-0.058349	0.024940	99
Es	-1.732674	-1.710264	-0.238646	99
