42
Properties=species:S:1:pos:R:3:Z:I:1 energy=-343.75504506028756 field_type=dipole dipole="0.000000 0.000000 0.000000" charge=0
C	-1.753922	-1.281354	-0.830515	6
O	-0.472732	-1.100774	-0.239625	8
C	-0.163763	0.133256	0.305115	6
C	-0.996423	1.191036	0.302205	6
C	1.177998	0.213176	0.922005	6
C	2.372528	0.344796	0.008995	6
O	1.992308	1.399966	0.898195	8
H	-1.816232	-2.313354	-1.188425	1
H	-1.884942	-0.618494	-1.691745	1
H	-2.550512	-1.133434	-0.094205	1
H	-1.985562	1.180186	-0.135045	1
H	-0.680803	2.129276	0.751065	1
H	1.287588	-0.427854	1.790715	1
H	2.211688	0.504336	-1.049725	1
H	3.262787	-0.220764	0.250985	1
Es	1.178121	0.213460	0.921944	99
Es	2.984793	-0.029874	0.174518	99
Es	-0.478329	0.793385	0.011677	99
Es	-1.791086	-1.981322	-1.071589	99
Es	-1.753688	-1.281319	-0.830407	99
Es	-0.787183	1.817671	0.604487	99
Es	-1.846488	-0.822345	-1.413248	99
Es	1.600539	0.993859	0.981696	99
Es	2.223082	1.059149	0.525959	99
Es	2.372416	0.345017	0.009214	99
Es	-2.297843	-1.171864	-0.329995	99
Es	-0.457877	-1.270583	-0.000223	99
Es	1.725019	0.063867	0.382790	99
Es	-0.272613	-1.115697	-0.452320	99
Es	2.172721	1.393849	1.146659	99
Es	-0.163702	0.132929	0.305043	99
Es	-0.395506	-0.612298	-0.040984	99
Es	0.503113	0.185357	0.614935	99
Es	-0.996461	1.191064	0.302200	99
Es	-0.961158	-1.118854	-0.447388	99
Es	1.243645	-0.210001	1.513484	99
Es	-0.473069	-1.100504	-0.239541	99
Es	1.992239	1.399674	0.898063	99
Es	-1.664722	1.177482	0.003846	99
Es	1.848987	1.618302	0.737264	99
Es	2.265059	0.460200	-0.707999	99
Es	-0.737494	0.597955	0.594090	99
42
Properties=species:S:1:pos:R:3:Z:I:1 energy=-343.75504506028756 field_type=dipole dipole="0.000000 0.000000 0.000000" charge=0
C	-1.753922	-1.281354	-0.830515	6
O	-0.472732	-1.100774	-0.239625	8
C	-0.163763	0.133256	0.305115	6
C	-0.996423	1.191036	0.302205	6
C	1.177998	0.213176	0.922005	6
C	2.372528	0.344796	0.008995	6
O	1.992308	1.399966	0.898195	8
H	-1.816232	-2.313354	-1.188425	1
H	-1.884942	-0.618494	-1.691745	1
H	-2.550512	-1.133434	-0.094205	1
H	-1.985562	1.180186	-0.135045	1
H	-0.680803	2.129276	0.751065	1
H	1.287588	-0.427854	1.790715	1
H	2.211688	0.504336	-1.049725	1
H	3.262787	-0.220764	0.250985	1
Es	1.992224	1.399695	0.898051	99
Es	-1.753686	-1.281315	-0.830404	99
Es	-0.996459	1.191069	0.302193	99
Es	1.599984	0.995199	0.984513	99
Es	-0.258112	-1.143391	-0.452479	99
Es	-1.845668	-0.822979	-1.411426	99
Es	-0.787732	1.818219	0.605580	99
Es	0.503190	0.186062	0.614124	99
Es	-0.737021	0.598847	0.594049	99
Es	2.163512	1.381980	1.137045	99
Es	2.372429	0.345022	0.009211	99
Es	1.178122	0.213462	0.921943	99
Es	2.985610	-0.030860	0.173942	99
Es	-0.961622	-1.120752	-0.442560	99
Es	-0.394060	-0.609379	-0.046070	99
Es	1.852557	1.631674	0.743387	99
Es	2.265214	0.460405	-0.705902	99
Es	-0.478993	0.793021	0.009422	99
Es	1.243176	-0.208551	1.512365	99
Es	-0.473131	-1.244037	-0.000150	99
Es	-1.791095	-1.982498	-1.072989	99
Es	1.725331	0.062026	0.380215	99
Es	2.228587	1.057312	0.527391	99
Es	-0.163699	0.132926	0.305038	99
Es	-0.473026	-1.100454	-0.239579	99
Es	-2.298166	-1.170367	-0.329941	99
Es	-1.664951	1.176224	0.007211	99
42
Properties=species:S:1:pos:R:3:Z:I:1 energy=-343.75504506028756 field_type=dipole dipole="0.000000 0.000000 0.000000" charge=0
C	-1.753922	-1.281354	-0.830515	6
O	-0.472732	-1.100774	-0.239625	8
C	-0.163763	0.133256	0.305115	6
C	-0.996423	1.191036	0.302205	6
C	1.177998	0.213176	0.922005	6
C	2.372528	0.344796	0.008995	6
O	1.992308	1.399966	0.898195	8
H	-1.816232	-2.313354	-1.188425	1
H	-1.884942	-0.618494	-1.691745	1
H	-2.550512	-1.133434	-0.094205	1
H	-1.985562	1.180186	-0.135045	1
H	-0.680803	2.129276	0.751065	1
H	1.287588	-0.427854	1.790715	1
H	2.211688	0.504336	-1.049725	1
H	3.262787	-0.220764	0.250985	1
Es	-0.736950	0.599208	0.594477	99
Es	2.986061	-0.031360	0.173500	99
Es	0.503271	0.186435	0.613757	99
Es	-0.961203	-1.121631	-0.442305	99
Es	-2.298103	-1.169818	-0.329856	99
Es	1.725034	0.061260	0.378957	99
Es	-0.163701	0.132925	0.305039	99
Es	-0.787949	1.818786	0.605544	99
Es	-0.472931	-1.100368	-0.239726	99
Es	1.855475	1.642109	0.749216	99
Es	-1.791108	-1.982983	-1.073538	99
Es	-1.845419	-0.823136	-1.410644	99
Es	1.600573	0.995335	0.985990	99
Es	2.232645	1.056410	0.529318	99
Es	2.265309	0.460491	-0.704471	99
Es	-0.390710	-0.606046	-0.054390	99
Es	-0.245222	-1.177150	-0.441275	99
Es	-0.489805	-1.213020	-0.003183	99
Es	2.372423	0.345023	0.009212	99
Es	-0.996463	1.191069	0.302196	99
Es	-1.753687	-1.281315	-0.830408	99
Es	-1.664632	1.175662	0.008343	99
Es	2.155851	1.372987	1.128144	99
Es	1.178127	0.213462	0.921943	99
Es	-0.479487	0.792658	0.008624	99
Es	1.992147	1.399629	0.897941	99
Es	1.242969	-0.208063	1.511771	99
42
Properties=species:S:1:pos:R:3:Z:I:1 energy=-343.75504506028756 field_type=dipole dipole="0.000000 0.000000 0.000000" charge=0
C	-1.753922	-1.281354	-0.830515	6
O	-0.472732	-1.100774	-0.239625	8
C	-0.163763	0.133256	0.305115	6
C	-0.996423	1.191036	0.302205	6
C	1.177998	0.213176	0.922005	6
C	2.372528	0.344796	0.008995	6
O	1.992308	1.399966	0.898195	8
H	-1.816232	-2.313354	-1.188425	1
H	-1.884942	-0.618494	-1.691745	1
H	-2.550512	-1.133434	-0.094205	1
H	-1.985562	1.180186	-0.135045	1
H	-0.680803	2.129276	0.751065	1
H	1.287588	-0.427854	1.790715	1
H	2.211688	0.504336	-1.049725	1
H	3.262787	-0.220764	0.250985	1
Es	-0.498061	-1.197467	-0.008188	99
Es	2.149428	1.365257	1.119246	99
Es	-0.996462	1.191071	0.302195	99
Es	0.503083	0.186527	0.613767	99
Es	1.599785	0.996082	0.987289	99
Es	-2.298100	-1.169287	-0.329902	99
Es	-0.479687	0.792396	0.008140	99
Es	2.372423	0.345021	0.009212	99
Es	-1.791143	-1.983344	-1.073681	99
Es	-1.845137	-0.823357	-1.410294	99
Es	2.235022	1.055626	0.530666	99
Es	1.724685	0.060774	0.378096	99
Es	2.265452	0.460571	-0.703539	99
Es	-0.239570	-1.194660	-0.432844	99
Es	-0.787974	1.819046	0.605238	99
Es	2.986318	-0.031612	0.173245	99
Es	1.243057	-0.207818	1.511355	99
Es	1.992217	1.399655	0.898038	99
Es	-1.664522	1.175434	0.009014	99
Es	-0.736957	0.599500	0.594995	99
Es	-0.163700	0.132928	0.305037	99
Es	1.178131	0.213460	0.921945	99
Es	-1.753692	-1.281318	-0.830407	99
Es	1.860161	1.650233	0.755452	99
Es	-0.960365	-1.121069	-0.443352	99
Es	-0.388939	-0.604695	-0.056848	99
Es	-0.472935	-1.100395	-0.239699	99
42
Properties=species:S:1:pos:R:3:Z:I:1 energy=-343.75504506028756 field_type=dipole dipole="0.000000 0.000000 0.000000" charge=0
C	-1.753922	-1.281354	-0.830515	6
O	-0.472732	-1.100774	-0.239625	8
C	-0.163763	0.133256	0.305115	6
C	-0.996423	1.191036	0.302205	6
C	1.177998	0.213176	0.922005	6
C	2.372528	0.344796	0.008995	6
O	1.992308	1.399966	0.898195	8
H	-1.816232	-2.313354	-1.188425	1
H	-1.884942	-0.618494	-1.691745	1
H	-2.550512	-1.133434	-0.094205	1
H	-1.985562	1.180186	-0.135045	1
H	-0.680803	2.129276	0.751065	1
H	1.287588	-0.427854	1.790715	1
H	2.211688	0.504336	-1.049725	1
H	3.262787	-0.220764	0.250985	1
Es	-0.788237	1.819220	0.605200	99
Es	2.146933	1.362575	1.114976	99
Es	2.235950	1.055801	0.530827	99
Es	-1.844973	-0.823307	-1.410315	99
Es	-0.961043	-1.123175	-0.441515	99
Es	-1.664225	1.175261	0.009494	99
Es	1.178125	0.213459	0.921945	99
Es	0.503107	0.186655	0.613759	99
Es	2.986261	-0.031733	0.173281	99
Es	2.372424	0.345017	0.009213	99
Es	-0.479732	0.792642	0.007511	99
Es	-0.996464	1.191068	0.302200	99
Es	-0.472953	-1.100440	-0.239654	99
Es	-2.298113	-1.169221	-0.329831	99
Es	-0.386688	-0.602561	-0.066355	99
Es	-0.505269	-1.173732	-0.014374	99
Es	-0.736969	0.599334	0.595330	99
Es	1.600774	0.995479	0.988283	99
Es	1.242907	-0.207632	1.511389	99
Es	-0.233978	-1.218534	-0.418945	99
Es	-1.791058	-1.983404	-1.073665	99
Es	2.265596	0.460620	-0.703383	99
Es	-0.163700	0.132932	0.305038	99
Es	1.860774	1.653429	0.758572	99
Es	1.724592	0.060476	0.377646	99
Es	1.992161	1.399647	0.897958	99
Es	-1.753688	-1.281317	-0.830406	99
42
Properties=species:S:1:pos:R:3:Z:I:1 energy=-343.75504506028756 field_type=dipole dipole="0.000000 0.000000 0.000000" charge=0
C	-1.753922	-1.281354	-0.830515	6
O	-0.472732	-1.100774	-0.239625	8
C	-0.163763	0.133256	0.305115	6
C	-0.996423	1.191036	0.302205	6
C	1.177998	0.213176	0.922005	6
C	2.372528	0.344796	0.008995	6
O	1.992308	1.399966	0.898195	8
H	-1.816232	-2.313354	-1.188425	1
H	-1.884942	-0.618494	-1.691745	1
H	-2.550512	-1.133434	-0.094205	1
H	-1.985562	1.180186	-0.135045	1
H	-0.680803	2.129276	0.751065	1
H	1.287588	-0.427854	1.790715	1
H	2.211688	0.504336	-1.049725	1
H	3.262787	-0.220764	0.250985	1
Es	0.502940	0.186647	0.613814	99
Es	1.861518	1.656133	0.760932	99
Es	2.237727	1.055825	0.531888	99
Es	-1.664073	1.175168	0.009659	99
Es	2.265491	0.460628	-0.702784	99
Es	1.242938	-0.207566	1.511203	99
Es	1.992179	1.399681	0.897985	99
Es	-1.844913	-0.823402	-1.410131	99
Es	-1.790950	-1.983531	-1.073777	99
Es	-0.163698	0.132930	0.305031	99
Es	2.372424	0.345020	0.009210	99
Es	-0.962245	-1.124598	-0.438739	99
Es	2.986513	-0.031936	0.173023	99
Es	-2.298127	-1.169076	-0.329754	99
Es	-0.387500	-0.602693	-0.065241	99
Es	-0.233087	-1.220021	-0.419006	99
Es	-0.996462	1.191069	0.302195	99
Es	-0.504188	-1.170786	-0.018294	99
Es	1.601417	0.994974	0.989244	99
Es	-0.479794	0.792639	0.007267	99
Es	2.143619	1.360473	1.110616	99
Es	1.178127	0.213454	0.921942	99
Es	1.724521	0.060442	0.377253	99
Es	-0.737002	0.599379	0.595678	99
Es	-0.472873	-1.100366	-0.239603	99
Es	-0.788297	1.819391	0.604971	99
Es	-1.753688	-1.281318	-0.830405	99
42
Properties=species:S:1:pos:R:3:Z:I:1 energy=-343.75504506028756 field_type=dipole dipole="0.000000 0.000000 0.000000" charge=0
C	-1.753922	-1.281354	-0.830515	6
O	-0.472732	-1.100774	-0.239625	8
C	-0.163763	0.133256	0.305115	6
C	-0.996423	1.191036	0.302205	6
C	1.177998	0.213176	0.922005	6
C	2.372528	0.344796	0.008995	6
O	1.992308	1.399966	0.898195	8
H	-1.816232	-2.313354	-1.188425	1
H	-1.884942	-0.618494	-1.691745	1
H	-2.550512	-1.133434	-0.094205	1
H	-1.985562	1.180186	-0.135045	1
H	-0.680803	2.129276	0.751065	1
H	1.287588	-0.427854	1.790715	1
H	2.211688	0.504336	-1.049725	1
H	3.262787	-0.220764	0.250985	1
Es	2.265466	0.460648	-0.702538	99
Es	-0.479873	0.792788	0.007067	99
Es	1.242943	-0.207512	1.511131	99
Es	-0.506595	-1.165094	-0.020403	99
Es	-1.753693	-1.281319	-0.830408	99
Es	1.992204	1.399644	0.898012	99
Es	-0.961804	-1.124104	-0.439275	99
Es	0.502961	0.186757	0.613816	99
Es	-0.163699	0.132933	0.305032	99
Es	-0.386455	-0.602147	-0.067177	99
Es	-1.844730	-0.823525	-1.410100	99
Es	-1.790953	-1.983589	-1.073764	99
Es	2.140232	1.356492	1.105329	99
Es	2.372426	0.345024	0.009210	99
Es	-0.996462	1.191071	0.302193	99
Es	2.238215	1.054863	0.532157	99
Es	-0.472878	-1.100198	-0.239938	99
Es	-1.663992	1.175010	0.009916	99
Es	1.724575	0.060463	0.377053	99
Es	1.601142	0.995667	0.989995	99
Es	-2.298219	-1.168865	-0.329805	99
Es	-0.736937	0.599273	0.595673	99
Es	1.864526	1.660306	0.765178	99
Es	2.986640	-0.031969	0.172912	99
Es	-0.788494	1.819438	0.605019	99
Es	-0.232154	-1.226956	-0.414050	99
Es	1.178123	0.213460	0.921944	99
42
Properties=species:S:1:pos:R:3:Z:I:1 energy=-343.75504506028756 field_type=dipole dipole="0.000000 0.000000 0.000000" charge=0
C	-1.753922	-1.281354	-0.830515	6
O	-0.472732	-1.100774	-0.239625	8
C	-0.163763	0.133256	0.305115	6
C	-0.996423	1.191036	0.302205	6
C	1.177998	0.213176	0.922005	6
C	2.372528	0.344796	0.008995	6
O	1.992308	1.399966	0.898195	8
H	-1.816232	-2.313354	-1.188425	1
H	-1.884942	-0.618494	-1.691745	1
H	-2.550512	-1.133434	-0.094205	1
H	-1.985562	1.180186	-0.135045	1
H	-0.680803	2.129276	0.751065	1
H	1.287588	-0.427854	1.790715	1
H	2.211688	0.504336	-1.049725	1
H	3.262787	-0.220764	0.250985	1
Es	-0.962177	-1.124878	-0.437858	99
Es	2.238984	1.054836	0.532503	99
Es	0.502848	0.186746	0.613755	99
Es	-0.472875	-1.100214	-0.239753	99
Es	-0.506806	-1.161462	-0.022215	99
Es	-1.790892	-1.983615	-1.073854	99
Es	-0.996466	1.191070	0.302200	99
Es	2.139184	1.356528	1.103840	99
Es	-1.753695	-1.281320	-0.830409	99
Es	1.864090	1.660583	0.765502	99
Es	1.242925	-0.207344	1.510993	99
Es	1.992205	1.399672	0.898022	99
Es	-0.231708	-1.230227	-0.412339	99
Es	-0.788441	1.819503	0.604932	99
Es	-2.298196	-1.168853	-0.329689	99
Es	1.601780	0.995534	0.990771	99
Es	1.178127	0.213468	0.921947	99
Es	-0.479967	0.792679	0.006747	99
Es	-1.844715	-0.823500	-1.409990	99
Es	2.986730	-0.032048	0.172853	99
Es	-1.663838	1.175079	0.010176	99
Es	2.265467	0.460582	-0.702230	99
Es	-0.163697	0.132925	0.305027	99
Es	1.724595	0.060256	0.376829	99
Es	2.372420	0.345029	0.009209	99
Es	-0.386330	-0.601786	-0.068723	99
Es	-0.737037	0.599314	0.595932	99
42
Properties=species:S:1:pos:R:3:Z:I:1 energy=-343.75504506028756 field_type=dipole dipole="0.000000 0.000000 0.000000" charge=0
C	-1.753922	-1.281354	-0.830515	6
O	-0.472732	-1.100774	-0.239625	8
C	-0.163763	0.133256	0.305115	6
C	-0.996423	1.191036	0.302205	6
C	1.177998	0.213176	0.922005	6
C	2.372528	0.344796	0.008995	6
O	1.992308	1.399966	0.898195	8
H	-1.816232	-2.313354	-1.188425	1
H	-1.884942	-0.618494	-1.691745	1
H	-2.550512	-1.133434	-0.094205	1
H	-1.985562	1.180186	-0.135045	1
H	-0.680803	2.129276	0.751065	1
H	1.287588	-0.427854	1.790715	1
H	2.211688	0.504336	-1.049725	1
H	3.262787	-0.220764	0.250985	1
Es	-0.961825	-1.124441	-0.439390	99
Es	-1.844639	-0.823642	-1.409988	99
Es	-1.790793	-1.983563	-1.073866	99
Es	1.992269	1.399611	0.898102	99
Es	-0.230872	-1.237245	-0.406200	99
Es	1.724712	0.060085	0.376649	99
Es	-0.472902	-1.100325	-0.239707	99
Es	2.135963	1.353400	1.100592	99
Es	-0.384747	-0.601298	-0.071862	99
Es	1.600694	0.996155	0.989634	99
Es	-2.298329	-1.168823	-0.329652	99
Es	1.242778	-0.207222	1.511077	99
Es	1.178124	0.213460	0.921944	99
Es	2.372423	0.345018	0.009211	99
Es	-1.663657	1.175037	0.010245	99
Es	2.240057	1.054378	0.533377	99
Es	-1.753693	-1.281319	-0.830408	99
Es	2.265503	0.460706	-0.702365	99
Es	2.986714	-0.032014	0.172856	99
Es	-0.163698	0.132928	0.305032	99
Es	-0.737144	0.599262	0.596184	99
Es	0.502940	0.186913	0.613705	99
Es	-0.479874	0.792740	0.006485	99
Es	-0.788681	1.819507	0.604994	99
Es	-0.996462	1.191067	0.302199	99
Es	1.867153	1.663398	0.769034	99
Es	-0.509499	-1.155216	-0.023704	99
42
Properties=species:S:1:pos:R:3:Z:I:1 energy=-343.75504506028756 field_type=dipole dipole="0.000000 0.000000 0.000000" charge=0
C	-1.753922	-1.281354	-0.830515	6
O	-0.472732	-1.100774	-0.239625	8
C	-0.163763	0.133256	0.305115	6
C	-0.996423	1.191036	0.302205	6
C	1.177998	0.213176	0.922005	6
C	2.372528	0.344796	0.008995	6
O	1.992308	1.399966	0.898195	8
H	-1.816232	-2.313354	-1.188425	1
H	-1.884942	-0.618494	-1.691745	1
H	-2.550512	-1.133434	-0.094205	1
H	-1.985562	1.180186	-0.135045	1
H	-0.680803	2.129276	0.751065	1
H	1.287588	-0.427854	1.790715	1
H	2.211688	0.504336	-1.049725	1
H	3.262787	-0.220764	0.250985	1
Es	1.992200	1.399663	0.898019	99
Es	-0.163698	0.132929	0.305034	99
Es	-1.790822	-1.983687	-1.073994	99
Es	1.601563	0.995795	0.990659	99
Es	1.178128	0.213460	0.921945	99
Es	-1.753693	-1.281319	-0.830408	99
Es	1.866844	1.664086	0.768720	99
Es	-0.737104	0.599431	0.596158	99
Es	-0.479958	0.792610	0.006661	99
Es	2.265520	0.460628	-0.701960	99
Es	2.134412	1.353507	1.098497	99
Es	-2.298181	-1.168839	-0.329679	99
Es	-1.663748	1.174921	0.010188	99
Es	-0.507530	-1.158013	-0.024960	99
Es	-0.386312	-0.601693	-0.068532	99
Es	1.242924	-0.207222	1.510862	99
Es	-0.996462	1.191069	0.302195	99
Es	2.986760	-0.032238	0.172815	99
Es	-0.472951	-1.100393	-0.239692	99
Es	-1.844692	-0.823516	-1.409809	99
Es	-0.230970	-1.233787	-0.410717	99
Es	2.241260	1.054141	0.534717	99
Es	0.502831	0.186847	0.613926	99
Es	1.724456	0.060153	0.376465	99
Es	-0.962094	-1.124622	-0.436942	99
Es	-0.788591	1.819633	0.604799	99
Es	2.372425	0.345016	0.009210	99
42
Properties=species:S:1:pos:R:3:Z:I:1 energy=-343.75504506028756 field_type=dipole dipole="0.000000 0.000000 0.000000" charge=0
C	-1.753922	-1.281354	-0.830515	6
O	-0.472732	-1.100774	-0.239625	8
C	-0.163763	0.133256	0.305115	6
C	-0.996423	1.191036	0.302205	6
C	1.177998	0.213176	0.922005	6
C	2.372528	0.344796	0.008995	6
O	1.992308	1.399966	0.898195	8
H	-1.816232	-2.313354	-1.188425	1
H	-1.884942	-0.618494	-1.691745	1
H	-2.550512	-1.133434	-0.094205	1
H	-1.985562	1.180186	-0.135045	1
H	-0.680803	2.129276	0.751065	1
H	1.287588	-0.427854	1.790715	1
H	2.211688	0.504336	-1.049725	1
H	3.262787	-0.220764	0.250985	1
Es	2.265440	0.460669	-0.701987	99
Es	2.241037	1.054674	0.533532	99
Es	-0.962223	-1.125267	-0.436844	99
Es	1.866276	1.663707	0.769462	99
Es	-0.996457	1.191075	0.302192	99
Es	-1.753692	-1.281319	-0.830408	99
Es	-0.229946	-1.242265	-0.403579	99
Es	-0.509621	-1.149704	-0.027957	99
Es	-1.790767	-1.983647	-1.073896	99
Es	0.502861	0.186873	0.613714	99
Es	2.986771	-0.032197	0.172698	99
Es	-0.788778	1.819551	0.604787	99
Es	1.242792	-0.207140	1.510991	99
Es	1.601805	0.995351	0.991678	99
Es	-1.663662	1.174881	0.010613	99
Es	1.724577	0.060112	0.376479	99
Es	-0.479861	0.792779	0.006190	99
Es	-2.298172	-1.168904	-0.329588	99
Es	-1.844679	-0.823431	-1.409956	99
Es	1.178122	0.213454	0.921940	99
Es	1.992213	1.399719	0.898040	99
Es	2.372425	0.345014	0.009209	99
Es	-0.472917	-1.100347	-0.239730	99
Es	2.134879	1.353625	1.097908	99
Es	-0.163700	0.132928	0.305036	99
Es	-0.385173	-0.601025	-0.072818	99
Es	-0.737034	0.599393	0.596474	99
42
Properties=species:S:1:pos:R:3:Z:I:1 energy=-343.75504506028756 field_type=dipole dipole="0.000000 0.000000 0.000000" charge=0
C	-1.753922	-1.281354	-0.830515	6
O	-0.472732	-1.100774	-0.239625	8
C	-0.163763	0.133256	0.305115	6
C	-0.996423	1.191036	0.302205	6
C	1.177998	0.213176	0.922005	6
C	2.372528	0.344796	0.008995	6
O	1.992308	1.399966	0.898195	8
H	-1.816232	-2.313354	-1.188425	1
H	-1.884942	-0.618494	-1.691745	1
H	-2.550512	-1.133434	-0.094205	1
H	-1.985562	1.180186	-0.135045	1
H	-0.680803	2.129276	0.751065	1
H	1.287588	-0.427854	1.790715	1
H	2.211688	0.504336	-1.049725	1
H	3.262787	-0.220764	0.250985	1
Es	-1.663876	1.174897	0.010523	99
Es	-0.229604	-1.241641	-0.403914	99
Es	2.241392	1.054448	0.533989	99
Es	-0.385682	-0.601129	-0.072481	99
Es	-0.996463	1.191072	0.302190	99
Es	-1.790731	-1.983655	-1.073902	99
Es	0.502871	0.186880	0.613724	99
Es	2.132043	1.350540	1.094283	99
Es	-0.510036	-1.150645	-0.027065	99
Es	-0.788634	1.819486	0.604879	99
Es	1.868705	1.666700	0.773378	99
Es	1.242819	-0.207147	1.510963	99
Es	-0.163700	0.132928	0.305035	99
Es	-0.479895	0.792656	0.006372	99
Es	2.372423	0.345017	0.009212	99
Es	2.986819	-0.032182	0.172788	99
Es	2.265543	0.460721	-0.701982	99
Es	1.601686	0.995666	0.991001	99
Es	-1.753696	-1.281320	-0.830410	99
Es	1.724613	0.060075	0.376369	99
Es	-0.472904	-1.100324	-0.239749	99
Es	-0.737018	0.599532	0.596223	99
Es	1.992236	1.399686	0.898033	99
Es	-0.961638	-1.124789	-0.437703	99
Es	-1.844700	-0.823466	-1.409931	99
Es	-2.298182	-1.168905	-0.329588	99
Es	1.178123	0.213459	0.921943	99
42
Properties=species:S:1:pos:R:3:Z:I:1 energy=-343.75504506028756 field_type=dipole dipole="0.000000 0.000000 0.000000" charge=0
C	-1.753922	-1.281354	-0.830515	6
O	-0.472732	-1.100774	-0.239625	8
C	-0.163763	0.133256	0.305115	6
C	-0.996423	1.191036	0.302205	6
C	1.177998	0.213176	0.922005	6
C	2.372528	0.344796	0.008995	6
O	1.992308	1.399966	0.898195	8
H	-1.816232	-2.313354	-1.188425	1
H	-1.884942	-0.618494	-1.691745	1
H	-2.550512	-1.133434	-0.094205	1
H	-1.985562	1.180186	-0.135045	1
H	-0.680803	2.129276	0.751065	1
H	1.287588	-0.427854	1.790715	1
H	2.211688	0.504336	-1.049725	1
H	3.262787	-0.220764	0.250985	1
Es	-1.844549	-0.823521	-1.409996	99
Es	2.372425	0.345016	0.009210	99
Es	-2.298210	-1.168733	-0.329591	99
Es	-0.229677	-1.243553	-0.403075	99
Es	-0.509440	-1.148283	-0.030491	99
Es	1.602216	0.994982	0.991324	99
Es	-0.385062	-0.601243	-0.071794	99
Es	2.265453	0.460680	-0.701915	99
Es	1.992384	1.399721	0.898274	99
Es	-0.962804	-1.125309	-0.435844	99
Es	-0.472874	-1.100264	-0.239647	99
Es	2.242080	1.054838	0.534266	99
Es	-0.737161	0.599262	0.596426	99
Es	1.242827	-0.207116	1.510976	99
Es	-0.163703	0.132923	0.305044	99
Es	-0.788809	1.819537	0.604847	99
Es	-0.479880	0.792887	0.006028	99
Es	-1.753690	-1.281318	-0.830407	99
Es	-1.663560	1.174963	0.010565	99
Es	2.131767	1.351213	1.093954	99
Es	1.867715	1.666250	0.772743	99
Es	-0.996462	1.191071	0.302196	99
Es	1.178124	0.213460	0.921943	99
Es	-1.790739	-1.983719	-1.073795	99
Es	0.502766	0.186979	0.613956	99
Es	1.724556	0.060160	0.376235	99
Es	2.986822	-0.032326	0.172749	99
42
Properties=species:S:1:pos:R:3:Z:I:1 energy=-343.75504506028756 field_type=dipole dipole="0.000000 0.000000 0.000000" charge=0
C	-1.753922	-1.281354	-0.830515	6
O	-0.472732	-1.100774	-0.239625	8
C	-0.163763	0.133256	0.305115	6
C	-0.996423	1.191036	0.302205	6
C	1.177998	0.213176	0.922005	6
C	2.372528	0.344796	0.008995	6
O	1.992308	1.399966	0.898195	8
H	-1.816232	-2.313354	-1.188425	1
H	-1.884942	-0.618494	-1.691745	1
H	-2.550512	-1.133434	-0.094205	1
H	-1.985562	1.180186	-0.135045	1
H	-0.680803	2.129276	0.751065	1
H	1.287588	-0.427854	1.790715	1
H	2.211688	0.504336	-1.049725	1
H	3.262787	-0.220764	0.250985	1
Es	1.602063	0.995118	0.992715	99
Es	2.241279	1.054477	0.533896	99
Es	-0.163697	0.132934	0.305031	99
Es	-1.790722	-1.983669	-1.073765	99
Es	2.986885	-0.032273	0.172723	99
Es	-1.844462	-0.823618	-1.410045	99
Es	-0.962221	-1.125553	-0.436515	99
Es	-0.737142	0.599443	0.596529	99
Es	2.265540	0.460790	-0.701848	99
Es	1.868555	1.666840	0.773541	99
Es	-0.472940	-1.100408	-0.239669	99
Es	-1.663659	1.174917	0.010710	99
Es	-0.510470	-1.145388	-0.031127	99
Es	1.178126	0.213465	0.921943	99
Es	1.992233	1.399684	0.898044	99
Es	-0.229251	-1.246581	-0.400059	99
Es	2.131775	1.350759	1.092585	99
Es	-0.479878	0.792725	0.005987	99
Es	-0.384943	-0.600721	-0.073471	99
Es	1.724702	0.060086	0.376056	99
Es	1.242750	-0.207104	1.510952	99
Es	-1.753693	-1.281319	-0.830409	99
Es	-0.788793	1.819507	0.604802	99
Es	-2.298306	-1.168671	-0.329599	99
Es	2.372424	0.345018	0.009212	99
Es	-0.996465	1.191071	0.302198	99
Es	0.502826	0.187031	0.613763	99
42
Properties=species:S:1:pos:R:3:Z:I:1 energy=-343.75504506028756 field_type=dipole dipole="0.000000 0.000000 0.000000" charge=0
C	-1.753922	-1.281354	-0.830515	6
O	-0.472732	-1.100774	-0.239625	8
C	-0.163763	0.133256	0.305115	6
C	-0.996423	1.191036	0.302205	6
C	1.177998	0.213176	0.922005	6
C	2.372528	0.344796	0.008995	6
O	1.992308	1.399966	0.898195	8
H	-1.816232	-2.313354	-1.188425	1
H	-1.884942	-0.618494	-1.691745	1
H	-2.550512	-1.133434	-0.094205	1
H	-1.985562	1.180186	-0.135045	1
H	-0.680803	2.129276	0.751065	1
H	1.287588	-0.427854	1.790715	1
H	2.211688	0.504336	-1.049725	1
H	3.262787	-0.220764	0.250985	1
Es	-0.788937	1.819509	0.604834	99
Es	1.242699	-0.207135	1.511133	99
Es	-1.844547	-0.823441	-1.410094	99
Es	-2.298333	-1.168978	-0.329457	99
Es	-1.663403	1.174979	0.010860	99
Es	-0.737289	0.599387	0.596887	99
Es	1.724645	0.060041	0.376093	99
Es	-0.479711	0.792795	0.005594	99
Es	1.601668	0.995576	0.992219	99
Es	2.265571	0.460743	-0.702121	99
Es	2.131845	1.351251	1.093448	99
Es	-0.962716	-1.126220	-0.435458	99
Es	1.178125	0.213453	0.921940	99
Es	1.868475	1.666213	0.772950	99
Es	-1.753690	-1.281318	-0.830407	99
Es	-1.790569	-1.983518	-1.073835	99
Es	0.502836	0.187024	0.613720	99
Es	-0.163700	0.132928	0.305035	99
Es	2.986772	-0.032155	0.172843	99
Es	-0.384443	-0.600491	-0.075632	99
Es	1.992169	1.399645	0.897967	99
Es	2.372423	0.345017	0.009210	99
Es	-0.228651	-1.251803	-0.395574	99
Es	2.241782	1.054167	0.534042	99
Es	-0.511139	-1.139832	-0.034493	99
Es	-0.996454	1.191072	0.302184	99
Es	-0.472912	-1.100348	-0.239712	99
42
Properties=species:S:1:pos:R:3:Z:I:1 energy=-343.75504506028756 field_type=dipole dipole="0.000000 0.000000 0.000000" charge=0
C	-1.753922	-1.281354	-0.830515	6
O	-0.472732	-1.100774	-0.239625	8
C	-0.163763	0.133256	0.305115	6
C	-0.996423	1.191036	0.302205	6
C	1.177998	0.213176	0.922005	6
C	2.372528	0.344796	0.008995	6
O	1.992308	1.399966	0.898195	8
H	-1.816232	-2.313354	-1.188425	1
H	-1.884942	-0.618494	-1.691745	1
H	-2.550512	-1.133434	-0.094205	1
H	-1.985562	1.180186	-0.135045	1
H	-0.680803	2.129276	0.751065	1
H	1.287588	-0.427854	1.790715	1
H	2.211688	0.504336	-1.049725	1
H	3.262787	-0.220764	0.250985	1
Es	2.121778	1.341554	1.079733	99
Es	1.727687	0.055732	0.375636	99
Es	-0.473122	-1.100486	-0.239378	99
Es	-0.163699	0.132933	0.305035	99
Es	1.178128	0.213460	0.921942	99
Es	-0.790407	1.817241	0.609468	99
Es	2.988050	-0.031514	0.171056	99
Es	2.244196	1.054368	0.530559	99
Es	1.241667	-0.202445	1.508305	99
Es	-0.968127	-1.136888	-0.398344	99
Es	0.502908	0.188891	0.612459	99
Es	-0.334800	-1.348901	-0.101147	99
Es	-1.753693	-1.281319	-0.830408	99
Es	2.264911	0.460870	-0.700161	99
Es	-0.376910	-1.002265	-0.442308	99
Es	-0.734741	0.603580	0.593010	99
Es	1.992171	1.399692	0.897982	99
Es	-1.666001	1.172184	0.016405	99
Es	1.596445	0.999110	0.992372	99
Es	-0.996466	1.191067	0.302204	99
Es	2.372426	0.345020	0.009209	99
Es	-0.406001	-0.629479	-0.001226	99
Es	-1.789860	-1.982524	-1.076376	99
Es	-1.842832	-0.826952	-1.407070	99
Es	-0.479909	0.791320	0.003657	99
Es	-2.301200	-1.166673	-0.329523	99
Es	1.879918	1.670985	0.791083	99
42
Properties=species:S:1:pos:R:3:Z:I:1 energy=-343.75504506028756 field_type=dipole dipole="0.000000 0.000000 0.000000" charge=0
C	-1.753922	-1.281354	-0.830515	6
O	-0.472732	-1.100774	-0.239625	8
C	-0.163763	0.133256	0.305115	6
C	-0.996423	1.191036	0.302205	6
C	1.177998	0.213176	0.922005	6
C	2.372528	0.344796	0.008995	6
O	1.992308	1.399966	0.898195	8
H	-1.816232	-2.313354	-1.188425	1
H	-1.884942	-0.618494	-1.691745	1
H	-2.550512	-1.133434	-0.094205	1
H	-1.985562	1.180186	-0.135045	1
H	-0.680803	2.129276	0.751065	1
H	1.287588	-0.427854	1.790715	1
H	2.211688	0.504336	-1.049725	1
H	3.262787	-0.220764	0.250985	1
Es	-0.472940	-1.100398	-0.239716	99
Es	2.242946	1.054031	0.535144	99
Es	1.178123	0.213468	0.921946	99
Es	2.986937	-0.032174	0.172660	99
Es	2.265505	0.460690	-0.701704	99
Es	-0.479685	0.792910	0.005682	99
Es	-2.298280	-1.168795	-0.329497	99
Es	-1.753692	-1.281319	-0.830408	99
Es	-0.163699	0.132929	0.305035	99
Es	1.724682	0.059675	0.376132	99
Es	2.130203	1.351026	1.091579	99
Es	-0.961962	-1.125801	-0.435752	99
Es	1.992193	1.399703	0.898007	99
Es	-1.663507	1.174825	0.010847	99
Es	0.502710	0.187044	0.613707	99
Es	-0.737163	0.599418	0.596738	99
Es	1.242590	-0.206841	1.510896	99
Es	1.602296	0.995357	0.992664	99
Es	-1.790611	-1.983662	-1.073883	99
Es	-0.511157	-1.141591	-0.032771	99
Es	1.868379	1.666867	0.773155	99
Es	-0.228935	-1.250549	-0.397153	99
Es	-0.789040	1.819509	0.604926	99
Es	-0.996464	1.191069	0.302199	99
Es	-1.844514	-0.823522	-1.409944	99
Es	-0.384822	-0.600328	-0.075522	99
Es	2.372425	0.345016	0.009210	99
42
Properties=species:S:1:pos:R:3:Z:I:1 energy=-343.75504506028756 field_type=dipole dipole="0.000000 0.000000 0.000000" charge=0
C	-1.753922	-1.281354	-0.830515	6
O	-0.472732	-1.100774	-0.239625	8
C	-0.163763	0.133256	0.305115	6
C	-0.996423	1.191036	0.302205	6
C	1.177998	0.213176	0.922005	6
C	2.372528	0.344796	0.008995	6
O	1.992308	1.399966	0.898195	8
H	-1.816232	-2.313354	-1.188425	1
H	-1.884942	-0.618494	-1.691745	1
H	-2.550512	-1.133434	-0.094205	1
H	-1.985562	1.180186	-0.135045	1
H	-0.680803	2.129276	0.751065	1
H	1.287588	-0.427854	1.790715	1
H	2.211688	0.504336	-1.049725	1
H	3.262787	-0.220764	0.250985	1
Es	2.986882	-0.032302	0.172690	99
Es	1.602561	0.995026	0.992952	99
Es	-0.228672	-1.252346	-0.395174	99
Es	1.992141	1.399644	0.897932	99
Es	-1.753692	-1.281319	-0.830408	99
Es	2.242666	1.054434	0.534500	99
Es	2.130092	1.350521	1.090731	99
Es	2.265506	0.460724	-0.701769	99
Es	1.242664	-0.207045	1.511032	99
Es	1.868498	1.667293	0.774499	99
Es	1.178123	0.213460	0.921948	99
Es	-0.788977	1.819561	0.604775	99
Es	0.502841	0.187163	0.613840	99
Es	-1.663548	1.174762	0.011076	99
Es	1.724606	0.059940	0.375834	99
Es	-0.962553	-1.126301	-0.435431	99
Es	-0.479809	0.792783	0.005600	99
Es	-1.844382	-0.823644	-1.409915	99
Es	-0.737129	0.599540	0.596770	99
Es	-2.298410	-1.168684	-0.329485	99
Es	-0.473005	-1.100426	-0.239571	99
Es	-1.790566	-1.983629	-1.073924	99
Es	-0.384441	-0.600359	-0.076838	99
Es	-0.996464	1.191069	0.302199	99
Es	-0.511141	-1.139252	-0.033926	99
Es	2.372423	0.345021	0.009211	99
Es	-0.163698	0.132927	0.305031	99
