47
Properties=species:S:1:pos:R:3:Z:I:1 energy=-309.1370348523235 field_type=dipole dipole="0.000000 0.000000 0.000000" charge=0
C	-0.091544	-1.811775	1.704115	6
O	-0.768193	-0.561235	1.673605	8
C	-0.982813	-0.077395	0.345285	6
C	-2.094293	0.964955	0.416195	6
C	0.285956	0.551005	-0.161695	6
C	0.920197	0.179995	-1.286095	6
C	2.189647	0.800695	-1.770565	6
H	-0.006123	-2.128075	2.747475	1
H	0.916717	-1.723795	1.288975	1
H	-0.659994	-2.571095	1.158095	1
H	-1.318023	-0.897475	-0.301735	1
H	-1.837693	1.776505	1.107465	1
H	-3.014813	0.510445	0.799335	1
H	-2.305263	1.397095	-0.567705	1
H	0.700407	1.347165	0.455225	1
H	0.512496	-0.621775	-1.897765	1
H	2.528946	1.612175	-1.119345	1
H	2.044926	1.207625	-2.775725	1
H	2.979466	0.044955	-1.815145	1
Es	-0.091656	-1.811583	1.704107	99
Es	-1.534179	0.451806	0.377533	99
Es	-0.828738	-0.409420	1.155820	99
Es	-0.033580	-2.028473	2.414654	99
Es	-0.505003	-1.036722	1.647410	99
Es	0.646352	-0.367161	-1.707403	99
Es	-1.910213	1.516045	0.880279	99
Es	-0.768084	-0.561405	1.673380	99
Es	-0.982764	-0.077419	0.345492	99
Es	1.554325	0.494335	-1.526734	99
Es	-1.049038	-0.618174	1.786774	99
Es	-2.718801	0.650889	0.670798	99
Es	2.085672	1.071618	-2.449713	99
Es	-0.338470	0.235913	0.078736	99
Es	0.285902	0.551021	-0.161618	99
Es	0.560935	1.092612	0.260356	99
Es	-0.480506	-2.335299	1.320508	99
Es	0.773635	0.144077	-0.550431	99
Es	-2.094276	0.964941	0.416184	99
Es	0.920274	0.179977	-1.286201	99
Es	-1.205200	-0.646351	-0.104806	99
Es	2.415412	1.350491	-1.324575	99
Es	0.598057	-1.756933	1.414253	99
Es	2.716838	0.284629	-1.799566	99
Es	0.418012	0.586028	-0.891872	99
Es	-2.231177	1.253236	-0.257320	99
Es	2.189613	0.800673	-1.770559	99
Es	-0.579954	-0.357783	1.802455	99
47
Properties=species:S:1:pos:R:3:Z:I:1 energy=-309.1370348523235 field_type=dipole dipole="0.000000 0.000000 0.000000" charge=0
C	-0.091544	-1.811775	1.704115	6
O	-0.768193	-0.561235	1.673605	8
C	-0.982813	-0.077395	0.345285	6
C	-2.094293	0.964955	0.416195	6
C	0.285956	0.551005	-0.161695	6
C	0.920197	0.179995	-1.286095	6
C	2.189647	0.800695	-1.770565	6
H	-0.006123	-2.128075	2.747475	1
H	0.916717	-1.723795	1.288975	1
H	-0.659994	-2.571095	1.158095	1
H	-1.318023	-0.897475	-0.301735	1
H	-1.837693	1.776505	1.107465	1
H	-3.014813	0.510445	0.799335	1
H	-2.305263	1.397095	-0.567705	1
H	0.700407	1.347165	0.455225	1
H	0.512496	-0.621775	-1.897765	1
H	2.528946	1.612175	-1.119345	1
H	2.044926	1.207625	-2.775725	1
H	2.979466	0.044955	-1.815145	1
Es	-0.982763	-0.077419	0.345491	99
Es	0.285899	0.551021	-0.161615	99
Es	0.417501	0.586878	-0.892489	99
Es	2.189614	0.800673	-1.770559	99
Es	-0.581652	-0.362055	1.799274	99
Es	2.085750	1.071409	-2.450431	99
Es	1.554219	0.494112	-1.527270	99
Es	-2.094275	0.964941	0.416183	99
Es	-0.338119	0.235949	0.079128	99
Es	-0.768175	-0.561520	1.673259	99
Es	-0.033861	-2.029360	2.415563	99
Es	0.774381	0.143222	-0.549668	99
Es	-0.480094	-2.334031	1.320582	99
Es	0.646351	-0.366849	-1.707622	99
Es	0.560791	1.092348	0.260608	99
Es	-0.503000	-1.034922	1.648241	99
Es	2.716278	0.284623	-1.799126	99
Es	-1.052679	-0.617425	1.790234	99
Es	-0.825454	-0.407711	1.155026	99
Es	0.920273	0.179977	-1.286212	99
Es	-0.091662	-1.811581	1.704103	99
Es	-2.717953	0.651043	0.670430	99
Es	0.597899	-1.756934	1.413250	99
Es	-1.910312	1.516151	0.881051	99
Es	-1.204854	-0.646539	-0.104962	99
Es	-1.534442	0.451760	0.377317	99
Es	-2.231600	1.253265	-0.257694	99
Es	2.415327	1.350543	-1.324156	99
47
Properties=species:S:1:pos:R:3:Z:I:1 energy=-309.1370348523235 field_type=dipole dipole="0.000000 0.000000 0.000000" charge=0
C	-0.091544	-1.811775	1.704115	6
O	-0.768193	-0.561235	1.673605	8
C	-0.982813	-0.077395	0.345285	6
C	-2.094293	0.964955	0.416195	6
C	0.285956	0.551005	-0.161695	6
C	0.920197	0.179995	-1.286095	6
C	2.189647	0.800695	-1.770565	6
H	-0.006123	-2.128075	2.747475	1
H	0.916717	-1.723795	1.288975	1
H	-0.659994	-2.571095	1.158095	1
H	-1.318023	-0.897475	-0.301735	1
H	-1.837693	1.776505	1.107465	1
H	-3.014813	0.510445	0.799335	1
H	-2.305263	1.397095	-0.567705	1
H	0.700407	1.347165	0.455225	1
H	0.512496	-0.621775	-1.897765	1
H	2.528946	1.612175	-1.119345	1
H	2.044926	1.207625	-2.775725	1
H	2.979466	0.044955	-1.815145	1
Es	-0.506020	-1.035215	1.647491	99
Es	0.920270	0.179979	-1.286208	99
Es	-2.231904	1.252998	-0.257885	99
Es	2.715728	0.284553	-1.799139	99
Es	-0.034000	-2.029875	2.416157	99
Es	-1.534459	0.451844	0.377102	99
Es	2.085678	1.071283	-2.450758	99
Es	-0.827309	-0.408970	1.154661	99
Es	-0.768191	-0.561476	1.673270	99
Es	-2.717102	0.650956	0.669761	99
Es	-0.982764	-0.077418	0.345489	99
Es	0.417132	0.587189	-0.892768	99
Es	0.560866	1.092356	0.260892	99
Es	-1.204735	-0.646776	-0.105147	99
Es	-0.337804	0.235867	0.079393	99
Es	1.554223	0.494020	-1.527550	99
Es	-0.091658	-1.811586	1.704105	99
Es	-0.574088	-0.373626	1.781164	99
Es	2.415363	1.350662	-1.323487	99
Es	0.646459	-0.366946	-1.707987	99
Es	-1.910571	1.516594	0.881988	99
Es	0.774626	0.142987	-0.549478	99
Es	0.285896	0.551027	-0.161619	99
Es	-1.055466	-0.604360	1.809640	99
Es	-2.094273	0.964941	0.416184	99
Es	2.189614	0.800673	-1.770559	99
Es	0.597752	-1.756954	1.412416	99
Es	-0.479875	-2.333160	1.320811	99
47
Properties=species:S:1:pos:R:3:Z:I:1 energy=-309.1370348523235 field_type=dipole dipole="0.000000 0.000000 0.000000" charge=0
C	-0.091544	-1.811775	1.704115	6
O	-0.768193	-0.561235	1.673605	8
C	-0.982813	-0.077395	0.345285	6
C	-2.094293	0.964955	0.416195	6
C	0.285956	0.551005	-0.161695	6
C	0.920197	0.179995	-1.286095	6
C	2.189647	0.800695	-1.770565	6
H	-0.006123	-2.128075	2.747475	1
H	0.916717	-1.723795	1.288975	1
H	-0.659994	-2.571095	1.158095	1
H	-1.318023	-0.897475	-0.301735	1
H	-1.837693	1.776505	1.107465	1
H	-3.014813	0.510445	0.799335	1
H	-2.305263	1.397095	-0.567705	1
H	0.700407	1.347165	0.455225	1
H	0.512496	-0.621775	-1.897765	1
H	2.528946	1.612175	-1.119345	1
H	2.044926	1.207625	-2.775725	1
H	2.979466	0.044955	-1.815145	1
Es	0.597686	-1.756890	1.411953	99
Es	2.189613	0.800673	-1.770559	99
Es	0.285899	0.551020	-0.161615	99
Es	-0.337823	0.235954	0.079497	99
Es	-0.479909	-2.332767	1.320907	99
Es	0.646313	-0.367108	-1.708300	99
Es	-2.094274	0.964940	0.416184	99
Es	-0.982764	-0.077418	0.345489	99
Es	-0.510834	-1.036971	1.647181	99
Es	-0.830838	-0.411021	1.154064	99
Es	1.554312	0.493603	-1.527698	99
Es	-0.569441	-0.393708	1.754056	99
Es	0.774579	0.143056	-0.549545	99
Es	2.085773	1.070699	-2.451014	99
Es	-1.204515	-0.647130	-0.105598	99
Es	2.415551	1.351170	-1.322951	99
Es	-0.034068	-2.029987	2.416508	99
Es	0.560851	1.092588	0.261316	99
Es	0.920270	0.179979	-1.286209	99
Es	-0.768065	-0.561413	1.673325	99
Es	-1.534685	0.451857	0.376996	99
Es	-1.910682	1.517136	0.883001	99
Es	0.417319	0.587199	-0.892650	99
Es	-2.716482	0.650855	0.668926	99
Es	-0.091658	-1.811581	1.704107	99
Es	-1.051903	-0.580610	1.837673	99
Es	2.715056	0.284844	-1.799140	99
Es	-2.231894	1.252599	-0.257967	99
47
Properties=species:S:1:pos:R:3:Z:I:1 energy=-309.1370348523235 field_type=dipole dipole="0.000000 0.000000 0.000000" charge=0
C	-0.091544	-1.811775	1.704115	6
O	-0.768193	-0.561235	1.673605	8
C	-0.982813	-0.077395	0.345285	6
C	-2.094293	0.964955	0.416195	6
C	0.285956	0.551005	-0.161695	6
C	0.920197	0.179995	-1.286095	6
C	2.189647	0.800695	-1.770565	6
H	-0.006123	-2.128075	2.747475	1
H	0.916717	-1.723795	1.288975	1
H	-0.659994	-2.571095	1.158095	1
H	-1.318023	-0.897475	-0.301735	1
H	-1.837693	1.776505	1.107465	1
H	-3.014813	0.510445	0.799335	1
H	-2.305263	1.397095	-0.567705	1
H	0.700407	1.347165	0.455225	1
H	0.512496	-0.621775	-1.897765	1
H	2.528946	1.612175	-1.119345	1
H	2.044926	1.207625	-2.775725	1
H	2.979466	0.044955	-1.815145	1
Es	-1.534452	0.451820	0.376691	99
Es	0.599966	-1.756574	1.412551	99
Es	-0.035191	-2.028226	2.414753	99
Es	-0.812778	-0.607856	1.644552	99
Es	0.920271	0.179983	-1.286210	99
Es	2.417640	1.351120	-1.324775	99
Es	2.189614	0.800673	-1.770559	99
Es	-0.338853	0.236579	0.077984	99
Es	-0.982763	-0.077419	0.345489	99
Es	2.714654	0.287156	-1.800404	99
Es	-0.482606	-1.024907	1.656113	99
Es	2.087930	1.070136	-2.449073	99
Es	-1.206323	-0.646579	-0.104249	99
Es	-2.721185	0.649288	0.670722	99
Es	-0.761544	-0.559947	1.670823	99
Es	0.644748	-0.366350	-1.707281	99
Es	-0.813485	-0.392784	1.153454	99
Es	0.771310	0.145429	-0.552123	99
Es	0.420842	0.584508	-0.889916	99
Es	-0.091654	-1.811585	1.704107	99
Es	-0.860814	-0.398939	1.941358	99
Es	-0.481538	-2.333872	1.321580	99
Es	1.553372	0.492848	-1.526780	99
Es	0.562555	1.091948	0.260373	99
Es	-1.908593	1.516997	0.879972	99
Es	0.285898	0.551023	-0.161613	99
Es	-2.094277	0.964943	0.416183	99
Es	-2.229358	1.252156	-0.255785	99
47
Properties=species:S:1:pos:R:3:Z:I:1 energy=-309.1370348523235 field_type=dipole dipole="0.000000 0.000000 0.000000" charge=0
C	-0.091544	-1.811775	1.704115	6
O	-0.768193	-0.561235	1.673605	8
C	-0.982813	-0.077395	0.345285	6
C	-2.094293	0.964955	0.416195	6
C	0.285956	0.551005	-0.161695	6
C	0.920197	0.179995	-1.286095	6
C	2.189647	0.800695	-1.770565	6
H	-0.006123	-2.128075	2.747475	1
H	0.916717	-1.723795	1.288975	1
H	-0.659994	-2.571095	1.158095	1
H	-1.318023	-0.897475	-0.301735	1
H	-1.837693	1.776505	1.107465	1
H	-3.014813	0.510445	0.799335	1
H	-2.305263	1.397095	-0.567705	1
H	0.700407	1.347165	0.455225	1
H	0.512496	-0.621775	-1.897765	1
H	2.528946	1.612175	-1.119345	1
H	2.044926	1.207625	-2.775725	1
H	2.979466	0.044955	-1.815145	1
Es	-0.337780	0.236237	0.079330	99
Es	0.285895	0.551025	-0.161611	99
Es	0.920271	0.179980	-1.286210	99
Es	2.416047	1.351762	-1.322389	99
Es	0.598067	-1.756699	1.411599	99
Es	0.561270	1.092764	0.261718	99
Es	-0.768237	-0.561508	1.673266	99
Es	-0.577860	-0.429592	1.714793	99
Es	-0.982766	-0.077416	0.345485	99
Es	-1.031755	-0.539587	1.877772	99
Es	-2.716487	0.650315	0.668241	99
Es	-2.094277	0.964940	0.416184	99
Es	2.189614	0.800673	-1.770559	99
Es	-0.034440	-2.029772	2.416566	99
Es	0.418137	0.586669	-0.892074	99
Es	-2.231610	1.251994	-0.257500	99
Es	-0.516991	-1.038339	1.647502	99
Es	2.086297	1.069963	-2.451008	99
Es	-0.091654	-1.811587	1.704107	99
Es	2.714142	0.285571	-1.799370	99
Es	1.554175	0.493057	-1.527751	99
Es	-1.910550	1.517893	0.883707	99
Es	0.645928	-0.367349	-1.708719	99
Es	-1.534450	0.451841	0.376625	99
Es	0.773881	0.143579	-0.550097	99
Es	-0.480268	-2.332545	1.321039	99
Es	-1.204875	-0.647467	-0.105902	99
Es	-0.836335	-0.414833	1.153195	99
47
Properties=species:S:1:pos:R:3:Z:I:1 energy=-309.1370348523235 field_type=dipole dipole="0.000000 0.000000 0.000000" charge=0
C	-0.091544	-1.811775	1.704115	6
O	-0.768193	-0.561235	1.673605	8
C	-0.982813	-0.077395	0.345285	6
C	-2.094293	0.964955	0.416195	6
C	0.285956	0.551005	-0.161695	6
C	0.920197	0.179995	-1.286095	6
C	2.189647	0.800695	-1.770565	6
H	-0.006123	-2.128075	2.747475	1
H	0.916717	-1.723795	1.288975	1
H	-0.659994	-2.571095	1.158095	1
H	-1.318023	-0.897475	-0.301735	1
H	-1.837693	1.776505	1.107465	1
H	-3.014813	0.510445	0.799335	1
H	-2.305263	1.397095	-0.567705	1
H	0.700407	1.347165	0.455225	1
H	0.512496	-0.621775	-1.897765	1
H	2.528946	1.612175	-1.119345	1
H	2.044926	1.207625	-2.775725	1
H	2.979466	0.044955	-1.815145	1
Es	-0.337772	0.236338	0.079329	99
Es	2.713784	0.285655	-1.799489	99
Es	0.561200	1.092866	0.261842	99
Es	-1.029991	-0.535956	1.881755	99
Es	-0.034688	-2.029807	2.416751	99
Es	-2.716297	0.650230	0.667868	99
Es	-0.768200	-0.561495	1.673300	99
Es	0.285898	0.551022	-0.161612	99
Es	1.554028	0.493006	-1.527914	99
Es	0.598180	-1.756696	1.411285	99
Es	2.416190	1.351929	-1.322070	99
Es	-1.910690	1.518196	0.884053	99
Es	0.920270	0.179979	-1.286211	99
Es	0.773873	0.143562	-0.550074	99
Es	0.646025	-0.367432	-1.708879	99
Es	-0.480289	-2.332206	1.321188	99
Es	-2.231552	1.251740	-0.257397	99
Es	0.418210	0.586595	-0.892040	99
Es	-0.834907	-0.414727	1.152865	99
Es	-0.982763	-0.077419	0.345489	99
Es	-1.204730	-0.647631	-0.106022	99
Es	-0.091654	-1.811586	1.704107	99
Es	-0.516910	-1.037146	1.647341	99
Es	-0.581211	-0.434598	1.711292	99
Es	-2.094276	0.964941	0.416184	99
Es	2.189619	0.800669	-1.770560	99
Es	-1.534454	0.451775	0.376476	99
Es	2.086496	1.069764	-2.450922	99
47
Properties=species:S:1:pos:R:3:Z:I:1 energy=-309.1370348523235 field_type=dipole dipole="0.000000 0.000000 0.000000" charge=0
C	-0.091544	-1.811775	1.704115	6
O	-0.768193	-0.561235	1.673605	8
C	-0.982813	-0.077395	0.345285	6
C	-2.094293	0.964955	0.416195	6
C	0.285956	0.551005	-0.161695	6
C	0.920197	0.179995	-1.286095	6
C	2.189647	0.800695	-1.770565	6
H	-0.006123	-2.128075	2.747475	1
H	0.916717	-1.723795	1.288975	1
H	-0.659994	-2.571095	1.158095	1
H	-1.318023	-0.897475	-0.301735	1
H	-1.837693	1.776505	1.107465	1
H	-3.014813	0.510445	0.799335	1
H	-2.305263	1.397095	-0.567705	1
H	0.700407	1.347165	0.455225	1
H	0.512496	-0.621775	-1.897765	1
H	2.528946	1.612175	-1.119345	1
H	2.044926	1.207625	-2.775725	1
H	2.979466	0.044955	-1.815145	1
Es	-2.094274	0.964941	0.416184	99
Es	1.554216	0.492648	-1.527921	99
Es	-0.982762	-0.077419	0.345490	99
Es	0.285901	0.551023	-0.161611	99
Es	-0.516516	-1.035796	1.647521	99
Es	0.598337	-1.756693	1.410973	99
Es	-2.716259	0.650086	0.667606	99
Es	-0.586930	-0.441951	1.705721	99
Es	0.418448	0.586456	-0.891840	99
Es	-1.204719	-0.647785	-0.106147	99
Es	0.645931	-0.367555	-1.708855	99
Es	-0.480441	-2.332105	1.321467	99
Es	-2.231584	1.251683	-0.257027	99
Es	-0.337898	0.236481	0.079319	99
Es	2.086619	1.069489	-2.451001	99
Es	-1.910618	1.518367	0.884379	99
Es	-0.768202	-0.561505	1.673294	99
Es	2.189614	0.800673	-1.770559	99
Es	-0.091660	-1.811583	1.704104	99
Es	-0.834054	-0.414869	1.152156	99
Es	-1.025605	-0.529887	1.887837	99
Es	-1.534329	0.451656	0.376025	99
Es	0.561266	1.092961	0.261900	99
Es	-0.034822	-2.029589	2.416827	99
Es	0.773669	0.143741	-0.550292	99
Es	0.920275	0.179972	-1.286204	99
Es	2.416129	1.352144	-1.321972	99
Es	2.713653	0.285986	-1.799436	99
47
Properties=species:S:1:pos:R:3:Z:I:1 energy=-309.1370348523235 field_type=dipole dipole="0.000000 0.000000 0.000000" charge=0
C	-0.091544	-1.811775	1.704115	6
O	-0.768193	-0.561235	1.673605	8
C	-0.982813	-0.077395	0.345285	6
C	-2.094293	0.964955	0.416195	6
C	0.285956	0.551005	-0.161695	6
C	0.920197	0.179995	-1.286095	6
C	2.189647	0.800695	-1.770565	6
H	-0.006123	-2.128075	2.747475	1
H	0.916717	-1.723795	1.288975	1
H	-0.659994	-2.571095	1.158095	1
H	-1.318023	-0.897475	-0.301735	1
H	-1.837693	1.776505	1.107465	1
H	-3.014813	0.510445	0.799335	1
H	-2.305263	1.397095	-0.567705	1
H	0.700407	1.347165	0.455225	1
H	0.512496	-0.621775	-1.897765	1
H	2.528946	1.612175	-1.119345	1
H	2.044926	1.207625	-2.775725	1
H	2.979466	0.044955	-1.815145	1
Es	0.645898	-0.367578	-1.708967	99
Es	1.554112	0.492521	-1.527940	99
Es	-0.768303	-0.561618	1.673254	99
Es	-2.231542	1.251540	-0.256683	99
Es	2.713380	0.286132	-1.799383	99
Es	-0.832539	-0.414698	1.151647	99
Es	-0.337971	0.236594	0.079140	99
Es	-0.982764	-0.077418	0.345488	99
Es	-1.534121	0.451665	0.375848	99
Es	2.086905	1.069229	-2.450989	99
Es	-1.021968	-0.524616	1.892115	99
Es	-0.480525	-2.331860	1.321586	99
Es	0.773503	0.143749	-0.550366	99
Es	-2.716296	0.649913	0.667383	99
Es	-0.034996	-2.029576	2.416905	99
Es	0.920276	0.179971	-1.286204	99
Es	-2.094276	0.964942	0.416183	99
Es	-1.910678	1.518593	0.884530	99
Es	0.598442	-1.756627	1.410722	99
Es	-0.516815	-1.035157	1.647799	99
Es	-1.204843	-0.647881	-0.106209	99
Es	-0.091654	-1.811587	1.704107	99
Es	0.285900	0.551020	-0.161610	99
Es	2.189615	0.800672	-1.770559	99
Es	0.418695	0.586407	-0.891708	99
Es	-0.591590	-0.448075	1.701743	99
Es	0.561298	1.093007	0.261988	99
Es	2.416244	1.352305	-1.321885	99
47
Properties=species:S:1:pos:R:3:Z:I:1 energy=-309.1370348523235 field_type=dipole dipole="0.000000 0.000000 0.000000" charge=0
C	-0.091544	-1.811775	1.704115	6
O	-0.768193	-0.561235	1.673605	8
C	-0.982813	-0.077395	0.345285	6
C	-2.094293	0.964955	0.416195	6
C	0.285956	0.551005	-0.161695	6
C	0.920197	0.179995	-1.286095	6
C	2.189647	0.800695	-1.770565	6
H	-0.006123	-2.128075	2.747475	1
H	0.916717	-1.723795	1.288975	1
H	-0.659994	-2.571095	1.158095	1
H	-1.318023	-0.897475	-0.301735	1
H	-1.837693	1.776505	1.107465	1
H	-3.014813	0.510445	0.799335	1
H	-2.305263	1.397095	-0.567705	1
H	0.700407	1.347165	0.455225	1
H	0.512496	-0.621775	-1.897765	1
H	2.528946	1.612175	-1.119345	1
H	2.044926	1.207625	-2.775725	1
H	2.979466	0.044955	-1.815145	1
Es	0.773189	0.143931	-0.550614	99
Es	-2.231277	1.251381	-0.256529	99
Es	0.645742	-0.367552	-1.708878	99
Es	-1.534115	0.451646	0.375843	99
Es	-0.338084	0.236688	0.078976	99
Es	-0.035200	-2.029320	2.416847	99
Es	-0.833055	-0.414546	1.151573	99
Es	-0.480710	-2.331870	1.321714	99
Es	-2.094276	0.964941	0.416183	99
Es	-2.716672	0.649754	0.667425	99
Es	2.416567	1.352370	-1.321972	99
Es	2.087156	1.069076	-2.450825	99
Es	2.189614	0.800673	-1.770559	99
Es	-0.518652	-1.035678	1.647228	99
Es	-0.768159	-0.561465	1.673273	99
Es	-1.910495	1.518720	0.884373	99
Es	0.561522	1.092957	0.261872	99
Es	-0.091656	-1.811586	1.704106	99
Es	-1.205083	-0.647878	-0.106059	99
Es	1.554048	0.492400	-1.527884	99
Es	2.713169	0.286327	-1.799505	99
Es	0.598682	-1.756570	1.410654	99
Es	-0.982763	-0.077418	0.345488	99
Es	0.419102	0.586189	-0.891402	99
Es	-1.012675	-0.513778	1.900415	99
Es	-0.598699	-0.458823	1.694018	99
Es	0.920269	0.179978	-1.286211	99
Es	0.285897	0.551023	-0.161613	99
47
Properties=species:S:1:pos:R:3:Z:I:1 energy=-309.1370348523235 field_type=dipole dipole="0.000000 0.000000 0.000000" charge=0
C	-0.091544	-1.811775	1.704115	6
O	-0.768193	-0.561235	1.673605	8
C	-0.982813	-0.077395	0.345285	6
C	-2.094293	0.964955	0.416195	6
C	0.285956	0.551005	-0.161695	6
C	0.920197	0.179995	-1.286095	6
C	2.189647	0.800695	-1.770565	6
H	-0.006123	-2.128075	2.747475	1
H	0.916717	-1.723795	1.288975	1
H	-0.659994	-2.571095	1.158095	1
H	-1.318023	-0.897475	-0.301735	1
H	-1.837693	1.776505	1.107465	1
H	-3.014813	0.510445	0.799335	1
H	-2.305263	1.397095	-0.567705	1
H	0.700407	1.347165	0.455225	1
H	0.512496	-0.621775	-1.897765	1
H	2.528946	1.612175	-1.119345	1
H	2.044926	1.207625	-2.775725	1
H	2.979466	0.044955	-1.815145	1
Es	-0.035258	-2.029270	2.416892	99
Es	-0.517048	-1.033557	1.648896	99
Es	0.285902	0.551029	-0.161608	99
Es	0.561491	1.093010	0.261973	99
Es	-0.831238	-0.415655	1.150352	99
Es	2.713061	0.286472	-1.799568	99
Es	0.598725	-1.756565	1.410386	99
Es	1.553985	0.492178	-1.527925	99
Es	0.645816	-0.367699	-1.708932	99
Es	-1.910681	1.518901	0.884674	99
Es	-1.012255	-0.512742	1.901233	99
Es	-0.091654	-1.811587	1.704107	99
Es	-1.533868	0.451476	0.375497	99
Es	2.189615	0.800674	-1.770559	99
Es	-2.716518	0.649711	0.667083	99
Es	-0.768198	-0.561523	1.673287	99
Es	2.087336	1.068957	-2.450713	99
Es	-2.094277	0.964941	0.416183	99
Es	-0.982764	-0.077418	0.345487	99
Es	-0.602583	-0.460823	1.692799	99
Es	2.416543	1.352482	-1.321821	99
Es	-0.480773	-2.331709	1.321897	99
Es	-0.338091	0.236757	0.078955	99
Es	0.920270	0.179980	-1.286211	99
Es	0.419121	0.586203	-0.891367	99
Es	-1.205017	-0.648000	-0.106147	99
Es	0.773090	0.144028	-0.550748	99
Es	-2.231344	1.251320	-0.256166	99
47
Properties=species:S:1:pos:R:3:Z:I:1 energy=-309.1370348523235 field_type=dipole dipole="0.000000 0.000000 0.000000" charge=0
C	-0.091544	-1.811775	1.704115	6
O	-0.768193	-0.561235	1.673605	8
C	-0.982813	-0.077395	0.345285	6
C	-2.094293	0.964955	0.416195	6
C	0.285956	0.551005	-0.161695	6
C	0.920197	0.179995	-1.286095	6
C	2.189647	0.800695	-1.770565	6
H	-0.006123	-2.128075	2.747475	1
H	0.916717	-1.723795	1.288975	1
H	-0.659994	-2.571095	1.158095	1
H	-1.318023	-0.897475	-0.301735	1
H	-1.837693	1.776505	1.107465	1
H	-3.014813	0.510445	0.799335	1
H	-2.305263	1.397095	-0.567705	1
H	0.700407	1.347165	0.455225	1
H	0.512496	-0.621775	-1.897765	1
H	2.528946	1.612175	-1.119345	1
H	2.044926	1.207625	-2.775725	1
H	2.979466	0.044955	-1.815145	1
Es	-0.480856	-2.331427	1.322131	99
Es	1.554018	0.492114	-1.528066	99
Es	-1.005185	-0.505689	1.906650	99
Es	-1.205130	-0.648016	-0.106075	99
Es	2.712878	0.286675	-1.799396	99
Es	-0.982763	-0.077418	0.345488	99
Es	2.087624	1.068749	-2.450800	99
Es	-0.607671	-0.466618	1.687436	99
Es	-0.516876	-1.033441	1.648663	99
Es	-0.035520	-2.029169	2.417001	99
Es	0.285894	0.551027	-0.161615	99
Es	-2.231172	1.251300	-0.255941	99
Es	0.772995	0.144159	-0.550825	99
Es	0.561540	1.093150	0.261772	99
Es	-0.091654	-1.811587	1.704107	99
Es	-1.910342	1.518904	0.884407	99
Es	0.920271	0.179979	-1.286211	99
Es	-0.338125	0.236745	0.078951	99
Es	0.419307	0.585917	-0.891180	99
Es	-2.716981	0.649586	0.667308	99
Es	0.645725	-0.367661	-1.708736	99
Es	-1.533861	0.451474	0.375359	99
Es	-0.833283	-0.417115	1.150514	99
Es	-0.768279	-0.561643	1.673189	99
Es	2.189614	0.800673	-1.770560	99
Es	0.598869	-1.756614	1.410085	99
Es	-2.094274	0.964940	0.416183	99
Es	2.416625	1.352576	-1.321901	99
47
Properties=species:S:1:pos:R:3:Z:I:1 energy=-309.1370348523235 field_type=dipole dipole="0.000000 0.000000 0.000000" charge=0
C	-0.091544	-1.811775	1.704115	6
O	-0.768193	-0.561235	1.673605	8
C	-0.982813	-0.077395	0.345285	6
C	-2.094293	0.964955	0.416195	6
C	0.285956	0.551005	-0.161695	6
C	0.920197	0.179995	-1.286095	6
C	2.189647	0.800695	-1.770565	6
H	-0.006123	-2.128075	2.747475	1
H	0.916717	-1.723795	1.288975	1
H	-0.659994	-2.571095	1.158095	1
H	-1.318023	-0.897475	-0.301735	1
H	-1.837693	1.776505	1.107465	1
H	-3.014813	0.510445	0.799335	1
H	-2.305263	1.397095	-0.567705	1
H	0.700407	1.347165	0.455225	1
H	0.512496	-0.621775	-1.897765	1
H	2.528946	1.612175	-1.119345	1
H	2.044926	1.207625	-2.775725	1
H	2.979466	0.044955	-1.815145	1
Es	0.772985	0.143979	-0.550746	99
Es	-0.609228	-0.467686	1.688278	99
Es	0.419405	0.586006	-0.891200	99
Es	0.598927	-1.756548	1.410005	99
Es	-1.533505	0.451464	0.374768	99
Es	-0.338180	0.236809	0.078891	99
Es	-0.516608	-1.032522	1.648382	99
Es	-0.035785	-2.029075	2.417188	99
Es	-0.768131	-0.561512	1.673133	99
Es	-2.716662	0.649470	0.666915	99
Es	0.285895	0.551025	-0.161615	99
Es	2.416640	1.352657	-1.321796	99
Es	-0.480793	-2.331254	1.322152	99
Es	-1.205081	-0.648129	-0.106210	99
Es	-1.910592	1.519018	0.884846	99
Es	0.561458	1.093135	0.261935	99
Es	0.920270	0.179980	-1.286211	99
Es	1.553977	0.492048	-1.528001	99
Es	2.189615	0.800674	-1.770559	99
Es	2.087554	1.068691	-2.450651	99
Es	-0.091655	-1.811585	1.704107	99
Es	-0.982763	-0.077418	0.345490	99
Es	-1.006405	-0.506941	1.906361	99
Es	-2.231422	1.251353	-0.255447	99
Es	-0.830902	-0.415991	1.150214	99
Es	2.712860	0.286656	-1.799561	99
Es	-2.094273	0.964939	0.416182	99
Es	0.645786	-0.367676	-1.708913	99
47
Properties=species:S:1:pos:R:3:Z:I:1 energy=-309.1370348523235 field_type=dipole dipole="0.000000 0.000000 0.000000" charge=0
C	-0.091544	-1.811775	1.704115	6
O	-0.768193	-0.561235	1.673605	8
C	-0.982813	-0.077395	0.345285	6
C	-2.094293	0.964955	0.416195	6
C	0.285956	0.551005	-0.161695	6
C	0.920197	0.179995	-1.286095	6
C	2.189647	0.800695	-1.770565	6
H	-0.006123	-2.128075	2.747475	1
H	0.916717	-1.723795	1.288975	1
H	-0.659994	-2.571095	1.158095	1
H	-1.318023	-0.897475	-0.301735	1
H	-1.837693	1.776505	1.107465	1
H	-3.014813	0.510445	0.799335	1
H	-2.305263	1.397095	-0.567705	1
H	0.700407	1.347165	0.455225	1
H	0.512496	-0.621775	-1.897765	1
H	2.528946	1.612175	-1.119345	1
H	2.044926	1.207625	-2.775725	1
H	2.979466	0.044955	-1.815145	1
Es	2.416791	1.352743	-1.321853	99
Es	-0.035786	-2.028960	2.417091	99
Es	-0.338219	0.236960	0.078802	99
Es	-2.231334	1.251282	-0.255116	99
Es	-0.516650	-1.030845	1.649980	99
Es	-1.001617	-0.501341	1.909659	99
Es	-0.480965	-2.331173	1.322387	99
Es	-0.829446	-0.417506	1.148972	99
Es	1.553985	0.491950	-1.527993	99
Es	0.645697	-0.367737	-1.708809	99
Es	0.599016	-1.756644	1.409801	99
Es	-2.716900	0.649448	0.666898	99
Es	-1.205135	-0.648160	-0.106132	99
Es	0.419550	0.585879	-0.891027	99
Es	-0.091653	-1.811587	1.704107	99
Es	2.087542	1.068653	-2.450348	99
Es	2.712899	0.286671	-1.799809	99
Es	-0.768260	-0.561572	1.673169	99
Es	-1.910473	1.519123	0.884762	99
Es	-0.982764	-0.077417	0.345486	99
Es	-2.094278	0.964944	0.416181	99
Es	0.772842	0.144159	-0.550941	99
Es	0.920272	0.179979	-1.286211	99
Es	-0.615293	-0.473368	1.684613	99
Es	-1.533492	0.451221	0.374588	99
Es	2.189614	0.800673	-1.770559	99
Es	0.285899	0.551023	-0.161612	99
Es	0.561546	1.093172	0.261850	99
47
Properties=species:S:1:pos:R:3:Z:I:1 energy=-309.1370348523235 field_type=dipole dipole="0.000000 0.000000 0.000000" charge=0
C	-0.091544	-1.811775	1.704115	6
O	-0.768193	-0.561235	1.673605	8
C	-0.982813	-0.077395	0.345285	6
C	-2.094293	0.964955	0.416195	6
C	0.285956	0.551005	-0.161695	6
C	0.920197	0.179995	-1.286095	6
C	2.189647	0.800695	-1.770565	6
H	-0.006123	-2.128075	2.747475	1
H	0.916717	-1.723795	1.288975	1
H	-0.659994	-2.571095	1.158095	1
H	-1.318023	-0.897475	-0.301735	1
H	-1.837693	1.776505	1.107465	1
H	-3.014813	0.510445	0.799335	1
H	-2.305263	1.397095	-0.567705	1
H	0.700407	1.347165	0.455225	1
H	0.512496	-0.621775	-1.897765	1
H	2.528946	1.612175	-1.119345	1
H	2.044926	1.207625	-2.775725	1
H	2.979466	0.044955	-1.815145	1
Es	-0.616946	-0.474811	1.683344	99
Es	2.189615	0.800673	-1.770559	99
Es	0.561542	1.093222	0.261793	99
Es	-1.910558	1.519287	0.884769	99
Es	-1.533354	0.451093	0.374314	99
Es	-2.716867	0.649421	0.666836	99
Es	0.920273	0.179978	-1.286208	99
Es	-0.091654	-1.811586	1.704107	99
Es	0.599092	-1.756628	1.409720	99
Es	-0.035944	-2.029051	2.417091	99
Es	0.419348	0.585864	-0.890947	99
Es	1.553966	0.491825	-1.527960	99
Es	2.712727	0.286813	-1.799650	99
Es	-2.231414	1.251170	-0.254864	99
Es	0.772896	0.144391	-0.551173	99
Es	0.285898	0.551023	-0.161612	99
Es	2.087722	1.068513	-2.450495	99
Es	-0.768241	-0.561556	1.673283	99
Es	-1.205035	-0.648190	-0.106063	99
Es	0.645813	-0.367846	-1.708702	99
Es	-0.516690	-1.029844	1.650534	99
Es	-1.000113	-0.499786	1.910776	99
Es	-0.338154	0.236882	0.078882	99
Es	-0.982764	-0.077417	0.345486	99
Es	2.416826	1.352767	-1.321875	99
Es	-0.480945	-2.330984	1.322401	99
Es	-0.829380	-0.418593	1.148525	99
Es	-2.094274	0.964941	0.416184	99
47
Properties=species:S:1:pos:R:3:Z:I:1 energy=-309.1370348523235 field_type=dipole dipole="0.000000 0.000000 0.000000" charge=0
C	-0.091544	-1.811775	1.704115	6
O	-0.768193	-0.561235	1.673605	8
C	-0.982813	-0.077395	0.345285	6
C	-2.094293	0.964955	0.416195	6
C	0.285956	0.551005	-0.161695	6
C	0.920197	0.179995	-1.286095	6
C	2.189647	0.800695	-1.770565	6
H	-0.006123	-2.128075	2.747475	1
H	0.916717	-1.723795	1.288975	1
H	-0.659994	-2.571095	1.158095	1
H	-1.318023	-0.897475	-0.301735	1
H	-1.837693	1.776505	1.107465	1
H	-3.014813	0.510445	0.799335	1
H	-2.305263	1.397095	-0.567705	1
H	0.700407	1.347165	0.455225	1
H	0.512496	-0.621775	-1.897765	1
H	2.528946	1.612175	-1.119345	1
H	2.044926	1.207625	-2.775725	1
H	2.979466	0.044955	-1.815145	1
Es	-0.480950	-2.330800	1.322617	99
Es	-1.205043	-0.648240	-0.106078	99
Es	-2.094277	0.964941	0.416184	99
Es	-0.338205	0.236883	0.078809	99
Es	-0.828429	-0.419858	1.147782	99
Es	-0.768258	-0.561516	1.673236	99
Es	-0.997966	-0.497255	1.912159	99
Es	-2.716830	0.649372	0.666802	99
Es	-0.036116	-2.028958	2.417186	99
Es	0.419431	0.585804	-0.890893	99
Es	0.599148	-1.756689	1.409478	99
Es	0.772915	0.144328	-0.551142	99
Es	2.712665	0.286993	-1.799444	99
Es	-2.231601	1.251226	-0.254462	99
Es	-0.517183	-1.028840	1.651221	99
Es	-0.091656	-1.811587	1.704106	99
Es	0.561461	1.093279	0.261791	99
Es	2.416748	1.352870	-1.321936	99
Es	2.189614	0.800673	-1.770559	99
Es	0.920271	0.179979	-1.286210	99
Es	-0.619391	-0.477305	1.681861	99
Es	1.553946	0.491704	-1.528085	99
Es	-1.533236	0.451175	0.373979	99
Es	0.285898	0.551022	-0.161613	99
Es	2.087970	1.068330	-2.450582	99
Es	0.645780	-0.367856	-1.708594	99
Es	-0.982763	-0.077418	0.345493	99
Es	-1.910558	1.519310	0.884833	99
47
Properties=species:S:1:pos:R:3:Z:I:1 energy=-309.1370348523235 field_type=dipole dipole="0.000000 0.000000 0.000000" charge=0
C	-0.091544	-1.811775	1.704115	6
O	-0.768193	-0.561235	1.673605	8
C	-0.982813	-0.077395	0.345285	6
C	-2.094293	0.964955	0.416195	6
C	0.285956	0.551005	-0.161695	6
C	0.920197	0.179995	-1.286095	6
C	2.189647	0.800695	-1.770565	6
H	-0.006123	-2.128075	2.747475	1
H	0.916717	-1.723795	1.288975	1
H	-0.659994	-2.571095	1.158095	1
H	-1.318023	-0.897475	-0.301735	1
H	-1.837693	1.776505	1.107465	1
H	-3.014813	0.510445	0.799335	1
H	-2.305263	1.397095	-0.567705	1
H	0.700407	1.347165	0.455225	1
H	0.512496	-0.621775	-1.897765	1
H	2.528946	1.612175	-1.119345	1
H	2.044926	1.207625	-2.775725	1
H	2.979466	0.044955	-1.815145	1
Es	2.712585	0.286987	-1.799671	99
Es	2.189617	0.800670	-1.770560	99
Es	2.087948	1.068400	-2.450409	99
Es	-0.828396	-0.420401	1.147644	99
Es	0.419675	0.585663	-0.890872	99
Es	-0.516846	-1.028164	1.651312	99
Es	0.561487	1.093303	0.261652	99
Es	-0.091652	-1.811593	1.704107	99
Es	0.645716	-0.367833	-1.708612	99
Es	-0.994736	-0.494203	1.914273	99
Es	-0.338212	0.236920	0.078860	99
Es	-1.533114	0.451166	0.373885	99
Es	-0.036171	-2.028914	2.417158	99
Es	0.599216	-1.756806	1.409180	99
Es	-1.205134	-0.648245	-0.106088	99
Es	1.553930	0.491771	-1.528153	99
Es	0.772830	0.144337	-0.551040	99
Es	0.920273	0.179977	-1.286208	99
Es	-0.480994	-2.330593	1.322943	99
Es	0.285894	0.551020	-0.161612	99
Es	-2.231494	1.251165	-0.254205	99
Es	-0.982765	-0.077418	0.345488	99
Es	2.416904	1.352825	-1.321835	99
Es	-0.768284	-0.561540	1.673247	99
Es	-2.094275	0.964941	0.416183	99
Es	-1.910578	1.519403	0.884860	99
Es	-0.623074	-0.480507	1.679725	99
Es	-2.716966	0.649235	0.666685	99
47
Properties=species:S:1:pos:R:3:Z:I:1 energy=-309.1370348523235 field_type=dipole dipole="0.000000 0.000000 0.000000" charge=0
C	-0.091544	-1.811775	1.704115	6
O	-0.768193	-0.561235	1.673605	8
C	-0.982813	-0.077395	0.345285	6
C	-2.094293	0.964955	0.416195	6
C	0.285956	0.551005	-0.161695	6
C	0.920197	0.179995	-1.286095	6
C	2.189647	0.800695	-1.770565	6
H	-0.006123	-2.128075	2.747475	1
H	0.916717	-1.723795	1.288975	1
H	-0.659994	-2.571095	1.158095	1
H	-1.318023	-0.897475	-0.301735	1
H	-1.837693	1.776505	1.107465	1
H	-3.014813	0.510445	0.799335	1
H	-2.305263	1.397095	-0.567705	1
H	0.700407	1.347165	0.455225	1
H	0.512496	-0.621775	-1.897765	1
H	2.528946	1.612175	-1.119345	1
H	2.044926	1.207625	-2.775725	1
H	2.979466	0.044955	-1.815145	1
Es	0.561416	1.093254	0.261682	99
Es	-1.532949	0.451164	0.373588	99
Es	-2.716882	0.649270	0.666564	99
Es	-2.094277	0.964942	0.416184	99
Es	2.189615	0.800671	-1.770560	99
Es	-0.995257	-0.494822	1.914193	99
Es	-0.516956	-1.027003	1.651523	99
Es	0.419580	0.585829	-0.890949	99
Es	-0.036373	-2.028818	2.417315	99
Es	0.285893	0.551027	-0.161617	99
Es	0.645853	-0.367948	-1.708658	99
Es	-0.480915	-2.330518	1.322881	99
Es	-0.091654	-1.811587	1.704107	99
Es	1.553925	0.491802	-1.528151	99
Es	0.772917	0.144312	-0.551033	99
Es	2.087865	1.068303	-2.450235	99
Es	-1.205170	-0.648334	-0.106110	99
Es	-0.767897	-0.561348	1.673296	99
Es	-1.910601	1.519427	0.885012	99
Es	2.712687	0.286833	-1.799746	99
Es	-0.624427	-0.481257	1.679983	99
Es	2.416814	1.352984	-1.321811	99
Es	-2.231597	1.251196	-0.253925	99
Es	-0.982764	-0.077418	0.345486	99
Es	0.920273	0.179975	-1.286206	99
Es	-0.826699	-0.420522	1.147092	99
Es	-0.338264	0.236853	0.078844	99
Es	0.599231	-1.756703	1.409188	99
47
Properties=species:S:1:pos:R:3:Z:I:1 energy=-309.1370348523235 field_type=dipole dipole="0.000000 0.000000 0.000000" charge=0
C	-0.091544	-1.811775	1.704115	6
O	-0.768193	-0.561235	1.673605	8
C	-0.982813	-0.077395	0.345285	6
C	-2.094293	0.964955	0.416195	6
C	0.285956	0.551005	-0.161695	6
C	0.920197	0.179995	-1.286095	6
C	2.189647	0.800695	-1.770565	6
H	-0.006123	-2.128075	2.747475	1
H	0.916717	-1.723795	1.288975	1
H	-0.659994	-2.571095	1.158095	1
H	-1.318023	-0.897475	-0.301735	1
H	-1.837693	1.776505	1.107465	1
H	-3.014813	0.510445	0.799335	1
H	-2.305263	1.397095	-0.567705	1
H	0.700407	1.347165	0.455225	1
H	0.512496	-0.621775	-1.897765	1
H	2.528946	1.612175	-1.119345	1
H	2.044926	1.207625	-2.775725	1
H	2.979466	0.044955	-1.815145	1
Es	-1.910519	1.519435	0.884904	99
Es	0.645737	-0.367904	-1.708633	99
Es	-0.982763	-0.077418	0.345488	99
Es	0.285898	0.551023	-0.161612	99
Es	-0.629894	-0.485212	1.679178	99
Es	-2.717089	0.649336	0.666586	99
Es	1.554022	0.491619	-1.528232	99
Es	-2.094275	0.964939	0.416184	99
Es	2.189615	0.800673	-1.770559	99
Es	-0.481043	-2.330557	1.322738	99
Es	0.419723	0.585752	-0.890858	99
Es	-1.533004	0.450992	0.373553	99
Es	-0.517061	-1.024951	1.652839	99
Es	-0.036375	-2.028784	2.417222	99
Es	-0.091653	-1.811589	1.704107	99
Es	-0.768133	-0.561810	1.672754	99
Es	-0.823293	-0.420708	1.145910	99
Es	2.087406	1.068640	-2.449508	99
Es	0.920271	0.179980	-1.286210	99
Es	0.561499	1.093338	0.261749	99
Es	-0.992748	-0.492294	1.915397	99
Es	-0.338239	0.237049	0.078696	99
Es	0.772744	0.144255	-0.551081	99
Es	0.599283	-1.756645	1.409332	99
Es	-1.205155	-0.648352	-0.106097	99
Es	2.713082	0.286619	-1.800536	99
Es	2.416880	1.352944	-1.321670	99
Es	-2.231529	1.251200	-0.253705	99
