45
Properties=species:S:1:pos:R:3:Z:I:1 energy=-344.9647783818839 field_type=dipole dipole="0.000000 0.000000 0.000000" charge=0
C	-1.827724	-1.033989	-1.520124	6
O	-2.001524	0.058461	-0.628044	8
C	-1.588474	-0.269429	0.692916	6
O	-0.182804	-0.453449	0.806006	8
C	0.523705	0.767351	0.606486	6
C	1.967906	0.492271	0.881716	6
C	2.965326	0.706921	0.014536	6
H	-2.206294	-0.737659	-2.501664	1
H	-2.394554	-1.905769	-1.179934	1
H	-0.767834	-1.288069	-1.620894	1
H	-2.084954	-1.188959	1.021436	1
H	-1.915174	0.529571	1.367716	1
H	0.165926	1.527711	1.310076	1
H	0.372275	1.126241	-0.417144	1
H	2.199146	0.086591	1.863366	1
H	2.782676	1.103411	-0.979824	1
H	3.992386	0.478791	0.283376	1
Es	2.501519	0.910757	0.557798	99
Es	-1.921638	-0.375877	-0.938757	99
Es	-2.001420	0.058099	-0.627927	99
Es	-2.213636	-1.635973	-1.280489	99
Es	-0.106696	-0.635025	0.573344	99
Es	-1.831478	-0.096559	-0.140468	99
Es	2.115400	0.219747	1.549485	99
Es	-2.086837	-0.831740	-2.187796	99
Es	-0.138280	-0.533157	1.098936	99
Es	2.845756	0.976589	-0.661083	99
Es	0.278107	1.288262	1.089989	99
Es	2.436085	0.303971	0.324276	99
Es	-0.708709	-0.350848	0.753493	99
Es	0.523633	0.767136	0.606548	99
Es	2.965398	0.706932	0.014468	99
Es	0.427245	1.016115	-0.091305	99
Es	-1.808324	0.289495	1.150310	99
Es	-1.588280	-0.269396	0.692683	99
Es	3.663950	0.556868	0.190099	99
Es	-1.810761	0.279692	-0.719679	99
Es	0.054459	0.026329	0.726790	99
Es	-1.827761	-1.033814	-1.519977	99
Es	1.967809	0.492268	0.881771	99
Es	-0.182928	-0.453211	0.805942	99
Es	-1.923436	-0.909148	0.912020	99
Es	1.251193	0.630077	0.739781	99
Es	-2.302284	0.102439	-0.601959	99
Es	-1.106557	-1.212839	-1.589312	99
45
Properties=species:S:1:pos:R:3:Z:I:1 energy=-344.9647783818839 field_type=dipole dipole="0.000000 0.000000 0.000000" charge=0
C	-1.827724	-1.033989	-1.520124	6
O	-2.001524	0.058461	-0.628044	8
C	-1.588474	-0.269429	0.692916	6
O	-0.182804	-0.453449	0.806006	8
C	0.523705	0.767351	0.606486	6
C	1.967906	0.492271	0.881716	6
C	2.965326	0.706921	0.014536	6
H	-2.206294	-0.737659	-2.501664	1
H	-2.394554	-1.905769	-1.179934	1
H	-0.767834	-1.288069	-1.620894	1
H	-2.084954	-1.188959	1.021436	1
H	-1.915174	0.529571	1.367716	1
H	0.165926	1.527711	1.310076	1
H	0.372275	1.126241	-0.417144	1
H	2.199146	0.086591	1.863366	1
H	2.782676	1.103411	-0.979824	1
H	3.992386	0.478791	0.283376	1
Es	0.055829	0.025424	0.722253	99
Es	2.845946	0.976383	-0.661192	99
Es	0.523632	0.767138	0.606549	99
Es	-1.919199	-0.374503	-0.937939	99
Es	-1.827760	-1.033812	-1.519975	99
Es	2.115334	0.220006	1.549344	99
Es	-2.086467	-0.831451	-2.186610	99
Es	-1.105960	-1.212448	-1.589999	99
Es	3.663681	0.557174	0.190048	99
Es	0.278249	1.288548	1.089873	99
Es	2.436238	0.303214	0.324153	99
Es	-1.923663	-0.909136	0.912309	99
Es	2.965405	0.706950	0.014468	99
Es	-1.588279	-0.269400	0.692681	99
Es	-1.836925	-0.099380	-0.140738	99
Es	-1.806492	0.281004	-0.717111	99
Es	-0.135887	-0.529874	1.096139	99
Es	1.251060	0.629686	0.739995	99
Es	2.501444	0.911463	0.557881	99
Es	0.427588	1.015799	-0.091289	99
Es	-2.214461	-1.636452	-1.280855	99
Es	1.967802	0.492265	0.881772	99
Es	-0.182968	-0.453128	0.805947	99
Es	-0.109144	-0.638070	0.575278	99
Es	-2.001402	0.058197	-0.627959	99
Es	-1.808319	0.289308	1.150081	99
Es	-2.303661	0.102311	-0.605159	99
Es	-0.710093	-0.350026	0.759033	99
45
Properties=species:S:1:pos:R:3:Z:I:1 energy=-344.9647783818839 field_type=dipole dipole="0.000000 0.000000 0.000000" charge=0
C	-1.827724	-1.033989	-1.520124	6
O	-2.001524	0.058461	-0.628044	8
C	-1.588474	-0.269429	0.692916	6
O	-0.182804	-0.453449	0.806006	8
C	0.523705	0.767351	0.606486	6
C	1.967906	0.492271	0.881716	6
C	2.965326	0.706921	0.014536	6
H	-2.206294	-0.737659	-2.501664	1
H	-2.394554	-1.905769	-1.179934	1
H	-0.767834	-1.288069	-1.620894	1
H	-2.084954	-1.188959	1.021436	1
H	-1.915174	0.529571	1.367716	1
H	0.165926	1.527711	1.310076	1
H	0.372275	1.126241	-0.417144	1
H	2.199146	0.086591	1.863366	1
H	2.782676	1.103411	-0.979824	1
H	3.992386	0.478791	0.283376	1
Es	0.427766	1.015741	-0.091430	99
Es	-1.105509	-1.212202	-1.590580	99
Es	-0.711756	-0.350076	0.764307	99
Es	-2.001377	0.058129	-0.627938	99
Es	0.056162	0.024359	0.717654	99
Es	3.663393	0.557277	0.189957	99
Es	2.115289	0.220428	1.549350	99
Es	-1.806657	0.284185	-0.716182	99
Es	0.278293	1.288495	1.089864	99
Es	0.523635	0.767142	0.606546	99
Es	2.846055	0.975970	-0.661434	99
Es	1.967800	0.492269	0.881776	99
Es	-0.182967	-0.453134	0.805941	99
Es	-1.923906	-0.909071	0.912620	99
Es	-1.808241	0.289085	1.149832	99
Es	2.436445	0.302681	0.324204	99
Es	-2.215177	-1.636728	-1.281153	99
Es	-0.110487	-0.640481	0.577386	99
Es	2.501383	0.912044	0.557919	99
Es	2.965408	0.706949	0.014467	99
Es	-2.304661	0.098277	-0.607578	99
Es	-1.915088	-0.372690	-0.936937	99
Es	-1.839912	-0.100386	-0.140413	99
Es	-1.827760	-1.033813	-1.519976	99
Es	-0.133138	-0.526108	1.093413	99
Es	1.250983	0.629496	0.740286	99
Es	-2.086169	-0.831254	-2.185602	99
Es	-1.588275	-0.269395	0.692677	99
45
Properties=species:S:1:pos:R:3:Z:I:1 energy=-344.9647783818839 field_type=dipole dipole="0.000000 0.000000 0.000000" charge=0
C	-1.827724	-1.033989	-1.520124	6
O	-2.001524	0.058461	-0.628044	8
C	-1.588474	-0.269429	0.692916	6
O	-0.182804	-0.453449	0.806006	8
C	0.523705	0.767351	0.606486	6
C	1.967906	0.492271	0.881716	6
C	2.965326	0.706921	0.014536	6
H	-2.206294	-0.737659	-2.501664	1
H	-2.394554	-1.905769	-1.179934	1
H	-0.767834	-1.288069	-1.620894	1
H	-2.084954	-1.188959	1.021436	1
H	-1.915174	0.529571	1.367716	1
H	0.165926	1.527711	1.310076	1
H	0.372275	1.126241	-0.417144	1
H	2.199146	0.086591	1.863366	1
H	2.782676	1.103411	-0.979824	1
H	3.992386	0.478791	0.283376	1
Es	2.115303	0.220831	1.549556	99
Es	-2.305539	0.098107	-0.610183	99
Es	1.250895	0.629368	0.740540	99
Es	-2.086265	-0.831262	-2.184623	99
Es	-1.843429	-0.102274	-0.140588	99
Es	-1.924069	-0.908919	0.912903	99
Es	-2.001433	0.058282	-0.627970	99
Es	2.501207	0.912371	0.557852	99
Es	-1.808202	0.288937	1.149625	99
Es	-1.827763	-1.033809	-1.519975	99
Es	-0.128979	-0.528374	1.090244	99
Es	-2.215518	-1.636917	-1.281238	99
Es	2.436638	0.302387	0.324243	99
Es	-0.712589	-0.349334	0.770564	99
Es	3.663017	0.557273	0.189988	99
Es	-0.115168	-0.638139	0.577134	99
Es	-1.588277	-0.269401	0.692678	99
Es	-0.182962	-0.453150	0.805906	99
Es	0.278430	1.288558	1.089840	99
Es	1.967801	0.492270	0.881776	99
Es	-1.804682	0.284376	-0.713542	99
Es	-1.105033	-1.211855	-1.591344	99
Es	2.846215	0.975595	-0.661825	99
Es	0.057494	0.023768	0.715000	99
Es	0.428025	1.015595	-0.091653	99
Es	-1.912624	-0.371174	-0.936948	99
Es	2.965407	0.706947	0.014469	99
Es	0.523632	0.767134	0.606549	99
45
Properties=species:S:1:pos:R:3:Z:I:1 energy=-344.9647783818839 field_type=dipole dipole="0.000000 0.000000 0.000000" charge=0
C	-1.827724	-1.033989	-1.520124	6
O	-2.001524	0.058461	-0.628044	8
C	-1.588474	-0.269429	0.692916	6
O	-0.182804	-0.453449	0.806006	8
C	0.523705	0.767351	0.606486	6
C	1.967906	0.492271	0.881716	6
C	2.965326	0.706921	0.014536	6
H	-2.206294	-0.737659	-2.501664	1
H	-2.394554	-1.905769	-1.179934	1
H	-0.767834	-1.288069	-1.620894	1
H	-2.084954	-1.188959	1.021436	1
H	-1.915174	0.529571	1.367716	1
H	0.165926	1.527711	1.310076	1
H	0.372275	1.126241	-0.417144	1
H	2.199146	0.086591	1.863366	1
H	2.782676	1.103411	-0.979824	1
H	3.992386	0.478791	0.283376	1
Es	-2.001466	0.058080	-0.627891	99
Es	3.662739	0.557396	0.190004	99
Es	1.250721	0.629231	0.740662	99
Es	2.846277	0.975178	-0.662159	99
Es	0.059047	0.022277	0.709798	99
Es	-1.588276	-0.269404	0.692677	99
Es	-2.215963	-1.637008	-1.281524	99
Es	1.967804	0.492269	0.881778	99
Es	-0.126750	-0.526228	1.087520	99
Es	-1.911673	-0.370502	-0.936779	99
Es	0.428213	1.015462	-0.091859	99
Es	-0.117972	-0.639001	0.580179	99
Es	0.278540	1.288604	1.089880	99
Es	-0.713425	-0.349005	0.775402	99
Es	-1.808102	0.288777	1.149399	99
Es	-2.086252	-0.831259	-2.183509	99
Es	-1.104544	-1.211617	-1.592126	99
Es	-1.847935	-0.103832	-0.139331	99
Es	-2.304537	0.100071	-0.613866	99
Es	-1.924246	-0.908815	0.913176	99
Es	2.501035	0.912659	0.557749	99
Es	-0.183044	-0.453078	0.806073	99
Es	2.436896	0.302121	0.324397	99
Es	0.523635	0.767139	0.606547	99
Es	2.115324	0.221219	1.549708	99
Es	-1.802162	0.283330	-0.711408	99
Es	-1.827758	-1.033818	-1.519983	99
Es	2.965406	0.706943	0.014467	99
45
Properties=species:S:1:pos:R:3:Z:I:1 energy=-344.9647783818839 field_type=dipole dipole="0.000000 0.000000 0.000000" charge=0
C	-1.827724	-1.033989	-1.520124	6
O	-2.001524	0.058461	-0.628044	8
C	-1.588474	-0.269429	0.692916	6
O	-0.182804	-0.453449	0.806006	8
C	0.523705	0.767351	0.606486	6
C	1.967906	0.492271	0.881716	6
C	2.965326	0.706921	0.014536	6
H	-2.206294	-0.737659	-2.501664	1
H	-2.394554	-1.905769	-1.179934	1
H	-0.767834	-1.288069	-1.620894	1
H	-2.084954	-1.188959	1.021436	1
H	-1.915174	0.529571	1.367716	1
H	0.165926	1.527711	1.310076	1
H	0.372275	1.126241	-0.417144	1
H	2.199146	0.086591	1.863366	1
H	2.782676	1.103411	-0.979824	1
H	3.992386	0.478791	0.283376	1
Es	-1.827761	-1.033815	-1.519979	99
Es	-1.849284	-0.104128	-0.138534	99
Es	2.437125	0.301828	0.324481	99
Es	-0.118989	-0.640636	0.583183	99
Es	2.115310	0.221632	1.549982	99
Es	1.250712	0.629187	0.740865	99
Es	-1.104252	-1.211384	-1.592603	99
Es	-1.802446	0.283866	-0.711122	99
Es	0.278595	1.288587	1.089865	99
Es	-1.924371	-0.908701	0.913384	99
Es	-2.001387	0.058185	-0.627966	99
Es	-2.216139	-1.637066	-1.281593	99
Es	2.500828	0.912703	0.557585	99
Es	-0.714400	-0.349413	0.779703	99
Es	-2.304674	0.098567	-0.615577	99
Es	-1.588277	-0.269403	0.692677	99
Es	0.060398	0.021352	0.706340	99
Es	2.846410	0.974908	-0.662570	99
Es	2.965405	0.706958	0.014473	99
Es	1.967801	0.492267	0.881775	99
Es	-2.086342	-0.831226	-2.182914	99
Es	0.523635	0.767141	0.606547	99
Es	-0.182973	-0.453163	0.805955	99
Es	-0.126185	-0.522995	1.083886	99
Es	-1.909991	-0.369566	-0.936175	99
Es	0.428427	1.015366	-0.092068	99
Es	-1.808023	0.288630	1.149246	99
Es	3.662377	0.557510	0.190133	99
45
Properties=species:S:1:pos:R:3:Z:I:1 energy=-344.9647783818839 field_type=dipole dipole="0.000000 0.000000 0.000000" charge=0
C	-1.827724	-1.033989	-1.520124	6
O	-2.001524	0.058461	-0.628044	8
C	-1.588474	-0.269429	0.692916	6
O	-0.182804	-0.453449	0.806006	8
C	0.523705	0.767351	0.606486	6
C	1.967906	0.492271	0.881716	6
C	2.965326	0.706921	0.014536	6
H	-2.206294	-0.737659	-2.501664	1
H	-2.394554	-1.905769	-1.179934	1
H	-0.767834	-1.288069	-1.620894	1
H	-2.084954	-1.188959	1.021436	1
H	-1.915174	0.529571	1.367716	1
H	0.165926	1.527711	1.310076	1
H	0.372275	1.126241	-0.417144	1
H	2.199146	0.086591	1.863366	1
H	2.782676	1.103411	-0.979824	1
H	3.992386	0.478791	0.283376	1
Es	-0.124163	-0.522785	1.080567	99
Es	3.662101	0.557488	0.190267	99
Es	-2.001386	0.058128	-0.627949	99
Es	-1.907691	-0.368337	-0.937536	99
Es	2.965406	0.706942	0.014465	99
Es	-1.827762	-1.033811	-1.519977	99
Es	2.115348	0.221942	1.550169	99
Es	-1.588276	-0.269396	0.692677	99
Es	2.437354	0.301913	0.324705	99
Es	0.523635	0.767138	0.606548	99
Es	0.278677	1.288611	1.089923	99
Es	-1.801985	0.283467	-0.707878	99
Es	-1.103934	-1.211198	-1.593292	99
Es	1.250383	0.629061	0.741034	99
Es	0.062188	0.020073	0.701835	99
Es	-2.216387	-1.637077	-1.281721	99
Es	-1.924420	-0.908605	0.913475	99
Es	2.846542	0.974416	-0.662952	99
Es	-1.808024	0.288536	1.149179	99
Es	-0.182966	-0.453131	0.805912	99
Es	0.428822	1.015293	-0.092309	99
Es	2.500631	0.912904	0.557427	99
Es	-0.715322	-0.350197	0.784025	99
Es	-2.086413	-0.831331	-2.182067	99
Es	-0.121923	-0.638661	0.586718	99
Es	-2.303553	0.099195	-0.618240	99
Es	1.967802	0.492269	0.881776	99
Es	-1.853152	-0.105658	-0.137805	99
45
Properties=species:S:1:pos:R:3:Z:I:1 energy=-344.9647783818839 field_type=dipole dipole="0.000000 0.000000 0.000000" charge=0
C	-1.827724	-1.033989	-1.520124	6
O	-2.001524	0.058461	-0.628044	8
C	-1.588474	-0.269429	0.692916	6
O	-0.182804	-0.453449	0.806006	8
C	0.523705	0.767351	0.606486	6
C	1.967906	0.492271	0.881716	6
C	2.965326	0.706921	0.014536	6
H	-2.206294	-0.737659	-2.501664	1
H	-2.394554	-1.905769	-1.179934	1
H	-0.767834	-1.288069	-1.620894	1
H	-2.084954	-1.188959	1.021436	1
H	-1.915174	0.529571	1.367716	1
H	0.165926	1.527711	1.310076	1
H	0.372275	1.126241	-0.417144	1
H	2.199146	0.086591	1.863366	1
H	2.782676	1.103411	-0.979824	1
H	3.992386	0.478791	0.283376	1
Es	-2.086395	-0.831357	-2.181318	99
Es	-1.924428	-0.908477	0.913554	99
Es	-1.803966	0.284819	-0.708318	99
Es	1.967801	0.492272	0.881776	99
Es	2.500482	0.912941	0.557309	99
Es	2.965407	0.706949	0.014468	99
Es	-2.001423	0.058225	-0.627995	99
Es	0.428964	1.015297	-0.092501	99
Es	-1.103645	-1.211020	-1.593826	99
Es	-0.715871	-0.350532	0.788146	99
Es	-2.302797	0.096408	-0.619517	99
Es	2.437521	0.301730	0.324777	99
Es	-1.905560	-0.367821	-0.937052	99
Es	-1.588274	-0.269398	0.692677	99
Es	2.846620	0.974174	-0.663171	99
Es	-1.827761	-1.033813	-1.519974	99
Es	-0.182919	-0.453261	0.805969	99
Es	-0.123771	-0.637593	0.588676	99
Es	1.250134	0.628959	0.741134	99
Es	0.523635	0.767139	0.606547	99
Es	0.062730	0.018691	0.698447	99
Es	3.661930	0.557541	0.190357	99
Es	2.115385	0.222292	1.550239	99
Es	-1.808040	0.288405	1.149135	99
Es	-2.216676	-1.637101	-1.281877	99
Es	-1.854054	-0.105039	-0.136601	99
Es	0.278860	1.288564	1.090044	99
Es	-0.122358	-0.521804	1.077872	99
45
Properties=species:S:1:pos:R:3:Z:I:1 energy=-344.9647783818839 field_type=dipole dipole="0.000000 0.000000 0.000000" charge=0
C	-1.827724	-1.033989	-1.520124	6
O	-2.001524	0.058461	-0.628044	8
C	-1.588474	-0.269429	0.692916	6
O	-0.182804	-0.453449	0.806006	8
C	0.523705	0.767351	0.606486	6
C	1.967906	0.492271	0.881716	6
C	2.965326	0.706921	0.014536	6
H	-2.206294	-0.737659	-2.501664	1
H	-2.394554	-1.905769	-1.179934	1
H	-0.767834	-1.288069	-1.620894	1
H	-2.084954	-1.188959	1.021436	1
H	-1.915174	0.529571	1.367716	1
H	0.165926	1.527711	1.310076	1
H	0.372275	1.126241	-0.417144	1
H	2.199146	0.086591	1.863366	1
H	2.782676	1.103411	-0.979824	1
H	3.992386	0.478791	0.283376	1
Es	-2.300338	0.097148	-0.622625	99
Es	-1.804825	0.283529	-0.705316	99
Es	0.064300	0.017035	0.694065	99
Es	-0.126244	-0.636853	0.591897	99
Es	-0.182991	-0.453117	0.805926	99
Es	0.278860	1.288522	1.090051	99
Es	-0.121117	-0.520373	1.072800	99
Es	-1.103508	-1.210891	-1.594232	99
Es	0.523636	0.767142	0.606547	99
Es	-0.716124	-0.351046	0.794459	99
Es	3.661973	0.557781	0.190446	99
Es	-1.827761	-1.033813	-1.519978	99
Es	1.249913	0.628725	0.741217	99
Es	2.846477	0.973873	-0.663337	99
Es	-1.807845	0.288279	1.148820	99
Es	0.429114	1.015248	-0.092597	99
Es	-1.588275	-0.269400	0.692676	99
Es	2.965407	0.706950	0.014469	99
Es	-1.902981	-0.366539	-0.938886	99
Es	-1.924649	-0.908368	0.913871	99
Es	2.500208	0.912878	0.557037	99
Es	2.437813	0.301848	0.325054	99
Es	-2.001434	0.058276	-0.627940	99
Es	1.967800	0.492271	0.881777	99
Es	2.115557	0.222531	1.550325	99
Es	-1.858190	-0.105934	-0.134789	99
Es	-2.216747	-1.637089	-1.281866	99
Es	-2.086499	-0.831426	-2.180891	99
45
Properties=species:S:1:pos:R:3:Z:I:1 energy=-344.9647783818839 field_type=dipole dipole="0.000000 0.000000 0.000000" charge=0
C	-1.827724	-1.033989	-1.520124	6
O	-2.001524	0.058461	-0.628044	8
C	-1.588474	-0.269429	0.692916	6
O	-0.182804	-0.453449	0.806006	8
C	0.523705	0.767351	0.606486	6
C	1.967906	0.492271	0.881716	6
C	2.965326	0.706921	0.014536	6
H	-2.206294	-0.737659	-2.501664	1
H	-2.394554	-1.905769	-1.179934	1
H	-0.767834	-1.288069	-1.620894	1
H	-2.084954	-1.188959	1.021436	1
H	-1.915174	0.529571	1.367716	1
H	0.165926	1.527711	1.310076	1
H	0.372275	1.126241	-0.417144	1
H	2.199146	0.086591	1.863366	1
H	2.782676	1.103411	-0.979824	1
H	3.992386	0.478791	0.283376	1
Es	2.965407	0.706950	0.014467	99
Es	-2.300355	0.097338	-0.622574	99
Es	-1.805407	0.283472	-0.704375	99
Es	-1.103285	-1.210764	-1.594739	99
Es	-2.216875	-1.637021	-1.281953	99
Es	-1.924594	-0.908265	0.913938	99
Es	0.278956	1.288486	1.090035	99
Es	-1.902240	-0.366408	-0.939724	99
Es	-0.183030	-0.453082	0.806041	99
Es	2.437905	0.301792	0.325148	99
Es	-2.086587	-0.831517	-2.180287	99
Es	-2.001397	0.058191	-0.627933	99
Es	0.066161	0.015330	0.690810	99
Es	2.846731	0.973565	-0.663686	99
Es	1.967799	0.492269	0.881775	99
Es	-1.588275	-0.269400	0.692676	99
Es	-0.127855	-0.635272	0.595386	99
Es	0.523637	0.767147	0.606548	99
Es	3.661584	0.557749	0.190593	99
Es	-0.121057	-0.519745	1.070185	99
Es	2.500097	0.913071	0.556936	99
Es	0.429383	1.015191	-0.092814	99
Es	-0.716456	-0.351390	0.796808	99
Es	-1.827762	-1.033818	-1.519981	99
Es	1.249758	0.628677	0.741418	99
Es	-1.858401	-0.106319	-0.135007	99
Es	-1.807883	0.288187	1.148791	99
Es	2.115569	0.222773	1.550497	99
45
Properties=species:S:1:pos:R:3:Z:I:1 energy=-344.9647783818839 field_type=dipole dipole="0.000000 0.000000 0.000000" charge=0
C	-1.827724	-1.033989	-1.520124	6
O	-2.001524	0.058461	-0.628044	8
C	-1.588474	-0.269429	0.692916	6
O	-0.182804	-0.453449	0.806006	8
C	0.523705	0.767351	0.606486	6
C	1.967906	0.492271	0.881716	6
C	2.965326	0.706921	0.014536	6
H	-2.206294	-0.737659	-2.501664	1
H	-2.394554	-1.905769	-1.179934	1
H	-0.767834	-1.288069	-1.620894	1
H	-2.084954	-1.188959	1.021436	1
H	-1.915174	0.529571	1.367716	1
H	0.165926	1.527711	1.310076	1
H	0.372275	1.126241	-0.417144	1
H	2.199146	0.086591	1.863366	1
H	2.782676	1.103411	-0.979824	1
H	3.992386	0.478791	0.283376	1
Es	0.523636	0.767139	0.606547	99
Es	-1.924671	-0.908160	0.914018	99
Es	-1.860655	-0.106685	-0.133959	99
Es	-1.827761	-1.033813	-1.519978	99
Es	-2.217133	-1.636971	-1.281854	99
Es	-1.808357	0.283371	-0.701765	99
Es	-0.130757	-0.631689	0.595514	99
Es	0.429636	1.015129	-0.092992	99
Es	1.967800	0.492272	0.881776	99
Es	-1.898257	-0.364694	-0.941836	99
Es	2.965406	0.706948	0.014467	99
Es	0.279064	1.288438	1.089899	99
Es	2.115616	0.223008	1.550487	99
Es	-0.182966	-0.453169	0.805975	99
Es	-1.103129	-1.210675	-1.595185	99
Es	-1.807852	0.288122	1.148692	99
Es	2.846775	0.973279	-0.663850	99
Es	-2.298968	0.095918	-0.624284	99
Es	3.661509	0.557906	0.190731	99
Es	-2.086646	-0.831531	-2.179764	99
Es	-1.588274	-0.269404	0.692674	99
Es	-2.001391	0.058169	-0.627944	99
Es	1.249465	0.628544	0.741610	99
Es	2.499962	0.913136	0.556765	99
Es	-0.716211	-0.351845	0.800918	99
Es	-0.119972	-0.522319	1.066643	99
Es	0.067555	0.015010	0.690307	99
Es	2.438107	0.301755	0.325367	99
45
Properties=species:S:1:pos:R:3:Z:I:1 energy=-344.9647783818839 field_type=dipole dipole="0.000000 0.000000 0.000000" charge=0
C	-1.827724	-1.033989	-1.520124	6
O	-2.001524	0.058461	-0.628044	8
C	-1.588474	-0.269429	0.692916	6
O	-0.182804	-0.453449	0.806006	8
C	0.523705	0.767351	0.606486	6
C	1.967906	0.492271	0.881716	6
C	2.965326	0.706921	0.014536	6
H	-2.206294	-0.737659	-2.501664	1
H	-2.394554	-1.905769	-1.179934	1
H	-0.767834	-1.288069	-1.620894	1
H	-2.084954	-1.188959	1.021436	1
H	-1.915174	0.529571	1.367716	1
H	0.165926	1.527711	1.310076	1
H	0.372275	1.126241	-0.417144	1
H	2.199146	0.086591	1.863366	1
H	2.782676	1.103411	-0.979824	1
H	3.992386	0.478791	0.283376	1
Es	-1.588275	-0.269399	0.692676	99
Es	-1.807820	0.288033	1.148646	99
Es	-1.102905	-1.210438	-1.595835	99
Es	2.115748	0.223315	1.550648	99
Es	-0.716969	-0.353031	0.799771	99
Es	-1.863381	-0.106560	-0.132783	99
Es	2.846737	0.973069	-0.663972	99
Es	-1.806972	0.282593	-0.701919	99
Es	-1.827763	-1.033812	-1.519981	99
Es	-0.182928	-0.453215	0.805956	99
Es	2.499669	0.913034	0.556540	99
Es	1.249374	0.628444	0.741673	99
Es	0.068258	0.012623	0.684935	99
Es	-1.924683	-0.908087	0.914087	99
Es	-2.086667	-0.831679	-2.178968	99
Es	-0.121586	-0.516634	1.066727	99
Es	-2.001415	0.058214	-0.627950	99
Es	-2.297138	0.096960	-0.626083	99
Es	3.661485	0.558038	0.190803	99
Es	2.438298	0.301716	0.325446	99
Es	0.523636	0.767139	0.606547	99
Es	2.965407	0.706948	0.014468	99
Es	0.429743	1.015072	-0.093065	99
Es	-1.898904	-0.365237	-0.940890	99
Es	-0.128933	-0.633643	0.601818	99
Es	-2.217184	-1.636994	-1.282169	99
Es	1.967798	0.492272	0.881774	99
Es	0.278901	1.288448	1.090078	99
45
Properties=species:S:1:pos:R:3:Z:I:1 energy=-344.9647783818839 field_type=dipole dipole="0.000000 0.000000 0.000000" charge=0
C	-1.827724	-1.033989	-1.520124	6
O	-2.001524	0.058461	-0.628044	8
C	-1.588474	-0.269429	0.692916	6
O	-0.182804	-0.453449	0.806006	8
C	0.523705	0.767351	0.606486	6
C	1.967906	0.492271	0.881716	6
C	2.965326	0.706921	0.014536	6
H	-2.206294	-0.737659	-2.501664	1
H	-2.394554	-1.905769	-1.179934	1
H	-0.767834	-1.288069	-1.620894	1
H	-2.084954	-1.188959	1.021436	1
H	-1.915174	0.529571	1.367716	1
H	0.165926	1.527711	1.310076	1
H	0.372275	1.126241	-0.417144	1
H	2.199146	0.086591	1.863366	1
H	2.782676	1.103411	-0.979824	1
H	3.992386	0.478791	0.283376	1
Es	-2.295825	0.097110	-0.626185	99
Es	2.115712	0.223505	1.550657	99
Es	0.523638	0.767139	0.606548	99
Es	-2.217329	-1.637001	-1.282204	99
Es	1.249103	0.628368	0.741600	99
Es	-1.102896	-1.210401	-1.596042	99
Es	2.965408	0.706949	0.014468	99
Es	0.279026	1.288501	1.090249	99
Es	-1.924598	-0.908032	0.913977	99
Es	-2.086606	-0.831694	-2.178714	99
Es	-1.863946	-0.106228	-0.132048	99
Es	0.070934	0.009431	0.680823	99
Es	2.846821	0.972884	-0.664064	99
Es	-0.131024	-0.631422	0.606240	99
Es	-1.898518	-0.365256	-0.941894	99
Es	0.429900	1.015046	-0.093149	99
Es	-0.182966	-0.453147	0.805939	99
Es	-1.827760	-1.033811	-1.519977	99
Es	-1.588274	-0.269390	0.692676	99
Es	-0.122138	-0.515983	1.064242	99
Es	-2.001397	0.058203	-0.627964	99
Es	-1.807922	0.288011	1.148744	99
Es	3.661388	0.558039	0.190857	99
Es	1.967802	0.492272	0.881777	99
Es	2.438380	0.301621	0.325517	99
Es	-0.716961	-0.352718	0.801936	99
Es	2.499630	0.913143	0.556505	99
Es	-1.808049	0.282051	-0.701537	99
45
Properties=species:S:1:pos:R:3:Z:I:1 energy=-344.9647783818839 field_type=dipole dipole="0.000000 0.000000 0.000000" charge=0
C	-1.827724	-1.033989	-1.520124	6
O	-2.001524	0.058461	-0.628044	8
C	-1.588474	-0.269429	0.692916	6
O	-0.182804	-0.453449	0.806006	8
C	0.523705	0.767351	0.606486	6
C	1.967906	0.492271	0.881716	6
C	2.965326	0.706921	0.014536	6
H	-2.206294	-0.737659	-2.501664	1
H	-2.394554	-1.905769	-1.179934	1
H	-0.767834	-1.288069	-1.620894	1
H	-2.084954	-1.188959	1.021436	1
H	-1.915174	0.529571	1.367716	1
H	0.165926	1.527711	1.310076	1
H	0.372275	1.126241	-0.417144	1
H	2.199146	0.086591	1.863366	1
H	2.782676	1.103411	-0.979824	1
H	3.992386	0.478791	0.283376	1
Es	0.523636	0.767140	0.606547	99
Es	-0.122772	-0.514348	1.063343	99
Es	-1.588274	-0.269397	0.692676	99
Es	-0.717251	-0.353152	0.802223	99
Es	-2.001396	0.058195	-0.627958	99
Es	3.661423	0.558124	0.190821	99
Es	-1.865714	-0.106998	-0.131989	99
Es	-1.827763	-1.033816	-1.519984	99
Es	2.965407	0.706951	0.014469	99
Es	0.278976	1.288573	1.090321	99
Es	-1.898511	-0.365121	-0.943002	99
Es	1.967801	0.492271	0.881776	99
Es	-1.102802	-1.210307	-1.596368	99
Es	-0.182982	-0.453096	0.805783	99
Es	2.115603	0.223706	1.550762	99
Es	2.499531	0.913309	0.556432	99
Es	-1.808097	0.287981	1.148934	99
Es	-1.924373	-0.907933	0.913835	99
Es	1.248944	0.628266	0.741623	99
Es	-0.131661	-0.629736	0.611107	99
Es	2.846722	0.972624	-0.664106	99
Es	0.072488	0.006574	0.676619	99
Es	-2.217408	-1.636982	-1.282299	99
Es	0.430232	1.014969	-0.093227	99
Es	2.438542	0.301526	0.325651	99
Es	-1.807816	0.281733	-0.700243	99
Es	-2.086592	-0.831834	-2.178307	99
Es	-2.294362	0.097968	-0.626462	99
45
Properties=species:S:1:pos:R:3:Z:I:1 energy=-344.9647783818839 field_type=dipole dipole="0.000000 0.000000 0.000000" charge=0
C	-1.827724	-1.033989	-1.520124	6
O	-2.001524	0.058461	-0.628044	8
C	-1.588474	-0.269429	0.692916	6
O	-0.182804	-0.453449	0.806006	8
C	0.523705	0.767351	0.606486	6
C	1.967906	0.492271	0.881716	6
C	2.965326	0.706921	0.014536	6
H	-2.206294	-0.737659	-2.501664	1
H	-2.394554	-1.905769	-1.179934	1
H	-0.767834	-1.288069	-1.620894	1
H	-2.084954	-1.188959	1.021436	1
H	-1.915174	0.529571	1.367716	1
H	0.165926	1.527711	1.310076	1
H	0.372275	1.126241	-0.417144	1
H	2.199146	0.086591	1.863366	1
H	2.782676	1.103411	-0.979824	1
H	3.992386	0.478791	0.283376	1
Es	-1.809020	0.280927	-0.699988	99
Es	-2.217587	-1.637020	-1.282289	99
Es	-1.827763	-1.033811	-1.519979	99
Es	0.430242	1.014923	-0.093245	99
Es	2.846944	0.972391	-0.664307	99
Es	-0.717090	-0.353571	0.804835	99
Es	2.438698	0.301458	0.325725	99
Es	-0.122776	-0.514012	1.060879	99
Es	1.248924	0.628244	0.741676	99
Es	-2.086545	-0.831866	-2.177901	99
Es	1.967801	0.492273	0.881777	99
Es	-0.132943	-0.627682	0.613141	99
Es	-0.182973	-0.453139	0.805935	99
Es	0.073754	0.004685	0.674213	99
Es	-1.865726	-0.106391	-0.131311	99
Es	-2.293826	0.098029	-0.626713	99
Es	3.661202	0.558334	0.191057	99
Es	-1.897708	-0.364990	-0.943744	99
Es	2.499269	0.913336	0.556222	99
Es	-1.588274	-0.269398	0.692674	99
Es	0.278833	1.288530	1.090391	99
Es	2.115716	0.223865	1.550835	99
Es	-1.808018	0.287926	1.148845	99
Es	0.523637	0.767142	0.606547	99
Es	-2.001408	0.058193	-0.627947	99
Es	-1.102746	-1.210190	-1.596703	99
Es	-1.924492	-0.907954	0.913883	99
Es	2.965406	0.706955	0.014470	99
45
Properties=species:S:1:pos:R:3:Z:I:1 energy=-344.9647783818839 field_type=dipole dipole="0.000000 0.000000 0.000000" charge=0
C	-1.827724	-1.033989	-1.520124	6
O	-2.001524	0.058461	-0.628044	8
C	-1.588474	-0.269429	0.692916	6
O	-0.182804	-0.453449	0.806006	8
C	0.523705	0.767351	0.606486	6
C	1.967906	0.492271	0.881716	6
C	2.965326	0.706921	0.014536	6
H	-2.206294	-0.737659	-2.501664	1
H	-2.394554	-1.905769	-1.179934	1
H	-0.767834	-1.288069	-1.620894	1
H	-2.084954	-1.188959	1.021436	1
H	-1.915174	0.529571	1.367716	1
H	0.165926	1.527711	1.310076	1
H	0.372275	1.126241	-0.417144	1
H	2.199146	0.086591	1.863366	1
H	2.782676	1.103411	-0.979824	1
H	3.992386	0.478791	0.283376	1
Es	1.967800	0.492271	0.881776	99
Es	-2.001428	0.058248	-0.627954	99
Es	0.523636	0.767137	0.606547	99
Es	-0.182919	-0.453223	0.805955	99
Es	2.965407	0.706946	0.014468	99
Es	0.279095	1.288502	1.090359	99
Es	0.430385	1.014953	-0.093326	99
Es	-0.717275	-0.354533	0.806279	99
Es	-0.133237	-0.626011	0.614551	99
Es	1.248612	0.628040	0.741699	99
Es	2.438782	0.301484	0.325819	99
Es	-2.217681	-1.636985	-1.282362	99
Es	0.074410	0.004010	0.673736	99
Es	-1.588274	-0.269398	0.692674	99
Es	-2.086495	-0.831848	-2.177804	99
Es	2.499255	0.913343	0.556210	99
Es	-1.811317	0.279981	-0.697385	99
Es	-1.827762	-1.033812	-1.519978	99
Es	3.661173	0.558414	0.191064	99
Es	-1.807898	0.287886	1.148611	99
Es	-1.895205	-0.363248	-0.946179	99
Es	-1.102723	-1.210220	-1.596745	99
Es	-1.924625	-0.907914	0.914092	99
Es	-0.123187	-0.513850	1.058613	99
Es	2.115785	0.223901	1.550765	99
Es	-2.292672	0.097860	-0.627118	99
Es	-1.867046	-0.107179	-0.131060	99
Es	2.846933	0.972434	-0.664331	99
45
Properties=species:S:1:pos:R:3:Z:I:1 energy=-344.9647783818839 field_type=dipole dipole="0.000000 0.000000 0.000000" charge=0
C	-1.827724	-1.033989	-1.520124	6
O	-2.001524	0.058461	-0.628044	8
C	-1.588474	-0.269429	0.692916	6
O	-0.182804	-0.453449	0.806006	8
C	0.523705	0.767351	0.606486	6
C	1.967906	0.492271	0.881716	6
C	2.965326	0.706921	0.014536	6
H	-2.206294	-0.737659	-2.501664	1
H	-2.394554	-1.905769	-1.179934	1
H	-0.767834	-1.288069	-1.620894	1
H	-2.084954	-1.188959	1.021436	1
H	-1.915174	0.529571	1.367716	1
H	0.165926	1.527711	1.310076	1
H	0.372275	1.126241	-0.417144	1
H	2.199146	0.086591	1.863366	1
H	2.782676	1.103411	-0.979824	1
H	3.992386	0.478791	0.283376	1
Es	2.965408	0.706949	0.014469	99
Es	-2.292780	0.097737	-0.627822	99
Es	-2.217684	-1.636988	-1.282475	99
Es	2.499178	0.913412	0.556089	99
Es	-1.867275	-0.106866	-0.130657	99
Es	-2.001409	0.058178	-0.627944	99
Es	2.846975	0.972329	-0.664438	99
Es	1.967800	0.492274	0.881777	99
Es	3.661088	0.558477	0.191140	99
Es	2.115795	0.224068	1.550834	99
Es	-1.102688	-1.210138	-1.596994	99
Es	-1.924556	-0.907853	0.914106	99
Es	-0.123116	-0.514740	1.056111	99
Es	0.430578	1.014977	-0.093474	99
Es	-0.182982	-0.453118	0.805937	99
Es	1.248426	0.627926	0.741792	99
Es	-2.086518	-0.831878	-2.177534	99
Es	-1.894483	-0.363055	-0.945791	99
Es	2.438847	0.301405	0.325931	99
Es	0.075449	0.003056	0.673071	99
Es	-1.827761	-1.033814	-1.519979	99
Es	0.279125	1.288429	1.090424	99
Es	-1.807935	0.287804	1.148608	99
Es	-1.811761	0.279567	-0.697443	99
Es	-1.588274	-0.269392	0.692677	99
Es	-0.134576	-0.624133	0.615070	99
Es	0.523637	0.767141	0.606548	99
Es	-0.716978	-0.354566	0.808948	99
45
Properties=species:S:1:pos:R:3:Z:I:1 energy=-344.9647783818839 field_type=dipole dipole="0.000000 0.000000 0.000000" charge=0
C	-1.827724	-1.033989	-1.520124	6
O	-2.001524	0.058461	-0.628044	8
C	-1.588474	-0.269429	0.692916	6
O	-0.182804	-0.453449	0.806006	8
C	0.523705	0.767351	0.606486	6
C	1.967906	0.492271	0.881716	6
C	2.965326	0.706921	0.014536	6
H	-2.206294	-0.737659	-2.501664	1
H	-2.394554	-1.905769	-1.179934	1
H	-0.767834	-1.288069	-1.620894	1
H	-2.084954	-1.188959	1.021436	1
H	-1.915174	0.529571	1.367716	1
H	0.165926	1.527711	1.310076	1
H	0.372275	1.126241	-0.417144	1
H	2.199146	0.086591	1.863366	1
H	2.782676	1.103411	-0.979824	1
H	3.992386	0.478791	0.283376	1
Es	1.967801	0.492271	0.881776	99
Es	2.847155	0.972260	-0.664446	99
Es	-1.813729	0.279436	-0.696504	99
Es	-0.123696	-0.513967	1.056735	99
Es	-0.717303	-0.354918	0.807531	99
Es	-0.182891	-0.453296	0.805988	99
Es	-1.588274	-0.269401	0.692675	99
Es	-2.001420	0.058163	-0.627931	99
Es	-1.827761	-1.033816	-1.519979	99
Es	3.660989	0.558539	0.191230	99
Es	-2.217967	-1.637001	-1.282545	99
Es	-1.808026	0.287811	1.148718	99
Es	-1.867604	-0.106778	-0.130427	99
Es	2.438860	0.301286	0.325913	99
Es	0.430806	1.014869	-0.093491	99
Es	2.115671	0.224095	1.550858	99
Es	2.499145	0.913550	0.556075	99
Es	-1.893147	-0.362503	-0.947380	99
Es	2.965407	0.706948	0.014468	99
Es	0.523637	0.767141	0.606548	99
Es	-1.102598	-1.210010	-1.597607	99
Es	0.279029	1.288479	1.090274	99
Es	1.248403	0.628006	0.741878	99
Es	-0.134799	-0.622302	0.618146	99
Es	-1.924453	-0.907852	0.914000	99
Es	-2.086418	-0.832014	-2.176783	99
Es	0.076417	0.001004	0.670732	99
Es	-2.291706	0.097187	-0.627472	99
45
Properties=species:S:1:pos:R:3:Z:I:1 energy=-344.9647783818839 field_type=dipole dipole="0.000000 0.000000 0.000000" charge=0
C	-1.827724	-1.033989	-1.520124	6
O	-2.001524	0.058461	-0.628044	8
C	-1.588474	-0.269429	0.692916	6
O	-0.182804	-0.453449	0.806006	8
C	0.523705	0.767351	0.606486	6
C	1.967906	0.492271	0.881716	6
C	2.965326	0.706921	0.014536	6
H	-2.206294	-0.737659	-2.501664	1
H	-2.394554	-1.905769	-1.179934	1
H	-0.767834	-1.288069	-1.620894	1
H	-2.084954	-1.188959	1.021436	1
H	-1.915174	0.529571	1.367716	1
H	0.165926	1.527711	1.310076	1
H	0.372275	1.126241	-0.417144	1
H	2.199146	0.086591	1.863366	1
H	2.782676	1.103411	-0.979824	1
H	3.992386	0.478791	0.283376	1
Es	1.967801	0.492271	0.881775	99
Es	1.248259	0.627733	0.741815	99
Es	2.846930	0.972251	-0.664398	99
Es	-0.124151	-0.513913	1.055007	99
Es	-1.889871	-0.360425	-0.949736	99
Es	2.965407	0.706946	0.014467	99
Es	-1.868344	-0.106750	-0.129947	99
Es	-0.182980	-0.453121	0.805964	99
Es	2.438982	0.301252	0.326037	99
Es	-2.290427	0.095466	-0.627493	99
Es	-1.102644	-1.209915	-1.597683	99
Es	0.430745	1.014898	-0.093450	99
Es	3.661120	0.558748	0.191141	99
Es	-0.717380	-0.355428	0.808501	99
Es	0.279244	1.288465	1.090310	99
Es	2.499146	0.913660	0.556079	99
Es	-2.001407	0.058202	-0.627957	99
Es	-1.807733	0.287746	1.148295	99
Es	2.115755	0.224066	1.550698	99
Es	-0.134795	-0.621602	0.618895	99
Es	0.076966	0.000621	0.670832	99
Es	-2.086399	-0.831985	-2.176723	99
Es	-1.588274	-0.269399	0.692675	99
Es	-2.218008	-1.637073	-1.282493	99
Es	-1.827761	-1.033811	-1.519978	99
Es	-1.924800	-0.907841	0.914363	99
Es	0.523637	0.767142	0.606547	99
Es	-1.817487	0.278984	-0.694566	99
45
Properties=species:S:1:pos:R:3:Z:I:1 energy=-344.9647783818839 field_type=dipole dipole="0.000000 0.000000 0.000000" charge=0
C	-1.827724	-1.033989	-1.520124	6
O	-2.001524	0.058461	-0.628044	8
C	-1.588474	-0.269429	0.692916	6
O	-0.182804	-0.453449	0.806006	8
C	0.523705	0.767351	0.606486	6
C	1.967906	0.492271	0.881716	6
C	2.965326	0.706921	0.014536	6
H	-2.206294	-0.737659	-2.501664	1
H	-2.394554	-1.905769	-1.179934	1
H	-0.767834	-1.288069	-1.620894	1
H	-2.084954	-1.188959	1.021436	1
H	-1.915174	0.529571	1.367716	1
H	0.165926	1.527711	1.310076	1
H	0.372275	1.126241	-0.417144	1
H	2.199146	0.086591	1.863366	1
H	2.782676	1.103411	-0.979824	1
H	3.992386	0.478791	0.283376	1
Es	3.660875	0.558782	0.191301	99
Es	-0.182875	-0.453319	0.805979	99
Es	-1.924583	-0.907809	0.914136	99
Es	0.523637	0.767142	0.606548	99
Es	-0.134756	-0.620834	0.621853	99
Es	-0.717302	-0.356192	0.809930	99
Es	-1.588274	-0.269401	0.692674	99
Es	-1.807922	0.287748	1.148549	99
Es	-2.292150	0.094394	-0.626389	99
Es	0.279214	1.288519	1.090489	99
Es	1.967802	0.492274	0.881777	99
Es	-1.827761	-1.033813	-1.519979	99
Es	2.439037	0.301138	0.326064	99
Es	2.115772	0.224295	1.550843	99
Es	-2.218026	-1.637040	-1.282547	99
Es	-1.102599	-1.209874	-1.597830	99
Es	2.498985	0.913723	0.555922	99
Es	-1.891095	-0.361401	-0.948406	99
Es	1.248012	0.627707	0.741889	99
Es	0.431032	1.014837	-0.093611	99
Es	-1.817256	0.280315	-0.696607	99
Es	-0.124469	-0.511415	1.053943	99
Es	0.077098	-0.001599	0.667446	99
Es	2.847151	0.972033	-0.664595	99
Es	-2.086383	-0.832084	-2.176539	99
Es	-1.865639	-0.106072	-0.130372	99
Es	2.965406	0.706947	0.014468	99
Es	-2.001400	0.058187	-0.627958	99
