43
Properties=species:S:1:pos:R:3:Z:I:1 energy=-270.90576261977674 field_type=dipole dipole="0.000000 0.000000 0.000000" charge=0
C	-0.179096	-2.098002	-0.874025	6
C	-0.528826	-1.052022	0.179785	6
C	0.040444	0.342648	-0.139165	6
C	-0.446737	1.340458	0.885775	6
C	-1.201836	2.411808	0.605165	6
C	1.484443	0.342648	-0.139165	6
C	2.674604	0.342648	-0.139165	6
H	-0.675806	-3.045582	-0.641785	1
H	0.898054	-2.289083	-0.907795	1
H	-0.505006	-1.779042	-1.869045	1
H	-0.169766	-1.403592	1.156205	1
H	-1.622766	-0.991572	0.249575	1
H	-0.317906	0.640068	-1.133515	1
H	-0.156776	1.163178	1.920575	1
H	-1.517436	2.639708	-0.408105	1
H	-1.515726	3.089818	1.392795	1
H	3.740144	0.345918	-0.138105	1
Es	-1.274418	-1.001050	0.223347	99
Es	-0.521079	-2.741204	-0.712374	99
Es	-0.404085	-1.874042	-1.552375	99
Es	-0.279048	-1.283837	0.847212	99
Es	-0.187714	0.544040	-0.807299	99
Es	0.788323	0.340135	-0.136691	99
Es	2.092688	0.008029	-0.007026	99
Es	2.088990	0.394555	-0.490364	99
Es	0.550630	-2.224168	-0.895955	99
Es	-0.446660	1.340342	0.885763	99
Es	-1.201891	2.411883	0.605141	99
Es	0.040547	0.342651	-0.139110	99
Es	-1.105363	1.702800	0.783416	99
Es	-0.528786	-1.051988	0.179742	99
Es	-0.245266	1.207869	1.582714	99
Es	-1.418070	2.569302	-0.082205	99
Es	-0.188096	0.840829	0.369826	99
Es	-0.345481	-1.566253	-0.352675	99
Es	-0.216755	-0.336772	0.022102	99
Es	2.090513	0.620828	0.085182	99
Es	1.484175	0.342645	-0.139179	99
Es	-0.564484	2.062663	0.697336	99
Es	-0.179114	-2.097978	-0.874000	99
Es	3.371354	0.344234	-0.138509	99
Es	2.674864	0.342665	-0.139158	99
Es	-1.418974	2.874275	1.133775	99
43
Properties=species:S:1:pos:R:3:Z:I:1 energy=-270.90576261977674 field_type=dipole dipole="0.000000 0.000000 0.000000" charge=0
C	-0.179096	-2.098002	-0.874025	6
C	-0.528826	-1.052022	0.179785	6
C	0.040444	0.342648	-0.139165	6
C	-0.446737	1.340458	0.885775	6
C	-1.201836	2.411808	0.605165	6
C	1.484443	0.342648	-0.139165	6
C	2.674604	0.342648	-0.139165	6
H	-0.675806	-3.045582	-0.641785	1
H	0.898054	-2.289083	-0.907795	1
H	-0.505006	-1.779042	-1.869045	1
H	-0.169766	-1.403592	1.156205	1
H	-1.622766	-0.991572	0.249575	1
H	-0.317906	0.640068	-1.133515	1
H	-0.156776	1.163178	1.920575	1
H	-1.517436	2.639708	-0.408105	1
H	-1.515726	3.089818	1.392795	1
H	3.740144	0.345918	-0.138105	1
Es	3.372855	0.339969	-0.137629	99
Es	0.791037	0.342461	-0.137713	99
Es	-0.179115	-2.097977	-0.874002	99
Es	-0.528786	-1.051988	0.179741	99
Es	-1.422562	2.871046	1.132656	99
Es	1.484164	0.342657	-0.139165	99
Es	2.674861	0.342653	-0.139186	99
Es	-0.522596	-2.738444	-0.712673	99
Es	-1.201908	2.411876	0.605143	99
Es	-0.446657	1.340346	0.885761	99
Es	2.091000	0.147684	-0.425131	99
Es	-0.242282	1.209768	1.580406	99
Es	-1.421771	2.567391	-0.080102	99
Es	2.093472	0.701525	-0.164550	99
Es	-1.278398	-1.001073	0.223281	99
Es	-0.345752	-1.566101	-0.352684	99
Es	-0.405709	-1.874301	-1.550078	99
Es	-0.559890	2.065696	0.696699	99
Es	-0.186605	0.841168	0.369390	99
Es	-1.108399	1.701061	0.784210	99
Es	0.555194	-2.225009	-0.895881	99
Es	0.040545	0.342653	-0.139111	99
Es	-0.216738	-0.336359	0.021777	99
Es	-0.189185	0.543604	-0.805384	99
Es	2.087476	0.175840	0.177577	99
Es	-0.277452	-1.283693	0.845281	99
43
Properties=species:S:1:pos:R:3:Z:I:1 energy=-270.90576261977674 field_type=dipole dipole="0.000000 0.000000 0.000000" charge=0
C	-0.179096	-2.098002	-0.874025	6
C	-0.528826	-1.052022	0.179785	6
C	0.040444	0.342648	-0.139165	6
C	-0.446737	1.340458	0.885775	6
C	-1.201836	2.411808	0.605165	6
C	1.484443	0.342648	-0.139165	6
C	2.674604	0.342648	-0.139165	6
H	-0.675806	-3.045582	-0.641785	1
H	0.898054	-2.289083	-0.907795	1
H	-0.505006	-1.779042	-1.869045	1
H	-0.169766	-1.403592	1.156205	1
H	-1.622766	-0.991572	0.249575	1
H	-0.317906	0.640068	-1.133515	1
H	-0.156776	1.163178	1.920575	1
H	-1.517436	2.639708	-0.408105	1
H	-1.515726	3.089818	1.392795	1
H	3.740144	0.345918	-0.138105	1
Es	2.087204	0.184185	0.178139	99
Es	0.792488	0.343677	-0.138252	99
Es	-0.189863	0.543330	-0.804186	99
Es	-1.201903	2.411883	0.605145	99
Es	1.484164	0.342653	-0.139174	99
Es	-0.406352	-1.874272	-1.548700	99
Es	-0.216846	-0.335992	0.021601	99
Es	0.040545	0.342654	-0.139110	99
Es	-1.109918	1.699917	0.784936	99
Es	2.674876	0.342642	-0.139164	99
Es	-1.423677	2.566148	-0.078756	99
Es	-0.240877	1.211188	1.578821	99
Es	3.373250	0.337327	-0.137003	99
Es	-0.345844	-1.565848	-0.352815	99
Es	-0.446654	1.340346	0.885761	99
Es	-0.523556	-2.736745	-0.712886	99
Es	-0.276476	-1.283804	0.844187	99
Es	-1.280283	-1.001063	0.223142	99
Es	-0.185531	0.841329	0.369095	99
Es	0.557246	-2.225610	-0.895667	99
Es	-0.557952	2.067351	0.696199	99
Es	-0.179114	-2.097977	-0.874002	99
Es	2.091445	0.139174	-0.408282	99
Es	2.093333	0.702690	-0.182081	99
Es	-1.424120	2.869259	1.131942	99
Es	-0.528785	-1.051988	0.179742	99
43
Properties=species:S:1:pos:R:3:Z:I:1 energy=-270.90576261977674 field_type=dipole dipole="0.000000 0.000000 0.000000" charge=0
C	-0.179096	-2.098002	-0.874025	6
C	-0.528826	-1.052022	0.179785	6
C	0.040444	0.342648	-0.139165	6
C	-0.446737	1.340458	0.885775	6
C	-1.201836	2.411808	0.605165	6
C	1.484443	0.342648	-0.139165	6
C	2.674604	0.342648	-0.139165	6
H	-0.675806	-3.045582	-0.641785	1
H	0.898054	-2.289083	-0.907795	1
H	-0.505006	-1.779042	-1.869045	1
H	-0.169766	-1.403592	1.156205	1
H	-1.622766	-0.991572	0.249575	1
H	-0.317906	0.640068	-1.133515	1
H	-0.156776	1.163178	1.920575	1
H	-1.517436	2.639708	-0.408105	1
H	-1.515726	3.089818	1.392795	1
H	3.740144	0.345918	-0.138105	1
Es	-1.201903	2.411880	0.605143	99
Es	0.558361	-2.226253	-0.895521	99
Es	-1.281320	-1.000765	0.222962	99
Es	-0.528788	-1.051988	0.179741	99
Es	-0.184967	0.841404	0.368974	99
Es	1.484160	0.342655	-0.139164	99
Es	-0.557014	2.068498	0.695953	99
Es	0.040546	0.342652	-0.139110	99
Es	-0.523795	-2.735174	-0.712808	99
Es	2.674882	0.342638	-0.139156	99
Es	-0.345841	-1.565877	-0.352829	99
Es	-0.190281	0.543206	-0.803527	99
Es	2.091458	0.606946	-0.382779	99
Es	-0.275729	-1.283951	0.843655	99
Es	-0.216785	-0.335569	0.021177	99
Es	2.088670	0.430990	0.168133	99
Es	3.373473	0.336732	-0.135832	99
Es	-1.110076	1.699594	0.785241	99
Es	2.091797	-0.013048	-0.198952	99
Es	-1.425549	2.867929	1.131654	99
Es	-1.424967	2.564834	-0.077920	99
Es	-0.239981	1.212185	1.577860	99
Es	-0.179114	-2.097977	-0.873999	99
Es	-0.446656	1.340343	0.885762	99
Es	-0.407227	-1.874169	-1.548121	99
Es	0.793444	0.344738	-0.137905	99
43
Properties=species:S:1:pos:R:3:Z:I:1 energy=-270.90576261977674 field_type=dipole dipole="0.000000 0.000000 0.000000" charge=0
C	-0.179096	-2.098002	-0.874025	6
C	-0.528826	-1.052022	0.179785	6
C	0.040444	0.342648	-0.139165	6
C	-0.446737	1.340458	0.885775	6
C	-1.201836	2.411808	0.605165	6
C	1.484443	0.342648	-0.139165	6
C	2.674604	0.342648	-0.139165	6
H	-0.675806	-3.045582	-0.641785	1
H	0.898054	-2.289083	-0.907795	1
H	-0.505006	-1.779042	-1.869045	1
H	-0.169766	-1.403592	1.156205	1
H	-1.622766	-0.991572	0.249575	1
H	-0.317906	0.640068	-1.133515	1
H	-0.156776	1.163178	1.920575	1
H	-1.517436	2.639708	-0.408105	1
H	-1.515726	3.089818	1.392795	1
H	3.740144	0.345918	-0.138105	1
Es	-1.426037	2.564143	-0.077440	99
Es	-0.528788	-1.051986	0.179739	99
Es	-0.446648	1.340347	0.885760	99
Es	-0.274974	-1.284303	0.843290	99
Es	0.040546	0.342652	-0.139111	99
Es	3.373517	0.335075	-0.136759	99
Es	-0.239211	1.213257	1.577230	99
Es	-0.190764	0.542963	-0.803248	99
Es	-0.184351	0.841585	0.368971	99
Es	-1.282056	-1.000485	0.222699	99
Es	-1.109945	1.699559	0.785255	99
Es	0.794117	0.344813	-0.138748	99
Es	2.092711	0.698890	-0.074989	99
Es	-1.201903	2.411879	0.605143	99
Es	2.088233	0.063671	0.094300	99
Es	-0.345997	-1.565550	-0.352950	99
Es	-0.216751	-0.335134	0.021201	99
Es	2.674885	0.342643	-0.139160	99
Es	-1.426541	2.866494	1.131697	99
Es	-0.179114	-2.097977	-0.874001	99
Es	-0.523793	-2.733905	-0.712876	99
Es	1.484161	0.342656	-0.139171	99
Es	-0.556755	2.068929	0.695812	99
Es	0.559063	-2.226764	-0.895159	99
Es	-0.407795	-1.874126	-1.547839	99
Es	2.090990	0.263126	-0.431012	99
43
Properties=species:S:1:pos:R:3:Z:I:1 energy=-270.90576261977674 field_type=dipole dipole="0.000000 0.000000 0.000000" charge=0
C	-0.179096	-2.098002	-0.874025	6
C	-0.528826	-1.052022	0.179785	6
C	0.040444	0.342648	-0.139165	6
C	-0.446737	1.340458	0.885775	6
C	-1.201836	2.411808	0.605165	6
C	1.484443	0.342648	-0.139165	6
C	2.674604	0.342648	-0.139165	6
H	-0.675806	-3.045582	-0.641785	1
H	0.898054	-2.289083	-0.907795	1
H	-0.505006	-1.779042	-1.869045	1
H	-0.169766	-1.403592	1.156205	1
H	-1.622766	-0.991572	0.249575	1
H	-0.317906	0.640068	-1.133515	1
H	-0.156776	1.163178	1.920575	1
H	-1.517436	2.639708	-0.408105	1
H	-1.515726	3.089818	1.392795	1
H	3.740144	0.345918	-0.138105	1
Es	2.674885	0.342635	-0.139158	99
Es	1.484159	0.342659	-0.139170	99
Es	2.092490	0.704552	-0.099074	99
Es	-0.238892	1.214267	1.576439	99
Es	-0.528788	-1.051987	0.179740	99
Es	-0.179113	-2.097978	-0.874003	99
Es	2.088022	0.070646	0.101737	99
Es	-1.426866	2.563273	-0.076840	99
Es	-0.183755	0.841454	0.369015	99
Es	2.091470	0.250965	-0.414436	99
Es	-1.282506	-1.000120	0.222672	99
Es	-0.446649	1.340349	0.885762	99
Es	-0.191140	0.542715	-0.802956	99
Es	3.373489	0.333994	-0.136371	99
Es	-1.201905	2.411881	0.605142	99
Es	0.559536	-2.227289	-0.895298	99
Es	-0.523721	-2.732924	-0.713175	99
Es	-1.427132	2.865829	1.131631	99
Es	-0.274590	-1.284417	0.842890	99
Es	-0.346269	-1.565197	-0.352833	99
Es	-0.216547	-0.334736	0.021215	99
Es	-1.109972	1.699492	0.785606	99
Es	0.794628	0.344872	-0.139014	99
Es	-0.408069	-1.874394	-1.547253	99
Es	0.040545	0.342653	-0.139110	99
Es	-0.556513	2.069258	0.695473	99
43
Properties=species:S:1:pos:R:3:Z:I:1 energy=-270.90576261977674 field_type=dipole dipole="0.000000 0.000000 0.000000" charge=0
C	-0.179096	-2.098002	-0.874025	6
C	-0.528826	-1.052022	0.179785	6
C	0.040444	0.342648	-0.139165	6
C	-0.446737	1.340458	0.885775	6
C	-1.201836	2.411808	0.605165	6
C	1.484443	0.342648	-0.139165	6
C	2.674604	0.342648	-0.139165	6
H	-0.675806	-3.045582	-0.641785	1
H	0.898054	-2.289083	-0.907795	1
H	-0.505006	-1.779042	-1.869045	1
H	-0.169766	-1.403592	1.156205	1
H	-1.622766	-0.991572	0.249575	1
H	-0.317906	0.640068	-1.133515	1
H	-0.156776	1.163178	1.920575	1
H	-1.517436	2.639708	-0.408105	1
H	-1.515726	3.089818	1.392795	1
H	3.740144	0.345918	-0.138105	1
Es	0.040547	0.342653	-0.139111	99
Es	-0.523750	-2.732243	-0.713244	99
Es	-0.446649	1.340349	0.885761	99
Es	0.794984	0.344941	-0.139101	99
Es	-0.556387	2.069561	0.695248	99
Es	0.559872	-2.227526	-0.895045	99
Es	-0.274263	-1.284429	0.842799	99
Es	-0.179113	-2.097978	-0.874002	99
Es	-0.528787	-1.051988	0.179740	99
Es	-0.346265	-1.565437	-0.352862	99
Es	-1.427390	2.562374	-0.076412	99
Es	-1.201903	2.411879	0.605142	99
Es	-0.183508	0.841263	0.369280	99
Es	-0.191303	0.542618	-0.802706	99
Es	-1.109701	1.699651	0.785765	99
Es	2.088031	0.065031	0.095906	99
Es	-1.282818	-0.999766	0.222436	99
Es	1.484158	0.342664	-0.139170	99
Es	2.674883	0.342639	-0.139164	99
Es	-0.216366	-0.334521	0.020819	99
Es	2.092286	0.705560	-0.103399	99
Es	-0.238538	1.215214	1.575879	99
Es	-0.408403	-1.874173	-1.547053	99
Es	2.091693	0.255677	-0.404209	99
Es	-1.427969	2.865181	1.131592	99
Es	3.373461	0.333260	-0.136257	99
43
Properties=species:S:1:pos:R:3:Z:I:1 energy=-270.90576261977674 field_type=dipole dipole="0.000000 0.000000 0.000000" charge=0
C	-0.179096	-2.098002	-0.874025	6
C	-0.528826	-1.052022	0.179785	6
C	0.040444	0.342648	-0.139165	6
C	-0.446737	1.340458	0.885775	6
C	-1.201836	2.411808	0.605165	6
C	1.484443	0.342648	-0.139165	6
C	2.674604	0.342648	-0.139165	6
H	-0.675806	-3.045582	-0.641785	1
H	0.898054	-2.289083	-0.907795	1
H	-0.505006	-1.779042	-1.869045	1
H	-0.169766	-1.403592	1.156205	1
H	-1.622766	-0.991572	0.249575	1
H	-0.317906	0.640068	-1.133515	1
H	-0.156776	1.163178	1.920575	1
H	-1.517436	2.639708	-0.408105	1
H	-1.515726	3.089818	1.392795	1
H	3.740144	0.345918	-0.138105	1
Es	-0.523397	-2.731406	-0.713451	99
Es	3.373460	0.332940	-0.135988	99
Es	-0.238121	1.215892	1.575581	99
Es	0.560091	-2.227927	-0.894904	99
Es	-0.216389	-0.334071	0.021029	99
Es	-0.408819	-1.874182	-1.546997	99
Es	2.091874	0.266576	-0.393042	99
Es	2.092073	0.705734	-0.102901	99
Es	0.795245	0.344749	-0.138863	99
Es	-0.191679	0.542274	-0.802774	99
Es	2.088080	0.053918	0.083894	99
Es	0.040546	0.342653	-0.139112	99
Es	-1.109433	1.699840	0.785780	99
Es	-0.556678	2.069363	0.695314	99
Es	-0.346322	-1.565374	-0.352806	99
Es	-1.428413	2.864453	1.131699	99
Es	-0.179114	-2.097978	-0.874002	99
Es	-0.183076	0.841541	0.369030	99
Es	-1.201902	2.411879	0.605142	99
Es	-0.446649	1.340350	0.885759	99
Es	1.484159	0.342658	-0.139170	99
Es	-1.283066	-0.999569	0.222338	99
Es	-1.427964	2.561924	-0.076219	99
Es	-0.273806	-1.284425	0.842712	99
Es	-0.528786	-1.051986	0.179739	99
Es	2.674886	0.342628	-0.139156	99
43
Properties=species:S:1:pos:R:3:Z:I:1 energy=-270.90576261977674 field_type=dipole dipole="0.000000 0.000000 0.000000" charge=0
C	-0.179096	-2.098002	-0.874025	6
C	-0.528826	-1.052022	0.179785	6
C	0.040444	0.342648	-0.139165	6
C	-0.446737	1.340458	0.885775	6
C	-1.201836	2.411808	0.605165	6
C	1.484443	0.342648	-0.139165	6
C	2.674604	0.342648	-0.139165	6
H	-0.675806	-3.045582	-0.641785	1
H	0.898054	-2.289083	-0.907795	1
H	-0.505006	-1.779042	-1.869045	1
H	-0.169766	-1.403592	1.156205	1
H	-1.622766	-0.991572	0.249575	1
H	-0.317906	0.640068	-1.133515	1
H	-0.156776	1.163178	1.920575	1
H	-1.517436	2.639708	-0.408105	1
H	-1.515726	3.089818	1.392795	1
H	3.740144	0.345918	-0.138105	1
Es	-0.409109	-1.874295	-1.546860	99
Es	-1.428820	2.863794	1.131798	99
Es	-0.273462	-1.284506	0.842556	99
Es	-0.346421	-1.565216	-0.352810	99
Es	1.484162	0.342661	-0.139168	99
Es	-0.216128	-0.333889	0.020596	99
Es	2.090260	0.406966	0.111387	99
Es	3.373495	0.333009	-0.135165	99
Es	2.090916	0.638229	-0.351480	99
Es	-0.237914	1.216343	1.575200	99
Es	2.090811	-0.019488	-0.173399	99
Es	-1.428516	2.561448	-0.075924	99
Es	-0.528787	-1.051987	0.179739	99
Es	0.560263	-2.228139	-0.894893	99
Es	0.040545	0.342653	-0.139113	99
Es	-0.556576	2.069594	0.695158	99
Es	2.674886	0.342631	-0.139154	99
Es	-0.191654	0.542056	-0.802537	99
Es	-0.523324	-2.730873	-0.713330	99
Es	-1.283259	-0.999330	0.222317	99
Es	-1.201918	2.411868	0.605141	99
Es	-1.109134	1.700071	0.785815	99
Es	-0.183187	0.841670	0.369259	99
Es	0.795435	0.344808	-0.138260	99
Es	-0.179114	-2.097978	-0.874003	99
Es	-0.446648	1.340352	0.885761	99
43
Properties=species:S:1:pos:R:3:Z:I:1 energy=-270.90576261977674 field_type=dipole dipole="0.000000 0.000000 0.000000" charge=0
C	-0.179096	-2.098002	-0.874025	6
C	-0.528826	-1.052022	0.179785	6
C	0.040444	0.342648	-0.139165	6
C	-0.446737	1.340458	0.885775	6
C	-1.201836	2.411808	0.605165	6
C	1.484443	0.342648	-0.139165	6
C	2.674604	0.342648	-0.139165	6
H	-0.675806	-3.045582	-0.641785	1
H	0.898054	-2.289083	-0.907795	1
H	-0.505006	-1.779042	-1.869045	1
H	-0.169766	-1.403592	1.156205	1
H	-1.622766	-0.991572	0.249575	1
H	-0.317906	0.640068	-1.133515	1
H	-0.156776	1.163178	1.920575	1
H	-1.517436	2.639708	-0.408105	1
H	-1.515726	3.089818	1.392795	1
H	3.740144	0.345918	-0.138105	1
Es	0.040547	0.342653	-0.139110	99
Es	3.373448	0.332513	-0.135035	99
Es	-0.523302	-2.730432	-0.713366	99
Es	-1.429392	2.863327	1.131798	99
Es	-0.179116	-2.097973	-0.873998	99
Es	2.674886	0.342630	-0.139153	99
Es	-0.216013	-0.333751	0.020492	99
Es	-0.528790	-1.051988	0.179741	99
Es	-0.182500	0.841186	0.369635	99
Es	2.090858	0.642214	-0.346204	99
Es	-1.428718	2.560943	-0.075697	99
Es	-0.346597	-1.565023	-0.352779	99
Es	0.560398	-2.228346	-0.894771	99
Es	-0.238110	1.217151	1.574734	99
Es	-0.191923	0.542121	-0.802366	99
Es	-0.556563	2.069740	0.695133	99
Es	0.795643	0.344917	-0.138290	99
Es	1.484160	0.342668	-0.139175	99
Es	-1.283403	-0.999113	0.222201	99
Es	-0.409438	-1.873952	-1.546758	99
Es	-0.272955	-1.285057	0.842408	99
Es	-1.108917	1.700191	0.785680	99
Es	2.090339	0.402738	0.106446	99
Es	2.090819	-0.019129	-0.173835	99
Es	-1.201914	2.411873	0.605144	99
Es	-0.446646	1.340351	0.885758	99
43
Properties=species:S:1:pos:R:3:Z:I:1 energy=-270.90576261977674 field_type=dipole dipole="0.000000 0.000000 0.000000" charge=0
C	-0.179096	-2.098002	-0.874025	6
C	-0.528826	-1.052022	0.179785	6
C	0.040444	0.342648	-0.139165	6
C	-0.446737	1.340458	0.885775	6
C	-1.201836	2.411808	0.605165	6
C	1.484443	0.342648	-0.139165	6
C	2.674604	0.342648	-0.139165	6
H	-0.675806	-3.045582	-0.641785	1
H	0.898054	-2.289083	-0.907795	1
H	-0.505006	-1.779042	-1.869045	1
H	-0.169766	-1.403592	1.156205	1
H	-1.622766	-0.991572	0.249575	1
H	-0.317906	0.640068	-1.133515	1
H	-0.156776	1.163178	1.920575	1
H	-1.517436	2.639708	-0.408105	1
H	-1.515726	3.089818	1.392795	1
H	3.740144	0.345918	-0.138105	1
Es	-0.446642	1.340354	0.885755	99
Es	2.090823	0.647623	-0.338902	99
Es	2.090577	0.398510	0.095560	99
Es	-0.272635	-1.284857	0.842437	99
Es	-1.201909	2.411875	0.605144	99
Es	3.373429	0.332242	-0.135225	99
Es	1.484159	0.342658	-0.139171	99
Es	-1.429835	2.862821	1.131961	99
Es	-0.346563	-1.564996	-0.352818	99
Es	0.040547	0.342653	-0.139110	99
Es	-1.108522	1.700596	0.785573	99
Es	-0.237695	1.217428	1.574715	99
Es	-0.522923	-2.729792	-0.713155	99
Es	2.674885	0.342628	-0.139164	99
Es	-0.182393	0.841580	0.369499	99
Es	-0.528789	-1.051987	0.179740	99
Es	0.795716	0.344420	-0.138225	99
Es	2.090667	-0.020037	-0.170071	99
Es	-0.556804	2.069512	0.695200	99
Es	0.560513	-2.228533	-0.894745	99
Es	-0.192262	0.541840	-0.802504	99
Es	-1.429048	2.560506	-0.075640	99
Es	-0.409921	-1.874244	-1.546836	99
Es	-0.215938	-0.333407	0.020492	99
Es	-0.179113	-2.097977	-0.874000	99
Es	-1.283526	-0.998962	0.222124	99
43
Properties=species:S:1:pos:R:3:Z:I:1 energy=-270.90576261977674 field_type=dipole dipole="0.000000 0.000000 0.000000" charge=0
C	-0.179096	-2.098002	-0.874025	6
C	-0.528826	-1.052022	0.179785	6
C	0.040444	0.342648	-0.139165	6
C	-0.446737	1.340458	0.885775	6
C	-1.201836	2.411808	0.605165	6
C	1.484443	0.342648	-0.139165	6
C	2.674604	0.342648	-0.139165	6
H	-0.675806	-3.045582	-0.641785	1
H	0.898054	-2.289083	-0.907795	1
H	-0.505006	-1.779042	-1.869045	1
H	-0.169766	-1.403592	1.156205	1
H	-1.622766	-0.991572	0.249575	1
H	-0.317906	0.640068	-1.133515	1
H	-0.156776	1.163178	1.920575	1
H	-1.517436	2.639708	-0.408105	1
H	-1.515726	3.089818	1.392795	1
H	3.740144	0.345918	-0.138105	1
Es	-1.201910	2.411877	0.605144	99
Es	-0.522886	-2.729405	-0.713406	99
Es	3.373426	0.332043	-0.135140	99
Es	-0.528789	-1.051988	0.179740	99
Es	1.484160	0.342690	-0.139173	99
Es	-0.446646	1.340353	0.885760	99
Es	-0.409979	-1.874091	-1.546697	99
Es	-1.430026	2.862486	1.131947	99
Es	0.560591	-2.228797	-0.894620	99
Es	2.090634	-0.020280	-0.166230	99
Es	-1.108471	1.700596	0.785661	99
Es	0.040546	0.342652	-0.139111	99
Es	-0.192291	0.541849	-0.802336	99
Es	0.795876	0.344501	-0.138301	99
Es	-0.237683	1.218068	1.574328	99
Es	-0.346683	-1.564820	-0.352872	99
Es	-1.429334	2.560211	-0.075424	99
Es	-0.215911	-0.333262	0.020444	99
Es	-0.272370	-1.285146	0.842283	99
Es	2.674887	0.342628	-0.139159	99
Es	-0.556834	2.069534	0.695036	99
Es	-1.283608	-0.998814	0.222095	99
Es	2.090700	0.648763	-0.337107	99
Es	-0.179114	-2.097979	-0.874002	99
Es	-0.182179	0.841316	0.369818	99
Es	2.090694	0.397466	0.089952	99
43
Properties=species:S:1:pos:R:3:Z:I:1 energy=-270.90576261977674 field_type=dipole dipole="0.000000 0.000000 0.000000" charge=0
C	-0.179096	-2.098002	-0.874025	6
C	-0.528826	-1.052022	0.179785	6
C	0.040444	0.342648	-0.139165	6
C	-0.446737	1.340458	0.885775	6
C	-1.201836	2.411808	0.605165	6
C	1.484443	0.342648	-0.139165	6
C	2.674604	0.342648	-0.139165	6
H	-0.675806	-3.045582	-0.641785	1
H	0.898054	-2.289083	-0.907795	1
H	-0.505006	-1.779042	-1.869045	1
H	-0.169766	-1.403592	1.156205	1
H	-1.622766	-0.991572	0.249575	1
H	-0.317906	0.640068	-1.133515	1
H	-0.156776	1.163178	1.920575	1
H	-1.517436	2.639708	-0.408105	1
H	-1.515726	3.089818	1.392795	1
H	3.740144	0.345918	-0.138105	1
Es	-0.522623	-2.729082	-0.713256	99
Es	-1.108173	1.700919	0.785563	99
Es	-1.201908	2.411876	0.605144	99
Es	-1.429581	2.559855	-0.075352	99
Es	2.674885	0.342609	-0.139161	99
Es	-0.271981	-1.285295	0.842238	99
Es	-0.192499	0.541824	-0.802371	99
Es	2.090805	0.393889	0.083477	99
Es	-0.179114	-2.097977	-0.874001	99
Es	1.484158	0.342662	-0.139164	99
Es	0.795931	0.344331	-0.138177	99
Es	-0.410378	-1.874135	-1.546741	99
Es	-0.237556	1.218389	1.574152	99
Es	2.090608	-0.020328	-0.165153	99
Es	-0.346833	-1.564741	-0.352838	99
Es	3.373402	0.331804	-0.135229	99
Es	-0.181908	0.841378	0.369862	99
Es	-1.283675	-0.998625	0.222104	99
Es	2.090652	0.652592	-0.331696	99
Es	-0.215817	-0.333153	0.020275	99
Es	-1.430394	2.862055	1.132057	99
Es	0.560668	-2.228812	-0.894622	99
Es	-0.446646	1.340354	0.885764	99
Es	-0.528789	-1.051988	0.179740	99
Es	0.040547	0.342652	-0.139110	99
Es	-0.556981	2.069399	0.695128	99
43
Properties=species:S:1:pos:R:3:Z:I:1 energy=-270.90576261977674 field_type=dipole dipole="0.000000 0.000000 0.000000" charge=0
C	-0.179096	-2.098002	-0.874025	6
C	-0.528826	-1.052022	0.179785	6
C	0.040444	0.342648	-0.139165	6
C	-0.446737	1.340458	0.885775	6
C	-1.201836	2.411808	0.605165	6
C	1.484443	0.342648	-0.139165	6
C	2.674604	0.342648	-0.139165	6
H	-0.675806	-3.045582	-0.641785	1
H	0.898054	-2.289083	-0.907795	1
H	-0.505006	-1.779042	-1.869045	1
H	-0.169766	-1.403592	1.156205	1
H	-1.622766	-0.991572	0.249575	1
H	-0.317906	0.640068	-1.133515	1
H	-0.156776	1.163178	1.920575	1
H	-1.517436	2.639708	-0.408105	1
H	-1.515726	3.089818	1.392795	1
H	3.740144	0.345918	-0.138105	1
Es	3.373425	0.331815	-0.135176	99
Es	-0.346614	-1.565156	-0.352723	99
Es	0.040545	0.342657	-0.139109	99
Es	0.796030	0.344312	-0.138188	99
Es	-0.179113	-2.097978	-0.874001	99
Es	2.090551	-0.020810	-0.160079	99
Es	-0.271994	-1.285068	0.842235	99
Es	-0.528790	-1.051988	0.179741	99
Es	-1.430646	2.861781	1.132159	99
Es	-0.410542	-1.873827	-1.546541	99
Es	-1.201912	2.411873	0.605143	99
Es	2.674887	0.342634	-0.139151	99
Es	1.484158	0.342664	-0.139170	99
Es	2.090953	0.392693	0.076151	99
Es	-0.192706	0.541727	-0.802410	99
Es	2.090518	0.654029	-0.329409	99
Es	-1.107914	1.701190	0.785627	99
Es	-0.237363	1.218674	1.573984	99
Es	-1.283727	-0.998505	0.222052	99
Es	-0.557099	2.069315	0.695078	99
Es	-1.429844	2.559477	-0.075210	99
Es	-0.522504	-2.728850	-0.713563	99
Es	-0.215705	-0.332918	0.020320	99
Es	-0.181862	0.841341	0.369822	99
Es	-0.446645	1.340354	0.885759	99
Es	0.560712	-2.228985	-0.894707	99
43
Properties=species:S:1:pos:R:3:Z:I:1 energy=-270.90576261977674 field_type=dipole dipole="0.000000 0.000000 0.000000" charge=0
C	-0.179096	-2.098002	-0.874025	6
C	-0.528826	-1.052022	0.179785	6
C	0.040444	0.342648	-0.139165	6
C	-0.446737	1.340458	0.885775	6
C	-1.201836	2.411808	0.605165	6
C	1.484443	0.342648	-0.139165	6
C	2.674604	0.342648	-0.139165	6
H	-0.675806	-3.045582	-0.641785	1
H	0.898054	-2.289083	-0.907795	1
H	-0.505006	-1.779042	-1.869045	1
H	-0.169766	-1.403592	1.156205	1
H	-1.622766	-0.991572	0.249575	1
H	-0.317906	0.640068	-1.133515	1
H	-0.156776	1.163178	1.920575	1
H	-1.517436	2.639708	-0.408105	1
H	-1.515726	3.089818	1.392795	1
H	3.740144	0.345918	-0.138105	1
Es	-0.346969	-1.564608	-0.352669	99
Es	3.373370	0.331463	-0.135344	99
Es	1.484157	0.342669	-0.139165	99
Es	-0.179113	-2.097978	-0.874001	99
Es	-0.557071	2.069416	0.695120	99
Es	-1.201910	2.411875	0.605144	99
Es	-0.522398	-2.728545	-0.713413	99
Es	-0.237360	1.218889	1.573805	99
Es	-0.181543	0.841099	0.370009	99
Es	2.090538	0.657819	-0.323661	99
Es	2.090962	0.388761	0.073554	99
Es	0.560774	-2.229043	-0.894562	99
Es	-1.430039	2.559455	-0.075156	99
Es	-0.528790	-1.051987	0.179740	99
Es	0.796052	0.343993	-0.137879	99
Es	-1.430834	2.861267	1.132214	99
Es	-0.215631	-0.332867	0.020187	99
Es	-0.271496	-1.285685	0.842123	99
Es	-1.107790	1.701302	0.785506	99
Es	-1.283799	-0.998282	0.221892	99
Es	-0.446645	1.340354	0.885759	99
Es	0.040547	0.342653	-0.139110	99
Es	2.674887	0.342630	-0.139156	99
Es	-0.410780	-1.873855	-1.546598	99
Es	2.090602	-0.020318	-0.163305	99
Es	-0.192924	0.541973	-0.802403	99
43
Properties=species:S:1:pos:R:3:Z:I:1 energy=-270.90576261977674 field_type=dipole dipole="0.000000 0.000000 0.000000" charge=0
C	-0.179096	-2.098002	-0.874025	6
C	-0.528826	-1.052022	0.179785	6
C	0.040444	0.342648	-0.139165	6
C	-0.446737	1.340458	0.885775	6
C	-1.201836	2.411808	0.605165	6
C	1.484443	0.342648	-0.139165	6
C	2.674604	0.342648	-0.139165	6
H	-0.675806	-3.045582	-0.641785	1
H	0.898054	-2.289083	-0.907795	1
H	-0.505006	-1.779042	-1.869045	1
H	-0.169766	-1.403592	1.156205	1
H	-1.622766	-0.991572	0.249575	1
H	-0.317906	0.640068	-1.133515	1
H	-0.156776	1.163178	1.920575	1
H	-1.517436	2.639708	-0.408105	1
H	-1.515726	3.089818	1.392795	1
H	3.740144	0.345918	-0.138105	1
Es	-0.347378	-1.564150	-0.352576	99
Es	-0.181737	0.841449	0.370072	99
Es	2.090414	-0.021406	-0.152269	99
Es	3.373393	0.331504	-0.135167	99
Es	-0.179114	-2.097978	-0.874001	99
Es	-1.430288	2.558772	-0.075027	99
Es	-0.237163	1.219417	1.573684	99
Es	-1.107428	1.701749	0.785605	99
Es	-0.528790	-1.051989	0.179738	99
Es	-1.431121	2.861263	1.132291	99
Es	1.484157	0.342667	-0.139168	99
Es	-0.410329	-1.874270	-1.546482	99
Es	-1.283819	-0.998158	0.221975	99
Es	-0.522406	-2.728381	-0.713768	99
Es	-0.557311	2.069095	0.694953	99
Es	0.796096	0.343951	-0.138189	99
Es	2.090467	0.656481	-0.325468	99
Es	-0.192873	0.541369	-0.802379	99
Es	-0.271339	-1.285510	0.842115	99
Es	2.091194	0.391093	0.064397	99
Es	-0.446644	1.340354	0.885759	99
Es	0.560774	-2.229276	-0.894495	99
Es	0.040547	0.342653	-0.139111	99
Es	2.674885	0.342625	-0.139157	99
Es	-0.215476	-0.332746	0.020157	99
Es	-1.201912	2.411873	0.605143	99
43
Properties=species:S:1:pos:R:3:Z:I:1 energy=-270.90576261977674 field_type=dipole dipole="0.000000 0.000000 0.000000" charge=0
C	-0.179096	-2.098002	-0.874025	6
C	-0.528826	-1.052022	0.179785	6
C	0.040444	0.342648	-0.139165	6
C	-0.446737	1.340458	0.885775	6
C	-1.201836	2.411808	0.605165	6
C	1.484443	0.342648	-0.139165	6
C	2.674604	0.342648	-0.139165	6
H	-0.675806	-3.045582	-0.641785	1
H	0.898054	-2.289083	-0.907795	1
H	-0.505006	-1.779042	-1.869045	1
H	-0.169766	-1.403592	1.156205	1
H	-1.622766	-0.991572	0.249575	1
H	-0.317906	0.640068	-1.133515	1
H	-0.156776	1.163178	1.920575	1
H	-1.517436	2.639708	-0.408105	1
H	-1.515726	3.089818	1.392795	1
H	3.740144	0.345918	-0.138105	1
Es	-0.271172	-1.285941	0.841946	99
Es	2.091205	0.389010	0.062462	99
Es	-1.283845	-0.997944	0.221929	99
Es	0.796159	0.343879	-0.138191	99
Es	2.090443	-0.021220	-0.153411	99
Es	-0.179113	-2.097978	-0.874001	99
Es	-0.237357	1.219734	1.573396	99
Es	-0.557307	2.069154	0.694954	99
Es	2.090426	0.658350	-0.322262	99
Es	-1.431254	2.861005	1.132299	99
Es	0.560839	-2.229292	-0.894522	99
Es	2.674887	0.342623	-0.139154	99
Es	-0.215440	-0.332675	0.020196	99
Es	-0.410899	-1.873936	-1.546489	99
Es	-0.522159	-2.728082	-0.713657	99
Es	-1.430411	2.558664	-0.074919	99
Es	0.040546	0.342655	-0.139109	99
Es	-0.446645	1.340355	0.885759	99
Es	3.373377	0.331380	-0.135257	99
Es	1.484157	0.342669	-0.139167	99
Es	-1.201910	2.411873	0.605145	99
Es	-0.181348	0.841274	0.370273	99
Es	-0.347320	-1.564353	-0.352583	99
Es	-1.107384	1.701762	0.785544	99
Es	-0.192888	0.541471	-0.802288	99
Es	-0.528789	-1.051987	0.179740	99
43
Properties=species:S:1:pos:R:3:Z:I:1 energy=-270.90576261977674 field_type=dipole dipole="0.000000 0.000000 0.000000" charge=0
C	-0.179096	-2.098002	-0.874025	6
C	-0.528826	-1.052022	0.179785	6
C	0.040444	0.342648	-0.139165	6
C	-0.446737	1.340458	0.885775	6
C	-1.201836	2.411808	0.605165	6
C	1.484443	0.342648	-0.139165	6
C	2.674604	0.342648	-0.139165	6
H	-0.675806	-3.045582	-0.641785	1
H	0.898054	-2.289083	-0.907795	1
H	-0.505006	-1.779042	-1.869045	1
H	-0.169766	-1.403592	1.156205	1
H	-1.622766	-0.991572	0.249575	1
H	-0.317906	0.640068	-1.133515	1
H	-0.156776	1.163178	1.920575	1
H	-1.517436	2.639708	-0.408105	1
H	-1.515726	3.089818	1.392795	1
H	3.740144	0.345918	-0.138105	1
Es	-0.347125	-1.564491	-0.352553	99
Es	-0.179112	-2.097978	-0.874000	99
Es	2.090435	0.656938	-0.324273	99
Es	-0.557179	2.069368	0.694806	99
Es	0.560875	-2.229392	-0.894462	99
Es	3.373341	0.331226	-0.134921	99
Es	2.091256	0.390566	0.060852	99
Es	-1.431355	2.861029	1.132201	99
Es	-1.201912	2.411872	0.605142	99
Es	2.090389	-0.021393	-0.150010	99
Es	-0.528785	-1.051984	0.179739	99
Es	-0.522221	-2.727928	-0.713684	99
Es	-0.410977	-1.873751	-1.546392	99
Es	1.484157	0.342668	-0.139167	99
Es	0.796239	0.343785	-0.138212	99
Es	-0.181469	0.841437	0.370345	99
Es	2.674887	0.342634	-0.139156	99
Es	-1.430481	2.558376	-0.074702	99
Es	0.040547	0.342653	-0.139110	99
Es	-0.237499	1.220072	1.572910	99
Es	-0.446647	1.340355	0.885760	99
Es	-1.283947	-0.998070	0.221904	99
Es	-1.107467	1.701654	0.785829	99
Es	-0.192604	0.540993	-0.802162	99
Es	-0.215491	-0.332417	0.020098	99
Es	-0.271055	-1.285767	0.841853	99
43
Properties=species:S:1:pos:R:3:Z:I:1 energy=-270.90576261977674 field_type=dipole dipole="0.000000 0.000000 0.000000" charge=0
C	-0.179096	-2.098002	-0.874025	6
C	-0.528826	-1.052022	0.179785	6
C	0.040444	0.342648	-0.139165	6
C	-0.446737	1.340458	0.885775	6
C	-1.201836	2.411808	0.605165	6
C	1.484443	0.342648	-0.139165	6
C	2.674604	0.342648	-0.139165	6
H	-0.675806	-3.045582	-0.641785	1
H	0.898054	-2.289083	-0.907795	1
H	-0.505006	-1.779042	-1.869045	1
H	-0.169766	-1.403592	1.156205	1
H	-1.622766	-0.991572	0.249575	1
H	-0.317906	0.640068	-1.133515	1
H	-0.156776	1.163178	1.920575	1
H	-1.517436	2.639708	-0.408105	1
H	-1.515726	3.089818	1.392795	1
H	3.740144	0.345918	-0.138105	1
Es	-1.430850	2.558001	-0.074697	99
Es	-1.201904	2.411878	0.605143	99
Es	-0.557549	2.068842	0.694738	99
Es	0.560871	-2.229496	-0.894504	99
Es	-1.283911	-0.997894	0.221839	99
Es	-0.215352	-0.332303	0.019907	99
Es	-0.347243	-1.564451	-0.352520	99
Es	-0.271089	-1.285349	0.842092	99
Es	0.796198	0.343373	-0.138612	99
Es	2.088338	0.027019	0.045234	99
Es	2.090930	0.708436	-0.136018	99
Es	3.373373	0.331200	-0.135394	99
Es	2.674887	0.342623	-0.139155	99
Es	-0.181743	0.841425	0.370361	99
Es	-0.521523	-2.727449	-0.713721	99
Es	-0.179114	-2.097977	-0.873999	99
Es	1.484158	0.342669	-0.139153	99
Es	-0.192929	0.541180	-0.802372	99
Es	-0.236874	1.220266	1.573260	99
Es	-1.431518	2.860705	1.132382	99
Es	0.040545	0.342654	-0.139110	99
Es	-0.528790	-1.051989	0.179738	99
Es	-0.446643	1.340356	0.885758	99
Es	2.092811	0.290921	-0.321689	99
Es	-1.107023	1.702254	0.785766	99
Es	-0.411252	-1.874443	-1.546643	99
43
Properties=species:S:1:pos:R:3:Z:I:1 energy=-270.90576261977674 field_type=dipole dipole="0.000000 0.000000 0.000000" charge=0
C	-0.179096	-2.098002	-0.874025	6
C	-0.528826	-1.052022	0.179785	6
C	0.040444	0.342648	-0.139165	6
C	-0.446737	1.340458	0.885775	6
C	-1.201836	2.411808	0.605165	6
C	1.484443	0.342648	-0.139165	6
C	2.674604	0.342648	-0.139165	6
H	-0.675806	-3.045582	-0.641785	1
H	0.898054	-2.289083	-0.907795	1
H	-0.505006	-1.779042	-1.869045	1
H	-0.169766	-1.403592	1.156205	1
H	-1.622766	-0.991572	0.249575	1
H	-0.317906	0.640068	-1.133515	1
H	-0.156776	1.163178	1.920575	1
H	-1.517436	2.639708	-0.408105	1
H	-1.515726	3.089818	1.392795	1
H	3.740144	0.345918	-0.138105	1
Es	0.796293	0.343536	-0.138735	99
Es	-0.237443	1.220643	1.572693	99
Es	-0.180806	0.840903	0.370791	99
Es	2.088412	0.027054	0.044633	99
Es	-0.410980	-1.874316	-1.546437	99
Es	-0.347727	-1.563430	-0.352541	99
Es	0.560907	-2.229615	-0.894364	99
Es	-0.193262	0.541328	-0.802330	99
Es	-0.270402	-1.286246	0.841797	99
Es	-0.446642	1.340357	0.885758	99
Es	-0.557396	2.069140	0.694819	99
Es	-0.179113	-2.097977	-0.874001	99
Es	3.373307	0.330803	-0.135578	99
Es	2.674887	0.342628	-0.139157	99
Es	-1.431523	2.860499	1.132299	99
Es	2.092736	0.291249	-0.326057	99
Es	-0.528789	-1.051987	0.179740	99
Es	1.484157	0.342666	-0.139166	99
Es	-1.107202	1.701920	0.785696	99
Es	-1.201912	2.411872	0.605142	99
Es	-0.215383	-0.332422	0.020062	99
Es	-1.430852	2.558144	-0.074665	99
Es	2.090960	0.708229	-0.130802	99
Es	0.040547	0.342653	-0.139110	99
Es	-0.521996	-2.727450	-0.713647	99
Es	-1.283974	-0.997728	0.221793	99
43
Properties=species:S:1:pos:R:3:Z:I:1 energy=-270.90576261977674 field_type=dipole dipole="0.000000 0.000000 0.000000" charge=0
C	-0.179096	-2.098002	-0.874025	6
C	-0.528826	-1.052022	0.179785	6
C	0.040444	0.342648	-0.139165	6
C	-0.446737	1.340458	0.885775	6
C	-1.201836	2.411808	0.605165	6
C	1.484443	0.342648	-0.139165	6
C	2.674604	0.342648	-0.139165	6
H	-0.675806	-3.045582	-0.641785	1
H	0.898054	-2.289083	-0.907795	1
H	-0.505006	-1.779042	-1.869045	1
H	-0.169766	-1.403592	1.156205	1
H	-1.622766	-0.991572	0.249575	1
H	-0.317906	0.640068	-1.133515	1
H	-0.156776	1.163178	1.920575	1
H	-1.517436	2.639708	-0.408105	1
H	-1.515726	3.089818	1.392795	1
H	3.740144	0.345918	-0.138105	1
Es	-0.557714	2.068697	0.694810	99
Es	2.092875	0.292354	-0.315617	99
Es	0.560890	-2.229760	-0.894493	99
Es	2.088371	0.025643	0.042682	99
Es	2.090844	0.708444	-0.139329	99
Es	-0.237051	1.220813	1.572878	99
Es	-1.201913	2.411873	0.605143	99
Es	-0.347322	-1.564030	-0.352510	99
Es	0.040544	0.342652	-0.139110	99
Es	-0.411283	-1.874466	-1.546541	99
Es	-0.179113	-2.097977	-0.873999	99
Es	-0.181169	0.841338	0.370510	99
Es	-0.446647	1.340354	0.885760	99
Es	-1.106835	1.702435	0.785740	99
Es	-0.270747	-1.285557	0.841978	99
Es	-1.283973	-0.997822	0.221788	99
Es	0.796291	0.343358	-0.138812	99
Es	3.373344	0.331006	-0.135406	99
Es	-0.528789	-1.051988	0.179740	99
Es	-0.193184	0.541001	-0.802336	99
Es	-0.215313	-0.332143	0.020046	99
Es	1.484156	0.342667	-0.139170	99
Es	2.674886	0.342624	-0.139156	99
Es	-0.521546	-2.727139	-0.713750	99
Es	-1.431821	2.860543	1.132369	99
Es	-1.430979	2.557532	-0.074581	99
43
Properties=species:S:1:pos:R:3:Z:I:1 energy=-270.90576261977674 field_type=dipole dipole="0.000000 0.000000 0.000000" charge=0
C	-0.179096	-2.098002	-0.874025	6
C	-0.528826	-1.052022	0.179785	6
C	0.040444	0.342648	-0.139165	6
C	-0.446737	1.340458	0.885775	6
C	-1.201836	2.411808	0.605165	6
C	1.484443	0.342648	-0.139165	6
C	2.674604	0.342648	-0.139165	6
H	-0.675806	-3.045582	-0.641785	1
H	0.898054	-2.289083	-0.907795	1
H	-0.505006	-1.779042	-1.869045	1
H	-0.169766	-1.403592	1.156205	1
H	-1.622766	-0.991572	0.249575	1
H	-0.317906	0.640068	-1.133515	1
H	-0.156776	1.163178	1.920575	1
H	-1.517436	2.639708	-0.408105	1
H	-1.515726	3.089818	1.392795	1
H	3.740144	0.345918	-0.138105	1
Es	-0.557728	2.068727	0.694895	99
Es	-0.181335	0.841451	0.370486	99
Es	0.560955	-2.229541	-0.894431	99
Es	2.091630	0.383930	0.037856	99
Es	0.040547	0.342653	-0.139109	99
Es	-1.431046	2.557638	-0.074582	99
Es	-0.347477	-1.564580	-0.352244	99
Es	2.090214	-0.021822	-0.138937	99
Es	-0.528789	-1.051985	0.179742	99
Es	-0.179113	-2.097978	-0.874000	99
Es	-0.236812	1.220620	1.573007	99
Es	-0.193352	0.541107	-0.802316	99
Es	-1.106693	1.702557	0.785552	99
Es	-0.446643	1.340355	0.885758	99
Es	-0.521369	-2.727183	-0.713975	99
Es	3.373378	0.331157	-0.135247	99
Es	0.796271	0.343266	-0.138192	99
Es	-1.283986	-0.997725	0.221798	99
Es	-0.215080	-0.332009	0.019745	99
Es	1.484157	0.342670	-0.139172	99
Es	-0.411429	-1.874197	-1.546481	99
Es	-0.270728	-1.285409	0.841999	99
Es	2.674887	0.342626	-0.139155	99
Es	-1.201915	2.411870	0.605145	99
Es	2.090245	0.664116	-0.312048	99
Es	-1.431988	2.860137	1.132537	99
43
Properties=species:S:1:pos:R:3:Z:I:1 energy=-270.90576261977674 field_type=dipole dipole="0.000000 0.000000 0.000000" charge=0
C	-0.179096	-2.098002	-0.874025	6
C	-0.528826	-1.052022	0.179785	6
C	0.040444	0.342648	-0.139165	6
C	-0.446737	1.340458	0.885775	6
C	-1.201836	2.411808	0.605165	6
C	1.484443	0.342648	-0.139165	6
C	2.674604	0.342648	-0.139165	6
H	-0.675806	-3.045582	-0.641785	1
H	0.898054	-2.289083	-0.907795	1
H	-0.505006	-1.779042	-1.869045	1
H	-0.169766	-1.403592	1.156205	1
H	-1.622766	-0.991572	0.249575	1
H	-0.317906	0.640068	-1.133515	1
H	-0.156776	1.163178	1.920575	1
H	-1.517436	2.639708	-0.408105	1
H	-1.515726	3.089818	1.392795	1
H	3.740144	0.345918	-0.138105	1
Es	-0.181029	0.841244	0.370703	99
Es	2.091669	0.383844	0.035732	99
Es	-0.528789	-1.051988	0.179742	99
Es	0.796318	0.343279	-0.138317	99
Es	0.040547	0.342653	-0.139110	99
Es	-0.193439	0.541036	-0.802293	99
Es	3.373362	0.331072	-0.135146	99
Es	2.674887	0.342626	-0.139155	99
Es	-1.432198	2.860280	1.132496	99
Es	-0.557851	2.068573	0.694811	99
Es	-0.411565	-1.874064	-1.546426	99
Es	2.090212	0.664114	-0.311840	99
Es	-0.215111	-0.331844	0.019927	99
Es	-1.284019	-0.997763	0.221817	99
Es	2.090205	-0.021760	-0.136996	99
Es	1.484157	0.342674	-0.139174	99
Es	-0.446650	1.340354	0.885757	99
Es	-1.106627	1.702611	0.785584	99
Es	0.560972	-2.229546	-0.894477	99
Es	-1.430992	2.557273	-0.074473	99
Es	-0.179114	-2.097978	-0.874000	99
Es	-0.236942	1.221085	1.572768	99
Es	-0.270658	-1.285494	0.841899	99
Es	-0.521463	-2.727161	-0.713814	99
Es	-1.201909	2.411875	0.605145	99
Es	-0.347173	-1.564543	-0.352526	99
