41
Properties=species:S:1:pos:R:3:Z:I:1 energy=-306.7340968038715 field_type=dipole dipole="0.000000 0.000000 0.000000" charge=0
O	-2.545421	0.055761	-0.388417	8
C	-1.109871	0.061351	-0.464647	6
C	-0.392431	1.105651	0.419013	6
C	0.671869	0.031931	0.751453	6
C	-0.382651	-1.029369	0.353153	6
C	1.865600	0.060241	-0.075017	6
C	2.849909	0.083591	-0.762357	6
H	-2.821961	-0.706739	-0.925347	1
H	-0.781861	0.099761	-1.511377	1
H	-0.977261	1.428151	1.289163	1
H	-0.038081	1.997991	-0.106187	1
H	0.924379	0.000431	1.818363	1
H	-0.020741	-1.884359	-0.226177	1
H	-0.964411	-1.410079	1.201573	1
H	3.722929	0.105681	-1.373187	1
Es	-0.382609	-1.029309	0.353155	99
Es	-0.776713	-1.270600	0.931700	99
Es	0.221910	-0.554707	0.570091	99
Es	0.216068	0.621056	0.605510	99
Es	-0.147958	1.713625	0.062691	99
Es	-0.392398	1.105573	0.419004	99
Es	0.671905	0.031932	0.751348	99
Es	-0.803877	0.649211	-0.050994	99
Es	-1.110072	0.061343	-0.464579	99
Es	2.489269	0.355439	-0.241271	99
Es	-2.641886	0.306453	-0.536071	99
Es	1.865381	0.060236	-0.074865	99
Es	-0.789734	-0.555704	-0.087143	99
Es	2.159798	0.122970	-0.717591	99
Es	-2.677974	-0.360768	-0.681488	99
Es	-0.786126	1.304832	1.011057	99
Es	-2.615618	-0.008938	-0.095696	99
Es	-0.878670	0.082763	-1.180502	99
Es	-0.133877	-1.615629	-0.041514	99
Es	1.288834	0.047054	0.315714	99
Es	3.419609	0.097759	-1.161038	99
Es	2.448385	-0.262839	-0.321710	99
Es	2.850099	0.083586	-0.762476	99
Es	-2.006803	0.042321	-0.429681	99
Es	-2.545197	0.055560	-0.388571	99
Es	0.862680	0.011055	1.460866	99
41
Properties=species:S:1:pos:R:3:Z:I:1 energy=-306.7340968038715 field_type=dipole dipole="0.000000 0.000000 0.000000" charge=0
O	-2.545421	0.055761	-0.388417	8
C	-1.109871	0.061351	-0.464647	6
C	-0.392431	1.105651	0.419013	6
C	0.671869	0.031931	0.751453	6
C	-0.382651	-1.029369	0.353153	6
C	1.865600	0.060241	-0.075017	6
C	2.849909	0.083591	-0.762357	6
H	-2.821961	-0.706739	-0.925347	1
H	-0.781861	0.099761	-1.511377	1
H	-0.977261	1.428151	1.289163	1
H	-0.038081	1.997991	-0.106187	1
H	0.924379	0.000431	1.818363	1
H	-0.020741	-1.884359	-0.226177	1
H	-0.964411	-1.410079	1.201573	1
H	3.722929	0.105681	-1.373187	1
Es	0.860221	0.011303	1.458642	99
Es	1.865382	0.060236	-0.074863	99
Es	-1.110076	0.061342	-0.464579	99
Es	-2.677799	-0.358468	-0.677291	99
Es	0.671906	0.031933	0.751346	99
Es	2.163211	0.029737	-0.716106	99
Es	-0.382607	-1.029309	0.353155	99
Es	-0.787297	-0.555595	-0.085674	99
Es	-0.133835	-1.614547	-0.043201	99
Es	2.444373	0.399814	-0.304535	99
Es	0.220607	-0.552726	0.570601	99
Es	-2.629750	0.280099	-0.545524	99
Es	-2.545247	0.055533	-0.388529	99
Es	1.290967	0.047446	0.314247	99
Es	-0.392398	1.105574	0.419005	99
Es	-0.788265	1.305350	1.013159	99
Es	-2.002768	0.046945	-0.435282	99
Es	-0.147578	1.712254	0.061465	99
Es	2.489581	-0.213735	-0.259857	99
Es	-0.877671	0.082483	-1.181457	99
Es	0.215303	0.619188	0.605974	99
Es	-2.632582	0.010518	-0.084157	99
Es	2.850109	0.083590	-0.762507	99
Es	-0.779305	-1.270884	0.933348	99
Es	-0.801446	0.648776	-0.049910	99
Es	3.421392	0.097417	-1.161526	99
41
Properties=species:S:1:pos:R:3:Z:I:1 energy=-306.7340968038715 field_type=dipole dipole="0.000000 0.000000 0.000000" charge=0
O	-2.545421	0.055761	-0.388417	8
C	-1.109871	0.061351	-0.464647	6
C	-0.392431	1.105651	0.419013	6
C	0.671869	0.031931	0.751453	6
C	-0.382651	-1.029369	0.353153	6
C	1.865600	0.060241	-0.075017	6
C	2.849909	0.083591	-0.762357	6
H	-2.821961	-0.706739	-0.925347	1
H	-0.781861	0.099761	-1.511377	1
H	-0.977261	1.428151	1.289163	1
H	-0.038081	1.997991	-0.106187	1
H	0.924379	0.000431	1.818363	1
H	-0.020741	-1.884359	-0.226177	1
H	-0.964411	-1.410079	1.201573	1
H	3.722929	0.105681	-1.373187	1
Es	1.865377	0.060235	-0.074862	99
Es	-0.781159	-1.270693	0.933934	99
Es	-2.677128	-0.354846	-0.676376	99
Es	2.850115	0.083588	-0.762499	99
Es	-2.000834	0.049969	-0.439069	99
Es	-0.147603	1.711632	0.060759	99
Es	-0.382611	-1.029310	0.353154	99
Es	3.422288	0.097401	-1.161424	99
Es	-0.785425	-0.555728	-0.084473	99
Es	-2.545214	0.055467	-0.388524	99
Es	-0.789833	1.305255	1.013869	99
Es	2.469096	0.376565	-0.268955	99
Es	1.292000	0.047389	0.313548	99
Es	0.671907	0.031932	0.751347	99
Es	0.214880	0.618401	0.606424	99
Es	-0.133836	-1.613956	-0.044224	99
Es	2.164041	0.079709	-0.713441	99
Es	-1.110075	0.061345	-0.464579	99
Es	-2.645613	0.023633	-0.079693	99
Es	0.858976	0.011408	1.456356	99
Es	-0.799804	0.648683	-0.049052	99
Es	0.220054	-0.551795	0.571247	99
Es	-2.619783	0.260412	-0.546577	99
Es	2.463961	-0.240417	-0.297981	99
Es	-0.876948	0.082420	-1.181966	99
Es	-0.392400	1.105575	0.419003	99
41
Properties=species:S:1:pos:R:3:Z:I:1 energy=-306.7340968038715 field_type=dipole dipole="0.000000 0.000000 0.000000" charge=0
O	-2.545421	0.055761	-0.388417	8
C	-1.109871	0.061351	-0.464647	6
C	-0.392431	1.105651	0.419013	6
C	0.671869	0.031931	0.751453	6
C	-0.382651	-1.029369	0.353153	6
C	1.865600	0.060241	-0.075017	6
C	2.849909	0.083591	-0.762357	6
H	-2.821961	-0.706739	-0.925347	1
H	-0.781861	0.099761	-1.511377	1
H	-0.977261	1.428151	1.289163	1
H	-0.038081	1.997991	-0.106187	1
H	0.924379	0.000431	1.818363	1
H	-0.020741	-1.884359	-0.226177	1
H	-0.964411	-1.410079	1.201573	1
H	3.722929	0.105681	-1.373187	1
Es	1.865376	0.060234	-0.074863	99
Es	-0.876390	0.082500	-1.182263	99
Es	-0.784018	-0.555933	-0.083770	99
Es	-2.675543	-0.353773	-0.672148	99
Es	-2.610520	0.240830	-0.547940	99
Es	-2.545218	0.055422	-0.388521	99
Es	0.214803	0.617951	0.606967	99
Es	-1.999650	0.052458	-0.442223	99
Es	3.423312	0.097551	-1.160460	99
Es	0.671908	0.031933	0.751346	99
Es	-1.110077	0.061344	-0.464579	99
Es	-0.791240	1.304919	1.014014	99
Es	-2.657907	0.039771	-0.079054	99
Es	2.291433	0.400752	-0.523577	99
Es	-0.392399	1.105572	0.419004	99
Es	-0.147796	1.711315	0.060255	99
Es	1.292637	0.047483	0.313372	99
Es	0.858268	0.011349	1.454586	99
Es	-0.134104	-1.613453	-0.044544	99
Es	-0.382607	-1.029309	0.353157	99
Es	2.245151	-0.205964	-0.609649	99
Es	-0.782594	-1.270419	0.934096	99
Es	2.559876	0.020789	-0.148122	99
Es	2.850117	0.083591	-0.762503	99
Es	-0.798462	0.648670	-0.048331	99
Es	0.220072	-0.551310	0.571693	99
41
Properties=species:S:1:pos:R:3:Z:I:1 energy=-306.7340968038715 field_type=dipole dipole="0.000000 0.000000 0.000000" charge=0
O	-2.545421	0.055761	-0.388417	8
C	-1.109871	0.061351	-0.464647	6
C	-0.392431	1.105651	0.419013	6
C	0.671869	0.031931	0.751453	6
C	-0.382651	-1.029369	0.353153	6
C	1.865600	0.060241	-0.075017	6
C	2.849909	0.083591	-0.762357	6
H	-2.821961	-0.706739	-0.925347	1
H	-0.781861	0.099761	-1.511377	1
H	-0.977261	1.428151	1.289163	1
H	-0.038081	1.997991	-0.106187	1
H	0.924379	0.000431	1.818363	1
H	-0.020741	-1.884359	-0.226177	1
H	-0.964411	-1.410079	1.201573	1
H	3.722929	0.105681	-1.373187	1
Es	-2.545171	0.055413	-0.388476	99
Es	-0.392397	1.105572	0.419003	99
Es	-0.792425	1.304558	1.014019	99
Es	-1.110076	0.061344	-0.464579	99
Es	1.865372	0.060235	-0.074868	99
Es	0.857761	0.011435	1.453379	99
Es	2.850123	0.083606	-0.762497	99
Es	0.219828	-0.550897	0.571751	99
Es	-0.797393	0.648756	-0.047348	99
Es	-0.382605	-1.029305	0.353155	99
Es	2.167128	0.092682	-0.708969	99
Es	0.214577	0.617269	0.607128	99
Es	3.423350	0.097791	-1.160725	99
Es	-2.674659	-0.351803	-0.670297	99
Es	1.292908	0.047282	0.312880	99
Es	-0.134125	-1.613018	-0.044830	99
Es	-2.601030	0.223409	-0.545917	99
Es	-0.875871	0.082764	-1.182537	99
Es	-0.147771	1.711119	0.059597	99
Es	-0.783561	-1.270275	0.934260	99
Es	2.471749	0.369792	-0.265173	99
Es	0.671907	0.031932	0.751346	99
Es	-2.669088	0.054163	-0.080514	99
Es	-1.999063	0.053575	-0.444356	99
Es	2.458007	-0.246848	-0.306405	99
Es	-0.783049	-0.556278	-0.083080	99
41
Properties=species:S:1:pos:R:3:Z:I:1 energy=-306.7340968038715 field_type=dipole dipole="0.000000 0.000000 0.000000" charge=0
O	-2.545421	0.055761	-0.388417	8
C	-1.109871	0.061351	-0.464647	6
C	-0.392431	1.105651	0.419013	6
C	0.671869	0.031931	0.751453	6
C	-0.382651	-1.029369	0.353153	6
C	1.865600	0.060241	-0.075017	6
C	2.849909	0.083591	-0.762357	6
H	-2.821961	-0.706739	-0.925347	1
H	-0.781861	0.099761	-1.511377	1
H	-0.977261	1.428151	1.289163	1
H	-0.038081	1.997991	-0.106187	1
H	0.924379	0.000431	1.818363	1
H	-0.020741	-1.884359	-0.226177	1
H	-0.964411	-1.410079	1.201573	1
H	3.722929	0.105681	-1.373187	1
Es	-2.672840	-0.348109	-0.670052	99
Es	-0.392398	1.105571	0.419003	99
Es	-0.784541	-1.270007	0.934214	99
Es	-2.545214	0.055510	-0.388547	99
Es	-0.147864	1.710910	0.059465	99
Es	3.423699	0.097965	-1.160412	99
Es	0.671908	0.031934	0.751345	99
Es	-0.875460	0.082910	-1.182717	99
Es	-0.796550	0.648769	-0.046953	99
Es	2.439795	-0.260929	-0.333216	99
Es	-2.674786	0.056793	-0.081135	99
Es	0.219731	-0.550873	0.572224	99
Es	-0.134291	-1.612666	-0.044963	99
Es	1.865376	0.060233	-0.074861	99
Es	0.857437	0.011581	1.451924	99
Es	-0.793421	1.304195	1.013956	99
Es	2.850120	0.083593	-0.762505	99
Es	-1.998815	0.054760	-0.446471	99
Es	-0.782096	-0.556461	-0.082564	99
Es	2.487080	0.349078	-0.243487	99
Es	-0.382608	-1.029304	0.353153	99
Es	1.293214	0.047219	0.312698	99
Es	0.214591	0.617043	0.607465	99
Es	-2.597476	0.215846	-0.543095	99
Es	2.169914	0.127366	-0.703947	99
Es	-1.110078	0.061345	-0.464579	99
41
Properties=species:S:1:pos:R:3:Z:I:1 energy=-306.7340968038715 field_type=dipole dipole="0.000000 0.000000 0.000000" charge=0
O	-2.545421	0.055761	-0.388417	8
C	-1.109871	0.061351	-0.464647	6
C	-0.392431	1.105651	0.419013	6
C	0.671869	0.031931	0.751453	6
C	-0.382651	-1.029369	0.353153	6
C	1.865600	0.060241	-0.075017	6
C	2.849909	0.083591	-0.762357	6
H	-2.821961	-0.706739	-0.925347	1
H	-0.781861	0.099761	-1.511377	1
H	-0.977261	1.428151	1.289163	1
H	-0.038081	1.997991	-0.106187	1
H	0.924379	0.000431	1.818363	1
H	-0.020741	-1.884359	-0.226177	1
H	-0.964411	-1.410079	1.201573	1
H	3.722929	0.105681	-1.373187	1
Es	2.169061	0.070909	-0.707247	99
Es	-0.134458	-1.612450	-0.045196	99
Es	-1.110079	0.061345	-0.464579	99
Es	2.460350	0.381799	-0.281079	99
Es	0.214744	0.616806	0.607616	99
Es	0.219785	-0.550706	0.572458	99
Es	0.857155	0.011618	1.451053	99
Es	-2.671304	-0.345217	-0.670013	99
Es	1.865371	0.060233	-0.074865	99
Es	-2.678069	0.056778	-0.081477	99
Es	-2.545236	0.055527	-0.388582	99
Es	2.467245	-0.236986	-0.292522	99
Es	-1.998823	0.056090	-0.448112	99
Es	-0.795771	0.648786	-0.046431	99
Es	-0.785476	-1.269639	0.934026	99
Es	-0.794218	1.303918	1.013850	99
Es	-2.595797	0.211642	-0.540825	99
Es	3.424024	0.097845	-1.160065	99
Es	1.293398	0.047187	0.312570	99
Es	-0.382607	-1.029309	0.353157	99
Es	-0.148124	1.710671	0.059312	99
Es	-0.781286	-0.556494	-0.082063	99
Es	2.850122	0.083592	-0.762505	99
Es	0.671911	0.031929	0.751352	99
Es	-0.875090	0.082827	-1.182892	99
Es	-0.392400	1.105574	0.419004	99
41
Properties=species:S:1:pos:R:3:Z:I:1 energy=-306.7340968038715 field_type=dipole dipole="0.000000 0.000000 0.000000" charge=0
O	-2.545421	0.055761	-0.388417	8
C	-1.109871	0.061351	-0.464647	6
C	-0.392431	1.105651	0.419013	6
C	0.671869	0.031931	0.751453	6
C	-0.382651	-1.029369	0.353153	6
C	1.865600	0.060241	-0.075017	6
C	2.849909	0.083591	-0.762357	6
H	-2.821961	-0.706739	-0.925347	1
H	-0.781861	0.099761	-1.511377	1
H	-0.977261	1.428151	1.289163	1
H	-0.038081	1.997991	-0.106187	1
H	0.924379	0.000431	1.818363	1
H	-0.020741	-1.884359	-0.226177	1
H	-0.964411	-1.410079	1.201573	1
H	3.722929	0.105681	-1.373187	1
Es	-0.795285	0.648733	-0.045783	99
Es	1.865370	0.060234	-0.074865	99
Es	0.671908	0.031933	0.751344	99
Es	-1.110074	0.061349	-0.464577	99
Es	-0.786073	-1.269480	0.933958	99
Es	-0.794816	1.303555	1.013687	99
Es	2.850119	0.083599	-0.762510	99
Es	0.219729	-0.550618	0.572664	99
Es	2.487181	-0.212687	-0.262658	99
Es	-2.545203	0.055434	-0.388505	99
Es	2.438895	0.399204	-0.311658	99
Es	1.293543	0.046989	0.312512	99
Es	-2.590193	0.202398	-0.537335	99
Es	-0.392399	1.105573	0.419004	99
Es	-0.134618	-1.612165	-0.045268	99
Es	-0.382607	-1.029308	0.353156	99
Es	-0.780657	-0.556965	-0.081578	99
Es	-0.874793	0.083186	-1.182975	99
Es	-2.684342	0.063940	-0.083943	99
Es	2.170542	0.029234	-0.706570	99
Es	0.214394	0.616670	0.608044	99
Es	-1.998603	0.056054	-0.449084	99
Es	-2.670943	-0.342974	-0.670023	99
Es	0.857086	0.011647	1.449987	99
Es	3.424163	0.097984	-1.159933	99
Es	-0.147897	1.710754	0.058852	99
41
Properties=species:S:1:pos:R:3:Z:I:1 energy=-306.7340968038715 field_type=dipole dipole="0.000000 0.000000 0.000000" charge=0
O	-2.545421	0.055761	-0.388417	8
C	-1.109871	0.061351	-0.464647	6
C	-0.392431	1.105651	0.419013	6
C	0.671869	0.031931	0.751453	6
C	-0.382651	-1.029369	0.353153	6
C	1.865600	0.060241	-0.075017	6
C	2.849909	0.083591	-0.762357	6
H	-2.821961	-0.706739	-0.925347	1
H	-0.781861	0.099761	-1.511377	1
H	-0.977261	1.428151	1.289163	1
H	-0.038081	1.997991	-0.106187	1
H	0.924379	0.000431	1.818363	1
H	-0.020741	-1.884359	-0.226177	1
H	-0.964411	-1.410079	1.201573	1
H	3.722929	0.105681	-1.373187	1
Es	2.464745	-0.239360	-0.296232	99
Es	-1.110075	0.061343	-0.464579	99
Es	0.214554	0.616385	0.608176	99
Es	1.865370	0.060226	-0.074862	99
Es	0.856875	0.011626	1.449383	99
Es	-0.780161	-0.556993	-0.081078	99
Es	2.168196	0.079276	-0.707979	99
Es	-2.669603	-0.341978	-0.668215	99
Es	0.219726	-0.550533	0.572742	99
Es	-1.998755	0.057156	-0.450742	99
Es	-0.795463	1.303225	1.013543	99
Es	2.463706	0.375615	-0.276617	99
Es	-0.148068	1.710645	0.058728	99
Es	-0.134753	-1.611893	-0.045390	99
Es	-0.874521	0.083263	-1.183062	99
Es	-2.587835	0.196189	-0.535502	99
Es	-2.545193	0.055669	-0.388832	99
Es	-0.392397	1.105575	0.419007	99
Es	0.671909	0.031932	0.751348	99
Es	2.850124	0.083598	-0.762505	99
Es	-0.382607	-1.029309	0.353157	99
Es	-0.794782	0.648881	-0.045476	99
Es	-2.687942	0.067817	-0.085471	99
Es	1.293670	0.047074	0.312403	99
Es	3.424253	0.098255	-1.159869	99
Es	-0.786544	-1.269409	0.933869	99
41
Properties=species:S:1:pos:R:3:Z:I:1 energy=-306.7340968038715 field_type=dipole dipole="0.000000 0.000000 0.000000" charge=0
O	-2.545421	0.055761	-0.388417	8
C	-1.109871	0.061351	-0.464647	6
C	-0.392431	1.105651	0.419013	6
C	0.671869	0.031931	0.751453	6
C	-0.382651	-1.029369	0.353153	6
C	1.865600	0.060241	-0.075017	6
C	2.849909	0.083591	-0.762357	6
H	-2.821961	-0.706739	-0.925347	1
H	-0.781861	0.099761	-1.511377	1
H	-0.977261	1.428151	1.289163	1
H	-0.038081	1.997991	-0.106187	1
H	0.924379	0.000431	1.818363	1
H	-0.020741	-1.884359	-0.226177	1
H	-0.964411	-1.410079	1.201573	1
H	3.722929	0.105681	-1.373187	1
Es	-0.786884	-1.269419	0.933811	99
Es	0.214439	0.616214	0.608122	99
Es	-0.392400	1.105573	0.419004	99
Es	0.220150	-0.550410	0.572623	99
Es	-2.668289	-0.340735	-0.666173	99
Es	-2.585191	0.190360	-0.534347	99
Es	-0.874251	0.083472	-1.183127	99
Es	2.169338	0.109475	-0.705358	99
Es	-1.998838	0.057690	-0.452188	99
Es	2.477585	0.358868	-0.257014	99
Es	-0.148143	1.710559	0.058505	99
Es	-0.134997	-1.611587	-0.045249	99
Es	0.671909	0.031932	0.751345	99
Es	1.865368	0.060235	-0.074867	99
Es	-0.779916	-0.557056	-0.081004	99
Es	3.424402	0.098439	-1.159678	99
Es	-2.691815	0.072048	-0.087394	99
Es	-0.382607	-1.029307	0.353156	99
Es	-1.110081	0.061343	-0.464581	99
Es	-0.795808	1.303078	1.013432	99
Es	2.449642	-0.252971	-0.318600	99
Es	2.850124	0.083597	-0.762503	99
Es	-2.545239	0.055497	-0.388528	99
Es	0.856663	0.011679	1.449266	99
Es	1.293781	0.047111	0.312422	99
Es	-0.794514	0.648589	-0.045129	99
41
Properties=species:S:1:pos:R:3:Z:I:1 energy=-306.7340968038715 field_type=dipole dipole="0.000000 0.000000 0.000000" charge=0
O	-2.545421	0.055761	-0.388417	8
C	-1.109871	0.061351	-0.464647	6
C	-0.392431	1.105651	0.419013	6
C	0.671869	0.031931	0.751453	6
C	-0.382651	-1.029369	0.353153	6
C	1.865600	0.060241	-0.075017	6
C	2.849909	0.083591	-0.762357	6
H	-2.821961	-0.706739	-0.925347	1
H	-0.781861	0.099761	-1.511377	1
H	-0.977261	1.428151	1.289163	1
H	-0.038081	1.997991	-0.106187	1
H	0.924379	0.000431	1.818363	1
H	-0.020741	-1.884359	-0.226177	1
H	-0.964411	-1.410079	1.201573	1
H	3.722929	0.105681	-1.373187	1
Es	-2.545206	0.055545	-0.388638	99
Es	1.865369	0.060232	-0.074869	99
Es	0.856555	0.011743	1.448609	99
Es	-0.135051	-1.611531	-0.045299	99
Es	-0.392399	1.105572	0.419004	99
Es	2.452482	-0.249919	-0.314440	99
Es	-0.796455	1.302777	1.013216	99
Es	1.293860	0.047131	0.312387	99
Es	-2.694454	0.071101	-0.088176	99
Es	0.671910	0.031932	0.751343	99
Es	0.219900	-0.550429	0.572740	99
Es	-0.148121	1.710457	0.058393	99
Es	-0.787265	-1.269178	0.933710	99
Es	-2.667099	-0.338093	-0.667101	99
Es	-1.110081	0.061343	-0.464581	99
Es	-0.382608	-1.029309	0.353156	99
Es	3.424507	0.098516	-1.159571	99
Es	-0.874074	0.083370	-1.183182	99
Es	-2.583763	0.188000	-0.532027	99
Es	0.214569	0.616053	0.608265	99
Es	2.850124	0.083597	-0.762501	99
Es	2.474861	0.362652	-0.260750	99
Es	2.169229	0.102562	-0.705745	99
Es	-1.998876	0.058293	-0.452575	99
Es	-0.779519	-0.557094	-0.080557	99
Es	-0.793966	0.648953	-0.044863	99
41
Properties=species:S:1:pos:R:3:Z:I:1 energy=-306.7340968038715 field_type=dipole dipole="0.000000 0.000000 0.000000" charge=0
O	-2.545421	0.055761	-0.388417	8
C	-1.109871	0.061351	-0.464647	6
C	-0.392431	1.105651	0.419013	6
C	0.671869	0.031931	0.751453	6
C	-0.382651	-1.029369	0.353153	6
C	1.865600	0.060241	-0.075017	6
C	2.849909	0.083591	-0.762357	6
H	-2.821961	-0.706739	-0.925347	1
H	-0.781861	0.099761	-1.511377	1
H	-0.977261	1.428151	1.289163	1
H	-0.038081	1.997991	-0.106187	1
H	0.924379	0.000431	1.818363	1
H	-0.020741	-1.884359	-0.226177	1
H	-0.964411	-1.410079	1.201573	1
H	3.722929	0.105681	-1.373187	1
Es	-0.873883	0.083691	-1.183228	99
Es	-0.135315	-1.611324	-0.045477	99
Es	0.856506	0.011776	1.448036	99
Es	-0.382607	-1.029311	0.353158	99
Es	-0.787694	-1.269006	0.933579	99
Es	0.671908	0.031932	0.751345	99
Es	-2.666011	-0.338130	-0.665315	99
Es	2.449058	0.389024	-0.297371	99
Es	2.168870	0.048833	-0.708041	99
Es	1.293964	0.047086	0.312404	99
Es	1.865369	0.060234	-0.074864	99
Es	-2.545196	0.055431	-0.388498	99
Es	-0.148245	1.710390	0.058172	99
Es	0.220061	-0.550400	0.572836	99
Es	-2.696777	0.074150	-0.089629	99
Es	-1.110082	0.061343	-0.464579	99
Es	3.424545	0.098372	-1.159568	99
Es	2.850127	0.083598	-0.762501	99
Es	-0.779031	-0.557435	-0.080105	99
Es	2.478611	-0.222344	-0.275552	99
Es	-0.796812	1.302609	1.013088	99
Es	-2.582381	0.184173	-0.531609	99
Es	-0.793696	0.648656	-0.044509	99
Es	0.214586	0.616111	0.608536	99
Es	-0.392398	1.105570	0.419004	99
Es	-1.999052	0.059244	-0.453366	99
41
Properties=species:S:1:pos:R:3:Z:I:1 energy=-306.7340968038715 field_type=dipole dipole="0.000000 0.000000 0.000000" charge=0
O	-2.545421	0.055761	-0.388417	8
C	-1.109871	0.061351	-0.464647	6
C	-0.392431	1.105651	0.419013	6
C	0.671869	0.031931	0.751453	6
C	-0.382651	-1.029369	0.353153	6
C	1.865600	0.060241	-0.075017	6
C	2.849909	0.083591	-0.762357	6
H	-2.821961	-0.706739	-0.925347	1
H	-0.781861	0.099761	-1.511377	1
H	-0.977261	1.428151	1.289163	1
H	-0.038081	1.997991	-0.106187	1
H	0.924379	0.000431	1.818363	1
H	-0.020741	-1.884359	-0.226177	1
H	-0.964411	-1.410079	1.201573	1
H	3.722929	0.105681	-1.373187	1
Es	2.850125	0.083596	-0.762501	99
Es	-1.999219	0.059278	-0.454768	99
Es	2.439792	-0.258605	-0.333247	99
Es	-0.148151	1.710381	0.058176	99
Es	-0.797054	1.302466	1.013012	99
Es	-2.581031	0.181469	-0.529960	99
Es	-2.698155	0.075464	-0.090348	99
Es	0.220245	-0.550354	0.572864	99
Es	-0.392399	1.105572	0.419004	99
Es	1.293943	0.046976	0.312290	99
Es	-0.873640	0.083782	-1.183262	99
Es	-2.665796	-0.336785	-0.664728	99
Es	0.214425	0.615903	0.608534	99
Es	2.486660	0.345599	-0.244239	99
Es	-0.382607	-1.029308	0.353156	99
Es	-0.778813	-0.557503	-0.079953	99
Es	-0.788012	-1.268920	0.933492	99
Es	-1.110079	0.061345	-0.464582	99
Es	0.856466	0.011760	1.447739	99
Es	1.865370	0.060233	-0.074863	99
Es	-0.793559	0.648657	-0.044287	99
Es	-2.545237	0.055502	-0.388550	99
Es	0.671909	0.031934	0.751345	99
Es	3.424645	0.098716	-1.159401	99
Es	2.170070	0.128262	-0.703542	99
Es	-0.135470	-1.611145	-0.045435	99
41
Properties=species:S:1:pos:R:3:Z:I:1 energy=-306.7340968038715 field_type=dipole dipole="0.000000 0.000000 0.000000" charge=0
O	-2.545421	0.055761	-0.388417	8
C	-1.109871	0.061351	-0.464647	6
C	-0.392431	1.105651	0.419013	6
C	0.671869	0.031931	0.751453	6
C	-0.382651	-1.029369	0.353153	6
C	1.865600	0.060241	-0.075017	6
C	2.849909	0.083591	-0.762357	6
H	-2.821961	-0.706739	-0.925347	1
H	-0.781861	0.099761	-1.511377	1
H	-0.977261	1.428151	1.289163	1
H	-0.038081	1.997991	-0.106187	1
H	0.924379	0.000431	1.818363	1
H	-0.020741	-1.884359	-0.226177	1
H	-0.964411	-1.410079	1.201573	1
H	3.722929	0.105681	-1.373187	1
Es	2.850124	0.083599	-0.762505	99
Es	0.856361	0.011840	1.447163	99
Es	-1.999425	0.059840	-0.455512	99
Es	1.294051	0.047027	0.312337	99
Es	-0.148222	1.710398	0.058191	99
Es	-0.873495	0.083678	-1.183301	99
Es	-2.700428	0.075864	-0.091309	99
Es	-2.579452	0.178680	-0.527758	99
Es	-0.135432	-1.611123	-0.045501	99
Es	-2.664938	-0.334954	-0.665175	99
Es	2.167812	0.081383	-0.708297	99
Es	2.464643	0.372597	-0.275438	99
Es	0.671908	0.031931	0.751345	99
Es	3.424675	0.098579	-1.159393	99
Es	-1.110080	0.061345	-0.464580	99
Es	-0.392400	1.105574	0.419004	99
Es	-0.778621	-0.557415	-0.079748	99
Es	0.219983	-0.550428	0.573109	99
Es	-0.788275	-1.268800	0.933354	99
Es	-0.382606	-1.029306	0.353155	99
Es	-0.793269	0.648711	-0.044200	99
Es	-0.797363	1.302173	1.012913	99
Es	2.464095	-0.238573	-0.297218	99
Es	0.214619	0.615990	0.608703	99
Es	1.865368	0.060234	-0.074866	99
Es	-2.545205	0.055432	-0.388530	99
41
Properties=species:S:1:pos:R:3:Z:I:1 energy=-306.7340968038715 field_type=dipole dipole="0.000000 0.000000 0.000000" charge=0
O	-2.545421	0.055761	-0.388417	8
C	-1.109871	0.061351	-0.464647	6
C	-0.392431	1.105651	0.419013	6
C	0.671869	0.031931	0.751453	6
C	-0.382651	-1.029369	0.353153	6
C	1.865600	0.060241	-0.075017	6
C	2.849909	0.083591	-0.762357	6
H	-2.821961	-0.706739	-0.925347	1
H	-0.781861	0.099761	-1.511377	1
H	-0.977261	1.428151	1.289163	1
H	-0.038081	1.997991	-0.106187	1
H	0.924379	0.000431	1.818363	1
H	-0.020741	-1.884359	-0.226177	1
H	-0.964411	-1.410079	1.201573	1
H	3.722929	0.105681	-1.373187	1
Es	-2.667193	-0.331467	-0.671403	99
Es	-0.786623	-1.270158	0.934244	99
Es	-2.707957	0.086672	-0.097383	99
Es	0.213981	0.615435	0.608230	99
Es	3.424714	0.099253	-1.159209	99
Es	-2.557569	0.112518	-0.455888	99
Es	2.253838	0.369395	-0.576805	99
Es	-1.110078	0.061346	-0.464580	99
Es	-0.797503	1.301662	1.012524	99
Es	-2.556009	0.102195	-0.444065	99
Es	-0.135547	-1.610635	-0.044364	99
Es	1.294037	0.046271	0.312586	99
Es	0.220904	-0.550850	0.572481	99
Es	-0.779764	-0.557160	-0.081042	99
Es	-0.873812	0.085184	-1.183138	99
Es	1.865370	0.060232	-0.074864	99
Es	-0.392399	1.105572	0.419004	99
Es	0.856452	0.011792	1.448786	99
Es	2.850122	0.083596	-0.762505	99
Es	-0.148023	1.711042	0.057540	99
Es	2.558073	0.086065	-0.148568	99
Es	-0.382607	-1.029308	0.353157	99
Es	-0.793493	0.648472	-0.044190	99
Es	2.284276	-0.239984	-0.556241	99
Es	0.671909	0.031931	0.751345	99
Es	-2.000674	0.065203	-0.459706	99
41
Properties=species:S:1:pos:R:3:Z:I:1 energy=-306.7340968038715 field_type=dipole dipole="0.000000 0.000000 0.000000" charge=0
O	-2.545421	0.055761	-0.388417	8
C	-1.109871	0.061351	-0.464647	6
C	-0.392431	1.105651	0.419013	6
C	0.671869	0.031931	0.751453	6
C	-0.382651	-1.029369	0.353153	6
C	1.865600	0.060241	-0.075017	6
C	2.849909	0.083591	-0.762357	6
H	-2.821961	-0.706739	-0.925347	1
H	-0.781861	0.099761	-1.511377	1
H	-0.977261	1.428151	1.289163	1
H	-0.038081	1.997991	-0.106187	1
H	0.924379	0.000431	1.818363	1
H	-0.020741	-1.884359	-0.226177	1
H	-0.964411	-1.410079	1.201573	1
H	3.722929	0.105681	-1.373187	1
Es	-2.545165	0.055472	-0.388549	99
Es	-2.664254	-0.332619	-0.665328	99
Es	-0.792721	0.648753	-0.043721	99
Es	3.424817	0.098621	-1.159214	99
Es	0.856200	0.011827	1.446730	99
Es	-0.797944	1.301873	1.012729	99
Es	-0.392399	1.105572	0.419004	99
Es	1.865370	0.060237	-0.074863	99
Es	2.168286	0.088443	-0.707420	99
Es	-0.873252	0.083716	-1.183330	99
Es	-2.702403	0.075450	-0.092240	99
Es	0.214782	0.615915	0.608749	99
Es	0.220212	-0.550298	0.573085	99
Es	-1.110074	0.061343	-0.464580	99
Es	0.671910	0.031933	0.751344	99
Es	-0.382608	-1.029309	0.353156	99
Es	2.460319	-0.242021	-0.302812	99
Es	-0.788952	-1.268427	0.933063	99
Es	-2.578163	0.176500	-0.525772	99
Es	-1.999485	0.060078	-0.456236	99
Es	2.467860	0.368964	-0.270856	99
Es	-0.148401	1.710245	0.058030	99
Es	2.850124	0.083600	-0.762505	99
Es	1.294159	0.046972	0.312329	99
Es	-0.135773	-1.610920	-0.045533	99
Es	-0.778018	-0.557644	-0.079315	99
41
Properties=species:S:1:pos:R:3:Z:I:1 energy=-306.7340968038715 field_type=dipole dipole="0.000000 0.000000 0.000000" charge=0
O	-2.545421	0.055761	-0.388417	8
C	-1.109871	0.061351	-0.464647	6
C	-0.392431	1.105651	0.419013	6
C	0.671869	0.031931	0.751453	6
C	-0.382651	-1.029369	0.353153	6
C	1.865600	0.060241	-0.075017	6
C	2.849909	0.083591	-0.762357	6
H	-2.821961	-0.706739	-0.925347	1
H	-0.781861	0.099761	-1.511377	1
H	-0.977261	1.428151	1.289163	1
H	-0.038081	1.997991	-0.106187	1
H	0.924379	0.000431	1.818363	1
H	-0.020741	-1.884359	-0.226177	1
H	-0.964411	-1.410079	1.201573	1
H	3.722929	0.105681	-1.373187	1
Es	0.220090	-0.550337	0.573111	99
Es	-1.110079	0.061339	-0.464580	99
Es	-0.382608	-1.029310	0.353156	99
Es	0.214892	0.615799	0.608889	99
Es	-0.873113	0.083789	-1.183355	99
Es	-0.798250	1.301654	1.012548	99
Es	-0.789043	-1.268376	0.933056	99
Es	-0.148377	1.710272	0.057996	99
Es	0.856223	0.011863	1.446439	99
Es	-2.545179	0.055476	-0.388521	99
Es	2.850126	0.083595	-0.762503	99
Es	2.491577	0.338146	-0.237263	99
Es	2.170748	0.137655	-0.702168	99
Es	2.434149	-0.260673	-0.341647	99
Es	-2.703999	0.076492	-0.093154	99
Es	-0.392399	1.105572	0.419004	99
Es	-2.662657	-0.332332	-0.662955	99
Es	-0.792488	0.648842	-0.043485	99
Es	-1.999558	0.060183	-0.456549	99
Es	1.865368	0.060234	-0.074866	99
Es	0.671908	0.031933	0.751346	99
Es	-0.135864	-1.610853	-0.045551	99
Es	-2.578086	0.175097	-0.526926	99
Es	1.294153	0.047053	0.312291	99
Es	-0.777933	-0.557692	-0.079163	99
Es	3.424827	0.098852	-1.159205	99
