42
Properties=species:S:1:pos:R:3:Z:I:1 energy=-343.7893495528418 field_type=dipole dipole="0.000000 0.000000 0.000000" charge=0
O	-2.028665	0.238814	-0.167193	8
C	-0.595055	0.079914	-0.356893	6
C	0.267226	1.032134	0.532137	6
C	1.172926	-0.162836	0.869367	6
C	0.022305	-1.097456	0.463627	6
C	-0.228905	0.087564	-1.901323	6
O	0.886635	-0.028316	-2.408823	8
H	-2.167544	0.222764	0.795997	1
H	-0.266665	1.442984	1.396857	1
H	0.766325	1.854034	0.010517	1
H	2.053725	-0.243296	0.222357	1
H	1.493816	-0.233256	1.911837	1
H	0.325866	-1.976336	-0.112673	1
H	-0.597085	-1.430566	1.304447	1
H	-1.104915	0.213854	-2.560243	1
Es	-2.080685	0.226079	0.352034	99
Es	0.886337	-0.028291	-2.408680	99
Es	-0.111998	1.292230	1.118922	99
Es	0.866999	-0.015681	-2.713769	99
Es	0.221662	-1.697634	0.070688	99
Es	-2.097401	0.523979	-0.262435	99
Es	-0.407522	0.083196	-1.127097	99
Es	0.454354	-0.238478	-2.225274	99
Es	-0.201563	0.626062	0.033063	99
Es	0.635118	-0.698534	0.698220	99
Es	-0.595254	0.079939	-0.356931	99
Es	-0.410131	-1.301427	1.035610	99
Es	1.172839	-0.162826	0.869354	99
Es	-2.161755	-0.014019	-0.283647	99
Es	1.760223	-0.216175	0.428238	99
Es	0.771743	0.490710	0.736630	99
Es	-0.338680	-0.564833	-0.005235	99
Es	0.022297	-1.097388	0.463605	99
Es	1.116797	-0.061738	-2.199236	99
Es	-1.487660	0.177895	-0.227138	99
Es	1.390002	-0.210964	1.585837	99
Es	0.513445	0.263857	-2.208978	99
Es	-0.833495	0.174003	-2.333032	99
Es	-2.028425	0.238755	-0.166923	99
Es	0.600425	1.595093	0.176656	99
Es	0.267205	1.032072	0.532111	99
Es	-0.228886	0.087556	-1.901230	99
42
Properties=species:S:1:pos:R:3:Z:I:1 energy=-343.7893495528418 field_type=dipole dipole="0.000000 0.000000 0.000000" charge=0
O	-2.028665	0.238814	-0.167193	8
C	-0.595055	0.079914	-0.356893	6
C	0.267226	1.032134	0.532137	6
C	1.172926	-0.162836	0.869367	6
C	0.022305	-1.097456	0.463627	6
C	-0.228905	0.087564	-1.901323	6
O	0.886635	-0.028316	-2.408823	8
H	-2.167544	0.222764	0.795997	1
H	-0.266665	1.442984	1.396857	1
H	0.766325	1.854034	0.010517	1
H	2.053725	-0.243296	0.222357	1
H	1.493816	-0.233256	1.911837	1
H	0.325866	-1.976336	-0.112673	1
H	-0.597085	-1.430566	1.304447	1
H	-1.104915	0.213854	-2.560243	1
Es	-0.113157	1.292779	1.120435	99
Es	-0.337427	-0.564287	-0.004623	99
Es	-2.086912	0.227928	0.354620	99
Es	0.267204	1.032071	0.532111	99
Es	-0.406744	0.083084	-1.127755	99
Es	1.172839	-0.162825	0.869350	99
Es	1.112408	-0.061866	-2.197573	99
Es	0.770967	0.489132	0.736379	99
Es	0.454618	-0.236854	-2.223916	99
Es	-2.157151	-0.007903	-0.280250	99
Es	1.388153	-0.210419	1.585166	99
Es	-2.028440	0.238785	-0.166964	99
Es	0.600389	1.594099	0.175949	99
Es	-2.099754	0.515402	-0.265201	99
Es	0.022299	-1.097389	0.463606	99
Es	-0.595257	0.079941	-0.356933	99
Es	0.886322	-0.028290	-2.408701	99
Es	0.870320	-0.016797	-2.717347	99
Es	-0.411596	-1.301821	1.036971	99
Es	-0.200632	0.625157	0.033541	99
Es	1.762816	-0.216430	0.426394	99
Es	-0.228887	0.087554	-1.901228	99
Es	0.514461	0.263537	-2.208543	99
Es	-0.833278	0.173901	-2.333005	99
Es	0.634779	-0.697026	0.698556	99
Es	0.221924	-1.696564	0.070098	99
Es	-1.484272	0.178538	-0.229774	99
42
Properties=species:S:1:pos:R:3:Z:I:1 energy=-343.7893495528418 field_type=dipole dipole="0.000000 0.000000 0.000000" charge=0
O	-2.028665	0.238814	-0.167193	8
C	-0.595055	0.079914	-0.356893	6
C	0.267226	1.032134	0.532137	6
C	1.172926	-0.162836	0.869367	6
C	0.022305	-1.097456	0.463627	6
C	-0.228905	0.087564	-1.901323	6
O	0.886635	-0.028316	-2.408823	8
H	-2.167544	0.222764	0.795997	1
H	-0.266665	1.442984	1.396857	1
H	0.766325	1.854034	0.010517	1
H	2.053725	-0.243296	0.222357	1
H	1.493816	-0.233256	1.911837	1
H	0.325866	-1.976336	-0.112673	1
H	-0.597085	-1.430566	1.304447	1
H	-1.104915	0.213854	-2.560243	1
Es	0.267206	1.032073	0.532113	99
Es	-0.595254	0.079943	-0.356932	99
Es	-2.097886	0.509329	-0.261622	99
Es	-0.114170	1.293106	1.121184	99
Es	0.515476	0.262711	-2.207175	99
Es	1.172841	-0.162826	0.869355	99
Es	0.868331	-0.015621	-2.717885	99
Es	-0.412523	-1.301873	1.037801	99
Es	0.886294	-0.028280	-2.408678	99
Es	0.221933	-1.695906	0.069781	99
Es	-2.090194	0.227897	0.355702	99
Es	-0.228887	0.087556	-1.901227	99
Es	-0.406293	0.083089	-1.128168	99
Es	-1.482289	0.178233	-0.233683	99
Es	-0.336561	-0.564028	-0.004140	99
Es	-2.158132	-0.001311	-0.280646	99
Es	0.600238	1.593411	0.175429	99
Es	-0.199807	0.624562	0.033926	99
Es	0.022296	-1.097387	0.463608	99
Es	-2.028410	0.238662	-0.166928	99
Es	0.634569	-0.695894	0.698319	99
Es	0.454475	-0.235908	-2.223911	99
Es	1.113722	-0.063245	-2.198389	99
Es	1.764361	-0.216670	0.425635	99
Es	-0.833074	0.173881	-2.333050	99
Es	0.770910	0.488296	0.736368	99
Es	1.386822	-0.210365	1.584575	99
42
Properties=species:S:1:pos:R:3:Z:I:1 energy=-343.7893495528418 field_type=dipole dipole="0.000000 0.000000 0.000000" charge=0
O	-2.028665	0.238814	-0.167193	8
C	-0.595055	0.079914	-0.356893	6
C	0.267226	1.032134	0.532137	6
C	1.172926	-0.162836	0.869367	6
C	0.022305	-1.097456	0.463627	6
C	-0.228905	0.087564	-1.901323	6
O	0.886635	-0.028316	-2.408823	8
H	-2.167544	0.222764	0.795997	1
H	-0.266665	1.442984	1.396857	1
H	0.766325	1.854034	0.010517	1
H	2.053725	-0.243296	0.222357	1
H	1.493816	-0.233256	1.911837	1
H	0.325866	-1.976336	-0.112673	1
H	-0.597085	-1.430566	1.304447	1
H	-1.104915	0.213854	-2.560243	1
Es	0.886322	-0.028284	-2.408629	99
Es	-0.405856	0.083011	-1.128422	99
Es	0.022298	-1.097387	0.463605	99
Es	-0.199188	0.624347	0.034099	99
Es	0.634694	-0.695301	0.698585	99
Es	0.513338	0.262071	-2.208388	99
Es	-2.097464	0.504456	-0.261596	99
Es	-0.595257	0.079941	-0.356933	99
Es	-2.028405	0.238760	-0.166960	99
Es	1.385986	-0.210316	1.583939	99
Es	1.109369	-0.062129	-2.193954	99
Es	-2.093666	0.228944	0.356424	99
Es	-0.833032	0.173901	-2.333034	99
Es	-2.156307	0.002749	-0.279162	99
Es	0.874338	-0.016165	-2.718998	99
Es	1.765357	-0.216700	0.425145	99
Es	0.770947	0.487501	0.736574	99
Es	-0.228887	0.087559	-1.901228	99
Es	0.221861	-1.695282	0.069594	99
Es	0.455070	-0.235883	-2.226020	99
Es	-0.114970	1.293306	1.121438	99
Es	0.267203	1.032072	0.532112	99
Es	-0.335791	-0.563780	-0.003898	99
Es	1.172842	-0.162826	0.869356	99
Es	-0.413469	-1.301984	1.037987	99
Es	0.600020	1.592910	0.175319	99
Es	-1.481361	0.177948	-0.235593	99
