36
Properties=species:S:1:pos:R:3:Z:I:1 energy=-341.3937205946019 field_type=dipole dipole="0.000000 0.000000 0.000000" charge=0
O	-1.962265	0.750271	0.836976	8
C	-0.780555	0.659711	0.576826	6
C	0.315455	1.648741	0.200676	6
O	1.229196	0.531981	0.084606	8
C	0.260405	-0.459389	0.516686	6
C	0.047935	-1.450209	-0.509834	6
C	-0.125515	-2.286319	-1.354974	6
H	0.604155	2.336291	0.997386	1
H	0.166405	2.164691	-0.748674	1
H	0.522185	-0.861819	1.500006	1
H	-0.277405	-3.033949	-2.099684	1
Es	-1.475054	0.749546	0.989089	99
Es	-0.276418	-2.018553	-0.709684	99
Es	-0.316768	0.016214	0.558885	99
Es	-0.224210	-2.770349	-1.839081	99
Es	-0.148886	-1.610190	-1.163523	99
Es	0.206503	1.992540	-0.432624	99
Es	0.144279	-0.971780	-0.006490	99
Es	0.047958	-1.450006	-0.509638	99
Es	-1.961968	0.750244	0.836913	99
Es	0.497666	2.106441	0.740327	99
Es	1.228812	0.532005	0.084721	99
Es	-0.125553	-2.286466	-1.355139	99
Es	0.315561	1.648554	0.200675	99
Es	-2.085234	0.479728	0.903220	99
Es	-0.284456	1.223678	0.391048	99
Es	-1.585247	0.679811	0.496122	99
Es	0.894249	0.968742	0.126474	99
Es	0.421979	-0.734885	1.162911	99
Es	0.260508	-0.459304	0.516527	99
Es	1.278878	0.485044	-0.210615	99
Es	-2.052835	1.038737	0.816433	99
Es	0.865879	0.133928	0.247606	99
Es	-0.780496	0.659682	0.576816	99
Es	0.306821	-1.952535	-0.905166	99
Es	1.443358	0.555884	0.302819	99
36
Properties=species:S:1:pos:R:3:Z:I:1 energy=-341.3937205946019 field_type=dipole dipole="0.000000 0.000000 0.000000" charge=0
O	-1.962265	0.750271	0.836976	8
C	-0.780555	0.659711	0.576826	6
C	0.315455	1.648741	0.200676	6
O	1.229196	0.531981	0.084606	8
C	0.260405	-0.459389	0.516686	6
C	0.047935	-1.450209	-0.509834	6
C	-0.125515	-2.286319	-1.354974	6
H	0.604155	2.336291	0.997386	1
H	0.166405	2.164691	-0.748674	1
H	0.522185	-0.861819	1.500006	1
H	-0.277405	-3.033949	-2.099684	1
Es	-2.081895	0.482474	0.903667	99
Es	-1.475448	0.747184	0.989168	99
Es	0.241849	-1.726625	-1.097055	99
Es	-1.961955	0.750248	0.836909	99
Es	0.864926	0.133654	0.242580	99
Es	-0.316567	0.016677	0.560442	99
Es	0.260506	-0.459303	0.516526	99
Es	0.047966	-1.450004	-0.509632	99
Es	-0.284795	1.223564	0.388898	99
Es	0.896562	0.970256	0.134646	99
Es	-0.223268	-2.772334	-1.839259	99
Es	0.498103	2.109749	0.741447	99
Es	-0.780506	0.659683	0.576809	99
Es	1.228847	0.532013	0.084710	99
Es	0.206636	1.989455	-0.429926	99
Es	1.281396	0.489609	-0.213474	99
Es	0.010437	-2.113496	-0.702575	99
Es	-1.585673	0.678578	0.493363	99
Es	-0.370999	-1.740129	-0.979849	99
Es	0.143489	-0.973837	-0.006287	99
Es	0.421333	-0.732369	1.159904	99
Es	0.315567	1.648545	0.200673	99
Es	1.439466	0.549869	0.302826	99
Es	-2.055112	1.039739	0.819243	99
Es	-0.125540	-2.286491	-1.355127	99
36
Properties=species:S:1:pos:R:3:Z:I:1 energy=-341.3937205946019 field_type=dipole dipole="0.000000 0.000000 0.000000" charge=0
O	-1.962265	0.750271	0.836976	8
C	-0.780555	0.659711	0.576826	6
C	0.315455	1.648741	0.200676	6
O	1.229196	0.531981	0.084606	8
C	0.260405	-0.459389	0.516686	6
C	0.047935	-1.450209	-0.509834	6
C	-0.125515	-2.286319	-1.354974	6
H	0.604155	2.336291	0.997386	1
H	0.166405	2.164691	-0.748674	1
H	0.522185	-0.861819	1.500006	1
H	-0.277405	-3.033949	-2.099684	1
Es	0.047971	-1.449994	-0.509634	99
Es	1.228915	0.531972	0.084664	99
Es	-0.223909	-2.773134	-1.839153	99
Es	-2.055730	1.040542	0.822804	99
Es	0.315565	1.648547	0.200673	99
Es	0.420888	-0.730774	1.157084	99
Es	0.206846	1.986820	-0.427000	99
Es	-2.080720	0.482557	0.902074	99
Es	0.898824	0.972419	0.141235	99
Es	0.143258	-0.973706	-0.007743	99
Es	-0.145236	-1.628031	-1.148085	99
Es	-0.285630	-2.009205	-0.716505	99
Es	-1.476018	0.744313	0.988508	99
Es	-0.285297	1.223584	0.387686	99
Es	-0.125548	-2.286478	-1.355153	99
Es	-0.780500	0.659683	0.576811	99
Es	-0.316639	0.016891	0.561793	99
Es	0.864536	0.133066	0.237815	99
Es	1.436916	0.544597	0.300915	99
Es	0.498531	2.112382	0.741369	99
Es	-1.961885	0.750185	0.836903	99
Es	1.282195	0.493425	-0.213501	99
Es	-1.585559	0.680726	0.492077	99
Es	0.313034	-1.944371	-0.913545	99
Es	0.260520	-0.459308	0.516538	99
36
Properties=species:S:1:pos:R:3:Z:I:1 energy=-341.3937205946019 field_type=dipole dipole="0.000000 0.000000 0.000000" charge=0
O	-1.962265	0.750271	0.836976	8
C	-0.780555	0.659711	0.576826	6
C	0.315455	1.648741	0.200676	6
O	1.229196	0.531981	0.084606	8
C	0.260405	-0.459389	0.516686	6
C	0.047935	-1.450209	-0.509834	6
C	-0.125515	-2.286319	-1.354974	6
H	0.604155	2.336291	0.997386	1
H	0.166405	2.164691	-0.748674	1
H	0.522185	-0.861819	1.500006	1
H	-0.277405	-3.033949	-2.099684	1
Es	-0.090422	-1.630283	-1.153522	99
Es	-2.054801	1.041460	0.824433	99
Es	-0.780501	0.659682	0.576814	99
Es	-0.125561	-2.286471	-1.355158	99
Es	-2.081147	0.483648	0.900835	99
Es	0.298799	-1.978593	-0.881840	99
Es	-0.316505	0.016967	0.562703	99
Es	0.315567	1.648545	0.200673	99
Es	1.287842	0.495988	-0.212955	99
Es	0.207160	1.985248	-0.424827	99
Es	-1.961977	0.750249	0.836911	99
Es	-0.326741	-1.972943	-0.742414	99
Es	0.420490	-0.729700	1.155085	99
Es	0.498628	2.113848	0.741435	99
Es	0.260512	-0.459305	0.516527	99
Es	-0.223916	-2.773421	-1.839395	99
Es	-1.585350	0.681257	0.491416	99
Es	0.862852	0.132846	0.232597	99
Es	1.228869	0.532025	0.084743	99
Es	0.047969	-1.449995	-0.509630	99
Es	1.431009	0.541106	0.302600	99
Es	-1.476434	0.741647	0.988790	99
Es	0.143831	-0.974389	-0.007985	99
Es	0.900685	0.973466	0.144217	99
Es	-0.285531	1.223824	0.386570	99
36
Properties=species:S:1:pos:R:3:Z:I:1 energy=-341.3937205946019 field_type=dipole dipole="0.000000 0.000000 0.000000" charge=0
O	-1.962265	0.750271	0.836976	8
C	-0.780555	0.659711	0.576826	6
C	0.315455	1.648741	0.200676	6
O	1.229196	0.531981	0.084606	8
C	0.260405	-0.459389	0.516686	6
C	0.047935	-1.450209	-0.509834	6
C	-0.125515	-2.286319	-1.354974	6
H	0.604155	2.336291	0.997386	1
H	0.166405	2.164691	-0.748674	1
H	0.522185	-0.861819	1.500006	1
H	-0.277405	-3.033949	-2.099684	1
Es	0.420074	-0.729063	1.154006	99
Es	1.428037	0.538451	0.298956	99
Es	-0.125547	-2.286490	-1.355143	99
Es	-0.780502	0.659681	0.576812	99
Es	-2.076415	0.485113	0.902290	99
Es	0.047968	-1.449996	-0.509627	99
Es	0.142906	-0.975927	-0.006630	99
Es	-0.285452	1.223787	0.385677	99
Es	0.903091	0.974590	0.150053	99
Es	0.284906	-1.776276	-1.058866	99
Es	-0.316173	0.016882	0.562913	99
Es	0.207315	1.984405	-0.423505	99
Es	0.863363	0.133296	0.232898	99
Es	0.315562	1.648550	0.200672	99
Es	-1.586804	0.680886	0.487894	99
Es	-0.223702	-2.774235	-1.838883	99
Es	1.228874	0.532005	0.084691	99
Es	-1.476271	0.741257	0.987517	99
Es	1.287886	0.497164	-0.215358	99
Es	-0.050304	-2.088970	-0.708702	99
Es	-1.961946	0.750245	0.836908	99
Es	-0.352568	-1.714702	-1.012390	99
Es	0.498488	2.114528	0.741680	99
Es	0.260507	-0.459304	0.516525	99
Es	-2.057967	1.040833	0.828240	99
36
Properties=species:S:1:pos:R:3:Z:I:1 energy=-341.3937205946019 field_type=dipole dipole="0.000000 0.000000 0.000000" charge=0
O	-1.962265	0.750271	0.836976	8
C	-0.780555	0.659711	0.576826	6
C	0.315455	1.648741	0.200676	6
O	1.229196	0.531981	0.084606	8
C	0.260405	-0.459389	0.516686	6
C	0.047935	-1.450209	-0.509834	6
C	-0.125515	-2.286319	-1.354974	6
H	0.604155	2.336291	0.997386	1
H	0.166405	2.164691	-0.748674	1
H	0.522185	-0.861819	1.500006	1
H	-0.277405	-3.033949	-2.099684	1
Es	0.260503	-0.459301	0.516525	99
Es	-0.313237	-1.683530	-1.055772	99
Es	1.292048	0.499503	-0.214718	99
Es	0.142574	-0.976218	-0.006656	99
Es	1.228938	0.531999	0.084673	99
Es	-0.224250	-2.774324	-1.838904	99
Es	-1.587140	0.680759	0.486758	99
Es	0.315571	1.648543	0.200665	99
Es	0.047972	-1.449996	-0.509628	99
Es	0.905556	0.975673	0.153941	99
Es	1.422366	0.535552	0.298359	99
Es	0.207843	1.983033	-0.421033	99
Es	-2.079187	0.486864	0.902540	99
Es	0.498585	2.115673	0.741306	99
Es	0.419758	-0.728388	1.151744	99
Es	0.862577	0.132797	0.228930	99
Es	-2.054327	1.041695	0.829436	99
Es	-0.316271	0.017027	0.564032	99
Es	0.308397	-1.820888	-1.022516	99
Es	-1.961949	0.750213	0.836908	99
Es	-0.286041	1.223904	0.384521	99
Es	-1.476601	0.738785	0.987349	99
Es	-0.112316	-2.075859	-0.701490	99
Es	-0.780498	0.659679	0.576802	99
Es	-0.125546	-2.286487	-1.355146	99
36
Properties=species:S:1:pos:R:3:Z:I:1 energy=-341.3937205946019 field_type=dipole dipole="0.000000 0.000000 0.000000" charge=0
O	-1.962265	0.750271	0.836976	8
C	-0.780555	0.659711	0.576826	6
C	0.315455	1.648741	0.200676	6
O	1.229196	0.531981	0.084606	8
C	0.260405	-0.459389	0.516686	6
C	0.047935	-1.450209	-0.509834	6
C	-0.125515	-2.286319	-1.354974	6
H	0.604155	2.336291	0.997386	1
H	0.166405	2.164691	-0.748674	1
H	0.522185	-0.861819	1.500006	1
H	-0.277405	-3.033949	-2.099684	1
Es	-0.780503	0.659683	0.576813	99
Es	1.427494	0.532890	0.295109	99
Es	-1.586527	0.677657	0.487201	99
Es	0.308829	-1.958405	-0.901493	99
Es	-1.961999	0.750260	0.836927	99
Es	1.285593	0.503194	-0.210898	99
Es	0.906866	0.976138	0.157734	99
Es	0.143654	-0.975351	-0.008081	99
Es	-0.125555	-2.286480	-1.355152	99
Es	-0.109180	-1.642767	-1.139274	99
Es	-2.057286	1.042386	0.827029	99
Es	-0.317762	-1.980503	-0.737301	99
Es	-0.224560	-2.774008	-1.839364	99
Es	0.419744	-0.728184	1.151475	99
Es	0.862244	0.131207	0.224579	99
Es	0.207953	1.982466	-0.420217	99
Es	0.047974	-1.449987	-0.509633	99
Es	0.498353	2.116107	0.741590	99
Es	-0.285733	1.224273	0.384624	99
Es	-0.315901	0.016863	0.564339	99
Es	0.260507	-0.459303	0.516524	99
Es	1.228881	0.532009	0.084698	99
Es	0.315570	1.648543	0.200670	99
Es	-2.076666	0.489322	0.901834	99
Es	-1.476666	0.738700	0.988895	99
36
Properties=species:S:1:pos:R:3:Z:I:1 energy=-341.3937205946019 field_type=dipole dipole="0.000000 0.000000 0.000000" charge=0
O	-1.962265	0.750271	0.836976	8
C	-0.780555	0.659711	0.576826	6
C	0.315455	1.648741	0.200676	6
O	1.229196	0.531981	0.084606	8
C	0.260405	-0.459389	0.516686	6
C	0.047935	-1.450209	-0.509834	6
C	-0.125515	-2.286319	-1.354974	6
H	0.604155	2.336291	0.997386	1
H	0.166405	2.164691	-0.748674	1
H	0.522185	-0.861819	1.500006	1
H	-0.277405	-3.033949	-2.099684	1
Es	-0.224721	-2.773846	-1.839615	99
Es	-0.315575	0.016770	0.563907	99
Es	0.860968	0.130418	0.219063	99
Es	0.208047	1.982121	-0.419619	99
Es	-0.074954	-1.644400	-1.141574	99
Es	-1.961910	0.750289	0.836896	99
Es	0.047965	-1.449993	-0.509626	99
Es	1.228887	0.532008	0.084687	99
Es	0.315560	1.648553	0.200671	99
Es	0.260505	-0.459304	0.516525	99
Es	0.498356	2.116330	0.741670	99
Es	-1.587188	0.677453	0.486200	99
Es	1.421195	0.530622	0.295075	99
Es	0.297624	-1.980644	-0.880368	99
Es	-0.125552	-2.286479	-1.355155	99
Es	1.290579	0.505489	-0.208633	99
Es	-1.476992	0.734009	0.988834	99
Es	-2.081889	0.492032	0.901372	99
Es	0.909134	0.976974	0.160853	99
Es	-0.780508	0.659683	0.576812	99
Es	-0.341087	-1.956684	-0.756003	99
Es	0.143828	-0.975498	-0.008166	99
Es	0.419704	-0.728002	1.151725	99
Es	-0.285695	1.224419	0.384574	99
Es	-2.050957	1.044390	0.828523	99
36
Properties=species:S:1:pos:R:3:Z:I:1 energy=-341.3937205946019 field_type=dipole dipole="0.000000 0.000000 0.000000" charge=0
O	-1.962265	0.750271	0.836976	8
C	-0.780555	0.659711	0.576826	6
C	0.315455	1.648741	0.200676	6
O	1.229196	0.531981	0.084606	8
C	0.260405	-0.459389	0.516686	6
C	0.047935	-1.450209	-0.509834	6
C	-0.125515	-2.286319	-1.354974	6
H	0.604155	2.336291	0.997386	1
H	0.166405	2.164691	-0.748674	1
H	0.522185	-0.861819	1.500006	1
H	-0.277405	-3.033949	-2.099684	1
Es	-0.315321	0.016695	0.564106	99
Es	0.208332	1.981635	-0.418609	99
Es	-0.338016	-1.959985	-0.753437	99
Es	0.498285	2.116668	0.741663	99
Es	-0.224953	-2.773894	-1.839603	99
Es	0.911826	0.977884	0.164510	99
Es	1.228906	0.532008	0.084692	99
Es	0.419468	-0.727799	1.151137	99
Es	-1.587528	0.673633	0.484977	99
Es	1.288611	0.506515	-0.207832	99
Es	-0.080312	-1.645939	-1.139524	99
Es	-1.961992	0.750253	0.836918	99
Es	-2.081084	0.495407	0.903061	99
Es	0.260505	-0.459303	0.516525	99
Es	-0.285856	1.224557	0.384195	99
Es	-1.477350	0.734000	0.989356	99
Es	-2.050819	1.044882	0.827260	99
Es	0.860733	0.130433	0.217908	99
Es	-0.125554	-2.286482	-1.355152	99
Es	1.420717	0.528649	0.291901	99
Es	0.047976	-1.449972	-0.509650	99
Es	0.300002	-1.975784	-0.885046	99
Es	0.143696	-0.975584	-0.008231	99
Es	-0.780514	0.659685	0.576829	99
Es	0.315566	1.648546	0.200675	99
36
Properties=species:S:1:pos:R:3:Z:I:1 energy=-341.3937205946019 field_type=dipole dipole="0.000000 0.000000 0.000000" charge=0
O	-1.962265	0.750271	0.836976	8
C	-0.780555	0.659711	0.576826	6
C	0.315455	1.648741	0.200676	6
O	1.229196	0.531981	0.084606	8
C	0.260405	-0.459389	0.516686	6
C	0.047935	-1.450209	-0.509834	6
C	-0.125515	-2.286319	-1.354974	6
H	0.604155	2.336291	0.997386	1
H	0.166405	2.164691	-0.748674	1
H	0.522185	-0.861819	1.500006	1
H	-0.277405	-3.033949	-2.099684	1
Es	1.290197	0.508603	-0.204647	99
Es	0.260506	-0.459304	0.516526	99
Es	0.498230	2.117083	0.741505	99
Es	-0.330961	-1.967605	-0.747452	99
Es	-0.225113	-2.773923	-1.839614	99
Es	-2.077975	0.497190	0.904004	99
Es	0.315565	1.648548	0.200674	99
Es	0.304455	-1.966466	-0.893923	99
Es	-1.589743	0.672790	0.482582	99
Es	-0.285839	1.224740	0.384205	99
Es	1.418528	0.527549	0.291867	99
Es	-0.780508	0.659685	0.576822	99
Es	-0.091698	-1.647607	-1.136683	99
Es	0.912606	0.978009	0.166122	99
Es	1.228897	0.531983	0.084675	99
Es	-0.315240	0.016689	0.564306	99
Es	-1.961951	0.750254	0.836907	99
Es	0.047977	-1.449978	-0.509641	99
Es	0.208423	1.981116	-0.417871	99
Es	-1.476372	0.733525	0.988407	99
Es	-2.052631	1.044371	0.829295	99
Es	0.419475	-0.727646	1.150790	99
Es	0.143673	-0.975698	-0.008221	99
Es	0.860378	0.129289	0.213139	99
Es	-0.125555	-2.286489	-1.355146	99
36
Properties=species:S:1:pos:R:3:Z:I:1 energy=-341.3937205946019 field_type=dipole dipole="0.000000 0.000000 0.000000" charge=0
O	-1.962265	0.750271	0.836976	8
C	-0.780555	0.659711	0.576826	6
C	0.315455	1.648741	0.200676	6
O	1.229196	0.531981	0.084606	8
C	0.260405	-0.459389	0.516686	6
C	0.047935	-1.450209	-0.509834	6
C	-0.125515	-2.286319	-1.354974	6
H	0.604155	2.336291	0.997386	1
H	0.166405	2.164691	-0.748674	1
H	0.522185	-0.861819	1.500006	1
H	-0.277405	-3.033949	-2.099684	1
Es	0.915053	0.977731	0.170688	99
Es	1.289694	0.507838	-0.209998	99
Es	0.047965	-1.449989	-0.509627	99
Es	0.208289	1.981422	-0.418244	99
Es	-0.363331	-1.728596	-0.994314	99
Es	-0.224658	-2.774298	-1.839342	99
Es	1.228901	0.531998	0.084682	99
Es	0.143207	-0.976683	-0.007118	99
Es	-0.125545	-2.286485	-1.355152	99
Es	0.419381	-0.727637	1.150958	99
Es	-1.476984	0.731765	0.987683	99
Es	-0.315165	0.016664	0.563764	99
Es	-1.590361	0.673256	0.480896	99
Es	-0.780508	0.659684	0.576814	99
Es	-0.285551	1.224619	0.384024	99
Es	0.860944	0.130512	0.217980	99
Es	-2.077586	0.498101	0.904238	99
Es	0.315568	1.648545	0.200674	99
Es	-0.038167	-2.076551	-0.724812	99
Es	0.260506	-0.459304	0.516526	99
Es	1.415879	0.527376	0.287779	99
Es	-2.051426	1.044763	0.832245	99
Es	0.283107	-1.775011	-1.060579	99
Es	-1.962027	0.750254	0.836922	99
Es	0.498140	2.116734	0.741940	99
36
Properties=species:S:1:pos:R:3:Z:I:1 energy=-341.3937205946019 field_type=dipole dipole="0.000000 0.000000 0.000000" charge=0
O	-1.962265	0.750271	0.836976	8
C	-0.780555	0.659711	0.576826	6
C	0.315455	1.648741	0.200676	6
O	1.229196	0.531981	0.084606	8
C	0.260405	-0.459389	0.516686	6
C	0.047935	-1.450209	-0.509834	6
C	-0.125515	-2.286319	-1.354974	6
H	0.604155	2.336291	0.997386	1
H	0.166405	2.164691	-0.748674	1
H	0.522185	-0.861819	1.500006	1
H	-0.277405	-3.033949	-2.099684	1
Es	-1.592150	0.667687	0.480089	99
Es	1.228876	0.532000	0.084688	99
Es	0.047969	-1.449977	-0.509642	99
Es	-0.225355	-2.773894	-1.839666	99
Es	0.860573	0.127502	0.209277	99
Es	-2.076008	0.501795	0.907501	99
Es	-0.341006	-1.956718	-0.756322	99
Es	1.288580	0.511825	-0.201812	99
Es	0.419207	-0.727404	1.150552	99
Es	0.260504	-0.459303	0.516525	99
Es	0.208785	1.980801	-0.417064	99
Es	-1.475592	0.734754	0.988490	99
Es	0.916359	0.978166	0.172475	99
Es	-1.961885	0.750151	0.836910	99
Es	-0.076787	-1.649609	-1.136325	99
Es	-2.052708	1.043647	0.828090	99
Es	0.299479	-1.975328	-0.885451	99
Es	-0.286064	1.224872	0.383930	99
Es	-0.125555	-2.286483	-1.355153	99
Es	-0.314963	0.016565	0.563985	99
Es	-0.780505	0.659680	0.576821	99
Es	0.498215	2.117262	0.741590	99
Es	0.143701	-0.975820	-0.008266	99
Es	1.416093	0.525988	0.286731	99
Es	0.315564	1.648550	0.200673	99
36
Properties=species:S:1:pos:R:3:Z:I:1 energy=-341.3937205946019 field_type=dipole dipole="0.000000 0.000000 0.000000" charge=0
O	-1.962265	0.750271	0.836976	8
C	-0.780555	0.659711	0.576826	6
C	0.315455	1.648741	0.200676	6
O	1.229196	0.531981	0.084606	8
C	0.260405	-0.459389	0.516686	6
C	0.047935	-1.450209	-0.509834	6
C	-0.125515	-2.286319	-1.354974	6
H	0.604155	2.336291	0.997386	1
H	0.166405	2.164691	-0.748674	1
H	0.522185	-0.861819	1.500006	1
H	-0.277405	-3.033949	-2.099684	1
Es	0.208401	1.981025	-0.417554	99
Es	0.918925	0.978207	0.175564	99
Es	0.498019	2.116980	0.741981	99
Es	1.288367	0.510851	-0.206199	99
Es	-0.125555	-2.286480	-1.355156	99
Es	-0.024635	-2.076539	-0.729221	99
Es	-0.285534	1.224704	0.384164	99
Es	0.143358	-0.976782	-0.007176	99
Es	1.414215	0.524950	0.284525	99
Es	-1.961938	0.750237	0.836905	99
Es	0.859966	0.129607	0.212548	99
Es	-0.224905	-2.774139	-1.839535	99
Es	-0.314860	0.016555	0.563686	99
Es	-2.073311	0.501668	0.906237	99
Es	-2.053413	1.044774	0.833945	99
Es	1.228795	0.531956	0.084634	99
Es	0.419346	-0.727525	1.150998	99
Es	-0.369947	-1.737819	-0.982600	99
Es	0.047974	-1.449989	-0.509628	99
Es	-0.780497	0.659684	0.576821	99
Es	0.276072	-1.765858	-1.067798	99
Es	0.315567	1.648546	0.200675	99
Es	-1.476560	0.731440	0.986301	99
Es	0.260510	-0.459305	0.516526	99
Es	-1.593035	0.669962	0.477984	99
36
Properties=species:S:1:pos:R:3:Z:I:1 energy=-341.3937205946019 field_type=dipole dipole="0.000000 0.000000 0.000000" charge=0
O	-1.962265	0.750271	0.836976	8
C	-0.780555	0.659711	0.576826	6
C	0.315455	1.648741	0.200676	6
O	1.229196	0.531981	0.084606	8
C	0.260405	-0.459389	0.516686	6
C	0.047935	-1.450209	-0.509834	6
C	-0.125515	-2.286319	-1.354974	6
H	0.604155	2.336291	0.997386	1
H	0.166405	2.164691	-0.748674	1
H	0.522185	-0.861819	1.500006	1
H	-0.277405	-3.033949	-2.099684	1
Es	-1.962019	0.750252	0.836945	99
Es	0.498037	2.117146	0.741890	99
Es	-1.593816	0.664192	0.477954	99
Es	1.228872	0.531966	0.084663	99
Es	-0.125557	-2.286483	-1.355153	99
Es	-1.475545	0.734983	0.989813	99
Es	-0.315014	0.016610	0.564366	99
Es	-0.032370	-2.076165	-0.727097	99
Es	0.143288	-0.976730	-0.007288	99
Es	0.280032	-1.771853	-1.062867	99
Es	0.419163	-0.727391	1.149767	99
Es	-2.051763	1.042759	0.827756	99
Es	0.860277	0.129868	0.213771	99
Es	-0.285734	1.224790	0.383738	99
Es	-0.366028	-1.732133	-0.989774	99
Es	0.208627	1.980787	-0.416948	99
Es	-0.225000	-2.774379	-1.839272	99
Es	0.260510	-0.459304	0.516525	99
Es	0.921165	0.978674	0.178091	99
Es	0.047966	-1.449990	-0.509624	99
Es	-2.074974	0.505865	0.909087	99
Es	1.289338	0.510342	-0.207280	99
Es	0.315572	1.648543	0.200667	99
Es	-0.780513	0.659683	0.576813	99
Es	1.410811	0.524677	0.282085	99
36
Properties=species:S:1:pos:R:3:Z:I:1 energy=-341.3937205946019 field_type=dipole dipole="0.000000 0.000000 0.000000" charge=0
O	-1.962265	0.750271	0.836976	8
C	-0.780555	0.659711	0.576826	6
C	0.315455	1.648741	0.200676	6
O	1.229196	0.531981	0.084606	8
C	0.260405	-0.459389	0.516686	6
C	0.047935	-1.450209	-0.509834	6
C	-0.125515	-2.286319	-1.354974	6
H	0.604155	2.336291	0.997386	1
H	0.166405	2.164691	-0.748674	1
H	0.522185	-0.861819	1.500006	1
H	-0.277405	-3.033949	-2.099684	1
Es	0.208941	1.980525	-0.416194	99
Es	-1.961941	0.750255	0.836902	99
Es	0.260507	-0.459304	0.516525	99
Es	-0.780500	0.659682	0.576811	99
Es	0.860200	0.126434	0.202732	99
Es	-2.051022	1.043530	0.826404	99
Es	0.498038	2.117299	0.741846	99
Es	-0.125554	-2.286489	-1.355148	99
Es	-0.076515	-1.652031	-1.134011	99
Es	0.047989	-1.449992	-0.509631	99
Es	-0.286095	1.225018	0.383850	99
Es	-0.341998	-1.954972	-0.757843	99
Es	1.228882	0.532009	0.084697	99
Es	-0.225571	-2.773872	-1.839717	99
Es	-0.314656	0.016476	0.563788	99
Es	-1.593270	0.663268	0.478576	99
Es	0.922599	0.979152	0.179738	99
Es	1.289644	0.514357	-0.197169	99
Es	-2.076154	0.506891	0.908335	99
Es	0.419130	-0.727283	1.150607	99
Es	-1.475729	0.733970	0.990393	99
Es	0.300087	-1.974551	-0.886329	99
Es	1.409000	0.523688	0.281129	99
Es	0.315564	1.648548	0.200674	99
Es	0.143752	-0.975899	-0.008337	99
36
Properties=species:S:1:pos:R:3:Z:I:1 energy=-341.3937205946019 field_type=dipole dipole="0.000000 0.000000 0.000000" charge=0
O	-1.962265	0.750271	0.836976	8
C	-0.780555	0.659711	0.576826	6
C	0.315455	1.648741	0.200676	6
O	1.229196	0.531981	0.084606	8
C	0.260405	-0.459389	0.516686	6
C	0.047935	-1.450209	-0.509834	6
C	-0.125515	-2.286319	-1.354974	6
H	0.604155	2.336291	0.997386	1
H	0.166405	2.164691	-0.748674	1
H	0.522185	-0.861819	1.500006	1
H	-0.277405	-3.033949	-2.099684	1
Es	0.260507	-0.459304	0.516524	99
Es	0.860165	0.128224	0.208261	99
Es	-1.961939	0.750245	0.836922	99
Es	1.228910	0.532012	0.084699	99
Es	-0.013912	-2.075205	-0.733949	99
Es	0.047975	-1.449990	-0.509626	99
Es	-1.474959	0.735478	0.990617	99
Es	0.923063	0.978927	0.180845	99
Es	-0.314727	0.016532	0.563573	99
Es	0.208572	1.980711	-0.416906	99
Es	0.315562	1.648552	0.200672	99
Es	0.419143	-0.727312	1.150772	99
Es	-0.125552	-2.286485	-1.355152	99
Es	-0.285582	1.224857	0.384080	99
Es	0.143542	-0.976704	-0.007403	99
Es	0.270447	-1.759350	-1.072838	99
Es	1.407943	0.523835	0.280219	99
Es	1.290120	0.512514	-0.202855	99
Es	0.497942	2.117170	0.742002	99
Es	-2.052538	1.042216	0.826708	99
Es	-2.072213	0.510695	0.910612	99
Es	-1.596398	0.659398	0.476203	99
Es	-0.225041	-2.774307	-1.839379	99
Es	-0.780514	0.659685	0.576819	99
Es	-0.375192	-1.745683	-0.972794	99
36
Properties=species:S:1:pos:R:3:Z:I:1 energy=-341.3937205946019 field_type=dipole dipole="0.000000 0.000000 0.000000" charge=0
O	-1.962265	0.750271	0.836976	8
C	-0.780555	0.659711	0.576826	6
C	0.315455	1.648741	0.200676	6
O	1.229196	0.531981	0.084606	8
C	0.260405	-0.459389	0.516686	6
C	0.047935	-1.450209	-0.509834	6
C	-0.125515	-2.286319	-1.354974	6
H	0.604155	2.336291	0.997386	1
H	0.166405	2.164691	-0.748674	1
H	0.522185	-0.861819	1.500006	1
H	-0.277405	-3.033949	-2.099684	1
Es	1.228886	0.532040	0.084733	99
Es	0.419211	-0.727257	1.150466	99
Es	-1.595256	0.663840	0.476470	99
Es	-0.076547	-1.652680	-1.133368	99
Es	-0.780511	0.659685	0.576830	99
Es	-0.225666	-2.773822	-1.839779	99
Es	0.047973	-1.449990	-0.509626	99
Es	0.924281	0.978905	0.182147	99
Es	0.208919	1.980297	-0.415943	99
Es	0.143650	-0.975950	-0.008323	99
Es	1.407128	0.522324	0.280502	99
Es	1.289737	0.516370	-0.192860	99
Es	-2.051301	1.043540	0.829524	99
Es	-1.961968	0.750249	0.836906	99
Es	-2.074152	0.507708	0.908776	99
Es	-0.125555	-2.286483	-1.355153	99
Es	0.300097	-1.973415	-0.887310	99
Es	0.860083	0.125979	0.196527	99
Es	-1.475253	0.732622	0.988848	99
Es	0.315569	1.648544	0.200673	99
Es	0.498048	2.117464	0.741799	99
Es	-0.341962	-1.955446	-0.757536	99
Es	-0.286000	1.225068	0.383992	99
Es	-0.314593	0.016421	0.563810	99
Es	0.260507	-0.459304	0.516524	99
36
Properties=species:S:1:pos:R:3:Z:I:1 energy=-341.3937205946019 field_type=dipole dipole="0.000000 0.000000 0.000000" charge=0
O	-1.962265	0.750271	0.836976	8
C	-0.780555	0.659711	0.576826	6
C	0.315455	1.648741	0.200676	6
O	1.229196	0.531981	0.084606	8
C	0.260405	-0.459389	0.516686	6
C	0.047935	-1.450209	-0.509834	6
C	-0.125515	-2.286319	-1.354974	6
H	0.604155	2.336291	0.997386	1
H	0.166405	2.164691	-0.748674	1
H	0.522185	-0.861819	1.500006	1
H	-0.277405	-3.033949	-2.099684	1
Es	-1.597985	0.655497	0.475746	99
Es	-0.225838	-2.773923	-1.839632	99
Es	0.047979	-1.449988	-0.509629	99
Es	0.315566	1.648547	0.200675	99
Es	-0.314653	0.016585	0.564341	99
Es	0.143588	-0.975950	-0.008317	99
Es	-2.052172	1.043763	0.826335	99
Es	1.228924	0.532009	0.084677	99
Es	-0.125551	-2.286484	-1.355154	99
Es	-0.322387	-1.976236	-0.741063	99
Es	0.309990	-1.951709	-0.907884	99
Es	-0.780511	0.659684	0.576818	99
Es	-0.286459	1.225245	0.383339	99
Es	0.860676	0.125247	0.195092	99
Es	0.497990	2.117622	0.741671	99
Es	-1.962024	0.750251	0.836942	99
Es	-0.105637	-1.653649	-1.129285	99
Es	0.260503	-0.459304	0.516527	99
Es	1.409121	0.522376	0.280119	99
Es	0.209312	1.979975	-0.414892	99
Es	1.287617	0.517062	-0.190827	99
Es	-2.070625	0.513992	0.911719	99
Es	-1.475221	0.734399	0.989508	99
Es	0.923976	0.978858	0.181939	99
Es	0.419146	-0.727160	1.149861	99
