39
Properties=species:S:1:pos:R:3:Z:I:1 energy=-342.63509698152114 field_type=dipole dipole="0.000000 0.000000 0.000000" charge=0
O	-1.991412	-1.465266	0.544133	8
C	-1.027122	-1.547836	-0.215767	6
C	0.087788	-0.495256	-0.376017	6
C	-0.357542	0.971464	-0.661347	6
C	0.733618	1.399833	0.339483	6
O	1.338938	2.429914	0.540113	8
C	0.810158	-0.024036	0.923273	6
H	-0.914552	-2.438616	-0.856067	1
H	0.817198	-0.835346	-1.126887	1
H	-1.366882	1.233914	-0.331757	1
H	-0.195012	1.315104	-1.685017	1
H	1.824028	-0.406736	1.055693	1
H	0.240788	-0.137136	1.850163	1
Es	0.087743	-0.495231	-0.375968	99
Es	1.294569	1.985522	0.294008	99
Es	0.820659	0.698533	0.697181	99
Es	1.244867	2.651899	0.352700	99
Es	0.733579	1.399751	0.339461	99
Es	-0.469581	-1.020412	-0.294860	99
Es	-0.244977	1.199946	-1.347884	99
Es	-1.991199	-1.465270	0.543968	99
Es	-2.175814	-1.710597	0.526101	99
Es	-1.027092	-1.547798	-0.215761	99
Es	0.435690	-0.350876	0.291508	99
Es	0.164382	1.257922	-0.193155	99
Es	0.581937	-0.726699	-0.885490	99
Es	0.423853	-0.085813	1.524151	99
Es	1.546592	2.396102	0.761400	99
Es	-0.198061	0.189316	-0.568269	99
Es	-1.988464	-1.198124	0.709281	99
Es	0.948508	2.129231	0.639406	99
Es	1.338774	2.429666	0.540060	99
Es	-1.773070	-1.379524	0.086273	99
Es	-1.013908	1.140057	-0.427153	99
Es	0.810120	-0.024025	0.923196	99
Es	-1.505806	-1.607114	0.449611	99
Es	-0.357493	0.971403	-0.661309	99
Es	-0.936800	-2.153211	-0.661017	99
Es	1.490706	-0.280197	1.008045	99
39
Properties=species:S:1:pos:R:3:Z:I:1 energy=-342.63509698152114 field_type=dipole dipole="0.000000 0.000000 0.000000" charge=0
O	-1.991412	-1.465266	0.544133	8
C	-1.027122	-1.547836	-0.215767	6
C	0.087788	-0.495256	-0.376017	6
C	-0.357542	0.971464	-0.661347	6
C	0.733618	1.399833	0.339483	6
O	1.338938	2.429914	0.540113	8
C	0.810158	-0.024036	0.923273	6
H	-0.914552	-2.438616	-0.856067	1
H	0.817198	-0.835346	-1.126887	1
H	-1.366882	1.233914	-0.331757	1
H	-0.195012	1.315104	-1.685017	1
H	1.824028	-0.406736	1.055693	1
H	0.240788	-0.137136	1.850163	1
Es	-0.196526	0.188423	-0.567533	99
Es	-1.027084	-1.547798	-0.215758	99
Es	-0.936994	-2.153469	-0.660908	99
Es	0.943862	2.131885	0.643905	99
Es	0.164965	1.257846	-0.192921	99
Es	-0.357492	0.971403	-0.661308	99
Es	1.489752	-0.279504	1.007419	99
Es	-0.471304	-1.020814	-0.294165	99
Es	1.544278	2.392484	0.756230	99
Es	1.251369	2.653132	0.356968	99
Es	1.295756	1.985214	0.289896	99
Es	-0.244620	1.199358	-1.346656	99
Es	-1.508268	-1.602750	0.444617	99
Es	-1.991124	-1.465267	0.543914	99
Es	-1.014878	1.140570	-0.427489	99
Es	0.733577	1.399755	0.339464	99
Es	1.338766	2.429586	0.540068	99
Es	0.583064	-0.726043	-0.885841	99
Es	0.810124	-0.024023	0.923198	99
Es	0.820635	0.698803	0.696798	99
Es	-1.770977	-1.380545	0.091440	99
Es	0.087743	-0.495232	-0.375968	99
Es	0.435259	-0.350181	0.289864	99
Es	-2.181660	-1.715893	0.528045	99
Es	-1.982428	-1.196316	0.707039	99
Es	0.423921	-0.086165	1.525167	99
39
Properties=species:S:1:pos:R:3:Z:I:1 energy=-342.63509698152114 field_type=dipole dipole="0.000000 0.000000 0.000000" charge=0
O	-1.991412	-1.465266	0.544133	8
C	-1.027122	-1.547836	-0.215767	6
C	0.087788	-0.495256	-0.376017	6
C	-0.357542	0.971464	-0.661347	6
C	0.733618	1.399833	0.339483	6
O	1.338938	2.429914	0.540113	8
C	0.810158	-0.024036	0.923273	6
H	-0.914552	-2.438616	-0.856067	1
H	0.817198	-0.835346	-1.126887	1
H	-1.366882	1.233914	-0.331757	1
H	-0.195012	1.315104	-1.685017	1
H	1.824028	-0.406736	1.055693	1
H	0.240788	-0.137136	1.850163	1
Es	-0.195687	0.187532	-0.566951	99
Es	1.488942	-0.279017	1.006793	99
Es	1.247983	2.644193	0.354504	99
Es	-0.472248	-1.021139	-0.293576	99
Es	-2.185574	-1.719016	0.527816	99
Es	1.338750	2.429637	0.540020	99
Es	0.087742	-0.495233	-0.375969	99
Es	-0.937241	-2.153545	-0.660986	99
Es	0.583955	-0.725479	-0.886042	99
Es	-1.511818	-1.600260	0.443592	99
Es	-1.766602	-1.383162	0.095343	99
Es	-1.979182	-1.193250	0.704464	99
Es	1.545323	2.403100	0.753553	99
Es	1.300448	1.983161	0.290753	99
Es	-1.991142	-1.465276	0.543930	99
Es	0.820585	0.699252	0.696552	99
Es	0.941874	2.132153	0.647994	99
Es	0.165317	1.257834	-0.192843	99
Es	0.424270	-0.086638	1.525871	99
Es	-0.244296	1.198947	-1.345700	99
Es	0.733575	1.399759	0.339464	99
Es	-1.015482	1.141003	-0.427880	99
Es	-0.357493	0.971405	-0.661309	99
Es	-1.027091	-1.547795	-0.215766	99
Es	0.810122	-0.024023	0.923195	99
Es	0.434685	-0.349687	0.288665	99
39
Properties=species:S:1:pos:R:3:Z:I:1 energy=-342.63509698152114 field_type=dipole dipole="0.000000 0.000000 0.000000" charge=0
O	-1.991412	-1.465266	0.544133	8
C	-1.027122	-1.547836	-0.215767	6
C	0.087788	-0.495256	-0.376017	6
C	-0.357542	0.971464	-0.661347	6
C	0.733618	1.399833	0.339483	6
O	1.338938	2.429914	0.540113	8
C	0.810158	-0.024036	0.923273	6
H	-0.914552	-2.438616	-0.856067	1
H	0.817198	-0.835346	-1.126887	1
H	-1.366882	1.233914	-0.331757	1
H	-0.195012	1.315104	-1.685017	1
H	1.824028	-0.406736	1.055693	1
H	0.240788	-0.137136	1.850163	1
Es	-0.937416	-2.153698	-0.660921	99
Es	0.820980	0.699419	0.696205	99
Es	0.584544	-0.725045	-0.886339	99
Es	-1.513735	-1.599089	0.440644	99
Es	0.434375	-0.349546	0.287698	99
Es	0.938508	2.135257	0.648132	99
Es	0.165972	1.258117	-0.192727	99
Es	-1.991153	-1.465291	0.543930	99
Es	1.257992	2.652308	0.359828	99
Es	1.299434	1.983996	0.287260	99
Es	-0.357493	0.971406	-0.661309	99
Es	-2.187872	-1.720555	0.528242	99
Es	0.810121	-0.024023	0.923195	99
Es	-1.015902	1.141081	-0.428216	99
Es	-0.194800	0.186739	-0.566537	99
Es	-1.027092	-1.547794	-0.215767	99
Es	-1.975624	-1.191918	0.703966	99
Es	0.087743	-0.495233	-0.375969	99
Es	-1.765904	-1.384072	0.098281	99
Es	-0.473080	-1.021148	-0.293286	99
Es	1.539905	2.390989	0.751365	99
Es	0.733576	1.399755	0.339466	99
Es	0.424263	-0.086549	1.526281	99
Es	-0.244535	1.198485	-1.344749	99
Es	1.488137	-0.278777	1.006755	99
Es	1.338771	2.429642	0.540057	99
39
Properties=species:S:1:pos:R:3:Z:I:1 energy=-342.63509698152114 field_type=dipole dipole="0.000000 0.000000 0.000000" charge=0
O	-1.991412	-1.465266	0.544133	8
C	-1.027122	-1.547836	-0.215767	6
C	0.087788	-0.495256	-0.376017	6
C	-0.357542	0.971464	-0.661347	6
C	0.733618	1.399833	0.339483	6
O	1.338938	2.429914	0.540113	8
C	0.810158	-0.024036	0.923273	6
H	-0.914552	-2.438616	-0.856067	1
H	0.817198	-0.835346	-1.126887	1
H	-1.366882	1.233914	-0.331757	1
H	-0.195012	1.315104	-1.685017	1
H	1.824028	-0.406736	1.055693	1
H	0.240788	-0.137136	1.850163	1
Es	0.424571	-0.086163	1.526581	99
Es	-1.016444	1.140910	-0.428614	99
Es	-0.244679	1.197975	-1.344029	99
Es	-0.357491	0.971403	-0.661306	99
Es	0.820715	0.699162	0.696228	99
Es	0.166494	1.258448	-0.192554	99
Es	0.584781	-0.724428	-0.886804	99
Es	1.521733	2.364544	0.746540	99
Es	1.299276	1.985956	0.283382	99
Es	-2.189764	-1.721168	0.526638	99
Es	-1.991150	-1.465296	0.543923	99
Es	-1.974277	-1.191479	0.703669	99
Es	-0.473794	-1.021056	-0.293151	99
Es	0.087743	-0.495232	-0.375969	99
Es	-0.937559	-2.153691	-0.661047	99
Es	-1.514700	-1.598888	0.439667	99
Es	-1.027088	-1.547797	-0.215762	99
Es	0.934025	2.138574	0.644267	99
Es	-1.764423	-1.384127	0.101032	99
Es	1.281216	2.673313	0.372332	99
Es	0.733576	1.399756	0.339467	99
Es	-0.194047	0.185243	-0.566421	99
Es	1.338733	2.429621	0.540022	99
Es	0.434123	-0.348894	0.287554	99
Es	1.488022	-0.278202	1.006644	99
Es	0.810121	-0.024023	0.923195	99
39
Properties=species:S:1:pos:R:3:Z:I:1 energy=-342.63509698152114 field_type=dipole dipole="0.000000 0.000000 0.000000" charge=0
O	-1.991412	-1.465266	0.544133	8
C	-1.027122	-1.547836	-0.215767	6
C	0.087788	-0.495256	-0.376017	6
C	-0.357542	0.971464	-0.661347	6
C	0.733618	1.399833	0.339483	6
O	1.338938	2.429914	0.540113	8
C	0.810158	-0.024036	0.923273	6
H	-0.914552	-2.438616	-0.856067	1
H	0.817198	-0.835346	-1.126887	1
H	-1.366882	1.233914	-0.331757	1
H	-0.195012	1.315104	-1.685017	1
H	1.824028	-0.406736	1.055693	1
H	0.240788	-0.137136	1.850163	1
Es	-0.357493	0.971403	-0.661309	99
Es	0.424453	-0.085367	1.526577	99
Es	1.319011	2.698509	0.399622	99
Es	1.338556	2.429653	0.539815	99
Es	0.166881	1.258818	-0.192421	99
Es	1.488723	-0.278021	1.006739	99
Es	0.584467	-0.724115	-0.887205	99
Es	-1.765129	-1.383646	0.102030	99
Es	0.087742	-0.495233	-0.375968	99
Es	1.492192	2.330137	0.730571	99
Es	-1.016857	1.140354	-0.428883	99
Es	0.733575	1.399756	0.339464	99
Es	-0.244928	1.197513	-1.343889	99
Es	-1.027089	-1.547797	-0.215763	99
Es	-0.937676	-2.153568	-0.661172	99
Es	-2.191961	-1.719864	0.527234	99
Es	-0.193586	0.184368	-0.566507	99
Es	-0.474019	-1.020876	-0.293471	99
Es	1.295916	1.990552	0.277059	99
Es	0.929633	2.142902	0.639602	99
Es	-1.513875	-1.600059	0.438815	99
Es	-1.972273	-1.192030	0.702763	99
Es	-1.991187	-1.465283	0.543952	99
Es	0.820283	0.698458	0.696338	99
Es	0.810122	-0.024023	0.923196	99
Es	0.434236	-0.348086	0.288298	99
39
Properties=species:S:1:pos:R:3:Z:I:1 energy=-342.63509698152114 field_type=dipole dipole="0.000000 0.000000 0.000000" charge=0
O	-1.991412	-1.465266	0.544133	8
C	-1.027122	-1.547836	-0.215767	6
C	0.087788	-0.495256	-0.376017	6
C	-0.357542	0.971464	-0.661347	6
C	0.733618	1.399833	0.339483	6
O	1.338938	2.429914	0.540113	8
C	0.810158	-0.024036	0.923273	6
H	-0.914552	-2.438616	-0.856067	1
H	0.817198	-0.835346	-1.126887	1
H	-1.366882	1.233914	-0.331757	1
H	-0.195012	1.315104	-1.685017	1
H	1.824028	-0.406736	1.055693	1
H	0.240788	-0.137136	1.850163	1
Es	-1.972090	-1.190338	0.699126	99
Es	0.164575	1.256893	-0.193003	99
Es	0.087741	-0.495233	-0.375970	99
Es	1.567143	2.518389	0.720177	99
Es	0.434051	-0.350202	0.284922	99
Es	0.821530	0.700874	0.695867	99
Es	-0.243595	1.199664	-1.345052	99
Es	-1.015114	1.142485	-0.427208	99
Es	0.810121	-0.024022	0.923193	99
Es	1.311963	1.976470	0.299312	99
Es	-1.027092	-1.547794	-0.215767	99
Es	-0.357492	0.971404	-0.661308	99
Es	-1.765530	-1.387680	0.096300	99
Es	0.423653	-0.088600	1.526474	99
Es	1.486667	-0.279278	1.006263	99
Es	-0.937205	-2.153902	-0.660460	99
Es	-1.991156	-1.465293	0.543941	99
Es	0.949943	2.127860	0.667471	99
Es	0.733574	1.399758	0.339466	99
Es	-0.472858	-1.021762	-0.292049	99
Es	0.585663	-0.725339	-0.885366	99
Es	-2.189323	-1.721695	0.534914	99
Es	1.338797	2.429568	0.540103	99
Es	-1.516002	-1.596219	0.440997	99
Es	1.206799	2.540034	0.358594	99
Es	-0.195049	0.188414	-0.565454	99
39
Properties=species:S:1:pos:R:3:Z:I:1 energy=-342.63509698152114 field_type=dipole dipole="0.000000 0.000000 0.000000" charge=0
O	-1.991412	-1.465266	0.544133	8
C	-1.027122	-1.547836	-0.215767	6
C	0.087788	-0.495256	-0.376017	6
C	-0.357542	0.971464	-0.661347	6
C	0.733618	1.399833	0.339483	6
O	1.338938	2.429914	0.540113	8
C	0.810158	-0.024036	0.923273	6
H	-0.914552	-2.438616	-0.856067	1
H	0.817198	-0.835346	-1.126887	1
H	-1.366882	1.233914	-0.331757	1
H	-0.195012	1.315104	-1.685017	1
H	1.824028	-0.406736	1.055693	1
H	0.240788	-0.137136	1.850163	1
Es	0.584241	-0.723935	-0.887462	99
Es	0.167085	1.258895	-0.192343	99
Es	1.465344	2.312389	0.712573	99
Es	1.489278	-0.277679	1.006663	99
Es	-0.244983	1.197205	-1.344020	99
Es	-1.017222	1.139904	-0.428909	99
Es	0.087742	-0.495233	-0.375969	99
Es	-1.764696	-1.383130	0.102680	99
Es	1.294585	1.992442	0.274457	99
Es	-0.474244	-1.020686	-0.293712	99
Es	-1.513487	-1.600324	0.439282	99
Es	-0.357494	0.971405	-0.661309	99
Es	-0.193179	0.183879	-0.566497	99
Es	-0.937785	-2.153416	-0.661226	99
Es	0.424462	-0.084918	1.526677	99
Es	1.338371	2.429419	0.539732	99
Es	-1.991140	-1.465272	0.543929	99
Es	-1.027090	-1.547796	-0.215764	99
Es	-2.192773	-1.719664	0.526491	99
Es	0.819810	0.697904	0.696473	99
Es	1.350917	2.710246	0.423696	99
Es	0.926351	2.147071	0.636222	99
Es	0.810122	-0.024022	0.923195	99
Es	0.733578	1.399756	0.339464	99
Es	0.434307	-0.347454	0.288779	99
Es	-1.972385	-1.192527	0.702383	99
39
Properties=species:S:1:pos:R:3:Z:I:1 energy=-342.63509698152114 field_type=dipole dipole="0.000000 0.000000 0.000000" charge=0
O	-1.991412	-1.465266	0.544133	8
C	-1.027122	-1.547836	-0.215767	6
C	0.087788	-0.495256	-0.376017	6
C	-0.357542	0.971464	-0.661347	6
C	0.733618	1.399833	0.339483	6
O	1.338938	2.429914	0.540113	8
C	0.810158	-0.024036	0.923273	6
H	-0.914552	-2.438616	-0.856067	1
H	0.817198	-0.835346	-1.126887	1
H	-1.366882	1.233914	-0.331757	1
H	-0.195012	1.315104	-1.685017	1
H	1.824028	-0.406736	1.055693	1
H	0.240788	-0.137136	1.850163	1
Es	0.733582	1.399751	0.339460	99
Es	-0.193475	0.184542	-0.566685	99
Es	-1.973102	-1.194156	0.701822	99
Es	0.434447	-0.347482	0.289273	99
Es	-1.512765	-1.601572	0.441545	99
Es	0.424321	-0.084822	1.526447	99
Es	-2.192819	-1.717950	0.527556	99
Es	0.166881	1.258884	-0.192191	99
Es	0.087739	-0.495234	-0.375971	99
Es	-0.357493	0.971403	-0.661310	99
Es	-1.027087	-1.547797	-0.215763	99
Es	1.374334	2.715379	0.444073	99
Es	-0.244865	1.197225	-1.344439	99
Es	-0.937724	-2.153305	-0.661214	99
Es	0.584002	-0.724118	-0.887286	99
Es	1.445877	2.301421	0.697395	99
Es	1.338663	2.429624	0.539948	99
Es	0.924434	2.149865	0.633442	99
Es	-1.764747	-1.381905	0.099847	99
Es	1.292287	1.995252	0.271723	99
Es	-0.473855	-1.020784	-0.293923	99
Es	0.810122	-0.024023	0.923195	99
Es	0.819625	0.697701	0.696693	99
Es	1.489735	-0.277856	1.006780	99
Es	-1.017237	1.139705	-0.428874	99
Es	-1.991165	-1.465290	0.543940	99
39
Properties=species:S:1:pos:R:3:Z:I:1 energy=-342.63509698152114 field_type=dipole dipole="0.000000 0.000000 0.000000" charge=0
O	-1.991412	-1.465266	0.544133	8
C	-1.027122	-1.547836	-0.215767	6
C	0.087788	-0.495256	-0.376017	6
C	-0.357542	0.971464	-0.661347	6
C	0.733618	1.399833	0.339483	6
O	1.338938	2.429914	0.540113	8
C	0.810158	-0.024036	0.923273	6
H	-0.914552	-2.438616	-0.856067	1
H	0.817198	-0.835346	-1.126887	1
H	-1.366882	1.233914	-0.331757	1
H	-0.195012	1.315104	-1.685017	1
H	1.824028	-0.406736	1.055693	1
H	0.240788	-0.137136	1.850163	1
Es	0.434512	-0.347756	0.289209	99
Es	1.338396	2.429252	0.539818	99
Es	0.923839	2.151625	0.632953	99
Es	-1.765112	-1.381158	0.100267	99
Es	1.489962	-0.277792	1.006691	99
Es	-0.244817	1.197308	-1.344588	99
Es	-1.512013	-1.601263	0.441470	99
Es	-2.192722	-1.718272	0.527101	99
Es	1.438707	2.298653	0.691099	99
Es	0.424274	-0.084849	1.526477	99
Es	-1.017230	1.139550	-0.428877	99
Es	-0.937703	-2.153267	-0.661227	99
Es	0.819476	0.697547	0.696736	99
Es	-1.991180	-1.465293	0.543943	99
Es	-0.193479	0.185010	-0.566561	99
Es	0.733574	1.399757	0.339466	99
Es	-1.973545	-1.194964	0.701999	99
Es	0.583940	-0.724136	-0.887316	99
Es	0.087742	-0.495232	-0.375970	99
Es	0.166744	1.258886	-0.192100	99
Es	-1.027090	-1.547796	-0.215765	99
Es	-0.357493	0.971404	-0.661309	99
Es	1.383812	2.716000	0.452076	99
Es	1.290821	1.996000	0.270660	99
Es	0.810121	-0.024021	0.923195	99
Es	-0.473823	-1.020738	-0.293962	99
39
Properties=species:S:1:pos:R:3:Z:I:1 energy=-342.63509698152114 field_type=dipole dipole="0.000000 0.000000 0.000000" charge=0
O	-1.991412	-1.465266	0.544133	8
C	-1.027122	-1.547836	-0.215767	6
C	0.087788	-0.495256	-0.376017	6
C	-0.357542	0.971464	-0.661347	6
C	0.733618	1.399833	0.339483	6
O	1.338938	2.429914	0.540113	8
C	0.810158	-0.024036	0.923273	6
H	-0.914552	-2.438616	-0.856067	1
H	0.817198	-0.835346	-1.126887	1
H	-1.366882	1.233914	-0.331757	1
H	-0.195012	1.315104	-1.685017	1
H	1.824028	-0.406736	1.055693	1
H	0.240788	-0.137136	1.850163	1
Es	-1.027093	-1.547794	-0.215768	99
Es	0.733573	1.399757	0.339470	99
Es	0.424259	-0.084749	1.526549	99
Es	0.087742	-0.495232	-0.375968	99
Es	-1.017380	1.139568	-0.428944	99
Es	0.166857	1.258840	-0.192057	99
Es	1.291483	1.995651	0.270884	99
Es	1.489837	-0.277773	1.006703	99
Es	0.819533	0.697517	0.696714	99
Es	-1.512698	-1.601668	0.442073	99
Es	-0.474098	-1.020641	-0.294012	99
Es	-0.193226	0.184699	-0.566548	99
Es	0.810121	-0.024022	0.923194	99
Es	-1.991188	-1.465277	0.543946	99
Es	-0.244738	1.197210	-1.344480	99
Es	-1.972881	-1.194438	0.701234	99
Es	1.437569	2.298985	0.689486	99
Es	-2.193973	-1.717924	0.526562	99
Es	1.383951	2.716311	0.452319	99
Es	-0.357492	0.971403	-0.661308	99
Es	-1.763765	-1.381656	0.101034	99
Es	0.924028	2.150898	0.633974	99
Es	1.338636	2.429640	0.539910	99
Es	0.583926	-0.724091	-0.887365	99
Es	-0.937797	-2.153239	-0.661294	99
Es	0.434527	-0.347517	0.289178	99
39
Properties=species:S:1:pos:R:3:Z:I:1 energy=-342.63509698152114 field_type=dipole dipole="0.000000 0.000000 0.000000" charge=0
O	-1.991412	-1.465266	0.544133	8
C	-1.027122	-1.547836	-0.215767	6
C	0.087788	-0.495256	-0.376017	6
C	-0.357542	0.971464	-0.661347	6
C	0.733618	1.399833	0.339483	6
O	1.338938	2.429914	0.540113	8
C	0.810158	-0.024036	0.923273	6
H	-0.914552	-2.438616	-0.856067	1
H	0.817198	-0.835346	-1.126887	1
H	-1.366882	1.233914	-0.331757	1
H	-0.195012	1.315104	-1.685017	1
H	1.824028	-0.406736	1.055693	1
H	0.240788	-0.137136	1.850163	1
Es	-1.511821	-1.601546	0.441823	99
Es	1.430762	2.296262	0.683472	99
Es	0.810121	-0.024023	0.923194	99
Es	0.166792	1.258797	-0.192223	99
Es	-1.027089	-1.547797	-0.215763	99
Es	0.583856	-0.724144	-0.887317	99
Es	-1.991172	-1.465284	0.543966	99
Es	-0.357492	0.971405	-0.661308	99
Es	1.338402	2.429572	0.539702	99
Es	1.392857	2.716673	0.460572	99
Es	1.290399	1.997110	0.269919	99
Es	0.733576	1.399756	0.339467	99
Es	0.819413	0.697590	0.696799	99
Es	0.424227	-0.084815	1.526481	99
Es	-0.244861	1.197246	-1.344651	99
Es	0.923287	2.151836	0.632876	99
Es	-0.937717	-2.153265	-0.661217	99
Es	1.489984	-0.277800	1.006711	99
Es	-1.017263	1.139595	-0.428725	99
Es	-1.765576	-1.382646	0.099500	99
Es	-2.193904	-1.717262	0.529738	99
Es	-1.972097	-1.194185	0.699764	99
Es	-0.473918	-1.020673	-0.294099	99
Es	-0.193387	0.185062	-0.566506	99
Es	0.087742	-0.495233	-0.375969	99
Es	0.434594	-0.347776	0.289279	99
39
Properties=species:S:1:pos:R:3:Z:I:1 energy=-342.63509698152114 field_type=dipole dipole="0.000000 0.000000 0.000000" charge=0
O	-1.991412	-1.465266	0.544133	8
C	-1.027122	-1.547836	-0.215767	6
C	0.087788	-0.495256	-0.376017	6
C	-0.357542	0.971464	-0.661347	6
C	0.733618	1.399833	0.339483	6
O	1.338938	2.429914	0.540113	8
C	0.810158	-0.024036	0.923273	6
H	-0.914552	-2.438616	-0.856067	1
H	0.817198	-0.835346	-1.126887	1
H	-1.366882	1.233914	-0.331757	1
H	-0.195012	1.315104	-1.685017	1
H	1.824028	-0.406736	1.055693	1
H	0.240788	-0.137136	1.850163	1
Es	-1.973100	-1.194807	0.700539	99
Es	0.424261	-0.084758	1.526529	99
Es	0.922376	2.153036	0.631971	99
Es	0.166772	1.258855	-0.192097	99
Es	0.733577	1.399755	0.339467	99
Es	1.338181	2.429573	0.539478	99
Es	-2.193538	-1.718119	0.528157	99
Es	-0.357493	0.971401	-0.661310	99
Es	-0.473934	-1.020714	-0.293954	99
Es	-1.512359	-1.601021	0.442341	99
Es	-1.017303	1.139581	-0.428857	99
Es	1.394921	2.715929	0.460986	99
Es	-0.937760	-2.153234	-0.661254	99
Es	0.434559	-0.347462	0.289269	99
Es	1.291597	1.995834	0.270970	99
Es	0.819395	0.697510	0.696764	99
Es	1.489983	-0.277774	1.006663	99
Es	-0.193398	0.184741	-0.566550	99
Es	1.428654	2.297069	0.683106	99
Es	0.583869	-0.724079	-0.887372	99
Es	-1.027087	-1.547799	-0.215760	99
Es	0.087742	-0.495233	-0.375969	99
Es	-1.991105	-1.465247	0.543921	99
Es	0.810122	-0.024023	0.923196	99
Es	-1.764442	-1.381785	0.099855	99
Es	-0.244776	1.197227	-1.344603	99
39
Properties=species:S:1:pos:R:3:Z:I:1 energy=-342.63509698152114 field_type=dipole dipole="0.000000 0.000000 0.000000" charge=0
O	-1.991412	-1.465266	0.544133	8
C	-1.027122	-1.547836	-0.215767	6
C	0.087788	-0.495256	-0.376017	6
C	-0.357542	0.971464	-0.661347	6
C	0.733618	1.399833	0.339483	6
O	1.338938	2.429914	0.540113	8
C	0.810158	-0.024036	0.923273	6
H	-0.914552	-2.438616	-0.856067	1
H	0.817198	-0.835346	-1.126887	1
H	-1.366882	1.233914	-0.331757	1
H	-0.195012	1.315104	-1.685017	1
H	1.824028	-0.406736	1.055693	1
H	0.240788	-0.137136	1.850163	1
Es	-0.472472	-1.021920	-0.292207	99
Es	0.733575	1.399758	0.339468	99
Es	0.585412	-0.725581	-0.884993	99
Es	-1.971751	-1.194646	0.698201	99
Es	-0.357492	0.971404	-0.661309	99
Es	-0.243127	1.200072	-1.345706	99
Es	1.315386	1.975072	0.302408	99
Es	1.208156	2.481748	0.385375	99
Es	-1.991152	-1.465304	0.543919	99
Es	-1.027092	-1.547794	-0.215767	99
Es	0.163666	1.256451	-0.192970	99
Es	-1.015009	1.142552	-0.426806	99
Es	-0.195165	0.189539	-0.565247	99
Es	0.953193	2.127116	0.674235	99
Es	1.487196	-0.279719	1.006149	99
Es	-0.937070	-2.153792	-0.660298	99
Es	-1.514033	-1.596802	0.442665	99
Es	0.821278	0.700964	0.695919	99
Es	1.559268	2.579310	0.682932	99
Es	0.087742	-0.495233	-0.375968	99
Es	-1.766344	-1.384199	0.094339	99
Es	0.810122	-0.024023	0.923196	99
Es	-2.190907	-1.720318	0.536193	99
Es	0.434241	-0.350329	0.285175	99
Es	1.338780	2.428991	0.540318	99
Es	0.423315	-0.088860	1.526259	99
39
Properties=species:S:1:pos:R:3:Z:I:1 energy=-342.63509698152114 field_type=dipole dipole="0.000000 0.000000 0.000000" charge=0
O	-1.991412	-1.465266	0.544133	8
C	-1.027122	-1.547836	-0.215767	6
C	0.087788	-0.495256	-0.376017	6
C	-0.357542	0.971464	-0.661347	6
C	0.733618	1.399833	0.339483	6
O	1.338938	2.429914	0.540113	8
C	0.810158	-0.024036	0.923273	6
H	-0.914552	-2.438616	-0.856067	1
H	0.817198	-0.835346	-1.126887	1
H	-1.366882	1.233914	-0.331757	1
H	-0.195012	1.315104	-1.685017	1
H	1.824028	-0.406736	1.055693	1
H	0.240788	-0.137136	1.850163	1
Es	0.952163	2.127920	0.673452	99
Es	-0.243056	1.200097	-1.345653	99
Es	1.315702	1.974531	0.303813	99
Es	-1.974002	-1.194774	0.698906	99
Es	-2.188707	-1.722461	0.535294	99
Es	-0.357492	0.971404	-0.661308	99
Es	0.821277	0.701027	0.695948	99
Es	1.338815	2.429487	0.540159	99
Es	-0.937025	-2.153835	-0.660260	99
Es	-1.513511	-1.594797	0.442483	99
Es	0.163675	1.256390	-0.192990	99
Es	-0.194981	0.189376	-0.565194	99
Es	1.486996	-0.279632	1.006050	99
Es	-1.027092	-1.547793	-0.215768	99
Es	0.087743	-0.495232	-0.375969	99
Es	0.733573	1.399755	0.339466	99
Es	1.559619	2.578667	0.683673	99
Es	0.810121	-0.024023	0.923195	99
Es	1.208510	2.481628	0.384096	99
Es	-1.991150	-1.465262	0.543938	99
Es	0.585529	-0.725556	-0.885031	99
Es	-1.015070	1.142602	-0.426742	99
Es	0.434192	-0.350206	0.284974	99
Es	0.423362	-0.088994	1.526372	99
Es	-1.766836	-1.383974	0.094667	99
Es	-0.472639	-1.021888	-0.292082	99
39
Properties=species:S:1:pos:R:3:Z:I:1 energy=-342.63509698152114 field_type=dipole dipole="0.000000 0.000000 0.000000" charge=0
O	-1.991412	-1.465266	0.544133	8
C	-1.027122	-1.547836	-0.215767	6
C	0.087788	-0.495256	-0.376017	6
C	-0.357542	0.971464	-0.661347	6
C	0.733618	1.399833	0.339483	6
O	1.338938	2.429914	0.540113	8
C	0.810158	-0.024036	0.923273	6
H	-0.914552	-2.438616	-0.856067	1
H	0.817198	-0.835346	-1.126887	1
H	-1.366882	1.233914	-0.331757	1
H	-0.195012	1.315104	-1.685017	1
H	1.824028	-0.406736	1.055693	1
H	0.240788	-0.137136	1.850163	1
Es	0.733575	1.399757	0.339466	99
Es	0.922721	2.152201	0.633340	99
Es	0.819326	0.697488	0.696821	99
Es	1.338770	2.429626	0.540054	99
Es	0.583780	-0.724015	-0.887455	99
Es	1.422145	2.296794	0.675637	99
Es	-0.474022	-1.020682	-0.294063	99
Es	-0.357492	0.971404	-0.661308	99
Es	1.400442	2.716583	0.467068	99
Es	0.810121	-0.024023	0.923195	99
Es	1.489994	-0.277723	1.006660	99
Es	-1.991144	-1.465293	0.543940	99
Es	0.424294	-0.084705	1.526560	99
Es	1.291779	1.996153	0.270325	99
Es	-0.193225	0.184753	-0.566454	99
Es	0.087743	-0.495233	-0.375968	99
Es	0.166756	1.258925	-0.192007	99
Es	-1.027091	-1.547796	-0.215764	99
Es	-1.972393	-1.195499	0.700190	99
Es	-0.244756	1.197143	-1.344598	99
Es	-1.765206	-1.381170	0.100156	99
Es	0.434618	-0.347515	0.289392	99
Es	-2.194315	-1.717605	0.528545	99
Es	-1.017415	1.139459	-0.428923	99
Es	-0.937749	-2.153214	-0.661250	99
Es	-1.511540	-1.601354	0.441928	99
39
Properties=species:S:1:pos:R:3:Z:I:1 energy=-342.63509698152114 field_type=dipole dipole="0.000000 0.000000 0.000000" charge=0
O	-1.991412	-1.465266	0.544133	8
C	-1.027122	-1.547836	-0.215767	6
C	0.087788	-0.495256	-0.376017	6
C	-0.357542	0.971464	-0.661347	6
C	0.733618	1.399833	0.339483	6
O	1.338938	2.429914	0.540113	8
C	0.810158	-0.024036	0.923273	6
H	-0.914552	-2.438616	-0.856067	1
H	0.817198	-0.835346	-1.126887	1
H	-1.366882	1.233914	-0.331757	1
H	-0.195012	1.315104	-1.685017	1
H	1.824028	-0.406736	1.055693	1
H	0.240788	-0.137136	1.850163	1
Es	-2.195558	-1.716647	0.529680	99
Es	0.434570	-0.347410	0.289389	99
Es	-0.244742	1.197156	-1.344780	99
Es	0.424332	-0.084758	1.526442	99
Es	1.420349	2.296156	0.672941	99
Es	-0.193430	0.184838	-0.566504	99
Es	0.733577	1.399755	0.339465	99
Es	1.290202	1.996493	0.269819	99
Es	-1.017379	1.139489	-0.428767	99
Es	0.923030	2.152786	0.634464	99
Es	-1.027090	-1.547795	-0.215764	99
Es	0.819249	0.697434	0.696887	99
Es	1.403580	2.716439	0.469449	99
Es	0.810122	-0.024022	0.923196	99
Es	-1.765696	-1.381596	0.100305	99
Es	-1.991153	-1.465280	0.543940	99
Es	0.087742	-0.495233	-0.375969	99
Es	-1.970829	-1.195345	0.699398	99
Es	-0.937726	-2.153211	-0.661184	99
Es	-0.473842	-1.020725	-0.293990	99
Es	1.490156	-0.277682	1.006684	99
Es	1.338544	2.429580	0.539846	99
Es	0.583804	-0.724082	-0.887431	99
Es	-0.357493	0.971405	-0.661308	99
Es	0.166788	1.258785	-0.192127	99
Es	-1.511393	-1.602072	0.441407	99
39
Properties=species:S:1:pos:R:3:Z:I:1 energy=-342.63509698152114 field_type=dipole dipole="0.000000 0.000000 0.000000" charge=0
O	-1.991412	-1.465266	0.544133	8
C	-1.027122	-1.547836	-0.215767	6
C	0.087788	-0.495256	-0.376017	6
C	-0.357542	0.971464	-0.661347	6
C	0.733618	1.399833	0.339483	6
O	1.338938	2.429914	0.540113	8
C	0.810158	-0.024036	0.923273	6
H	-0.914552	-2.438616	-0.856067	1
H	0.817198	-0.835346	-1.126887	1
H	-1.366882	1.233914	-0.331757	1
H	-0.195012	1.315104	-1.685017	1
H	1.824028	-0.406736	1.055693	1
H	0.240788	-0.137136	1.850163	1
Es	-0.357493	0.971405	-0.661309	99
Es	-0.472344	-1.021933	-0.292184	99
Es	-1.991162	-1.465290	0.543935	99
Es	1.210410	2.472063	0.390515	99
Es	0.163536	1.256442	-0.192921	99
Es	1.338876	2.429346	0.540277	99
Es	-0.195205	0.189513	-0.565252	99
Es	0.821191	0.700922	0.695972	99
Es	-0.937008	-2.153789	-0.660166	99
Es	-0.243081	1.200148	-1.345834	99
Es	1.316307	1.975360	0.303830	99
Es	0.585365	-0.725569	-0.885108	99
Es	-1.027091	-1.547796	-0.215764	99
Es	-2.189362	-1.721593	0.535748	99
Es	0.087742	-0.495233	-0.375968	99
Es	1.556808	2.588585	0.676362	99
Es	-1.513243	-1.595499	0.442818	99
Es	0.733574	1.399757	0.339467	99
Es	-1.015039	1.142471	-0.426709	99
Es	0.952475	2.126826	0.674205	99
Es	-1.973495	-1.195305	0.698603	99
Es	1.487279	-0.279771	1.006091	99
Es	0.810122	-0.024023	0.923198	99
Es	-1.767043	-1.383547	0.094088	99
Es	0.423263	-0.088892	1.526258	99
Es	0.434332	-0.350142	0.285335	99
39
Properties=species:S:1:pos:R:3:Z:I:1 energy=-342.63509698152114 field_type=dipole dipole="0.000000 0.000000 0.000000" charge=0
O	-1.991412	-1.465266	0.544133	8
C	-1.027122	-1.547836	-0.215767	6
C	0.087788	-0.495256	-0.376017	6
C	-0.357542	0.971464	-0.661347	6
C	0.733618	1.399833	0.339483	6
O	1.338938	2.429914	0.540113	8
C	0.810158	-0.024036	0.923273	6
H	-0.914552	-2.438616	-0.856067	1
H	0.817198	-0.835346	-1.126887	1
H	-1.366882	1.233914	-0.331757	1
H	-0.195012	1.315104	-1.685017	1
H	1.824028	-0.406736	1.055693	1
H	0.240788	-0.137136	1.850163	1
Es	-0.473942	-1.020694	-0.294174	99
Es	0.087743	-0.495233	-0.375968	99
Es	0.810121	-0.024023	0.923195	99
Es	1.338148	2.429202	0.539589	99
Es	1.490083	-0.277825	1.006665	99
Es	0.583772	-0.724084	-0.887326	99
Es	-1.972203	-1.195397	0.698386	99
Es	-0.244689	1.197213	-1.344754	99
Es	-2.194817	-1.717308	0.530178	99
Es	1.290896	1.996758	0.269388	99
Es	-1.991162	-1.465290	0.543930	99
Es	0.819335	0.697459	0.696864	99
Es	-0.357493	0.971404	-0.661308	99
Es	-0.937760	-2.153151	-0.661241	99
Es	-0.193394	0.185017	-0.566525	99
Es	1.417000	2.296495	0.669942	99
Es	0.733574	1.399757	0.339469	99
Es	0.166742	1.258778	-0.191999	99
Es	0.434626	-0.347527	0.289429	99
Es	-1.027090	-1.547796	-0.215764	99
Es	-1.765408	-1.381955	0.099530	99
Es	-1.017351	1.139509	-0.428831	99
Es	0.922717	2.152745	0.633787	99
Es	0.424211	-0.084756	1.526495	99
Es	-1.510993	-1.601036	0.442791	99
Es	1.407049	2.716196	0.473737	99
39
Properties=species:S:1:pos:R:3:Z:I:1 energy=-342.63509698152114 field_type=dipole dipole="0.000000 0.000000 0.000000" charge=0
O	-1.991412	-1.465266	0.544133	8
C	-1.027122	-1.547836	-0.215767	6
C	0.087788	-0.495256	-0.376017	6
C	-0.357542	0.971464	-0.661347	6
C	0.733618	1.399833	0.339483	6
O	1.338938	2.429914	0.540113	8
C	0.810158	-0.024036	0.923273	6
H	-0.914552	-2.438616	-0.856067	1
H	0.817198	-0.835346	-1.126887	1
H	-1.366882	1.233914	-0.331757	1
H	-0.195012	1.315104	-1.685017	1
H	1.824028	-0.406736	1.055693	1
H	0.240788	-0.137136	1.850163	1
Es	-1.027093	-1.547794	-0.215767	99
Es	1.556338	2.589410	0.675721	99
Es	-0.472537	-1.021891	-0.292137	99
Es	0.585464	-0.725608	-0.884948	99
Es	-2.191124	-1.720624	0.537279	99
Es	0.952360	2.127492	0.674290	99
Es	-0.937049	-2.153771	-0.660297	99
Es	0.810122	-0.024023	0.923196	99
Es	-1.971562	-1.194735	0.697044	99
Es	-1.991153	-1.465288	0.543942	99
Es	0.434255	-0.350192	0.285040	99
Es	0.087742	-0.495233	-0.375968	99
Es	0.423186	-0.088894	1.526247	99
Es	-0.195060	0.189608	-0.565216	99
Es	0.733571	1.399760	0.339471	99
Es	0.821322	0.700953	0.695996	99
Es	-1.015074	1.142498	-0.426825	99
Es	0.163534	1.256436	-0.192822	99
Es	1.338820	2.429462	0.540171	99
Es	1.210791	2.471057	0.391096	99
Es	-1.766495	-1.384567	0.094146	99
Es	1.316579	1.974764	0.303846	99
Es	-1.513881	-1.596088	0.442895	99
Es	-0.357493	0.971405	-0.661309	99
Es	1.487130	-0.279800	1.006179	99
Es	-0.242980	1.200121	-1.345787	99
39
Properties=species:S:1:pos:R:3:Z:I:1 energy=-342.63509698152114 field_type=dipole dipole="0.000000 0.000000 0.000000" charge=0
O	-1.991412	-1.465266	0.544133	8
C	-1.027122	-1.547836	-0.215767	6
C	0.087788	-0.495256	-0.376017	6
C	-0.357542	0.971464	-0.661347	6
C	0.733618	1.399833	0.339483	6
O	1.338938	2.429914	0.540113	8
C	0.810158	-0.024036	0.923273	6
H	-0.914552	-2.438616	-0.856067	1
H	0.817198	-0.835346	-1.126887	1
H	-1.366882	1.233914	-0.331757	1
H	-0.195012	1.315104	-1.685017	1
H	1.824028	-0.406736	1.055693	1
H	0.240788	-0.137136	1.850163	1
Es	0.424079	-0.084579	1.526488	99
Es	0.166836	1.258915	-0.192025	99
Es	-2.194630	-1.717816	0.530102	99
Es	-1.971912	-1.195461	0.698938	99
Es	-1.991135	-1.465264	0.543934	99
Es	1.416467	2.296383	0.670117	99
Es	1.407062	2.716087	0.472586	99
Es	0.810122	-0.024023	0.923195	99
Es	-1.510800	-1.600669	0.441539	99
Es	1.338647	2.429623	0.539931	99
Es	1.489973	-0.277853	1.006833	99
Es	-0.474021	-1.020709	-0.294093	99
Es	0.087742	-0.495233	-0.375969	99
Es	-1.766148	-1.381764	0.100225	99
Es	-0.193135	0.184666	-0.566519	99
Es	-0.357492	0.971404	-0.661308	99
Es	-1.027089	-1.547797	-0.215762	99
Es	0.819461	0.697461	0.696730	99
Es	0.434669	-0.347248	0.289392	99
Es	0.922335	2.153177	0.633699	99
Es	0.583827	-0.723986	-0.887394	99
Es	1.291324	1.996111	0.270098	99
Es	-0.937763	-2.153166	-0.661210	99
Es	-1.017481	1.139347	-0.428880	99
Es	-0.244798	1.197092	-1.344629	99
Es	0.733576	1.399757	0.339468	99
39
Properties=species:S:1:pos:R:3:Z:I:1 energy=-342.63509698152114 field_type=dipole dipole="0.000000 0.000000 0.000000" charge=0
O	-1.991412	-1.465266	0.544133	8
C	-1.027122	-1.547836	-0.215767	6
C	0.087788	-0.495256	-0.376017	6
C	-0.357542	0.971464	-0.661347	6
C	0.733618	1.399833	0.339483	6
O	1.338938	2.429914	0.540113	8
C	0.810158	-0.024036	0.923273	6
H	-0.914552	-2.438616	-0.856067	1
H	0.817198	-0.835346	-1.126887	1
H	-1.366882	1.233914	-0.331757	1
H	-0.195012	1.315104	-1.685017	1
H	1.824028	-0.406736	1.055693	1
H	0.240788	-0.137136	1.850163	1
Es	1.211725	2.465788	0.393730	99
Es	-1.027092	-1.547795	-0.215766	99
Es	0.820974	0.700941	0.696017	99
Es	-0.243122	1.200150	-1.345844	99
Es	0.423334	-0.088910	1.526247	99
Es	-0.472448	-1.021839	-0.292259	99
Es	0.952593	2.127462	0.674883	99
Es	-0.937056	-2.153724	-0.660247	99
Es	-1.512911	-1.595947	0.442887	99
Es	0.163622	1.256399	-0.192889	99
Es	0.434331	-0.350065	0.285562	99
Es	1.487412	-0.279665	1.006083	99
Es	0.087742	-0.495234	-0.375965	99
Es	0.733573	1.399757	0.339467	99
Es	1.316784	1.974625	0.305262	99
Es	1.338800	2.429516	0.540130	99
Es	0.810119	-0.024023	0.923195	99
Es	-0.195197	0.189354	-0.565460	99
Es	-1.767084	-1.382743	0.094212	99
Es	-2.189724	-1.721260	0.535369	99
Es	1.555007	2.594775	0.671132	99
Es	0.585399	-0.725646	-0.885067	99
Es	-1.991154	-1.465276	0.543937	99
Es	-1.973395	-1.196046	0.698886	99
Es	-1.015025	1.142459	-0.426709	99
Es	-0.357492	0.971404	-0.661309	99
39
Properties=species:S:1:pos:R:3:Z:I:1 energy=-342.63509698152114 field_type=dipole dipole="0.000000 0.000000 0.000000" charge=0
O	-1.991412	-1.465266	0.544133	8
C	-1.027122	-1.547836	-0.215767	6
C	0.087788	-0.495256	-0.376017	6
C	-0.357542	0.971464	-0.661347	6
C	0.733618	1.399833	0.339483	6
O	1.338938	2.429914	0.540113	8
C	0.810158	-0.024036	0.923273	6
H	-0.914552	-2.438616	-0.856067	1
H	0.817198	-0.835346	-1.126887	1
H	-1.366882	1.233914	-0.331757	1
H	-0.195012	1.315104	-1.685017	1
H	1.824028	-0.406736	1.055693	1
H	0.240788	-0.137136	1.850163	1
Es	1.316297	1.975291	0.303807	99
Es	1.338834	2.429415	0.540204	99
Es	-1.971563	-1.195371	0.699144	99
Es	0.810121	-0.024023	0.923195	99
Es	-2.190237	-1.721349	0.536203	99
Es	-0.242985	1.200048	-1.345630	99
Es	-1.512864	-1.596025	0.440598	99
Es	1.487065	-0.279730	1.006061	99
Es	1.556208	2.591315	0.673397	99
Es	-0.195033	0.189558	-0.565176	99
Es	0.585612	-0.725502	-0.884987	99
Es	0.423197	-0.088992	1.526352	99
Es	0.733577	1.399755	0.339463	99
Es	-1.015204	1.142518	-0.426864	99
Es	0.087743	-0.495233	-0.375968	99
Es	0.434185	-0.350127	0.284984	99
Es	-1.768475	-1.383225	0.095290	99
Es	-1.027093	-1.547795	-0.215766	99
Es	1.210229	2.469499	0.392136	99
Es	0.953420	2.126617	0.675542	99
Es	-0.472469	-1.022011	-0.292070	99
Es	-1.991174	-1.465290	0.543952	99
Es	0.821253	0.701017	0.695938	99
Es	-0.937036	-2.153772	-0.660183	99
Es	-0.357492	0.971404	-0.661308	99
Es	0.163599	1.256464	-0.192830	99
39
Properties=species:S:1:pos:R:3:Z:I:1 energy=-342.63509698152114 field_type=dipole dipole="0.000000 0.000000 0.000000" charge=0
O	-1.991412	-1.465266	0.544133	8
C	-1.027122	-1.547836	-0.215767	6
C	0.087788	-0.495256	-0.376017	6
C	-0.357542	0.971464	-0.661347	6
C	0.733618	1.399833	0.339483	6
O	1.338938	2.429914	0.540113	8
C	0.810158	-0.024036	0.923273	6
H	-0.914552	-2.438616	-0.856067	1
H	0.817198	-0.835346	-1.126887	1
H	-1.366882	1.233914	-0.331757	1
H	-0.195012	1.315104	-1.685017	1
H	1.824028	-0.406736	1.055693	1
H	0.240788	-0.137136	1.850163	1
Es	1.414518	2.715465	0.479398	99
Es	0.921807	2.154100	0.632847	99
Es	0.819262	0.697547	0.696947	99
Es	-1.991162	-1.465317	0.543917	99
Es	0.087742	-0.495233	-0.375968	99
Es	0.434606	-0.347595	0.289426	99
Es	0.733573	1.399757	0.339468	99
Es	0.424206	-0.084757	1.526460	99
Es	-2.193902	-1.717722	0.529058	99
Es	-1.017390	1.139407	-0.428718	99
Es	-0.357491	0.971404	-0.661307	99
Es	-0.473896	-1.020731	-0.294194	99
Es	1.290845	1.996557	0.269775	99
Es	0.810122	-0.024022	0.923195	99
Es	-1.765131	-1.380768	0.099036	99
Es	1.410119	2.295565	0.664401	99
Es	0.166768	1.258808	-0.192050	99
Es	-1.027090	-1.547797	-0.215762	99
Es	-0.244777	1.197175	-1.344830	99
Es	-0.193405	0.185366	-0.566496	99
Es	-0.937733	-2.153116	-0.661202	99
Es	1.338618	2.429646	0.539889	99
Es	0.583742	-0.724107	-0.887310	99
Es	-1.511028	-1.600916	0.443337	99
Es	-1.973351	-1.196314	0.699533	99
Es	1.490141	-0.277943	1.006638	99
