36
Properties=species:S:1:pos:R:3:Z:I:1 energy=-341.3794150892761 field_type=dipole dipole="0.000000 0.000000 0.000000" charge=0
O	-2.294478	-1.640951	-0.119330	8
C	-1.124958	-1.749261	-0.464200	6
C	-0.086618	-0.871341	0.095380	6
O	0.968342	-0.546171	-0.821500	8
C	0.082472	0.521589	-0.447100	6
C	0.719352	1.519919	0.356010	6
C	1.251552	2.358849	1.029360	6
H	-0.794238	-2.508981	-1.191750	1
H	0.176022	-1.055681	1.129190	1
H	-0.625008	0.868919	-1.191620	1
H	1.727562	3.103109	1.625560	1
Es	0.719226	1.519733	0.355859	99
Es	-2.333369	-1.409588	0.087140	99
Es	-0.086407	-0.871252	0.095151	99
Es	0.877997	-0.652141	-1.098781	99
Es	0.609309	-0.775062	-0.461626	99
Es	0.404914	1.036956	-0.030411	99
Es	-0.379399	0.758700	-0.945332	99
Es	-1.819619	-1.843746	-0.058100	99
Es	-0.591094	-1.308572	-0.191412	99
Es	0.662280	2.092339	0.733916	99
Es	1.234157	-0.510314	-0.673408	99
Es	1.560283	2.841923	1.416596	99
Es	-2.294161	-1.640991	-0.119435	99
Es	-0.192138	-0.098649	-0.046247	99
Es	-0.888483	-2.258259	-0.955443	99
Es	-2.482776	-1.847485	-0.256344	99
Es	1.092054	1.683132	0.922445	99
Es	1.251656	2.359010	1.029490	99
Es	-1.124952	-1.749238	-0.464170	99
Es	0.680246	-0.066741	-0.739565	99
Es	-1.900176	-1.519119	-0.436872	99
Es	0.968122	-0.546095	-0.821355	99
Es	0.087242	-1.010229	0.777873	99
Es	1.185996	2.024872	0.410625	99
Es	0.082706	0.521397	-0.447083	99
36
Properties=species:S:1:pos:R:3:Z:I:1 energy=-341.3794150892761 field_type=dipole dipole="0.000000 0.000000 0.000000" charge=0
O	-2.294478	-1.640951	-0.119330	8
C	-1.124958	-1.749261	-0.464200	6
C	-0.086618	-0.871341	0.095380	6
O	0.968342	-0.546171	-0.821500	8
C	0.082472	0.521589	-0.447100	6
C	0.719352	1.519919	0.356010	6
C	1.251552	2.358849	1.029360	6
H	-0.794238	-2.508981	-1.191750	1
H	0.176022	-1.055681	1.129190	1
H	-0.625008	0.868919	-1.191620	1
H	1.727562	3.103109	1.625560	1
Es	0.608578	-0.776089	-0.464016	99
Es	0.879194	-0.650152	-1.099993	99
Es	0.082701	0.521392	-0.447076	99
Es	-0.377377	0.756880	-0.943702	99
Es	-2.325897	-1.407160	0.089974	99
Es	-1.900669	-1.523194	-0.431506	99
Es	0.658035	2.082810	0.748747	99
Es	-0.193046	-0.097634	-0.045292	99
Es	-2.294154	-1.641016	-0.119441	99
Es	-1.820511	-1.833740	-0.065744	99
Es	1.560511	2.845274	1.414082	99
Es	1.232202	-0.513774	-0.671865	99
Es	0.405284	1.036175	-0.027709	99
Es	0.087354	-1.009413	0.774162	99
Es	-0.888734	-2.258959	-0.955504	99
Es	-0.086411	-0.871247	0.095150	99
Es	0.968125	-0.546087	-0.821349	99
Es	0.719244	1.519722	0.355860	99
Es	0.681564	-0.064468	-0.737441	99
Es	1.098558	1.690831	0.908874	99
Es	-0.592437	-1.309496	-0.191147	99
Es	-2.488504	-1.856397	-0.256575	99
Es	-1.124947	-1.749235	-0.464181	99
Es	1.183294	2.026539	0.409714	99
Es	1.251659	2.359016	1.029489	99
36
Properties=species:S:1:pos:R:3:Z:I:1 energy=-341.3794150892761 field_type=dipole dipole="0.000000 0.000000 0.000000" charge=0
O	-2.294478	-1.640951	-0.119330	8
C	-1.124958	-1.749261	-0.464200	6
C	-0.086618	-0.871341	0.095380	6
O	0.968342	-0.546171	-0.821500	8
C	0.082472	0.521589	-0.447100	6
C	0.719352	1.519919	0.356010	6
C	1.251552	2.358849	1.029360	6
H	-0.794238	-2.508981	-1.191750	1
H	0.176022	-1.055681	1.129190	1
H	-0.625008	0.868919	-1.191620	1
H	1.727562	3.103109	1.625560	1
Es	1.137322	1.691810	0.873693	99
Es	0.719223	1.519720	0.355854	99
Es	-1.124944	-1.749235	-0.464181	99
Es	1.231972	-0.516491	-0.672116	99
Es	-2.323738	-1.403889	0.091422	99
Es	-0.593147	-1.310196	-0.190632	99
Es	1.560978	2.846834	1.412500	99
Es	-2.294183	-1.640973	-0.119419	99
Es	-0.888980	-2.259339	-0.955556	99
Es	-0.194053	-0.096427	-0.044213	99
Es	-2.488343	-1.862844	-0.257689	99
Es	1.251644	2.359030	1.029498	99
Es	0.087221	-1.008817	0.770789	99
Es	0.879000	-0.647838	-1.099364	99
Es	-1.899637	-1.527622	-0.427777	99
Es	0.968098	-0.546095	-0.821345	99
Es	-0.375492	0.755610	-0.942333	99
Es	1.148459	2.055838	0.403662	99
Es	0.682144	-0.062960	-0.735726	99
Es	0.608388	-0.777726	-0.465832	99
Es	0.082708	0.521393	-0.447081	99
Es	-1.823462	-1.826626	-0.069609	99
Es	0.405391	1.036059	-0.026461	99
Es	0.653458	2.052608	0.790277	99
Es	-0.086412	-0.871246	0.095150	99
36
Properties=species:S:1:pos:R:3:Z:I:1 energy=-341.3794150892761 field_type=dipole dipole="0.000000 0.000000 0.000000" charge=0
O	-2.294478	-1.640951	-0.119330	8
C	-1.124958	-1.749261	-0.464200	6
C	-0.086618	-0.871341	0.095380	6
O	0.968342	-0.546171	-0.821500	8
C	0.082472	0.521589	-0.447100	6
C	0.719352	1.519919	0.356010	6
C	1.251552	2.358849	1.029360	6
H	-0.794238	-2.508981	-1.191750	1
H	0.176022	-1.055681	1.129190	1
H	-0.625008	0.868919	-1.191620	1
H	1.727562	3.103109	1.625560	1
Es	0.968078	-0.546080	-0.821328	99
Es	1.232349	-0.518880	-0.672469	99
Es	1.251661	2.359019	1.029490	99
Es	-2.320149	-1.401835	0.091647	99
Es	0.608026	-0.778383	-0.467152	99
Es	-0.889128	-2.259683	-0.955469	99
Es	-0.194814	-0.095622	-0.042956	99
Es	-0.374005	0.754603	-0.941030	99
Es	1.136419	2.063691	0.404386	99
Es	-2.489670	-1.866614	-0.257281	99
Es	1.149060	1.694195	0.859998	99
Es	-1.825750	-1.821966	-0.072518	99
Es	0.683140	-0.062118	-0.733963	99
Es	1.561167	2.847796	1.411427	99
Es	-1.899342	-1.530720	-0.425554	99
Es	0.653344	2.042310	0.803728	99
Es	-0.086402	-0.871246	0.095149	99
Es	0.405454	1.036244	-0.025914	99
Es	-1.124943	-1.749235	-0.464182	99
Es	-0.593518	-1.310759	-0.190151	99
Es	0.086959	-1.008548	0.767656	99
Es	0.877939	-0.645728	-1.099367	99
Es	0.719221	1.519719	0.355858	99
Es	-2.294186	-1.640977	-0.119414	99
Es	0.082704	0.521398	-0.447079	99
36
Properties=species:S:1:pos:R:3:Z:I:1 energy=-341.3794150892761 field_type=dipole dipole="0.000000 0.000000 0.000000" charge=0
O	-2.294478	-1.640951	-0.119330	8
C	-1.124958	-1.749261	-0.464200	6
C	-0.086618	-0.871341	0.095380	6
O	0.968342	-0.546171	-0.821500	8
C	0.082472	0.521589	-0.447100	6
C	0.719352	1.519919	0.356010	6
C	1.251552	2.358849	1.029360	6
H	-0.794238	-2.508981	-1.191750	1
H	0.176022	-1.055681	1.129190	1
H	-0.625008	0.868919	-1.191620	1
H	1.727562	3.103109	1.625560	1
Es	-0.195451	-0.094964	-0.041959	99
Es	0.086673	-1.008295	0.765012	99
Es	-0.889274	-2.260029	-0.955263	99
Es	0.082699	0.521399	-0.447074	99
Es	-2.294250	-1.640979	-0.119377	99
Es	-2.319032	-1.399115	0.091476	99
Es	1.251663	2.359023	1.029484	99
Es	-2.488741	-1.870182	-0.258650	99
Es	1.229217	-0.519088	-0.669981	99
Es	-0.593754	-1.311156	-0.189673	99
Es	-1.899083	-1.533974	-0.422495	99
Es	0.652670	2.054202	0.789634	99
Es	1.561398	2.848354	1.410715	99
Es	0.683272	-0.060909	-0.734274	99
Es	1.157065	2.046937	0.406967	99
Es	0.881764	-0.645434	-1.099844	99
Es	-1.124945	-1.749232	-0.464184	99
Es	0.968116	-0.546100	-0.821366	99
Es	0.405164	1.036298	-0.025242	99
Es	-1.827806	-1.817821	-0.074327	99
Es	-0.086409	-0.871244	0.095150	99
Es	1.129089	1.699025	0.871514	99
Es	0.607005	-0.779913	-0.468406	99
Es	0.719226	1.519712	0.355864	99
Es	-0.372660	0.754062	-0.940189	99
36
Properties=species:S:1:pos:R:3:Z:I:1 energy=-341.3794150892761 field_type=dipole dipole="0.000000 0.000000 0.000000" charge=0
O	-2.294478	-1.640951	-0.119330	8
C	-1.124958	-1.749261	-0.464200	6
C	-0.086618	-0.871341	0.095380	6
O	0.968342	-0.546171	-0.821500	8
C	0.082472	0.521589	-0.447100	6
C	0.719352	1.519919	0.356010	6
C	1.251552	2.358849	1.029360	6
H	-0.794238	-2.508981	-1.191750	1
H	0.176022	-1.055681	1.129190	1
H	-0.625008	0.868919	-1.191620	1
H	1.727562	3.103109	1.625560	1
Es	1.230114	-0.520931	-0.672301	99
Es	0.968082	-0.546091	-0.821341	99
Es	0.082702	0.521399	-0.447078	99
Es	1.251662	2.359025	1.029485	99
Es	-2.488472	-1.873121	-0.259037	99
Es	-2.317668	-1.400928	0.093225	99
Es	1.561315	2.849268	1.409468	99
Es	-2.294190	-1.640977	-0.119415	99
Es	-0.889500	-2.259832	-0.955635	99
Es	-0.196048	-0.095269	-0.041586	99
Es	-0.371541	0.753659	-0.939411	99
Es	-0.594018	-1.311166	-0.189758	99
Es	0.719227	1.519702	0.355862	99
Es	0.691768	1.940180	0.906094	99
Es	1.260417	1.721004	0.723950	99
Es	0.878798	-0.643873	-1.100132	99
Es	-0.086413	-0.871247	0.095150	99
Es	0.685189	-0.060401	-0.732598	99
Es	0.404357	1.037366	-0.026088	99
Es	-1.897341	-1.533099	-0.421003	99
Es	0.987650	2.137359	0.440043	99
Es	-1.830932	-1.814498	-0.076577	99
Es	-1.124947	-1.749227	-0.464191	99
Es	0.606754	-0.779572	-0.467644	99
Es	0.086650	-1.008151	0.764029	99
36
Properties=species:S:1:pos:R:3:Z:I:1 energy=-341.3794150892761 field_type=dipole dipole="0.000000 0.000000 0.000000" charge=0
O	-2.294478	-1.640951	-0.119330	8
C	-1.124958	-1.749261	-0.464200	6
C	-0.086618	-0.871341	0.095380	6
O	0.968342	-0.546171	-0.821500	8
C	0.082472	0.521589	-0.447100	6
C	0.719352	1.519919	0.356010	6
C	1.251552	2.358849	1.029360	6
H	-0.794238	-2.508981	-1.191750	1
H	0.176022	-1.055681	1.129190	1
H	-0.625008	0.868919	-1.191620	1
H	1.727562	3.103109	1.625560	1
Es	-0.889570	-2.259876	-0.955663	99
Es	-1.897745	-1.535579	-0.420222	99
Es	1.228845	-0.521603	-0.670652	99
Es	-0.594238	-1.311239	-0.189492	99
Es	0.719222	1.519713	0.355858	99
Es	0.086401	-1.008022	0.762130	99
Es	-0.370174	0.753133	-0.938590	99
Es	-2.315318	-1.399072	0.092789	99
Es	-0.086416	-0.871250	0.095152	99
Es	1.561549	2.849418	1.409175	99
Es	-1.124945	-1.749230	-0.464188	99
Es	0.606017	-0.779712	-0.468738	99
Es	0.082705	0.521395	-0.447080	99
Es	1.005021	2.129516	0.435653	99
Es	1.251237	1.715232	0.739614	99
Es	1.251665	2.359027	1.029484	99
Es	-2.488801	-1.875142	-0.257854	99
Es	0.880254	-0.643456	-1.101099	99
Es	-2.294231	-1.640964	-0.119405	99
Es	-1.832347	-1.812077	-0.078105	99
Es	0.404267	1.037600	-0.026116	99
Es	0.683323	1.953893	0.894919	99
Es	0.685725	-0.060143	-0.732008	99
Es	0.968069	-0.546082	-0.821325	99
Es	-0.196901	-0.094901	-0.040724	99
36
Properties=species:S:1:pos:R:3:Z:I:1 energy=-341.3794150892761 field_type=dipole dipole="0.000000 0.000000 0.000000" charge=0
O	-2.294478	-1.640951	-0.119330	8
C	-1.124958	-1.749261	-0.464200	6
C	-0.086618	-0.871341	0.095380	6
O	0.968342	-0.546171	-0.821500	8
C	0.082472	0.521589	-0.447100	6
C	0.719352	1.519919	0.356010	6
C	1.251552	2.358849	1.029360	6
H	-0.794238	-2.508981	-1.191750	1
H	0.176022	-1.055681	1.129190	1
H	-0.625008	0.868919	-1.191620	1
H	1.727562	3.103109	1.625560	1
Es	-0.889642	-2.260528	-0.955072	99
Es	1.111428	1.706337	0.877421	99
Es	0.685744	-0.058576	-0.730069	99
Es	0.968091	-0.546090	-0.821339	99
Es	0.605892	-0.782179	-0.471214	99
Es	1.174394	2.030794	0.411751	99
Es	-2.489013	-1.876099	-0.258682	99
Es	1.251664	2.359028	1.029483	99
Es	1.561826	2.849062	1.409720	99
Es	-0.594065	-1.311729	-0.189029	99
Es	-0.196463	-0.093727	-0.039098	99
Es	0.082701	0.521399	-0.447077	99
Es	0.086012	-1.007989	0.759123	99
Es	-2.313535	-1.395103	0.091081	99
Es	0.404628	1.036676	-0.024426	99
Es	-0.086413	-0.871244	0.095149	99
Es	-1.124946	-1.749228	-0.464189	99
Es	-0.370039	0.752796	-0.938251	99
Es	0.879931	-0.640803	-1.099108	99
Es	-1.831093	-1.810552	-0.079124	99
Es	0.652983	2.063142	0.778789	99
Es	1.229074	-0.524096	-0.671330	99
Es	-2.294217	-1.640969	-0.119407	99
Es	-1.900563	-1.539439	-0.417457	99
Es	0.719236	1.519696	0.355867	99
36
Properties=species:S:1:pos:R:3:Z:I:1 energy=-341.3794150892761 field_type=dipole dipole="0.000000 0.000000 0.000000" charge=0
O	-2.294478	-1.640951	-0.119330	8
C	-1.124958	-1.749261	-0.464200	6
C	-0.086618	-0.871341	0.095380	6
O	0.968342	-0.546171	-0.821500	8
C	0.082472	0.521589	-0.447100	6
C	0.719352	1.519919	0.356010	6
C	1.251552	2.358849	1.029360	6
H	-0.794238	-2.508981	-1.191750	1
H	0.176022	-1.055681	1.129190	1
H	-0.625008	0.868919	-1.191620	1
H	1.727562	3.103109	1.625560	1
Es	1.561822	2.849704	1.408663	99
Es	-0.086415	-0.871246	0.095150	99
Es	0.968091	-0.546093	-0.821347	99
Es	-1.124946	-1.749229	-0.464189	99
Es	0.082698	0.521402	-0.447077	99
Es	0.403874	1.037902	-0.025911	99
Es	-0.368654	0.752592	-0.937524	99
Es	0.880671	-0.641096	-1.100934	99
Es	1.227351	-0.523901	-0.670815	99
Es	-2.313787	-1.398440	0.093623	99
Es	-0.889760	-2.260031	-0.955680	99
Es	-1.835194	-1.808485	-0.080582	99
Es	-1.897142	-1.537023	-0.416974	99
Es	-2.487870	-1.878015	-0.259505	99
Es	0.686401	1.949372	0.898540	99
Es	0.687588	-0.058575	-0.730330	99
Es	1.251659	2.359036	1.029479	99
Es	0.604708	-0.781184	-0.470177	99
Es	0.996323	2.130269	0.442177	99
Es	-0.197608	-0.094519	-0.039541	99
Es	0.086147	-1.007969	0.759514	99
Es	-2.294188	-1.640960	-0.119411	99
Es	-0.594425	-1.311439	-0.189211	99
Es	0.719214	1.519712	0.355859	99
Es	1.257056	1.718795	0.729714	99
36
Properties=species:S:1:pos:R:3:Z:I:1 energy=-341.3794150892761 field_type=dipole dipole="0.000000 0.000000 0.000000" charge=0
O	-2.294478	-1.640951	-0.119330	8
C	-1.124958	-1.749261	-0.464200	6
C	-0.086618	-0.871341	0.095380	6
O	0.968342	-0.546171	-0.821500	8
C	0.082472	0.521589	-0.447100	6
C	0.719352	1.519919	0.356010	6
C	1.251552	2.358849	1.029360	6
H	-0.794238	-2.508981	-1.191750	1
H	0.176022	-1.055681	1.129190	1
H	-0.625008	0.868919	-1.191620	1
H	1.727562	3.103109	1.625560	1
Es	-2.294124	-1.640978	-0.119423	99
Es	0.085937	-1.007886	0.757413	99
Es	-2.488910	-1.878244	-0.259681	99
Es	0.879372	-0.639149	-1.098066	99
Es	0.655478	2.078640	0.757713	99
Es	-2.311525	-1.393138	0.090087	99
Es	1.200318	2.006340	0.419335	99
Es	-1.899499	-1.542372	-0.414585	99
Es	0.719226	1.519708	0.355860	99
Es	0.968134	-0.546075	-0.821357	99
Es	-0.594102	-1.311977	-0.188847	99
Es	0.082699	0.521397	-0.447071	99
Es	1.083354	1.715179	0.890779	99
Es	0.404330	1.036779	-0.023999	99
Es	1.561951	2.849325	1.409360	99
Es	-1.834133	-1.807404	-0.080247	99
Es	-0.369125	0.752507	-0.937739	99
Es	-0.196654	-0.093385	-0.038515	99
Es	-0.086413	-0.871246	0.095148	99
Es	1.251667	2.359026	1.029484	99
Es	-1.124945	-1.749232	-0.464185	99
Es	0.604803	-0.783332	-0.471521	99
Es	-0.889760	-2.260830	-0.954846	99
Es	1.227970	-0.526157	-0.672749	99
Es	0.687566	-0.056916	-0.728836	99
36
Properties=species:S:1:pos:R:3:Z:I:1 energy=-341.3794150892761 field_type=dipole dipole="0.000000 0.000000 0.000000" charge=0
O	-2.294478	-1.640951	-0.119330	8
C	-1.124958	-1.749261	-0.464200	6
C	-0.086618	-0.871341	0.095380	6
O	0.968342	-0.546171	-0.821500	8
C	0.082472	0.521589	-0.447100	6
C	0.719352	1.519919	0.356010	6
C	1.251552	2.358849	1.029360	6
H	-0.794238	-2.508981	-1.191750	1
H	0.176022	-1.055681	1.129190	1
H	-0.625008	0.868919	-1.191620	1
H	1.727562	3.103109	1.625560	1
Es	-0.889946	-2.260230	-0.955622	99
Es	-0.594506	-1.311535	-0.189194	99
Es	0.085934	-1.007899	0.757813	99
Es	-0.198212	-0.094391	-0.038881	99
Es	0.603485	-0.783056	-0.471532	99
Es	0.881378	-0.638649	-1.100295	99
Es	0.687994	-0.058243	-0.729175	99
Es	-2.488191	-1.880159	-0.258312	99
Es	-1.124947	-1.749226	-0.464193	99
Es	-2.310170	-1.395350	0.093004	99
Es	-0.086406	-0.871239	0.095149	99
Es	0.082705	0.521392	-0.447077	99
Es	-0.367480	0.752299	-0.936999	99
Es	-1.898579	-1.540763	-0.415316	99
Es	1.260196	1.721773	0.722905	99
Es	1.227080	-0.524661	-0.670775	99
Es	0.403617	1.038093	-0.025777	99
Es	0.687726	1.946988	0.900796	99
Es	1.561911	2.849834	1.408521	99
Es	1.251665	2.359030	1.029481	99
Es	0.719219	1.519711	0.355859	99
Es	-1.836805	-1.805686	-0.082864	99
Es	0.992071	2.129589	0.446725	99
Es	-2.294200	-1.640968	-0.119413	99
Es	0.968077	-0.546076	-0.821316	99
36
Properties=species:S:1:pos:R:3:Z:I:1 energy=-341.3794150892761 field_type=dipole dipole="0.000000 0.000000 0.000000" charge=0
O	-2.294478	-1.640951	-0.119330	8
C	-1.124958	-1.749261	-0.464200	6
C	-0.086618	-0.871341	0.095380	6
O	0.968342	-0.546171	-0.821500	8
C	0.082472	0.521589	-0.447100	6
C	0.719352	1.519919	0.356010	6
C	1.251552	2.358849	1.029360	6
H	-0.794238	-2.508981	-1.191750	1
H	0.176022	-1.055681	1.129190	1
H	-0.625008	0.868919	-1.191620	1
H	1.727562	3.103109	1.625560	1
Es	-2.308080	-1.394798	0.092679	99
Es	0.602726	-0.783066	-0.471842	99
Es	0.881197	-0.638406	-1.099908	99
Es	0.689277	-0.056716	-0.728558	99
Es	-1.899389	-1.541661	-0.414600	99
Es	-0.086417	-0.871246	0.095150	99
Es	0.719221	1.519709	0.355861	99
Es	0.968122	-0.546110	-0.821376	99
Es	-0.889948	-2.260285	-0.955491	99
Es	1.274568	1.733771	0.694767	99
Es	1.226037	-0.526188	-0.671068	99
Es	0.700770	1.928004	0.915340	99
Es	0.965144	2.136393	0.460169	99
Es	-2.489433	-1.880066	-0.258023	99
Es	-1.836860	-1.805406	-0.083779	99
Es	0.403282	1.038171	-0.025476	99
Es	0.086022	-1.007961	0.757719	99
Es	-0.594443	-1.311627	-0.189129	99
Es	-1.124946	-1.749229	-0.464188	99
Es	1.561871	2.849988	1.408355	99
Es	0.082697	0.521400	-0.447071	99
Es	1.251663	2.359031	1.029483	99
Es	-2.294179	-1.640975	-0.119416	99
Es	-0.197661	-0.094422	-0.038975	99
Es	-0.367626	0.752277	-0.937110	99
36
Properties=species:S:1:pos:R:3:Z:I:1 energy=-341.3794150892761 field_type=dipole dipole="0.000000 0.000000 0.000000" charge=0
O	-2.294478	-1.640951	-0.119330	8
C	-1.124958	-1.749261	-0.464200	6
C	-0.086618	-0.871341	0.095380	6
O	0.968342	-0.546171	-0.821500	8
C	0.082472	0.521589	-0.447100	6
C	0.719352	1.519919	0.356010	6
C	1.251552	2.358849	1.029360	6
H	-0.794238	-2.508981	-1.191750	1
H	0.176022	-1.055681	1.129190	1
H	-0.625008	0.868919	-1.191620	1
H	1.727562	3.103109	1.625560	1
Es	0.656705	2.083903	0.750543	99
Es	-0.368001	0.752167	-0.937194	99
Es	0.601287	-0.785756	-0.474867	99
Es	-1.900600	-1.545927	-0.411748	99
Es	-2.489485	-1.879540	-0.259864	99
Es	-0.594177	-1.312134	-0.188670	99
Es	-1.836324	-1.805141	-0.083311	99
Es	1.251669	2.359032	1.029478	99
Es	0.968228	-0.546149	-0.821441	99
Es	0.719218	1.519698	0.355877	99
Es	1.225656	-0.528557	-0.671415	99
Es	0.690158	-0.055289	-0.727459	99
Es	-2.294192	-1.640983	-0.119420	99
Es	1.072461	1.720704	0.893048	99
Es	-0.086413	-0.871246	0.095150	99
Es	0.085799	-1.007839	0.755376	99
Es	-1.124948	-1.749229	-0.464189	99
Es	0.082696	0.521401	-0.447071	99
Es	1.210334	1.995445	0.424071	99
Es	1.562047	2.849455	1.409269	99
Es	-2.307303	-1.390524	0.090288	99
Es	-0.889945	-2.261090	-0.954725	99
Es	-0.196983	-0.093458	-0.037555	99
Es	0.403985	1.037035	-0.023830	99
Es	0.881745	-0.635399	-1.096829	99
36
Properties=species:S:1:pos:R:3:Z:I:1 energy=-341.3794150892761 field_type=dipole dipole="0.000000 0.000000 0.000000" charge=0
O	-2.294478	-1.640951	-0.119330	8
C	-1.124958	-1.749261	-0.464200	6
C	-0.086618	-0.871341	0.095380	6
O	0.968342	-0.546171	-0.821500	8
C	0.082472	0.521589	-0.447100	6
C	0.719352	1.519919	0.356010	6
C	1.251552	2.358849	1.029360	6
H	-0.794238	-2.508981	-1.191750	1
H	0.176022	-1.055681	1.129190	1
H	-0.625008	0.868919	-1.191620	1
H	1.727562	3.103109	1.625560	1
Es	1.251664	2.359029	1.029485	99
Es	1.562234	2.849463	1.409081	99
Es	0.968099	-0.546074	-0.821323	99
Es	-0.890000	-2.261132	-0.954663	99
Es	-0.086412	-0.871245	0.095149	99
Es	-1.124946	-1.749229	-0.464188	99
Es	-2.294211	-1.640985	-0.119400	99
Es	0.082701	0.521399	-0.447072	99
Es	0.689337	-0.055451	-0.727187	99
Es	0.882457	-0.635378	-1.097407	99
Es	0.601420	-0.785983	-0.475353	99
Es	0.719228	1.519701	0.355865	99
Es	1.075534	1.719910	0.891355	99
Es	1.207540	1.998210	0.423162	99
Es	-0.196858	-0.093404	-0.036967	99
Es	-0.367807	0.752026	-0.936957	99
Es	-1.900780	-1.547245	-0.411538	99
Es	0.656242	2.081941	0.753369	99
Es	1.225698	-0.528298	-0.670586	99
Es	0.085615	-1.007775	0.754402	99
Es	0.403939	1.037112	-0.023868	99
Es	-2.305824	-1.389521	0.089667	99
Es	-1.837398	-1.803848	-0.083990	99
Es	-2.489650	-1.880519	-0.258874	99
Es	-0.594205	-1.312125	-0.188651	99
36
Properties=species:S:1:pos:R:3:Z:I:1 energy=-341.3794150892761 field_type=dipole dipole="0.000000 0.000000 0.000000" charge=0
O	-2.294478	-1.640951	-0.119330	8
C	-1.124958	-1.749261	-0.464200	6
C	-0.086618	-0.871341	0.095380	6
O	0.968342	-0.546171	-0.821500	8
C	0.082472	0.521589	-0.447100	6
C	0.719352	1.519919	0.356010	6
C	1.251552	2.358849	1.029360	6
H	-0.794238	-2.508981	-1.191750	1
H	0.176022	-1.055681	1.129190	1
H	-0.625008	0.868919	-1.191620	1
H	1.727562	3.103109	1.625560	1
Es	0.082698	0.521398	-0.447071	99
Es	1.251666	2.359028	1.029484	99
Es	0.084845	-1.007282	0.750826	99
Es	0.968113	-0.546106	-0.821368	99
Es	0.879786	-0.636777	-1.099137	99
Es	0.657161	2.016462	0.835433	99
Es	-2.294216	-1.640981	-0.119404	99
Es	-0.199281	-0.092983	-0.034829	99
Es	0.403830	1.037815	-0.025085	99
Es	0.719217	1.519714	0.355859	99
Es	-1.837372	-1.804346	-0.085269	99
Es	1.177607	1.702888	0.821322	99
Es	0.603820	-0.783591	-0.473867	99
Es	1.562816	2.849366	1.408670	99
Es	-0.086411	-0.871246	0.095149	99
Es	-2.489112	-1.880455	-0.259382	99
Es	0.687927	-0.057996	-0.727712	99
Es	1.103778	2.080258	0.412843	99
Es	-1.901162	-1.545712	-0.411503	99
Es	1.228857	-0.527365	-0.670514	99
Es	-0.594701	-1.311979	-0.188301	99
Es	-0.890025	-2.260738	-0.955229	99
Es	-1.124945	-1.749229	-0.464189	99
Es	-2.305994	-1.390928	0.091950	99
Es	-0.365284	0.751363	-0.935165	99
36
Properties=species:S:1:pos:R:3:Z:I:1 energy=-341.3794150892761 field_type=dipole dipole="0.000000 0.000000 0.000000" charge=0
O	-2.294478	-1.640951	-0.119330	8
C	-1.124958	-1.749261	-0.464200	6
C	-0.086618	-0.871341	0.095380	6
O	0.968342	-0.546171	-0.821500	8
C	0.082472	0.521589	-0.447100	6
C	0.719352	1.519919	0.356010	6
C	1.251552	2.358849	1.029360	6
H	-0.794238	-2.508981	-1.191750	1
H	0.176022	-1.055681	1.129190	1
H	-0.625008	0.868919	-1.191620	1
H	1.727562	3.103109	1.625560	1
Es	-0.086429	-0.871247	0.095163	99
Es	1.224805	-0.528920	-0.670982	99
Es	-1.124947	-1.749227	-0.464191	99
Es	0.403747	1.037266	-0.023863	99
Es	-1.901956	-1.547836	-0.409884	99
Es	1.562521	2.849380	1.409035	99
Es	1.081987	1.719550	0.885995	99
Es	-2.294172	-1.640974	-0.119434	99
Es	0.719225	1.519697	0.355874	99
Es	0.968161	-0.546115	-0.821394	99
Es	0.689957	-0.054825	-0.726477	99
Es	1.202254	2.003401	0.421401	99
Es	-0.594249	-1.312192	-0.188592	99
Es	0.882364	-0.635091	-1.097312	99
Es	0.655071	2.077120	0.760491	99
Es	0.082701	0.521400	-0.447073	99
Es	-0.197490	-0.093200	-0.036525	99
Es	-2.488417	-1.882030	-0.259792	99
Es	-1.836910	-1.802354	-0.084138	99
Es	0.601627	-0.786457	-0.475213	99
Es	-0.890033	-2.261287	-0.954521	99
Es	-2.306345	-1.388806	0.088864	99
Es	0.085312	-1.007572	0.753122	99
Es	-0.366836	0.751866	-0.936522	99
Es	1.251666	2.359032	1.029480	99
36
Properties=species:S:1:pos:R:3:Z:I:1 energy=-341.3794150892761 field_type=dipole dipole="0.000000 0.000000 0.000000" charge=0
O	-2.294478	-1.640951	-0.119330	8
C	-1.124958	-1.749261	-0.464200	6
C	-0.086618	-0.871341	0.095380	6
O	0.968342	-0.546171	-0.821500	8
C	0.082472	0.521589	-0.447100	6
C	0.719352	1.519919	0.356010	6
C	1.251552	2.358849	1.029360	6
H	-0.794238	-2.508981	-1.191750	1
H	0.176022	-1.055681	1.129190	1
H	-0.625008	0.868919	-1.191620	1
H	1.727562	3.103109	1.625560	1
Es	-0.086412	-0.871246	0.095150	99
Es	-1.124944	-1.749232	-0.464185	99
Es	1.251665	2.359029	1.029485	99
Es	-1.901161	-1.548565	-0.409902	99
Es	0.968039	-0.546084	-0.821328	99
Es	-0.197502	-0.093506	-0.036947	99
Es	0.690475	-0.054459	-0.726177	99
Es	0.403522	1.037365	-0.023671	99
Es	-0.594278	-1.312090	-0.188824	99
Es	0.085579	-1.007787	0.753707	99
Es	-0.366567	0.751721	-0.936321	99
Es	-2.489014	-1.882227	-0.259060	99
Es	0.719223	1.519700	0.355873	99
Es	0.660475	2.094383	0.734869	99
Es	0.600562	-0.787288	-0.475737	99
Es	-0.890130	-2.261229	-0.954611	99
Es	0.883050	-0.634008	-1.097077	99
Es	0.082701	0.521399	-0.447074	99
Es	1.224352	1.979081	0.432031	99
Es	-2.304376	-1.388712	0.089631	99
Es	1.562383	2.849480	1.409044	99
Es	1.224141	-0.528965	-0.671205	99
Es	1.054951	1.726510	0.900657	99
Es	-1.838929	-1.801715	-0.085410	99
Es	-2.294189	-1.640978	-0.119404	99
36
Properties=species:S:1:pos:R:3:Z:I:1 energy=-341.3794150892761 field_type=dipole dipole="0.000000 0.000000 0.000000" charge=0
O	-2.294478	-1.640951	-0.119330	8
C	-1.124958	-1.749261	-0.464200	6
C	-0.086618	-0.871341	0.095380	6
O	0.968342	-0.546171	-0.821500	8
C	0.082472	0.521589	-0.447100	6
C	0.719352	1.519919	0.356010	6
C	1.251552	2.358849	1.029360	6
H	-0.794238	-2.508981	-1.191750	1
H	0.176022	-1.055681	1.129190	1
H	-0.625008	0.868919	-1.191620	1
H	1.727562	3.103109	1.625560	1
Es	0.703644	1.924381	0.917922	99
Es	0.882493	-0.635039	-1.099091	99
Es	0.085737	-1.007907	0.754818	99
Es	-1.840836	-1.801398	-0.086431	99
Es	1.562274	2.849996	1.408199	99
Es	-0.365945	0.751762	-0.936080	99
Es	-0.594522	-1.311776	-0.189048	99
Es	0.719218	1.519710	0.355860	99
Es	0.690624	-0.055404	-0.726586	99
Es	-0.890203	-2.260602	-0.955320	99
Es	1.277855	1.738502	0.685603	99
Es	0.600444	-0.785333	-0.474474	99
Es	0.082701	0.521399	-0.447074	99
Es	-2.304145	-1.391422	0.091748	99
Es	-2.488992	-1.882683	-0.258728	99
Es	-0.198268	-0.094201	-0.037696	99
Es	0.968063	-0.546070	-0.821304	99
Es	0.959285	2.135210	0.466609	99
Es	-0.086415	-0.871247	0.095150	99
Es	-1.124945	-1.749229	-0.464188	99
Es	1.251664	2.359024	1.029488	99
Es	-2.294211	-1.640973	-0.119410	99
Es	-1.899403	-1.546395	-0.410592	99
Es	1.224665	-0.528259	-0.670577	99
Es	0.402833	1.038534	-0.025288	99
36
Properties=species:S:1:pos:R:3:Z:I:1 energy=-341.3794150892761 field_type=dipole dipole="0.000000 0.000000 0.000000" charge=0
O	-2.294478	-1.640951	-0.119330	8
C	-1.124958	-1.749261	-0.464200	6
C	-0.086618	-0.871341	0.095380	6
O	0.968342	-0.546171	-0.821500	8
C	0.082472	0.521589	-0.447100	6
C	0.719352	1.519919	0.356010	6
C	1.251552	2.358849	1.029360	6
H	-0.794238	-2.508981	-1.191750	1
H	0.176022	-1.055681	1.129190	1
H	-0.625008	0.868919	-1.191620	1
H	1.727562	3.103109	1.625560	1
Es	0.719219	1.519699	0.355872	99
Es	0.600489	-0.785321	-0.474491	99
Es	0.402747	1.038622	-0.025372	99
Es	1.251664	2.359032	1.029481	99
Es	0.690187	-0.055806	-0.726810	99
Es	-1.124946	-1.749229	-0.464188	99
Es	-1.842722	-1.801185	-0.088149	99
Es	1.562368	2.849981	1.408131	99
Es	1.274610	1.735054	0.692836	99
Es	-0.086417	-0.871247	0.095151	99
Es	-0.890260	-2.260574	-0.955413	99
Es	-2.301252	-1.390255	0.092467	99
Es	-2.294193	-1.640980	-0.119418	99
Es	-1.899298	-1.548260	-0.410292	99
Es	-0.365404	0.751613	-0.935733	99
Es	-0.198662	-0.094137	-0.037346	99
Es	1.225570	-0.528085	-0.670554	99
Es	0.085624	-1.007825	0.754130	99
Es	0.965575	2.134166	0.462923	99
Es	-0.594603	-1.311793	-0.188968	99
Es	-2.490053	-1.882242	-0.257947	99
Es	0.882027	-0.634819	-1.098870	99
Es	0.082701	0.521398	-0.447074	99
Es	0.700538	1.928862	0.914492	99
Es	0.968104	-0.546090	-0.821346	99
36
Properties=species:S:1:pos:R:3:Z:I:1 energy=-341.3794150892761 field_type=dipole dipole="0.000000 0.000000 0.000000" charge=0
O	-2.294478	-1.640951	-0.119330	8
C	-1.124958	-1.749261	-0.464200	6
C	-0.086618	-0.871341	0.095380	6
O	0.968342	-0.546171	-0.821500	8
C	0.082472	0.521589	-0.447100	6
C	0.719352	1.519919	0.356010	6
C	1.251552	2.358849	1.029360	6
H	-0.794238	-2.508981	-1.191750	1
H	0.176022	-1.055681	1.129190	1
H	-0.625008	0.868919	-1.191620	1
H	1.727562	3.103109	1.625560	1
Es	1.188836	1.702679	0.811279	99
Es	0.603455	-0.783459	-0.473391	99
Es	-0.200309	-0.093039	-0.033296	99
Es	0.719220	1.519707	0.355861	99
Es	0.082704	0.521395	-0.447080	99
Es	-0.363491	0.750909	-0.934068	99
Es	-2.294233	-1.640975	-0.119391	99
Es	-0.086422	-0.871244	0.095153	99
Es	0.084477	-1.007041	0.747904	99
Es	0.968053	-0.546106	-0.821367	99
Es	0.403455	1.038046	-0.024997	99
Es	1.563184	2.849391	1.408385	99
Es	0.659349	2.009919	0.842159	99
Es	0.689520	-0.057223	-0.726467	99
Es	1.251668	2.359029	1.029482	99
Es	-2.489521	-1.881404	-0.260074	99
Es	1.090474	2.086849	0.416397	99
Es	0.878579	-0.635947	-1.099618	99
Es	-2.302859	-1.389810	0.092092	99
Es	-0.890209	-2.260656	-0.955372	99
Es	-1.899496	-1.548243	-0.409046	99
Es	1.228463	-0.528741	-0.671509	99
Es	-0.594792	-1.312013	-0.188262	99
Es	-1.841545	-1.802220	-0.087071	99
Es	-1.124946	-1.749227	-0.464191	99
