39
Properties=species:S:1:pos:R:3:Z:I:1 energy=-342.6329341404806 field_type=dipole dipole="0.000000 0.000000 0.000000" charge=0
O	-1.838951	-1.600689	-1.362213	8
C	-0.883521	-1.689519	-0.592723	6
C	0.274839	-0.701119	-0.517213	6
O	0.737289	-0.626589	0.845247	8
C	0.602529	0.730231	1.308627	6
C	0.065369	1.495981	0.161847	6
C	-0.121611	0.683931	-0.875373	6
H	-0.770821	-2.581129	0.047797	1
H	1.094929	-1.073909	-1.137643	1
H	1.585989	1.095091	1.618207	1
H	-0.079021	0.744371	2.163457	1
H	-0.149201	2.554071	0.179617	1
H	-0.517821	0.969281	-1.839633	1
Es	0.065395	1.496037	0.161955	99
Es	-0.331744	1.037964	-0.265709	99
Es	0.737050	-0.626311	0.845064	99
Es	-0.883521	-1.689486	-0.592740	99
Es	-1.828265	-1.338957	-1.534847	99
Es	0.064234	-0.023899	-0.730365	99
Es	-0.312545	-1.186514	-0.550898	99
Es	-1.620684	-1.507464	-0.901652	99
Es	-1.359213	-1.752154	-1.258896	99
Es	1.034129	-0.687302	0.837169	99
Es	0.540801	-0.796407	1.005901	99
Es	-0.380239	0.863050	-1.525114	99
Es	0.135942	0.747808	1.886899	99
Es	0.602534	0.730033	1.308516	99
Es	0.552677	-0.631207	0.324223	99
Es	0.672854	-0.108778	0.993123	99
Es	-1.838779	-1.600693	-1.362074	99
Es	1.268793	0.985428	1.516232	99
Es	-0.121612	0.683819	-0.875437	99
Es	0.811572	-0.962697	-0.943677	99
Es	-2.033334	-1.841479	-1.340228	99
Es	-0.073926	2.208563	0.188577	99
Es	0.274850	-0.701136	-0.517000	99
Es	0.272190	1.161410	-0.471303	99
Es	0.332957	1.146979	0.749873	99
Es	-0.796259	-2.288121	-0.147115	99
39
Properties=species:S:1:pos:R:3:Z:I:1 energy=-342.6329341404806 field_type=dipole dipole="0.000000 0.000000 0.000000" charge=0
O	-1.838951	-1.600689	-1.362213	8
C	-0.883521	-1.689519	-0.592723	6
C	0.274839	-0.701119	-0.517213	6
O	0.737289	-0.626589	0.845247	8
C	0.602529	0.730231	1.308627	6
C	0.065369	1.495981	0.161847	6
C	-0.121611	0.683931	-0.875373	6
H	-0.770821	-2.581129	0.047797	1
H	1.094929	-1.073909	-1.137643	1
H	1.585989	1.095091	1.618207	1
H	-0.079021	0.744371	2.163457	1
H	-0.149201	2.554071	0.179617	1
H	-0.517821	0.969281	-1.839633	1
Es	-0.121610	0.683814	-0.875443	99
Es	0.674380	-0.107403	0.998760	99
Es	-1.360622	-1.748758	-1.259401	99
Es	-0.073131	2.207723	0.188253	99
Es	1.032700	-0.703632	0.849129	99
Es	-2.032983	-1.843764	-1.350530	99
Es	0.136843	0.747415	1.885172	99
Es	0.065401	1.496040	0.161951	99
Es	0.602534	0.730031	1.308517	99
Es	0.810775	-0.962622	-0.943817	99
Es	0.064120	-0.022941	-0.730064	99
Es	0.546675	-0.775648	0.991818	99
Es	-0.382554	0.862522	-1.526066	99
Es	-0.331330	1.036772	-0.265193	99
Es	-0.796879	-2.286963	-0.146462	99
Es	-1.821879	-1.345730	-1.533030	99
Es	-1.838712	-1.600702	-1.362032	99
Es	0.333713	1.147593	0.750489	99
Es	0.274850	-0.701137	-0.516999	99
Es	-1.624380	-1.503537	-0.895234	99
Es	-0.883525	-1.689481	-0.592731	99
Es	0.736935	-0.626324	0.845077	99
Es	-0.313432	-1.185462	-0.549702	99
Es	0.547012	-0.636742	0.321357	99
Es	1.269327	0.985708	1.517902	99
Es	0.271629	1.161714	-0.471243	99
39
Properties=species:S:1:pos:R:3:Z:I:1 energy=-342.6329341404806 field_type=dipole dipole="0.000000 0.000000 0.000000" charge=0
O	-1.838951	-1.600689	-1.362213	8
C	-0.883521	-1.689519	-0.592723	6
C	0.274839	-0.701119	-0.517213	6
O	0.737289	-0.626589	0.845247	8
C	0.602529	0.730231	1.308627	6
C	0.065369	1.495981	0.161847	6
C	-0.121611	0.683931	-0.875373	6
H	-0.770821	-2.581129	0.047797	1
H	1.094929	-1.073909	-1.137643	1
H	1.585989	1.095091	1.618207	1
H	-0.079021	0.744371	2.163457	1
H	-0.149201	2.554071	0.179617	1
H	-0.517821	0.969281	-1.839633	1
Es	0.274850	-0.701135	-0.516998	99
Es	-0.313854	-1.185084	-0.549069	99
Es	0.810251	-0.962270	-0.943842	99
Es	-1.626412	-1.500738	-0.892395	99
Es	-1.810630	-1.351349	-1.526799	99
Es	-0.072778	2.207000	0.187957	99
Es	0.544948	-0.640547	0.320080	99
Es	-1.362497	-1.749033	-1.258701	99
Es	1.269505	0.985673	1.519548	99
Es	0.137599	0.747096	1.883550	99
Es	0.602532	0.730029	1.308519	99
Es	0.334220	1.148259	0.750907	99
Es	0.271149	1.161959	-0.471158	99
Es	-2.039034	-1.841822	-1.361911	99
Es	0.737235	-0.626299	0.845003	99
Es	-0.383730	0.862028	-1.526682	99
Es	0.551955	-0.759347	0.977904	99
Es	-0.121618	0.683810	-0.875442	99
Es	1.030369	-0.716179	0.859911	99
Es	-0.331078	1.036129	-0.264979	99
Es	-0.797426	-2.286123	-0.146010	99
Es	-0.883531	-1.689476	-0.592724	99
Es	0.065394	1.496039	0.161958	99
Es	-1.838695	-1.600726	-1.362011	99
Es	0.673334	-0.107233	1.003566	99
Es	0.063800	-0.022175	-0.729708	99
39
Properties=species:S:1:pos:R:3:Z:I:1 energy=-342.6329341404806 field_type=dipole dipole="0.000000 0.000000 0.000000" charge=0
O	-1.838951	-1.600689	-1.362213	8
C	-0.883521	-1.689519	-0.592723	6
C	0.274839	-0.701119	-0.517213	6
O	0.737289	-0.626589	0.845247	8
C	0.602529	0.730231	1.308627	6
C	0.065369	1.495981	0.161847	6
C	-0.121611	0.683931	-0.875373	6
H	-0.770821	-2.581129	0.047797	1
H	1.094929	-1.073909	-1.137643	1
H	1.585989	1.095091	1.618207	1
H	-0.079021	0.744371	2.163457	1
H	-0.149201	2.554071	0.179617	1
H	-0.517821	0.969281	-1.839633	1
Es	0.544685	-0.642807	0.319063	99
Es	0.602533	0.730029	1.308517	99
Es	0.809866	-0.962388	-0.943861	99
Es	0.737172	-0.626281	0.845016	99
Es	-0.072661	2.206312	0.187765	99
Es	0.271503	1.161737	-0.471059	99
Es	-0.797982	-2.285443	-0.145678	99
Es	-0.314315	-1.184463	-0.548388	99
Es	-0.384339	0.861299	-1.527259	99
Es	0.555405	-0.739370	0.961884	99
Es	0.274853	-0.701137	-0.516997	99
Es	-2.039552	-1.843396	-1.367522	99
Es	-1.838678	-1.600750	-1.361972	99
Es	0.065401	1.496045	0.161955	99
Es	-0.330963	1.036251	-0.265138	99
Es	-1.807685	-1.354006	-1.523346	99
Es	-1.625947	-1.500395	-0.890757	99
Es	0.334044	1.148564	0.751509	99
Es	-1.364239	-1.746095	-1.259441	99
Es	0.138044	0.746863	1.882476	99
Es	0.063548	-0.021339	-0.729405	99
Es	1.025138	-0.734148	0.874510	99
Es	1.269647	0.985751	1.520590	99
Es	-0.121606	0.683814	-0.875444	99
Es	0.675517	-0.106683	1.006183	99
Es	-0.883530	-1.689475	-0.592725	99
39
Properties=species:S:1:pos:R:3:Z:I:1 energy=-342.6329341404806 field_type=dipole dipole="0.000000 0.000000 0.000000" charge=0
O	-1.838951	-1.600689	-1.362213	8
C	-0.883521	-1.689519	-0.592723	6
C	0.274839	-0.701119	-0.517213	6
O	0.737289	-0.626589	0.845247	8
C	0.602529	0.730231	1.308627	6
C	0.065369	1.495981	0.161847	6
C	-0.121611	0.683931	-0.875373	6
H	-0.770821	-2.581129	0.047797	1
H	1.094929	-1.073909	-1.137643	1
H	1.585989	1.095091	1.618207	1
H	-0.079021	0.744371	2.163457	1
H	-0.149201	2.554071	0.179617	1
H	-0.517821	0.969281	-1.839633	1
Es	0.274855	-0.701137	-0.516997	99
Es	0.561494	-0.726294	0.950149	99
Es	0.809592	-0.962277	-0.943762	99
Es	-0.121613	0.683812	-0.875444	99
Es	-1.838673	-1.600741	-1.361974	99
Es	1.269568	0.985615	1.521176	99
Es	-1.795933	-1.358935	-1.513501	99
Es	0.065400	1.496043	0.161954	99
Es	-2.047047	-1.838928	-1.381045	99
Es	-0.384527	0.861096	-1.527746	99
Es	-0.072400	2.205856	0.187266	99
Es	1.020105	-0.744978	0.883307	99
Es	-0.330925	1.035949	-0.264991	99
Es	-1.365371	-1.746683	-1.257591	99
Es	-0.314529	-1.184258	-0.548168	99
Es	0.543508	-0.644781	0.319001	99
Es	0.271106	1.161554	-0.470768	99
Es	-0.798297	-2.285091	-0.145371	99
Es	0.138492	0.746755	1.881919	99
Es	0.602531	0.730026	1.308517	99
Es	0.737212	-0.626267	0.844992	99
Es	0.675604	-0.106913	1.009397	99
Es	-0.883532	-1.689474	-0.592723	99
Es	0.334070	1.149041	0.752004	99
Es	-1.628281	-1.499886	-0.889706	99
Es	0.063450	-0.020617	-0.729419	99
39
Properties=species:S:1:pos:R:3:Z:I:1 energy=-342.6329341404806 field_type=dipole dipole="0.000000 0.000000 0.000000" charge=0
O	-1.838951	-1.600689	-1.362213	8
C	-0.883521	-1.689519	-0.592723	6
C	0.274839	-0.701119	-0.517213	6
O	0.737289	-0.626589	0.845247	8
C	0.602529	0.730231	1.308627	6
C	0.065369	1.495981	0.161847	6
C	-0.121611	0.683931	-0.875373	6
H	-0.770821	-2.581129	0.047797	1
H	1.094929	-1.073909	-1.137643	1
H	1.585989	1.095091	1.618207	1
H	-0.079021	0.744371	2.163457	1
H	-0.149201	2.554071	0.179617	1
H	-0.517821	0.969281	-1.839633	1
Es	0.270858	1.161485	-0.470656	99
Es	-0.330710	1.035980	-0.265085	99
Es	-0.121613	0.683812	-0.875445	99
Es	-2.055230	-1.830671	-1.397593	99
Es	0.542923	-0.645663	0.318991	99
Es	0.138902	0.746618	1.881154	99
Es	0.736925	-0.626320	0.845069	99
Es	0.602536	0.730029	1.308516	99
Es	-0.072421	2.205580	0.187145	99
Es	0.565497	-0.719239	0.943706	99
Es	0.063471	-0.020185	-0.729458	99
Es	-0.384539	0.860950	-1.528067	99
Es	1.017173	-0.750677	0.888258	99
Es	-1.838627	-1.600916	-1.361846	99
Es	-0.798501	-2.284822	-0.145082	99
Es	-0.883533	-1.689473	-0.592722	99
Es	-1.782078	-1.364505	-1.501914	99
Es	0.065401	1.496043	0.161954	99
Es	0.333876	1.149322	0.752234	99
Es	1.269474	0.985502	1.521959	99
Es	0.274854	-0.701138	-0.516994	99
Es	-1.369258	-1.748338	-1.255090	99
Es	-1.629368	-1.501165	-0.888033	99
Es	0.675420	-0.107302	1.010970	99
Es	0.809274	-0.962287	-0.943517	99
Es	-0.314846	-1.184134	-0.547977	99
39
Properties=species:S:1:pos:R:3:Z:I:1 energy=-342.6329341404806 field_type=dipole dipole="0.000000 0.000000 0.000000" charge=0
O	-1.838951	-1.600689	-1.362213	8
C	-0.883521	-1.689519	-0.592723	6
C	0.274839	-0.701119	-0.517213	6
O	0.737289	-0.626589	0.845247	8
C	0.602529	0.730231	1.308627	6
C	0.065369	1.495981	0.161847	6
C	-0.121611	0.683931	-0.875373	6
H	-0.770821	-2.581129	0.047797	1
H	1.094929	-1.073909	-1.137643	1
H	1.585989	1.095091	1.618207	1
H	-0.079021	0.744371	2.163457	1
H	-0.149201	2.554071	0.179617	1
H	-0.517821	0.969281	-1.839633	1
Es	1.007667	-0.766974	0.903268	99
Es	0.138766	0.746631	1.881044	99
Es	-1.369567	-1.747556	-1.254723	99
Es	-2.059620	-1.825976	-1.408470	99
Es	0.545293	-0.646537	0.317858	99
Es	0.333937	1.149473	0.752529	99
Es	-1.838687	-1.600808	-1.361939	99
Es	0.271277	1.161384	-0.470675	99
Es	0.677724	-0.106695	1.010867	99
Es	0.809232	-0.961993	-0.943513	99
Es	-1.630108	-1.502273	-0.887586	99
Es	0.274850	-0.701137	-0.516997	99
Es	-0.798867	-2.284520	-0.144855	99
Es	-0.384397	0.860610	-1.528359	99
Es	0.737327	-0.626221	0.844931	99
Es	1.269451	0.985530	1.522118	99
Es	-0.121622	0.683812	-0.875442	99
Es	-0.331032	1.035973	-0.264996	99
Es	0.063499	-0.019867	-0.729278	99
Es	-1.776020	-1.369401	-1.492234	99
Es	0.569965	-0.702670	0.930089	99
Es	-0.883534	-1.689472	-0.592721	99
Es	0.065399	1.496041	0.161955	99
Es	-0.072309	2.205180	0.187024	99
Es	-0.315301	-1.184080	-0.547937	99
Es	0.602537	0.730033	1.308516	99
39
Properties=species:S:1:pos:R:3:Z:I:1 energy=-342.6329341404806 field_type=dipole dipole="0.000000 0.000000 0.000000" charge=0
O	-1.838951	-1.600689	-1.362213	8
C	-0.883521	-1.689519	-0.592723	6
C	0.274839	-0.701119	-0.517213	6
O	0.737289	-0.626589	0.845247	8
C	0.602529	0.730231	1.308627	6
C	0.065369	1.495981	0.161847	6
C	-0.121611	0.683931	-0.875373	6
H	-0.770821	-2.581129	0.047797	1
H	1.094929	-1.073909	-1.137643	1
H	1.585989	1.095091	1.618207	1
H	-0.079021	0.744371	2.163457	1
H	-0.149201	2.554071	0.179617	1
H	-0.517821	0.969281	-1.839633	1
Es	0.737295	-0.626272	0.844948	99
Es	1.006480	-0.767963	0.903195	99
Es	-0.315310	-1.183938	-0.547798	99
Es	0.677479	-0.107347	1.012855	99
Es	-1.371618	-1.746941	-1.253136	99
Es	-0.072227	2.205083	0.186930	99
Es	0.602532	0.730026	1.308520	99
Es	0.063355	-0.019653	-0.729339	99
Es	-0.384506	0.860623	-1.528481	99
Es	0.138992	0.746524	1.880640	99
Es	0.809017	-0.962083	-0.943346	99
Es	0.274851	-0.701136	-0.516997	99
Es	1.269331	0.985417	1.522588	99
Es	-1.630895	-1.502148	-0.887072	99
Es	0.271027	1.161197	-0.470500	99
Es	-2.061879	-1.821978	-1.417501	99
Es	0.572554	-0.700996	0.927956	99
Es	-1.770479	-1.374377	-1.485696	99
Es	-0.121599	0.683817	-0.875447	99
Es	0.065404	1.496041	0.161956	99
Es	-1.838680	-1.600837	-1.361922	99
Es	0.333816	1.149586	0.752645	99
Es	-0.883541	-1.689466	-0.592715	99
Es	-0.798985	-2.284401	-0.144693	99
Es	-0.330763	1.036206	-0.265233	99
Es	0.544207	-0.646497	0.318119	99
39
Properties=species:S:1:pos:R:3:Z:I:1 energy=-342.6329341404806 field_type=dipole dipole="0.000000 0.000000 0.000000" charge=0
O	-1.838951	-1.600689	-1.362213	8
C	-0.883521	-1.689519	-0.592723	6
C	0.274839	-0.701119	-0.517213	6
O	0.737289	-0.626589	0.845247	8
C	0.602529	0.730231	1.308627	6
C	0.065369	1.495981	0.161847	6
C	-0.121611	0.683931	-0.875373	6
H	-0.770821	-2.581129	0.047797	1
H	1.094929	-1.073909	-1.137643	1
H	1.585989	1.095091	1.618207	1
H	-0.079021	0.744371	2.163457	1
H	-0.149201	2.554071	0.179617	1
H	-0.517821	0.969281	-1.839633	1
Es	-0.330599	1.036084	-0.265235	99
Es	-0.384532	0.860465	-1.528711	99
Es	0.063124	-0.019339	-0.729237	99
Es	-1.838701	-1.600978	-1.361842	99
Es	-1.630898	-1.502316	-0.886508	99
Es	0.274849	-0.701136	-0.516998	99
Es	-2.061793	-1.820857	-1.421704	99
Es	-1.372716	-1.745511	-1.253037	99
Es	1.004663	-0.769463	0.904616	99
Es	0.139154	0.746474	1.879982	99
Es	0.676723	-0.107646	1.014226	99
Es	0.737159	-0.626280	0.845007	99
Es	0.270856	1.161148	-0.470398	99
Es	0.065397	1.496041	0.161958	99
Es	0.575397	-0.698475	0.925109	99
Es	0.602536	0.730029	1.308516	99
Es	-0.315320	-1.183987	-0.547622	99
Es	-0.799186	-2.284256	-0.144589	99
Es	0.544094	-0.647149	0.318146	99
Es	0.333951	1.149909	0.752815	99
Es	-0.121612	0.683812	-0.875445	99
Es	0.808882	-0.962033	-0.943276	99
Es	-0.883533	-1.689473	-0.592722	99
Es	1.269289	0.985346	1.523261	99
Es	-0.072270	2.204845	0.186724	99
Es	-1.769056	-1.376769	-1.482560	99
39
Properties=species:S:1:pos:R:3:Z:I:1 energy=-342.6329341404806 field_type=dipole dipole="0.000000 0.000000 0.000000" charge=0
O	-1.838951	-1.600689	-1.362213	8
C	-0.883521	-1.689519	-0.592723	6
C	0.274839	-0.701119	-0.517213	6
O	0.737289	-0.626589	0.845247	8
C	0.602529	0.730231	1.308627	6
C	0.065369	1.495981	0.161847	6
C	-0.121611	0.683931	-0.875373	6
H	-0.770821	-2.581129	0.047797	1
H	1.094929	-1.073909	-1.137643	1
H	1.585989	1.095091	1.618207	1
H	-0.079021	0.744371	2.163457	1
H	-0.149201	2.554071	0.179617	1
H	-0.517821	0.969281	-1.839633	1
Es	-0.883534	-1.689472	-0.592721	99
Es	0.737233	-0.626260	0.844984	99
Es	-1.373594	-1.746725	-1.251837	99
Es	-2.065605	-1.812662	-1.432567	99
Es	-0.330821	1.036224	-0.265274	99
Es	0.602536	0.730033	1.308517	99
Es	0.271078	1.161015	-0.470362	99
Es	0.333825	1.149881	0.752846	99
Es	0.545572	-0.647183	0.317471	99
Es	0.998401	-0.776817	0.910966	99
Es	0.808796	-0.962052	-0.943156	99
Es	-0.799221	-2.284187	-0.144437	99
Es	1.269236	0.985367	1.523078	99
Es	0.577484	-0.691590	0.919560	99
Es	0.063332	-0.019239	-0.729270	99
Es	-0.384418	0.860386	-1.528763	99
Es	0.679348	-0.107209	1.014180	99
Es	0.274850	-0.701135	-0.516996	99
Es	-1.838572	-1.600940	-1.361778	99
Es	0.139112	0.746512	1.880168	99
Es	-0.072041	2.204829	0.186678	99
Es	-1.632010	-1.503386	-0.886167	99
Es	-0.315750	-1.183794	-0.547711	99
Es	-0.121608	0.683812	-0.875447	99
Es	-1.763169	-1.382960	-1.473445	99
Es	0.065400	1.496041	0.161956	99
39
Properties=species:S:1:pos:R:3:Z:I:1 energy=-342.6329341404806 field_type=dipole dipole="0.000000 0.000000 0.000000" charge=0
O	-1.838951	-1.600689	-1.362213	8
C	-0.883521	-1.689519	-0.592723	6
C	0.274839	-0.701119	-0.517213	6
O	0.737289	-0.626589	0.845247	8
C	0.602529	0.730231	1.308627	6
C	0.065369	1.495981	0.161847	6
C	-0.121611	0.683931	-0.875373	6
H	-0.770821	-2.581129	0.047797	1
H	1.094929	-1.073909	-1.137643	1
H	1.585989	1.095091	1.618207	1
H	-0.079021	0.744371	2.163457	1
H	-0.149201	2.554071	0.179617	1
H	-0.517821	0.969281	-1.839633	1
Es	-0.315577	-1.183962	-0.547686	99
Es	0.808596	-0.962006	-0.942902	99
Es	0.602536	0.730035	1.308517	99
Es	0.065398	1.496039	0.161957	99
Es	0.737578	-0.625872	0.844539	99
Es	-0.121610	0.683811	-0.875448	99
Es	0.139189	0.746461	1.879943	99
Es	0.576925	-0.693665	0.921702	99
Es	-0.384349	0.860521	-1.528817	99
Es	0.999074	-0.774801	0.909368	99
Es	-0.330488	1.036222	-0.265333	99
Es	0.063142	-0.019101	-0.729472	99
Es	0.544882	-0.647766	0.317846	99
Es	-0.799294	-2.284154	-0.144250	99
Es	-1.758531	-1.388658	-1.467018	99
Es	1.269074	0.985246	1.523392	99
Es	-1.375981	-1.746682	-1.250539	99
Es	0.274850	-0.701136	-0.516996	99
Es	0.333859	1.150012	0.752809	99
Es	-2.067227	-1.807128	-1.441017	99
Es	-1.838630	-1.600960	-1.361800	99
Es	0.679633	-0.107040	1.013737	99
Es	0.270707	1.160887	-0.470193	99
Es	-0.072145	2.204996	0.186556	99
Es	-1.632215	-1.503347	-0.885704	99
Es	-0.883541	-1.689466	-0.592714	99
39
Properties=species:S:1:pos:R:3:Z:I:1 energy=-342.6329341404806 field_type=dipole dipole="0.000000 0.000000 0.000000" charge=0
O	-1.838951	-1.600689	-1.362213	8
C	-0.883521	-1.689519	-0.592723	6
C	0.274839	-0.701119	-0.517213	6
O	0.737289	-0.626589	0.845247	8
C	0.602529	0.730231	1.308627	6
C	0.065369	1.495981	0.161847	6
C	-0.121611	0.683931	-0.875373	6
H	-0.770821	-2.581129	0.047797	1
H	1.094929	-1.073909	-1.137643	1
H	1.585989	1.095091	1.618207	1
H	-0.079021	0.744371	2.163457	1
H	-0.149201	2.554071	0.179617	1
H	-0.517821	0.969281	-1.839633	1
Es	0.333852	1.150112	0.753022	99
Es	0.545245	-0.647920	0.317622	99
Es	0.581374	-0.686861	0.915095	99
Es	-1.759260	-1.388784	-1.467198	99
Es	-0.121609	0.683814	-0.875449	99
Es	-2.066813	-1.808640	-1.440414	99
Es	1.269175	0.985236	1.523294	99
Es	0.139254	0.746456	1.880015	99
Es	-0.315894	-1.183814	-0.547538	99
Es	-1.838688	-1.600839	-1.361920	99
Es	-1.631320	-1.503074	-0.885855	99
Es	-0.384413	0.860191	-1.528946	99
Es	0.065399	1.496040	0.161957	99
Es	-0.330803	1.036111	-0.265197	99
Es	0.737253	-0.626231	0.844951	99
Es	-0.883538	-1.689469	-0.592717	99
Es	0.274850	-0.701136	-0.516999	99
Es	0.602535	0.730031	1.308517	99
Es	0.808619	-0.961941	-0.942956	99
Es	0.063319	-0.018835	-0.729338	99
Es	-1.376271	-1.745654	-1.250863	99
Es	0.271022	1.160950	-0.470292	99
Es	-0.799536	-2.283979	-0.144317	99
Es	0.995372	-0.780646	0.914732	99
Es	0.678733	-0.107343	1.014702	99
Es	-0.071998	2.204712	0.186567	99
39
Properties=species:S:1:pos:R:3:Z:I:1 energy=-342.6329341404806 field_type=dipole dipole="0.000000 0.000000 0.000000" charge=0
O	-1.838951	-1.600689	-1.362213	8
C	-0.883521	-1.689519	-0.592723	6
C	0.274839	-0.701119	-0.517213	6
O	0.737289	-0.626589	0.845247	8
C	0.602529	0.730231	1.308627	6
C	0.065369	1.495981	0.161847	6
C	-0.121611	0.683931	-0.875373	6
H	-0.770821	-2.581129	0.047797	1
H	1.094929	-1.073909	-1.137643	1
H	1.585989	1.095091	1.618207	1
H	-0.079021	0.744371	2.163457	1
H	-0.149201	2.554071	0.179617	1
H	-0.517821	0.969281	-1.839633	1
Es	-0.384352	0.860127	-1.529029	99
Es	-1.756540	-1.392184	-1.464340	99
Es	-0.315938	-1.183906	-0.547526	99
Es	0.065397	1.496041	0.161958	99
Es	-1.377149	-1.746830	-1.249953	99
Es	0.808643	-0.961747	-0.942997	99
Es	-0.883537	-1.689469	-0.592718	99
Es	0.992509	-0.783340	0.916734	99
Es	-1.631806	-1.502212	-0.885876	99
Es	-0.071972	2.204610	0.186528	99
Es	0.271049	1.160907	-0.470275	99
Es	-0.121612	0.683812	-0.875445	99
Es	0.139263	0.746431	1.879950	99
Es	0.545048	-0.648062	0.317671	99
Es	-1.838685	-1.600852	-1.361908	99
Es	0.602536	0.730031	1.308517	99
Es	0.680315	-0.107179	1.014717	99
Es	0.583063	-0.684261	0.913095	99
Es	0.333766	1.150103	0.753169	99
Es	0.737111	-0.626151	0.844862	99
Es	0.063156	-0.018846	-0.729169	99
Es	1.269141	0.985293	1.523354	99
Es	-0.799616	-2.283886	-0.144283	99
Es	0.274853	-0.701136	-0.516997	99
Es	-2.068023	-1.805034	-1.444275	99
Es	-0.330762	1.036228	-0.265288	99
39
Properties=species:S:1:pos:R:3:Z:I:1 energy=-342.6329341404806 field_type=dipole dipole="0.000000 0.000000 0.000000" charge=0
O	-1.838951	-1.600689	-1.362213	8
C	-0.883521	-1.689519	-0.592723	6
C	0.274839	-0.701119	-0.517213	6
O	0.737289	-0.626589	0.845247	8
C	0.602529	0.730231	1.308627	6
C	0.065369	1.495981	0.161847	6
C	-0.121611	0.683931	-0.875373	6
H	-0.770821	-2.581129	0.047797	1
H	1.094929	-1.073909	-1.137643	1
H	1.585989	1.095091	1.618207	1
H	-0.079021	0.744371	2.163457	1
H	-0.149201	2.554071	0.179617	1
H	-0.517821	0.969281	-1.839633	1
Es	-0.799710	-2.283776	-0.144185	99
Es	-1.631589	-1.502007	-0.885940	99
Es	0.274851	-0.701136	-0.516995	99
Es	-0.883536	-1.689469	-0.592718	99
Es	-0.121613	0.683812	-0.875445	99
Es	0.545615	-0.648157	0.317404	99
Es	0.139206	0.746469	1.880042	99
Es	-1.838694	-1.600753	-1.361997	99
Es	0.808606	-0.961611	-0.942944	99
Es	-0.384392	0.860036	-1.529058	99
Es	0.736723	-0.626335	0.845131	99
Es	0.065397	1.496038	0.161958	99
Es	-1.376957	-1.746499	-1.250244	99
Es	-1.756306	-1.394430	-1.461895	99
Es	0.585663	-0.680472	0.909513	99
Es	-2.068472	-1.803582	-1.446412	99
Es	0.063101	-0.018712	-0.729197	99
Es	0.271194	1.160780	-0.470201	99
Es	-0.071902	2.204549	0.186415	99
Es	-0.316066	-1.183941	-0.547592	99
Es	0.680744	-0.107199	1.015175	99
Es	-0.330830	1.036202	-0.265238	99
Es	0.602536	0.730030	1.308517	99
Es	1.269166	0.985272	1.523272	99
Es	0.989262	-0.786777	0.919876	99
Es	0.333864	1.150157	0.753233	99
39
Properties=species:S:1:pos:R:3:Z:I:1 energy=-342.6329341404806 field_type=dipole dipole="0.000000 0.000000 0.000000" charge=0
O	-1.838951	-1.600689	-1.362213	8
C	-0.883521	-1.689519	-0.592723	6
C	0.274839	-0.701119	-0.517213	6
O	0.737289	-0.626589	0.845247	8
C	0.602529	0.730231	1.308627	6
C	0.065369	1.495981	0.161847	6
C	-0.121611	0.683931	-0.875373	6
H	-0.770821	-2.581129	0.047797	1
H	1.094929	-1.073909	-1.137643	1
H	1.585989	1.095091	1.618207	1
H	-0.079021	0.744371	2.163457	1
H	-0.149201	2.554071	0.179617	1
H	-0.517821	0.969281	-1.839633	1
Es	0.682528	-0.106736	1.014402	99
Es	0.274850	-0.701136	-0.516996	99
Es	-2.068989	-1.797313	-1.455513	99
Es	-0.315999	-1.183801	-0.547397	99
Es	0.333664	1.150201	0.753075	99
Es	-0.883537	-1.689469	-0.592718	99
Es	0.546086	-0.648313	0.317310	99
Es	0.737236	-0.626342	0.845032	99
Es	0.065401	1.496041	0.161956	99
Es	-0.330542	1.036481	-0.265508	99
Es	0.990624	-0.783949	0.917230	99
Es	-1.632774	-1.503084	-0.885479	99
Es	-0.384266	0.860259	-1.529037	99
Es	0.063114	-0.018961	-0.729235	99
Es	-1.378604	-1.746078	-1.248767	99
Es	0.139404	0.746414	1.879754	99
Es	-0.121614	0.683813	-0.875444	99
Es	0.602536	0.730030	1.308517	99
Es	-0.071880	2.204828	0.186378	99
Es	-1.838699	-1.600781	-1.361975	99
Es	0.270766	1.160645	-0.470045	99
Es	0.581608	-0.683727	0.913210	99
Es	-1.752764	-1.399989	-1.454886	99
Es	1.269014	0.985203	1.523574	99
Es	0.808458	-0.961883	-0.942839	99
Es	-0.799763	-2.283864	-0.144126	99
39
Properties=species:S:1:pos:R:3:Z:I:1 energy=-342.6329341404806 field_type=dipole dipole="0.000000 0.000000 0.000000" charge=0
O	-1.838951	-1.600689	-1.362213	8
C	-0.883521	-1.689519	-0.592723	6
C	0.274839	-0.701119	-0.517213	6
O	0.737289	-0.626589	0.845247	8
C	0.602529	0.730231	1.308627	6
C	0.065369	1.495981	0.161847	6
C	-0.121611	0.683931	-0.875373	6
H	-0.770821	-2.581129	0.047797	1
H	1.094929	-1.073909	-1.137643	1
H	1.585989	1.095091	1.618207	1
H	-0.079021	0.744371	2.163457	1
H	-0.149201	2.554071	0.179617	1
H	-0.517821	0.969281	-1.839633	1
Es	0.270904	1.160633	-0.470038	99
Es	-0.121614	0.683812	-0.875444	99
Es	0.139322	0.746428	1.879613	99
Es	0.990982	-0.783504	0.917193	99
Es	-1.753039	-1.400066	-1.454735	99
Es	0.545497	-0.648518	0.317497	99
Es	-2.068403	-1.797816	-1.455945	99
Es	-0.384416	0.860204	-1.529063	99
Es	-0.330466	1.036298	-0.265427	99
Es	-0.316146	-1.183941	-0.547577	99
Es	0.680496	-0.107313	1.015291	99
Es	0.808274	-0.961724	-0.942505	99
Es	0.333852	1.150225	0.753174	99
Es	0.736996	-0.626094	0.844806	99
Es	-1.379222	-1.745250	-1.248901	99
Es	-1.838673	-1.600898	-1.361872	99
Es	-0.799714	-2.283838	-0.143983	99
Es	0.065396	1.496040	0.161955	99
Es	-1.632284	-1.503370	-0.885311	99
Es	0.602536	0.730032	1.308517	99
Es	0.584057	-0.683571	0.912310	99
Es	1.269004	0.985186	1.523753	99
Es	-0.071883	2.204775	0.186361	99
Es	0.274851	-0.701137	-0.516995	99
Es	0.063087	-0.018636	-0.729481	99
Es	-0.883537	-1.689471	-0.592719	99
39
Properties=species:S:1:pos:R:3:Z:I:1 energy=-342.6329341404806 field_type=dipole dipole="0.000000 0.000000 0.000000" charge=0
O	-1.838951	-1.600689	-1.362213	8
C	-0.883521	-1.689519	-0.592723	6
C	0.274839	-0.701119	-0.517213	6
O	0.737289	-0.626589	0.845247	8
C	0.602529	0.730231	1.308627	6
C	0.065369	1.495981	0.161847	6
C	-0.121611	0.683931	-0.875373	6
H	-0.770821	-2.581129	0.047797	1
H	1.094929	-1.073909	-1.137643	1
H	1.585989	1.095091	1.618207	1
H	-0.079021	0.744371	2.163457	1
H	-0.149201	2.554071	0.179617	1
H	-0.517821	0.969281	-1.839633	1
Es	0.333732	1.150237	0.753190	99
Es	-0.883538	-1.689468	-0.592717	99
Es	0.065400	1.496041	0.161957	99
Es	-0.121617	0.683812	-0.875445	99
Es	0.274850	-0.701136	-0.516996	99
Es	0.737244	-0.626340	0.845018	99
Es	-1.838680	-1.600996	-1.361807	99
Es	-1.752586	-1.402999	-1.451893	99
Es	0.546226	-0.648685	0.317235	99
Es	-0.799780	-2.283751	-0.144010	99
Es	0.808309	-0.961682	-0.942629	99
Es	-0.384329	0.860222	-1.529060	99
Es	-1.379597	-1.744686	-1.248884	99
Es	1.269015	0.985231	1.523493	99
Es	-2.068494	-1.795754	-1.458999	99
Es	0.682123	-0.106912	1.014585	99
Es	0.583992	-0.680746	0.910389	99
Es	-0.071869	2.204760	0.186307	99
Es	0.602535	0.730029	1.308516	99
Es	-1.632229	-1.503038	-0.885197	99
Es	0.270825	1.160685	-0.470046	99
Es	0.988496	-0.786368	0.919956	99
Es	0.139409	0.746441	1.879815	99
Es	-0.316241	-1.183871	-0.547546	99
Es	-0.330524	1.036262	-0.265377	99
Es	0.063185	-0.018799	-0.729379	99
39
Properties=species:S:1:pos:R:3:Z:I:1 energy=-342.6329341404806 field_type=dipole dipole="0.000000 0.000000 0.000000" charge=0
O	-1.838951	-1.600689	-1.362213	8
C	-0.883521	-1.689519	-0.592723	6
C	0.274839	-0.701119	-0.517213	6
O	0.737289	-0.626589	0.845247	8
C	0.602529	0.730231	1.308627	6
C	0.065369	1.495981	0.161847	6
C	-0.121611	0.683931	-0.875373	6
H	-0.770821	-2.581129	0.047797	1
H	1.094929	-1.073909	-1.137643	1
H	1.585989	1.095091	1.618207	1
H	-0.079021	0.744371	2.163457	1
H	-0.149201	2.554071	0.179617	1
H	-0.517821	0.969281	-1.839633	1
Es	0.333774	1.150194	0.753285	99
Es	0.588871	-0.674449	0.904623	99
Es	-1.753058	-1.403340	-1.452283	99
Es	-0.384333	0.859890	-1.529148	99
Es	-0.799943	-2.283650	-0.144038	99
Es	1.269101	0.985299	1.523404	99
Es	-0.121613	0.683810	-0.875448	99
Es	0.808540	-0.961597	-0.942847	99
Es	0.271337	1.160762	-0.470236	99
Es	0.139204	0.746430	1.879942	99
Es	0.682957	-0.106994	1.015194	99
Es	-2.068909	-1.796394	-1.457856	99
Es	0.545929	-0.648506	0.317198	99
Es	0.737382	-0.626182	0.844853	99
Es	-0.071840	2.204489	0.186405	99
Es	-1.838690	-1.600850	-1.361911	99
Es	-1.631847	-1.502060	-0.885575	99
Es	-0.316308	-1.183861	-0.547494	99
Es	-0.330849	1.036219	-0.265265	99
Es	0.063101	-0.018609	-0.729157	99
Es	-1.379088	-1.744880	-1.249162	99
Es	-0.883539	-1.689468	-0.592717	99
Es	0.274850	-0.701137	-0.516994	99
Es	0.602535	0.730031	1.308517	99
Es	0.065400	1.496040	0.161957	99
Es	0.982896	-0.792699	0.925229	99
39
Properties=species:S:1:pos:R:3:Z:I:1 energy=-342.6329341404806 field_type=dipole dipole="0.000000 0.000000 0.000000" charge=0
O	-1.838951	-1.600689	-1.362213	8
C	-0.883521	-1.689519	-0.592723	6
C	0.274839	-0.701119	-0.517213	6
O	0.737289	-0.626589	0.845247	8
C	0.602529	0.730231	1.308627	6
C	0.065369	1.495981	0.161847	6
C	-0.121611	0.683931	-0.875373	6
H	-0.770821	-2.581129	0.047797	1
H	1.094929	-1.073909	-1.137643	1
H	1.585989	1.095091	1.618207	1
H	-0.079021	0.744371	2.163457	1
H	-0.149201	2.554071	0.179617	1
H	-0.517821	0.969281	-1.839633	1
Es	0.589942	-0.672902	0.903213	99
Es	-0.330999	1.036353	-0.265295	99
Es	0.271336	1.160662	-0.470196	99
Es	0.139112	0.746490	1.879930	99
Es	0.683403	-0.106912	1.015226	99
Es	0.980423	-0.794339	0.926926	99
Es	-0.071820	2.204452	0.186421	99
Es	-0.121608	0.683815	-0.875446	99
Es	-0.384239	0.859888	-1.529174	99
Es	-0.316421	-1.183988	-0.547594	99
Es	0.737775	-0.625979	0.844638	99
Es	-1.378828	-1.745080	-1.249087	99
Es	1.269110	0.985277	1.523425	99
Es	0.333933	1.150228	0.753326	99
Es	0.063319	-0.018614	-0.729256	99
Es	-2.069466	-1.793681	-1.460818	99
Es	0.546438	-0.648723	0.317045	99
Es	-1.632223	-1.502598	-0.885491	99
Es	0.602537	0.730032	1.308517	99
Es	0.065403	1.496041	0.161956	99
Es	0.808410	-0.961441	-0.942620	99
Es	-0.883538	-1.689469	-0.592717	99
Es	-1.838693	-1.600884	-1.361892	99
Es	-0.799959	-2.283569	-0.144061	99
Es	0.274847	-0.701136	-0.516997	99
Es	-1.752332	-1.405434	-1.449502	99
39
Properties=species:S:1:pos:R:3:Z:I:1 energy=-342.6329341404806 field_type=dipole dipole="0.000000 0.000000 0.000000" charge=0
O	-1.838951	-1.600689	-1.362213	8
C	-0.883521	-1.689519	-0.592723	6
C	0.274839	-0.701119	-0.517213	6
O	0.737289	-0.626589	0.845247	8
C	0.602529	0.730231	1.308627	6
C	0.065369	1.495981	0.161847	6
C	-0.121611	0.683931	-0.875373	6
H	-0.770821	-2.581129	0.047797	1
H	1.094929	-1.073909	-1.137643	1
H	1.585989	1.095091	1.618207	1
H	-0.079021	0.744371	2.163457	1
H	-0.149201	2.554071	0.179617	1
H	-0.517821	0.969281	-1.839633	1
Es	0.545890	-0.648771	0.317276	99
Es	-0.121614	0.683812	-0.875446	99
Es	1.268955	0.985141	1.523681	99
Es	0.737172	-0.626277	0.844999	99
Es	0.808223	-0.961539	-0.942454	99
Es	0.063136	-0.018627	-0.729412	99
Es	0.065397	1.496038	0.161958	99
Es	-0.799871	-2.283647	-0.143856	99
Es	-0.883536	-1.689471	-0.592720	99
Es	0.984446	-0.789972	0.922500	99
Es	-1.838686	-1.600818	-1.361930	99
Es	-0.330635	1.036378	-0.265423	99
Es	0.274850	-0.701136	-0.516996	99
Es	-2.068833	-1.791584	-1.464619	99
Es	-0.071720	2.204649	0.186301	99
Es	0.139224	0.746510	1.879719	99
Es	-1.633323	-1.501903	-0.885527	99
Es	0.683443	-0.107002	1.015481	99
Es	0.333971	1.150233	0.753154	99
Es	-0.316461	-1.184007	-0.547623	99
Es	0.587107	-0.676956	0.906916	99
Es	-1.380295	-1.745116	-1.247491	99
Es	-0.384305	0.860138	-1.529129	99
Es	-1.750203	-1.408218	-1.447383	99
Es	0.602537	0.730032	1.308516	99
Es	0.270987	1.160602	-0.470020	99
39
Properties=species:S:1:pos:R:3:Z:I:1 energy=-342.6329341404806 field_type=dipole dipole="0.000000 0.000000 0.000000" charge=0
O	-1.838951	-1.600689	-1.362213	8
C	-0.883521	-1.689519	-0.592723	6
C	0.274839	-0.701119	-0.517213	6
O	0.737289	-0.626589	0.845247	8
C	0.602529	0.730231	1.308627	6
C	0.065369	1.495981	0.161847	6
C	-0.121611	0.683931	-0.875373	6
H	-0.770821	-2.581129	0.047797	1
H	1.094929	-1.073909	-1.137643	1
H	1.585989	1.095091	1.618207	1
H	-0.079021	0.744371	2.163457	1
H	-0.149201	2.554071	0.179617	1
H	-0.517821	0.969281	-1.839633	1
Es	-0.330953	1.036262	-0.265282	99
Es	0.737940	-0.625900	0.844539	99
Es	-0.071739	2.204410	0.186288	99
Es	-1.751315	-1.408658	-1.446995	99
Es	-0.800114	-2.283498	-0.143995	99
Es	1.269080	0.985256	1.523465	99
Es	0.546698	-0.648933	0.316947	99
Es	-1.632269	-1.501787	-0.885540	99
Es	0.602536	0.730033	1.308517	99
Es	0.063089	-0.018506	-0.729234	99
Es	0.271318	1.160721	-0.470193	99
Es	0.274850	-0.701136	-0.516995	99
Es	0.591084	-0.671629	0.901994	99
Es	0.978716	-0.795398	0.928016	99
Es	-1.379596	-1.744980	-1.248668	99
Es	-1.838745	-1.600676	-1.362048	99
Es	0.808318	-0.961393	-0.942547	99
Es	-2.069486	-1.791601	-1.463657	99
Es	-0.384256	0.859805	-1.529206	99
Es	0.139178	0.746477	1.879893	99
Es	0.683608	-0.106964	1.015566	99
Es	0.065399	1.496040	0.161957	99
Es	-0.121615	0.683811	-0.875443	99
Es	-0.883538	-1.689469	-0.592717	99
Es	-0.316263	-1.184151	-0.547551	99
Es	0.333932	1.150349	0.753366	99
39
Properties=species:S:1:pos:R:3:Z:I:1 energy=-342.6329341404806 field_type=dipole dipole="0.000000 0.000000 0.000000" charge=0
O	-1.838951	-1.600689	-1.362213	8
C	-0.883521	-1.689519	-0.592723	6
C	0.274839	-0.701119	-0.517213	6
O	0.737289	-0.626589	0.845247	8
C	0.602529	0.730231	1.308627	6
C	0.065369	1.495981	0.161847	6
C	-0.121611	0.683931	-0.875373	6
H	-0.770821	-2.581129	0.047797	1
H	1.094929	-1.073909	-1.137643	1
H	1.585989	1.095091	1.618207	1
H	-0.079021	0.744371	2.163457	1
H	-0.149201	2.554071	0.179617	1
H	-0.517821	0.969281	-1.839633	1
Es	0.271387	1.160876	-0.470306	99
Es	0.602535	0.730033	1.308517	99
Es	0.546969	-0.648735	0.316832	99
Es	0.333922	1.150136	0.753296	99
Es	-1.379991	-1.744802	-1.248596	99
Es	-0.384163	0.859730	-1.529206	99
Es	0.139008	0.746529	1.880181	99
Es	-1.631881	-1.501245	-0.885636	99
Es	0.592561	-0.668395	0.899494	99
Es	-0.121614	0.683812	-0.875445	99
Es	-1.838685	-1.600835	-1.361923	99
Es	-0.331102	1.036135	-0.265153	99
Es	-0.071672	2.204502	0.186398	99
Es	1.269108	0.985294	1.523190	99
Es	-0.800051	-2.283545	-0.144005	99
Es	-0.316497	-1.184080	-0.547642	99
Es	0.808514	-0.961237	-0.942684	99
Es	0.975849	-0.798928	0.931008	99
Es	-1.750849	-1.411846	-1.444234	99
Es	0.737343	-0.626212	0.844913	99
Es	0.065399	1.496040	0.161957	99
Es	0.685270	-0.106536	1.014799	99
Es	0.063248	-0.018605	-0.729102	99
Es	0.274850	-0.701136	-0.516997	99
Es	-2.070061	-1.788996	-1.466464	99
Es	-0.883539	-1.689468	-0.592717	99
39
Properties=species:S:1:pos:R:3:Z:I:1 energy=-342.6329341404806 field_type=dipole dipole="0.000000 0.000000 0.000000" charge=0
O	-1.838951	-1.600689	-1.362213	8
C	-0.883521	-1.689519	-0.592723	6
C	0.274839	-0.701119	-0.517213	6
O	0.737289	-0.626589	0.845247	8
C	0.602529	0.730231	1.308627	6
C	0.065369	1.495981	0.161847	6
C	-0.121611	0.683931	-0.875373	6
H	-0.770821	-2.581129	0.047797	1
H	1.094929	-1.073909	-1.137643	1
H	1.585989	1.095091	1.618207	1
H	-0.079021	0.744371	2.163457	1
H	-0.149201	2.554071	0.179617	1
H	-0.517821	0.969281	-1.839633	1
Es	0.546314	-0.649117	0.317125	99
Es	0.684213	-0.106791	1.015069	99
Es	0.065400	1.496040	0.161957	99
Es	-1.748879	-1.412654	-1.443661	99
Es	-0.384206	0.860003	-1.529240	99
Es	0.333687	1.150392	0.753372	99
Es	0.737391	-0.626184	0.844905	99
Es	-0.071811	2.204644	0.186174	99
Es	-1.838664	-1.600775	-1.361942	99
Es	0.602535	0.730030	1.308517	99
Es	-1.632581	-1.501522	-0.885440	99
Es	0.982905	-0.790904	0.923729	99
Es	0.139419	0.746423	1.879535	99
Es	-0.316347	-1.184092	-0.547548	99
Es	-0.883536	-1.689471	-0.592717	99
Es	1.268943	0.985218	1.523810	99
Es	-2.069046	-1.787973	-1.468924	99
Es	-0.121615	0.683812	-0.875445	99
Es	0.808167	-0.961454	-0.942343	99
Es	-0.800049	-2.283553	-0.143805	99
Es	0.587245	-0.675975	0.906292	99
Es	-1.381903	-1.744886	-1.247164	99
Es	0.274849	-0.701139	-0.516990	99
Es	-0.330505	1.036496	-0.265536	99
Es	0.271018	1.160422	-0.469936	99
Es	0.062915	-0.018502	-0.729320	99
39
Properties=species:S:1:pos:R:3:Z:I:1 energy=-342.6329341404806 field_type=dipole dipole="0.000000 0.000000 0.000000" charge=0
O	-1.838951	-1.600689	-1.362213	8
C	-0.883521	-1.689519	-0.592723	6
C	0.274839	-0.701119	-0.517213	6
O	0.737289	-0.626589	0.845247	8
C	0.602529	0.730231	1.308627	6
C	0.065369	1.495981	0.161847	6
C	-0.121611	0.683931	-0.875373	6
H	-0.770821	-2.581129	0.047797	1
H	1.094929	-1.073909	-1.137643	1
H	1.585989	1.095091	1.618207	1
H	-0.079021	0.744371	2.163457	1
H	-0.149201	2.554071	0.179617	1
H	-0.517821	0.969281	-1.839633	1
Es	0.590848	-0.671329	0.902056	99
Es	-0.330911	1.036352	-0.265323	99
Es	0.737312	-0.626248	0.844961	99
Es	-1.631723	-1.501514	-0.885445	99
Es	-0.071694	2.204471	0.186303	99
Es	0.139240	0.746491	1.879599	99
Es	-0.883538	-1.689469	-0.592718	99
Es	0.808233	-0.961416	-0.942368	99
Es	0.602537	0.730032	1.308516	99
Es	-0.800114	-2.283447	-0.143785	99
Es	0.333782	1.150297	0.753452	99
Es	0.274851	-0.701136	-0.516996	99
Es	0.978734	-0.795316	0.927862	99
Es	0.063168	-0.018350	-0.729364	99
Es	-1.838671	-1.600903	-1.361869	99
Es	0.271341	1.160538	-0.470090	99
Es	-0.384163	0.859829	-1.529293	99
Es	-2.069715	-1.787947	-1.467831	99
Es	1.269018	0.985298	1.523732	99
Es	-0.316580	-1.184089	-0.547613	99
Es	0.065398	1.496040	0.161957	99
Es	0.546423	-0.649255	0.317073	99
Es	-1.381067	-1.745023	-1.248241	99
Es	-1.749883	-1.412490	-1.443753	99
Es	0.684647	-0.106737	1.015095	99
Es	-0.121613	0.683811	-0.875446	99
39
Properties=species:S:1:pos:R:3:Z:I:1 energy=-342.6329341404806 field_type=dipole dipole="0.000000 0.000000 0.000000" charge=0
O	-1.838951	-1.600689	-1.362213	8
C	-0.883521	-1.689519	-0.592723	6
C	0.274839	-0.701119	-0.517213	6
O	0.737289	-0.626589	0.845247	8
C	0.602529	0.730231	1.308627	6
C	0.065369	1.495981	0.161847	6
C	-0.121611	0.683931	-0.875373	6
H	-0.770821	-2.581129	0.047797	1
H	1.094929	-1.073909	-1.137643	1
H	1.585989	1.095091	1.618207	1
H	-0.079021	0.744371	2.163457	1
H	-0.149201	2.554071	0.179617	1
H	-0.517821	0.969281	-1.839633	1
Es	-0.800164	-2.283459	-0.143852	99
Es	0.333872	1.150184	0.753320	99
Es	-0.384237	0.859792	-1.529253	99
Es	-0.883539	-1.689468	-0.592716	99
Es	0.271313	1.160640	-0.470139	99
Es	0.808247	-0.961328	-0.942371	99
Es	-1.632453	-1.501086	-0.885616	99
Es	0.274850	-0.701136	-0.516996	99
Es	0.602536	0.730029	1.308517	99
Es	0.065397	1.496040	0.161961	99
Es	0.685402	-0.106589	1.014999	99
Es	-2.069648	-1.785594	-1.470584	99
Es	-1.748856	-1.414655	-1.441896	99
Es	-1.381491	-1.745323	-1.247349	99
Es	-0.330898	1.036287	-0.265305	99
Es	-0.316603	-1.184098	-0.547643	99
Es	0.063320	-0.018445	-0.729297	99
Es	0.737491	-0.626129	0.844806	99
Es	0.977128	-0.796691	0.928989	99
Es	-0.071638	2.204581	0.186381	99
Es	0.139132	0.746495	1.879753	99
Es	-0.121616	0.683811	-0.875443	99
Es	-1.838680	-1.601216	-1.361646	99
Es	1.269030	0.985282	1.523616	99
Es	0.591085	-0.670331	0.901319	99
Es	0.546880	-0.649106	0.316922	99
39
Properties=species:S:1:pos:R:3:Z:I:1 energy=-342.6329341404806 field_type=dipole dipole="0.000000 0.000000 0.000000" charge=0
O	-1.838951	-1.600689	-1.362213	8
C	-0.883521	-1.689519	-0.592723	6
C	0.274839	-0.701119	-0.517213	6
O	0.737289	-0.626589	0.845247	8
C	0.602529	0.730231	1.308627	6
C	0.065369	1.495981	0.161847	6
C	-0.121611	0.683931	-0.875373	6
H	-0.770821	-2.581129	0.047797	1
H	1.094929	-1.073909	-1.137643	1
H	1.585989	1.095091	1.618207	1
H	-0.079021	0.744371	2.163457	1
H	-0.149201	2.554071	0.179617	1
H	-0.517821	0.969281	-1.839633	1
Es	-0.800052	-2.283521	-0.143827	99
Es	-1.632731	-1.500560	-0.885592	99
Es	0.546058	-0.649193	0.317239	99
Es	-2.069493	-1.785349	-1.471197	99
Es	0.065399	1.496040	0.161957	99
Es	0.808174	-0.961199	-0.942282	99
Es	-0.121614	0.683812	-0.875445	99
Es	-0.330854	1.036402	-0.265377	99
Es	0.274847	-0.701133	-0.516995	99
Es	0.063125	-0.018483	-0.729336	99
Es	-0.883539	-1.689468	-0.592716	99
Es	0.333659	1.150396	0.753376	99
Es	-1.747098	-1.415113	-1.442232	99
Es	0.684919	-0.106863	1.015832	99
Es	-0.384167	0.859949	-1.529271	99
Es	-1.838665	-1.600916	-1.361852	99
Es	0.737107	-0.626219	0.844903	99
Es	-0.316526	-1.184181	-0.547683	99
Es	0.979714	-0.793716	0.925755	99
Es	-1.383057	-1.745958	-1.246266	99
Es	0.139373	0.746424	1.879484	99
Es	0.590210	-0.672900	0.903408	99
Es	0.602532	0.730030	1.308520	99
Es	1.268999	0.985211	1.523871	99
Es	0.271146	1.160467	-0.470004	99
Es	-0.071609	2.204529	0.186206	99
