42
Properties=species:S:1:pos:R:3:Z:I:1 energy=-343.76905331059584 field_type=dipole dipole="0.000000 0.000000 0.000000" charge=0
O	-0.501364	-1.993115	0.375594	8
C	-0.704113	-1.106555	-0.723056	6
C	-0.156304	0.297605	-0.427836	6
C	-0.704364	0.832065	0.904814	6
O	-0.450773	2.232075	1.037104	8
C	1.287696	0.297605	-0.427836	6
C	2.477857	0.297605	-0.427836	6
H	-0.755274	-2.883525	0.075874	1
H	-1.782594	-1.055965	-0.909506	1
H	-0.224103	-1.538195	-1.609206	1
H	-0.489434	0.965605	-1.232966	1
H	-0.267223	0.322915	1.770644	1
H	-1.790524	0.702455	0.948224	1
H	0.516716	2.338634	1.072384	1
H	3.543797	0.290795	-0.426396	1
Es	-0.704050	-1.106642	-0.722853	99
Es	1.897127	0.615746	-0.597714	99
Es	1.888807	-0.001957	-0.613320	99
Es	-0.200213	-2.001113	0.425556	99
Es	-0.405649	-0.401142	-0.563143	99
Es	-0.156198	0.297551	-0.427825	99
Es	1.287439	0.297626	-0.427850	99
Es	-0.450530	2.231844	1.037083	99
Es	-1.445701	0.738915	0.921484	99
Es	-0.703369	-1.910092	0.591320	99
Es	3.173912	0.294121	-0.427112	99
Es	1.894234	0.294915	-0.068268	99
Es	-0.404687	0.548184	0.221698	99
Es	0.595037	0.295563	-0.423057	99
Es	-0.644924	-2.462079	0.193463	99
Es	-0.375608	-1.395890	-1.336722	99
Es	-0.370299	0.736563	-0.967452	99
Es	-0.556576	2.310692	1.312546	99
Es	-0.501480	-1.993218	0.375253	99
Es	-1.448132	-1.059779	-0.856067	99
Es	-0.583330	-1.671204	-0.052726	99
Es	-0.521757	1.695849	0.980903	99
Es	-0.704286	0.832284	0.904743	99
Es	2.478122	0.297607	-0.427836	99
Es	-0.399555	0.477165	1.485107	99
Es	0.070167	2.268565	1.052474	99
Es	-0.546191	2.364889	0.774861	99
42
Properties=species:S:1:pos:R:3:Z:I:1 energy=-343.76905331059584 field_type=dipole dipole="0.000000 0.000000 0.000000" charge=0
O	-0.501364	-1.993115	0.375594	8
C	-0.704113	-1.106555	-0.723056	6
C	-0.156304	0.297605	-0.427836	6
C	-0.704364	0.832065	0.904814	6
O	-0.450773	2.232075	1.037104	8
C	1.287696	0.297605	-0.427836	6
C	2.477857	0.297605	-0.427836	6
H	-0.755274	-2.883525	0.075874	1
H	-1.782594	-1.055965	-0.909506	1
H	-0.224103	-1.538195	-1.609206	1
H	-0.489434	0.965605	-1.232966	1
H	-0.267223	0.322915	1.770644	1
H	-1.790524	0.702455	0.948224	1
H	0.516716	2.338634	1.072384	1
H	3.543797	0.290795	-0.426396	1
Es	-0.185730	-1.999899	0.434389	99
Es	-0.404699	0.548621	0.221278	99
Es	-0.709034	-1.909997	0.579215	99
Es	-1.448634	0.737696	0.921658	99
Es	-1.450542	-1.059540	-0.857100	99
Es	1.891007	0.154641	-0.748549	99
Es	-0.585486	-1.677353	-0.050112	99
Es	-0.406277	-0.401189	-0.563478	99
Es	1.897489	0.095738	-0.141398	99
Es	-0.398379	0.478324	1.483095	99
Es	0.597600	0.295174	-0.423361	99
Es	1.891354	0.658591	-0.389120	99
Es	3.175610	0.294861	-0.427076	99
Es	-0.156200	0.297554	-0.427827	99
Es	-0.374836	-1.395223	-1.334816	99
Es	-0.704289	0.832283	0.904744	99
Es	-0.371138	0.734974	-0.964924	99
Es	-0.560213	2.310872	1.305692	99
Es	-0.704052	-1.106643	-0.722851	99
Es	0.076932	2.271708	1.053449	99
Es	-0.545960	2.359356	0.779573	99
Es	-0.501472	-1.993194	0.375278	99
Es	2.478134	0.297605	-0.427842	99
Es	-0.524497	1.697384	0.981983	99
Es	-0.651276	-2.456808	0.193401	99
Es	1.287426	0.297611	-0.427839	99
Es	-0.450528	2.231814	1.037084	99
42
Properties=species:S:1:pos:R:3:Z:I:1 energy=-343.76905331059584 field_type=dipole dipole="0.000000 0.000000 0.000000" charge=0
O	-0.501364	-1.993115	0.375594	8
C	-0.704113	-1.106555	-0.723056	6
C	-0.156304	0.297605	-0.427836	6
C	-0.704364	0.832065	0.904814	6
O	-0.450773	2.232075	1.037104	8
C	1.287696	0.297605	-0.427836	6
C	2.477857	0.297605	-0.427836	6
H	-0.755274	-2.883525	0.075874	1
H	-1.782594	-1.055965	-0.909506	1
H	-0.224103	-1.538195	-1.609206	1
H	-0.489434	0.965605	-1.232966	1
H	-0.267223	0.322915	1.770644	1
H	-1.790524	0.702455	0.948224	1
H	0.516716	2.338634	1.072384	1
H	3.543797	0.290795	-0.426396	1
Es	-0.546142	2.357334	0.783179	99
Es	-0.177052	-2.000559	0.431173	99
Es	-0.704285	0.832284	0.904745	99
Es	-0.404610	0.548777	0.220813	99
Es	1.895348	-0.019414	-0.280052	99
Es	1.287422	0.297612	-0.427836	99
Es	-0.406616	-0.401030	-0.563435	99
Es	-1.451752	-1.059555	-0.857632	99
Es	-1.450003	0.737020	0.921769	99
Es	-0.501436	-1.993183	0.375350	99
Es	-0.374531	-1.394813	-1.333646	99
Es	-0.707600	-1.908738	0.576937	99
Es	1.888544	0.597138	-0.225159	99
Es	2.478133	0.297608	-0.427841	99
Es	-0.525913	1.698533	0.981314	99
Es	1.895914	0.330581	-0.773538	99
Es	0.079715	2.272993	1.052986	99
Es	-0.450551	2.231885	1.037112	99
Es	0.598955	0.295688	-0.423833	99
Es	3.176270	0.295441	-0.426977	99
Es	-0.397768	0.478968	1.481878	99
Es	-0.156200	0.297554	-0.427827	99
Es	-0.371728	0.733978	-0.963416	99
Es	-0.657040	-2.452727	0.194885	99
Es	-0.589646	-1.681656	-0.046680	99
Es	-0.561068	2.309888	1.303122	99
Es	-0.704049	-1.106644	-0.722847	99
42
Properties=species:S:1:pos:R:3:Z:I:1 energy=-343.76905331059584 field_type=dipole dipole="0.000000 0.000000 0.000000" charge=0
O	-0.501364	-1.993115	0.375594	8
C	-0.704113	-1.106555	-0.723056	6
C	-0.156304	0.297605	-0.427836	6
C	-0.704364	0.832065	0.904814	6
O	-0.450773	2.232075	1.037104	8
C	1.287696	0.297605	-0.427836	6
C	2.477857	0.297605	-0.427836	6
H	-0.755274	-2.883525	0.075874	1
H	-1.782594	-1.055965	-0.909506	1
H	-0.224103	-1.538195	-1.609206	1
H	-0.489434	0.965605	-1.232966	1
H	-0.267223	0.322915	1.770644	1
H	-1.790524	0.702455	0.948224	1
H	0.516716	2.338634	1.072384	1
H	3.543797	0.290795	-0.426396	1
Es	1.897240	0.158063	-0.113049	99
Es	-0.563842	2.313397	1.300033	99
Es	-0.590652	-1.685212	-0.043579	99
Es	1.892907	0.657593	-0.460622	99
Es	-0.404337	0.548704	0.220428	99
Es	2.478134	0.297610	-0.427833	99
Es	-0.704052	-1.106643	-0.722854	99
Es	-0.172112	-2.000509	0.429936	99
Es	-0.501456	-1.993193	0.375297	99
Es	-0.156197	0.297552	-0.427824	99
Es	3.176645	0.295172	-0.427134	99
Es	-0.397600	0.479578	1.481095	99
Es	1.287419	0.297615	-0.427844	99
Es	-0.450513	2.231826	1.037093	99
Es	-0.658079	-2.448992	0.193824	99
Es	-0.406838	-0.401010	-0.563412	99
Es	-0.710387	-1.908538	0.575839	99
Es	-1.452497	-1.059412	-0.857816	99
Es	-0.543126	2.353081	0.783608	99
Es	-0.704291	0.832281	0.904744	99
Es	-0.374272	-1.394663	-1.332975	99
Es	-0.372071	0.733291	-0.962384	99
Es	0.599775	0.295892	-0.423362	99
Es	-1.450801	0.736641	0.921850	99
Es	1.889630	0.092941	-0.705446	99
Es	0.081220	2.272793	1.053614	99
Es	-0.527534	1.699103	0.983321	99
42
Properties=species:S:1:pos:R:3:Z:I:1 energy=-343.76905331059584 field_type=dipole dipole="0.000000 0.000000 0.000000" charge=0
O	-0.501364	-1.993115	0.375594	8
C	-0.704113	-1.106555	-0.723056	6
C	-0.156304	0.297605	-0.427836	6
C	-0.704364	0.832065	0.904814	6
O	-0.450773	2.232075	1.037104	8
C	1.287696	0.297605	-0.427836	6
C	2.477857	0.297605	-0.427836	6
H	-0.755274	-2.883525	0.075874	1
H	-1.782594	-1.055965	-0.909506	1
H	-0.224103	-1.538195	-1.609206	1
H	-0.489434	0.965605	-1.232966	1
H	-0.267223	0.322915	1.770644	1
H	-1.790524	0.702455	0.948224	1
H	0.516716	2.338634	1.072384	1
H	3.543797	0.290795	-0.426396	1
Es	1.889103	-0.024329	-0.560787	99
Es	1.897323	0.587628	-0.629957	99
Es	-0.372366	0.732926	-0.961613	99
Es	0.600269	0.296516	-0.423454	99
Es	-0.704052	-1.106643	-0.722852	99
Es	2.478137	0.297609	-0.427827	99
Es	-0.541124	2.350234	0.785138	99
Es	-0.168273	-2.001394	0.427724	99
Es	-0.374179	-1.394438	-1.332345	99
Es	-0.660617	-2.445844	0.194283	99
Es	3.176860	0.295227	-0.426783	99
Es	0.082334	2.272755	1.053496	99
Es	-0.407065	-0.401050	-0.563200	99
Es	-0.501436	-1.993211	0.375227	99
Es	-0.404201	0.548865	0.220100	99
Es	-1.451306	0.736472	0.921664	99
Es	-0.156198	0.297552	-0.427825	99
Es	-0.710282	-1.907982	0.574870	99
Es	1.893376	0.344724	-0.088656	99
Es	-0.592042	-1.687806	-0.041130	99
Es	1.287422	0.297620	-0.427824	99
Es	-0.528354	1.699920	0.983322	99
Es	-1.453008	-1.059291	-0.858055	99
Es	-0.397176	0.479690	1.480711	99
Es	-0.450519	2.231786	1.037107	99
Es	-0.566026	2.315143	1.298470	99
Es	-0.704287	0.832282	0.904744	99
42
Properties=species:S:1:pos:R:3:Z:I:1 energy=-343.76905331059584 field_type=dipole dipole="0.000000 0.000000 0.000000" charge=0
O	-0.501364	-1.993115	0.375594	8
C	-0.704113	-1.106555	-0.723056	6
C	-0.156304	0.297605	-0.427836	6
C	-0.704364	0.832065	0.904814	6
O	-0.450773	2.232075	1.037104	8
C	1.287696	0.297605	-0.427836	6
C	2.477857	0.297605	-0.427836	6
H	-0.755274	-2.883525	0.075874	1
H	-1.782594	-1.055965	-0.909506	1
H	-0.224103	-1.538195	-1.609206	1
H	-0.489434	0.965605	-1.232966	1
H	-0.267223	0.322915	1.770644	1
H	-1.790524	0.702455	0.948224	1
H	0.516716	2.338634	1.072384	1
H	3.543797	0.290795	-0.426396	1
Es	-0.156197	0.297552	-0.427824	99
Es	-1.451720	0.736235	0.921609	99
Es	-1.453358	-1.059322	-0.858216	99
Es	1.891458	0.416754	-0.105599	99
Es	-0.450517	2.231839	1.037087	99
Es	0.600716	0.296762	-0.423573	99
Es	-0.372273	0.732340	-0.960829	99
Es	-0.660471	-2.443621	0.193963	99
Es	-0.373987	-1.394314	-1.331916	99
Es	-0.712423	-1.907391	0.574961	99
Es	-0.704289	0.832273	0.904738	99
Es	-0.529083	1.700434	0.982766	99
Es	-0.559642	2.308296	1.297766	99
Es	-0.501452	-1.993185	0.375272	99
Es	3.177023	0.295374	-0.426816	99
Es	2.478137	0.297615	-0.427834	99
Es	-0.704053	-1.106642	-0.722851	99
Es	-0.165485	-2.000513	0.424963	99
Es	1.287417	0.297613	-0.427832	99
Es	-0.407355	-0.400976	-0.563155	99
Es	1.890026	-0.046272	-0.492556	99
Es	-0.547457	2.355928	0.787091	99
Es	0.083103	2.273045	1.052773	99
Es	1.898294	0.537345	-0.681069	99
Es	-0.404155	0.549004	0.219927	99
Es	-0.397098	0.480048	1.480233	99
Es	-0.592848	-1.691257	-0.038535	99
42
Properties=species:S:1:pos:R:3:Z:I:1 energy=-343.76905331059584 field_type=dipole dipole="0.000000 0.000000 0.000000" charge=0
O	-0.501364	-1.993115	0.375594	8
C	-0.704113	-1.106555	-0.723056	6
C	-0.156304	0.297605	-0.427836	6
C	-0.704364	0.832065	0.904814	6
O	-0.450773	2.232075	1.037104	8
C	1.287696	0.297605	-0.427836	6
C	2.477857	0.297605	-0.427836	6
H	-0.755274	-2.883525	0.075874	1
H	-1.782594	-1.055965	-0.909506	1
H	-0.224103	-1.538195	-1.609206	1
H	-0.489434	0.965605	-1.232966	1
H	-0.267223	0.322915	1.770644	1
H	-1.790524	0.702455	0.948224	1
H	0.516716	2.338634	1.072384	1
H	3.543797	0.290795	-0.426396	1
Es	-0.162965	-2.001764	0.423514	99
Es	1.287421	0.297616	-0.427846	99
Es	-0.710321	-1.906885	0.572991	99
Es	0.083603	2.272873	1.056027	99
Es	-1.451988	0.736138	0.921393	99
Es	-0.396462	0.479911	1.480050	99
Es	-0.704290	0.832284	0.904744	99
Es	-0.407471	-0.401124	-0.562789	99
Es	-0.579652	2.329035	1.291560	99
Es	-0.450493	2.231819	1.036983	99
Es	-0.156197	0.297551	-0.427824	99
Es	-0.593887	-1.692843	-0.036798	99
Es	-0.527180	2.334895	0.786894	99
Es	-0.374267	-1.393989	-1.331300	99
Es	3.177112	0.295540	-0.427067	99
Es	2.478138	0.297607	-0.427838	99
Es	1.892161	0.187956	-0.745612	99
Es	-0.403829	0.549055	0.219337	99
Es	-0.663877	-2.441363	0.195477	99
Es	1.890560	0.653077	-0.365709	99
Es	1.897028	0.067364	-0.167150	99
Es	0.601018	0.296115	-0.423760	99
Es	-0.529872	1.700609	0.985869	99
Es	-0.372842	0.732611	-0.960622	99
Es	-0.501444	-1.993179	0.375332	99
Es	-1.453638	-1.059309	-0.858455	99
Es	-0.704054	-1.106641	-0.722853	99
42
Properties=species:S:1:pos:R:3:Z:I:1 energy=-343.76905331059584 field_type=dipole dipole="0.000000 0.000000 0.000000" charge=0
O	-0.501364	-1.993115	0.375594	8
C	-0.704113	-1.106555	-0.723056	6
C	-0.156304	0.297605	-0.427836	6
C	-0.704364	0.832065	0.904814	6
O	-0.450773	2.232075	1.037104	8
C	1.287696	0.297605	-0.427836	6
C	2.477857	0.297605	-0.427836	6
H	-0.755274	-2.883525	0.075874	1
H	-1.782594	-1.055965	-0.909506	1
H	-0.224103	-1.538195	-1.609206	1
H	-0.489434	0.965605	-1.232966	1
H	-0.267223	0.322915	1.770644	1
H	-1.790524	0.702455	0.948224	1
H	0.516716	2.338634	1.072384	1
H	3.543797	0.290795	-0.426396	1
Es	-0.530625	1.701459	0.981011	99
Es	-1.452203	0.735981	0.921925	99
Es	-0.396873	0.480526	1.479432	99
Es	0.084072	2.272726	1.048332	99
Es	-0.372044	0.731403	-0.959528	99
Es	3.177190	0.295578	-0.427217	99
Es	-0.501444	-1.993181	0.375372	99
Es	-0.404114	0.549375	0.219582	99
Es	2.478139	0.297612	-0.427834	99
Es	-0.718898	-1.903733	0.572720	99
Es	-0.450503	2.231801	1.037061	99
Es	-0.704291	0.832282	0.904741	99
Es	-0.590107	-1.699214	-0.033641	99
Es	-0.540674	2.290226	1.295608	99
Es	-0.660513	-2.439649	0.193411	99
Es	-0.565783	2.372824	0.795458	99
Es	-0.161720	-1.999704	0.422254	99
Es	-0.407744	-0.401047	-0.563297	99
Es	-0.704053	-1.106642	-0.722855	99
Es	1.890257	-0.048497	-0.477479	99
Es	0.601215	0.297064	-0.423655	99
Es	1.287416	0.297615	-0.427845	99
Es	-0.156198	0.297552	-0.427825	99
Es	-0.373887	-1.394304	-1.331427	99
Es	1.898446	0.523563	-0.689744	99
Es	1.891072	0.432558	-0.111883	99
Es	-1.453823	-1.059212	-0.858132	99
42
Properties=species:S:1:pos:R:3:Z:I:1 energy=-343.76905331059584 field_type=dipole dipole="0.000000 0.000000 0.000000" charge=0
O	-0.501364	-1.993115	0.375594	8
C	-0.704113	-1.106555	-0.723056	6
C	-0.156304	0.297605	-0.427836	6
C	-0.704364	0.832065	0.904814	6
O	-0.450773	2.232075	1.037104	8
C	1.287696	0.297605	-0.427836	6
C	2.477857	0.297605	-0.427836	6
H	-0.755274	-2.883525	0.075874	1
H	-1.782594	-1.055965	-0.909506	1
H	-0.224103	-1.538195	-1.609206	1
H	-0.489434	0.965605	-1.232966	1
H	-0.267223	0.322915	1.770644	1
H	-1.790524	0.702455	0.948224	1
H	0.516716	2.338634	1.072384	1
H	3.543797	0.290795	-0.426396	1
Es	-1.454007	-1.059316	-0.858834	99
Es	2.478139	0.297613	-0.427830	99
Es	-0.501442	-1.993174	0.375313	99
Es	0.601349	0.296341	-0.423586	99
Es	1.898079	0.487450	-0.721946	99
Es	1.890176	0.470942	-0.134525	99
Es	-0.407099	-0.400855	-0.562438	99
Es	-0.403714	0.548920	0.218844	99
Es	-0.395727	0.479644	1.479853	99
Es	-0.160730	-2.003863	0.422038	99
Es	-0.595532	-1.693468	-0.035854	99
Es	-0.668545	-2.438972	0.198385	99
Es	-0.374480	-1.393808	-1.330386	99
Es	-0.704054	-1.106641	-0.722856	99
Es	-0.373722	0.732919	-0.960608	99
Es	0.084117	2.271994	1.061324	99
Es	-1.452334	0.736164	0.920853	99
Es	-0.530032	1.701934	0.989171	99
Es	-0.602244	2.351739	1.276887	99
Es	-0.450485	2.231765	1.037260	99
Es	1.891538	-0.050693	-0.422932	99
Es	-0.706170	-1.906297	0.570490	99
Es	3.177211	0.295905	-0.425724	99
Es	-0.504908	2.311270	0.792566	99
Es	-0.156198	0.297554	-0.427827	99
Es	-0.704290	0.832283	0.904742	99
Es	1.287413	0.297613	-0.427834	99
42
Properties=species:S:1:pos:R:3:Z:I:1 energy=-343.76905331059584 field_type=dipole dipole="0.000000 0.000000 0.000000" charge=0
O	-0.501364	-1.993115	0.375594	8
C	-0.704113	-1.106555	-0.723056	6
C	-0.156304	0.297605	-0.427836	6
C	-0.704364	0.832065	0.904814	6
O	-0.450773	2.232075	1.037104	8
C	1.287696	0.297605	-0.427836	6
C	2.477857	0.297605	-0.427836	6
H	-0.755274	-2.883525	0.075874	1
H	-1.782594	-1.055965	-0.909506	1
H	-0.224103	-1.538195	-1.609206	1
H	-0.489434	0.965605	-1.232966	1
H	-0.267223	0.322915	1.770644	1
H	-1.790524	0.702455	0.948224	1
H	0.516716	2.338634	1.072384	1
H	3.543797	0.290795	-0.426396	1
Es	1.891294	-0.049275	-0.439312	99
Es	-0.404417	0.549857	0.219568	99
Es	-0.586562	-1.706394	-0.029568	99
Es	-0.450495	2.231785	1.037166	99
Es	-0.593987	2.395955	0.813372	99
Es	0.084447	2.273519	1.043403	99
Es	-0.397218	0.481142	1.478912	99
Es	-0.704053	-1.106641	-0.722855	99
Es	-0.501448	-1.993194	0.375301	99
Es	0.601458	0.296442	-0.423992	99
Es	-0.159830	-1.999586	0.419046	99
Es	-0.658616	-2.436300	0.192804	99
Es	1.287416	0.297613	-0.427837	99
Es	-0.512221	2.265777	1.280787	99
Es	-0.704294	0.832274	0.904745	99
Es	1.890004	0.471252	-0.124695	99
Es	-0.531270	1.701612	0.982864	99
Es	-0.371102	0.730146	-0.958446	99
Es	-0.156197	0.297551	-0.427823	99
Es	-0.408120	-0.401003	-0.563796	99
Es	-1.454055	-1.059306	-0.857973	99
Es	3.177239	0.296506	-0.427802	99
Es	-1.452401	0.735884	0.922396	99
Es	-0.726277	-1.899598	0.572106	99
Es	1.898477	0.485620	-0.714654	99
Es	-0.373602	-1.394298	-1.331332	99
Es	2.478140	0.297623	-0.427840	99
42
Properties=species:S:1:pos:R:3:Z:I:1 energy=-343.76905331059584 field_type=dipole dipole="0.000000 0.000000 0.000000" charge=0
O	-0.501364	-1.993115	0.375594	8
C	-0.704113	-1.106555	-0.723056	6
C	-0.156304	0.297605	-0.427836	6
C	-0.704364	0.832065	0.904814	6
O	-0.450773	2.232075	1.037104	8
C	1.287696	0.297605	-0.427836	6
C	2.477857	0.297605	-0.427836	6
H	-0.755274	-2.883525	0.075874	1
H	-1.782594	-1.055965	-0.909506	1
H	-0.224103	-1.538195	-1.609206	1
H	-0.489434	0.965605	-1.232966	1
H	-0.267223	0.322915	1.770644	1
H	-1.790524	0.702455	0.948224	1
H	0.516716	2.338634	1.072384	1
H	3.543797	0.290795	-0.426396	1
Es	-0.156197	0.297552	-0.427823	99
Es	-0.675117	-2.437438	0.201428	99
Es	1.287415	0.297603	-0.427841	99
Es	0.084408	2.272379	1.062869	99
Es	-0.406825	-0.400767	-0.562105	99
Es	-0.530299	1.702229	0.992658	99
Es	-0.704054	-1.106642	-0.722851	99
Es	-0.623154	2.374806	1.255328	99
Es	-0.374765	-1.393507	-1.329678	99
Es	-0.484129	2.286897	0.809103	99
Es	0.601570	0.295505	-0.423849	99
Es	-0.595659	-1.694042	-0.034953	99
Es	-0.704292	0.832279	0.904745	99
Es	1.894607	0.282362	-0.771099	99
Es	-0.395079	0.479571	1.479958	99
Es	2.478139	0.297620	-0.427827	99
Es	-0.501554	-1.993195	0.375276	99
Es	-0.403433	0.548838	0.218453	99
Es	1.895730	0.011664	-0.222664	99
Es	-0.374515	0.733123	-0.960616	99
Es	-1.454165	-1.059342	-0.859259	99
Es	3.177234	0.297119	-0.425844	99
Es	-1.452500	0.736320	0.920629	99
Es	-0.159411	-2.006456	0.421320	99
Es	-0.450546	2.231799	1.037016	99
Es	-0.700553	-1.904696	0.567386	99
Es	1.889453	0.613383	-0.285211	99
42
Properties=species:S:1:pos:R:3:Z:I:1 energy=-343.76905331059584 field_type=dipole dipole="0.000000 0.000000 0.000000" charge=0
O	-0.501364	-1.993115	0.375594	8
C	-0.704113	-1.106555	-0.723056	6
C	-0.156304	0.297605	-0.427836	6
C	-0.704364	0.832065	0.904814	6
O	-0.450773	2.232075	1.037104	8
C	1.287696	0.297605	-0.427836	6
C	2.477857	0.297605	-0.427836	6
H	-0.755274	-2.883525	0.075874	1
H	-1.782594	-1.055965	-0.909506	1
H	-0.224103	-1.538195	-1.609206	1
H	-0.489434	0.965605	-1.232966	1
H	-0.267223	0.322915	1.770644	1
H	-1.790524	0.702455	0.948224	1
H	0.516716	2.338634	1.072384	1
H	3.543797	0.290795	-0.426396	1
Es	-0.728442	-1.898052	0.571978	99
Es	0.601713	0.295860	-0.424215	99
Es	3.177250	0.297545	-0.428086	99
Es	-0.450473	2.231760	1.037237	99
Es	1.888692	0.596943	-0.238372	99
Es	-0.408246	-0.400921	-0.564284	99
Es	1.895344	0.319046	-0.770882	99
Es	-0.501449	-1.993187	0.375395	99
Es	-0.499751	2.254498	1.269627	99
Es	-1.454205	-1.059380	-0.857983	99
Es	-0.531883	1.701681	0.982154	99
Es	-0.704291	0.832284	0.904743	99
Es	1.287414	0.297609	-0.427835	99
Es	1.895730	-0.008394	-0.269348	99
Es	-0.156202	0.297561	-0.427838	99
Es	-0.704053	-1.106641	-0.722853	99
Es	-1.452591	0.735854	0.922533	99
Es	-0.404745	0.550288	0.219650	99
Es	-0.586336	-1.710398	-0.025832	99
Es	2.478140	0.297617	-0.427836	99
Es	-0.397280	0.481522	1.478657	99
Es	-0.658383	-2.434583	0.192735	99
Es	-0.373489	-1.394326	-1.331101	99
Es	-0.370468	0.729081	-0.957437	99
Es	-0.158195	-1.998552	0.415164	99
Es	0.084710	2.274218	1.041799	99
Es	-0.606201	2.406028	0.826776	99
42
Properties=species:S:1:pos:R:3:Z:I:1 energy=-343.76905331059584 field_type=dipole dipole="0.000000 0.000000 0.000000" charge=0
O	-0.501364	-1.993115	0.375594	8
C	-0.704113	-1.106555	-0.723056	6
C	-0.156304	0.297605	-0.427836	6
C	-0.704364	0.832065	0.904814	6
O	-0.450773	2.232075	1.037104	8
C	1.287696	0.297605	-0.427836	6
C	2.477857	0.297605	-0.427836	6
H	-0.755274	-2.883525	0.075874	1
H	-1.782594	-1.055965	-0.909506	1
H	-0.224103	-1.538195	-1.609206	1
H	-0.489434	0.965605	-1.232966	1
H	-0.267223	0.322915	1.770644	1
H	-1.790524	0.702455	0.948224	1
H	0.516716	2.338634	1.072384	1
H	3.543797	0.290795	-0.426396	1
Es	1.287416	0.297608	-0.427837	99
Es	-0.527850	1.703524	0.990459	99
Es	1.894575	-0.026065	-0.302486	99
Es	-0.474340	2.276429	0.820677	99
Es	-0.450441	2.231706	1.037423	99
Es	0.601691	0.295250	-0.423791	99
Es	-1.452612	0.736381	0.920583	99
Es	-0.679161	-2.436626	0.203569	99
Es	-0.156197	0.297552	-0.427825	99
Es	-0.374309	0.732748	-0.960461	99
Es	-0.501451	-1.993186	0.375402	99
Es	-0.406409	-0.400592	-0.562420	99
Es	3.177238	0.297440	-0.425167	99
Es	-1.454274	-1.059395	-0.859391	99
Es	0.084417	2.273258	1.064897	99
Es	-0.704053	-1.106641	-0.722851	99
Es	-0.596222	-1.694337	-0.034231	99
Es	1.896177	0.381176	-0.771353	99
Es	-0.635613	2.382812	1.243512	99
Es	-0.375162	-1.393596	-1.329127	99
Es	-0.403773	0.549228	0.218282	99
Es	2.478140	0.297613	-0.427834	99
Es	1.889061	0.552336	-0.205695	99
Es	-0.704293	0.832279	0.904746	99
Es	-0.158588	-2.007531	0.420139	99
Es	-0.696906	-1.903978	0.565454	99
Es	-0.394752	0.479571	1.479872	99
42
Properties=species:S:1:pos:R:3:Z:I:1 energy=-343.76905331059584 field_type=dipole dipole="0.000000 0.000000 0.000000" charge=0
O	-0.501364	-1.993115	0.375594	8
C	-0.704113	-1.106555	-0.723056	6
C	-0.156304	0.297605	-0.427836	6
C	-0.704364	0.832065	0.904814	6
O	-0.450773	2.232075	1.037104	8
C	1.287696	0.297605	-0.427836	6
C	2.477857	0.297605	-0.427836	6
H	-0.755274	-2.883525	0.075874	1
H	-1.782594	-1.055965	-0.909506	1
H	-0.224103	-1.538195	-1.609206	1
H	-0.489434	0.965605	-1.232966	1
H	-0.267223	0.322915	1.770644	1
H	-1.790524	0.702455	0.948224	1
H	0.516716	2.338634	1.072384	1
H	3.543797	0.290795	-0.426396	1
Es	-0.704053	-1.106642	-0.722852	99
Es	-0.156196	0.297549	-0.427824	99
Es	-0.732572	-1.897835	0.569687	99
Es	-0.487459	2.245574	1.256380	99
Es	-1.452660	0.735876	0.922753	99
Es	-0.501481	-1.993274	0.375231	99
Es	0.084817	2.274505	1.038883	99
Es	1.896972	0.029180	-0.212930	99
Es	-0.408211	-0.400745	-0.564602	99
Es	1.893384	0.257192	-0.773139	99
Es	-0.656631	-2.433188	0.191264	99
Es	-0.397639	0.481897	1.478429	99
Es	-0.704290	0.832283	0.904743	99
Es	2.478140	0.297619	-0.427838	99
Es	-0.617641	2.414449	0.841180	99
Es	1.287415	0.297605	-0.427834	99
Es	-0.532849	1.701627	0.984293	99
Es	-0.584282	-1.712458	-0.023795	99
Es	-0.373541	-1.394430	-1.330916	99
Es	-1.454292	-1.059487	-0.857931	99
Es	0.601832	0.295459	-0.424342	99
Es	-0.404661	0.550410	0.219664	99
Es	-0.370076	0.728472	-0.956878	99
Es	3.177234	0.298253	-0.428351	99
Es	1.889412	0.621065	-0.292531	99
Es	-0.450470	2.231787	1.036939	99
Es	-0.157891	-1.997780	0.416861	99
42
Properties=species:S:1:pos:R:3:Z:I:1 energy=-343.76905331059584 field_type=dipole dipole="0.000000 0.000000 0.000000" charge=0
O	-0.501364	-1.993115	0.375594	8
C	-0.704113	-1.106555	-0.723056	6
C	-0.156304	0.297605	-0.427836	6
C	-0.704364	0.832065	0.904814	6
O	-0.450773	2.232075	1.037104	8
C	1.287696	0.297605	-0.427836	6
C	2.477857	0.297605	-0.427836	6
H	-0.755274	-2.883525	0.075874	1
H	-1.782594	-1.055965	-0.909506	1
H	-0.224103	-1.538195	-1.609206	1
H	-0.489434	0.965605	-1.232966	1
H	-0.267223	0.322915	1.770644	1
H	-1.790524	0.702455	0.948224	1
H	0.516716	2.338634	1.072384	1
H	3.543797	0.290795	-0.426396	1
Es	1.894103	-0.032571	-0.356428	99
Es	-0.584246	-1.713216	-0.023063	99
Es	0.084825	2.274876	1.039412	99
Es	1.896804	0.409755	-0.758750	99
Es	-0.397246	0.481659	1.478409	99
Es	2.478140	0.297619	-0.427837	99
Es	-0.733065	-1.897478	0.570254	99
Es	-0.404817	0.550497	0.219543	99
Es	1.287414	0.297610	-0.427836	99
Es	-0.656562	-2.432258	0.191406	99
Es	-0.156198	0.297551	-0.427825	99
Es	-1.454356	-1.059541	-0.858022	99
Es	0.601868	0.295350	-0.424473	99
Es	-0.370249	0.728611	-0.956809	99
Es	-0.373618	-1.394331	-1.330716	99
Es	-0.484461	2.242431	1.251937	99
Es	-0.621456	2.417014	0.845354	99
Es	-0.704054	-1.106642	-0.722854	99
Es	1.888857	0.530470	-0.163484	99
Es	-0.408167	-0.400799	-0.564613	99
Es	-0.532065	1.701710	0.984083	99
Es	3.177249	0.298260	-0.428071	99
Es	-0.501447	-1.993204	0.375424	99
Es	-1.452699	0.735877	0.922711	99
Es	-0.704290	0.832281	0.904741	99
Es	-0.450463	2.231804	1.036883	99
Es	-0.157492	-1.998374	0.415171	99
42
Properties=species:S:1:pos:R:3:Z:I:1 energy=-343.76905331059584 field_type=dipole dipole="0.000000 0.000000 0.000000" charge=0
O	-0.501364	-1.993115	0.375594	8
C	-0.704113	-1.106555	-0.723056	6
C	-0.156304	0.297605	-0.427836	6
C	-0.704364	0.832065	0.904814	6
O	-0.450773	2.232075	1.037104	8
C	1.287696	0.297605	-0.427836	6
C	2.477857	0.297605	-0.427836	6
H	-0.755274	-2.883525	0.075874	1
H	-1.782594	-1.055965	-0.909506	1
H	-0.224103	-1.538195	-1.609206	1
H	-0.489434	0.965605	-1.232966	1
H	-0.267223	0.322915	1.770644	1
H	-1.790524	0.702455	0.948224	1
H	0.516716	2.338634	1.072384	1
H	3.543797	0.290795	-0.426396	1
Es	-0.374430	0.732288	-0.960616	99
Es	-0.157772	-2.009673	0.417991	99
Es	-0.404128	0.549431	0.218590	99
Es	-0.704291	0.832283	0.904744	99
Es	-0.689449	-1.901645	0.561800	99
Es	-0.704053	-1.106642	-0.722850	99
Es	-0.649068	2.394750	1.223538	99
Es	1.894310	0.297800	-0.780726	99
Es	0.601797	0.294907	-0.424055	99
Es	3.177233	0.298176	-0.425388	99
Es	-0.688777	-2.435740	0.207143	99
Es	-0.450451	2.231699	1.037467	99
Es	-0.375053	-1.393583	-1.329032	99
Es	-0.594908	-1.695267	-0.031955	99
Es	2.478136	0.297629	-0.427828	99
Es	1.287415	0.297614	-0.427838	99
Es	-0.501460	-1.993190	0.375276	99
Es	0.084558	2.274254	1.065429	99
Es	-0.406031	-0.400310	-0.562273	99
Es	-1.452677	0.736433	0.920607	99
Es	1.889671	0.594921	-0.278519	99
Es	-0.463055	2.261699	0.837894	99
Es	-0.156197	0.297551	-0.427826	99
Es	-0.525888	1.705010	0.992607	99
Es	1.895838	0.014372	-0.220052	99
Es	-1.454337	-1.059470	-0.859433	99
Es	-0.394622	0.479666	1.479851	99
42
Properties=species:S:1:pos:R:3:Z:I:1 energy=-343.76905331059584 field_type=dipole dipole="0.000000 0.000000 0.000000" charge=0
O	-0.501364	-1.993115	0.375594	8
C	-0.704113	-1.106555	-0.723056	6
C	-0.156304	0.297605	-0.427836	6
C	-0.704364	0.832065	0.904814	6
O	-0.450773	2.232075	1.037104	8
C	1.287696	0.297605	-0.427836	6
C	2.477857	0.297605	-0.427836	6
H	-0.755274	-2.883525	0.075874	1
H	-1.782594	-1.055965	-0.909506	1
H	-0.224103	-1.538195	-1.609206	1
H	-0.489434	0.965605	-1.232966	1
H	-0.267223	0.322915	1.770644	1
H	-1.790524	0.702455	0.948224	1
H	0.516716	2.338634	1.072384	1
H	3.543797	0.290795	-0.426396	1
Es	0.601819	0.294961	-0.424079	99
Es	3.177231	0.298366	-0.425819	99
Es	1.896051	0.052312	-0.171754	99
Es	-0.374492	0.732304	-0.960496	99
Es	-0.501434	-1.993181	0.375339	99
Es	2.478140	0.297622	-0.427831	99
Es	-0.651980	2.399602	1.216098	99
Es	-0.156196	0.297551	-0.427824	99
Es	0.084605	2.274001	1.065293	99
Es	-0.685167	-1.901094	0.559477	99
Es	-0.406245	-0.400411	-0.562429	99
Es	-0.526456	1.704991	0.994271	99
Es	-0.157491	-2.010519	0.416968	99
Es	-0.374723	-1.393469	-1.329318	99
Es	-0.394744	0.479741	1.479846	99
Es	1.892990	0.237860	-0.771981	99
Es	-0.704054	-1.106642	-0.722851	99
Es	-0.459767	2.257010	0.844201	99
Es	1.890772	0.616753	-0.335253	99
Es	-1.454335	-1.059343	-0.859369	99
Es	1.287415	0.297608	-0.427839	99
Es	-0.450352	2.231702	1.037162	99
Es	-0.404102	0.549225	0.218675	99
Es	-1.452684	0.736477	0.920703	99
Es	-0.692791	-2.435198	0.210868	99
Es	-0.704292	0.832280	0.904743	99
Es	-0.595409	-1.695548	-0.032257	99
42
Properties=species:S:1:pos:R:3:Z:I:1 energy=-343.76905331059584 field_type=dipole dipole="0.000000 0.000000 0.000000" charge=0
O	-0.501364	-1.993115	0.375594	8
C	-0.704113	-1.106555	-0.723056	6
C	-0.156304	0.297605	-0.427836	6
C	-0.704364	0.832065	0.904814	6
O	-0.450773	2.232075	1.037104	8
C	1.287696	0.297605	-0.427836	6
C	2.477857	0.297605	-0.427836	6
H	-0.755274	-2.883525	0.075874	1
H	-1.782594	-1.055965	-0.909506	1
H	-0.224103	-1.538195	-1.609206	1
H	-0.489434	0.965605	-1.232966	1
H	-0.267223	0.322915	1.770644	1
H	-1.790524	0.702455	0.948224	1
H	0.516716	2.338634	1.072384	1
H	3.543797	0.290795	-0.426396	1
Es	-1.452749	0.736432	0.920654	99
Es	2.478140	0.297621	-0.427837	99
Es	-0.525436	1.705432	0.992682	99
Es	-0.704292	0.832281	0.904743	99
Es	-0.688821	-1.901228	0.560307	99
Es	-0.404052	0.549381	0.218372	99
Es	-0.459970	2.257741	0.844289	99
Es	-0.157416	-2.009475	0.418095	99
Es	0.601884	0.294997	-0.424029	99
Es	-1.454397	-1.059455	-0.859423	99
Es	-0.394476	0.479687	1.479699	99
Es	-0.156197	0.297551	-0.427824	99
Es	-0.375118	-1.393568	-1.328896	99
Es	-0.594697	-1.696200	-0.031684	99
Es	1.287414	0.297609	-0.427838	99
Es	1.895970	0.031249	-0.196214	99
Es	-0.406215	-0.400462	-0.562465	99
Es	-0.450410	2.231685	1.037447	99
Es	-0.374430	0.732293	-0.960188	99
Es	1.890167	0.602898	-0.303609	99
Es	-0.689948	-2.435339	0.208177	99
Es	-0.652719	2.398162	1.217433	99
Es	-0.704054	-1.106641	-0.722856	99
Es	-0.501447	-1.993196	0.375341	99
Es	1.893681	0.272838	-0.779290	99
Es	0.084655	2.274247	1.065055	99
Es	3.177243	0.298422	-0.425594	99
42
Properties=species:S:1:pos:R:3:Z:I:1 energy=-343.76905331059584 field_type=dipole dipole="0.000000 0.000000 0.000000" charge=0
O	-0.501364	-1.993115	0.375594	8
C	-0.704113	-1.106555	-0.723056	6
C	-0.156304	0.297605	-0.427836	6
C	-0.704364	0.832065	0.904814	6
O	-0.450773	2.232075	1.037104	8
C	1.287696	0.297605	-0.427836	6
C	2.477857	0.297605	-0.427836	6
H	-0.755274	-2.883525	0.075874	1
H	-1.782594	-1.055965	-0.909506	1
H	-0.224103	-1.538195	-1.609206	1
H	-0.489434	0.965605	-1.232966	1
H	-0.267223	0.322915	1.770644	1
H	-1.790524	0.702455	0.948224	1
H	0.516716	2.338634	1.072384	1
H	3.543797	0.290795	-0.426396	1
Es	2.478140	0.297618	-0.427833	99
Es	-0.681681	-1.900792	0.556874	99
Es	-0.374751	-1.393560	-1.329193	99
Es	-0.594894	-1.695993	-0.031506	99
Es	-0.156198	0.297551	-0.427825	99
Es	1.893620	0.271999	-0.779848	99
Es	-0.704286	0.832283	0.904744	99
Es	-0.656363	2.398379	1.215163	99
Es	1.896016	0.032264	-0.195618	99
Es	-0.406270	-0.400422	-0.562169	99
Es	-0.394847	0.479869	1.479731	99
Es	-0.450387	2.231646	1.037540	99
Es	-1.454394	-1.059426	-0.859333	99
Es	3.177246	0.298289	-0.425535	99
Es	-0.704053	-1.106642	-0.722852	99
Es	-0.458359	2.256059	0.847582	99
Es	-0.501446	-1.993209	0.375360	99
Es	1.890177	0.602781	-0.303745	99
Es	-0.523392	1.706919	0.991441	99
Es	1.287414	0.297611	-0.427836	99
Es	-0.374445	0.732132	-0.960350	99
Es	0.601866	0.294982	-0.424200	99
Es	-0.157226	-2.010756	0.416623	99
Es	-0.697152	-2.434630	0.212777	99
Es	-0.403927	0.549270	0.218583	99
Es	0.084644	2.274295	1.065259	99
Es	-1.452741	0.736447	0.920711	99
42
Properties=species:S:1:pos:R:3:Z:I:1 energy=-343.76905331059584 field_type=dipole dipole="0.000000 0.000000 0.000000" charge=0
O	-0.501364	-1.993115	0.375594	8
C	-0.704113	-1.106555	-0.723056	6
C	-0.156304	0.297605	-0.427836	6
C	-0.704364	0.832065	0.904814	6
O	-0.450773	2.232075	1.037104	8
C	1.287696	0.297605	-0.427836	6
C	2.477857	0.297605	-0.427836	6
H	-0.755274	-2.883525	0.075874	1
H	-1.782594	-1.055965	-0.909506	1
H	-0.224103	-1.538195	-1.609206	1
H	-0.489434	0.965605	-1.232966	1
H	-0.267223	0.322915	1.770644	1
H	-1.790524	0.702455	0.948224	1
H	0.516716	2.338634	1.072384	1
H	3.543797	0.290795	-0.426396	1
Es	-0.704051	-1.106642	-0.722850	99
Es	-0.156197	0.297551	-0.427824	99
Es	-0.404147	0.549201	0.218811	99
Es	-0.450472	2.231747	1.037353	99
Es	1.287416	0.297601	-0.427844	99
Es	-0.657092	2.398269	1.215354	99
Es	-1.454410	-1.059126	-0.859246	99
Es	-0.156947	-2.012684	0.414640	99
Es	0.084727	2.274177	1.064652	99
Es	-0.703296	-2.432893	0.217756	99
Es	-0.595762	-1.695315	-0.031424	99
Es	1.895761	0.123791	-0.116395	99
Es	1.893058	0.635446	-0.428257	99
Es	3.177284	0.298053	-0.426341	99
Es	-0.374604	0.732173	-0.960546	99
Es	-0.674834	-1.901350	0.554073	99
Es	-1.452758	0.736613	0.920776	99
Es	-0.374629	-1.393496	-1.329364	99
Es	-0.521785	1.708479	0.995749	99
Es	-0.501447	-1.993183	0.375338	99
Es	-0.394703	0.479860	1.479822	99
Es	-0.406123	-0.400339	-0.562404	99
Es	-0.704292	0.832279	0.904743	99
Es	1.890959	0.147995	-0.733803	99
Es	0.601876	0.294777	-0.424279	99
Es	2.478141	0.297616	-0.427829	99
Es	-0.459364	2.254362	0.843883	99
42
Properties=species:S:1:pos:R:3:Z:I:1 energy=-343.76905331059584 field_type=dipole dipole="0.000000 0.000000 0.000000" charge=0
O	-0.501364	-1.993115	0.375594	8
C	-0.704113	-1.106555	-0.723056	6
C	-0.156304	0.297605	-0.427836	6
C	-0.704364	0.832065	0.904814	6
O	-0.450773	2.232075	1.037104	8
C	1.287696	0.297605	-0.427836	6
C	2.477857	0.297605	-0.427836	6
H	-0.755274	-2.883525	0.075874	1
H	-1.782594	-1.055965	-0.909506	1
H	-0.224103	-1.538195	-1.609206	1
H	-0.489434	0.965605	-1.232966	1
H	-0.267223	0.322915	1.770644	1
H	-1.790524	0.702455	0.948224	1
H	0.516716	2.338634	1.072384	1
H	3.543797	0.290795	-0.426396	1
Es	-0.450437	2.231665	1.037535	99
Es	-0.522862	1.708157	0.990747	99
Es	-0.655533	2.395750	1.219996	99
Es	-0.704733	-2.431797	0.218097	99
Es	-0.596659	-1.694922	-0.030405	99
Es	-0.394590	0.480093	1.479933	99
Es	-1.454450	-1.059123	-0.859329	99
Es	-0.704053	-1.106641	-0.722853	99
Es	-0.156198	0.297550	-0.427826	99
Es	0.601907	0.294848	-0.424455	99
Es	-0.156480	-2.013342	0.413187	99
Es	-0.460271	2.257941	0.844509	99
Es	1.890496	0.121814	-0.712854	99
Es	-0.501441	-1.993194	0.375334	99
Es	-0.374485	-1.393416	-1.329298	99
Es	-0.405570	-0.400061	-0.562047	99
Es	0.084952	2.273245	1.064069	99
Es	-0.704292	0.832280	0.904743	99
Es	-0.673019	-1.902128	0.554063	99
Es	1.287414	0.297608	-0.427839	99
Es	-0.404268	0.548983	0.219013	99
Es	3.177297	0.297977	-0.426323	99
Es	1.893849	0.637323	-0.462283	99
Es	1.895442	0.148105	-0.103195	99
Es	2.478140	0.297615	-0.427836	99
Es	-1.452800	0.736626	0.920768	99
Es	-0.375045	0.732005	-0.960906	99
42
Properties=species:S:1:pos:R:3:Z:I:1 energy=-343.76905331059584 field_type=dipole dipole="0.000000 0.000000 0.000000" charge=0
O	-0.501364	-1.993115	0.375594	8
C	-0.704113	-1.106555	-0.723056	6
C	-0.156304	0.297605	-0.427836	6
C	-0.704364	0.832065	0.904814	6
O	-0.450773	2.232075	1.037104	8
C	1.287696	0.297605	-0.427836	6
C	2.477857	0.297605	-0.427836	6
H	-0.755274	-2.883525	0.075874	1
H	-1.782594	-1.055965	-0.909506	1
H	-0.224103	-1.538195	-1.609206	1
H	-0.489434	0.965605	-1.232966	1
H	-0.267223	0.322915	1.770644	1
H	-1.790524	0.702455	0.948224	1
H	0.516716	2.338634	1.072384	1
H	3.543797	0.290795	-0.426396	1
Es	3.177298	0.297774	-0.426075	99
Es	1.894937	0.185770	-0.088062	99
Es	-0.671670	-1.901857	0.552868	99
Es	-0.406098	-0.400139	-0.562494	99
Es	-1.454458	-1.059169	-0.859250	99
Es	1.894900	0.632931	-0.506751	99
Es	-0.657870	2.396036	1.217942	99
Es	1.287414	0.297603	-0.427845	99
Es	-0.404453	0.548997	0.219137	99
Es	-0.450435	2.231706	1.037420	99
Es	-0.459443	2.256261	0.843945	99
Es	0.084776	2.273320	1.065344	99
Es	-0.704053	-1.106641	-0.722852	99
Es	-0.501444	-1.993194	0.375406	99
Es	-0.374474	0.731999	-0.960464	99
Es	-0.595994	-1.695377	-0.029999	99
Es	-0.374168	-1.393388	-1.329535	99
Es	-0.394790	0.480067	1.479881	99
Es	0.601921	0.294701	-0.424543	99
Es	-0.156197	0.297552	-0.427825	99
Es	-0.521118	1.709495	0.992341	99
Es	-0.704292	0.832280	0.904743	99
Es	1.889943	0.088837	-0.683603	99
Es	-1.452798	0.736660	0.920746	99
Es	2.478140	0.297616	-0.427835	99
Es	-0.706878	-2.431094	0.219094	99
Es	-0.156386	-2.013785	0.412814	99
42
Properties=species:S:1:pos:R:3:Z:I:1 energy=-343.76905331059584 field_type=dipole dipole="0.000000 0.000000 0.000000" charge=0
O	-0.501364	-1.993115	0.375594	8
C	-0.704113	-1.106555	-0.723056	6
C	-0.156304	0.297605	-0.427836	6
C	-0.704364	0.832065	0.904814	6
O	-0.450773	2.232075	1.037104	8
C	1.287696	0.297605	-0.427836	6
C	2.477857	0.297605	-0.427836	6
H	-0.755274	-2.883525	0.075874	1
H	-1.782594	-1.055965	-0.909506	1
H	-0.224103	-1.538195	-1.609206	1
H	-0.489434	0.965605	-1.232966	1
H	-0.267223	0.322915	1.770644	1
H	-1.790524	0.702455	0.948224	1
H	0.516716	2.338634	1.072384	1
H	3.543797	0.290795	-0.426396	1
Es	-1.454544	-1.060034	-0.858270	99
Es	-0.704054	-1.106641	-0.722853	99
Es	-0.409158	-0.400875	-0.565729	99
Es	-0.625675	2.419837	0.853139	99
Es	-0.638340	-2.421328	0.187797	99
Es	2.478140	0.297620	-0.427833	99
Es	1.893923	0.288138	-0.779315	99
Es	0.602120	0.295103	-0.424837	99
Es	-0.534525	1.700905	0.989103	99
Es	-0.580080	-1.720749	-0.017618	99
Es	1.287414	0.297605	-0.427834	99
Es	-0.478047	2.239486	1.238601	99
Es	-0.501458	-1.993205	0.375312	99
Es	-0.704293	0.832280	0.904744	99
Es	1.889088	0.603074	-0.264597	99
Es	-1.452865	0.735626	0.922577	99
Es	-0.397234	0.481849	1.477998	99
Es	-0.374128	-1.394406	-1.329781	99
Es	-0.156196	0.297550	-0.427822	99
Es	1.896778	0.015998	-0.235055	99
Es	-0.404222	0.550878	0.218924	99
Es	-0.156960	-1.992308	0.419717	99
Es	3.177207	0.299669	-0.427558	99
Es	0.085188	2.275564	1.039932	99
Es	-0.450479	2.231792	1.036943	99
Es	-0.756101	-1.906544	0.563419	99
Es	-0.369190	0.728076	-0.954559	99
