43
Properties=species:S:1:pos:R:3:Z:I:1 energy=-270.9185478666586 field_type=dipole dipole="0.000000 0.000000 0.000000" charge=0
C	-3.038112	-1.039376	0.010482	6
C	-1.517762	-1.035126	0.010292	6
C	-0.960562	0.388254	-0.007328	6
C	0.483438	0.388254	-0.007328	6
C	1.673598	0.388254	-0.007328	6
C	3.079597	0.388254	-0.007328	6
C	3.781477	1.526264	-0.007298	6
H	-3.414302	-2.067186	0.023172	1
H	-3.432392	-0.544566	-0.883208	1
H	-3.432222	-0.522706	0.891792	1
H	-1.156732	-1.591236	-0.863408	1
H	-1.156572	-1.569506	0.897392	1
H	-1.332212	0.938044	0.865482	1
H	-1.332232	0.916274	-0.893468	1
H	3.593838	-0.568116	-0.007348	1
H	3.295017	2.497004	-0.007278	1
H	4.866138	1.507214	-0.007298	1
Es	-1.271766	-1.409246	-0.589654	99
Es	1.673868	0.388243	-0.007327	99
Es	-0.211395	0.389842	-0.007232	99
Es	3.410456	-0.257487	-0.007328	99
Es	1.105040	0.203112	-0.313885	99
Es	-3.292898	-1.740253	0.019121	99
Es	-3.303301	-0.683241	0.613359	99
Es	1.106056	0.213991	0.305148	99
Es	-0.960448	0.388236	-0.007329	99
Es	-1.196136	0.756393	0.582388	99
Es	-1.271764	-1.394256	0.619326	99
Es	3.781527	1.526335	-0.007298	99
Es	-2.282720	-1.028582	0.010208	99
Es	4.516595	1.518904	-0.007306	99
Es	3.407035	0.948217	-0.327166	99
Es	3.407071	0.948206	0.312494	99
Es	3.079452	0.388161	-0.007331	99
Es	-3.038094	-1.039378	0.010482	99
Es	3.459643	2.183430	-0.007260	99
Es	-1.218372	-0.309287	0.001293	99
Es	1.085860	0.750809	-0.013177	99
Es	-3.303427	-0.698161	-0.600915	99
Es	0.483181	0.388261	-0.007330	99
Es	-1.517785	-1.035064	0.010290	99
Es	2.357651	0.381077	-0.007334	99
Es	-1.195889	0.741558	-0.606059	99
43
Properties=species:S:1:pos:R:3:Z:I:1 energy=-270.9185478666586 field_type=dipole dipole="0.000000 0.000000 0.000000" charge=0
C	-3.038112	-1.039376	0.010482	6
C	-1.517762	-1.035126	0.010292	6
C	-0.960562	0.388254	-0.007328	6
C	0.483438	0.388254	-0.007328	6
C	1.673598	0.388254	-0.007328	6
C	3.079597	0.388254	-0.007328	6
C	3.781477	1.526264	-0.007298	6
H	-3.414302	-2.067186	0.023172	1
H	-3.432392	-0.544566	-0.883208	1
H	-3.432222	-0.522706	0.891792	1
H	-1.156732	-1.591236	-0.863408	1
H	-1.156572	-1.569506	0.897392	1
H	-1.332212	0.938044	0.865482	1
H	-1.332232	0.916274	-0.893468	1
H	3.593838	-0.568116	-0.007348	1
H	3.295017	2.497004	-0.007278	1
H	4.866138	1.507214	-0.007298	1
Es	-1.270871	-1.393068	0.614482	99
Es	1.087180	0.736252	-0.104074	99
Es	3.410706	-0.253901	-0.007225	99
Es	3.459156	2.179759	-0.007371	99
Es	-3.296960	-1.740268	0.019222	99
Es	-0.207505	0.388901	-0.006968	99
Es	-1.196782	0.754984	0.576920	99
Es	-3.303761	-0.684100	0.608335	99
Es	1.095238	0.122611	-0.243652	99
Es	2.355532	0.383537	-0.007542	99
Es	3.781530	1.526337	-0.007300	99
Es	4.520537	1.519570	-0.007468	99
Es	1.673866	0.388254	-0.007332	99
Es	-2.282666	-1.028905	0.010466	99
Es	-1.196547	0.740323	-0.600340	99
Es	-1.219425	-0.309217	0.001086	99
Es	3.407246	0.948077	0.308233	99
Es	-3.303774	-0.699158	-0.596010	99
Es	3.407257	0.948133	-0.323004	99
Es	0.483168	0.388254	-0.007327	99
Es	-1.517784	-1.035065	0.010291	99
Es	1.114233	0.309560	0.325895	99
Es	-1.271045	-1.408078	-0.584964	99
Es	3.079451	0.388162	-0.007330	99
Es	-3.038091	-1.039375	0.010482	99
Es	-0.960448	0.388235	-0.007327	99
43
Properties=species:S:1:pos:R:3:Z:I:1 energy=-270.9185478666586 field_type=dipole dipole="0.000000 0.000000 0.000000" charge=0
C	-3.038112	-1.039376	0.010482	6
C	-1.517762	-1.035126	0.010292	6
C	-0.960562	0.388254	-0.007328	6
C	0.483438	0.388254	-0.007328	6
C	1.673598	0.388254	-0.007328	6
C	3.079597	0.388254	-0.007328	6
C	3.781477	1.526264	-0.007298	6
H	-3.414302	-2.067186	0.023172	1
H	-3.432392	-0.544566	-0.883208	1
H	-3.432222	-0.522706	0.891792	1
H	-1.156732	-1.591236	-0.863408	1
H	-1.156572	-1.569506	0.897392	1
H	-1.332212	0.938044	0.865482	1
H	-1.332232	0.916274	-0.893468	1
H	3.593838	-0.568116	-0.007348	1
H	3.295017	2.497004	-0.007278	1
H	4.866138	1.507214	-0.007298	1
Es	-3.303356	-0.685046	0.605071	99
Es	-1.196348	0.739516	-0.596687	99
Es	3.079450	0.388164	-0.007328	99
Es	4.522090	1.519992	-0.007263	99
Es	0.483164	0.388254	-0.007332	99
Es	-1.271226	-1.407002	-0.581755	99
Es	1.109409	0.558482	-0.299270	99
Es	-1.517784	-1.035063	0.010290	99
Es	1.080398	0.025779	0.005104	99
Es	-0.205870	0.390056	-0.007414	99
Es	-1.196369	0.753793	0.573145	99
Es	1.106746	0.583865	0.272307	99
Es	-3.299575	-1.739976	0.019177	99
Es	3.407360	0.947873	0.306075	99
Es	-3.303559	-0.699706	-0.592672	99
Es	-2.282625	-1.028907	0.010226	99
Es	1.673868	0.388257	-0.007325	99
Es	-1.219955	-0.309069	0.001305	99
Es	-1.271082	-1.392494	0.611298	99
Es	2.354608	0.384257	-0.007364	99
Es	3.781532	1.526340	-0.007302	99
Es	-3.038091	-1.039374	0.010484	99
Es	-0.960448	0.388235	-0.007328	99
Es	3.407268	0.947934	-0.320420	99
Es	3.459270	2.177469	-0.007282	99
Es	3.410565	-0.251814	-0.007562	99
43
Properties=species:S:1:pos:R:3:Z:I:1 energy=-270.9185478666586 field_type=dipole dipole="0.000000 0.000000 0.000000" charge=0
C	-3.038112	-1.039376	0.010482	6
C	-1.517762	-1.035126	0.010292	6
C	-0.960562	0.388254	-0.007328	6
C	0.483438	0.388254	-0.007328	6
C	1.673598	0.388254	-0.007328	6
C	3.079597	0.388254	-0.007328	6
C	3.781477	1.526264	-0.007298	6
H	-3.414302	-2.067186	0.023172	1
H	-3.432392	-0.544566	-0.883208	1
H	-3.432222	-0.522706	0.891792	1
H	-1.156732	-1.591236	-0.863408	1
H	-1.156572	-1.569506	0.897392	1
H	-1.332212	0.938044	0.865482	1
H	-1.332232	0.916274	-0.893468	1
H	3.593838	-0.568116	-0.007348	1
H	3.295017	2.497004	-0.007278	1
H	4.866138	1.507214	-0.007298	1
Es	-0.204906	0.390771	-0.007482	99
Es	-1.195501	0.752778	0.569856	99
Es	-1.220543	-0.309073	0.001662	99
Es	3.407282	0.947851	-0.319555	99
Es	4.522878	1.520353	-0.007173	99
Es	-1.271515	-1.391887	0.608526	99
Es	3.410123	-0.250019	-0.007306	99
Es	1.105567	0.594796	0.262289	99
Es	1.673870	0.388254	-0.007330	99
Es	0.483161	0.388254	-0.007331	99
Es	-1.517785	-1.035063	0.010291	99
Es	-1.195836	0.738786	-0.593588	99
Es	-0.960449	0.388237	-0.007322	99
Es	1.110735	0.547969	-0.297459	99
Es	1.080229	0.025308	0.013302	99
Es	-3.038092	-1.039375	0.010482	99
Es	-3.302883	-0.700242	-0.590034	99
Es	3.459809	2.175586	-0.007306	99
Es	-3.302654	-0.685578	0.602276	99
Es	-3.301997	-1.739582	0.019295	99
Es	3.781532	1.526338	-0.007298	99
Es	3.407280	0.948002	0.304873	99
Es	-2.282648	-1.029227	0.010265	99
Es	3.079454	0.388162	-0.007321	99
Es	-1.271708	-1.406106	-0.579139	99
Es	2.354038	0.384523	-0.007294	99
43
Properties=species:S:1:pos:R:3:Z:I:1 energy=-270.9185478666586 field_type=dipole dipole="0.000000 0.000000 0.000000" charge=0
C	-3.038112	-1.039376	0.010482	6
C	-1.517762	-1.035126	0.010292	6
C	-0.960562	0.388254	-0.007328	6
C	0.483438	0.388254	-0.007328	6
C	1.673598	0.388254	-0.007328	6
C	3.079597	0.388254	-0.007328	6
C	3.781477	1.526264	-0.007298	6
H	-3.414302	-2.067186	0.023172	1
H	-3.432392	-0.544566	-0.883208	1
H	-3.432222	-0.522706	0.891792	1
H	-1.156732	-1.591236	-0.863408	1
H	-1.156572	-1.569506	0.897392	1
H	-1.332212	0.938044	0.865482	1
H	-1.332232	0.916274	-0.893468	1
H	3.593838	-0.568116	-0.007348	1
H	3.295017	2.497004	-0.007278	1
H	4.866138	1.507214	-0.007298	1
Es	-3.304170	-1.739042	0.018731	99
Es	4.523367	1.520713	-0.007418	99
Es	1.080745	0.029906	-0.067399	99
Es	1.100395	0.637568	-0.246180	99
Es	3.460646	2.173722	-0.007111	99
Es	2.353713	0.384372	-0.007381	99
Es	3.409403	-0.248432	-0.007654	99
Es	1.115347	0.500774	0.291509	99
Es	-3.302493	-0.685365	0.600406	99
Es	3.407428	0.947851	0.304612	99
Es	0.483160	0.388252	-0.007323	99
Es	-3.301490	-0.701319	-0.587303	99
Es	3.781533	1.526338	-0.007297	99
Es	-2.282610	-1.029535	0.010309	99
Es	-1.517785	-1.035063	0.010292	99
Es	-1.272600	-1.390531	0.606069	99
Es	3.407028	0.948127	-0.319115	99
Es	-0.960448	0.388234	-0.007329	99
Es	1.673872	0.388256	-0.007327	99
Es	3.079448	0.388161	-0.007327	99
Es	-1.221071	-0.308916	0.001035	99
Es	-3.038091	-1.039375	0.010482	99
Es	-1.195475	0.752812	0.567865	99
Es	-0.204361	0.391159	-0.007318	99
Es	-1.194248	0.737378	-0.590467	99
Es	-1.271803	-1.406228	-0.577181	99
43
Properties=species:S:1:pos:R:3:Z:I:1 energy=-270.9185478666586 field_type=dipole dipole="0.000000 0.000000 0.000000" charge=0
C	-3.038112	-1.039376	0.010482	6
C	-1.517762	-1.035126	0.010292	6
C	-0.960562	0.388254	-0.007328	6
C	0.483438	0.388254	-0.007328	6
C	1.673598	0.388254	-0.007328	6
C	3.079597	0.388254	-0.007328	6
C	3.781477	1.526264	-0.007298	6
H	-3.414302	-2.067186	0.023172	1
H	-3.432392	-0.544566	-0.883208	1
H	-3.432222	-0.522706	0.891792	1
H	-1.156732	-1.591236	-0.863408	1
H	-1.156572	-1.569506	0.897392	1
H	-1.332212	0.938044	0.865482	1
H	-1.332232	0.916274	-0.893468	1
H	3.593838	-0.568116	-0.007348	1
H	3.295017	2.497004	-0.007278	1
H	4.866138	1.507214	-0.007298	1
Es	4.523663	1.520822	-0.007336	99
Es	0.483161	0.388245	-0.007330	99
Es	-0.204040	0.391425	-0.007384	99
Es	1.673872	0.388258	-0.007326	99
Es	-3.300272	-0.701807	-0.584997	99
Es	-3.038091	-1.039373	0.010479	99
Es	1.080724	0.030826	-0.073878	99
Es	3.408349	-0.247036	-0.007978	99
Es	3.407684	0.947868	0.304908	99
Es	-1.273777	-1.389619	0.603910	99
Es	-1.221302	-0.308767	0.001153	99
Es	-1.192998	0.736384	-0.588194	99
Es	3.406640	0.948276	-0.319447	99
Es	3.781533	1.526337	-0.007299	99
Es	-1.272061	-1.406168	-0.575494	99
Es	2.353525	0.384150	-0.007514	99
Es	3.461856	2.171948	-0.006779	99
Es	1.117468	0.483701	0.285433	99
Es	1.098262	0.653947	-0.233518	99
Es	3.079447	0.388160	-0.007328	99
Es	-0.960447	0.388236	-0.007328	99
Es	-1.517786	-1.035063	0.010291	99
Es	-3.306259	-1.738331	0.018031	99
Es	-3.302012	-0.685514	0.598802	99
Es	-2.282581	-1.029776	0.010288	99
Es	-1.195117	0.752686	0.566015	99
43
Properties=species:S:1:pos:R:3:Z:I:1 energy=-270.9185478666586 field_type=dipole dipole="0.000000 0.000000 0.000000" charge=0
C	-3.038112	-1.039376	0.010482	6
C	-1.517762	-1.035126	0.010292	6
C	-0.960562	0.388254	-0.007328	6
C	0.483438	0.388254	-0.007328	6
C	1.673598	0.388254	-0.007328	6
C	3.079597	0.388254	-0.007328	6
C	3.781477	1.526264	-0.007298	6
H	-3.414302	-2.067186	0.023172	1
H	-3.432392	-0.544566	-0.883208	1
H	-3.432222	-0.522706	0.891792	1
H	-1.156732	-1.591236	-0.863408	1
H	-1.156572	-1.569506	0.897392	1
H	-1.332212	0.938044	0.865482	1
H	-1.332232	0.916274	-0.893468	1
H	3.593838	-0.568116	-0.007348	1
H	3.295017	2.497004	-0.007278	1
H	4.866138	1.507214	-0.007298	1
Es	3.462913	2.170496	-0.007706	99
Es	-3.038091	-1.039375	0.010480	99
Es	-1.272590	-1.391388	0.603458	99
Es	-0.960449	0.388238	-0.007327	99
Es	3.407555	-0.245947	-0.006854	99
Es	1.080384	0.029384	0.055135	99
Es	0.483159	0.388249	-0.007331	99
Es	-0.203869	0.391755	-0.007330	99
Es	-3.301485	-0.700079	-0.584742	99
Es	-1.274610	-1.403502	-0.572806	99
Es	-2.282554	-1.029917	0.010293	99
Es	-3.299240	-0.687880	0.595768	99
Es	-1.192078	0.750030	0.562719	99
Es	1.673873	0.388256	-0.007327	99
Es	3.079446	0.388160	-0.007330	99
Es	-1.194078	0.737988	-0.587559	99
Es	2.353408	0.383941	-0.007157	99
Es	-1.221927	-0.308612	0.001485	99
Es	3.407365	0.947883	-0.319706	99
Es	-1.517786	-1.035062	0.010289	99
Es	4.523859	1.520746	-0.007109	99
Es	1.118208	0.482131	-0.292401	99
Es	3.781533	1.526337	-0.007300	99
Es	-3.308075	-1.737529	0.020187	99
Es	1.097852	0.656990	0.215340	99
Es	3.406719	0.948521	0.305009	99
43
Properties=species:S:1:pos:R:3:Z:I:1 energy=-270.9185478666586 field_type=dipole dipole="0.000000 0.000000 0.000000" charge=0
C	-3.038112	-1.039376	0.010482	6
C	-1.517762	-1.035126	0.010292	6
C	-0.960562	0.388254	-0.007328	6
C	0.483438	0.388254	-0.007328	6
C	1.673598	0.388254	-0.007328	6
C	3.079597	0.388254	-0.007328	6
C	3.781477	1.526264	-0.007298	6
H	-3.414302	-2.067186	0.023172	1
H	-3.432392	-0.544566	-0.883208	1
H	-3.432222	-0.522706	0.891792	1
H	-1.156732	-1.591236	-0.863408	1
H	-1.156572	-1.569506	0.897392	1
H	-1.332212	0.938044	0.865482	1
H	-1.332232	0.916274	-0.893468	1
H	3.593838	-0.568116	-0.007348	1
H	3.295017	2.497004	-0.007278	1
H	4.866138	1.507214	-0.007298	1
Es	1.096231	0.669619	-0.217232	99
Es	-1.517786	-1.035063	0.010291	99
Es	-3.038090	-1.039374	0.010482	99
Es	4.523997	1.520542	-0.007347	99
Es	-3.300684	-0.685596	0.595566	99
Es	0.483159	0.388250	-0.007326	99
Es	1.119577	0.467282	0.275675	99
Es	3.406181	0.948904	-0.320359	99
Es	3.079446	0.388160	-0.007336	99
Es	3.407081	0.948392	0.305853	99
Es	-0.203756	0.391993	-0.007513	99
Es	-2.282536	-1.030071	0.010249	99
Es	-1.193761	0.752299	0.562488	99
Es	-1.190546	0.734752	-0.584087	99
Es	-3.310004	-1.736706	0.017881	99
Es	1.080624	0.031648	-0.080445	99
Es	2.353339	0.383837	-0.007408	99
Es	-1.275578	-1.388310	0.600472	99
Es	3.464573	2.168579	-0.006851	99
Es	3.406729	-0.245061	-0.007922	99
Es	-0.960446	0.388234	-0.007326	99
Es	3.781534	1.526338	-0.007296	99
Es	-1.222280	-0.308485	0.001067	99
Es	1.673874	0.388254	-0.007328	99
Es	-3.298290	-0.702893	-0.581560	99
Es	-1.273144	-1.405710	-0.572510	99
43
Properties=species:S:1:pos:R:3:Z:I:1 energy=-270.9185478666586 field_type=dipole dipole="0.000000 0.000000 0.000000" charge=0
C	-3.038112	-1.039376	0.010482	6
C	-1.517762	-1.035126	0.010292	6
C	-0.960562	0.388254	-0.007328	6
C	0.483438	0.388254	-0.007328	6
C	1.673598	0.388254	-0.007328	6
C	3.079597	0.388254	-0.007328	6
C	3.781477	1.526264	-0.007298	6
H	-3.414302	-2.067186	0.023172	1
H	-3.432392	-0.544566	-0.883208	1
H	-3.432222	-0.522706	0.891792	1
H	-1.156732	-1.591236	-0.863408	1
H	-1.156572	-1.569506	0.897392	1
H	-1.332212	0.938044	0.865482	1
H	-1.332232	0.916274	-0.893468	1
H	3.593838	-0.568116	-0.007348	1
H	3.295017	2.497004	-0.007278	1
H	4.866138	1.507214	-0.007298	1
Es	3.407083	0.948690	0.306791	99
Es	-2.282510	-1.030459	0.010311	99
Es	1.121250	0.449823	0.270147	99
Es	3.405441	-0.243849	-0.007725	99
Es	0.483158	0.388246	-0.007328	99
Es	-1.517786	-1.035062	0.010290	99
Es	2.353305	0.383576	-0.007357	99
Es	3.466166	2.166636	-0.006618	99
Es	3.405894	0.949190	-0.321776	99
Es	-1.189559	0.734095	-0.582529	99
Es	1.673874	0.388257	-0.007331	99
Es	-1.273910	-1.405308	-0.570974	99
Es	-3.038091	-1.039374	0.010483	99
Es	1.080904	0.034323	-0.090254	99
Es	-1.193022	0.752096	0.561047	99
Es	3.079446	0.388161	-0.007331	99
Es	-3.297435	-0.703050	-0.580028	99
Es	-1.276294	-1.387782	0.599036	99
Es	3.781534	1.526337	-0.007296	99
Es	-0.960447	0.388234	-0.007327	99
Es	-1.222544	-0.308316	0.000883	99
Es	4.524083	1.520361	-0.007390	99
Es	1.094258	0.684604	-0.201963	99
Es	-3.311591	-1.735758	0.017241	99
Es	-3.300084	-0.685844	0.594645	99
Es	-0.203681	0.391988	-0.007467	99
