46
Properties=species:S:1:pos:R:3:Z:I:1 energy=-325.1271964843307 field_type=dipole dipole="0.000000 0.000000 0.000000" charge=0
C	-2.444499	-0.295023	-0.372707	6
C	-0.939929	-0.153873	-0.475937	6
C	-0.275309	0.907767	0.424793	6
C	0.773101	-0.183273	0.740433	6
C	2.057662	-0.188303	-0.091247	6
O	2.893651	0.896087	0.302573	8
N	-0.225469	-1.192563	0.298233	7
H	-2.790169	-1.182943	-0.912767	1
H	-2.940218	0.575747	-0.814417	1
H	-2.779948	-0.378483	0.667013	1
H	-0.607419	-0.094563	-1.520777	1
H	-0.870209	1.208767	1.295703	1
H	0.083342	1.805597	-0.085357	1
H	1.007761	-0.262633	1.809153	1
H	1.864481	-0.101423	-1.165667	1
H	2.617131	-1.113773	0.079003	1
H	2.435411	1.721967	0.072203	1
H	0.140622	-1.969073	-0.250227	1
Es	2.057776	-0.188115	-0.091175	99
Es	2.893356	0.896120	0.302487	99
Es	0.948048	-0.238602	1.471452	99
Es	-0.708876	-0.109996	-1.198004	99
Es	0.258050	-0.807226	0.486115	99
Es	-0.020100	1.528113	0.072692	99
Es	3.142420	0.885363	0.127011	99
Es	2.627519	1.328599	0.169169	99
Es	-0.939869	-0.153951	-0.475844	99
Es	-2.674588	-0.901410	-0.743624	99
Es	-0.225124	-1.192339	0.297773	99
Es	0.772991	-0.183348	0.740340	99
Es	-0.275279	0.907735	0.424769	99
Es	2.904693	0.886392	0.609691	99
Es	-2.665373	-0.347374	0.334268	99
Es	-0.660639	0.450151	-0.055602	99
Es	-0.426741	-1.299929	0.567950	99
Es	-0.681288	1.104806	1.014823	99
Es	0.013752	-1.649390	-0.052220	99
Es	-2.444499	-0.295013	-0.372731	99
Es	2.431689	-0.823906	0.027448	99
Es	-2.778247	0.303411	-0.678099	99
Es	-1.703915	-0.220798	-0.430139	99
Es	2.560564	0.502565	0.142213	99
Es	-0.542538	-0.790359	-0.087802	99
Es	1.406401	-0.180162	0.309466	99
Es	0.306862	0.437037	0.612397	99
Es	1.907841	-0.131082	-0.833416	99
46
Properties=species:S:1:pos:R:3:Z:I:1 energy=-325.1271964843307 field_type=dipole dipole="0.000000 0.000000 0.000000" charge=0
C	-2.444499	-0.295023	-0.372707	6
C	-0.939929	-0.153873	-0.475937	6
C	-0.275309	0.907767	0.424793	6
C	0.773101	-0.183273	0.740433	6
C	2.057662	-0.188303	-0.091247	6
O	2.893651	0.896087	0.302573	8
N	-0.225469	-1.192563	0.298233	7
H	-2.790169	-1.182943	-0.912767	1
H	-2.940218	0.575747	-0.814417	1
H	-2.779948	-0.378483	0.667013	1
H	-0.607419	-0.094563	-1.520777	1
H	-0.870209	1.208767	1.295703	1
H	0.083342	1.805597	-0.085357	1
H	1.007761	-0.262633	1.809153	1
H	1.864481	-0.101423	-1.165667	1
H	2.617131	-1.113773	0.079003	1
H	2.435411	1.721967	0.072203	1
H	0.140622	-1.969073	-0.250227	1
Es	2.906840	0.885595	0.608131	99
Es	-1.704237	-0.220882	-0.429983	99
Es	0.013257	-1.653087	-0.050947	99
Es	2.561276	0.500942	0.141885	99
Es	-2.778338	0.304408	-0.678005	99
Es	3.139241	0.885322	0.128920	99
Es	0.948448	-0.238771	1.471133	99
Es	-0.660842	0.450803	-0.055336	99
Es	-2.444499	-0.295012	-0.372733	99
Es	-0.225136	-1.192345	0.297793	99
Es	-2.664508	-0.347377	0.333825	99
Es	-2.674391	-0.902330	-0.743745	99
Es	-0.939868	-0.153950	-0.475843	99
Es	0.257694	-0.807646	0.487598	99
Es	1.907502	-0.130693	-0.833046	99
Es	-0.020150	1.528315	0.072709	99
Es	1.406241	-0.180112	0.309445	99
Es	2.057779	-0.188115	-0.091171	99
Es	0.306722	0.437643	0.612349	99
Es	2.627555	1.331150	0.169167	99
Es	-0.709340	-0.110080	-1.197817	99
Es	2.893468	0.896118	0.302484	99
Es	-0.681182	1.104700	1.014672	99
Es	-0.275278	0.907736	0.424769	99
Es	-0.543021	-0.790493	-0.087901	99
Es	0.772991	-0.183349	0.740340	99
Es	2.431852	-0.824699	0.027517	99
Es	-0.425189	-1.296500	0.565200	99
46
Properties=species:S:1:pos:R:3:Z:I:1 energy=-325.1271964843307 field_type=dipole dipole="0.000000 0.000000 0.000000" charge=0
C	-2.444499	-0.295023	-0.372707	6
C	-0.939929	-0.153873	-0.475937	6
C	-0.275309	0.907767	0.424793	6
C	0.773101	-0.183273	0.740433	6
C	2.057662	-0.188303	-0.091247	6
O	2.893651	0.896087	0.302573	8
N	-0.225469	-1.192563	0.298233	7
H	-2.790169	-1.182943	-0.912767	1
H	-2.940218	0.575747	-0.814417	1
H	-2.779948	-0.378483	0.667013	1
H	-0.607419	-0.094563	-1.520777	1
H	-0.870209	1.208767	1.295703	1
H	0.083342	1.805597	-0.085357	1
H	1.007761	-0.262633	1.809153	1
H	1.864481	-0.101423	-1.165667	1
H	2.617131	-1.113773	0.079003	1
H	2.435411	1.721967	0.072203	1
H	0.140622	-1.969073	-0.250227	1
Es	2.057778	-0.188114	-0.091174	99
Es	2.562194	0.500099	0.140886	99
Es	2.627268	1.332402	0.169481	99
Es	-0.709679	-0.110161	-1.197845	99
Es	-0.225124	-1.192332	0.297779	99
Es	-0.681220	1.104781	1.014673	99
Es	0.257356	-0.807933	0.488290	99
Es	-0.020240	1.528256	0.072638	99
Es	0.772991	-0.183346	0.740341	99
Es	-2.778255	0.305007	-0.678062	99
Es	-0.423942	-1.294981	0.563673	99
Es	2.431939	-0.825148	0.027631	99
Es	1.907293	-0.130556	-0.832811	99
Es	-0.275279	0.907736	0.424769	99
Es	-0.543662	-0.790377	-0.087524	99
Es	-2.674169	-0.902864	-0.743847	99
Es	-1.704444	-0.221050	-0.429824	99
Es	3.138418	0.885804	0.130996	99
Es	0.306812	0.437940	0.612159	99
Es	2.893368	0.896102	0.302304	99
Es	-2.444502	-0.295014	-0.372729	99
Es	-0.660995	0.451247	-0.055104	99
Es	1.406277	-0.180100	0.309457	99
Es	-2.664034	-0.347342	0.333703	99
Es	0.013097	-1.654845	-0.050580	99
Es	0.948512	-0.238833	1.471071	99
Es	-0.939869	-0.153951	-0.475844	99
Es	2.906999	0.884864	0.606904	99
46
Properties=species:S:1:pos:R:3:Z:I:1 energy=-325.1271964843307 field_type=dipole dipole="0.000000 0.000000 0.000000" charge=0
C	-2.444499	-0.295023	-0.372707	6
C	-0.939929	-0.153873	-0.475937	6
C	-0.275309	0.907767	0.424793	6
C	0.773101	-0.183273	0.740433	6
C	2.057662	-0.188303	-0.091247	6
O	2.893651	0.896087	0.302573	8
N	-0.225469	-1.192563	0.298233	7
H	-2.790169	-1.182943	-0.912767	1
H	-2.940218	0.575747	-0.814417	1
H	-2.779948	-0.378483	0.667013	1
H	-0.607419	-0.094563	-1.520777	1
H	-0.870209	1.208767	1.295703	1
H	0.083342	1.805597	-0.085357	1
H	1.007761	-0.262633	1.809153	1
H	1.864481	-0.101423	-1.165667	1
H	2.617131	-1.113773	0.079003	1
H	2.435411	1.721967	0.072203	1
H	0.140622	-1.969073	-0.250227	1
Es	0.013085	-1.655777	-0.050469	99
Es	-0.660910	0.451477	-0.054961	99
Es	0.257070	-0.807965	0.488119	99
Es	-0.681385	1.104760	1.014770	99
Es	-2.663777	-0.347328	0.333634	99
Es	-2.674011	-0.903214	-0.743992	99
Es	0.948582	-0.239022	1.470811	99
Es	-2.444500	-0.295013	-0.372731	99
Es	0.772990	-0.183348	0.740339	99
Es	-0.939867	-0.153952	-0.475843	99
Es	3.134175	0.887264	0.130097	99
Es	-0.225127	-1.192338	0.297778	99
Es	-0.020276	1.528263	0.072513	99
Es	-0.709877	-0.110219	-1.197863	99
Es	-2.778127	0.305390	-0.678066	99
Es	-0.422459	-1.294215	0.563077	99
Es	-0.275280	0.907737	0.424769	99
Es	2.626413	1.333493	0.171501	99
Es	2.893310	0.896121	0.302407	99
Es	1.406227	-0.180179	0.309572	99
Es	2.563252	0.499634	0.139278	99
Es	-1.704617	-0.221081	-0.429680	99
Es	2.910999	0.882819	0.607293	99
Es	1.907201	-0.130404	-0.832589	99
Es	-0.544848	-0.790452	-0.086894	99
Es	0.306802	0.438355	0.612179	99
Es	2.432060	-0.825401	0.027532	99
Es	2.057781	-0.188112	-0.091171	99
46
Properties=species:S:1:pos:R:3:Z:I:1 energy=-325.1271964843307 field_type=dipole dipole="0.000000 0.000000 0.000000" charge=0
C	-2.444499	-0.295023	-0.372707	6
C	-0.939929	-0.153873	-0.475937	6
C	-0.275309	0.907767	0.424793	6
C	0.773101	-0.183273	0.740433	6
C	2.057662	-0.188303	-0.091247	6
O	2.893651	0.896087	0.302573	8
N	-0.225469	-1.192563	0.298233	7
H	-2.790169	-1.182943	-0.912767	1
H	-2.940218	0.575747	-0.814417	1
H	-2.779948	-0.378483	0.667013	1
H	-0.607419	-0.094563	-1.520777	1
H	-0.870209	1.208767	1.295703	1
H	0.083342	1.805597	-0.085357	1
H	1.007761	-0.262633	1.809153	1
H	1.864481	-0.101423	-1.165667	1
H	2.617131	-1.113773	0.079003	1
H	2.435411	1.721967	0.072203	1
H	0.140622	-1.969073	-0.250227	1
Es	2.626658	1.334627	0.171935	99
Es	1.406201	-0.180156	0.309554	99
Es	2.563023	0.499175	0.139714	99
Es	-0.225121	-1.192336	0.297779	99
Es	-0.275278	0.907736	0.424770	99
Es	-0.710052	-0.110285	-1.197873	99
Es	-2.778083	0.305668	-0.678139	99
Es	2.912378	0.882528	0.606093	99
Es	-1.704757	-0.221197	-0.429643	99
Es	0.256845	-0.808247	0.487881	99
Es	-0.939869	-0.153951	-0.475844	99
Es	0.012873	-1.656939	-0.050069	99
Es	-0.544185	-0.790362	-0.087056	99
Es	-0.681418	1.104811	1.014842	99
Es	3.132750	0.886926	0.130417	99
Es	0.772991	-0.183347	0.740338	99
Es	0.306846	0.438485	0.612071	99
Es	0.948649	-0.239081	1.470743	99
Es	1.907145	-0.130343	-0.832516	99
Es	-2.673930	-0.903504	-0.743946	99
Es	-2.663487	-0.347230	0.333589	99
Es	-2.444498	-0.295013	-0.372731	99
Es	2.432079	-0.825593	0.027615	99
Es	2.057777	-0.188114	-0.091174	99
Es	-0.020283	1.528175	0.072609	99
Es	-0.660998	0.451778	-0.055006	99
Es	2.893275	0.896101	0.302418	99
Es	-0.422645	-1.293019	0.563042	99
46
Properties=species:S:1:pos:R:3:Z:I:1 energy=-325.1271964843307 field_type=dipole dipole="0.000000 0.000000 0.000000" charge=0
C	-2.444499	-0.295023	-0.372707	6
C	-0.939929	-0.153873	-0.475937	6
C	-0.275309	0.907767	0.424793	6
C	0.773101	-0.183273	0.740433	6
C	2.057662	-0.188303	-0.091247	6
O	2.893651	0.896087	0.302573	8
N	-0.225469	-1.192563	0.298233	7
H	-2.790169	-1.182943	-0.912767	1
H	-2.940218	0.575747	-0.814417	1
H	-2.779948	-0.378483	0.667013	1
H	-0.607419	-0.094563	-1.520777	1
H	-0.870209	1.208767	1.295703	1
H	0.083342	1.805597	-0.085357	1
H	1.007761	-0.262633	1.809153	1
H	1.864481	-0.101423	-1.165667	1
H	2.617131	-1.113773	0.079003	1
H	2.435411	1.721967	0.072203	1
H	0.140622	-1.969073	-0.250227	1
Es	0.948687	-0.239132	1.470601	99
Es	-1.704855	-0.221165	-0.429672	99
Es	0.012481	-1.658219	-0.049572	99
Es	2.057779	-0.188118	-0.091173	99
Es	-2.778020	0.305833	-0.678083	99
Es	-0.710166	-0.110337	-1.197906	99
Es	-0.681550	1.104910	1.014936	99
Es	0.256730	-0.808567	0.488516	99
Es	-2.663274	-0.347237	0.333633	99
Es	1.406128	-0.180192	0.309540	99
Es	2.909434	0.882687	0.606329	99
Es	-0.939868	-0.153951	-0.475843	99
Es	-0.225149	-1.192349	0.297811	99
Es	-2.444499	-0.295013	-0.372732	99
Es	2.627245	1.334854	0.170321	99
Es	-0.275279	0.907737	0.424769	99
Es	0.306771	0.438630	0.612011	99
Es	3.133925	0.886802	0.133207	99
Es	1.907159	-0.130315	-0.832366	99
Es	0.772994	-0.183347	0.740340	99
Es	-0.422549	-1.291749	0.562029	99
Es	-2.673874	-0.903661	-0.744049	99
Es	2.564116	0.498946	0.138237	99
Es	-0.543754	-0.790179	-0.087185	99
Es	-0.660914	0.451977	-0.054912	99
Es	2.893304	0.896125	0.302462	99
Es	2.432134	-0.825734	0.027606	99
Es	-0.020252	1.528055	0.072554	99
46
Properties=species:S:1:pos:R:3:Z:I:1 energy=-325.1271964843307 field_type=dipole dipole="0.000000 0.000000 0.000000" charge=0
C	-2.444499	-0.295023	-0.372707	6
C	-0.939929	-0.153873	-0.475937	6
C	-0.275309	0.907767	0.424793	6
C	0.773101	-0.183273	0.740433	6
C	2.057662	-0.188303	-0.091247	6
O	2.893651	0.896087	0.302573	8
N	-0.225469	-1.192563	0.298233	7
H	-2.790169	-1.182943	-0.912767	1
H	-2.940218	0.575747	-0.814417	1
H	-2.779948	-0.378483	0.667013	1
H	-0.607419	-0.094563	-1.520777	1
H	-0.870209	1.208767	1.295703	1
H	0.083342	1.805597	-0.085357	1
H	1.007761	-0.262633	1.809153	1
H	1.864481	-0.101423	-1.165667	1
H	2.617131	-1.113773	0.079003	1
H	2.435411	1.721967	0.072203	1
H	0.140622	-1.969073	-0.250227	1
Es	3.128350	0.888406	0.127204	99
Es	-0.710273	-0.110316	-1.197979	99
Es	2.057777	-0.188115	-0.091174	99
Es	0.256567	-0.808634	0.488238	99
Es	-2.663243	-0.347277	0.333570	99
Es	-0.543993	-0.790217	-0.086911	99
Es	0.012598	-1.658441	-0.049655	99
Es	0.306686	0.438701	0.612017	99
Es	2.624964	1.334772	0.174546	99
Es	-0.681518	1.104872	1.014977	99
Es	-2.444499	-0.295013	-0.372731	99
Es	-0.422190	-1.291580	0.562135	99
Es	-0.275279	0.907736	0.424768	99
Es	-1.704936	-0.221164	-0.429438	99
Es	-2.673609	-0.903843	-0.744105	99
Es	2.563332	0.498829	0.140151	99
Es	2.893336	0.896121	0.302385	99
Es	-0.939868	-0.153952	-0.475843	99
Es	0.772991	-0.183348	0.740339	99
Es	-0.225134	-1.192343	0.297788	99
Es	2.432164	-0.825861	0.027515	99
Es	0.948718	-0.239181	1.470479	99
Es	2.918025	0.881297	0.606303	99
Es	-0.020221	1.528109	0.072549	99
Es	1.406106	-0.180157	0.309566	99
Es	-0.661080	0.452081	-0.054855	99
Es	1.907124	-0.130215	-0.832247	99
Es	-2.778008	0.306025	-0.678181	99
46
Properties=species:S:1:pos:R:3:Z:I:1 energy=-325.1271964843307 field_type=dipole dipole="0.000000 0.000000 0.000000" charge=0
C	-2.444499	-0.295023	-0.372707	6
C	-0.939929	-0.153873	-0.475937	6
C	-0.275309	0.907767	0.424793	6
C	0.773101	-0.183273	0.740433	6
C	2.057662	-0.188303	-0.091247	6
O	2.893651	0.896087	0.302573	8
N	-0.225469	-1.192563	0.298233	7
H	-2.790169	-1.182943	-0.912767	1
H	-2.940218	0.575747	-0.814417	1
H	-2.779948	-0.378483	0.667013	1
H	-0.607419	-0.094563	-1.520777	1
H	-0.870209	1.208767	1.295703	1
H	0.083342	1.805597	-0.085357	1
H	1.007761	-0.262633	1.809153	1
H	1.864481	-0.101423	-1.165667	1
H	2.617131	-1.113773	0.079003	1
H	2.435411	1.721967	0.072203	1
H	0.140622	-1.969073	-0.250227	1
Es	1.406137	-0.180227	0.309648	99
Es	-0.681669	1.104817	1.015073	99
Es	1.907067	-0.130190	-0.832148	99
Es	-0.421826	-1.291049	0.561477	99
Es	-2.444499	-0.295013	-0.372731	99
Es	-0.020225	1.528158	0.072370	99
Es	-0.710507	-0.110383	-1.198139	99
Es	-2.673554	-0.904029	-0.744229	99
Es	-0.660899	0.452188	-0.054605	99
Es	-2.663078	-0.347257	0.333547	99
Es	-0.544176	-0.790122	-0.086848	99
Es	2.625704	1.335224	0.173267	99
Es	-2.777919	0.306180	-0.678113	99
Es	2.893338	0.896108	0.302455	99
Es	2.912591	0.881117	0.605675	99
Es	2.057777	-0.188115	-0.091174	99
Es	-0.225108	-1.192334	0.297751	99
Es	-0.275279	0.907737	0.424768	99
Es	-0.939869	-0.153953	-0.475842	99
Es	0.012365	-1.659028	-0.049443	99
Es	-1.704877	-0.221144	-0.429280	99
Es	0.306617	0.438913	0.611965	99
Es	0.948693	-0.239227	1.470365	99
Es	2.564582	0.498722	0.137748	99
Es	2.432247	-0.825954	0.027497	99
Es	3.131745	0.888272	0.131375	99
Es	0.256517	-0.808769	0.488643	99
Es	0.772991	-0.183347	0.740340	99
46
Properties=species:S:1:pos:R:3:Z:I:1 energy=-325.1271964843307 field_type=dipole dipole="0.000000 0.000000 0.000000" charge=0
C	-2.444499	-0.295023	-0.372707	6
C	-0.939929	-0.153873	-0.475937	6
C	-0.275309	0.907767	0.424793	6
C	0.773101	-0.183273	0.740433	6
C	2.057662	-0.188303	-0.091247	6
O	2.893651	0.896087	0.302573	8
N	-0.225469	-1.192563	0.298233	7
H	-2.790169	-1.182943	-0.912767	1
H	-2.940218	0.575747	-0.814417	1
H	-2.779948	-0.378483	0.667013	1
H	-0.607419	-0.094563	-1.520777	1
H	-0.870209	1.208767	1.295703	1
H	0.083342	1.805597	-0.085357	1
H	1.007761	-0.262633	1.809153	1
H	1.864481	-0.101423	-1.165667	1
H	2.617131	-1.113773	0.079003	1
H	2.435411	1.721967	0.072203	1
H	0.140622	-1.969073	-0.250227	1
Es	0.012876	-1.658744	-0.049832	99
Es	0.306659	0.439048	0.612021	99
Es	2.914396	0.880901	0.605407	99
Es	-0.544309	-0.790131	-0.086685	99
Es	-2.673451	-0.904159	-0.744272	99
Es	0.772990	-0.183349	0.740338	99
Es	2.625484	1.335577	0.173842	99
Es	-2.663025	-0.347215	0.333566	99
Es	2.564553	0.498386	0.137999	99
Es	2.057777	-0.188118	-0.091174	99
Es	3.130091	0.888514	0.131047	99
Es	-0.421743	-1.291366	0.561790	99
Es	-0.020282	1.528126	0.072381	99
Es	-0.681698	1.104845	1.015059	99
Es	-0.710418	-0.110330	-1.198020	99
Es	0.948720	-0.239297	1.470335	99
Es	2.893364	0.896109	0.302223	99
Es	-2.777828	0.306286	-0.678175	99
Es	-0.660986	0.452216	-0.054524	99
Es	1.907074	-0.130186	-0.832105	99
Es	-0.275280	0.907737	0.424769	99
Es	-0.225167	-1.192351	0.297836	99
Es	2.432272	-0.826031	0.027558	99
Es	-2.444499	-0.295013	-0.372731	99
Es	-1.705114	-0.221284	-0.429371	99
Es	1.406124	-0.180220	0.309589	99
Es	0.256174	-0.808708	0.488381	99
Es	-0.939868	-0.153951	-0.475843	99
46
Properties=species:S:1:pos:R:3:Z:I:1 energy=-325.1271964843307 field_type=dipole dipole="0.000000 0.000000 0.000000" charge=0
C	-2.444499	-0.295023	-0.372707	6
C	-0.939929	-0.153873	-0.475937	6
C	-0.275309	0.907767	0.424793	6
C	0.773101	-0.183273	0.740433	6
C	2.057662	-0.188303	-0.091247	6
O	2.893651	0.896087	0.302573	8
N	-0.225469	-1.192563	0.298233	7
H	-2.790169	-1.182943	-0.912767	1
H	-2.940218	0.575747	-0.814417	1
H	-2.779948	-0.378483	0.667013	1
H	-0.607419	-0.094563	-1.520777	1
H	-0.870209	1.208767	1.295703	1
H	0.083342	1.805597	-0.085357	1
H	1.007761	-0.262633	1.809153	1
H	1.864481	-0.101423	-1.165667	1
H	2.617131	-1.113773	0.079003	1
H	2.435411	1.721967	0.072203	1
H	0.140622	-1.969073	-0.250227	1
Es	0.948771	-0.239338	1.470299	99
Es	-2.662834	-0.347233	0.333574	99
Es	0.012637	-1.659441	-0.049390	99
Es	3.132580	0.889035	0.132846	99
Es	2.057777	-0.188116	-0.091174	99
Es	-0.710602	-0.110374	-1.198107	99
Es	-0.939867	-0.153953	-0.475841	99
Es	-0.225124	-1.192337	0.297769	99
Es	1.406128	-0.180141	0.309546	99
Es	-0.661044	0.452421	-0.054528	99
Es	0.256202	-0.808784	0.488799	99
Es	0.306515	0.438954	0.611945	99
Es	-0.543955	-0.790193	-0.086817	99
Es	-2.444498	-0.295014	-0.372730	99
Es	-0.421843	-1.290681	0.561195	99
Es	-1.705166	-0.221211	-0.429282	99
Es	-0.275278	0.907737	0.424769	99
Es	-2.673419	-0.904291	-0.744381	99
Es	2.893283	0.896131	0.302449	99
Es	2.625357	1.335372	0.173800	99
Es	2.432322	-0.826150	0.027571	99
Es	-2.777770	0.306439	-0.678081	99
Es	2.565588	0.498516	0.136172	99
Es	-0.020226	1.528212	0.072379	99
Es	-0.681677	1.104767	1.015095	99
Es	1.907007	-0.130143	-0.832028	99
Es	0.772991	-0.183348	0.740339	99
Es	2.911032	0.880455	0.605222	99
46
Properties=species:S:1:pos:R:3:Z:I:1 energy=-325.1271964843307 field_type=dipole dipole="0.000000 0.000000 0.000000" charge=0
C	-2.444499	-0.295023	-0.372707	6
C	-0.939929	-0.153873	-0.475937	6
C	-0.275309	0.907767	0.424793	6
C	0.773101	-0.183273	0.740433	6
C	2.057662	-0.188303	-0.091247	6
O	2.893651	0.896087	0.302573	8
N	-0.225469	-1.192563	0.298233	7
H	-2.790169	-1.182943	-0.912767	1
H	-2.940218	0.575747	-0.814417	1
H	-2.779948	-0.378483	0.667013	1
H	-0.607419	-0.094563	-1.520777	1
H	-0.870209	1.208767	1.295703	1
H	0.083342	1.805597	-0.085357	1
H	1.007761	-0.262633	1.809153	1
H	1.864481	-0.101423	-1.165667	1
H	2.617131	-1.113773	0.079003	1
H	2.435411	1.721967	0.072203	1
H	0.140622	-1.969073	-0.250227	1
Es	-2.777731	0.306458	-0.678151	99
Es	-2.444498	-0.295013	-0.372731	99
Es	0.012775	-1.659690	-0.049357	99
Es	2.625472	1.335672	0.173802	99
Es	2.057777	-0.188115	-0.091174	99
Es	2.565167	0.498298	0.137088	99
Es	-0.710582	-0.110398	-1.198098	99
Es	-0.225122	-1.192336	0.297773	99
Es	-0.661076	0.452610	-0.054512	99
Es	-0.544227	-0.790129	-0.086680	99
Es	-2.662809	-0.347157	0.333588	99
Es	2.893338	0.896083	0.302394	99
Es	0.772991	-0.183348	0.740339	99
Es	-1.705212	-0.221211	-0.429308	99
Es	-0.939868	-0.153950	-0.475843	99
Es	1.406071	-0.180184	0.309616	99
Es	2.432302	-0.826160	0.027476	99
Es	-2.673345	-0.904404	-0.744370	99
Es	0.255922	-0.808912	0.488547	99
Es	-0.421501	-1.290457	0.561288	99
Es	-0.681769	1.104939	1.015204	99
Es	2.913158	0.880652	0.605274	99
Es	0.306539	0.438909	0.611854	99
Es	3.130746	0.888798	0.131968	99
Es	1.907032	-0.130105	-0.831975	99
Es	-0.275280	0.907736	0.424768	99
Es	-0.020141	1.528009	0.072389	99
Es	0.948760	-0.239300	1.470240	99
46
Properties=species:S:1:pos:R:3:Z:I:1 energy=-325.1271964843307 field_type=dipole dipole="0.000000 0.000000 0.000000" charge=0
C	-2.444499	-0.295023	-0.372707	6
C	-0.939929	-0.153873	-0.475937	6
C	-0.275309	0.907767	0.424793	6
C	0.773101	-0.183273	0.740433	6
C	2.057662	-0.188303	-0.091247	6
O	2.893651	0.896087	0.302573	8
N	-0.225469	-1.192563	0.298233	7
H	-2.790169	-1.182943	-0.912767	1
H	-2.940218	0.575747	-0.814417	1
H	-2.779948	-0.378483	0.667013	1
H	-0.607419	-0.094563	-1.520777	1
H	-0.870209	1.208767	1.295703	1
H	0.083342	1.805597	-0.085357	1
H	1.007761	-0.262633	1.809153	1
H	1.864481	-0.101423	-1.165667	1
H	2.617131	-1.113773	0.079003	1
H	2.435411	1.721967	0.072203	1
H	0.140622	-1.969073	-0.250227	1
Es	3.131735	0.888593	0.133215	99
Es	-0.020195	1.527989	0.072415	99
Es	-2.662839	-0.347258	0.333675	99
Es	-0.275280	0.907737	0.424769	99
Es	-0.681742	1.104938	1.015248	99
Es	1.406193	-0.180257	0.309560	99
Es	0.255826	-0.808998	0.488825	99
Es	2.432311	-0.826234	0.027552	99
Es	-0.544129	-0.789970	-0.086642	99
Es	-0.710603	-0.110432	-1.198225	99
Es	2.565396	0.498187	0.136823	99
Es	0.306529	0.439175	0.611855	99
Es	2.911683	0.880625	0.604578	99
Es	-2.444498	-0.295013	-0.372731	99
Es	-1.705242	-0.221268	-0.429223	99
Es	-0.421489	-1.290134	0.560988	99
Es	0.772990	-0.183347	0.740338	99
Es	1.906987	-0.130070	-0.831994	99
Es	-2.777746	0.306537	-0.678296	99
Es	-2.673110	-0.904365	-0.744381	99
Es	-0.661100	0.452501	-0.054428	99
Es	0.012673	-1.660023	-0.049352	99
Es	-0.225145	-1.192350	0.297805	99
Es	0.948757	-0.239297	1.470136	99
Es	2.625634	1.335978	0.173562	99
Es	2.893383	0.896112	0.302356	99
Es	-0.939868	-0.153952	-0.475843	99
Es	2.057777	-0.188114	-0.091174	99
46
Properties=species:S:1:pos:R:3:Z:I:1 energy=-325.1271964843307 field_type=dipole dipole="0.000000 0.000000 0.000000" charge=0
C	-2.444499	-0.295023	-0.372707	6
C	-0.939929	-0.153873	-0.475937	6
C	-0.275309	0.907767	0.424793	6
C	0.773101	-0.183273	0.740433	6
C	2.057662	-0.188303	-0.091247	6
O	2.893651	0.896087	0.302573	8
N	-0.225469	-1.192563	0.298233	7
H	-2.790169	-1.182943	-0.912767	1
H	-2.940218	0.575747	-0.814417	1
H	-2.779948	-0.378483	0.667013	1
H	-0.607419	-0.094563	-1.520777	1
H	-0.870209	1.208767	1.295703	1
H	0.083342	1.805597	-0.085357	1
H	1.007761	-0.262633	1.809153	1
H	1.864481	-0.101423	-1.165667	1
H	2.617131	-1.113773	0.079003	1
H	2.435411	1.721967	0.072203	1
H	0.140622	-1.969073	-0.250227	1
Es	-0.939868	-0.153951	-0.475843	99
Es	1.907007	-0.130055	-0.831895	99
Es	2.624877	1.335813	0.174590	99
Es	1.406043	-0.180146	0.309624	99
Es	0.255891	-0.808924	0.488270	99
Es	2.911976	0.880146	0.604414	99
Es	-0.421294	-1.290320	0.561427	99
Es	2.057777	-0.188115	-0.091174	99
Es	-1.705359	-0.221204	-0.429247	99
Es	3.131161	0.889922	0.133476	99
Es	0.772990	-0.183348	0.740338	99
Es	-0.544335	-0.790168	-0.086430	99
Es	0.948789	-0.239342	1.470170	99
Es	0.012743	-1.659852	-0.049507	99
Es	-0.681791	1.104832	1.015233	99
Es	-0.275279	0.907737	0.424769	99
Es	-0.710723	-0.110419	-1.198160	99
Es	-2.662717	-0.347178	0.333722	99
Es	-0.661102	0.452761	-0.054368	99
Es	-0.225122	-1.192337	0.297772	99
Es	0.306556	0.438957	0.611816	99
Es	2.566471	0.497518	0.135573	99
Es	2.432342	-0.826263	0.027467	99
Es	-0.020205	1.528116	0.072338	99
Es	-2.777683	0.306535	-0.678221	99
Es	-2.444498	-0.295013	-0.372731	99
Es	2.893357	0.896095	0.302453	99
Es	-2.673114	-0.904507	-0.744468	99
46
Properties=species:S:1:pos:R:3:Z:I:1 energy=-325.1271964843307 field_type=dipole dipole="0.000000 0.000000 0.000000" charge=0
C	-2.444499	-0.295023	-0.372707	6
C	-0.939929	-0.153873	-0.475937	6
C	-0.275309	0.907767	0.424793	6
C	0.773101	-0.183273	0.740433	6
C	2.057662	-0.188303	-0.091247	6
O	2.893651	0.896087	0.302573	8
N	-0.225469	-1.192563	0.298233	7
H	-2.790169	-1.182943	-0.912767	1
H	-2.940218	0.575747	-0.814417	1
H	-2.779948	-0.378483	0.667013	1
H	-0.607419	-0.094563	-1.520777	1
H	-0.870209	1.208767	1.295703	1
H	0.083342	1.805597	-0.085357	1
H	1.007761	-0.262633	1.809153	1
H	1.864481	-0.101423	-1.165667	1
H	2.617131	-1.113773	0.079003	1
H	2.435411	1.721967	0.072203	1
H	0.140622	-1.969073	-0.250227	1
Es	-0.681934	1.104993	1.015318	99
Es	2.057776	-0.188116	-0.091174	99
Es	1.907032	-0.130081	-0.831819	99
Es	0.772990	-0.183348	0.740339	99
Es	-0.275280	0.907737	0.424769	99
Es	2.893355	0.896111	0.302293	99
Es	-0.020203	1.527913	0.072304	99
Es	-2.444499	-0.295013	-0.372731	99
Es	0.306603	0.439230	0.611806	99
Es	-0.225124	-1.192335	0.297770	99
Es	2.908510	0.880793	0.604256	99
Es	3.133563	0.888393	0.135887	99
Es	-0.661094	0.452677	-0.054270	99
Es	2.566156	0.498058	0.135624	99
Es	0.255793	-0.808935	0.488797	99
Es	-0.544169	-0.790081	-0.086504	99
Es	-0.939867	-0.153951	-0.475842	99
Es	0.948802	-0.239451	1.470214	99
Es	1.405984	-0.180315	0.309565	99
Es	-0.710712	-0.110385	-1.198258	99
Es	0.012571	-1.660311	-0.049323	99
Es	-2.777579	0.306671	-0.678169	99
Es	2.626250	1.336219	0.172473	99
Es	-2.662686	-0.347200	0.333664	99
Es	-2.673171	-0.904528	-0.744529	99
Es	-0.421338	-1.289876	0.560767	99
Es	2.432335	-0.826296	0.027439	99
Es	-1.705179	-0.221282	-0.429257	99
46
Properties=species:S:1:pos:R:3:Z:I:1 energy=-325.1271964843307 field_type=dipole dipole="0.000000 0.000000 0.000000" charge=0
C	-2.444499	-0.295023	-0.372707	6
C	-0.939929	-0.153873	-0.475937	6
C	-0.275309	0.907767	0.424793	6
C	0.773101	-0.183273	0.740433	6
C	2.057662	-0.188303	-0.091247	6
O	2.893651	0.896087	0.302573	8
N	-0.225469	-1.192563	0.298233	7
H	-2.790169	-1.182943	-0.912767	1
H	-2.940218	0.575747	-0.814417	1
H	-2.779948	-0.378483	0.667013	1
H	-0.607419	-0.094563	-1.520777	1
H	-0.870209	1.208767	1.295703	1
H	0.083342	1.805597	-0.085357	1
H	1.007761	-0.262633	1.809153	1
H	1.864481	-0.101423	-1.165667	1
H	2.617131	-1.113773	0.079003	1
H	2.435411	1.721967	0.072203	1
H	0.140622	-1.969073	-0.250227	1
Es	0.306519	0.439247	0.611906	99
Es	2.057777	-0.188115	-0.091174	99
Es	-0.275280	0.907737	0.424769	99
Es	1.405947	-0.180135	0.309544	99
Es	0.012632	-1.660350	-0.049409	99
Es	0.255714	-0.809127	0.488564	99
Es	1.907141	-0.130023	-0.831767	99
Es	-0.020192	1.527855	0.072262	99
Es	-1.705413	-0.221290	-0.429191	99
Es	0.948773	-0.239407	1.470042	99
Es	3.127940	0.889335	0.129830	99
Es	-0.710745	-0.110410	-1.198219	99
Es	-2.444498	-0.295013	-0.372731	99
Es	-0.544022	-0.790039	-0.086444	99
Es	-0.681910	1.105061	1.015360	99
Es	0.772990	-0.183348	0.740339	99
Es	-2.777548	0.306722	-0.678225	99
Es	2.893539	0.896105	0.302421	99
Es	-0.421391	-1.289814	0.561047	99
Es	-0.225119	-1.192334	0.297761	99
Es	-0.661106	0.452691	-0.054288	99
Es	2.432380	-0.826357	0.027433	99
Es	-0.939868	-0.153952	-0.475843	99
Es	2.624288	1.336087	0.175644	99
Es	-2.673048	-0.904638	-0.744551	99
Es	2.565042	0.497673	0.138573	99
Es	-2.662638	-0.347172	0.333686	99
Es	2.916983	0.880302	0.604073	99
