43
Properties=species:S:1:pos:R:3:Z:I:1 energy=-323.94466886056654 field_type=dipole dipole="0.000000 0.000000 0.000000" charge=0
C	-2.230843	-0.603204	0.441898	6
C	-0.766393	-0.755604	0.211908	6
C	-0.188363	-0.581774	-1.171012	6
N	0.013737	0.430826	-0.133142	7
C	1.359077	0.414316	0.455458	6
C	2.107367	1.616216	-0.069992	6
O	3.281327	1.578996	-0.435132	8
H	-2.418093	-0.261254	1.464648	1
H	-2.734003	-1.565974	0.308158	1
H	-2.687303	0.116506	-0.246122	1
H	-0.322703	-1.495954	0.867748	1
H	-0.851593	-0.299114	-1.980732	1
H	0.644357	-1.208784	-1.466842	1
H	1.937397	-0.489164	0.232278	1
H	1.289017	0.525536	1.542628	1
H	1.567017	2.578436	-0.021752	1
Es	-1.497422	-0.667824	0.321010	99
Es	-2.230818	-0.603216	0.441900	99
Es	2.774743	1.550653	-0.541572	99
Es	2.929043	1.631588	-0.067872	99
Es	3.399832	1.288415	-0.423387	99
Es	-0.323341	-0.039406	0.157050	99
Es	-0.449685	-1.253875	0.660343	99
Es	-2.533597	-0.117140	-0.028277	99
Es	0.027575	0.060761	-0.671708	99
Es	1.316089	0.502792	1.184189	99
Es	0.013994	0.430234	-0.133114	99
Es	-0.150425	0.746871	-0.161044	99
Es	1.726204	2.264468	-0.036531	99
Es	-2.564227	-1.261180	0.351114	99
Es	-2.352899	-0.372611	1.138437	99
Es	-0.188348	-0.581638	-1.170800	99
Es	0.607984	0.391090	0.117539	99
Es	1.728701	1.011681	0.183010	99
Es	1.358961	0.414378	0.455399	99
Es	2.107379	1.616190	-0.069998	99
Es	-0.766273	-0.755426	0.211793	99
Es	-0.638177	-0.389990	-1.720453	99
Es	0.385423	-0.999870	-1.366688	99
Es	3.280992	1.578981	-0.435023	99
Es	3.393997	1.859399	-0.518758	99
Es	1.743270	-0.203334	0.301285	99
Es	-0.564226	-0.860935	-0.550128	99
43
Properties=species:S:1:pos:R:3:Z:I:1 energy=-323.94466886056654 field_type=dipole dipole="0.000000 0.000000 0.000000" charge=0
C	-2.230843	-0.603204	0.441898	6
C	-0.766393	-0.755604	0.211908	6
C	-0.188363	-0.581774	-1.171012	6
N	0.013737	0.430826	-0.133142	7
C	1.359077	0.414316	0.455458	6
C	2.107367	1.616216	-0.069992	6
O	3.281327	1.578996	-0.435132	8
H	-2.418093	-0.261254	1.464648	1
H	-2.734003	-1.565974	0.308158	1
H	-2.687303	0.116506	-0.246122	1
H	-0.322703	-1.495954	0.867748	1
H	-0.851593	-0.299114	-1.980732	1
H	0.644357	-1.208784	-1.466842	1
H	1.937397	-0.489164	0.232278	1
H	1.289017	0.525536	1.542628	1
H	1.567017	2.578436	-0.021752	1
Es	-0.564603	-0.862219	-0.549399	99
Es	0.608522	0.393062	0.117726	99
Es	-0.188351	-0.581625	-1.170800	99
Es	-2.354139	-0.372029	1.138946	99
Es	-2.230818	-0.603216	0.441900	99
Es	0.026655	0.062228	-0.675113	99
Es	3.281006	1.578973	-0.435024	99
Es	-0.637041	-0.389644	-1.719293	99
Es	-2.533228	-0.118886	-0.026881	99
Es	-0.145724	0.740943	-0.162087	99
Es	2.107378	1.616190	-0.069997	99
Es	0.014002	0.430227	-0.133111	99
Es	-0.449842	-1.252177	0.659687	99
Es	2.775564	1.549668	-0.540727	99
Es	1.726683	2.264321	-0.035721	99
Es	1.358959	0.414378	0.455398	99
Es	3.399860	1.858663	-0.523720	99
Es	-2.564809	-1.260105	0.350362	99
Es	-0.328176	-0.038524	0.160615	99
Es	1.728949	1.011794	0.183061	99
Es	-1.497022	-0.667873	0.320691	99
Es	0.386383	-0.999019	-1.367857	99
Es	-0.766272	-0.755415	0.211804	99
Es	3.391875	1.291473	-0.425135	99
Es	1.742643	-0.202648	0.300981	99
Es	1.316372	0.502313	1.184768	99
Es	2.929920	1.630204	-0.063364	99
43
Properties=species:S:1:pos:R:3:Z:I:1 energy=-323.94466886056654 field_type=dipole dipole="0.000000 0.000000 0.000000" charge=0
C	-2.230843	-0.603204	0.441898	6
C	-0.766393	-0.755604	0.211908	6
C	-0.188363	-0.581774	-1.171012	6
N	0.013737	0.430826	-0.133142	7
C	1.359077	0.414316	0.455458	6
C	2.107367	1.616216	-0.069992	6
O	3.281327	1.578996	-0.435132	8
H	-2.418093	-0.261254	1.464648	1
H	-2.734003	-1.565974	0.308158	1
H	-2.687303	0.116506	-0.246122	1
H	-0.322703	-1.495954	0.867748	1
H	-0.851593	-0.299114	-1.980732	1
H	0.644357	-1.208784	-1.466842	1
H	1.937397	-0.489164	0.232278	1
H	1.289017	0.525536	1.542628	1
H	1.567017	2.578436	-0.021752	1
Es	3.383769	1.292739	-0.424158	99
Es	-2.565186	-1.259238	0.349914	99
Es	-0.766265	-0.755421	0.211796	99
Es	1.358959	0.414378	0.455396	99
Es	-2.532864	-0.120308	-0.025854	99
Es	-0.330545	-0.038202	0.162375	99
Es	0.608775	0.393797	0.117504	99
Es	1.742362	-0.202410	0.300842	99
Es	-0.188346	-0.581634	-1.170802	99
Es	3.406922	1.856703	-0.527514	99
Es	2.930047	1.630505	-0.061733	99
Es	3.281021	1.579015	-0.435038	99
Es	-0.449928	-1.250896	0.658958	99
Es	1.729031	1.011843	0.183177	99
Es	0.025970	0.063182	-0.676991	99
Es	-0.143148	0.737818	-0.162345	99
Es	-2.355142	-0.371526	1.139181	99
Es	1.316480	0.502157	1.184976	99
Es	1.727001	2.264233	-0.035271	99
Es	-2.230821	-0.603216	0.441900	99
Es	2.776220	1.549989	-0.540310	99
Es	-0.564930	-0.862905	-0.548849	99
Es	0.387030	-0.998629	-1.368759	99
Es	-1.496755	-0.667923	0.320714	99
Es	0.013996	0.430225	-0.133115	99
Es	2.107375	1.616189	-0.070005	99
Es	-0.636282	-0.389409	-1.718274	99
43
Properties=species:S:1:pos:R:3:Z:I:1 energy=-323.94466886056654 field_type=dipole dipole="0.000000 0.000000 0.000000" charge=0
C	-2.230843	-0.603204	0.441898	6
C	-0.766393	-0.755604	0.211908	6
C	-0.188363	-0.581774	-1.171012	6
N	0.013737	0.430826	-0.133142	7
C	1.359077	0.414316	0.455458	6
C	2.107367	1.616216	-0.069992	6
O	3.281327	1.578996	-0.435132	8
H	-2.418093	-0.261254	1.464648	1
H	-2.734003	-1.565974	0.308158	1
H	-2.687303	0.116506	-0.246122	1
H	-0.322703	-1.495954	0.867748	1
H	-0.851593	-0.299114	-1.980732	1
H	0.644357	-1.208784	-1.466842	1
H	1.937397	-0.489164	0.232278	1
H	1.289017	0.525536	1.542628	1
H	1.567017	2.578436	-0.021752	1
Es	-0.188356	-0.581642	-1.170798	99
Es	3.379464	1.293415	-0.423739	99
Es	-2.565538	-1.258621	0.349512	99
Es	3.281003	1.579053	-0.435037	99
Es	2.930166	1.630893	-0.060788	99
Es	-0.565136	-0.863068	-0.548425	99
Es	-0.332848	-0.037403	0.163974	99
Es	-0.635683	-0.389307	-1.717342	99
Es	1.316549	0.501855	1.184909	99
Es	1.727208	2.264198	-0.034936	99
Es	0.025499	0.063541	-0.678254	99
Es	0.014000	0.430216	-0.133115	99
Es	-0.766276	-0.755429	0.211795	99
Es	-0.140935	0.735131	-0.163061	99
Es	1.358960	0.414378	0.455397	99
Es	3.410462	1.855306	-0.529946	99
Es	2.107376	1.616192	-0.069997	99
Es	0.608883	0.394426	0.117516	99
Es	2.776730	1.550260	-0.539712	99
Es	0.387581	-0.998355	-1.369517	99
Es	-2.532515	-0.121389	-0.024885	99
Es	-1.496528	-0.668041	0.320576	99
Es	1.742357	-0.202257	0.300631	99
Es	-2.355859	-0.371183	1.139293	99
Es	-2.230819	-0.603216	0.441901	99
Es	-0.450000	-1.249965	0.658345	99
Es	1.729002	1.012068	0.183419	99
43
Properties=species:S:1:pos:R:3:Z:I:1 energy=-323.94466886056654 field_type=dipole dipole="0.000000 0.000000 0.000000" charge=0
C	-2.230843	-0.603204	0.441898	6
C	-0.766393	-0.755604	0.211908	6
C	-0.188363	-0.581774	-1.171012	6
N	0.013737	0.430826	-0.133142	7
C	1.359077	0.414316	0.455458	6
C	2.107367	1.616216	-0.069992	6
O	3.281327	1.578996	-0.435132	8
H	-2.418093	-0.261254	1.464648	1
H	-2.734003	-1.565974	0.308158	1
H	-2.687303	0.116506	-0.246122	1
H	-0.322703	-1.495954	0.867748	1
H	-0.851593	-0.299114	-1.980732	1
H	0.644357	-1.208784	-1.466842	1
H	1.937397	-0.489164	0.232278	1
H	1.289017	0.525536	1.542628	1
H	1.567017	2.578436	-0.021752	1
Es	1.358964	0.414377	0.455401	99
Es	-1.496345	-0.667988	0.320393	99
Es	-0.565435	-0.863191	-0.548384	99
Es	0.025001	0.063550	-0.678835	99
Es	-0.635067	-0.389159	-1.716616	99
Es	0.014003	0.430219	-0.133111	99
Es	-2.565648	-1.258117	0.349366	99
Es	3.280981	1.578963	-0.435016	99
Es	2.776990	1.552027	-0.539119	99
Es	-2.356394	-0.370877	1.139380	99
Es	1.316494	0.501889	1.184873	99
Es	1.742495	-0.202288	0.300553	99
Es	-2.230819	-0.603216	0.441900	99
Es	2.107375	1.616190	-0.069992	99
Es	-0.139503	0.733231	-0.163649	99
Es	-0.334352	-0.036703	0.165044	99
Es	3.417837	1.851893	-0.532961	99
Es	1.728859	1.012233	0.183595	99
Es	0.609194	0.394818	0.117487	99
Es	2.930474	1.632257	-0.060239	99
Es	-2.532354	-0.122304	-0.024257	99
Es	-0.188344	-0.581633	-1.170802	99
Es	-0.766278	-0.755431	0.211793	99
Es	0.387981	-0.998251	-1.370045	99
Es	-0.450119	-1.249319	0.657943	99
Es	1.727342	2.264215	-0.034743	99
Es	3.371414	1.293669	-0.422243	99
43
Properties=species:S:1:pos:R:3:Z:I:1 energy=-323.94466886056654 field_type=dipole dipole="0.000000 0.000000 0.000000" charge=0
C	-2.230843	-0.603204	0.441898	6
C	-0.766393	-0.755604	0.211908	6
C	-0.188363	-0.581774	-1.171012	6
N	0.013737	0.430826	-0.133142	7
C	1.359077	0.414316	0.455458	6
C	2.107367	1.616216	-0.069992	6
O	3.281327	1.578996	-0.435132	8
H	-2.418093	-0.261254	1.464648	1
H	-2.734003	-1.565974	0.308158	1
H	-2.687303	0.116506	-0.246122	1
H	-0.322703	-1.495954	0.867748	1
H	-0.851593	-0.299114	-1.980732	1
H	0.644357	-1.208784	-1.466842	1
H	1.937397	-0.489164	0.232278	1
H	1.289017	0.525536	1.542628	1
H	1.567017	2.578436	-0.021752	1
Es	2.107377	1.616190	-0.069992	99
Es	1.728939	1.012190	0.183597	99
Es	-0.138276	0.731809	-0.164386	99
Es	0.388373	-0.998108	-1.370509	99
Es	0.024653	0.063432	-0.679049	99
Es	-0.188345	-0.581635	-1.170804	99
Es	0.609234	0.395192	0.117483	99
Es	2.929230	1.631469	-0.060229	99
Es	1.742312	-0.202241	0.300483	99
Es	0.013967	0.430252	-0.133124	99
Es	-2.532106	-0.122996	-0.023681	99
Es	1.316721	0.501850	1.184870	99
Es	3.281029	1.579047	-0.435036	99
Es	1.358959	0.414378	0.455398	99
Es	1.727451	2.264184	-0.034612	99
Es	3.372570	1.293709	-0.422838	99
Es	-0.335649	-0.036168	0.165804	99
Es	-0.565601	-0.863362	-0.548131	99
Es	-0.766274	-0.755423	0.211793	99
Es	-2.565721	-1.257711	0.349053	99
Es	-1.496363	-0.667950	0.320342	99
Es	2.778103	1.551745	-0.539384	99
Es	-0.450205	-1.248617	0.657576	99
Es	-0.634591	-0.389071	-1.715981	99
Es	-2.356897	-0.370724	1.139520	99
Es	3.416677	1.852828	-0.532352	99
Es	-2.230819	-0.603216	0.441900	99
43
Properties=species:S:1:pos:R:3:Z:I:1 energy=-323.94466886056654 field_type=dipole dipole="0.000000 0.000000 0.000000" charge=0
C	-2.230843	-0.603204	0.441898	6
C	-0.766393	-0.755604	0.211908	6
C	-0.188363	-0.581774	-1.171012	6
N	0.013737	0.430826	-0.133142	7
C	1.359077	0.414316	0.455458	6
C	2.107367	1.616216	-0.069992	6
O	3.281327	1.578996	-0.435132	8
H	-2.418093	-0.261254	1.464648	1
H	-2.734003	-1.565974	0.308158	1
H	-2.687303	0.116506	-0.246122	1
H	-0.322703	-1.495954	0.867748	1
H	-0.851593	-0.299114	-1.980732	1
H	0.644357	-1.208784	-1.466842	1
H	1.937397	-0.489164	0.232278	1
H	1.289017	0.525536	1.542628	1
H	1.567017	2.578436	-0.021752	1
Es	0.013987	0.430229	-0.133115	99
Es	-0.188344	-0.581634	-1.170808	99
Es	-0.565690	-0.863275	-0.548132	99
Es	0.024264	0.063007	-0.679258	99
Es	1.742479	-0.202380	0.300488	99
Es	0.609359	0.394891	0.117442	99
Es	1.316639	0.501947	1.184722	99
Es	3.280997	1.579041	-0.435032	99
Es	1.727440	2.264250	-0.034469	99
Es	-0.336571	-0.035453	0.166389	99
Es	2.778722	1.553400	-0.539059	99
Es	-0.137364	0.731321	-0.164853	99
Es	3.363284	1.294407	-0.420005	99
Es	-2.565774	-1.257354	0.348904	99
Es	0.388654	-0.998082	-1.370822	99
Es	2.107376	1.616190	-0.069998	99
Es	-0.634327	-0.389041	-1.715532	99
Es	-2.531974	-0.123357	-0.023363	99
Es	2.928860	1.633406	-0.060364	99
Es	3.425701	1.848425	-0.535502	99
Es	-0.450312	-1.248253	0.657404	99
Es	-2.357242	-0.370696	1.139536	99
Es	-0.766283	-0.755432	0.211797	99
Es	-1.496172	-0.667945	0.320360	99
Es	1.358960	0.414378	0.455398	99
Es	1.728902	1.012285	0.183686	99
Es	-2.230824	-0.603220	0.441900	99
43
Properties=species:S:1:pos:R:3:Z:I:1 energy=-323.94466886056654 field_type=dipole dipole="0.000000 0.000000 0.000000" charge=0
C	-2.230843	-0.603204	0.441898	6
C	-0.766393	-0.755604	0.211908	6
C	-0.188363	-0.581774	-1.171012	6
N	0.013737	0.430826	-0.133142	7
C	1.359077	0.414316	0.455458	6
C	2.107367	1.616216	-0.069992	6
O	3.281327	1.578996	-0.435132	8
H	-2.418093	-0.261254	1.464648	1
H	-2.734003	-1.565974	0.308158	1
H	-2.687303	0.116506	-0.246122	1
H	-0.322703	-1.495954	0.867748	1
H	-0.851593	-0.299114	-1.980732	1
H	0.644357	-1.208784	-1.466842	1
H	1.937397	-0.489164	0.232278	1
H	1.289017	0.525536	1.542628	1
H	1.567017	2.578436	-0.021752	1
Es	-2.531812	-0.123863	-0.022954	99
Es	1.728859	1.012319	0.183761	99
Es	3.359595	1.295125	-0.419005	99
Es	0.609245	0.394782	0.117338	99
Es	-0.634045	-0.389024	-1.715119	99
Es	1.358960	0.414378	0.455398	99
Es	2.778514	1.553937	-0.538942	99
Es	1.727469	2.264278	-0.034407	99
Es	-2.357594	-0.370566	1.139545	99
Es	2.107377	1.616191	-0.069992	99
Es	0.388919	-0.997932	-1.371113	99
Es	3.281009	1.579003	-0.435028	99
Es	-0.136793	0.731138	-0.165405	99
Es	-0.766277	-0.755427	0.211796	99
Es	2.929284	1.634241	-0.060210	99
Es	-0.450350	-1.247921	0.657119	99
Es	0.024122	0.062735	-0.679074	99
Es	-0.188344	-0.581635	-1.170804	99
Es	1.316692	0.502038	1.184597	99
Es	-1.496016	-0.668036	0.320337	99
Es	-0.337223	-0.035252	0.166896	99
Es	1.742544	-0.202487	0.300476	99
Es	-2.565875	-1.256964	0.348788	99
Es	0.013979	0.430244	-0.133117	99
Es	-2.230818	-0.603216	0.441900	99
Es	-0.565793	-0.863333	-0.548157	99
Es	3.429118	1.846303	-0.536912	99
43
Properties=species:S:1:pos:R:3:Z:I:1 energy=-323.94466886056654 field_type=dipole dipole="0.000000 0.000000 0.000000" charge=0
C	-2.230843	-0.603204	0.441898	6
C	-0.766393	-0.755604	0.211908	6
C	-0.188363	-0.581774	-1.171012	6
N	0.013737	0.430826	-0.133142	7
C	1.359077	0.414316	0.455458	6
C	2.107367	1.616216	-0.069992	6
O	3.281327	1.578996	-0.435132	8
H	-2.418093	-0.261254	1.464648	1
H	-2.734003	-1.565974	0.308158	1
H	-2.687303	0.116506	-0.246122	1
H	-0.322703	-1.495954	0.867748	1
H	-0.851593	-0.299114	-1.980732	1
H	0.644357	-1.208784	-1.466842	1
H	1.937397	-0.489164	0.232278	1
H	1.289017	0.525536	1.542628	1
H	1.567017	2.578436	-0.021752	1
Es	2.929230	1.634966	-0.060391	99
Es	-2.531620	-0.124353	-0.022610	99
Es	-2.357952	-0.370414	1.139537	99
Es	-1.496017	-0.667999	0.320322	99
Es	1.316789	0.501965	1.184661	99
Es	1.727529	2.264287	-0.034408	99
Es	0.013997	0.430221	-0.133113	99
Es	0.609488	0.395121	0.117189	99
Es	3.425384	1.847890	-0.537802	99
Es	-0.450430	-1.247535	0.656844	99
Es	1.358960	0.414378	0.455398	99
Es	-2.565908	-1.256768	0.348637	99
Es	0.389055	-0.997872	-1.371417	99
Es	-0.766276	-0.755426	0.211798	99
Es	1.728840	1.012333	0.183824	99
Es	0.023783	0.063021	-0.679601	99
Es	1.742473	-0.202396	0.300366	99
Es	-0.135962	0.729774	-0.165518	99
Es	-0.188342	-0.581630	-1.170799	99
Es	-2.230819	-0.603218	0.441900	99
Es	-0.338063	-0.034897	0.167408	99
Es	3.363190	1.294807	-0.418665	99
Es	-0.566073	-0.863297	-0.547911	99
Es	-0.633580	-0.388969	-1.714626	99
Es	2.107377	1.616190	-0.069992	99
Es	3.281003	1.579042	-0.435034	99
Es	2.778690	1.551831	-0.538281	99
43
Properties=species:S:1:pos:R:3:Z:I:1 energy=-323.94466886056654 field_type=dipole dipole="0.000000 0.000000 0.000000" charge=0
C	-2.230843	-0.603204	0.441898	6
C	-0.766393	-0.755604	0.211908	6
C	-0.188363	-0.581774	-1.171012	6
N	0.013737	0.430826	-0.133142	7
C	1.359077	0.414316	0.455458	6
C	2.107367	1.616216	-0.069992	6
O	3.281327	1.578996	-0.435132	8
H	-2.418093	-0.261254	1.464648	1
H	-2.734003	-1.565974	0.308158	1
H	-2.687303	0.116506	-0.246122	1
H	-0.322703	-1.495954	0.867748	1
H	-0.851593	-0.299114	-1.980732	1
H	0.644357	-1.208784	-1.466842	1
H	1.937397	-0.489164	0.232278	1
H	1.289017	0.525536	1.542628	1
H	1.567017	2.578436	-0.021752	1
Es	1.742570	-0.202548	0.300326	99
Es	-0.766280	-0.755431	0.211799	99
Es	0.389260	-0.997784	-1.371664	99
Es	-2.531520	-0.124596	-0.022418	99
Es	3.428979	1.846653	-0.537134	99
Es	-2.358187	-0.370408	1.139636	99
Es	1.358962	0.414378	0.455399	99
Es	0.609524	0.395129	0.117179	99
Es	-1.495989	-0.668116	0.320290	99
Es	1.727543	2.264278	-0.034368	99
Es	-0.566206	-0.863201	-0.547891	99
Es	0.013993	0.430228	-0.133113	99
Es	3.359603	1.294763	-0.419223	99
Es	3.280963	1.579076	-0.435032	99
Es	1.316831	0.502028	1.184489	99
Es	-0.135700	0.729416	-0.165450	99
Es	2.928725	1.634091	-0.060402	99
Es	-2.565891	-1.256467	0.348510	99
Es	-0.450521	-1.247316	0.656601	99
Es	0.023488	0.063065	-0.679816	99
Es	2.107377	1.616191	-0.069991	99
Es	-0.633293	-0.388891	-1.714268	99
Es	-0.338330	-0.034943	0.167650	99
Es	2.779191	1.553958	-0.538485	99
Es	-0.188339	-0.581629	-1.170808	99
Es	1.728809	1.012350	0.183995	99
Es	-2.230819	-0.603217	0.441901	99
43
Properties=species:S:1:pos:R:3:Z:I:1 energy=-323.94466886056654 field_type=dipole dipole="0.000000 0.000000 0.000000" charge=0
C	-2.230843	-0.603204	0.441898	6
C	-0.766393	-0.755604	0.211908	6
C	-0.188363	-0.581774	-1.171012	6
N	0.013737	0.430826	-0.133142	7
C	1.359077	0.414316	0.455458	6
C	2.107367	1.616216	-0.069992	6
O	3.281327	1.578996	-0.435132	8
H	-2.418093	-0.261254	1.464648	1
H	-2.734003	-1.565974	0.308158	1
H	-2.687303	0.116506	-0.246122	1
H	-0.322703	-1.495954	0.867748	1
H	-0.851593	-0.299114	-1.980732	1
H	0.644357	-1.208784	-1.466842	1
H	1.937397	-0.489164	0.232278	1
H	1.289017	0.525536	1.542628	1
H	1.567017	2.578436	-0.021752	1
Es	2.107377	1.616190	-0.069992	99
Es	3.357337	1.295689	-0.418044	99
Es	-0.566203	-0.863121	-0.547699	99
Es	0.609394	0.394838	0.117318	99
Es	2.780400	1.553886	-0.539204	99
Es	1.742673	-0.202664	0.300318	99
Es	-0.188341	-0.581634	-1.170811	99
Es	-0.450545	-1.247126	0.656485	99
Es	0.023473	0.062436	-0.679693	99
Es	0.389357	-0.997760	-1.371810	99
Es	0.014000	0.430220	-0.133111	99
Es	2.927126	1.634427	-0.060644	99
Es	3.281001	1.579049	-0.435034	99
Es	-2.565911	-1.256242	0.348523	99
Es	-2.531508	-0.124850	-0.022207	99
Es	1.316870	0.502046	1.184286	99
Es	3.431523	1.845399	-0.537513	99
Es	-0.766278	-0.755429	0.211797	99
Es	-2.230819	-0.603216	0.441900	99
Es	-2.358307	-0.370367	1.139639	99
Es	1.358959	0.414378	0.455398	99
Es	-0.135172	0.729442	-0.166041	99
Es	-0.338854	-0.034386	0.167913	99
Es	-0.633209	-0.388851	-1.714090	99
Es	1.728783	1.012478	0.184085	99
Es	-1.495962	-0.668116	0.320180	99
Es	1.727582	2.264338	-0.034233	99
43
Properties=species:S:1:pos:R:3:Z:I:1 energy=-323.94466886056654 field_type=dipole dipole="0.000000 0.000000 0.000000" charge=0
C	-2.230843	-0.603204	0.441898	6
C	-0.766393	-0.755604	0.211908	6
C	-0.188363	-0.581774	-1.171012	6
N	0.013737	0.430826	-0.133142	7
C	1.359077	0.414316	0.455458	6
C	2.107367	1.616216	-0.069992	6
O	3.281327	1.578996	-0.435132	8
H	-2.418093	-0.261254	1.464648	1
H	-2.734003	-1.565974	0.308158	1
H	-2.687303	0.116506	-0.246122	1
H	-0.322703	-1.495954	0.867748	1
H	-0.851593	-0.299114	-1.980732	1
H	0.644357	-1.208784	-1.466842	1
H	1.937397	-0.489164	0.232278	1
H	1.289017	0.525536	1.542628	1
H	1.567017	2.578436	-0.021752	1
Es	0.023454	0.062193	-0.679652	99
Es	1.742755	-0.202770	0.300296	99
Es	0.609340	0.394444	0.117360	99
Es	0.014008	0.430239	-0.133106	99
Es	-0.339492	-0.033921	0.168145	99
Es	1.358960	0.414378	0.455399	99
Es	3.354634	1.296672	-0.416101	99
Es	-0.188346	-0.581636	-1.170805	99
Es	2.928308	1.636117	-0.060800	99
Es	-2.230818	-0.603216	0.441900	99
Es	-0.134579	0.729477	-0.166474	99
Es	-1.495907	-0.668134	0.320283	99
Es	-0.450567	-1.247037	0.656327	99
Es	-0.766274	-0.755425	0.211798	99
Es	2.107377	1.616191	-0.069991	99
Es	1.316796	0.502182	1.184293	99
Es	-2.565934	-1.256138	0.348537	99
Es	-2.358533	-0.370140	1.139572	99
Es	-0.632991	-0.388964	-1.713812	99
Es	0.389540	-0.997730	-1.371906	99
Es	2.779621	1.553027	-0.538257	99
Es	1.727512	2.264353	-0.034229	99
Es	3.280976	1.578957	-0.435012	99
Es	-0.566342	-0.862969	-0.547766	99
Es	-2.531366	-0.125172	-0.022126	99
Es	3.433876	1.843644	-0.540225	99
Es	1.728736	1.012432	0.184065	99
43
Properties=species:S:1:pos:R:3:Z:I:1 energy=-323.94466886056654 field_type=dipole dipole="0.000000 0.000000 0.000000" charge=0
C	-2.230843	-0.603204	0.441898	6
C	-0.766393	-0.755604	0.211908	6
C	-0.188363	-0.581774	-1.171012	6
N	0.013737	0.430826	-0.133142	7
C	1.359077	0.414316	0.455458	6
C	2.107367	1.616216	-0.069992	6
O	3.281327	1.578996	-0.435132	8
H	-2.418093	-0.261254	1.464648	1
H	-2.734003	-1.565974	0.308158	1
H	-2.687303	0.116506	-0.246122	1
H	-0.322703	-1.495954	0.867748	1
H	-0.851593	-0.299114	-1.980732	1
H	0.644357	-1.208784	-1.466842	1
H	1.937397	-0.489164	0.232278	1
H	1.289017	0.525536	1.542628	1
H	1.567017	2.578436	-0.021752	1
Es	-2.531334	-0.125230	-0.021954	99
Es	1.727537	2.264372	-0.034195	99
Es	2.107377	1.616190	-0.069991	99
Es	0.609373	0.394934	0.117444	99
Es	3.281004	1.579037	-0.435039	99
Es	0.389616	-0.997734	-1.372058	99
Es	2.779895	1.554811	-0.538224	99
Es	-1.495890	-0.668130	0.320253	99
Es	-2.565963	-1.255952	0.348438	99
Es	1.316951	0.502109	1.184223	99
Es	-0.566578	-0.863005	-0.547832	99
Es	1.742712	-0.202717	0.300246	99
Es	-0.188347	-0.581632	-1.170804	99
Es	-0.766277	-0.755425	0.211793	99
Es	-0.339883	-0.033724	0.168414	99
Es	2.928202	1.635963	-0.060707	99
Es	1.728763	1.012459	0.184066	99
Es	0.013997	0.430219	-0.133117	99
Es	-2.358596	-0.370232	1.139634	99
Es	-0.450612	-1.246829	0.656271	99
Es	-2.230818	-0.603217	0.441900	99
Es	1.358959	0.414379	0.455396	99
Es	-0.632667	-0.388880	-1.713531	99
Es	0.023407	0.061936	-0.679503	99
Es	3.435216	1.842762	-0.539668	99
Es	-0.134370	0.728767	-0.166927	99
Es	3.353073	1.295826	-0.416814	99
