39
Properties=species:S:1:pos:R:3:Z:I:1 energy=-338.86183507797693 field_type=dipole dipole="0.000000 0.000000 0.000000" charge=0
C	-1.968951	-0.219748	0.478218	6
C	-0.677111	-0.106758	0.165878	6
C	0.159109	1.147302	0.092298	6
N	1.437439	0.616592	-0.307802	7
C	1.408639	-0.760618	-0.448532	6
O	2.343719	-1.469198	-0.770692	8
N	0.121169	-1.167938	-0.155512	7
H	-2.468731	-1.182688	0.495958	1
H	-2.562881	0.654852	0.723448	1
H	0.269109	1.637842	1.062868	1
H	-0.190661	1.845252	-0.672352	1
H	2.282849	1.142912	-0.471382	1
H	-0.153701	-2.137808	-0.192402	1
Es	-1.294230	-0.195500	0.653934	99
Es	1.437162	0.616209	-0.308615	99
Es	1.493165	0.394360	-0.101089	99
Es	0.151411	-1.082041	-0.188456	99
Es	2.102508	-1.264882	-0.426785	99
Es	-2.302647	-0.874594	0.488968	99
Es	-0.045751	-1.735814	-0.169829	99
Es	1.973778	-1.215146	-0.903564	99
Es	-0.676834	-0.106830	0.165801	99
Es	2.258473	-1.765690	-0.778922	99
Es	0.896696	0.872843	-0.157450	99
Es	1.918903	0.937957	-0.424867	99
Es	-0.240693	-0.722116	-0.000299	99
Es	1.384608	0.128328	-0.544680	99
Es	-0.091202	1.615889	-0.416653	99
Es	0.217250	1.476698	0.747998	99
Es	2.343466	-1.468931	-0.770595	99
Es	-1.454766	-0.124956	0.017392	99
Es	-0.270704	0.526460	0.132754	99
Es	0.685570	-1.008635	-0.269869	99
Es	-2.370118	0.372079	0.644255	99
Es	2.595831	-1.299281	-0.820627	99
Es	-1.968997	-0.219747	0.478214	99
Es	0.159242	1.147167	0.092246	99
Es	1.408445	-0.760489	-0.448471	99
Es	0.121518	-1.167801	-0.154589	99
39
Properties=species:S:1:pos:R:3:Z:I:1 energy=-338.86183507797693 field_type=dipole dipole="0.000000 0.000000 0.000000" charge=0
C	-1.968951	-0.219748	0.478218	6
C	-0.677111	-0.106758	0.165878	6
C	0.159109	1.147302	0.092298	6
N	1.437439	0.616592	-0.307802	7
C	1.408639	-0.760618	-0.448532	6
O	2.343719	-1.469198	-0.770692	8
N	0.121169	-1.167938	-0.155512	7
H	-2.468731	-1.182688	0.495958	1
H	-2.562881	0.654852	0.723448	1
H	0.269109	1.637842	1.062868	1
H	-0.190661	1.845252	-0.672352	1
H	2.282849	1.142912	-0.471382	1
H	-0.153701	-2.137808	-0.192402	1
Es	0.154681	-1.083314	-0.174851	99
Es	1.933174	0.929963	-0.373181	99
Es	-2.301034	-0.872546	0.488143	99
Es	2.098963	-1.266701	-0.424650	99
Es	2.610559	-1.312047	-0.823705	99
Es	1.437552	0.616290	-0.307146	99
Es	-0.242449	-0.722286	-0.001567	99
Es	1.478883	0.082564	-0.189118	99
Es	-1.293829	-0.196644	0.654862	99
Es	-0.676832	-0.106828	0.165798	99
Es	0.906254	0.868725	-0.116809	99
Es	0.215787	1.476660	0.748070	99
Es	0.685689	-1.009704	-0.275368	99
Es	0.159241	1.147167	0.092244	99
Es	1.977090	-1.214466	-0.904976	99
Es	-0.271004	0.526288	0.132653	99
Es	2.244350	-1.751403	-0.777472	99
Es	-1.969001	-0.219755	0.478236	99
Es	-0.091669	1.614805	-0.416069	99
Es	-1.455412	-0.124929	0.016429	99
Es	1.408445	-0.760489	-0.448466	99
Es	-2.371869	0.372944	0.645318	99
Es	1.376120	0.450966	-0.550088	99
Es	-0.046764	-1.733114	-0.177233	99
Es	0.121697	-1.167639	-0.154254	99
Es	2.343460	-1.468970	-0.770601	99
39
Properties=species:S:1:pos:R:3:Z:I:1 energy=-338.86183507797693 field_type=dipole dipole="0.000000 0.000000 0.000000" charge=0
C	-1.968951	-0.219748	0.478218	6
C	-0.677111	-0.106758	0.165878	6
C	0.159109	1.147302	0.092298	6
N	1.437439	0.616592	-0.307802	7
C	1.408639	-0.760618	-0.448532	6
O	2.343719	-1.469198	-0.770692	8
N	0.121169	-1.167938	-0.155512	7
H	-2.468731	-1.182688	0.495958	1
H	-2.562881	0.654852	0.723448	1
H	0.269109	1.637842	1.062868	1
H	-0.190661	1.845252	-0.672352	1
H	2.282849	1.142912	-0.471382	1
H	-0.153701	-2.137808	-0.192402	1
Es	2.098558	-1.266330	-0.422614	99
Es	1.934673	0.928282	-0.371494	99
Es	-0.245709	-0.721593	-0.010174	99
Es	2.229251	-1.732256	-0.772721	99
Es	1.473723	0.066641	-0.210506	99
Es	-1.294033	-0.197200	0.655676	99
Es	-0.091948	1.614022	-0.415668	99
Es	1.437629	0.616017	-0.306870	99
Es	1.408445	-0.760489	-0.448466	99
Es	0.215126	1.476705	0.748380	99
Es	-1.455331	-0.124691	0.015660	99
Es	0.682981	-1.009215	-0.289040	99
Es	2.624622	-1.332040	-0.829430	99
Es	0.159243	1.147166	0.092247	99
Es	-2.299800	-0.871064	0.487541	99
Es	-0.048885	-1.729491	-0.188472	99
Es	-1.969001	-0.219752	0.478234	99
Es	2.343481	-1.468967	-0.770605	99
Es	-0.271144	0.526134	0.132405	99
Es	-0.676834	-0.106829	0.165813	99
Es	-2.373113	0.373159	0.645982	99
Es	0.163597	-1.089878	-0.137462	99
Es	0.904849	0.868526	-0.117666	99
Es	1.381496	0.468170	-0.530160	99
Es	1.978868	-1.213762	-0.906121	99
Es	0.121339	-1.165727	-0.158267	99
39
Properties=species:S:1:pos:R:3:Z:I:1 energy=-338.86183507797693 field_type=dipole dipole="0.000000 0.000000 0.000000" charge=0
C	-1.968951	-0.219748	0.478218	6
C	-0.677111	-0.106758	0.165878	6
C	0.159109	1.147302	0.092298	6
N	1.437439	0.616592	-0.307802	7
C	1.408639	-0.760618	-0.448532	6
O	2.343719	-1.469198	-0.770692	8
N	0.121169	-1.167938	-0.155512	7
H	-2.468731	-1.182688	0.495958	1
H	-2.562881	0.654852	0.723448	1
H	0.269109	1.637842	1.062868	1
H	-0.190661	1.845252	-0.672352	1
H	2.282849	1.142912	-0.471382	1
H	-0.153701	-2.137808	-0.192402	1
Es	-0.092315	1.613497	-0.415652	99
Es	0.161567	-1.089774	-0.143700	99
Es	1.935948	0.926926	-0.369947	99
Es	0.159242	1.147167	0.092248	99
Es	1.978046	-1.214269	-0.907020	99
Es	1.408444	-0.760489	-0.448464	99
Es	-0.245540	-0.722330	-0.007112	99
Es	-1.969004	-0.219752	0.478230	99
Es	-1.455649	-0.124600	0.014761	99
Es	-2.298802	-0.869861	0.487422	99
Es	1.467864	0.051244	-0.234659	99
Es	1.387062	0.484766	-0.507635	99
Es	2.219185	-1.714022	-0.765976	99
Es	-0.676833	-0.106830	0.165809	99
Es	2.100624	-1.264364	-0.421755	99
Es	0.904072	0.868003	-0.117750	99
Es	2.343496	-1.469039	-0.770603	99
Es	-0.271023	0.525959	0.132544	99
Es	1.437618	0.616034	-0.306878	99
Es	-2.374025	0.373023	0.646446	99
Es	-1.293897	-0.197493	0.656314	99
Es	2.633643	-1.351503	-0.836183	99
Es	-0.048229	-1.728396	-0.187495	99
Es	0.684177	-1.010341	-0.286454	99
Es	0.121638	-1.164771	-0.158758	99
Es	0.214774	1.476752	0.748468	99
39
Properties=species:S:1:pos:R:3:Z:I:1 energy=-338.86183507797693 field_type=dipole dipole="0.000000 0.000000 0.000000" charge=0
C	-1.968951	-0.219748	0.478218	6
C	-0.677111	-0.106758	0.165878	6
C	0.159109	1.147302	0.092298	6
N	1.437439	0.616592	-0.307802	7
C	1.408639	-0.760618	-0.448532	6
O	2.343719	-1.469198	-0.770692	8
N	0.121169	-1.167938	-0.155512	7
H	-2.468731	-1.182688	0.495958	1
H	-2.562881	0.654852	0.723448	1
H	0.269109	1.637842	1.062868	1
H	-0.190661	1.845252	-0.672352	1
H	2.282849	1.142912	-0.471382	1
H	-0.153701	-2.137808	-0.192402	1
Es	2.208686	-1.693274	-0.762145	99
Es	0.684157	-1.010539	-0.287196	99
Es	1.936739	0.926679	-0.371260	99
Es	1.463652	0.042158	-0.252230	99
Es	-1.968999	-0.219751	0.478230	99
Es	0.903202	0.867899	-0.118742	99
Es	0.159242	1.147166	0.092248	99
Es	1.437672	0.615777	-0.306651	99
Es	2.343433	-1.469002	-0.770597	99
Es	-2.298335	-0.869265	0.487515	99
Es	-1.455751	-0.124724	0.014340	99
Es	0.214548	1.476557	0.748594	99
Es	1.408446	-0.760489	-0.448464	99
Es	2.641607	-1.376212	-0.838422	99
Es	-0.048571	-1.727187	-0.189969	99
Es	0.121177	-1.167886	-0.155551	99
Es	2.100577	-1.263179	-0.421372	99
Es	-0.245887	-0.722477	-0.007601	99
Es	1.980807	-1.211401	-0.909035	99
Es	1.391447	0.494228	-0.488129	99
Es	-0.270961	0.525852	0.132366	99
Es	-1.293871	-0.197552	0.656726	99
Es	-2.374427	0.372973	0.646580	99
Es	0.162923	-1.087320	-0.143227	99
Es	-0.092594	1.613335	-0.415607	99
Es	-0.676835	-0.106829	0.165800	99
39
Properties=species:S:1:pos:R:3:Z:I:1 energy=-338.86183507797693 field_type=dipole dipole="0.000000 0.000000 0.000000" charge=0
C	-1.968951	-0.219748	0.478218	6
C	-0.677111	-0.106758	0.165878	6
C	0.159109	1.147302	0.092298	6
N	1.437439	0.616592	-0.307802	7
C	1.408639	-0.760618	-0.448532	6
O	2.343719	-1.469198	-0.770692	8
N	0.121169	-1.167938	-0.155512	7
H	-2.468731	-1.182688	0.495958	1
H	-2.562881	0.654852	0.723448	1
H	0.269109	1.637842	1.062868	1
H	-0.190661	1.845252	-0.672352	1
H	2.282849	1.142912	-0.471382	1
H	-0.153701	-2.137808	-0.192402	1
Es	1.408443	-0.760488	-0.448469	99
Es	2.343471	-1.468920	-0.770595	99
Es	-1.293360	-0.196407	0.657867	99
Es	-1.969002	-0.219749	0.478225	99
Es	0.215027	1.474349	0.747369	99
Es	-2.297637	-0.868679	0.489231	99
Es	2.208395	-1.676954	-0.758056	99
Es	-2.375163	0.372885	0.644744	99
Es	0.121631	-1.167720	-0.154330	99
Es	0.685537	-1.011446	-0.282656	99
Es	0.893409	0.871427	-0.154057	99
Es	-0.041774	-1.729656	-0.164135	99
Es	1.971768	-1.209115	-0.909790	99
Es	2.106863	-1.268503	-0.422657	99
Es	-0.248653	-0.721588	-0.017153	99
Es	-0.094067	1.615497	-0.416311	99
Es	1.409031	0.052615	-0.461363	99
Es	0.159242	1.147166	0.092246	99
Es	1.437102	0.616326	-0.308835	99
Es	2.645004	-1.389585	-0.839384	99
Es	0.157268	-1.084670	-0.164988	99
Es	-1.456276	-0.126044	0.013438	99
Es	-0.270447	0.525574	0.133201	99
Es	1.470779	0.473094	-0.182009	99
Es	1.922325	0.932956	-0.431135	99
Es	-0.676831	-0.106831	0.165803	99
39
Properties=species:S:1:pos:R:3:Z:I:1 energy=-338.86183507797693 field_type=dipole dipole="0.000000 0.000000 0.000000" charge=0
C	-1.968951	-0.219748	0.478218	6
C	-0.677111	-0.106758	0.165878	6
C	0.159109	1.147302	0.092298	6
N	1.437439	0.616592	-0.307802	7
C	1.408639	-0.760618	-0.448532	6
O	2.343719	-1.469198	-0.770692	8
N	0.121169	-1.167938	-0.155512	7
H	-2.468731	-1.182688	0.495958	1
H	-2.562881	0.654852	0.723448	1
H	0.269109	1.637842	1.062868	1
H	-0.190661	1.845252	-0.672352	1
H	2.282849	1.142912	-0.471382	1
H	-0.153701	-2.137808	-0.192402	1
Es	-1.456141	-0.126205	0.013658	99
Es	-0.270685	0.525581	0.132818	99
Es	-1.969000	-0.219751	0.478231	99
Es	1.437128	0.616397	-0.308750	99
Es	-2.297196	-0.868375	0.489124	99
Es	0.159789	-1.085114	-0.155562	99
Es	-0.041926	-1.729113	-0.164972	99
Es	1.409273	0.052336	-0.460633	99
Es	2.343470	-1.468922	-0.770592	99
Es	2.646491	-1.395353	-0.840327	99
Es	-0.249603	-0.721631	-0.020269	99
Es	1.923581	0.932738	-0.428952	99
Es	-2.375621	0.372919	0.644690	99
Es	2.105915	-1.266335	-0.423354	99
Es	0.214812	1.473914	0.747200	99
Es	1.408444	-0.760488	-0.448470	99
Es	0.121237	-1.167903	-0.155331	99
Es	-0.094004	1.615773	-0.416122	99
Es	2.208152	-1.670480	-0.754982	99
Es	0.684650	-1.011344	-0.287030	99
Es	0.159240	1.147168	0.092247	99
Es	0.893567	0.871359	-0.153273	99
Es	-1.293431	-0.196281	0.658011	99
Es	1.469247	0.473417	-0.185716	99
Es	1.971527	-1.211942	-0.911244	99
Es	-0.676834	-0.106829	0.165800	99
39
Properties=species:S:1:pos:R:3:Z:I:1 energy=-338.86183507797693 field_type=dipole dipole="0.000000 0.000000 0.000000" charge=0
C	-1.968951	-0.219748	0.478218	6
C	-0.677111	-0.106758	0.165878	6
C	0.159109	1.147302	0.092298	6
N	1.437439	0.616592	-0.307802	7
C	1.408639	-0.760618	-0.448532	6
O	2.343719	-1.469198	-0.770692	8
N	0.121169	-1.167938	-0.155512	7
H	-2.468731	-1.182688	0.495958	1
H	-2.562881	0.654852	0.723448	1
H	0.269109	1.637842	1.062868	1
H	-0.190661	1.845252	-0.672352	1
H	2.282849	1.142912	-0.471382	1
H	-0.153701	-2.137808	-0.192402	1
Es	1.436732	0.615150	-0.310084	99
Es	0.121186	-1.167899	-0.155511	99
Es	-1.969001	-0.219752	0.478232	99
Es	-0.041839	-1.728672	-0.165022	99
Es	1.412873	0.045208	-0.447850	99
Es	2.107163	-1.271479	-0.421657	99
Es	-2.375892	0.372697	0.644805	99
Es	1.464872	0.482203	-0.200455	99
Es	-0.094274	1.615265	-0.416244	99
Es	-2.296948	-0.867891	0.488903	99
Es	0.214752	1.474200	0.747430	99
Es	-0.676834	-0.106829	0.165801	99
Es	-0.270461	0.525435	0.133148	99
Es	0.159017	-1.084824	-0.158768	99
Es	2.208469	-1.662826	-0.756956	99
Es	-0.249086	-0.721788	-0.017881	99
Es	0.684985	-1.011663	-0.286076	99
Es	1.969344	-1.209868	-0.909586	99
Es	2.647136	-1.399578	-0.841666	99
Es	0.159242	1.147166	0.092245	99
Es	0.893488	0.871082	-0.151854	99
Es	1.408444	-0.760488	-0.448468	99
Es	-1.456478	-0.125987	0.013198	99
Es	-1.293159	-0.196531	0.658385	99
Es	2.343517	-1.469200	-0.770660	99
Es	1.924836	0.932404	-0.427206	99
39
Properties=species:S:1:pos:R:3:Z:I:1 energy=-338.86183507797693 field_type=dipole dipole="0.000000 0.000000 0.000000" charge=0
C	-1.968951	-0.219748	0.478218	6
C	-0.677111	-0.106758	0.165878	6
C	0.159109	1.147302	0.092298	6
N	1.437439	0.616592	-0.307802	7
C	1.408639	-0.760618	-0.448532	6
O	2.343719	-1.469198	-0.770692	8
N	0.121169	-1.167938	-0.155512	7
H	-2.468731	-1.182688	0.495958	1
H	-2.562881	0.654852	0.723448	1
H	0.269109	1.637842	1.062868	1
H	-0.190661	1.845252	-0.672352	1
H	2.282849	1.142912	-0.471382	1
H	-0.153701	-2.137808	-0.192402	1
Es	-2.375609	0.372589	0.646764	99
Es	-0.271064	0.525405	0.132169	99
Es	1.938184	0.926404	-0.375740	99
Es	0.901332	0.867606	-0.121523	99
Es	-0.246196	-0.723357	-0.005481	99
Es	0.159241	1.147167	0.092247	99
Es	-0.046594	-1.726163	-0.184261	99
Es	1.401923	0.507877	-0.441474	99
Es	1.453938	0.027983	-0.291778	99
Es	0.121104	-1.167817	-0.155890	99
Es	-0.092941	1.613255	-0.415426	99
Es	2.647126	-1.401700	-0.844687	99
Es	1.975298	-1.217438	-0.912187	99
Es	2.209075	-1.659826	-0.754891	99
Es	-1.968995	-0.219752	0.478235	99
Es	2.343478	-1.468935	-0.770602	99
Es	-0.676834	-0.106829	0.165799	99
Es	1.408444	-0.760488	-0.448466	99
Es	0.160222	-1.085233	-0.154158	99
Es	2.100426	-1.264931	-0.419140	99
Es	1.437648	0.616103	-0.306782	99
Es	-2.297030	-0.867658	0.487669	99
Es	-1.293778	-0.197640	0.657868	99
Es	0.685653	-1.012191	-0.283768	99
Es	0.214092	1.475955	0.748648	99
Es	-1.456060	-0.124849	0.013058	99
39
Properties=species:S:1:pos:R:3:Z:I:1 energy=-338.86183507797693 field_type=dipole dipole="0.000000 0.000000 0.000000" charge=0
C	-1.968951	-0.219748	0.478218	6
C	-0.677111	-0.106758	0.165878	6
C	0.159109	1.147302	0.092298	6
N	1.437439	0.616592	-0.307802	7
C	1.408639	-0.760618	-0.448532	6
O	2.343719	-1.469198	-0.770692	8
N	0.121169	-1.167938	-0.155512	7
H	-2.468731	-1.182688	0.495958	1
H	-2.562881	0.654852	0.723448	1
H	0.269109	1.637842	1.062868	1
H	-0.190661	1.845252	-0.672352	1
H	2.282849	1.142912	-0.471382	1
H	-0.153701	-2.137808	-0.192402	1
Es	-2.376154	0.372434	0.644956	99
Es	-1.456418	-0.125915	0.012739	99
Es	-0.042757	-1.728072	-0.168909	99
Es	-0.676834	-0.106829	0.165801	99
Es	0.214590	1.474050	0.747552	99
Es	-0.250160	-0.721635	-0.021460	99
Es	2.649070	-1.412947	-0.841393	99
Es	-0.094285	1.615208	-0.416171	99
Es	-2.296651	-0.867530	0.488884	99
Es	0.893751	0.870594	-0.148597	99
Es	1.458873	0.491167	-0.220601	99
Es	0.121036	-1.167664	-0.156332	99
Es	2.343384	-1.468850	-0.770570	99
Es	-0.270396	0.525374	0.132893	99
Es	0.161966	-1.085731	-0.147162	99
Es	1.927242	0.931984	-0.423437	99
Es	1.971164	-1.211785	-0.912759	99
Es	2.207800	-1.649145	-0.754801	99
Es	1.416594	0.038717	-0.433812	99
Es	-1.969001	-0.219751	0.478230	99
Es	1.436435	0.613422	-0.311002	99
Es	-1.293297	-0.196621	0.658846	99
Es	0.684174	-1.011513	-0.289359	99
Es	0.159242	1.147165	0.092248	99
Es	1.408445	-0.760489	-0.448468	99
Es	2.104268	-1.270103	-0.421115	99
39
Properties=species:S:1:pos:R:3:Z:I:1 energy=-338.86183507797693 field_type=dipole dipole="0.000000 0.000000 0.000000" charge=0
C	-1.968951	-0.219748	0.478218	6
C	-0.677111	-0.106758	0.165878	6
C	0.159109	1.147302	0.092298	6
N	1.437439	0.616592	-0.307802	7
C	1.408639	-0.760618	-0.448532	6
O	2.343719	-1.469198	-0.770692	8
N	0.121169	-1.167938	-0.155512	7
H	-2.468731	-1.182688	0.495958	1
H	-2.562881	0.654852	0.723448	1
H	0.269109	1.637842	1.062868	1
H	-0.190661	1.845252	-0.672352	1
H	2.282849	1.142912	-0.471382	1
H	-0.153701	-2.137808	-0.192402	1
Es	-0.246531	-0.723320	-0.006582	99
Es	1.408444	-0.760489	-0.448464	99
Es	0.121137	-1.167857	-0.155719	99
Es	0.161466	-1.085874	-0.149395	99
Es	2.208217	-1.647619	-0.751322	99
Es	-2.375847	0.372303	0.646701	99
Es	-1.293501	-0.197724	0.658208	99
Es	1.405538	0.508690	-0.424429	99
Es	0.159241	1.147167	0.092248	99
Es	0.900485	0.867902	-0.123573	99
Es	2.101568	-1.263029	-0.419552	99
Es	2.648211	-1.414199	-0.847009	99
Es	1.451643	0.025535	-0.301015	99
Es	-1.456357	-0.124729	0.012855	99
Es	-0.092998	1.613207	-0.415396	99
Es	-0.271046	0.525380	0.132210	99
Es	1.974136	-1.218953	-0.913030	99
Es	-0.046983	-1.725535	-0.185510	99
Es	-0.676836	-0.106829	0.165801	99
Es	0.214006	1.475849	0.748637	99
Es	0.685156	-1.012004	-0.286317	99
Es	1.938098	0.927154	-0.380258	99
Es	2.343375	-1.468899	-0.770562	99
Es	-2.296868	-0.867420	0.487471	99
Es	1.437330	0.616580	-0.308020	99
Es	-1.969002	-0.219750	0.478224	99
39
Properties=species:S:1:pos:R:3:Z:I:1 energy=-338.86183507797693 field_type=dipole dipole="0.000000 0.000000 0.000000" charge=0
C	-1.968951	-0.219748	0.478218	6
C	-0.677111	-0.106758	0.165878	6
C	0.159109	1.147302	0.092298	6
N	1.437439	0.616592	-0.307802	7
C	1.408639	-0.760618	-0.448532	6
O	2.343719	-1.469198	-0.770692	8
N	0.121169	-1.167938	-0.155512	7
H	-2.468731	-1.182688	0.495958	1
H	-2.562881	0.654852	0.723448	1
H	0.269109	1.637842	1.062868	1
H	-0.190661	1.845252	-0.672352	1
H	2.282849	1.142912	-0.471382	1
H	-0.153701	-2.137808	-0.192402	1
Es	-1.456238	-0.124857	0.013060	99
Es	-0.046121	-1.725979	-0.182358	99
Es	-0.676835	-0.106829	0.165799	99
Es	-1.969000	-0.219751	0.478229	99
Es	-0.271173	0.525281	0.132375	99
Es	-0.246129	-0.723582	-0.004939	99
Es	1.406325	0.510081	-0.421659	99
Es	-1.293569	-0.197764	0.658172	99
Es	2.207785	-1.647375	-0.753431	99
Es	1.978686	-1.219263	-0.914305	99
Es	1.437711	0.615867	-0.306521	99
Es	0.159241	1.147166	0.092248	99
Es	-2.375949	0.372447	0.646592	99
Es	1.408446	-0.760488	-0.448463	99
Es	-0.093026	1.613136	-0.415341	99
Es	0.214021	1.475933	0.748439	99
Es	-2.296790	-0.867345	0.487433	99
Es	0.137173	-1.124428	-0.169113	99
Es	2.343468	-1.468899	-0.770594	99
Es	0.900153	0.867911	-0.124466	99
Es	0.685850	-1.012433	-0.283537	99
Es	2.096400	-1.263060	-0.419079	99
Es	0.143478	-1.128182	-0.143611	99
Es	1.938430	0.926997	-0.380142	99
Es	1.450567	0.025040	-0.304526	99
Es	2.649180	-1.414088	-0.844061	99
39
Properties=species:S:1:pos:R:3:Z:I:1 energy=-338.86183507797693 field_type=dipole dipole="0.000000 0.000000 0.000000" charge=0
C	-1.968951	-0.219748	0.478218	6
C	-0.677111	-0.106758	0.165878	6
C	0.159109	1.147302	0.092298	6
N	1.437439	0.616592	-0.307802	7
C	1.408639	-0.760618	-0.448532	6
O	2.343719	-1.469198	-0.770692	8
N	0.121169	-1.167938	-0.155512	7
H	-2.468731	-1.182688	0.495958	1
H	-2.562881	0.654852	0.723448	1
H	0.269109	1.637842	1.062868	1
H	-0.190661	1.845252	-0.672352	1
H	2.282849	1.142912	-0.471382	1
H	-0.153701	-2.137808	-0.192402	1
Es	2.649920	-1.420168	-0.842229	99
Es	-2.376429	0.372354	0.645110	99
Es	1.437155	0.616462	-0.308658	99
Es	-0.041706	-1.727170	-0.166145	99
Es	-0.249759	-0.722380	-0.017475	99
Es	-0.094374	1.615096	-0.416014	99
Es	0.214564	1.474022	0.747318	99
Es	0.121553	-1.167773	-0.154507	99
Es	2.102490	-1.270616	-0.420202	99
Es	2.343490	-1.468810	-0.770595	99
Es	-1.969000	-0.219751	0.478231	99
Es	1.971222	-1.213890	-0.913707	99
Es	-0.270542	0.525195	0.133085	99
Es	1.418684	0.035599	-0.426920	99
Es	0.158871	-1.084780	-0.159029	99
Es	1.454797	0.491429	-0.233567	99
Es	0.159242	1.147166	0.092247	99
Es	2.208651	-1.639249	-0.753952	99
Es	0.893859	0.870360	-0.147726	99
Es	1.928590	0.931870	-0.420599	99
Es	-1.293371	-0.196648	0.658890	99
Es	-2.296356	-0.867271	0.488770	99
Es	-1.456393	-0.125848	0.012656	99
Es	1.408444	-0.760488	-0.448469	99
Es	-0.676833	-0.106829	0.165802	99
Es	0.685314	-1.012345	-0.286114	99
39
Properties=species:S:1:pos:R:3:Z:I:1 energy=-338.86183507797693 field_type=dipole dipole="0.000000 0.000000 0.000000" charge=0
C	-1.968951	-0.219748	0.478218	6
C	-0.677111	-0.106758	0.165878	6
C	0.159109	1.147302	0.092298	6
N	1.437439	0.616592	-0.307802	7
C	1.408639	-0.760618	-0.448532	6
O	2.343719	-1.469198	-0.770692	8
N	0.121169	-1.167938	-0.155512	7
H	-2.468731	-1.182688	0.495958	1
H	-2.562881	0.654852	0.723448	1
H	0.269109	1.637842	1.062868	1
H	-0.190661	1.845252	-0.672352	1
H	2.282849	1.142912	-0.471382	1
H	-0.153701	-2.137808	-0.192402	1
Es	1.437133	0.616395	-0.308728	99
Es	-0.249725	-0.722211	-0.018286	99
Es	-2.376520	0.372543	0.645125	99
Es	2.650047	-1.421352	-0.843664	99
Es	0.893865	0.870408	-0.148337	99
Es	-0.094255	1.615052	-0.415875	99
Es	0.685397	-1.012640	-0.286188	99
Es	0.159238	-1.084690	-0.157913	99
Es	1.969223	-1.208727	-0.909334	99
Es	-1.456586	-0.126098	0.013049	99
Es	-0.271065	0.525107	0.133356	99
Es	-1.968999	-0.219751	0.478229	99
Es	-0.676833	-0.106829	0.165801	99
Es	2.343336	-1.468935	-0.770554	99
Es	1.408443	-0.760489	-0.448469	99
Es	0.159241	1.147168	0.092248	99
Es	2.106607	-1.273764	-0.421660	99
Es	-2.296211	-0.867331	0.488908	99
Es	-1.293225	-0.196557	0.658446	99
Es	1.458547	0.487106	-0.221290	99
Es	0.214688	1.474198	0.746744	99
Es	-0.041651	-1.727040	-0.165141	99
Es	1.416129	0.039834	-0.436203	99
Es	1.927506	0.931912	-0.422956	99
Es	0.121135	-1.167853	-0.155732	99
Es	2.206617	-1.639921	-0.755374	99
