49
Properties=species:S:1:pos:R:3:Z:I:1 energy=-273.3240543007222 field_type=dipole dipole="0.000000 0.000000 0.000000" charge=0
C	-0.731187	-2.050539	-1.595163	6
C	-0.408267	-1.660809	-0.160333	6
C	0.303633	-0.311809	-0.059583	6
C	-0.535587	0.879911	-0.514113	6
C	0.208143	2.075471	0.065487	6
C	0.837043	1.578121	1.365617	6
C	0.648213	0.062061	1.382097	6
H	-1.182627	-3.047489	-1.621643	1
H	0.174463	-2.072249	-2.209283	1
H	-1.439947	-1.351259	-2.048543	1
H	0.229043	-2.437119	0.280407	1
H	-1.337197	-1.646009	0.422867	1
H	1.230423	-0.344859	-0.648603	1
H	-1.548317	0.828571	-0.095533	1
H	-0.619737	0.946721	-1.603133	1
H	0.997343	2.395651	-0.625173	1
H	-0.454807	2.930551	0.228017	1
H	1.900013	1.842011	1.398247	1
H	0.360223	2.034761	2.239587	1
H	1.544053	-0.456139	1.738737	1
H	-0.174917	-0.195549	2.060046	1
Es	0.751900	2.291333	-0.411082	99
Es	0.648215	0.062084	1.382091	99
Es	-0.731183	-2.050537	-1.595147	99
Es	0.481566	-0.145739	0.670445	99
Es	0.754128	0.820092	1.388381	99
Es	0.303613	-0.311811	-0.059569	99
Es	0.208143	2.075450	0.065499	99
Es	-1.230404	0.838449	-0.219516	99
Es	-0.057048	-0.986865	-0.115054	99
Es	0.032645	-2.194163	0.142011	99
Es	1.568225	1.758790	1.386486	99
Es	-0.132940	0.269606	-0.309766	99
Es	0.076264	-0.116514	1.841882	99
Es	-0.408263	-1.660805	-0.160374	99
Es	-0.535575	0.879920	-0.514101	99
Es	0.508241	1.891882	1.966381	99
Es	-1.214368	-1.570270	-1.902912	99
Es	-0.569977	-1.852364	-0.886695	99
Es	0.520539	1.841850	0.722870	99
Es	1.263667	-0.296080	1.627339	99
Es	-1.039741	-2.732696	-1.612987	99
Es	-0.595760	0.925009	-1.262227	99
Es	0.942564	-0.331557	-0.466984	99
Es	-0.176979	1.491775	-0.237081	99
Es	-0.109239	-2.062656	-2.013631	99
Es	-1.047492	-1.643620	0.240623	99
Es	0.837032	1.578108	1.365600	99
Es	-0.247256	2.663698	0.176767	99
49
Properties=species:S:1:pos:R:3:Z:I:1 energy=-273.3240543007222 field_type=dipole dipole="0.000000 0.000000 0.000000" charge=0
C	-0.731187	-2.050539	-1.595163	6
C	-0.408267	-1.660809	-0.160333	6
C	0.303633	-0.311809	-0.059583	6
C	-0.535587	0.879911	-0.514113	6
C	0.208143	2.075471	0.065487	6
C	0.837043	1.578121	1.365617	6
C	0.648213	0.062061	1.382097	6
H	-1.182627	-3.047489	-1.621643	1
H	0.174463	-2.072249	-2.209283	1
H	-1.439947	-1.351259	-2.048543	1
H	0.229043	-2.437119	0.280407	1
H	-1.337197	-1.646009	0.422867	1
H	1.230423	-0.344859	-0.648603	1
H	-1.548317	0.828571	-0.095533	1
H	-0.619737	0.946721	-1.603133	1
H	0.997343	2.395651	-0.625173	1
H	-0.454807	2.930551	0.228017	1
H	1.900013	1.842011	1.398247	1
H	0.360223	2.034761	2.239587	1
H	1.544053	-0.456139	1.738737	1
H	-0.174917	-0.195549	2.060046	1
Es	-0.731184	-2.050537	-1.595148	99
Es	-0.108433	-2.063042	-2.013847	99
Es	0.837032	1.578107	1.365598	99
Es	-1.048193	-1.643509	0.240989	99
Es	1.263892	-0.296088	1.627144	99
Es	-1.039866	-2.732117	-1.612555	99
Es	0.520139	1.841412	0.722672	99
Es	0.075410	-0.116429	1.842166	99
Es	-0.247758	2.663505	0.177049	99
Es	-0.408263	-1.660805	-0.160373	99
Es	0.648215	0.062084	1.382091	99
Es	1.568734	1.758698	1.386381	99
Es	0.752405	2.291336	-0.411747	99
Es	0.943224	-0.331643	-0.467252	99
Es	-1.214615	-1.570180	-1.902767	99
Es	-0.056939	-0.986931	-0.115069	99
Es	0.208143	2.075449	0.065497	99
Es	0.032978	-2.194153	0.141621	99
Es	-0.132943	0.269792	-0.309631	99
Es	-0.570076	-1.852353	-0.886700	99
Es	0.481587	-0.145537	0.670400	99
Es	0.754257	0.820066	1.387878	99
Es	-1.231177	0.838660	-0.219102	99
Es	0.507927	1.891730	1.966520	99
Es	0.303613	-0.311811	-0.059569	99
Es	-0.176642	1.491553	-0.236896	99
Es	-0.595378	0.925189	-1.262003	99
Es	-0.535575	0.879920	-0.514101	99
49
Properties=species:S:1:pos:R:3:Z:I:1 energy=-273.3240543007222 field_type=dipole dipole="0.000000 0.000000 0.000000" charge=0
C	-0.731187	-2.050539	-1.595163	6
C	-0.408267	-1.660809	-0.160333	6
C	0.303633	-0.311809	-0.059583	6
C	-0.535587	0.879911	-0.514113	6
C	0.208143	2.075471	0.065487	6
C	0.837043	1.578121	1.365617	6
C	0.648213	0.062061	1.382097	6
H	-1.182627	-3.047489	-1.621643	1
H	0.174463	-2.072249	-2.209283	1
H	-1.439947	-1.351259	-2.048543	1
H	0.229043	-2.437119	0.280407	1
H	-1.337197	-1.646009	0.422867	1
H	1.230423	-0.344859	-0.648603	1
H	-1.548317	0.828571	-0.095533	1
H	-0.619737	0.946721	-1.603133	1
H	0.997343	2.395651	-0.625173	1
H	-0.454807	2.930551	0.228017	1
H	1.900013	1.842011	1.398247	1
H	0.360223	2.034761	2.239587	1
H	1.544053	-0.456139	1.738737	1
H	-0.174917	-0.195549	2.060046	1
Es	-0.731183	-2.050537	-1.595147	99
Es	0.481506	-0.145373	0.670417	99
Es	-1.039835	-2.731778	-1.612339	99
Es	-1.214858	-1.570307	-1.902522	99
Es	0.754009	0.820000	1.387635	99
Es	-0.570039	-1.852337	-0.886643	99
Es	-0.176515	1.491382	-0.236737	99
Es	1.569034	1.758645	1.386251	99
Es	-0.056987	-0.986903	-0.114987	99
Es	-0.535577	0.879919	-0.514103	99
Es	0.519838	1.841116	0.722656	99
Es	-0.408266	-1.660804	-0.160372	99
Es	0.648214	0.062083	1.382088	99
Es	-0.132871	0.269845	-0.309460	99
Es	-0.248154	2.663266	0.177211	99
Es	0.033234	-2.194070	0.141347	99
Es	0.752714	2.291477	-0.412088	99
Es	-1.048723	-1.643553	0.241189	99
Es	0.943647	-0.331743	-0.467470	99
Es	-0.595038	0.925454	-1.261937	99
Es	1.264234	-0.296007	1.626971	99
Es	-1.231606	0.838734	-0.219000	99
Es	0.075050	-0.116507	1.842317	99
Es	0.837033	1.578107	1.365600	99
Es	0.507823	1.891696	1.966558	99
Es	0.208144	2.075449	0.065496	99
Es	-0.107925	-2.063075	-2.014113	99
Es	0.303613	-0.311811	-0.059569	99
49
Properties=species:S:1:pos:R:3:Z:I:1 energy=-273.3240543007222 field_type=dipole dipole="0.000000 0.000000 0.000000" charge=0
C	-0.731187	-2.050539	-1.595163	6
C	-0.408267	-1.660809	-0.160333	6
C	0.303633	-0.311809	-0.059583	6
C	-0.535587	0.879911	-0.514113	6
C	0.208143	2.075471	0.065487	6
C	0.837043	1.578121	1.365617	6
C	0.648213	0.062061	1.382097	6
H	-1.182627	-3.047489	-1.621643	1
H	0.174463	-2.072249	-2.209283	1
H	-1.439947	-1.351259	-2.048543	1
H	0.229043	-2.437119	0.280407	1
H	-1.337197	-1.646009	0.422867	1
H	1.230423	-0.344859	-0.648603	1
H	-1.548317	0.828571	-0.095533	1
H	-0.619737	0.946721	-1.603133	1
H	0.997343	2.395651	-0.625173	1
H	-0.454807	2.930551	0.228017	1
H	1.900013	1.842011	1.398247	1
H	0.360223	2.034761	2.239587	1
H	1.544053	-0.456139	1.738737	1
H	-0.174917	-0.195549	2.060046	1
Es	-0.594824	0.925500	-1.261947	99
Es	0.074809	-0.116574	1.842566	99
Es	-1.048873	-1.643456	0.241264	99
Es	0.033421	-2.194148	0.141281	99
Es	-0.408264	-1.660806	-0.160373	99
Es	0.481378	-0.145262	0.670479	99
Es	0.519780	1.840858	0.722640	99
Es	0.208144	2.075449	0.065497	99
Es	-0.132910	0.269919	-0.309365	99
Es	-1.215049	-1.570278	-1.902404	99
Es	-0.731183	-2.050537	-1.595147	99
Es	1.569213	1.758602	1.386275	99
Es	-0.248380	2.663168	0.177241	99
Es	-0.107615	-2.063148	-2.014207	99
Es	0.837032	1.578108	1.365600	99
Es	-0.057015	-0.986926	-0.114971	99
Es	0.507676	1.891707	1.966513	99
Es	0.303612	-0.311811	-0.059569	99
Es	0.943922	-0.331784	-0.467549	99
Es	1.264361	-0.295931	1.626712	99
Es	0.752848	2.291455	-0.412357	99
Es	-1.231898	0.838868	-0.218840	99
Es	-0.535575	0.879920	-0.514101	99
Es	0.648213	0.062084	1.382091	99
Es	-0.570165	-1.852349	-0.886723	99
Es	-1.039801	-2.731589	-1.612146	99
Es	0.753988	0.820002	1.387465	99
Es	-0.176330	1.491327	-0.236675	99
49
Properties=species:S:1:pos:R:3:Z:I:1 energy=-273.3240543007222 field_type=dipole dipole="0.000000 0.000000 0.000000" charge=0
C	-0.731187	-2.050539	-1.595163	6
C	-0.408267	-1.660809	-0.160333	6
C	0.303633	-0.311809	-0.059583	6
C	-0.535587	0.879911	-0.514113	6
C	0.208143	2.075471	0.065487	6
C	0.837043	1.578121	1.365617	6
C	0.648213	0.062061	1.382097	6
H	-1.182627	-3.047489	-1.621643	1
H	0.174463	-2.072249	-2.209283	1
H	-1.439947	-1.351259	-2.048543	1
H	0.229043	-2.437119	0.280407	1
H	-1.337197	-1.646009	0.422867	1
H	1.230423	-0.344859	-0.648603	1
H	-1.548317	0.828571	-0.095533	1
H	-0.619737	0.946721	-1.603133	1
H	0.997343	2.395651	-0.625173	1
H	-0.454807	2.930551	0.228017	1
H	1.900013	1.842011	1.398247	1
H	0.360223	2.034761	2.239587	1
H	1.544053	-0.456139	1.738737	1
H	-0.174917	-0.195549	2.060046	1
Es	0.507632	1.891633	1.966603	99
Es	1.264581	-0.295985	1.626684	99
Es	0.752976	2.291441	-0.412503	99
Es	0.074512	-0.116545	1.842540	99
Es	0.033484	-2.194078	0.141191	99
Es	-0.594674	0.925635	-1.261898	99
Es	0.753948	0.819866	1.387253	99
Es	-1.049124	-1.643449	0.241339	99
Es	-1.039791	-2.731460	-1.611980	99
Es	0.519620	1.840748	0.722700	99
Es	0.303609	-0.311818	-0.059568	99
Es	-1.232113	0.838937	-0.218752	99
Es	-0.107407	-2.063173	-2.014346	99
Es	-0.535575	0.879920	-0.514101	99
Es	0.208144	2.075449	0.065496	99
Es	-0.408264	-1.660806	-0.160373	99
Es	-1.215196	-1.570290	-1.902252	99
Es	-0.132875	0.269956	-0.309319	99
Es	0.648212	0.062082	1.382085	99
Es	1.569302	1.758610	1.386196	99
Es	0.481454	-0.145044	0.670532	99
Es	-0.731183	-2.050537	-1.595147	99
Es	0.944072	-0.331827	-0.467654	99
Es	-0.570047	-1.852376	-0.886836	99
Es	-0.176212	1.491246	-0.236616	99
Es	-0.248559	2.663105	0.177259	99
Es	0.837032	1.578108	1.365600	99
Es	-0.057043	-0.986980	-0.114885	99
49
Properties=species:S:1:pos:R:3:Z:I:1 energy=-273.3240543007222 field_type=dipole dipole="0.000000 0.000000 0.000000" charge=0
C	-0.731187	-2.050539	-1.595163	6
C	-0.408267	-1.660809	-0.160333	6
C	0.303633	-0.311809	-0.059583	6
C	-0.535587	0.879911	-0.514113	6
C	0.208143	2.075471	0.065487	6
C	0.837043	1.578121	1.365617	6
C	0.648213	0.062061	1.382097	6
H	-1.182627	-3.047489	-1.621643	1
H	0.174463	-2.072249	-2.209283	1
H	-1.439947	-1.351259	-2.048543	1
H	0.229043	-2.437119	0.280407	1
H	-1.337197	-1.646009	0.422867	1
H	1.230423	-0.344859	-0.648603	1
H	-1.548317	0.828571	-0.095533	1
H	-0.619737	0.946721	-1.603133	1
H	0.997343	2.395651	-0.625173	1
H	-0.454807	2.930551	0.228017	1
H	1.900013	1.842011	1.398247	1
H	0.360223	2.034761	2.239587	1
H	1.544053	-0.456139	1.738737	1
H	-0.174917	-0.195549	2.060046	1
Es	0.033611	-2.194099	0.141093	99
Es	-0.132921	0.269917	-0.309269	99
Es	0.481414	-0.145191	0.670575	99
Es	-1.049306	-1.643414	0.241405	99
Es	0.837033	1.578107	1.365600	99
Es	-1.232234	0.839003	-0.218748	99
Es	0.519359	1.840704	0.722712	99
Es	0.074375	-0.116620	1.842671	99
Es	-1.215281	-1.570251	-1.902222	99
Es	0.648214	0.062084	1.382091	99
Es	0.753165	2.291558	-0.412653	99
Es	1.264575	-0.295890	1.626568	99
Es	0.303613	-0.311811	-0.059568	99
Es	-0.535575	0.879919	-0.514102	99
Es	-0.107236	-2.063231	-2.014349	99
Es	0.208142	2.075450	0.065499	99
Es	1.569414	1.758590	1.386232	99
Es	-0.176377	1.491274	-0.236623	99
Es	0.507644	1.891536	1.966560	99
Es	0.944288	-0.331904	-0.467733	99
Es	-0.408265	-1.660807	-0.160373	99
Es	-0.056994	-0.986878	-0.114933	99
Es	0.753939	0.819934	1.387148	99
Es	-1.039774	-2.731349	-1.611902	99
Es	-0.731183	-2.050537	-1.595148	99
Es	-0.570064	-1.852379	-0.886791	99
Es	-0.248459	2.662911	0.177315	99
Es	-0.594603	0.925739	-1.261808	99
49
Properties=species:S:1:pos:R:3:Z:I:1 energy=-273.3240543007222 field_type=dipole dipole="0.000000 0.000000 0.000000" charge=0
C	-0.731187	-2.050539	-1.595163	6
C	-0.408267	-1.660809	-0.160333	6
C	0.303633	-0.311809	-0.059583	6
C	-0.535587	0.879911	-0.514113	6
C	0.208143	2.075471	0.065487	6
C	0.837043	1.578121	1.365617	6
C	0.648213	0.062061	1.382097	6
H	-1.182627	-3.047489	-1.621643	1
H	0.174463	-2.072249	-2.209283	1
H	-1.439947	-1.351259	-2.048543	1
H	0.229043	-2.437119	0.280407	1
H	-1.337197	-1.646009	0.422867	1
H	1.230423	-0.344859	-0.648603	1
H	-1.548317	0.828571	-0.095533	1
H	-0.619737	0.946721	-1.603133	1
H	0.997343	2.395651	-0.625173	1
H	-0.454807	2.930551	0.228017	1
H	1.900013	1.842011	1.398247	1
H	0.360223	2.034761	2.239587	1
H	1.544053	-0.456139	1.738737	1
H	-0.174917	-0.195549	2.060046	1
Es	0.481348	-0.145111	0.670615	99
Es	0.507451	1.891477	1.966584	99
Es	-0.107097	-2.063207	-2.014467	99
Es	-1.215366	-1.570323	-1.902103	99
Es	-1.049448	-1.643431	0.241474	99
Es	0.519409	1.840561	0.722505	99
Es	0.754135	0.819915	1.387049	99
Es	-0.408263	-1.660805	-0.160372	99
Es	-0.535575	0.879920	-0.514101	99
Es	0.208144	2.075449	0.065496	99
Es	0.753224	2.291420	-0.412717	99
Es	-1.039748	-2.731225	-1.611873	99
Es	1.569427	1.758650	1.386318	99
Es	-0.248671	2.663035	0.177383	99
Es	-0.056972	-0.986910	-0.115017	99
Es	0.837032	1.578107	1.365600	99
Es	0.944349	-0.331892	-0.467705	99
Es	0.033648	-2.194041	0.141013	99
Es	0.648215	0.062084	1.382090	99
Es	-0.176281	1.491156	-0.236565	99
Es	-0.594493	0.925785	-1.261862	99
Es	0.074287	-0.116545	1.842714	99
Es	-1.232353	0.839043	-0.218660	99
Es	1.264596	-0.295962	1.626515	99
Es	-0.132850	0.270026	-0.309229	99
Es	-0.731183	-2.050537	-1.595147	99
Es	-0.570064	-1.852460	-0.886723	99
Es	0.303612	-0.311812	-0.059568	99
49
Properties=species:S:1:pos:R:3:Z:I:1 energy=-273.3240543007222 field_type=dipole dipole="0.000000 0.000000 0.000000" charge=0
C	-0.731187	-2.050539	-1.595163	6
C	-0.408267	-1.660809	-0.160333	6
C	0.303633	-0.311809	-0.059583	6
C	-0.535587	0.879911	-0.514113	6
C	0.208143	2.075471	0.065487	6
C	0.837043	1.578121	1.365617	6
C	0.648213	0.062061	1.382097	6
H	-1.182627	-3.047489	-1.621643	1
H	0.174463	-2.072249	-2.209283	1
H	-1.439947	-1.351259	-2.048543	1
H	0.229043	-2.437119	0.280407	1
H	-1.337197	-1.646009	0.422867	1
H	1.230423	-0.344859	-0.648603	1
H	-1.548317	0.828571	-0.095533	1
H	-0.619737	0.946721	-1.603133	1
H	0.997343	2.395651	-0.625173	1
H	-0.454807	2.930551	0.228017	1
H	1.900013	1.842011	1.398247	1
H	0.360223	2.034761	2.239587	1
H	1.544053	-0.456139	1.738737	1
H	-0.174917	-0.195549	2.060046	1
Es	-1.039782	-2.731188	-1.611839	99
Es	0.303613	-0.311811	-0.059569	99
Es	0.648215	0.062083	1.382092	99
Es	-1.215374	-1.570240	-1.902085	99
Es	0.074113	-0.116620	1.842748	99
Es	-0.176256	1.491194	-0.236515	99
Es	-0.570064	-1.852421	-0.886732	99
Es	0.519225	1.840579	0.722705	99
Es	0.837032	1.578107	1.365599	99
Es	0.753269	2.291498	-0.412882	99
Es	-0.731184	-2.050538	-1.595147	99
Es	-0.594435	0.925834	-1.261832	99
Es	0.208144	2.075451	0.065496	99
Es	0.507562	1.891452	1.966562	99
Es	-0.056969	-0.986884	-0.114895	99
Es	-0.408265	-1.660807	-0.160372	99
Es	-0.535575	0.879920	-0.514101	99
Es	-1.232460	0.839059	-0.218589	99
Es	-1.049505	-1.643437	0.241435	99
Es	0.033660	-2.194132	0.140956	99
Es	-0.132855	0.270040	-0.309197	99
Es	-0.248660	2.662834	0.177300	99
Es	1.569588	1.758556	1.386243	99
Es	0.481408	-0.145009	0.670598	99
Es	-0.107020	-2.063258	-2.014441	99
Es	0.944453	-0.331908	-0.467759	99
Es	1.264755	-0.295878	1.626460	99
Es	0.753880	0.819892	1.387011	99
49
Properties=species:S:1:pos:R:3:Z:I:1 energy=-273.3240543007222 field_type=dipole dipole="0.000000 0.000000 0.000000" charge=0
C	-0.731187	-2.050539	-1.595163	6
C	-0.408267	-1.660809	-0.160333	6
C	0.303633	-0.311809	-0.059583	6
C	-0.535587	0.879911	-0.514113	6
C	0.208143	2.075471	0.065487	6
C	0.837043	1.578121	1.365617	6
C	0.648213	0.062061	1.382097	6
H	-1.182627	-3.047489	-1.621643	1
H	0.174463	-2.072249	-2.209283	1
H	-1.439947	-1.351259	-2.048543	1
H	0.229043	-2.437119	0.280407	1
H	-1.337197	-1.646009	0.422867	1
H	1.230423	-0.344859	-0.648603	1
H	-1.548317	0.828571	-0.095533	1
H	-0.619737	0.946721	-1.603133	1
H	0.997343	2.395651	-0.625173	1
H	-0.454807	2.930551	0.228017	1
H	1.900013	1.842011	1.398247	1
H	0.360223	2.034761	2.239587	1
H	1.544053	-0.456139	1.738737	1
H	-0.174917	-0.195549	2.060046	1
Es	0.208144	2.075449	0.065497	99
Es	-0.570117	-1.852498	-0.886718	99
Es	-0.535576	0.879919	-0.514100	99
Es	0.944524	-0.331915	-0.467775	99
Es	-0.056970	-0.986883	-0.114960	99
Es	1.569611	1.758557	1.386260	99
Es	-0.106922	-2.063236	-2.014491	99
Es	-0.248753	2.662835	0.177310	99
Es	-1.039750	-2.731123	-1.611813	99
Es	0.753907	0.819883	1.386975	99
Es	0.507465	1.891474	1.966560	99
Es	-1.232571	0.839130	-0.218540	99
Es	-1.049559	-1.643415	0.241498	99
Es	-1.215432	-1.570295	-1.902033	99
Es	-0.594369	0.925832	-1.261784	99
Es	0.519232	1.840501	0.722635	99
Es	0.837031	1.578108	1.365600	99
Es	0.481373	-0.144986	0.670622	99
Es	-0.176156	1.491108	-0.236556	99
Es	1.264806	-0.295893	1.626414	99
Es	0.033724	-2.194071	0.140952	99
Es	-0.132887	0.270079	-0.309179	99
Es	-0.731183	-2.050537	-1.595147	99
Es	0.753326	2.291485	-0.412913	99
Es	0.074055	-0.116609	1.842787	99
Es	0.648215	0.062085	1.382091	99
Es	0.303613	-0.311811	-0.059569	99
Es	-0.408263	-1.660805	-0.160373	99
49
Properties=species:S:1:pos:R:3:Z:I:1 energy=-273.3240543007222 field_type=dipole dipole="0.000000 0.000000 0.000000" charge=0
C	-0.731187	-2.050539	-1.595163	6
C	-0.408267	-1.660809	-0.160333	6
C	0.303633	-0.311809	-0.059583	6
C	-0.535587	0.879911	-0.514113	6
C	0.208143	2.075471	0.065487	6
C	0.837043	1.578121	1.365617	6
C	0.648213	0.062061	1.382097	6
H	-1.182627	-3.047489	-1.621643	1
H	0.174463	-2.072249	-2.209283	1
H	-1.439947	-1.351259	-2.048543	1
H	0.229043	-2.437119	0.280407	1
H	-1.337197	-1.646009	0.422867	1
H	1.230423	-0.344859	-0.648603	1
H	-1.548317	0.828571	-0.095533	1
H	-0.619737	0.946721	-1.603133	1
H	0.997343	2.395651	-0.625173	1
H	-0.454807	2.930551	0.228017	1
H	1.900013	1.842011	1.398247	1
H	0.360223	2.034761	2.239587	1
H	1.544053	-0.456139	1.738737	1
H	-0.174917	-0.195549	2.060046	1
Es	-0.535575	0.879920	-0.514101	99
Es	-1.232546	0.839187	-0.218454	99
Es	-0.132913	0.270088	-0.309124	99
Es	0.837032	1.578108	1.365600	99
Es	-0.248789	2.662738	0.177340	99
Es	-0.056987	-0.986806	-0.114878	99
Es	0.208143	2.075450	0.065496	99
Es	0.481365	-0.145025	0.670643	99
Es	0.033730	-2.194053	0.140963	99
Es	-0.594393	0.925886	-1.261852	99
Es	-0.176159	1.491154	-0.236482	99
Es	0.753940	0.819838	1.386867	99
Es	-0.106879	-2.063259	-2.014534	99
Es	0.303613	-0.311810	-0.059568	99
Es	-1.049645	-1.643439	0.241454	99
Es	0.507525	1.891496	1.966638	99
Es	1.264818	-0.295883	1.626362	99
Es	0.074001	-0.116615	1.842832	99
Es	0.519118	1.840442	0.722725	99
Es	-0.731184	-2.050538	-1.595148	99
Es	0.753426	2.291497	-0.413057	99
Es	-1.215414	-1.570250	-1.901956	99
Es	-0.570020	-1.852539	-0.886751	99
Es	-1.039814	-2.731085	-1.611802	99
Es	0.944594	-0.331966	-0.467836	99
Es	-0.408264	-1.660806	-0.160373	99
Es	1.569578	1.758553	1.386156	99
Es	0.648214	0.062084	1.382090	99
49
Properties=species:S:1:pos:R:3:Z:I:1 energy=-273.3240543007222 field_type=dipole dipole="0.000000 0.000000 0.000000" charge=0
C	-0.731187	-2.050539	-1.595163	6
C	-0.408267	-1.660809	-0.160333	6
C	0.303633	-0.311809	-0.059583	6
C	-0.535587	0.879911	-0.514113	6
C	0.208143	2.075471	0.065487	6
C	0.837043	1.578121	1.365617	6
C	0.648213	0.062061	1.382097	6
H	-1.182627	-3.047489	-1.621643	1
H	0.174463	-2.072249	-2.209283	1
H	-1.439947	-1.351259	-2.048543	1
H	0.229043	-2.437119	0.280407	1
H	-1.337197	-1.646009	0.422867	1
H	1.230423	-0.344859	-0.648603	1
H	-1.548317	0.828571	-0.095533	1
H	-0.619737	0.946721	-1.603133	1
H	0.997343	2.395651	-0.625173	1
H	-0.454807	2.930551	0.228017	1
H	1.900013	1.842011	1.398247	1
H	0.360223	2.034761	2.239587	1
H	1.544053	-0.456139	1.738737	1
H	-0.174917	-0.195549	2.060046	1
Es	-1.215472	-1.570289	-1.901995	99
Es	0.507480	1.891423	1.966650	99
Es	-0.731183	-2.050537	-1.595148	99
Es	-1.049708	-1.643412	0.241534	99
Es	-0.057029	-0.986886	-0.114950	99
Es	-1.039770	-2.731086	-1.611704	99
Es	1.264923	-0.295935	1.626455	99
Es	0.303613	-0.311811	-0.059569	99
Es	0.753472	2.291529	-0.413071	99
Es	0.208144	2.075449	0.065496	99
Es	0.753830	0.819872	1.386856	99
Es	-0.535575	0.879920	-0.514101	99
Es	0.074006	-0.116561	1.842731	99
Es	0.481276	-0.144951	0.670634	99
Es	0.519031	1.840446	0.722661	99
Es	0.837032	1.578108	1.365600	99
Es	0.648213	0.062082	1.382085	99
Es	-0.594309	0.925906	-1.261793	99
Es	-0.176184	1.491169	-0.236453	99
Es	0.944675	-0.331912	-0.467860	99
Es	-0.132811	0.270087	-0.309098	99
Es	-0.408263	-1.660805	-0.160373	99
Es	-0.248795	2.662704	0.177353	99
Es	-0.570061	-1.852417	-0.886731	99
Es	0.033794	-2.194085	0.140869	99
Es	1.569668	1.758519	1.386177	99
Es	-0.106832	-2.063276	-2.014526	99
Es	-1.232650	0.839117	-0.218481	99
49
Properties=species:S:1:pos:R:3:Z:I:1 energy=-273.3240543007222 field_type=dipole dipole="0.000000 0.000000 0.000000" charge=0
C	-0.731187	-2.050539	-1.595163	6
C	-0.408267	-1.660809	-0.160333	6
C	0.303633	-0.311809	-0.059583	6
C	-0.535587	0.879911	-0.514113	6
C	0.208143	2.075471	0.065487	6
C	0.837043	1.578121	1.365617	6
C	0.648213	0.062061	1.382097	6
H	-1.182627	-3.047489	-1.621643	1
H	0.174463	-2.072249	-2.209283	1
H	-1.439947	-1.351259	-2.048543	1
H	0.229043	-2.437119	0.280407	1
H	-1.337197	-1.646009	0.422867	1
H	1.230423	-0.344859	-0.648603	1
H	-1.548317	0.828571	-0.095533	1
H	-0.619737	0.946721	-1.603133	1
H	0.997343	2.395651	-0.625173	1
H	-0.454807	2.930551	0.228017	1
H	1.900013	1.842011	1.398247	1
H	0.360223	2.034761	2.239587	1
H	1.544053	-0.456139	1.738737	1
H	-0.174917	-0.195549	2.060046	1
Es	0.507439	1.891264	1.966631	99
Es	0.754048	0.819826	1.386721	99
Es	0.481568	-0.144949	0.670727	99
Es	-0.570132	-1.852453	-0.886708	99
Es	-0.106719	-2.063262	-2.014637	99
Es	-0.248757	2.662697	0.177160	99
Es	0.648215	0.062085	1.382091	99
Es	0.033773	-2.194143	0.140858	99
Es	-0.535575	0.879920	-0.514101	99
Es	-0.731183	-2.050537	-1.595147	99
Es	0.944569	-0.331919	-0.467890	99
Es	0.518916	1.840488	0.722908	99
Es	-1.215460	-1.570331	-1.901863	99
Es	1.264842	-0.295812	1.626285	99
Es	-0.408265	-1.660806	-0.160372	99
Es	0.303613	-0.311811	-0.059569	99
Es	-1.232655	0.839183	-0.218360	99
Es	1.569689	1.758691	1.386201	99
Es	0.837032	1.578108	1.365600	99
Es	0.073801	-0.116691	1.842884	99
Es	-0.132805	0.270122	-0.309072	99
Es	-0.176318	1.490999	-0.236599	99
Es	-0.056809	-0.986883	-0.115023	99
Es	-0.594314	0.926015	-1.261865	99
Es	-1.039846	-2.731041	-1.611638	99
Es	0.753446	2.291482	-0.413011	99
Es	-1.049743	-1.643325	0.241538	99
Es	0.208143	2.075449	0.065497	99
49
Properties=species:S:1:pos:R:3:Z:I:1 energy=-273.3240543007222 field_type=dipole dipole="0.000000 0.000000 0.000000" charge=0
C	-0.731187	-2.050539	-1.595163	6
C	-0.408267	-1.660809	-0.160333	6
C	0.303633	-0.311809	-0.059583	6
C	-0.535587	0.879911	-0.514113	6
C	0.208143	2.075471	0.065487	6
C	0.837043	1.578121	1.365617	6
C	0.648213	0.062061	1.382097	6
H	-1.182627	-3.047489	-1.621643	1
H	0.174463	-2.072249	-2.209283	1
H	-1.439947	-1.351259	-2.048543	1
H	0.229043	-2.437119	0.280407	1
H	-1.337197	-1.646009	0.422867	1
H	1.230423	-0.344859	-0.648603	1
H	-1.548317	0.828571	-0.095533	1
H	-0.619737	0.946721	-1.603133	1
H	0.997343	2.395651	-0.625173	1
H	-0.454807	2.930551	0.228017	1
H	1.900013	1.842011	1.398247	1
H	0.360223	2.034761	2.239587	1
H	1.544053	-0.456139	1.738737	1
H	-0.174917	-0.195549	2.060046	1
Es	-1.215505	-1.570302	-1.901940	99
Es	0.753900	0.819881	1.386800	99
Es	-0.176089	1.491157	-0.236351	99
Es	-0.056980	-0.986876	-0.114954	99
Es	0.303613	-0.311811	-0.059569	99
Es	0.507488	1.891316	1.966553	99
Es	-0.535575	0.879920	-0.514101	99
Es	-0.594273	0.926004	-1.261839	99
Es	-0.408264	-1.660805	-0.160373	99
Es	-0.731183	-2.050537	-1.595147	99
Es	1.264854	-0.295803	1.626214	99
Es	0.944723	-0.331954	-0.467831	99
Es	0.518952	1.840404	0.722692	99
Es	-1.039771	-2.731059	-1.611660	99
Es	-0.106767	-2.063266	-2.014566	99
Es	-0.132810	0.270106	-0.309098	99
Es	-1.049796	-1.643417	0.241559	99
Es	0.208143	2.075448	0.065493	99
Es	-0.570044	-1.852414	-0.886711	99
Es	-1.232678	0.839196	-0.218425	99
Es	0.033824	-2.194083	0.140815	99
Es	1.569787	1.758537	1.386257	99
Es	0.073797	-0.116701	1.842951	99
Es	0.648215	0.062084	1.382091	99
Es	0.481397	-0.144908	0.670684	99
Es	-0.248953	2.662684	0.177313	99
Es	0.837031	1.578108	1.365599	99
Es	0.753480	2.291460	-0.413205	99
