38
Properties=species:S:1:pos:R:3:Z:I:1 energy=-358.69455610767653 field_type=dipole dipole="0.000000 0.000000 0.000000" charge=0
C	-1.814144	-0.092142	0.285140	6
C	-0.499224	-0.003852	0.085210	6
C	0.384506	1.196318	0.141750	6
O	1.696186	0.684528	-0.173960	8
C	1.598696	-0.664562	-0.382590	6
O	2.531096	-1.395852	-0.666000	8
N	0.298726	-1.051342	-0.224360	7
H	-2.341894	-1.037452	0.211050	1
H	-2.402464	0.787277	0.528770	1
H	0.417126	1.641538	1.140060	1
H	0.114686	1.947577	-0.605500	1
H	0.016706	-2.012033	-0.339570	1
Es	1.598531	-0.664318	-0.382513	99
Es	-0.074156	0.600069	0.117141	99
Es	2.179995	-1.108790	-0.816306	99
Es	1.195395	0.854651	-0.058419	99
Es	-1.151718	-0.098233	0.515807	99
Es	1.776394	0.770621	-0.434836	99
Es	0.337171	-0.940112	-0.345717	99
Es	0.384708	1.196157	0.141689	99
Es	1.859568	0.683934	0.060878	99
Es	0.396467	1.488808	0.811727	99
Es	2.264815	-1.190383	-0.326707	99
Es	2.794969	-1.249968	-0.687270	99
Es	0.865391	-0.905581	-0.225169	99
Es	-0.058269	-0.623227	-0.049209	99
Es	0.194012	1.694119	-0.358505	99
Es	-1.814179	-0.092141	0.285146	99
Es	2.417861	-1.677628	-0.693563	99
Es	-2.209377	0.502404	0.449712	99
Es	-1.257904	0.010021	-0.128265	99
Es	1.624629	0.170744	-0.248967	99
Es	-2.164502	-0.733854	0.233833	99
Es	2.530863	-1.395661	-0.665925	99
Es	-0.498960	-0.003936	0.085150	99
Es	0.299068	-1.051187	-0.223430	99
Es	0.131229	-1.612282	-0.272420	99
Es	1.695992	0.684383	-0.173963	99
38
Properties=species:S:1:pos:R:3:Z:I:1 energy=-358.69455610767653 field_type=dipole dipole="0.000000 0.000000 0.000000" charge=0
C	-1.814144	-0.092142	0.285140	6
C	-0.499224	-0.003852	0.085210	6
C	0.384506	1.196318	0.141750	6
O	1.696186	0.684528	-0.173960	8
C	1.598696	-0.664562	-0.382590	6
O	2.531096	-1.395852	-0.666000	8
N	0.298726	-1.051342	-0.224360	7
H	-2.341894	-1.037452	0.211050	1
H	-2.402464	0.787277	0.528770	1
H	0.417126	1.641538	1.140060	1
H	0.114686	1.947577	-0.605500	1
H	0.016706	-2.012033	-0.339570	1
Es	0.351223	-0.966353	-0.215638	99
Es	2.816142	-1.272029	-0.694077	99
Es	-0.075222	0.599239	0.116870	99
Es	0.395887	1.488433	0.810979	99
Es	1.629447	0.170066	-0.245646	99
Es	-2.162335	-0.732357	0.233640	99
Es	2.263238	-1.188823	-0.328058	99
Es	0.298733	-1.051260	-0.224517	99
Es	1.771171	0.761389	-0.431329	99
Es	-1.257206	0.009698	-0.128023	99
Es	-0.070505	-0.612507	-0.087938	99
Es	-1.814182	-0.092141	0.285147	99
Es	0.193617	1.693826	-0.357789	99
Es	1.598528	-0.664316	-0.382519	99
Es	0.128977	-1.608814	-0.291688	99
Es	0.384706	1.196156	0.141685	99
Es	2.530874	-1.395686	-0.665936	99
Es	2.182000	-1.110064	-0.815658	99
Es	2.396802	-1.655744	-0.685867	99
Es	-1.152645	-0.098844	0.516121	99
Es	1.695834	0.684285	-0.173978	99
Es	-0.498955	-0.003939	0.085152	99
Es	1.864055	0.689592	0.052199	99
Es	1.192315	0.858320	-0.056837	99
Es	-2.211561	0.503921	0.450103	99
Es	0.867054	-0.893441	-0.296499	99
38
Properties=species:S:1:pos:R:3:Z:I:1 energy=-358.69455610767653 field_type=dipole dipole="0.000000 0.000000 0.000000" charge=0
C	-1.814144	-0.092142	0.285140	6
C	-0.499224	-0.003852	0.085210	6
C	0.384506	1.196318	0.141750	6
O	1.696186	0.684528	-0.173960	8
C	1.598696	-0.664562	-0.382590	6
O	2.531096	-1.395852	-0.666000	8
N	0.298726	-1.051342	-0.224360	7
H	-2.341894	-1.037452	0.211050	1
H	-2.402464	0.787277	0.528770	1
H	0.417126	1.641538	1.140060	1
H	0.114686	1.947577	-0.605500	1
H	0.016706	-2.012033	-0.339570	1
Es	0.299238	-1.051086	-0.223023	99
Es	1.862305	0.690840	0.046161	99
Es	1.598527	-0.664312	-0.382519	99
Es	2.832442	-1.307395	-0.703274	99
Es	1.191408	0.860646	-0.055943	99
Es	2.267491	-1.186050	-0.330050	99
Es	-2.160782	-0.731631	0.233565	99
Es	0.349954	-0.965488	-0.221854	99
Es	-2.212905	0.504531	0.450757	99
Es	1.770348	0.759558	-0.426303	99
Es	1.695832	0.684288	-0.173917	99
Es	0.395854	1.488464	0.810014	99
Es	-1.814186	-0.092143	0.285152	99
Es	2.375465	-1.626269	-0.676149	99
Es	-0.076606	0.598575	0.116992	99
Es	-1.257719	0.009417	-0.127527	99
Es	-1.152417	-0.098957	0.515290	99
Es	2.530879	-1.395696	-0.665939	99
Es	0.868230	-0.895332	-0.293787	99
Es	-0.071188	-0.613177	-0.087213	99
Es	2.183039	-1.106814	-0.814230	99
Es	-0.498953	-0.003940	0.085153	99
Es	0.384707	1.196158	0.141684	99
Es	0.193804	1.693609	-0.356947	99
Es	1.633353	0.168022	-0.245728	99
Es	0.129872	-1.607207	-0.290466	99
38
Properties=species:S:1:pos:R:3:Z:I:1 energy=-358.69455610767653 field_type=dipole dipole="0.000000 0.000000 0.000000" charge=0
C	-1.814144	-0.092142	0.285140	6
C	-0.499224	-0.003852	0.085210	6
C	0.384506	1.196318	0.141750	6
O	1.696186	0.684528	-0.173960	8
C	1.598696	-0.664562	-0.382590	6
O	2.531096	-1.395852	-0.666000	8
N	0.298726	-1.051342	-0.224360	7
H	-2.341894	-1.037452	0.211050	1
H	-2.402464	0.787277	0.528770	1
H	0.417126	1.641538	1.140060	1
H	0.114686	1.947577	-0.605500	1
H	0.016706	-2.012033	-0.339570	1
Es	2.369796	-1.605419	-0.673830	99
Es	2.182941	-1.105912	-0.812257	99
Es	1.898730	0.733212	0.020373	99
Es	2.267533	-1.188221	-0.328984	99
Es	2.530846	-1.395611	-0.665916	99
Es	0.298701	-1.051114	-0.224947	99
Es	1.639802	0.164487	-0.230620	99
Es	1.598528	-0.664314	-0.382517	99
Es	-1.152892	-0.098449	0.514536	99
Es	1.695829	0.684181	-0.173781	99
Es	0.351472	-0.966204	-0.214693	99
Es	-1.814189	-0.092143	0.285149	99
Es	-0.077564	0.597988	0.116835	99
Es	2.838362	-1.326955	-0.708758	99
Es	0.867316	-0.895023	-0.301751	99
Es	-0.498950	-0.003938	0.085148	99
Es	1.727000	0.719336	-0.420870	99
Es	0.130838	-1.606532	-0.286245	99
Es	1.192074	0.861942	-0.050915	99
Es	0.384707	1.196158	0.141682	99
Es	-2.159534	-0.731195	0.234785	99
Es	0.395870	1.487986	0.809165	99
Es	0.193916	1.693956	-0.356398	99
Es	-1.257608	0.008969	-0.127925	99
Es	-0.071794	-0.613359	-0.088701	99
Es	-2.213739	0.504783	0.451331	99
38
Properties=species:S:1:pos:R:3:Z:I:1 energy=-358.69455610767653 field_type=dipole dipole="0.000000 0.000000 0.000000" charge=0
C	-1.814144	-0.092142	0.285140	6
C	-0.499224	-0.003852	0.085210	6
C	0.384506	1.196318	0.141750	6
O	1.696186	0.684528	-0.173960	8
C	1.598696	-0.664562	-0.382590	6
O	2.531096	-1.395852	-0.666000	8
N	0.298726	-1.051342	-0.224360	7
H	-2.341894	-1.037452	0.211050	1
H	-2.402464	0.787277	0.528770	1
H	0.417126	1.641538	1.140060	1
H	0.114686	1.947577	-0.605500	1
H	0.016706	-2.012033	-0.339570	1
Es	1.749101	0.599891	0.015452	99
Es	-2.214910	0.504770	0.450216	99
Es	1.883903	0.838434	-0.344620	99
Es	2.841422	-1.351326	-0.710204	99
Es	-0.498949	-0.003941	0.085153	99
Es	-1.151805	-0.100386	0.516419	99
Es	2.179992	-1.105926	-0.817035	99
Es	2.368434	-1.581364	-0.666620	99
Es	1.695765	0.684262	-0.174117	99
Es	0.129925	-1.603662	-0.296458	99
Es	2.530844	-1.395564	-0.665908	99
Es	1.634740	0.174267	-0.287012	99
Es	0.395336	1.489238	0.810368	99
Es	0.384711	1.196150	0.141688	99
Es	1.189874	0.865867	-0.065374	99
Es	-0.077248	0.597556	0.117414	99
Es	1.598526	-0.664311	-0.382525	99
Es	-2.159094	-0.729265	0.231263	99
Es	-0.072342	-0.613799	-0.088280	99
Es	0.870324	-0.898558	-0.284040	99
Es	0.194000	1.692184	-0.356497	99
Es	2.268944	-1.188002	-0.329735	99
Es	0.298838	-1.051327	-0.223971	99
Es	-1.814189	-0.092138	0.285128	99
Es	-1.258257	0.010136	-0.126906	99
Es	0.350105	-0.964576	-0.223898	99
38
Properties=species:S:1:pos:R:3:Z:I:1 energy=-358.69455610767653 field_type=dipole dipole="0.000000 0.000000 0.000000" charge=0
C	-1.814144	-0.092142	0.285140	6
C	-0.499224	-0.003852	0.085210	6
C	0.384506	1.196318	0.141750	6
O	1.696186	0.684528	-0.173960	8
C	1.598696	-0.664562	-0.382590	6
O	2.531096	-1.395852	-0.666000	8
N	0.298726	-1.051342	-0.224360	7
H	-2.341894	-1.037452	0.211050	1
H	-2.402464	0.787277	0.528770	1
H	0.417126	1.641538	1.140060	1
H	0.114686	1.947577	-0.605500	1
H	0.016706	-2.012033	-0.339570	1
Es	0.870543	-0.899152	-0.284945	99
Es	1.598526	-0.664313	-0.382521	99
Es	0.298779	-1.051316	-0.224217	99
Es	2.182062	-1.107281	-0.819460	99
Es	-0.072826	-0.613664	-0.090208	99
Es	-0.077260	0.597018	0.117699	99
Es	-2.158414	-0.728633	0.231567	99
Es	1.636001	0.174324	-0.288519	99
Es	2.530824	-1.395515	-0.665896	99
Es	1.903820	0.846387	-0.319899	99
Es	-0.498952	-0.003940	0.085152	99
Es	0.129841	-1.602247	-0.298056	99
Es	0.384711	1.196157	0.141689	99
Es	1.695737	0.684230	-0.174195	99
Es	-2.215524	0.504648	0.450227	99
Es	1.727987	0.590816	-0.008131	99
Es	-1.150683	-0.100311	0.516360	99
Es	0.395234	1.489269	0.810328	99
Es	2.266846	-1.186207	-0.328911	99
Es	1.189862	0.866773	-0.064897	99
Es	2.367886	-1.564860	-0.663892	99
Es	2.842107	-1.368267	-0.711330	99
Es	-1.259450	0.010242	-0.127213	99
Es	-1.814188	-0.092142	0.285147	99
Es	0.193729	1.691995	-0.356767	99
Es	0.350792	-0.965404	-0.219210	99
38
Properties=species:S:1:pos:R:3:Z:I:1 energy=-358.69455610767653 field_type=dipole dipole="0.000000 0.000000 0.000000" charge=0
C	-1.814144	-0.092142	0.285140	6
C	-0.499224	-0.003852	0.085210	6
C	0.384506	1.196318	0.141750	6
O	1.696186	0.684528	-0.173960	8
C	1.598696	-0.664562	-0.382590	6
O	2.531096	-1.395852	-0.666000	8
N	0.298726	-1.051342	-0.224360	7
H	-2.341894	-1.037452	0.211050	1
H	-2.402464	0.787277	0.528770	1
H	0.417126	1.641538	1.140060	1
H	0.114686	1.947577	-0.605500	1
H	0.016706	-2.012033	-0.339570	1
Es	0.298701	-1.051084	-0.225012	99
Es	1.702800	0.584759	-0.045614	99
Es	-0.498952	-0.003940	0.085153	99
Es	1.638160	0.172928	-0.288033	99
Es	1.598528	-0.664316	-0.382516	99
Es	-1.258486	0.010208	-0.128184	99
Es	0.395082	1.488820	0.810644	99
Es	2.177805	-1.105588	-0.819165	99
Es	-2.215839	0.504453	0.450229	99
Es	0.193374	1.692216	-0.357102	99
Es	0.130309	-1.602242	-0.295588	99
Es	2.270339	-1.189863	-0.326538	99
Es	-2.158096	-0.727816	0.231690	99
Es	1.189774	0.867241	-0.065435	99
Es	-0.072866	-0.613682	-0.090227	99
Es	0.350819	-0.965445	-0.218629	99
Es	-0.077007	0.596744	0.117390	99
Es	2.370326	-1.543801	-0.660981	99
Es	1.926760	0.853183	-0.282571	99
Es	-1.151612	-0.100452	0.517585	99
Es	0.384708	1.196154	0.141688	99
Es	1.695797	0.684277	-0.174022	99
Es	-1.814188	-0.092142	0.285151	99
Es	2.530866	-1.395489	-0.665902	99
Es	2.840448	-1.387360	-0.716925	99
Es	0.870442	-0.899152	-0.287186	99
38
Properties=species:S:1:pos:R:3:Z:I:1 energy=-358.69455610767653 field_type=dipole dipole="0.000000 0.000000 0.000000" charge=0
C	-1.814144	-0.092142	0.285140	6
C	-0.499224	-0.003852	0.085210	6
C	0.384506	1.196318	0.141750	6
O	1.696186	0.684528	-0.173960	8
C	1.598696	-0.664562	-0.382590	6
O	2.531096	-1.395852	-0.666000	8
N	0.298726	-1.051342	-0.224360	7
H	-2.341894	-1.037452	0.211050	1
H	-2.402464	0.787277	0.528770	1
H	0.417126	1.641538	1.140060	1
H	0.114686	1.947577	-0.605500	1
H	0.016706	-2.012033	-0.339570	1
Es	-2.216011	0.503966	0.451964	99
Es	-0.498952	-0.003934	0.085151	99
Es	1.650487	0.160547	-0.219187	99
Es	1.652159	0.623209	-0.296805	99
Es	1.695884	0.684072	-0.173425	99
Es	-1.258084	0.009128	-0.130573	99
Es	1.192817	0.864886	-0.047028	99
Es	-2.157095	-0.727641	0.235035	99
Es	-1.152530	-0.099013	0.516882	99
Es	1.961915	0.829538	-0.119587	99
Es	2.530850	-1.395548	-0.665905	99
Es	2.265674	-1.190800	-0.322098	99
Es	0.384711	1.196156	0.141687	99
Es	-1.814187	-0.092143	0.285156	99
Es	-0.072253	-0.614503	-0.085921	99
Es	0.132220	-1.603406	-0.284833	99
Es	2.839335	-1.393622	-0.720630	99
Es	2.182859	-1.106437	-0.817807	99
Es	2.371056	-1.535610	-0.663429	99
Es	0.395073	1.487374	0.810350	99
Es	0.192817	1.693462	-0.357279	99
Es	0.298740	-1.051282	-0.224442	99
Es	0.868550	-0.897426	-0.300143	99
Es	-0.076951	0.596815	0.116270	99
Es	1.598527	-0.664313	-0.382516	99
Es	0.350378	-0.964866	-0.220987	99
38
Properties=species:S:1:pos:R:3:Z:I:1 energy=-358.69455610767653 field_type=dipole dipole="0.000000 0.000000 0.000000" charge=0
C	-1.814144	-0.092142	0.285140	6
C	-0.499224	-0.003852	0.085210	6
C	0.384506	1.196318	0.141750	6
O	1.696186	0.684528	-0.173960	8
C	1.598696	-0.664562	-0.382590	6
O	2.531096	-1.395852	-0.666000	8
N	0.298726	-1.051342	-0.224360	7
H	-2.341894	-1.037452	0.211050	1
H	-2.402464	0.787277	0.528770	1
H	0.417126	1.641538	1.140060	1
H	0.114686	1.947577	-0.605500	1
H	0.016706	-2.012033	-0.339570	1
Es	-1.258594	0.010052	-0.129201	99
Es	0.384708	1.196159	0.141680	99
Es	1.189963	0.867608	-0.062372	99
Es	0.870362	-0.899524	-0.289707	99
Es	0.394972	1.488018	0.810564	99
Es	0.298855	-1.050487	-0.225747	99
Es	-0.072979	-0.613835	-0.089923	99
Es	0.130651	-1.601423	-0.294188	99
Es	-0.076949	0.596407	0.117247	99
Es	-1.151634	-0.100220	0.517893	99
Es	-0.498955	-0.003939	0.085147	99
Es	2.839377	-1.400478	-0.718673	99
Es	2.530856	-1.395501	-0.665899	99
Es	1.683899	0.587717	-0.090733	99
Es	-2.157197	-0.726974	0.232520	99
Es	2.268136	-1.189507	-0.325575	99
Es	1.598527	-0.664314	-0.382521	99
Es	1.695447	0.683739	-0.174570	99
Es	-2.216544	0.504104	0.450554	99
Es	1.942985	0.853619	-0.248840	99
Es	0.350789	-0.966103	-0.216999	99
Es	2.375000	-1.526673	-0.657883	99
Es	0.193002	1.692763	-0.357258	99
Es	1.641009	0.169442	-0.279263	99
Es	2.176490	-1.109900	-0.821497	99
Es	-1.814187	-0.092141	0.285145	99
38
Properties=species:S:1:pos:R:3:Z:I:1 energy=-358.69455610767653 field_type=dipole dipole="0.000000 0.000000 0.000000" charge=0
C	-1.814144	-0.092142	0.285140	6
C	-0.499224	-0.003852	0.085210	6
C	0.384506	1.196318	0.141750	6
O	1.696186	0.684528	-0.173960	8
C	1.598696	-0.664562	-0.382590	6
O	2.531096	-1.395852	-0.666000	8
N	0.298726	-1.051342	-0.224360	7
H	-2.341894	-1.037452	0.211050	1
H	-2.402464	0.787277	0.528770	1
H	0.417126	1.641538	1.140060	1
H	0.114686	1.947577	-0.605500	1
H	0.016706	-2.012033	-0.339570	1
Es	0.348705	-0.966658	-0.223217	99
Es	0.394894	1.487619	0.810612	99
Es	1.191757	0.866304	-0.051526	99
Es	0.869120	-0.898320	-0.298532	99
Es	2.181486	-1.108664	-0.819704	99
Es	0.192624	1.692938	-0.357521	99
Es	1.695804	0.683733	-0.173066	99
Es	-1.814189	-0.092141	0.285144	99
Es	1.962772	0.840258	-0.155569	99
Es	0.132235	-1.602123	-0.286206	99
Es	-0.072797	-0.614535	-0.087279	99
Es	1.649199	0.160286	-0.237237	99
Es	1.653734	0.611454	-0.238601	99
Es	2.530855	-1.395500	-0.665905	99
Es	-2.156588	-0.726514	0.234305	99
Es	0.300612	-1.049568	-0.221216	99
Es	-2.216701	0.503720	0.451537	99
Es	-1.152323	-0.099501	0.518097	99
Es	-0.076861	0.596263	0.116482	99
Es	2.263731	-1.192015	-0.321989	99
Es	0.384709	1.196156	0.141687	99
Es	-0.498952	-0.003939	0.085149	99
Es	1.598527	-0.664313	-0.382518	99
Es	2.838674	-1.402837	-0.720697	99
Es	2.375130	-1.522956	-0.661466	99
Es	-1.258165	0.009464	-0.130865	99
38
Properties=species:S:1:pos:R:3:Z:I:1 energy=-358.69455610767653 field_type=dipole dipole="0.000000 0.000000 0.000000" charge=0
C	-1.814144	-0.092142	0.285140	6
C	-0.499224	-0.003852	0.085210	6
C	0.384506	1.196318	0.141750	6
O	1.696186	0.684528	-0.173960	8
C	1.598696	-0.664562	-0.382590	6
O	2.531096	-1.395852	-0.666000	8
N	0.298726	-1.051342	-0.224360	7
H	-2.341894	-1.037452	0.211050	1
H	-2.402464	0.787277	0.528770	1
H	0.417126	1.641538	1.140060	1
H	0.114686	1.947577	-0.605500	1
H	0.016706	-2.012033	-0.339570	1
Es	1.598527	-0.664314	-0.382517	99
Es	0.132216	-1.601798	-0.286578	99
Es	1.653007	0.612290	-0.245859	99
Es	2.530868	-1.395488	-0.665905	99
Es	-1.258321	0.009384	-0.130542	99
Es	0.300011	-1.050302	-0.221849	99
Es	-2.156292	-0.726633	0.234473	99
Es	-2.216906	0.503759	0.451681	99
Es	0.384708	1.196156	0.141688	99
Es	-0.498953	-0.003940	0.085152	99
Es	0.349688	-0.966212	-0.220543	99
Es	-1.152269	-0.099317	0.517502	99
Es	2.180122	-1.110087	-0.819999	99
Es	1.962926	0.839454	-0.151511	99
Es	-0.077446	0.596091	0.116492	99
Es	2.264063	-1.191237	-0.323099	99
Es	2.376475	-1.517772	-0.659595	99
Es	1.649903	0.160426	-0.234074	99
Es	2.838355	-1.407373	-0.721185	99
Es	-1.814187	-0.092143	0.285152	99
Es	-0.072794	-0.614647	-0.087083	99
Es	0.395031	1.487611	0.810168	99
Es	1.695801	0.684298	-0.173971	99
Es	0.868837	-0.898222	-0.300382	99
Es	0.192902	1.693058	-0.357099	99
Es	1.191718	0.865566	-0.050615	99
38
Properties=species:S:1:pos:R:3:Z:I:1 energy=-358.69455610767653 field_type=dipole dipole="0.000000 0.000000 0.000000" charge=0
C	-1.814144	-0.092142	0.285140	6
C	-0.499224	-0.003852	0.085210	6
C	0.384506	1.196318	0.141750	6
O	1.696186	0.684528	-0.173960	8
C	1.598696	-0.664562	-0.382590	6
O	2.531096	-1.395852	-0.666000	8
N	0.298726	-1.051342	-0.224360	7
H	-2.341894	-1.037452	0.211050	1
H	-2.402464	0.787277	0.528770	1
H	0.417126	1.641538	1.140060	1
H	0.114686	1.947577	-0.605500	1
H	0.016706	-2.012033	-0.339570	1
Es	0.869009	-0.898447	-0.299836	99
Es	2.837758	-1.413671	-0.720694	99
Es	1.191625	0.866058	-0.051655	99
Es	-0.077771	0.595956	0.116762	99
Es	2.183524	-1.110981	-0.820325	99
Es	-2.217057	0.503774	0.451576	99
Es	1.598526	-0.664311	-0.382521	99
Es	1.653442	0.611630	-0.241504	99
Es	1.648782	0.160829	-0.235575	99
Es	0.351083	-0.965288	-0.217262	99
Es	2.530859	-1.395476	-0.665896	99
Es	-0.498952	-0.003940	0.085151	99
Es	2.377973	-1.510335	-0.660193	99
Es	-1.257967	0.009365	-0.130194	99
Es	1.695797	0.684033	-0.173629	99
Es	0.192946	1.693275	-0.356919	99
Es	-2.156162	-0.726759	0.234387	99
Es	-0.072990	-0.614629	-0.087926	99
Es	2.259814	-1.191450	-0.322644	99
Es	0.132150	-1.601463	-0.287203	99
Es	0.384711	1.196156	0.141691	99
Es	0.395178	1.487480	0.809759	99
Es	0.298777	-1.051314	-0.224229	99
Es	1.963750	0.839482	-0.153683	99
Es	-1.814191	-0.092143	0.285147	99
Es	-1.152621	-0.099219	0.517317	99
38
Properties=species:S:1:pos:R:3:Z:I:1 energy=-358.69455610767653 field_type=dipole dipole="0.000000 0.000000 0.000000" charge=0
C	-1.814144	-0.092142	0.285140	6
C	-0.499224	-0.003852	0.085210	6
C	0.384506	1.196318	0.141750	6
O	1.696186	0.684528	-0.173960	8
C	1.598696	-0.664562	-0.382590	6
O	2.531096	-1.395852	-0.666000	8
N	0.298726	-1.051342	-0.224360	7
H	-2.341894	-1.037452	0.211050	1
H	-2.402464	0.787277	0.528770	1
H	0.417126	1.641538	1.140060	1
H	0.114686	1.947577	-0.605500	1
H	0.016706	-2.012033	-0.339570	1
Es	0.395101	1.487702	0.809804	99
Es	1.655454	0.607162	-0.218833	99
Es	1.695658	0.684204	-0.174374	99
Es	1.598526	-0.664314	-0.382521	99
Es	0.132133	-1.600920	-0.287143	99
Es	-0.498952	-0.003940	0.085151	99
Es	1.191128	0.865986	-0.053141	99
Es	0.192983	1.692975	-0.356941	99
Es	2.186065	-1.115109	-0.822692	99
Es	-1.814188	-0.092142	0.285151	99
Es	-0.073037	-0.614723	-0.087713	99
Es	-2.217161	0.503803	0.451397	99
Es	1.649388	0.160910	-0.241267	99
Es	-1.258579	0.009404	-0.130241	99
Es	2.838062	-1.414895	-0.718595	99
Es	-0.077788	0.595852	0.116874	99
Es	0.869767	-0.899412	-0.296473	99
Es	-2.156102	-0.726396	0.234191	99
Es	2.255654	-1.188244	-0.323330	99
Es	0.300247	-1.049970	-0.221705	99
Es	2.379282	-1.508204	-0.659234	99
Es	2.530877	-1.395468	-0.665898	99
Es	0.348973	-0.966035	-0.223368	99
Es	0.384710	1.196157	0.141679	99
Es	-1.152018	-0.099453	0.517479	99
Es	1.961805	0.843678	-0.168356	99
38
Properties=species:S:1:pos:R:3:Z:I:1 energy=-358.69455610767653 field_type=dipole dipole="0.000000 0.000000 0.000000" charge=0
C	-1.814144	-0.092142	0.285140	6
C	-0.499224	-0.003852	0.085210	6
C	0.384506	1.196318	0.141750	6
O	1.696186	0.684528	-0.173960	8
C	1.598696	-0.664562	-0.382590	6
O	2.531096	-1.395852	-0.666000	8
N	0.298726	-1.051342	-0.224360	7
H	-2.341894	-1.037452	0.211050	1
H	-2.402464	0.787277	0.528770	1
H	0.417126	1.641538	1.140060	1
H	0.114686	1.947577	-0.605500	1
H	0.016706	-2.012033	-0.339570	1
Es	0.869639	-0.899456	-0.297320	99
Es	0.394958	1.487785	0.809965	99
Es	0.132017	-1.600653	-0.287951	99
Es	-1.152303	-0.099461	0.517406	99
Es	0.350760	-0.964936	-0.219154	99
Es	-2.217530	0.503643	0.451462	99
Es	0.384709	1.196157	0.141685	99
Es	1.648121	0.161955	-0.249752	99
Es	0.298739	-1.051282	-0.224441	99
Es	2.266803	-1.195679	-0.324245	99
Es	1.664911	0.621998	-0.200290	99
Es	2.379049	-1.509297	-0.658826	99
Es	-0.498953	-0.003940	0.085149	99
Es	-0.077963	0.595807	0.116597	99
Es	-0.072972	-0.614699	-0.087674	99
Es	-1.814189	-0.092143	0.285151	99
Es	2.175625	-1.108311	-0.817528	99
Es	1.960671	0.845738	-0.178855	99
Es	1.688765	0.665885	-0.172762	99
Es	2.837604	-1.413195	-0.723205	99
Es	1.598528	-0.664313	-0.382514	99
Es	2.530877	-1.395439	-0.665898	99
Es	1.190999	0.866387	-0.054271	99
Es	-1.258303	0.009476	-0.130143	99
Es	-2.155722	-0.726182	0.234076	99
Es	0.193153	1.692766	-0.356761	99
