38
Properties=species:S:1:pos:R:3:Z:I:1 energy=-358.57416307529076 field_type=dipole dipole="0.000000 0.000000 0.000000" charge=0
C	-1.920621	-0.166057	0.175408	6
C	-0.597511	-0.120157	-0.020852	6
C	0.207359	1.135493	-0.112532	6
O	1.384319	0.957602	0.674088	8
N	2.163669	-0.138147	0.237218	7
C	1.477689	-1.185437	-0.088842	6
O	0.122079	-1.321647	-0.142302	8
H	-2.513241	0.736602	0.280358	1
H	-2.439241	-1.117607	0.238768	1
H	-0.335531	1.999013	0.284278	1
H	0.490109	1.351423	-1.149092	1
H	1.960919	-2.131078	-0.376502	1
Es	0.635463	-1.217894	-0.123073	99
Es	1.557647	1.208631	0.626569	99
Es	1.477401	-1.185463	-0.088874	99
Es	0.073285	-1.414193	-0.404797	99
Es	0.939620	0.991483	0.351173	99
Es	-0.197732	0.490631	-0.075584	99
Es	1.684357	0.458422	0.447476	99
Es	-0.112184	-0.851524	-0.088142	99
Es	0.122315	-1.321232	-0.142244	99
Es	1.802103	-1.808172	-0.280799	99
Es	-0.164285	1.705626	0.156786	99
Es	-0.597211	-0.120382	-0.020908	99
Es	0.207512	1.135378	-0.112402	99
Es	1.861596	-0.473007	-0.189267	99
Es	0.086554	-1.467483	0.091955	99
Es	1.384193	0.957393	0.673786	99
Es	-1.920676	-0.166053	0.175403	99
Es	-2.313447	0.443050	0.243500	99
Es	2.162984	-0.138208	0.237197	99
Es	1.283453	0.859759	0.944584	99
Es	2.526572	-0.099296	0.249130	99
Es	-1.324655	-0.127867	-0.251589	99
Es	0.391617	1.265609	-0.818674	99
Es	-2.271293	-0.801539	0.216313	99
Es	1.866772	-0.668711	0.370908	99
Es	-1.233550	-0.136963	0.409181	99
38
Properties=species:S:1:pos:R:3:Z:I:1 energy=-358.57416307529076 field_type=dipole dipole="0.000000 0.000000 0.000000" charge=0
C	-1.920621	-0.166057	0.175408	6
C	-0.597511	-0.120157	-0.020852	6
C	0.207359	1.135493	-0.112532	6
O	1.384319	0.957602	0.674088	8
N	2.163669	-0.138147	0.237218	7
C	1.477689	-1.185437	-0.088842	6
O	0.122079	-1.321647	-0.142302	8
H	-2.513241	0.736602	0.280358	1
H	-2.439241	-1.117607	0.238768	1
H	-0.335531	1.999013	0.284278	1
H	0.490109	1.351423	-1.149092	1
H	1.960919	-2.131078	-0.376502	1
Es	-2.271162	-0.802556	0.214846	99
Es	1.477398	-1.185465	-0.088872	99
Es	0.030885	-1.488368	-0.367984	99
Es	-0.119258	-0.851001	-0.097301	99
Es	1.802781	-1.808434	-0.280306	99
Es	1.384203	0.957404	0.673806	99
Es	0.932378	0.987298	0.357857	99
Es	1.864610	-0.666294	0.365962	99
Es	1.286386	0.852300	0.919126	99
Es	0.122247	-1.321357	-0.142250	99
Es	-0.164369	1.707368	0.155925	99
Es	-1.234126	-0.137842	0.406863	99
Es	-1.920677	-0.166050	0.175395	99
Es	2.162989	-0.138207	0.237192	99
Es	-0.197890	0.490504	-0.075740	99
Es	0.207508	1.135380	-0.112403	99
Es	1.858310	-0.474368	-0.180343	99
Es	-1.324290	-0.127819	-0.248511	99
Es	0.391313	1.264778	-0.815997	99
Es	-2.313545	0.444194	0.243217	99
Es	0.129949	-1.391294	0.084355	99
Es	1.560113	1.220511	0.645156	99
Es	-0.597203	-0.120387	-0.020914	99
Es	1.685739	0.457715	0.446315	99
Es	2.533024	-0.099848	0.244916	99
Es	0.641099	-1.220167	-0.142700	99
38
Properties=species:S:1:pos:R:3:Z:I:1 energy=-358.57416307529076 field_type=dipole dipole="0.000000 0.000000 0.000000" charge=0
C	-1.920621	-0.166057	0.175408	6
C	-0.597511	-0.120157	-0.020852	6
C	0.207359	1.135493	-0.112532	6
O	1.384319	0.957602	0.674088	8
N	2.163669	-0.138147	0.237218	7
C	1.477689	-1.185437	-0.088842	6
O	0.122079	-1.321647	-0.142302	8
H	-2.513241	0.736602	0.280358	1
H	-2.439241	-1.117607	0.238768	1
H	-0.335531	1.999013	0.284278	1
H	0.490109	1.351423	-1.149092	1
H	1.960919	-2.131078	-0.376502	1
Es	1.858043	-0.474564	-0.180745	99
Es	-2.270764	-0.801399	0.214054	99
Es	1.477396	-1.185466	-0.088872	99
Es	0.207510	1.135379	-0.112398	99
Es	2.534386	-0.101523	0.249314	99
Es	0.648060	-1.233860	-0.108563	99
Es	-0.127282	-0.856108	-0.068072	99
Es	-0.597212	-0.120376	-0.020905	99
Es	1.290553	0.855544	0.924892	99
Es	-1.920676	-0.166049	0.175390	99
Es	-2.314204	0.443776	0.243605	99
Es	0.391151	1.264513	-0.816334	99
Es	-1.324689	-0.127438	-0.250422	99
Es	0.929772	0.985584	0.360179	99
Es	0.122804	-1.320668	-0.141263	99
Es	1.687144	0.458665	0.445950	99
Es	-0.197228	0.490278	-0.075080	99
Es	1.384213	0.957489	0.673941	99
Es	1.864153	-0.664602	0.363134	99
Es	0.175610	-1.256860	-0.197785	99
Es	-0.014194	-1.603885	-0.150721	99
Es	-1.233879	-0.138514	0.408563	99
Es	2.163013	-0.138241	0.237184	99
Es	1.556855	1.217142	0.638082	99
Es	1.802857	-1.807965	-0.281707	99
Es	-0.164977	1.707145	0.156188	99
38
Properties=species:S:1:pos:R:3:Z:I:1 energy=-358.57416307529076 field_type=dipole dipole="0.000000 0.000000 0.000000" charge=0
C	-1.920621	-0.166057	0.175408	6
C	-0.597511	-0.120157	-0.020852	6
C	0.207359	1.135493	-0.112532	6
O	1.384319	0.957602	0.674088	8
N	2.163669	-0.138147	0.237218	7
C	1.477689	-1.185437	-0.088842	6
O	0.122079	-1.321647	-0.142302	8
H	-2.513241	0.736602	0.280358	1
H	-2.439241	-1.117607	0.238768	1
H	-0.335531	1.999013	0.284278	1
H	0.490109	1.351423	-1.149092	1
H	1.960919	-2.131078	-0.376502	1
Es	1.863414	-0.664908	0.362295	99
Es	0.170003	-1.304208	-0.005695	99
Es	-0.197837	0.490351	-0.076112	99
Es	-0.127416	-0.852683	-0.091016	99
Es	1.293266	0.854407	0.912411	99
Es	-1.234171	-0.138130	0.407133	99
Es	-1.920679	-0.166050	0.175397	99
Es	0.925732	0.983465	0.364650	99
Es	-0.164594	1.707630	0.155789	99
Es	-0.006861	-1.567445	-0.279572	99
Es	-2.270715	-0.802086	0.214923	99
Es	-0.597198	-0.120389	-0.020902	99
Es	1.803157	-1.808459	-0.280070	99
Es	1.686759	0.457784	0.445442	99
Es	2.162998	-0.138207	0.237195	99
Es	2.537050	-0.100270	0.241580	99
Es	0.646295	-1.226174	-0.146484	99
Es	0.207509	1.135379	-0.112401	99
Es	-2.314036	0.444292	0.243389	99
Es	0.390946	1.264505	-0.815220	99
Es	1.856888	-0.474786	-0.173598	99
Es	1.477394	-1.185467	-0.088876	99
Es	0.122701	-1.320884	-0.142715	99
Es	1.384250	0.957417	0.673690	99
Es	1.558048	1.221033	0.645492	99
Es	-1.324491	-0.128121	-0.249113	99
38
Properties=species:S:1:pos:R:3:Z:I:1 energy=-358.57416307529076 field_type=dipole dipole="0.000000 0.000000 0.000000" charge=0
C	-1.920621	-0.166057	0.175408	6
C	-0.597511	-0.120157	-0.020852	6
C	0.207359	1.135493	-0.112532	6
O	1.384319	0.957602	0.674088	8
N	2.163669	-0.138147	0.237218	7
C	1.477689	-1.185437	-0.088842	6
O	0.122079	-1.321647	-0.142302	8
H	-2.513241	0.736602	0.280358	1
H	-2.439241	-1.117607	0.238768	1
H	-0.335531	1.999013	0.284278	1
H	0.490109	1.351423	-1.149092	1
H	1.960919	-2.131078	-0.376502	1
Es	0.390734	1.264322	-0.814914	99
Es	1.862964	-0.664351	0.361127	99
Es	-2.314220	0.444261	0.243500	99
Es	-0.010850	-1.577479	-0.257014	99
Es	2.162999	-0.138231	0.237192	99
Es	-0.597201	-0.120389	-0.020906	99
Es	1.477396	-1.185467	-0.088871	99
Es	2.537958	-0.100619	0.242285	99
Es	-0.197734	0.490291	-0.075972	99
Es	-0.129336	-0.854138	-0.084469	99
Es	-1.324707	-0.127980	-0.249383	99
Es	1.557469	1.221499	0.648196	99
Es	0.174844	-1.290352	-0.037193	99
Es	1.384193	0.957433	0.673803	99
Es	0.647675	-1.227880	-0.144609	99
Es	1.687488	0.458143	0.444572	99
Es	-2.270582	-0.801850	0.214713	99
Es	0.925384	0.983272	0.365092	99
Es	0.207513	1.135378	-0.112397	99
Es	0.122299	-1.321242	-0.142250	99
Es	-1.234007	-0.138434	0.407302	99
Es	1.856994	-0.474915	-0.172641	99
Es	-0.164739	1.707723	0.155688	99
Es	-1.920680	-0.166049	0.175390	99
Es	1.293361	0.853381	0.909674	99
Es	1.803198	-1.808334	-0.280308	99
38
Properties=species:S:1:pos:R:3:Z:I:1 energy=-358.57416307529076 field_type=dipole dipole="0.000000 0.000000 0.000000" charge=0
C	-1.920621	-0.166057	0.175408	6
C	-0.597511	-0.120157	-0.020852	6
C	0.207359	1.135493	-0.112532	6
O	1.384319	0.957602	0.674088	8
N	2.163669	-0.138147	0.237218	7
C	1.477689	-1.185437	-0.088842	6
O	0.122079	-1.321647	-0.142302	8
H	-2.513241	0.736602	0.280358	1
H	-2.439241	-1.117607	0.238768	1
H	-0.335531	1.999013	0.284278	1
H	0.490109	1.351423	-1.149092	1
H	1.960919	-2.131078	-0.376502	1
Es	1.556524	1.221404	0.646825	99
Es	1.296441	0.855010	0.907645	99
Es	2.538682	-0.101056	0.242427	99
Es	-1.234155	-0.138489	0.407799	99
Es	-0.130043	-0.854611	-0.083092	99
Es	0.122468	-1.321105	-0.141236	99
Es	-2.270459	-0.801610	0.214456	99
Es	0.207507	1.135380	-0.112402	99
Es	2.162998	-0.138216	0.237192	99
Es	0.648645	-1.229233	-0.140551	99
Es	0.390628	1.264186	-0.814849	99
Es	1.384224	0.957396	0.673756	99
Es	-2.314408	0.444168	0.243594	99
Es	1.862774	-0.663820	0.360196	99
Es	-0.197600	0.490236	-0.075966	99
Es	1.856622	-0.474995	-0.171510	99
Es	-0.164894	1.707745	0.155760	99
Es	-1.324568	-0.128023	-0.249696	99
Es	1.803326	-1.808190	-0.280824	99
Es	-1.920682	-0.166051	0.175398	99
Es	-0.012601	-1.583739	-0.240769	99
Es	-0.597199	-0.120391	-0.020904	99
Es	1.688029	0.458382	0.444587	99
Es	0.922600	0.981264	0.368571	99
Es	0.176157	-1.282178	-0.059927	99
Es	1.477396	-1.185467	-0.088870	99
38
Properties=species:S:1:pos:R:3:Z:I:1 energy=-358.57416307529076 field_type=dipole dipole="0.000000 0.000000 0.000000" charge=0
C	-1.920621	-0.166057	0.175408	6
C	-0.597511	-0.120157	-0.020852	6
C	0.207359	1.135493	-0.112532	6
O	1.384319	0.957602	0.674088	8
N	2.163669	-0.138147	0.237218	7
C	1.477689	-1.185437	-0.088842	6
O	0.122079	-1.321647	-0.142302	8
H	-2.513241	0.736602	0.280358	1
H	-2.439241	-1.117607	0.238768	1
H	-0.335531	1.999013	0.284278	1
H	0.490109	1.351423	-1.149092	1
H	1.960919	-2.131078	-0.376502	1
Es	-0.197530	0.490285	-0.075723	99
Es	1.556462	1.221389	0.648648	99
Es	0.649199	-1.230090	-0.139142	99
Es	0.921485	0.981163	0.369997	99
Es	0.177510	-1.276087	-0.078244	99
Es	-0.164945	1.707711	0.155692	99
Es	0.122289	-1.321236	-0.142065	99
Es	0.207508	1.135381	-0.112405	99
Es	1.803334	-1.808105	-0.281013	99
Es	2.539379	-0.101556	0.242841	99
Es	1.477395	-1.185466	-0.088875	99
Es	-0.131133	-0.855875	-0.078213	99
Es	1.297422	0.854948	0.904775	99
Es	1.688130	0.458292	0.444393	99
Es	-0.597197	-0.120389	-0.020897	99
Es	0.390511	1.264093	-0.814785	99
Es	2.163000	-0.138215	0.237194	99
Es	1.384231	0.957399	0.673697	99
Es	-0.013317	-1.587378	-0.227837	99
Es	-1.920678	-0.166049	0.175392	99
Es	1.862896	-0.663032	0.359161	99
Es	-2.314440	0.444118	0.243557	99
Es	1.856131	-0.475206	-0.170859	99
Es	-2.270468	-0.801532	0.214269	99
Es	-1.324543	-0.128018	-0.249876	99
Es	-1.234218	-0.138548	0.407925	99
38
Properties=species:S:1:pos:R:3:Z:I:1 energy=-358.57416307529076 field_type=dipole dipole="0.000000 0.000000 0.000000" charge=0
C	-1.920621	-0.166057	0.175408	6
C	-0.597511	-0.120157	-0.020852	6
C	0.207359	1.135493	-0.112532	6
O	1.384319	0.957602	0.674088	8
N	2.163669	-0.138147	0.237218	7
C	1.477689	-1.185437	-0.088842	6
O	0.122079	-1.321647	-0.142302	8
H	-2.513241	0.736602	0.280358	1
H	-2.439241	-1.117607	0.238768	1
H	-0.335531	1.999013	0.284278	1
H	0.490109	1.351423	-1.149092	1
H	1.960919	-2.131078	-0.376502	1
Es	1.477390	-1.185469	-0.088868	99
Es	1.688413	0.458340	0.444257	99
Es	-0.165008	1.707816	0.155648	99
Es	-0.013179	-1.587611	-0.226312	99
Es	1.384213	0.957408	0.673762	99
Es	-1.920681	-0.166049	0.175397	99
Es	0.920025	0.979767	0.372146	99
Es	-0.597196	-0.120396	-0.020907	99
Es	1.555954	1.221699	0.648631	99
Es	0.122315	-1.321229	-0.142321	99
Es	0.649317	-1.230142	-0.138754	99
Es	-1.234086	-0.138784	0.407850	99
Es	0.207511	1.135378	-0.112399	99
Es	2.540036	-0.101609	0.242326	99
Es	-0.197510	0.490241	-0.075750	99
Es	1.803413	-1.808026	-0.281123	99
Es	1.298939	0.855616	0.902526	99
Es	-2.270407	-0.801446	0.214202	99
Es	2.162993	-0.138199	0.237213	99
Es	-1.324711	-0.127829	-0.249986	99
Es	1.856122	-0.475184	-0.169482	99
Es	0.390441	1.264052	-0.814467	99
Es	-0.131480	-0.856165	-0.078243	99
Es	-2.314502	0.444064	0.243749	99
Es	1.862557	-0.662812	0.358451	99
Es	0.177534	-1.275435	-0.079938	99
38
Properties=species:S:1:pos:R:3:Z:I:1 energy=-358.57416307529076 field_type=dipole dipole="0.000000 0.000000 0.000000" charge=0
C	-1.920621	-0.166057	0.175408	6
C	-0.597511	-0.120157	-0.020852	6
C	0.207359	1.135493	-0.112532	6
O	1.384319	0.957602	0.674088	8
N	2.163669	-0.138147	0.237218	7
C	1.477689	-1.185437	-0.088842	6
O	0.122079	-1.321647	-0.142302	8
H	-2.513241	0.736602	0.280358	1
H	-2.439241	-1.117607	0.238768	1
H	-0.335531	1.999013	0.284278	1
H	0.490109	1.351423	-1.149092	1
H	1.960919	-2.131078	-0.376502	1
Es	1.855891	-0.475253	-0.168713	99
Es	1.803461	-1.808049	-0.281048	99
Es	1.862530	-0.662450	0.357953	99
Es	1.555946	1.221776	0.649732	99
Es	-1.920680	-0.166049	0.175398	99
Es	-0.197498	0.490252	-0.075608	99
Es	0.390304	1.263921	-0.814394	99
Es	0.122375	-1.321192	-0.142426	99
Es	0.649494	-1.230371	-0.139203	99
Es	-2.314660	0.444057	0.243665	99
Es	2.540420	-0.101832	0.241992	99
Es	1.300031	0.856209	0.899388	99
Es	1.688581	0.458142	0.444545	99
Es	0.177770	-1.273890	-0.085576	99
Es	-0.013958	-1.588119	-0.223324	99
Es	1.384173	0.957373	0.673788	99
Es	2.163008	-0.138196	0.237202	99
Es	-0.165034	1.707821	0.155578	99
Es	-0.131174	-0.856855	-0.074949	99
Es	-0.597204	-0.120381	-0.020900	99
Es	-2.270279	-0.801315	0.214186	99
Es	-1.324866	-0.127880	-0.250161	99
Es	0.207517	1.135376	-0.112399	99
Es	0.918830	0.979240	0.373797	99
Es	-1.233958	-0.138871	0.407957	99
Es	1.477394	-1.185467	-0.088872	99
38
Properties=species:S:1:pos:R:3:Z:I:1 energy=-358.57416307529076 field_type=dipole dipole="0.000000 0.000000 0.000000" charge=0
C	-1.920621	-0.166057	0.175408	6
C	-0.597511	-0.120157	-0.020852	6
C	0.207359	1.135493	-0.112532	6
O	1.384319	0.957602	0.674088	8
N	2.163669	-0.138147	0.237218	7
C	1.477689	-1.185437	-0.088842	6
O	0.122079	-1.321647	-0.142302	8
H	-2.513241	0.736602	0.280358	1
H	-2.439241	-1.117607	0.238768	1
H	-0.335531	1.999013	0.284278	1
H	0.490109	1.351423	-1.149092	1
H	1.960919	-2.131078	-0.376502	1
Es	0.390244	1.263918	-0.814343	99
Es	2.540742	-0.102364	0.242815	99
Es	0.122310	-1.321239	-0.142302	99
Es	1.384264	0.957425	0.673687	99
Es	-1.920681	-0.166049	0.175391	99
Es	0.649750	-1.230729	-0.137444	99
Es	-0.197348	0.490211	-0.075537	99
Es	1.862049	-0.662078	0.357078	99
Es	-2.314738	0.443962	0.243558	99
Es	-0.013477	-1.590272	-0.214689	99
Es	1.856171	-0.475158	-0.168476	99
Es	-0.165139	1.707788	0.155666	99
Es	-2.270247	-0.801280	0.214032	99
Es	0.178028	-1.270634	-0.097184	99
Es	1.555170	1.222291	0.651522	99
Es	1.803496	-1.807935	-0.281298	99
Es	-1.324770	-0.127847	-0.250267	99
Es	0.918013	0.978266	0.375325	99
Es	1.689408	0.459045	0.443806	99
Es	-1.234054	-0.138839	0.408244	99
Es	0.207513	1.135377	-0.112400	99
Es	1.477393	-1.185466	-0.088876	99
Es	-0.132164	-0.857447	-0.073920	99
Es	-0.597200	-0.120389	-0.020899	99
Es	2.163004	-0.138213	0.237202	99
Es	1.300675	0.855654	0.896919	99
38
Properties=species:S:1:pos:R:3:Z:I:1 energy=-358.57416307529076 field_type=dipole dipole="0.000000 0.000000 0.000000" charge=0
C	-1.920621	-0.166057	0.175408	6
C	-0.597511	-0.120157	-0.020852	6
C	0.207359	1.135493	-0.112532	6
O	1.384319	0.957602	0.674088	8
N	2.163669	-0.138147	0.237218	7
C	1.477689	-1.185437	-0.088842	6
O	0.122079	-1.321647	-0.142302	8
H	-2.513241	0.736602	0.280358	1
H	-2.439241	-1.117607	0.238768	1
H	-0.335531	1.999013	0.284278	1
H	0.490109	1.351423	-1.149092	1
H	1.960919	-2.131078	-0.376502	1
Es	0.649748	-1.230413	-0.137717	99
Es	-0.165105	1.707868	0.155563	99
Es	1.384151	0.957362	0.673803	99
Es	-0.132835	-0.857665	-0.074928	99
Es	0.177211	-1.272539	-0.091621	99
Es	-0.197429	0.490157	-0.075738	99
Es	-2.314726	0.444004	0.243682	99
Es	2.541142	-0.102368	0.242065	99
Es	1.555294	1.222325	0.650461	99
Es	0.916549	0.977138	0.377933	99
Es	-1.324820	-0.127871	-0.250319	99
Es	-0.012705	-1.589004	-0.218443	99
Es	1.803521	-1.807982	-0.281149	99
Es	0.123000	-1.320646	-0.142733	99
Es	0.390233	1.263937	-0.814043	99
Es	-1.234043	-0.138889	0.408086	99
Es	1.477395	-1.185465	-0.088881	99
Es	2.163001	-0.138215	0.237204	99
Es	1.855961	-0.475202	-0.167500	99
Es	1.302414	0.856655	0.895442	99
Es	-1.920680	-0.166049	0.175395	99
Es	-2.270232	-0.801258	0.214122	99
Es	0.207511	1.135378	-0.112400	99
Es	1.689048	0.459006	0.443481	99
Es	1.862007	-0.661877	0.356733	99
Es	-0.597197	-0.120390	-0.020891	99
38
Properties=species:S:1:pos:R:3:Z:I:1 energy=-358.57416307529076 field_type=dipole dipole="0.000000 0.000000 0.000000" charge=0
C	-1.920621	-0.166057	0.175408	6
C	-0.597511	-0.120157	-0.020852	6
C	0.207359	1.135493	-0.112532	6
O	1.384319	0.957602	0.674088	8
N	2.163669	-0.138147	0.237218	7
C	1.477689	-1.185437	-0.088842	6
O	0.122079	-1.321647	-0.142302	8
H	-2.513241	0.736602	0.280358	1
H	-2.439241	-1.117607	0.238768	1
H	-0.335531	1.999013	0.284278	1
H	0.490109	1.351423	-1.149092	1
H	1.960919	-2.131078	-0.376502	1
Es	2.163005	-0.138227	0.237188	99
Es	-0.132731	-0.858119	-0.072854	99
Es	-0.197409	0.490201	-0.075648	99
Es	1.855553	-0.475378	-0.167040	99
Es	-2.270195	-0.801221	0.213806	99
Es	2.541425	-0.102398	0.241837	99
Es	1.477393	-1.185468	-0.088872	99
Es	-0.597202	-0.120386	-0.020900	99
Es	1.862380	-0.661545	0.356594	99
Es	1.384129	0.957310	0.673784	99
Es	1.803470	-1.807911	-0.281246	99
Es	1.555234	1.222456	0.651705	99
Es	0.122552	-1.320954	-0.141344	99
Es	1.302328	0.856709	0.893737	99
Es	1.689221	0.458618	0.443871	99
Es	-1.324791	-0.127825	-0.250215	99
Es	0.390193	1.263960	-0.814044	99
Es	-1.234064	-0.138989	0.408218	99
Es	0.649895	-1.230782	-0.137749	99
Es	-0.165174	1.707770	0.155593	99
Es	0.177794	-1.270612	-0.099153	99
Es	-1.920681	-0.166049	0.175398	99
Es	0.207511	1.135378	-0.112400	99
Es	-0.013060	-1.589691	-0.214412	99
Es	-2.314807	0.443963	0.243655	99
Es	0.916444	0.977188	0.378099	99
38
Properties=species:S:1:pos:R:3:Z:I:1 energy=-358.57416307529076 field_type=dipole dipole="0.000000 0.000000 0.000000" charge=0
C	-1.920621	-0.166057	0.175408	6
C	-0.597511	-0.120157	-0.020852	6
C	0.207359	1.135493	-0.112532	6
O	1.384319	0.957602	0.674088	8
N	2.163669	-0.138147	0.237218	7
C	1.477689	-1.185437	-0.088842	6
O	0.122079	-1.321647	-0.142302	8
H	-2.513241	0.736602	0.280358	1
H	-2.439241	-1.117607	0.238768	1
H	-0.335531	1.999013	0.284278	1
H	0.490109	1.351423	-1.149092	1
H	1.960919	-2.131078	-0.376502	1
Es	1.689268	0.459168	0.443154	99
Es	2.541650	-0.102902	0.243449	99
Es	-0.597200	-0.120388	-0.020898	99
Es	-1.325061	-0.127640	-0.250439	99
Es	-1.920681	-0.166049	0.175400	99
Es	1.856736	-0.474867	-0.167295	99
Es	0.650351	-1.231866	-0.133376	99
Es	1.861021	-0.661437	0.355399	99
Es	1.477392	-1.185466	-0.088878	99
Es	-2.270271	-0.801185	0.213890	99
Es	1.302970	0.856065	0.890865	99
Es	0.149691	-1.294594	-0.120881	99
Es	0.915549	0.976860	0.379516	99
Es	0.150395	-1.292955	-0.136675	99
Es	1.555405	1.222651	0.653770	99
Es	0.207509	1.135379	-0.112400	99
Es	2.163008	-0.138224	0.237190	99
Es	-0.013814	-1.591818	-0.205521	99
Es	-0.197472	0.490182	-0.075381	99
Es	-2.314728	0.443914	0.243707	99
Es	0.390073	1.263817	-0.813959	99
Es	1.384218	0.957412	0.673766	99
Es	-0.165041	1.707843	0.155464	99
Es	-0.132259	-0.858913	-0.069067	99
Es	1.803521	-1.807870	-0.281379	99
Es	-1.233819	-0.139118	0.408190	99
38
Properties=species:S:1:pos:R:3:Z:I:1 energy=-358.57416307529076 field_type=dipole dipole="0.000000 0.000000 0.000000" charge=0
C	-1.920621	-0.166057	0.175408	6
C	-0.597511	-0.120157	-0.020852	6
C	0.207359	1.135493	-0.112532	6
O	1.384319	0.957602	0.674088	8
N	2.163669	-0.138147	0.237218	7
C	1.477689	-1.185437	-0.088842	6
O	0.122079	-1.321647	-0.142302	8
H	-2.513241	0.736602	0.280358	1
H	-2.439241	-1.117607	0.238768	1
H	-0.335531	1.999013	0.284278	1
H	0.490109	1.351423	-1.149092	1
H	1.960919	-2.131078	-0.376502	1
Es	0.650136	-1.231060	-0.136218	99
Es	-0.012468	-1.589536	-0.213137	99
Es	-0.133515	-0.858881	-0.071319	99
Es	1.856117	-0.475084	-0.166053	99
Es	1.803535	-1.807904	-0.281275	99
Es	-1.324657	-0.127932	-0.250397	99
Es	0.207508	1.135379	-0.112402	99
Es	1.477393	-1.185467	-0.088873	99
Es	1.689507	0.458680	0.443719	99
Es	-2.270266	-0.801216	0.213892	99
Es	-1.234222	-0.138845	0.408348	99
Es	-0.597201	-0.120387	-0.020896	99
Es	1.303416	0.857387	0.891889	99
Es	0.915470	0.976170	0.380034	99
Es	1.554653	1.222386	0.651456	99
Es	1.384243	0.957427	0.673815	99
Es	2.541917	-0.102625	0.241840	99
Es	-0.165112	1.708018	0.155330	99
Es	2.163008	-0.138216	0.237198	99
Es	-0.197468	0.490082	-0.075713	99
Es	1.861593	-0.661416	0.355629	99
Es	-1.920681	-0.166049	0.175404	99
Es	0.122295	-1.321241	-0.142153	99
Es	0.177927	-1.269277	-0.102557	99
Es	0.390029	1.263704	-0.813567	99
Es	-2.314744	0.443899	0.243615	99
38
Properties=species:S:1:pos:R:3:Z:I:1 energy=-358.57416307529076 field_type=dipole dipole="0.000000 0.000000 0.000000" charge=0
C	-1.920621	-0.166057	0.175408	6
C	-0.597511	-0.120157	-0.020852	6
C	0.207359	1.135493	-0.112532	6
O	1.384319	0.957602	0.674088	8
N	2.163669	-0.138147	0.237218	7
C	1.477689	-1.185437	-0.088842	6
O	0.122079	-1.321647	-0.142302	8
H	-2.513241	0.736602	0.280358	1
H	-2.439241	-1.117607	0.238768	1
H	-0.335531	1.999013	0.284278	1
H	0.490109	1.351423	-1.149092	1
H	1.960919	-2.131078	-0.376502	1
Es	1.477396	-1.185465	-0.088874	99
Es	1.855737	-0.475276	-0.165906	99
Es	0.650302	-1.231420	-0.135477	99
Es	0.389971	1.263839	-0.813681	99
Es	-0.197279	0.490116	-0.075688	99
Es	1.303173	0.855841	0.888395	99
Es	1.861896	-0.661157	0.355589	99
Es	0.122377	-1.321157	-0.142528	99
Es	1.689859	0.459465	0.442836	99
Es	-1.920682	-0.166050	0.175395	99
Es	-2.270199	-0.801025	0.213912	99
Es	0.207504	1.135383	-0.112409	99
Es	0.177880	-1.267658	-0.108714	99
Es	0.915194	0.976342	0.380286	99
Es	1.803595	-1.807833	-0.281465	99
Es	1.384173	0.957383	0.673805	99
Es	-1.234049	-0.139050	0.408415	99
Es	2.541987	-0.102742	0.241929	99
Es	1.554914	1.222947	0.655494	99
Es	-0.133578	-0.859082	-0.070919	99
Es	-0.012705	-1.590664	-0.207754	99
Es	-0.597200	-0.120389	-0.020896	99
Es	-2.314816	0.443898	0.243729	99
Es	2.163010	-0.138202	0.237199	99
Es	-0.165201	1.707843	0.155538	99
Es	-1.324845	-0.127890	-0.250605	99
38
Properties=species:S:1:pos:R:3:Z:I:1 energy=-358.57416307529076 field_type=dipole dipole="0.000000 0.000000 0.000000" charge=0
C	-1.920621	-0.166057	0.175408	6
C	-0.597511	-0.120157	-0.020852	6
C	0.207359	1.135493	-0.112532	6
O	1.384319	0.957602	0.674088	8
N	2.163669	-0.138147	0.237218	7
C	1.477689	-1.185437	-0.088842	6
O	0.122079	-1.321647	-0.142302	8
H	-2.513241	0.736602	0.280358	1
H	-2.439241	-1.117607	0.238768	1
H	-0.335531	1.999013	0.284278	1
H	0.490109	1.351423	-1.149092	1
H	1.960919	-2.131078	-0.376502	1
Es	1.803623	-1.807849	-0.281405	99
Es	-0.597201	-0.120388	-0.020899	99
Es	-0.133659	-0.859371	-0.070426	99
Es	2.163012	-0.138227	0.237194	99
Es	0.914826	0.976016	0.380779	99
Es	-2.314947	0.443836	0.243789	99
Es	-1.234123	-0.139010	0.408367	99
Es	1.477394	-1.185467	-0.088872	99
Es	-0.197351	0.490094	-0.075589	99
Es	0.390007	1.263785	-0.813688	99
Es	-0.165230	1.707851	0.155451	99
Es	1.690047	0.459688	0.442827	99
Es	-1.324786	-0.127782	-0.250577	99
Es	1.554758	1.223040	0.656105	99
Es	-0.012575	-1.590593	-0.207438	99
Es	1.856665	-0.474853	-0.165399	99
Es	1.384218	0.957431	0.673812	99
Es	1.303340	0.855780	0.887296	99
Es	-1.920682	-0.166049	0.175396	99
Es	1.860831	-0.661227	0.354740	99
Es	0.177955	-1.267373	-0.109853	99
Es	0.207509	1.135379	-0.112400	99
Es	0.122283	-1.321263	-0.142086	99
Es	0.650336	-1.231328	-0.135549	99
Es	-2.270066	-0.801107	0.213786	99
Es	2.542231	-0.103018	0.242251	99
38
Properties=species:S:1:pos:R:3:Z:I:1 energy=-358.57416307529076 field_type=dipole dipole="0.000000 0.000000 0.000000" charge=0
C	-1.920621	-0.166057	0.175408	6
C	-0.597511	-0.120157	-0.020852	6
C	0.207359	1.135493	-0.112532	6
O	1.384319	0.957602	0.674088	8
N	2.163669	-0.138147	0.237218	7
C	1.477689	-1.185437	-0.088842	6
O	0.122079	-1.321647	-0.142302	8
H	-2.513241	0.736602	0.280358	1
H	-2.439241	-1.117607	0.238768	1
H	-0.335531	1.999013	0.284278	1
H	0.490109	1.351423	-1.149092	1
H	1.960919	-2.131078	-0.376502	1
Es	1.690183	0.459693	0.442734	99
Es	0.207512	1.135377	-0.112399	99
Es	1.477393	-1.185468	-0.088869	99
Es	-2.270203	-0.801098	0.213799	99
Es	2.542313	-0.102959	0.241801	99
Es	-0.134418	-0.860037	-0.069249	99
Es	0.389880	1.263815	-0.813535	99
Es	-0.597199	-0.120389	-0.020902	99
Es	1.303995	0.856306	0.886717	99
Es	0.122350	-1.321168	-0.141876	99
Es	0.914425	0.975553	0.381843	99
Es	1.854923	-0.475648	-0.165334	99
Es	1.384229	0.957411	0.673783	99
Es	0.650439	-1.231365	-0.134267	99
Es	-1.920681	-0.166050	0.175397	99
Es	-1.234106	-0.139043	0.408394	99
Es	-0.165230	1.707827	0.155489	99
Es	-2.314825	0.443864	0.243692	99
Es	-0.011894	-1.591493	-0.203018	99
Es	2.162997	-0.138206	0.237207	99
Es	-0.197310	0.490109	-0.075625	99
Es	1.554477	1.222924	0.655731	99
Es	1.862531	-0.660555	0.355328	99
Es	1.803617	-1.807730	-0.281698	99
Es	-1.324805	-0.127835	-0.250551	99
Es	0.177821	-1.265835	-0.116985	99
38
Properties=species:S:1:pos:R:3:Z:I:1 energy=-358.57416307529076 field_type=dipole dipole="0.000000 0.000000 0.000000" charge=0
C	-1.920621	-0.166057	0.175408	6
C	-0.597511	-0.120157	-0.020852	6
C	0.207359	1.135493	-0.112532	6
O	1.384319	0.957602	0.674088	8
N	2.163669	-0.138147	0.237218	7
C	1.477689	-1.185437	-0.088842	6
O	0.122079	-1.321647	-0.142302	8
H	-2.513241	0.736602	0.280358	1
H	-2.439241	-1.117607	0.238768	1
H	-0.335531	1.999013	0.284278	1
H	0.490109	1.351423	-1.149092	1
H	1.960919	-2.131078	-0.376502	1
Es	1.554736	1.223028	0.657029	99
Es	-2.314807	0.443834	0.243587	99
Es	-1.234031	-0.139002	0.408480	99
Es	1.477394	-1.185467	-0.088875	99
Es	0.177748	-1.267307	-0.111122	99
Es	-1.324880	-0.127948	-0.250620	99
Es	0.389901	1.263814	-0.813415	99
Es	-0.165172	1.707883	0.155418	99
Es	-0.197489	0.490089	-0.075786	99
Es	1.803572	-1.807792	-0.281374	99
Es	-0.012128	-1.590010	-0.208280	99
Es	0.914263	0.975692	0.381962	99
Es	0.122440	-1.321080	-0.141560	99
Es	-2.270233	-0.801056	0.213914	99
Es	0.650378	-1.231391	-0.135651	99
Es	1.690034	0.459333	0.442871	99
Es	1.862303	-0.660815	0.355313	99
Es	1.303855	0.856160	0.884959	99
Es	2.163008	-0.138218	0.237200	99
Es	0.207507	1.135380	-0.112401	99
Es	-0.134070	-0.860000	-0.068678	99
Es	1.384238	0.957433	0.673844	99
Es	2.542520	-0.102668	0.240691	99
Es	-0.597200	-0.120390	-0.020897	99
Es	1.855209	-0.475458	-0.164400	99
Es	-1.920681	-0.166050	0.175397	99
38
Properties=species:S:1:pos:R:3:Z:I:1 energy=-358.57416307529076 field_type=dipole dipole="0.000000 0.000000 0.000000" charge=0
C	-1.920621	-0.166057	0.175408	6
C	-0.597511	-0.120157	-0.020852	6
C	0.207359	1.135493	-0.112532	6
O	1.384319	0.957602	0.674088	8
N	2.163669	-0.138147	0.237218	7
C	1.477689	-1.185437	-0.088842	6
O	0.122079	-1.321647	-0.142302	8
H	-2.513241	0.736602	0.280358	1
H	-2.439241	-1.117607	0.238768	1
H	-0.335531	1.999013	0.284278	1
H	0.490109	1.351423	-1.149092	1
H	1.960919	-2.131078	-0.376502	1
Es	1.861603	-0.660625	0.354724	99
Es	-1.920681	-0.166049	0.175395	99
Es	0.177939	-1.266187	-0.114690	99
Es	1.304610	0.856625	0.884166	99
Es	0.913638	0.975016	0.383213	99
Es	1.477394	-1.185467	-0.088874	99
Es	-1.324683	-0.127899	-0.250696	99
Es	1.554270	1.222916	0.656827	99
Es	-0.134018	-0.859813	-0.069385	99
Es	-1.234209	-0.138963	0.408770	99
Es	1.855678	-0.475273	-0.164818	99
Es	-2.314848	0.443774	0.243537	99
Es	1.803574	-1.807733	-0.281597	99
Es	-0.165240	1.707909	0.155464	99
Es	-0.012336	-1.591053	-0.203677	99
Es	2.542617	-0.103191	0.241913	99
Es	-2.270229	-0.801016	0.213703	99
Es	0.122312	-1.321224	-0.141911	99
Es	2.163002	-0.138204	0.237196	99
Es	0.389864	1.263759	-0.813409	99
Es	1.384187	0.957390	0.673757	99
Es	0.207509	1.135379	-0.112400	99
Es	-0.197349	0.489999	-0.075626	99
Es	0.650428	-1.231461	-0.135740	99
Es	1.690581	0.459776	0.442665	99
Es	-0.597198	-0.120390	-0.020897	99
38
Properties=species:S:1:pos:R:3:Z:I:1 energy=-358.57416307529076 field_type=dipole dipole="0.000000 0.000000 0.000000" charge=0
C	-1.920621	-0.166057	0.175408	6
C	-0.597511	-0.120157	-0.020852	6
C	0.207359	1.135493	-0.112532	6
O	1.384319	0.957602	0.674088	8
N	2.163669	-0.138147	0.237218	7
C	1.477689	-1.185437	-0.088842	6
O	0.122079	-1.321647	-0.142302	8
H	-2.513241	0.736602	0.280358	1
H	-2.439241	-1.117607	0.238768	1
H	-0.335531	1.999013	0.284278	1
H	0.490109	1.351423	-1.149092	1
H	1.960919	-2.131078	-0.376502	1
Es	1.855941	-0.475128	-0.164241	99
Es	1.690668	0.459764	0.442748	99
Es	-1.324863	-0.127751	-0.250552	99
Es	1.803561	-1.807797	-0.281343	99
Es	-0.165162	1.707849	0.155377	99
Es	1.477392	-1.185468	-0.088872	99
Es	-2.314816	0.443786	0.243729	99
Es	0.913288	0.974359	0.384164	99
Es	-0.597202	-0.120387	-0.020898	99
Es	0.650404	-1.231187	-0.136035	99
Es	-2.270217	-0.801149	0.213712	99
Es	1.861394	-0.660710	0.354556	99
Es	2.163012	-0.138209	0.237198	99
Es	1.304976	0.857091	0.883456	99
Es	-1.234062	-0.139002	0.408519	99
Es	0.122294	-1.321244	-0.142136	99
Es	1.553979	1.223039	0.656514	99
Es	-1.920680	-0.166048	0.175405	99
Es	1.384262	0.957421	0.673725	99
Es	0.207505	1.135382	-0.112407	99
Es	-0.011809	-1.589757	-0.208561	99
Es	2.542725	-0.103130	0.241285	99
Es	-0.197460	0.490129	-0.075681	99
Es	-0.134525	-0.859943	-0.070222	99
Es	0.389860	1.263721	-0.813484	99
Es	0.177947	-1.267633	-0.108347	99
38
Properties=species:S:1:pos:R:3:Z:I:1 energy=-358.57416307529076 field_type=dipole dipole="0.000000 0.000000 0.000000" charge=0
C	-1.920621	-0.166057	0.175408	6
C	-0.597511	-0.120157	-0.020852	6
C	0.207359	1.135493	-0.112532	6
O	1.384319	0.957602	0.674088	8
N	2.163669	-0.138147	0.237218	7
C	1.477689	-1.185437	-0.088842	6
O	0.122079	-1.321647	-0.142302	8
H	-2.513241	0.736602	0.280358	1
H	-2.439241	-1.117607	0.238768	1
H	-0.335531	1.999013	0.284278	1
H	0.490109	1.351423	-1.149092	1
H	1.960919	-2.131078	-0.376502	1
Es	1.305256	0.857319	0.883654	99
Es	1.554287	1.223010	0.655863	99
Es	-2.314939	0.443839	0.243628	99
Es	2.163009	-0.138202	0.237203	99
Es	-0.597201	-0.120388	-0.020899	99
Es	2.542885	-0.103098	0.241108	99
Es	0.207509	1.135379	-0.112401	99
Es	0.913216	0.974356	0.384414	99
Es	0.650452	-1.231225	-0.136140	99
Es	-0.197233	0.490140	-0.075567	99
Es	-1.324796	-0.127875	-0.250568	99
Es	0.389732	1.263740	-0.813368	99
Es	-2.270116	-0.801064	0.213671	99
Es	1.803675	-1.807791	-0.281450	99
Es	1.855776	-0.475196	-0.163727	99
Es	0.177606	-1.267660	-0.108689	99
Es	-1.920682	-0.166049	0.175397	99
Es	-0.165249	1.707801	0.155444	99
Es	-1.234138	-0.139075	0.408510	99
Es	1.690208	0.459473	0.442732	99
Es	0.122618	-1.320896	-0.143068	99
Es	1.477393	-1.185468	-0.088873	99
Es	-0.134631	-0.860153	-0.069637	99
Es	-0.011861	-1.589772	-0.207732	99
Es	1.861405	-0.660573	0.354344	99
Es	1.384232	0.957424	0.673757	99
38
Properties=species:S:1:pos:R:3:Z:I:1 energy=-358.57416307529076 field_type=dipole dipole="0.000000 0.000000 0.000000" charge=0
C	-1.920621	-0.166057	0.175408	6
C	-0.597511	-0.120157	-0.020852	6
C	0.207359	1.135493	-0.112532	6
O	1.384319	0.957602	0.674088	8
N	2.163669	-0.138147	0.237218	7
C	1.477689	-1.185437	-0.088842	6
O	0.122079	-1.321647	-0.142302	8
H	-2.513241	0.736602	0.280358	1
H	-2.439241	-1.117607	0.238768	1
H	-0.335531	1.999013	0.284278	1
H	0.490109	1.351423	-1.149092	1
H	1.960919	-2.131078	-0.376502	1
Es	-0.165096	1.707880	0.155292	99
Es	0.122711	-1.320792	-0.143187	99
Es	-0.133917	-0.859886	-0.069507	99
Es	1.384214	0.957406	0.673764	99
Es	1.855107	-0.475493	-0.163783	99
Es	-1.920681	-0.166049	0.175397	99
Es	0.177501	-1.267443	-0.109907	99
Es	0.650513	-1.231600	-0.135976	99
Es	1.690633	0.459698	0.442699	99
Es	-2.314876	0.443873	0.243556	99
Es	-0.012528	-1.589961	-0.206734	99
Es	0.912743	0.973847	0.385507	99
Es	-0.197536	0.490042	-0.075682	99
Es	1.803598	-1.807736	-0.281508	99
Es	1.553842	1.222846	0.655801	99
Es	-0.597197	-0.120392	-0.020890	99
Es	1.862131	-0.660269	0.354518	99
Es	-1.324764	-0.128016	-0.250665	99
Es	0.207507	1.135380	-0.112404	99
Es	2.162997	-0.138197	0.237207	99
Es	-1.234157	-0.139036	0.408619	99
Es	-2.270184	-0.800963	0.213821	99
Es	2.542941	-0.103122	0.240945	99
Es	1.477391	-1.185469	-0.088871	99
Es	1.305762	0.857699	0.882797	99
Es	0.389758	1.263748	-0.813199	99
38
Properties=species:S:1:pos:R:3:Z:I:1 energy=-358.57416307529076 field_type=dipole dipole="0.000000 0.000000 0.000000" charge=0
C	-1.920621	-0.166057	0.175408	6
C	-0.597511	-0.120157	-0.020852	6
C	0.207359	1.135493	-0.112532	6
O	1.384319	0.957602	0.674088	8
N	2.163669	-0.138147	0.237218	7
C	1.477689	-1.185437	-0.088842	6
O	0.122079	-1.321647	-0.142302	8
H	-2.513241	0.736602	0.280358	1
H	-2.439241	-1.117607	0.238768	1
H	-0.335531	1.999013	0.284278	1
H	0.490109	1.351423	-1.149092	1
H	1.960919	-2.131078	-0.376502	1
Es	1.554119	1.223116	0.657547	99
Es	1.861706	-0.660293	0.354321	99
Es	1.305537	0.857140	0.880755	99
Es	-1.324877	-0.127903	-0.250709	99
Es	0.650457	-1.231262	-0.136681	99
Es	0.912616	0.973943	0.385548	99
Es	1.477393	-1.185468	-0.088872	99
Es	2.542991	-0.103199	0.241392	99
Es	-0.134688	-0.860434	-0.068903	99
Es	-1.234045	-0.139009	0.408695	99
Es	0.176945	-1.267566	-0.111307	99
Es	-0.597201	-0.120387	-0.020898	99
Es	-2.270122	-0.801005	0.213791	99
Es	-2.314964	0.443709	0.243469	99
Es	0.123338	-1.320210	-0.143233	99
Es	0.389766	1.263732	-0.813268	99
Es	0.207508	1.135379	-0.112401	99
Es	-0.165179	1.707858	0.155362	99
Es	1.690653	0.459793	0.442560	99
Es	1.803588	-1.807727	-0.281484	99
Es	-1.920682	-0.166049	0.175395	99
Es	-0.011715	-1.590155	-0.205185	99
Es	-0.197478	0.490066	-0.075573	99
Es	2.163007	-0.138221	0.237191	99
Es	1.855508	-0.475361	-0.163895	99
Es	1.384232	0.957509	0.673993	99
38
Properties=species:S:1:pos:R:3:Z:I:1 energy=-358.57416307529076 field_type=dipole dipole="0.000000 0.000000 0.000000" charge=0
C	-1.920621	-0.166057	0.175408	6
C	-0.597511	-0.120157	-0.020852	6
C	0.207359	1.135493	-0.112532	6
O	1.384319	0.957602	0.674088	8
N	2.163669	-0.138147	0.237218	7
C	1.477689	-1.185437	-0.088842	6
O	0.122079	-1.321647	-0.142302	8
H	-2.513241	0.736602	0.280358	1
H	-2.439241	-1.117607	0.238768	1
H	-0.335531	1.999013	0.284278	1
H	0.490109	1.351423	-1.149092	1
H	1.960919	-2.131078	-0.376502	1
Es	1.384148	0.957365	0.673806	99
Es	1.477392	-1.185468	-0.088873	99
Es	0.650474	-1.231119	-0.136047	99
Es	0.177811	-1.266560	-0.112407	99
Es	0.207507	1.135380	-0.112403	99
Es	0.122466	-1.321126	-0.142494	99
Es	-0.165176	1.707770	0.155418	99
Es	-0.135010	-0.860497	-0.069523	99
Es	-2.270089	-0.801006	0.213773	99
Es	-0.011473	-1.590293	-0.204754	99
Es	2.543092	-0.103354	0.241005	99
Es	-1.324797	-0.127900	-0.250770	99
Es	2.163006	-0.138210	0.237197	99
Es	1.554039	1.223314	0.661129	99
Es	1.305017	0.855626	0.878975	99
Es	0.389699	1.263806	-0.813262	99
Es	-1.920682	-0.166049	0.175395	99
Es	-0.197444	0.490040	-0.075689	99
Es	1.855969	-0.475045	-0.163389	99
Es	-0.597201	-0.120388	-0.020899	99
Es	0.912851	0.974456	0.384867	99
Es	1.861071	-0.660468	0.353891	99
Es	-1.234135	-0.138967	0.408703	99
Es	-2.314977	0.443721	0.243612	99
Es	1.691231	0.460745	0.441690	99
Es	1.803625	-1.807778	-0.281344	99
38
Properties=species:S:1:pos:R:3:Z:I:1 energy=-358.57416307529076 field_type=dipole dipole="0.000000 0.000000 0.000000" charge=0
C	-1.920621	-0.166057	0.175408	6
C	-0.597511	-0.120157	-0.020852	6
C	0.207359	1.135493	-0.112532	6
O	1.384319	0.957602	0.674088	8
N	2.163669	-0.138147	0.237218	7
C	1.477689	-1.185437	-0.088842	6
O	0.122079	-1.321647	-0.142302	8
H	-2.513241	0.736602	0.280358	1
H	-2.439241	-1.117607	0.238768	1
H	-0.335531	1.999013	0.284278	1
H	0.490109	1.351423	-1.149092	1
H	1.960919	-2.131078	-0.376502	1
Es	1.477392	-1.185468	-0.088874	99
Es	-1.920681	-0.166049	0.175402	99
Es	-0.165105	1.707836	0.155367	99
Es	2.543192	-0.103176	0.240697	99
Es	0.912321	0.973567	0.386266	99
Es	1.855495	-0.475235	-0.163110	99
Es	0.122312	-1.321218	-0.141974	99
Es	1.861457	-0.660301	0.354098	99
Es	1.554417	1.223397	0.657823	99
Es	-0.135541	-0.860760	-0.069398	99
Es	1.305868	0.857275	0.879895	99
Es	-0.597201	-0.120388	-0.020899	99
Es	-2.314988	0.443752	0.243601	99
Es	1.803665	-1.807769	-0.281377	99
Es	1.690426	0.459666	0.442510	99
Es	0.389711	1.263783	-0.813198	99
Es	-1.234100	-0.139129	0.408763	99
Es	0.177995	-1.267304	-0.109391	99
Es	-1.324817	-0.127873	-0.250672	99
Es	0.207510	1.135378	-0.112398	99
Es	-0.011067	-1.589020	-0.207304	99
Es	-0.197461	0.490052	-0.075637	99
Es	0.650519	-1.231322	-0.137181	99
Es	1.384198	0.957450	0.673865	99
Es	2.163002	-0.138213	0.237193	99
Es	-2.270107	-0.800932	0.213543	99
