42
Properties=species:S:1:pos:R:3:Z:I:1 energy=-339.99948197154833 field_type=dipole dipole="0.000000 0.000000 0.000000" charge=0
C	-1.997833	-0.908656	-0.119026	6
C	-0.739403	-0.269156	0.354044	6
N	0.504637	-1.031886	0.380774	7
C	0.369287	0.061414	-0.613596	6
C	1.203567	1.274544	-0.394956	6
N	2.077687	1.211564	0.645554	7
O	1.096197	2.254244	-1.118226	8
H	-2.728613	-0.140246	-0.389906	1
H	-2.431103	-1.523506	0.676274	1
H	-1.837033	-1.546876	-0.994446	1
H	-0.906953	0.396674	1.193654	1
H	0.397577	-1.933926	-0.087956	1
H	0.274066	-0.248396	-1.647966	1
H	2.073756	0.389234	1.238524	1
H	2.644167	2.014974	0.877254	1
Es	0.742563	-0.986191	0.653693	99
Es	-0.845004	0.181915	0.923898	99
Es	-2.485987	-0.387310	-0.298653	99
Es	0.303841	-0.145482	-1.306457	99
Es	0.504242	-1.031858	0.380319	99
Es	2.401546	1.686642	0.795181	99
Es	0.952254	2.017156	-0.730169	99
Es	-2.283281	-1.323682	0.423349	99
Es	-1.997803	-0.908648	-0.119017	99
Es	-0.084901	-0.801673	0.469129	99
Es	2.077605	1.211581	0.645516	99
Es	1.305609	1.834796	-1.027951	99
Es	-0.739184	-0.269268	0.353971	99
Es	0.884490	2.211722	-1.343916	99
Es	-1.356604	-0.596936	0.104605	99
Es	2.075497	0.747628	1.005039	99
Es	1.203635	1.274475	-0.394827	99
Es	0.564662	-0.591383	-0.106243	99
Es	1.621076	1.310685	0.423519	99
Es	1.096226	2.253971	-1.118024	99
Es	2.105263	1.114400	0.290146	99
Es	-0.274076	0.086235	-0.229572	99
Es	0.423384	-1.564646	0.088874	99
Es	-1.875666	-1.343053	-0.713288	99
Es	1.291561	2.484070	-1.027845	99
Es	0.798413	0.647749	-0.488712	99
Es	0.369305	0.061255	-0.613379	99
42
Properties=species:S:1:pos:R:3:Z:I:1 energy=-339.99948197154833 field_type=dipole dipole="0.000000 0.000000 0.000000" charge=0
C	-1.997833	-0.908656	-0.119026	6
C	-0.739403	-0.269156	0.354044	6
N	0.504637	-1.031886	0.380774	7
C	0.369287	0.061414	-0.613596	6
C	1.203567	1.274544	-0.394956	6
N	2.077687	1.211564	0.645554	7
O	1.096197	2.254244	-1.118226	8
H	-2.728613	-0.140246	-0.389906	1
H	-2.431103	-1.523506	0.676274	1
H	-1.837033	-1.546876	-0.994446	1
H	-0.906953	0.396674	1.193654	1
H	0.397577	-1.933926	-0.087956	1
H	0.274066	-0.248396	-1.647966	1
H	2.073756	0.389234	1.238524	1
H	2.644167	2.014974	0.877254	1
Es	0.565172	-0.590073	-0.108041	99
Es	1.203645	1.274472	-0.394831	99
Es	-2.283085	-1.325812	0.425225	99
Es	-1.997803	-0.908648	-0.119018	99
Es	1.308680	1.836431	-1.029341	99
Es	0.423209	-1.563224	0.091117	99
Es	-0.273333	0.089513	-0.232614	99
Es	1.289337	2.473688	-1.024820	99
Es	0.303721	-0.144700	-1.306489	99
Es	0.797458	0.647820	-0.488323	99
Es	0.504241	-1.031849	0.380320	99
Es	-2.485856	-0.385521	-0.300504	99
Es	-0.845548	0.180561	0.923132	99
Es	2.075693	0.745972	1.007878	99
Es	1.620207	1.311522	0.415820	99
Es	1.096187	2.253939	-1.118050	99
Es	-1.356793	-0.597690	0.104043	99
Es	-0.739174	-0.269256	0.353968	99
Es	0.369309	0.061255	-0.613380	99
Es	-0.083801	-0.805904	0.471564	99
Es	0.740857	-0.987576	0.653666	99
Es	2.106600	1.116006	0.297239	99
Es	2.400613	1.684844	0.792588	99
Es	0.885937	2.219624	-1.350147	99
Es	-1.874563	-1.341204	-0.711407	99
Es	2.077409	1.211688	0.645664	99
Es	0.950349	2.018269	-0.726076	99
42
Properties=species:S:1:pos:R:3:Z:I:1 energy=-339.99948197154833 field_type=dipole dipole="0.000000 0.000000 0.000000" charge=0
C	-1.997833	-0.908656	-0.119026	6
C	-0.739403	-0.269156	0.354044	6
N	0.504637	-1.031886	0.380774	7
C	0.369287	0.061414	-0.613596	6
C	1.203567	1.274544	-0.394956	6
N	2.077687	1.211564	0.645554	7
O	1.096197	2.254244	-1.118226	8
H	-2.728613	-0.140246	-0.389906	1
H	-2.431103	-1.523506	0.676274	1
H	-1.837033	-1.546876	-0.994446	1
H	-0.906953	0.396674	1.193654	1
H	0.397577	-1.933926	-0.087956	1
H	0.274066	-0.248396	-1.647966	1
H	2.073756	0.389234	1.238524	1
H	2.644167	2.014974	0.877254	1
Es	0.564911	-0.589085	-0.109084	99
Es	2.400424	1.683197	0.790952	99
Es	0.797012	0.648007	-0.488072	99
Es	-2.282740	-1.327189	0.426305	99
Es	-2.485725	-0.384545	-0.301739	99
Es	-0.739179	-0.269259	0.353962	99
Es	2.106710	1.117031	0.301151	99
Es	-0.845761	0.179572	0.922473	99
Es	1.203636	1.274477	-0.394823	99
Es	-0.082974	-0.808754	0.472993	99
Es	0.504230	-1.031847	0.380310	99
Es	2.075699	0.745007	1.009268	99
Es	2.077491	1.211637	0.645588	99
Es	0.303821	-0.144360	-1.306313	99
Es	1.096237	2.253998	-1.118050	99
Es	1.619954	1.312575	0.411933	99
Es	-1.357046	-0.598189	0.103853	99
Es	1.288421	2.458335	-1.017169	99
Es	0.947881	2.018968	-0.724763	99
Es	-1.997802	-0.908646	-0.119016	99
Es	-0.273200	0.091522	-0.234646	99
Es	0.369309	0.061248	-0.613375	99
Es	0.424157	-1.563137	0.093047	99
Es	0.888899	2.234564	-1.358282	99
Es	0.738924	-0.987327	0.653114	99
Es	1.309259	1.836242	-1.030402	99
Es	-1.873882	-1.339891	-0.710026	99
42
Properties=species:S:1:pos:R:3:Z:I:1 energy=-339.99948197154833 field_type=dipole dipole="0.000000 0.000000 0.000000" charge=0
C	-1.997833	-0.908656	-0.119026	6
C	-0.739403	-0.269156	0.354044	6
N	0.504637	-1.031886	0.380774	7
C	0.369287	0.061414	-0.613596	6
C	1.203567	1.274544	-0.394956	6
N	2.077687	1.211564	0.645554	7
O	1.096197	2.254244	-1.118226	8
H	-2.728613	-0.140246	-0.389906	1
H	-2.431103	-1.523506	0.676274	1
H	-1.837033	-1.546876	-0.994446	1
H	-0.906953	0.396674	1.193654	1
H	0.397577	-1.933926	-0.087956	1
H	0.274066	-0.248396	-1.647966	1
H	2.073756	0.389234	1.238524	1
H	2.644167	2.014974	0.877254	1
Es	0.424373	-1.563087	0.094215	99
Es	-1.873211	-1.338750	-0.709153	99
Es	0.796628	0.648224	-0.487891	99
Es	0.303770	-0.144133	-1.306185	99
Es	-2.485544	-0.383878	-0.302510	99
Es	-0.272961	0.092827	-0.235942	99
Es	1.203636	1.274477	-0.394823	99
Es	1.288995	2.447985	-1.013455	99
Es	1.307735	1.835939	-1.033602	99
Es	2.400197	1.682286	0.789852	99
Es	2.075681	0.744649	1.010226	99
Es	-2.282543	-1.328340	0.426780	99
Es	-1.997803	-0.908648	-0.119017	99
Es	-0.082576	-0.810099	0.473806	99
Es	1.096181	2.253919	-1.118046	99
Es	2.077437	1.211661	0.645618	99
Es	0.890431	2.245761	-1.360982	99
Es	1.619482	1.312703	0.407111	99
Es	0.947547	2.018589	-0.722744	99
Es	-0.739170	-0.269262	0.353961	99
Es	-1.357392	-0.598469	0.103933	99
Es	2.107306	1.117713	0.305833	99
Es	0.737358	-0.987502	0.652680	99
Es	0.369297	0.061257	-0.613376	99
Es	0.504240	-1.031846	0.380320	99
Es	0.565461	-0.588679	-0.109451	99
Es	-0.845888	0.178854	0.922027	99
42
Properties=species:S:1:pos:R:3:Z:I:1 energy=-339.99948197154833 field_type=dipole dipole="0.000000 0.000000 0.000000" charge=0
C	-1.997833	-0.908656	-0.119026	6
C	-0.739403	-0.269156	0.354044	6
N	0.504637	-1.031886	0.380774	7
C	0.369287	0.061414	-0.613596	6
C	1.203567	1.274544	-0.394956	6
N	2.077687	1.211564	0.645554	7
O	1.096197	2.254244	-1.118226	8
H	-2.728613	-0.140246	-0.389906	1
H	-2.431103	-1.523506	0.676274	1
H	-1.837033	-1.546876	-0.994446	1
H	-0.906953	0.396674	1.193654	1
H	0.397577	-1.933926	-0.087956	1
H	0.274066	-0.248396	-1.647966	1
H	2.073756	0.389234	1.238524	1
H	2.644167	2.014974	0.877254	1
Es	0.736204	-0.987502	0.652067	99
Es	0.424728	-1.563227	0.094931	99
Es	-1.357398	-0.598794	0.103717	99
Es	-1.997803	-0.908648	-0.119017	99
Es	2.077562	1.211608	0.645567	99
Es	0.369306	0.061253	-0.613382	99
Es	-0.082282	-0.811138	0.474719	99
Es	0.895703	2.257551	-1.366395	99
Es	2.075563	0.744434	1.010883	99
Es	-0.845923	0.178403	0.921651	99
Es	0.565668	-0.587993	-0.109825	99
Es	1.308464	1.836203	-1.033602	99
Es	2.107259	1.118337	0.309935	99
Es	-2.485214	-0.383447	-0.303209	99
Es	-0.273132	0.093407	-0.236845	99
Es	0.944523	2.018025	-0.723361	99
Es	-0.739179	-0.269261	0.353958	99
Es	-2.282423	-1.328774	0.427397	99
Es	1.286205	2.436571	-1.007450	99
Es	2.400411	1.681669	0.788874	99
Es	0.796477	0.648438	-0.487849	99
Es	0.303914	-0.144050	-1.305888	99
Es	-1.873156	-1.338207	-0.708329	99
Es	1.203637	1.274477	-0.394823	99
Es	1.096219	2.253976	-1.118044	99
Es	1.619090	1.312686	0.403183	99
Es	0.504241	-1.031846	0.380323	99
42
Properties=species:S:1:pos:R:3:Z:I:1 energy=-339.99948197154833 field_type=dipole dipole="0.000000 0.000000 0.000000" charge=0
C	-1.997833	-0.908656	-0.119026	6
C	-0.739403	-0.269156	0.354044	6
N	0.504637	-1.031886	0.380774	7
C	0.369287	0.061414	-0.613596	6
C	1.203567	1.274544	-0.394956	6
N	2.077687	1.211564	0.645554	7
O	1.096197	2.254244	-1.118226	8
H	-2.728613	-0.140246	-0.389906	1
H	-2.431103	-1.523506	0.676274	1
H	-1.837033	-1.546876	-0.994446	1
H	-0.906953	0.396674	1.193654	1
H	0.397577	-1.933926	-0.087956	1
H	0.274066	-0.248396	-1.647966	1
H	2.073756	0.389234	1.238524	1
H	2.644167	2.014974	0.877254	1
Es	2.075420	0.744424	1.011202	99
Es	0.369308	0.061257	-0.613382	99
Es	0.796492	0.648731	-0.487924	99
Es	1.096359	2.254125	-1.117992	99
Es	0.504243	-1.031852	0.380322	99
Es	-0.081684	-0.811889	0.475668	99
Es	1.284398	2.426709	-1.003766	99
Es	0.944163	2.017096	-0.723036	99
Es	-0.845931	0.177932	0.921253	99
Es	-0.739176	-0.269261	0.353962	99
Es	-2.282272	-1.329379	0.427527	99
Es	0.735546	-0.987412	0.651338	99
Es	-2.485194	-0.383173	-0.303766	99
Es	-0.272788	0.094073	-0.237486	99
Es	2.077449	1.211671	0.645654	99
Es	0.565193	-0.587633	-0.109773	99
Es	-1.997804	-0.908648	-0.119017	99
Es	0.898527	2.268070	-1.369052	99
Es	1.307765	1.836419	-1.035004	99
Es	2.104669	1.117703	0.306829	99
Es	-1.872950	-1.337562	-0.707585	99
Es	1.203637	1.274476	-0.394824	99
Es	0.424874	-1.563474	0.095489	99
Es	-1.357546	-0.598930	0.103609	99
Es	2.402401	1.680470	0.787196	99
Es	1.619841	1.314278	0.407422	99
Es	0.303726	-0.144071	-1.305679	99
42
Properties=species:S:1:pos:R:3:Z:I:1 energy=-339.99948197154833 field_type=dipole dipole="0.000000 0.000000 0.000000" charge=0
C	-1.997833	-0.908656	-0.119026	6
C	-0.739403	-0.269156	0.354044	6
N	0.504637	-1.031886	0.380774	7
C	0.369287	0.061414	-0.613596	6
C	1.203567	1.274544	-0.394956	6
N	2.077687	1.211564	0.645554	7
O	1.096197	2.254244	-1.118226	8
H	-2.728613	-0.140246	-0.389906	1
H	-2.431103	-1.523506	0.676274	1
H	-1.837033	-1.546876	-0.994446	1
H	-0.906953	0.396674	1.193654	1
H	0.397577	-1.933926	-0.087956	1
H	0.274066	-0.248396	-1.647966	1
H	2.073756	0.389234	1.238524	1
H	2.644167	2.014974	0.877254	1
Es	1.619453	1.313116	0.402205	99
Es	2.077205	1.211727	0.645610	99
Es	1.203638	1.274476	-0.394826	99
Es	0.425287	-1.563853	0.095730	99
Es	-0.739177	-0.269260	0.353960	99
Es	-1.873142	-1.337379	-0.707475	99
Es	0.940434	2.012556	-0.725420	99
Es	2.402207	1.681198	0.787559	99
Es	-0.081633	-0.812002	0.475973	99
Es	1.305365	1.836695	-1.038432	99
Es	2.105727	1.118432	0.311734	99
Es	0.565340	-0.587180	-0.109804	99
Es	-0.272620	0.094037	-0.237579	99
Es	0.369304	0.061258	-0.613382	99
Es	-1.357405	-0.598951	0.103651	99
Es	1.096137	2.253853	-1.118062	99
Es	-0.845836	0.177779	0.921125	99
Es	2.075209	0.744147	1.011051	99
Es	1.279757	2.404739	-0.993467	99
Es	0.796507	0.648871	-0.487759	99
Es	0.504222	-1.031845	0.380300	99
Es	-1.997804	-0.908648	-0.119017	99
Es	0.734671	-0.987283	0.650844	99
Es	0.909725	2.294585	-1.373478	99
Es	0.303681	-0.144078	-1.305498	99
Es	-2.282534	-1.329513	0.427464	99
Es	-2.485052	-0.383327	-0.303824	99
42
Properties=species:S:1:pos:R:3:Z:I:1 energy=-339.99948197154833 field_type=dipole dipole="0.000000 0.000000 0.000000" charge=0
C	-1.997833	-0.908656	-0.119026	6
C	-0.739403	-0.269156	0.354044	6
N	0.504637	-1.031886	0.380774	7
C	0.369287	0.061414	-0.613596	6
C	1.203567	1.274544	-0.394956	6
N	2.077687	1.211564	0.645554	7
O	1.096197	2.254244	-1.118226	8
H	-2.728613	-0.140246	-0.389906	1
H	-2.431103	-1.523506	0.676274	1
H	-1.837033	-1.546876	-0.994446	1
H	-0.906953	0.396674	1.193654	1
H	0.397577	-1.933926	-0.087956	1
H	0.274066	-0.248396	-1.647966	1
H	2.073756	0.389234	1.238524	1
H	2.644167	2.014974	0.877254	1
Es	-1.873039	-1.337009	-0.706905	99
Es	0.303513	-0.143993	-1.305478	99
Es	0.907397	2.291915	-1.373684	99
Es	1.096171	2.253908	-1.118053	99
Es	0.504219	-1.031843	0.380299	99
Es	0.369306	0.061255	-0.613383	99
Es	-0.272380	0.094501	-0.238101	99
Es	-2.282369	-1.329829	0.427642	99
Es	0.733980	-0.986852	0.651299	99
Es	1.620779	1.316205	0.414495	99
Es	0.942589	2.013653	-0.723646	99
Es	-1.357501	-0.599139	0.103703	99
Es	1.306358	1.837471	-1.037664	99
Es	2.076653	0.743252	1.010484	99
Es	-0.739178	-0.269259	0.353963	99
Es	2.098486	1.118088	0.303312	99
Es	2.077528	1.211624	0.645581	99
Es	1.278917	2.405505	-0.995855	99
Es	0.796418	0.649221	-0.487850	99
Es	-0.081188	-0.812538	0.475583	99
Es	-1.997804	-0.908648	-0.119017	99
Es	0.565181	-0.587161	-0.109867	99
Es	2.406201	1.679238	0.784363	99
Es	0.425546	-1.564150	0.096341	99
Es	1.203636	1.274476	-0.394822	99
Es	-0.845753	0.177316	0.920708	99
Es	-2.484999	-0.383057	-0.304260	99
42
Properties=species:S:1:pos:R:3:Z:I:1 energy=-339.99948197154833 field_type=dipole dipole="0.000000 0.000000 0.000000" charge=0
C	-1.997833	-0.908656	-0.119026	6
C	-0.739403	-0.269156	0.354044	6
N	0.504637	-1.031886	0.380774	7
C	0.369287	0.061414	-0.613596	6
C	1.203567	1.274544	-0.394956	6
N	2.077687	1.211564	0.645554	7
O	1.096197	2.254244	-1.118226	8
H	-2.728613	-0.140246	-0.389906	1
H	-2.431103	-1.523506	0.676274	1
H	-1.837033	-1.546876	-0.994446	1
H	-0.906953	0.396674	1.193654	1
H	0.397577	-1.933926	-0.087956	1
H	0.274066	-0.248396	-1.647966	1
H	2.073756	0.389234	1.238524	1
H	2.644167	2.014974	0.877254	1
Es	2.101723	1.118260	0.307827	99
Es	0.303533	-0.144027	-1.305278	99
Es	2.404573	1.679915	0.785530	99
Es	2.075669	0.743595	1.010986	99
Es	-0.739176	-0.269261	0.353962	99
Es	2.077332	1.211712	0.645681	99
Es	0.425520	-1.564026	0.096411	99
Es	-2.282391	-1.330078	0.427671	99
Es	1.276152	2.398605	-0.992400	99
Es	0.504229	-1.031848	0.380308	99
Es	1.096230	2.253981	-1.118022	99
Es	-0.845734	0.177245	0.920637	99
Es	1.203637	1.274476	-0.394823	99
Es	-0.272305	0.094706	-0.238329	99
Es	-1.997804	-0.908648	-0.119017	99
Es	0.912079	2.300424	-1.374746	99
Es	0.564860	-0.586865	-0.109920	99
Es	0.940717	2.011250	-0.724894	99
Es	-1.357517	-0.599248	0.103578	99
Es	-0.081086	-0.812865	0.476591	99
Es	1.306333	1.838232	-1.038826	99
Es	1.620360	1.314899	0.408058	99
Es	0.796442	0.649204	-0.487854	99
Es	-1.873096	-1.336713	-0.706605	99
Es	0.369317	0.061251	-0.613375	99
Es	-2.484896	-0.382951	-0.304439	99
Es	0.733961	-0.987075	0.650472	99
42
Properties=species:S:1:pos:R:3:Z:I:1 energy=-339.99948197154833 field_type=dipole dipole="0.000000 0.000000 0.000000" charge=0
C	-1.997833	-0.908656	-0.119026	6
C	-0.739403	-0.269156	0.354044	6
N	0.504637	-1.031886	0.380774	7
C	0.369287	0.061414	-0.613596	6
C	1.203567	1.274544	-0.394956	6
N	2.077687	1.211564	0.645554	7
O	1.096197	2.254244	-1.118226	8
H	-2.728613	-0.140246	-0.389906	1
H	-2.431103	-1.523506	0.676274	1
H	-1.837033	-1.546876	-0.994446	1
H	-0.906953	0.396674	1.193654	1
H	0.397577	-1.933926	-0.087956	1
H	0.274066	-0.248396	-1.647966	1
H	2.073756	0.389234	1.238524	1
H	2.644167	2.014974	0.877254	1
Es	0.369310	0.061255	-0.613380	99
Es	-2.484962	-0.383075	-0.304340	99
Es	0.504235	-1.031841	0.380317	99
Es	0.796454	0.649452	-0.487911	99
Es	2.077461	1.211654	0.645618	99
Es	-0.271918	0.094569	-0.238301	99
Es	0.916954	2.311493	-1.375660	99
Es	1.305042	1.837731	-1.039332	99
Es	0.303262	-0.144050	-1.305239	99
Es	-2.282462	-1.330236	0.427493	99
Es	2.406917	1.679616	0.783882	99
Es	-1.997802	-0.908648	-0.119017	99
Es	1.272982	2.387974	-0.990845	99
Es	0.940410	2.011262	-0.725010	99
Es	-1.357418	-0.599129	0.103586	99
Es	0.733299	-0.987042	0.651349	99
Es	-0.845670	0.177198	0.920604	99
Es	2.076221	0.743268	1.010672	99
Es	-0.739173	-0.269262	0.353961	99
Es	-0.080979	-0.812622	0.475476	99
Es	-1.873215	-1.336563	-0.706609	99
Es	2.098136	1.118243	0.305669	99
Es	0.565430	-0.587050	-0.109807	99
Es	1.203637	1.274476	-0.394822	99
Es	1.620893	1.315630	0.412307	99
Es	0.425403	-1.564163	0.096583	99
Es	1.096219	2.254008	-1.118058	99
42
Properties=species:S:1:pos:R:3:Z:I:1 energy=-339.99948197154833 field_type=dipole dipole="0.000000 0.000000 0.000000" charge=0
C	-1.997833	-0.908656	-0.119026	6
C	-0.739403	-0.269156	0.354044	6
N	0.504637	-1.031886	0.380774	7
C	0.369287	0.061414	-0.613596	6
C	1.203567	1.274544	-0.394956	6
N	2.077687	1.211564	0.645554	7
O	1.096197	2.254244	-1.118226	8
H	-2.728613	-0.140246	-0.389906	1
H	-2.431103	-1.523506	0.676274	1
H	-1.837033	-1.546876	-0.994446	1
H	-0.906953	0.396674	1.193654	1
H	0.397577	-1.933926	-0.087956	1
H	0.274066	-0.248396	-1.647966	1
H	2.073756	0.389234	1.238524	1
H	2.644167	2.014974	0.877254	1
Es	1.203639	1.274475	-0.394826	99
Es	-1.357466	-0.599251	0.103573	99
Es	0.937576	2.011081	-0.727046	99
Es	0.303586	-0.144129	-1.305226	99
Es	-0.081120	-0.812552	0.476127	99
Es	-2.282525	-1.330278	0.427651	99
Es	0.425566	-1.564309	0.096691	99
Es	1.620074	1.313896	0.402944	99
Es	0.733060	-0.987039	0.650592	99
Es	-1.873202	-1.336480	-0.706548	99
Es	0.796404	0.649336	-0.487741	99
Es	0.922343	2.317394	-1.376872	99
Es	-2.484795	-0.383084	-0.304435	99
Es	2.405617	1.680474	0.784814	99
Es	0.504247	-1.031840	0.380333	99
Es	1.306585	1.837451	-1.038258	99
Es	-0.845682	0.177125	0.920611	99
Es	2.074787	0.743971	1.011491	99
Es	1.268998	2.382724	-0.988651	99
Es	0.565472	-0.586755	-0.109803	99
Es	2.101462	1.118605	0.313279	99
Es	2.077711	1.211541	0.645489	99
Es	-0.272132	0.094597	-0.238505	99
Es	1.096132	2.253849	-1.118060	99
Es	-0.739176	-0.269261	0.353960	99
Es	-1.997803	-0.908648	-0.119017	99
Es	0.369307	0.061256	-0.613381	99
42
Properties=species:S:1:pos:R:3:Z:I:1 energy=-339.99948197154833 field_type=dipole dipole="0.000000 0.000000 0.000000" charge=0
C	-1.997833	-0.908656	-0.119026	6
C	-0.739403	-0.269156	0.354044	6
N	0.504637	-1.031886	0.380774	7
C	0.369287	0.061414	-0.613596	6
C	1.203567	1.274544	-0.394956	6
N	2.077687	1.211564	0.645554	7
O	1.096197	2.254244	-1.118226	8
H	-2.728613	-0.140246	-0.389906	1
H	-2.431103	-1.523506	0.676274	1
H	-1.837033	-1.546876	-0.994446	1
H	-0.906953	0.396674	1.193654	1
H	0.397577	-1.933926	-0.087956	1
H	0.274066	-0.248396	-1.647966	1
H	2.073756	0.389234	1.238524	1
H	2.644167	2.014974	0.877254	1
Es	2.077548	1.211618	0.645590	99
Es	0.504225	-1.031844	0.380305	99
Es	-1.873162	-1.336514	-0.706400	99
Es	1.203637	1.274475	-0.394823	99
Es	1.620621	1.315083	0.408593	99
Es	0.936350	2.009412	-0.727931	99
Es	-2.282509	-1.330248	0.427610	99
Es	-0.739174	-0.269261	0.353959	99
Es	2.075619	0.743411	1.010928	99
Es	2.407655	1.679840	0.783417	99
Es	-0.845528	0.177075	0.920500	99
Es	0.303264	-0.144177	-1.305142	99
Es	1.096166	2.253879	-1.118047	99
Es	0.733153	-0.986977	0.651415	99
Es	-2.484909	-0.383143	-0.304588	99
Es	0.926458	2.322845	-1.377908	99
Es	1.306879	1.838744	-1.037950	99
Es	-1.357573	-0.599155	0.103667	99
Es	0.565172	-0.586827	-0.109691	99
Es	0.425427	-1.564296	0.096615	99
Es	1.265772	2.377592	-0.987079	99
Es	-0.080784	-0.812672	0.475416	99
Es	2.098184	1.118564	0.309585	99
Es	-0.271841	0.094601	-0.238530	99
Es	0.369308	0.061256	-0.613380	99
Es	-1.997803	-0.908648	-0.119017	99
Es	0.796511	0.649514	-0.487928	99
42
Properties=species:S:1:pos:R:3:Z:I:1 energy=-339.99948197154833 field_type=dipole dipole="0.000000 0.000000 0.000000" charge=0
C	-1.997833	-0.908656	-0.119026	6
C	-0.739403	-0.269156	0.354044	6
N	0.504637	-1.031886	0.380774	7
C	0.369287	0.061414	-0.613596	6
C	1.203567	1.274544	-0.394956	6
N	2.077687	1.211564	0.645554	7
O	1.096197	2.254244	-1.118226	8
H	-2.728613	-0.140246	-0.389906	1
H	-2.431103	-1.523506	0.676274	1
H	-1.837033	-1.546876	-0.994446	1
H	-0.906953	0.396674	1.193654	1
H	0.397577	-1.933926	-0.087956	1
H	0.274066	-0.248396	-1.647966	1
H	2.073756	0.389234	1.238524	1
H	2.644167	2.014974	0.877254	1
Es	1.305992	1.838318	-1.040424	99
Es	-1.997803	-0.908647	-0.119017	99
Es	0.733058	-0.987185	0.650766	99
Es	1.203638	1.274476	-0.394825	99
Es	0.937039	2.009343	-0.726445	99
Es	2.074555	0.743893	1.011487	99
Es	0.425346	-1.564343	0.096571	99
Es	0.303338	-0.144139	-1.305196	99
Es	0.504221	-1.031846	0.380297	99
Es	2.406595	1.680475	0.784213	99
Es	0.927830	2.328458	-1.376147	99
Es	1.264605	2.372415	-0.987920	99
Es	-0.739178	-0.269257	0.353957	99
Es	1.619807	1.313559	0.400307	99
Es	2.101199	1.118945	0.316378	99
Es	2.077435	1.211667	0.645637	99
Es	-0.080822	-0.812521	0.476000	99
Es	-0.271877	0.094695	-0.238476	99
Es	-1.357397	-0.599170	0.103531	99
Es	0.796439	0.649344	-0.487825	99
Es	-1.873255	-1.336470	-0.706410	99
Es	-2.484704	-0.383260	-0.304616	99
Es	1.096289	2.253971	-1.117966	99
Es	-2.282684	-1.330237	0.427739	99
Es	0.565340	-0.586638	-0.109666	99
Es	-0.845651	0.177054	0.920614	99
Es	0.369311	0.061253	-0.613380	99
42
Properties=species:S:1:pos:R:3:Z:I:1 energy=-339.99948197154833 field_type=dipole dipole="0.000000 0.000000 0.000000" charge=0
C	-1.997833	-0.908656	-0.119026	6
C	-0.739403	-0.269156	0.354044	6
N	0.504637	-1.031886	0.380774	7
C	0.369287	0.061414	-0.613596	6
C	1.203567	1.274544	-0.394956	6
N	2.077687	1.211564	0.645554	7
O	1.096197	2.254244	-1.118226	8
H	-2.728613	-0.140246	-0.389906	1
H	-2.431103	-1.523506	0.676274	1
H	-1.837033	-1.546876	-0.994446	1
H	-0.906953	0.396674	1.193654	1
H	0.397577	-1.933926	-0.087956	1
H	0.274066	-0.248396	-1.647966	1
H	2.073756	0.389234	1.238524	1
H	2.644167	2.014974	0.877254	1
Es	0.796451	0.649447	-0.487689	99
Es	-0.080764	-0.812582	0.475919	99
Es	-2.282617	-1.330320	0.427540	99
Es	2.077552	1.211618	0.645592	99
Es	1.203637	1.274475	-0.394823	99
Es	0.369305	0.061260	-0.613384	99
Es	-1.357343	-0.599055	0.103684	99
Es	1.095938	2.253553	-1.118125	99
Es	1.305625	1.840803	-1.042316	99
Es	-1.997803	-0.908648	-0.119017	99
Es	0.937404	2.005308	-0.726731	99
Es	0.564989	-0.586795	-0.109768	99
Es	2.406748	1.680331	0.784199	99
Es	1.262624	2.368724	-0.986410	99
Es	-0.271747	0.094720	-0.238589	99
Es	2.075089	0.743522	1.011085	99
Es	1.620039	1.314102	0.403332	99
Es	0.303399	-0.144127	-1.305282	99
Es	-0.845535	0.176966	0.920401	99
Es	0.425293	-1.564258	0.096688	99
Es	0.504227	-1.031847	0.380306	99
Es	0.930117	2.334020	-1.375397	99
Es	-0.739172	-0.269262	0.353959	99
Es	2.100205	1.119006	0.313899	99
Es	-1.873311	-1.336422	-0.706414	99
Es	0.733214	-0.987084	0.651045	99
Es	-2.484899	-0.383309	-0.304520	99
42
Properties=species:S:1:pos:R:3:Z:I:1 energy=-339.99948197154833 field_type=dipole dipole="0.000000 0.000000 0.000000" charge=0
C	-1.997833	-0.908656	-0.119026	6
C	-0.739403	-0.269156	0.354044	6
N	0.504637	-1.031886	0.380774	7
C	0.369287	0.061414	-0.613596	6
C	1.203567	1.274544	-0.394956	6
N	2.077687	1.211564	0.645554	7
O	1.096197	2.254244	-1.118226	8
H	-2.728613	-0.140246	-0.389906	1
H	-2.431103	-1.523506	0.676274	1
H	-1.837033	-1.546876	-0.994446	1
H	-0.906953	0.396674	1.193654	1
H	0.397577	-1.933926	-0.087956	1
H	0.274066	-0.248396	-1.647966	1
H	2.073756	0.389234	1.238524	1
H	2.644167	2.014974	0.877254	1
Es	2.406419	1.680175	0.784057	99
Es	-0.272016	0.094882	-0.238931	99
Es	0.927856	2.328452	-1.376504	99
Es	0.796237	0.649533	-0.487563	99
Es	0.937297	2.008861	-0.726379	99
Es	1.203630	1.274480	-0.394818	99
Es	0.425821	-1.564506	0.097046	99
Es	-0.845655	0.176832	0.920403	99
Es	-0.739172	-0.269263	0.353959	99
Es	1.264471	2.372403	-0.987750	99
Es	0.303616	-0.144085	-1.305136	99
Es	0.504229	-1.031846	0.380309	99
Es	2.077584	1.211608	0.645590	99
Es	-1.873186	-1.336262	-0.706126	99
Es	0.732467	-0.986986	0.649853	99
Es	-2.484723	-0.383053	-0.304789	99
Es	1.096152	2.253883	-1.118059	99
Es	2.101763	1.118870	0.317978	99
Es	-1.997803	-0.908648	-0.119017	99
Es	1.619856	1.313579	0.398236	99
Es	0.565281	-0.586334	-0.109761	99
Es	1.306040	1.838909	-1.040265	99
Es	-1.357403	-0.599262	0.103544	99
Es	2.073925	0.744178	1.012030	99
Es	-2.282510	-1.330426	0.427794	99
Es	-0.080819	-0.813080	0.476866	99
Es	0.369308	0.061256	-0.613380	99
42
Properties=species:S:1:pos:R:3:Z:I:1 energy=-339.99948197154833 field_type=dipole dipole="0.000000 0.000000 0.000000" charge=0
C	-1.997833	-0.908656	-0.119026	6
C	-0.739403	-0.269156	0.354044	6
N	0.504637	-1.031886	0.380774	7
C	0.369287	0.061414	-0.613596	6
C	1.203567	1.274544	-0.394956	6
N	2.077687	1.211564	0.645554	7
O	1.096197	2.254244	-1.118226	8
H	-2.728613	-0.140246	-0.389906	1
H	-2.431103	-1.523506	0.676274	1
H	-1.837033	-1.546876	-0.994446	1
H	-0.906953	0.396674	1.193654	1
H	0.397577	-1.933926	-0.087956	1
H	0.274066	-0.248396	-1.647966	1
H	2.073756	0.389234	1.238524	1
H	2.644167	2.014974	0.877254	1
Es	0.504228	-1.031847	0.380308	99
Es	0.732685	-0.987068	0.650435	99
Es	1.096078	2.253795	-1.118100	99
Es	-0.080822	-0.812633	0.476356	99
Es	1.261452	2.366229	-0.987760	99
Es	0.931901	2.334509	-1.376680	99
Es	2.074265	0.743931	1.011747	99
Es	0.936584	2.009513	-0.726578	99
Es	0.425475	-1.564394	0.096996	99
Es	1.305757	1.838458	-1.039800	99
Es	-0.845459	0.176854	0.920305	99
Es	-1.997803	-0.908647	-0.119017	99
Es	0.796412	0.649613	-0.487766	99
Es	-2.484664	-0.383125	-0.304707	99
Es	2.407003	1.680382	0.783734	99
Es	2.100825	1.118939	0.317198	99
Es	0.565347	-0.586688	-0.109787	99
Es	-1.873251	-1.336182	-0.706196	99
Es	-0.271597	0.094799	-0.238698	99
Es	0.303223	-0.144163	-1.305147	99
Es	2.077457	1.211658	0.645628	99
Es	-2.282673	-1.330515	0.427664	99
Es	1.620058	1.313539	0.399648	99
Es	0.369311	0.061255	-0.613379	99
Es	-1.357589	-0.599278	0.103643	99
Es	-0.739174	-0.269261	0.353960	99
Es	1.203636	1.274476	-0.394823	99
42
Properties=species:S:1:pos:R:3:Z:I:1 energy=-339.99948197154833 field_type=dipole dipole="0.000000 0.000000 0.000000" charge=0
C	-1.997833	-0.908656	-0.119026	6
C	-0.739403	-0.269156	0.354044	6
N	0.504637	-1.031886	0.380774	7
C	0.369287	0.061414	-0.613596	6
C	1.203567	1.274544	-0.394956	6
N	2.077687	1.211564	0.645554	7
O	1.096197	2.254244	-1.118226	8
H	-2.728613	-0.140246	-0.389906	1
H	-2.431103	-1.523506	0.676274	1
H	-1.837033	-1.546876	-0.994446	1
H	-0.906953	0.396674	1.193654	1
H	0.397577	-1.933926	-0.087956	1
H	0.274066	-0.248396	-1.647966	1
H	2.073756	0.389234	1.238524	1
H	2.644167	2.014974	0.877254	1
Es	1.096187	2.253920	-1.118036	99
Es	-2.484725	-0.383249	-0.304715	99
Es	-1.357409	-0.599190	0.103662	99
Es	0.504226	-1.031850	0.380303	99
Es	-0.845508	0.176823	0.920272	99
Es	0.935362	2.009405	-0.727756	99
Es	0.934859	2.337652	-1.377276	99
Es	1.203635	1.274477	-0.394822	99
Es	2.407482	1.680303	0.783453	99
Es	0.796416	0.649599	-0.487745	99
Es	1.306031	1.838385	-1.038915	99
Es	-0.271639	0.094812	-0.238897	99
Es	0.425495	-1.564229	0.096773	99
Es	-1.997803	-0.908648	-0.119017	99
Es	2.100431	1.118781	0.316729	99
Es	-0.739174	-0.269262	0.353959	99
Es	-0.080653	-0.812894	0.475650	99
Es	1.620030	1.313694	0.400412	99
Es	2.077400	1.211677	0.645632	99
Es	0.369312	0.061256	-0.613381	99
Es	2.074247	0.744048	1.011753	99
Es	-2.282690	-1.330416	0.427673	99
Es	1.259345	2.363143	-0.986933	99
Es	0.565243	-0.586517	-0.109614	99
Es	-1.873301	-1.336270	-0.706202	99
Es	0.732531	-0.987172	0.651293	99
Es	0.303338	-0.144126	-1.305069	99
