40
Properties=species:S:1:pos:R:3:Z:I:1 energy=-322.847986545218 field_type=dipole dipole="0.000000 0.000000 0.000000" charge=0
C	-1.515161	0.084679	-0.946682	6
C	-0.012361	0.039319	-0.727182	6
N	0.385669	-1.118301	0.015888	7
C	1.047109	-0.808921	1.176558	6
O	1.527069	-1.585671	1.977008	8
C	1.083439	0.654889	1.274568	6
C	0.479079	1.123909	0.175888	6
H	-1.842841	-0.774201	-1.542612	1
H	-1.805461	0.997939	-1.476842	1
H	-2.065451	0.053209	0.000798	1
H	0.525359	0.045579	-1.680902	1
H	0.296919	-2.077351	-0.289802	1
H	1.535059	1.189879	2.089578	1
H	0.361569	2.175049	-0.046262	1
Es	1.072972	0.877240	0.599950	99
Es	-0.757203	0.070636	-0.828355	99
Es	0.224361	0.606846	-0.291522	99
Es	0.479020	1.123935	0.175772	99
Es	0.259960	-1.071230	0.332725	99
Es	1.047017	-0.808914	1.176406	99
Es	1.526928	-1.585453	1.976773	99
Es	0.514135	0.874244	0.902777	99
Es	0.220001	-0.643252	-0.331430	99
Es	1.484783	-1.886329	1.890940	99
Es	-1.703593	0.708240	-1.309214	99
Es	0.796738	-1.012144	0.332753	99
Es	0.342500	-1.676113	-0.186189	99
Es	-1.727220	-0.500794	-1.353473	99
Es	-1.877833	0.065836	-0.302636	99
Es	0.386051	-1.118214	0.015820	99
Es	1.579487	-1.318401	1.582838	99
Es	1.078350	-0.064264	1.254289	99
Es	1.083461	0.654829	1.274616	99
Es	1.383837	1.011443	1.819754	99
Es	0.389664	1.830766	0.011275	99
Es	0.350749	0.056804	-1.369237	99
Es	1.659904	-1.435902	2.212759	99
Es	-1.515116	0.084684	-0.946690	99
Es	1.150111	-1.330078	1.832164	99
Es	-0.012336	0.039212	-0.727060	99
40
Properties=species:S:1:pos:R:3:Z:I:1 energy=-322.847986545218 field_type=dipole dipole="0.000000 0.000000 0.000000" charge=0
C	-1.515161	0.084679	-0.946682	6
C	-0.012361	0.039319	-0.727182	6
N	0.385669	-1.118301	0.015888	7
C	1.047109	-0.808921	1.176558	6
O	1.527069	-1.585671	1.977008	8
C	1.083439	0.654889	1.274568	6
C	0.479079	1.123909	0.175888	6
H	-1.842841	-0.774201	-1.542612	1
H	-1.805461	0.997939	-1.476842	1
H	-2.065451	0.053209	0.000798	1
H	0.525359	0.045579	-1.680902	1
H	0.296919	-2.077351	-0.289802	1
H	1.535059	1.189879	2.089578	1
H	0.361569	2.175049	-0.046262	1
Es	1.150255	-1.331709	1.831459	99
Es	0.386608	-1.118154	0.015754	99
Es	1.383252	1.010052	1.820318	99
Es	0.479014	1.123935	0.175778	99
Es	0.512973	0.873659	0.903743	99
Es	0.224100	0.606178	-0.291993	99
Es	1.077228	-0.063989	1.253805	99
Es	1.047025	-0.808915	1.176409	99
Es	-0.012336	0.039212	-0.727060	99
Es	0.217285	-0.638919	-0.331915	99
Es	0.351072	0.058501	-1.369613	99
Es	-1.515120	0.084684	-0.946691	99
Es	-1.705346	0.710242	-1.312400	99
Es	1.473684	-1.862973	1.875261	99
Es	1.083456	0.654827	1.274612	99
Es	0.389343	1.830908	0.009760	99
Es	0.349252	-1.676142	-0.184412	99
Es	-1.725126	-0.498626	-1.350132	99
Es	1.074988	0.876735	0.599009	99
Es	0.305883	-1.085540	0.210365	99
Es	-0.757367	0.070170	-0.828286	99
Es	0.747156	-1.002384	0.455752	99
Es	1.581791	-1.319093	1.580193	99
Es	1.526933	-1.585446	1.976781	99
Es	1.668449	-1.457094	2.232139	99
Es	-1.877723	0.063512	-0.302829	99
40
Properties=species:S:1:pos:R:3:Z:I:1 energy=-322.847986545218 field_type=dipole dipole="0.000000 0.000000 0.000000" charge=0
C	-1.515161	0.084679	-0.946682	6
C	-0.012361	0.039319	-0.727182	6
N	0.385669	-1.118301	0.015888	7
C	1.047109	-0.808921	1.176558	6
O	1.527069	-1.585671	1.977008	8
C	1.083439	0.654889	1.274568	6
C	0.479079	1.123909	0.175888	6
H	-1.842841	-0.774201	-1.542612	1
H	-1.805461	0.997939	-1.476842	1
H	-2.065451	0.053209	0.000798	1
H	0.525359	0.045579	-1.680902	1
H	0.296919	-2.077351	-0.289802	1
H	1.535059	1.189879	2.089578	1
H	0.361569	2.175049	-0.046262	1
Es	0.386354	-1.118200	0.015668	99
Es	1.150334	-1.328500	1.832016	99
Es	-0.757696	0.070108	-0.828364	99
Es	0.210335	-0.638344	-0.329543	99
Es	-1.723665	-0.496688	-1.347400	99
Es	0.512200	0.873180	0.903989	99
Es	1.526938	-1.585404	1.976790	99
Es	0.708100	-1.002862	0.496548	99
Es	0.479017	1.123937	0.175773	99
Es	1.676742	-1.492989	2.247163	99
Es	-1.515122	0.084684	-0.946691	99
Es	1.076978	-0.064361	1.253740	99
Es	0.224296	0.605521	-0.291953	99
Es	0.360532	-1.084518	0.163711	99
Es	-1.706847	0.710823	-1.314754	99
Es	0.388621	1.831236	0.008591	99
Es	1.047019	-0.808913	1.176406	99
Es	-1.877717	0.062120	-0.303475	99
Es	1.075618	0.876359	0.598525	99
Es	1.584828	-1.318407	1.581839	99
Es	1.383299	1.009457	1.820050	99
Es	1.462445	-1.831131	1.858062	99
Es	0.351413	0.059559	-1.369033	99
Es	-0.012337	0.039213	-0.727061	99
Es	0.341585	-1.677081	-0.179408	99
Es	1.083459	0.654830	1.274614	99
40
Properties=species:S:1:pos:R:3:Z:I:1 energy=-322.847986545218 field_type=dipole dipole="0.000000 0.000000 0.000000" charge=0
C	-1.515161	0.084679	-0.946682	6
C	-0.012361	0.039319	-0.727182	6
N	0.385669	-1.118301	0.015888	7
C	1.047109	-0.808921	1.176558	6
O	1.527069	-1.585671	1.977008	8
C	1.083439	0.654889	1.274568	6
C	0.479079	1.123909	0.175888	6
H	-1.842841	-0.774201	-1.542612	1
H	-1.805461	0.997939	-1.476842	1
H	-2.065451	0.053209	0.000798	1
H	0.525359	0.045579	-1.680902	1
H	0.296919	-2.077351	-0.289802	1
H	1.535059	1.189879	2.089578	1
H	0.361569	2.175049	-0.046262	1
Es	1.456639	-1.789603	1.846537	99
Es	1.076877	-0.064756	1.253381	99
Es	1.383614	1.009342	1.820111	99
Es	0.512639	0.873233	0.903562	99
Es	1.152376	-1.331525	1.838838	99
Es	0.395042	-1.082661	0.142499	99
Es	0.205332	-0.638703	-0.327639	99
Es	0.388192	1.831599	0.008122	99
Es	1.083461	0.654828	1.274609	99
Es	-1.723191	-0.496264	-1.346154	99
Es	1.047020	-0.808914	1.176405	99
Es	1.684085	-1.537910	2.254412	99
Es	1.526944	-1.585345	1.976807	99
Es	0.351116	0.059767	-1.368320	99
Es	-0.012337	0.039213	-0.727060	99
Es	0.334037	-1.677380	-0.175304	99
Es	1.581192	-1.312151	1.579292	99
Es	0.479017	1.123937	0.175772	99
Es	0.385330	-1.118263	0.016110	99
Es	-1.877181	0.061651	-0.304381	99
Es	-1.515117	0.084684	-0.946692	99
Es	1.075014	0.875989	0.598880	99
Es	-1.707683	0.711330	-1.315611	99
Es	0.687549	-1.004069	0.511848	99
Es	-0.757750	0.069918	-0.828463	99
Es	0.224509	0.605684	-0.291753	99
40
Properties=species:S:1:pos:R:3:Z:I:1 energy=-322.847986545218 field_type=dipole dipole="0.000000 0.000000 0.000000" charge=0
C	-1.515161	0.084679	-0.946682	6
C	-0.012361	0.039319	-0.727182	6
N	0.385669	-1.118301	0.015888	7
C	1.047109	-0.808921	1.176558	6
O	1.527069	-1.585671	1.977008	8
C	1.083439	0.654889	1.274568	6
C	0.479079	1.123909	0.175888	6
H	-1.842841	-0.774201	-1.542612	1
H	-1.805461	0.997939	-1.476842	1
H	-2.065451	0.053209	0.000798	1
H	0.525359	0.045579	-1.680902	1
H	0.296919	-2.077351	-0.289802	1
H	1.535059	1.189879	2.089578	1
H	0.361569	2.175049	-0.046262	1
Es	-1.722788	-0.496285	-1.345110	99
Es	1.074369	0.875895	0.599242	99
Es	0.330050	-1.676715	-0.173112	99
Es	0.680018	-1.005058	0.516939	99
Es	0.387962	1.831835	0.007944	99
Es	0.479017	1.123936	0.175773	99
Es	1.076717	-0.065061	1.253169	99
Es	0.409025	-1.081899	0.134792	99
Es	0.385879	-1.118253	0.015785	99
Es	-1.876616	0.061601	-0.305073	99
Es	0.224524	0.605856	-0.291802	99
Es	0.513416	0.873108	0.903042	99
Es	0.350645	0.059786	-1.367999	99
Es	1.152127	-1.331325	1.835889	99
Es	-0.757773	0.069727	-0.828303	99
Es	1.456180	-1.765130	1.845792	99
Es	0.202606	-0.639189	-0.326521	99
Es	-1.515117	0.084683	-0.946692	99
Es	-0.012337	0.039211	-0.727060	99
Es	-1.708251	0.711588	-1.316455	99
Es	1.047018	-0.808913	1.176405	99
Es	1.383641	1.009493	1.820330	99
Es	1.526854	-1.585052	1.976658	99
Es	1.683590	-1.561607	2.257003	99
Es	1.083462	0.654827	1.274609	99
Es	1.582509	-1.313430	1.580559	99
40
Properties=species:S:1:pos:R:3:Z:I:1 energy=-322.847986545218 field_type=dipole dipole="0.000000 0.000000 0.000000" charge=0
C	-1.515161	0.084679	-0.946682	6
C	-0.012361	0.039319	-0.727182	6
N	0.385669	-1.118301	0.015888	7
C	1.047109	-0.808921	1.176558	6
O	1.527069	-1.585671	1.977008	8
C	1.083439	0.654889	1.274568	6
C	0.479079	1.123909	0.175888	6
H	-1.842841	-0.774201	-1.542612	1
H	-1.805461	0.997939	-1.476842	1
H	-2.065451	0.053209	0.000798	1
H	0.525359	0.045579	-1.680902	1
H	0.296919	-2.077351	-0.289802	1
H	1.535059	1.189879	2.089578	1
H	0.361569	2.175049	-0.046262	1
Es	-0.012336	0.039211	-0.727060	99
Es	0.513925	0.873113	0.902653	99
Es	1.047017	-0.808913	1.176406	99
Es	1.155834	-1.333193	1.839581	99
Es	0.385777	-1.118260	0.015828	99
Es	0.676254	-1.005840	0.519456	99
Es	1.454612	-1.752195	1.846775	99
Es	0.201998	-0.639743	-0.326612	99
Es	-1.515123	0.084681	-0.946694	99
Es	1.076544	-0.065139	1.252764	99
Es	0.479016	1.123937	0.175773	99
Es	1.577877	-1.312217	1.576717	99
Es	1.686018	-1.573711	2.256135	99
Es	1.083458	0.654829	1.274613	99
Es	-1.708835	0.711804	-1.317095	99
Es	-0.757915	0.069581	-0.828368	99
Es	1.383882	1.009437	1.820674	99
Es	0.350416	0.059776	-1.367143	99
Es	-1.876114	0.061548	-0.306105	99
Es	0.329584	-1.675588	-0.172472	99
Es	0.414148	-1.081667	0.132004	99
Es	-1.722525	-0.496174	-1.344138	99
Es	1.073907	0.875694	0.599536	99
Es	0.224771	0.605962	-0.291787	99
Es	1.526891	-1.585256	1.976713	99
Es	0.387645	1.831951	0.007653	99
40
Properties=species:S:1:pos:R:3:Z:I:1 energy=-322.847986545218 field_type=dipole dipole="0.000000 0.000000 0.000000" charge=0
C	-1.515161	0.084679	-0.946682	6
C	-0.012361	0.039319	-0.727182	6
N	0.385669	-1.118301	0.015888	7
C	1.047109	-0.808921	1.176558	6
O	1.527069	-1.585671	1.977008	8
C	1.083439	0.654889	1.274568	6
C	0.479079	1.123909	0.175888	6
H	-1.842841	-0.774201	-1.542612	1
H	-1.805461	0.997939	-1.476842	1
H	-2.065451	0.053209	0.000798	1
H	0.525359	0.045579	-1.680902	1
H	0.296919	-2.077351	-0.289802	1
H	1.535059	1.189879	2.089578	1
H	0.361569	2.175049	-0.046262	1
Es	1.686182	-1.588295	2.255182	99
Es	0.201075	-0.640198	-0.326458	99
Es	0.514407	0.872902	0.902413	99
Es	0.675592	-1.006121	0.519906	99
Es	-1.709104	0.711999	-1.317407	99
Es	1.076560	-0.065223	1.252400	99
Es	1.073205	0.875812	0.599971	99
Es	0.386431	-1.118192	0.015650	99
Es	-1.876020	0.061455	-0.307301	99
Es	0.414935	-1.081677	0.131376	99
Es	1.384060	1.009513	1.821036	99
Es	0.479018	1.123935	0.175772	99
Es	1.454950	-1.736930	1.847929	99
Es	-1.722220	-0.496208	-1.343729	99
Es	-1.515117	0.084684	-0.946692	99
Es	-0.012336	0.039214	-0.727059	99
Es	1.526955	-1.585295	1.976819	99
Es	0.350301	0.059744	-1.366271	99
Es	0.329817	-1.674805	-0.172177	99
Es	-0.757962	0.069396	-0.828165	99
Es	0.387609	1.832023	0.007607	99
Es	1.572528	-1.308436	1.572956	99
Es	1.160625	-1.337595	1.843049	99
Es	1.047018	-0.808913	1.176405	99
Es	0.224762	0.606012	-0.292024	99
Es	1.083460	0.654829	1.274616	99
40
Properties=species:S:1:pos:R:3:Z:I:1 energy=-322.847986545218 field_type=dipole dipole="0.000000 0.000000 0.000000" charge=0
C	-1.515161	0.084679	-0.946682	6
C	-0.012361	0.039319	-0.727182	6
N	0.385669	-1.118301	0.015888	7
C	1.047109	-0.808921	1.176558	6
O	1.527069	-1.585671	1.977008	8
C	1.083439	0.654889	1.274568	6
C	0.479079	1.123909	0.175888	6
H	-1.842841	-0.774201	-1.542612	1
H	-1.805461	0.997939	-1.476842	1
H	-2.065451	0.053209	0.000798	1
H	0.525359	0.045579	-1.680902	1
H	0.296919	-2.077351	-0.289802	1
H	1.535059	1.189879	2.089578	1
H	0.361569	2.175049	-0.046262	1
Es	0.329005	-1.674133	-0.171718	99
Es	0.479017	1.123938	0.175771	99
Es	1.047020	-0.808913	1.176404	99
Es	1.526948	-1.585282	1.976823	99
Es	1.384302	1.009514	1.821154	99
Es	0.199448	-0.640429	-0.325719	99
Es	-1.722200	-0.496235	-1.343313	99
Es	-1.515119	0.084681	-0.946694	99
Es	0.420642	-1.081379	0.128488	99
Es	1.689052	-1.596751	2.252591	99
Es	1.556893	-1.301455	1.564194	99
Es	0.387247	1.832047	0.007654	99
Es	0.350210	0.059692	-1.365378	99
Es	1.172531	-1.347543	1.851128	99
Es	-0.012338	0.039211	-0.727058	99
Es	-1.875657	0.061479	-0.307934	99
Es	1.073081	0.875391	0.600232	99
Es	1.076881	-0.065115	1.252099	99
Es	0.514308	0.873012	0.902141	99
Es	1.083457	0.654827	1.274613	99
Es	0.385334	-1.118263	0.016106	99
Es	-1.709557	0.712034	-1.317531	99
Es	0.224765	0.606340	-0.291970	99
Es	1.455844	-1.725539	1.851169	99
Es	-0.757972	0.069221	-0.828662	99
Es	0.673586	-1.006722	0.521215	99
40
Properties=species:S:1:pos:R:3:Z:I:1 energy=-322.847986545218 field_type=dipole dipole="0.000000 0.000000 0.000000" charge=0
C	-1.515161	0.084679	-0.946682	6
C	-0.012361	0.039319	-0.727182	6
N	0.385669	-1.118301	0.015888	7
C	1.047109	-0.808921	1.176558	6
O	1.527069	-1.585671	1.977008	8
C	1.083439	0.654889	1.274568	6
C	0.479079	1.123909	0.175888	6
H	-1.842841	-0.774201	-1.542612	1
H	-1.805461	0.997939	-1.476842	1
H	-2.065451	0.053209	0.000798	1
H	0.525359	0.045579	-1.680902	1
H	0.296919	-2.077351	-0.289802	1
H	1.535059	1.189879	2.089578	1
H	0.361569	2.175049	-0.046262	1
Es	0.350240	0.059776	-1.365601	99
Es	0.513930	0.873703	0.902025	99
Es	0.414057	-1.081782	0.132099	99
Es	0.479016	1.123931	0.175771	99
Es	-0.757836	0.069298	-0.828171	99
Es	-1.722074	-0.495696	-1.343020	99
Es	0.198864	-0.640569	-0.325579	99
Es	1.073472	0.874810	0.600413	99
Es	0.332027	-1.673378	-0.173050	99
Es	1.047018	-0.808913	1.176405	99
Es	0.224770	0.606014	-0.292012	99
Es	0.385675	-1.118264	0.015878	99
Es	1.528859	-1.289608	1.558823	99
Es	1.384512	1.009208	1.821208	99
Es	0.386889	1.831922	0.007673	99
Es	1.083458	0.654827	1.274612	99
Es	-1.875942	0.061366	-0.308084	99
Es	1.692272	-1.601797	2.249959	99
Es	1.457583	-1.718503	1.852628	99
Es	1.526950	-1.585285	1.976824	99
Es	0.677453	-1.006787	0.519070	99
Es	-1.515119	0.084684	-0.946693	99
Es	-1.709746	0.711762	-1.317807	99
Es	1.077148	-0.064925	1.251826	99
Es	1.195586	-1.361380	1.857668	99
Es	-0.012335	0.039216	-0.727058	99
40
Properties=species:S:1:pos:R:3:Z:I:1 energy=-322.847986545218 field_type=dipole dipole="0.000000 0.000000 0.000000" charge=0
C	-1.515161	0.084679	-0.946682	6
C	-0.012361	0.039319	-0.727182	6
N	0.385669	-1.118301	0.015888	7
C	1.047109	-0.808921	1.176558	6
O	1.527069	-1.585671	1.977008	8
C	1.083439	0.654889	1.274568	6
C	0.479079	1.123909	0.175888	6
H	-1.842841	-0.774201	-1.542612	1
H	-1.805461	0.997939	-1.476842	1
H	-2.065451	0.053209	0.000798	1
H	0.525359	0.045579	-1.680902	1
H	0.296919	-2.077351	-0.289802	1
H	1.535059	1.189879	2.089578	1
H	0.361569	2.175049	-0.046262	1
Es	0.414424	-1.081779	0.131941	99
Es	0.386812	1.831933	0.007534	99
Es	1.073503	0.874432	0.600397	99
Es	1.384634	1.009143	1.821234	99
Es	1.207420	-1.366391	1.858254	99
Es	0.224801	0.605878	-0.292139	99
Es	-1.875916	0.061262	-0.308443	99
Es	0.350246	0.059857	-1.365268	99
Es	1.693017	-1.603553	2.249324	99
Es	-1.515120	0.084683	-0.946692	99
Es	-0.757846	0.069253	-0.828173	99
Es	1.077188	-0.064784	1.251781	99
Es	0.332384	-1.672949	-0.173142	99
Es	1.458384	-1.714011	1.854851	99
Es	1.083451	0.654827	1.274616	99
Es	0.513742	0.873814	0.901960	99
Es	-1.721959	-0.495319	-1.342608	99
Es	0.479014	1.123934	0.175774	99
Es	0.677136	-1.007033	0.519352	99
Es	0.198579	-0.640617	-0.325318	99
Es	1.526956	-1.585282	1.976828	99
Es	1.515472	-1.287361	1.556636	99
Es	-1.710043	0.711656	-1.318066	99
Es	-0.012337	0.039212	-0.727059	99
Es	1.047017	-0.808914	1.176405	99
Es	0.385770	-1.118263	0.015829	99
40
Properties=species:S:1:pos:R:3:Z:I:1 energy=-322.847986545218 field_type=dipole dipole="0.000000 0.000000 0.000000" charge=0
C	-1.515161	0.084679	-0.946682	6
C	-0.012361	0.039319	-0.727182	6
N	0.385669	-1.118301	0.015888	7
C	1.047109	-0.808921	1.176558	6
O	1.527069	-1.585671	1.977008	8
C	1.083439	0.654889	1.274568	6
C	0.479079	1.123909	0.175888	6
H	-1.842841	-0.774201	-1.542612	1
H	-1.805461	0.997939	-1.476842	1
H	-2.065451	0.053209	0.000798	1
H	0.525359	0.045579	-1.680902	1
H	0.296919	-2.077351	-0.289802	1
H	1.535059	1.189879	2.089578	1
H	0.361569	2.175049	-0.046262	1
Es	0.224781	0.605844	-0.292113	99
Es	-0.012337	0.039213	-0.727059	99
Es	1.047019	-0.808913	1.176403	99
Es	1.692168	-1.609715	2.248688	99
Es	0.415026	-1.081782	0.131492	99
Es	0.332927	-1.672454	-0.173356	99
Es	1.512053	-1.288287	1.555282	99
Es	-1.710210	0.711647	-1.318329	99
Es	1.077245	-0.064823	1.251526	99
Es	0.385773	-1.118260	0.015830	99
Es	-1.721845	-0.495370	-1.342273	99
Es	1.384722	1.009163	1.821411	99
Es	-1.875811	0.061371	-0.309279	99
Es	1.526933	-1.585411	1.976767	99
Es	0.676383	-1.007400	0.519840	99
Es	1.073084	0.875143	0.600472	99
Es	-1.515121	0.084685	-0.946692	99
Es	0.198098	-0.640722	-0.325171	99
Es	0.386799	1.831933	0.007463	99
Es	-0.757935	0.069112	-0.828165	99
Es	0.479017	1.123936	0.175773	99
Es	0.514040	0.873164	0.902100	99
Es	1.211800	-1.366710	1.857892	99
Es	1.083450	0.654824	1.274612	99
Es	1.458302	-1.706450	1.857271	99
Es	0.350367	0.059892	-1.364578	99
40
Properties=species:S:1:pos:R:3:Z:I:1 energy=-322.847986545218 field_type=dipole dipole="0.000000 0.000000 0.000000" charge=0
C	-1.515161	0.084679	-0.946682	6
C	-0.012361	0.039319	-0.727182	6
N	0.385669	-1.118301	0.015888	7
C	1.047109	-0.808921	1.176558	6
O	1.527069	-1.585671	1.977008	8
C	1.083439	0.654889	1.274568	6
C	0.479079	1.123909	0.175888	6
H	-1.842841	-0.774201	-1.542612	1
H	-1.805461	0.997939	-1.476842	1
H	-2.065451	0.053209	0.000798	1
H	0.525359	0.045579	-1.680902	1
H	0.296919	-2.077351	-0.289802	1
H	1.535059	1.189879	2.089578	1
H	0.361569	2.175049	-0.046262	1
Es	1.077280	-0.064490	1.251486	99
Es	-0.757810	0.069116	-0.828188	99
Es	0.417024	-1.081644	0.130388	99
Es	1.495697	-1.284390	1.555618	99
Es	-1.515117	0.084683	-0.946693	99
Es	0.513538	0.873417	0.902102	99
Es	-1.721838	-0.494944	-1.342057	99
Es	0.675324	-1.007484	0.520463	99
Es	1.526946	-1.585192	1.976810	99
Es	-0.012338	0.039212	-0.727059	99
Es	0.350433	0.059953	-1.364768	99
Es	-1.875968	0.061318	-0.309037	99
Es	1.458937	-1.702933	1.858431	99
Es	1.047016	-0.808914	1.176406	99
Es	-1.710313	0.711420	-1.318512	99
Es	0.386151	-1.118234	0.015693	99
Es	0.386610	1.831850	0.007449	99
Es	0.332047	-1.672337	-0.172773	99
Es	1.693229	-1.612307	2.247419	99
Es	1.226472	-1.371746	1.857609	99
Es	1.083459	0.654828	1.274612	99
Es	1.073561	0.874751	0.600359	99
Es	0.224820	0.605680	-0.292174	99
Es	0.479015	1.123935	0.175774	99
Es	1.384798	1.008875	1.821506	99
Es	0.197756	-0.640797	-0.325059	99
40
Properties=species:S:1:pos:R:3:Z:I:1 energy=-322.847986545218 field_type=dipole dipole="0.000000 0.000000 0.000000" charge=0
C	-1.515161	0.084679	-0.946682	6
C	-0.012361	0.039319	-0.727182	6
N	0.385669	-1.118301	0.015888	7
C	1.047109	-0.808921	1.176558	6
O	1.527069	-1.585671	1.977008	8
C	1.083439	0.654889	1.274568	6
C	0.479079	1.123909	0.175888	6
H	-1.842841	-0.774201	-1.542612	1
H	-1.805461	0.997939	-1.476842	1
H	-2.065451	0.053209	0.000798	1
H	0.525359	0.045579	-1.680902	1
H	0.296919	-2.077351	-0.289802	1
H	1.535059	1.189879	2.089578	1
H	0.361569	2.175049	-0.046262	1
Es	0.479019	1.123936	0.175771	99
Es	1.460274	-1.705932	1.857331	99
Es	1.383440	1.008648	1.822197	99
Es	1.047019	-0.808914	1.176404	99
Es	-1.709316	0.710852	-1.319690	99
Es	1.526949	-1.585179	1.976833	99
Es	1.189325	-1.282835	1.719228	99
Es	1.666713	-1.608389	2.262708	99
Es	0.321497	-1.672136	-0.167129	99
Es	0.224511	0.605093	-0.292045	99
Es	-1.876679	0.060474	-0.304967	99
Es	0.388431	1.831699	0.006035	99
Es	1.074414	-0.064343	1.253142	99
Es	0.514633	0.871523	0.903163	99
Es	-1.720532	-0.493775	-1.342087	99
Es	0.350568	0.060510	-1.368175	99
Es	-0.757932	0.069421	-0.828400	99
Es	0.663409	-1.008414	0.526962	99
Es	-0.012337	0.039213	-0.727059	99
Es	1.083454	0.654824	1.274611	99
Es	1.557770	-1.374280	1.679896	99
Es	-1.515119	0.084684	-0.946692	99
Es	0.432338	-1.080808	0.122326	99
Es	0.385467	-1.118269	0.016004	99
Es	1.074072	0.876526	0.598329	99
Es	0.205341	-0.640499	-0.328889	99
40
Properties=species:S:1:pos:R:3:Z:I:1 energy=-322.847986545218 field_type=dipole dipole="0.000000 0.000000 0.000000" charge=0
C	-1.515161	0.084679	-0.946682	6
C	-0.012361	0.039319	-0.727182	6
N	0.385669	-1.118301	0.015888	7
C	1.047109	-0.808921	1.176558	6
O	1.527069	-1.585671	1.977008	8
C	1.083439	0.654889	1.274568	6
C	0.479079	1.123909	0.175888	6
H	-1.842841	-0.774201	-1.542612	1
H	-1.805461	0.997939	-1.476842	1
H	-2.065451	0.053209	0.000798	1
H	0.525359	0.045579	-1.680902	1
H	0.296919	-2.077351	-0.289802	1
H	1.535059	1.189879	2.089578	1
H	0.361569	2.175049	-0.046262	1
Es	1.074330	0.876020	0.598427	99
Es	-1.515118	0.084684	-0.946692	99
Es	1.195601	-1.281177	1.711727	99
Es	0.428891	-1.080889	0.123960	99
Es	0.479020	1.123935	0.175771	99
Es	1.526948	-1.585331	1.976811	99
Es	0.205550	-0.640670	-0.329237	99
Es	0.224420	0.605202	-0.292131	99
Es	1.665479	-1.614886	2.261848	99
Es	0.350523	0.060399	-1.368457	99
Es	-0.757791	0.069397	-0.828271	99
Es	0.322036	-1.671929	-0.167310	99
Es	0.514460	0.872006	0.903089	99
Es	1.047020	-0.808913	1.176403	99
Es	1.383480	1.008557	1.822374	99
Es	-1.720487	-0.493779	-1.341977	99
Es	1.460982	-1.698354	1.859204	99
Es	0.666095	-1.008346	0.525611	99
Es	0.388502	1.831646	0.006200	99
Es	-0.012337	0.039209	-0.727061	99
Es	-1.876660	0.060529	-0.304897	99
Es	1.551977	-1.376856	1.686425	99
Es	1.083457	0.654826	1.274612	99
Es	0.385322	-1.118265	0.016129	99
Es	-1.709350	0.710762	-1.319820	99
Es	1.074381	-0.064148	1.253065	99
40
Properties=species:S:1:pos:R:3:Z:I:1 energy=-322.847986545218 field_type=dipole dipole="0.000000 0.000000 0.000000" charge=0
C	-1.515161	0.084679	-0.946682	6
C	-0.012361	0.039319	-0.727182	6
N	0.385669	-1.118301	0.015888	7
C	1.047109	-0.808921	1.176558	6
O	1.527069	-1.585671	1.977008	8
C	1.083439	0.654889	1.274568	6
C	0.479079	1.123909	0.175888	6
H	-1.842841	-0.774201	-1.542612	1
H	-1.805461	0.997939	-1.476842	1
H	-2.065451	0.053209	0.000798	1
H	0.525359	0.045579	-1.680902	1
H	0.296919	-2.077351	-0.289802	1
H	1.535059	1.189879	2.089578	1
H	0.361569	2.175049	-0.046262	1
Es	1.548765	-1.377110	1.689673	99
Es	-1.876561	0.060482	-0.304865	99
Es	1.383523	1.008584	1.822353	99
Es	-0.012337	0.039211	-0.727059	99
Es	1.665896	-1.616141	2.261414	99
Es	-0.757922	0.069415	-0.828588	99
Es	1.047020	-0.808914	1.176403	99
Es	0.384435	-1.118043	0.017490	99
Es	0.663361	-1.008545	0.527055	99
Es	1.526840	-1.585571	1.976652	99
Es	1.083455	0.654827	1.274611	99
Es	0.350486	0.060370	-1.368163	99
Es	0.205181	-0.640723	-0.329035	99
Es	1.073823	0.877196	0.598222	99
Es	0.432886	-1.081023	0.121008	99
Es	0.322094	-1.671727	-0.167276	99
Es	1.196902	-1.282540	1.708036	99
Es	-1.515118	0.084684	-0.946693	99
Es	-1.709495	0.710685	-1.319994	99
Es	1.074509	-0.064172	1.253005	99
Es	-1.720356	-0.493689	-1.341787	99
Es	0.224544	0.605312	-0.292123	99
Es	0.388439	1.831670	0.006085	99
Es	0.514737	0.870691	0.903370	99
Es	1.462603	-1.695235	1.860239	99
Es	0.479019	1.123936	0.175772	99
40
Properties=species:S:1:pos:R:3:Z:I:1 energy=-322.847986545218 field_type=dipole dipole="0.000000 0.000000 0.000000" charge=0
C	-1.515161	0.084679	-0.946682	6
C	-0.012361	0.039319	-0.727182	6
N	0.385669	-1.118301	0.015888	7
C	1.047109	-0.808921	1.176558	6
O	1.527069	-1.585671	1.977008	8
C	1.083439	0.654889	1.274568	6
C	0.479079	1.123909	0.175888	6
H	-1.842841	-0.774201	-1.542612	1
H	-1.805461	0.997939	-1.476842	1
H	-2.065451	0.053209	0.000798	1
H	0.525359	0.045579	-1.680902	1
H	0.296919	-2.077351	-0.289802	1
H	1.535059	1.189879	2.089578	1
H	0.361569	2.175049	-0.046262	1
Es	1.077179	-0.064129	1.251296	99
Es	-1.515119	0.084684	-0.946692	99
Es	1.384999	1.008450	1.821793	99
Es	1.463226	-1.278750	1.559368	99
Es	1.692793	-1.616880	2.246778	99
Es	0.224665	0.605215	-0.292101	99
Es	-1.721268	-0.493990	-1.341391	99
Es	0.386362	1.831644	0.006992	99
Es	-1.710746	0.710914	-1.319222	99
Es	1.257295	-1.380473	1.852146	99
Es	0.350850	0.060278	-1.364345	99
Es	1.526955	-1.585325	1.976808	99
Es	0.385219	-1.118256	0.016235	99
Es	1.083458	0.654827	1.274611	99
Es	0.479016	1.123933	0.175772	99
Es	0.333128	-1.670825	-0.172851	99
Es	1.461029	-1.695174	1.860758	99
Es	-0.757885	0.069134	-0.828800	99
Es	-0.012338	0.039211	-0.727058	99
Es	0.513166	0.873352	0.902331	99
Es	1.073903	0.874729	0.600133	99
Es	0.418074	-1.081673	0.129742	99
Es	0.197875	-0.641017	-0.325347	99
Es	-1.876267	0.060950	-0.308848	99
Es	0.674142	-1.008287	0.521294	99
Es	1.047018	-0.808914	1.176404	99
40
Properties=species:S:1:pos:R:3:Z:I:1 energy=-322.847986545218 field_type=dipole dipole="0.000000 0.000000 0.000000" charge=0
C	-1.515161	0.084679	-0.946682	6
C	-0.012361	0.039319	-0.727182	6
N	0.385669	-1.118301	0.015888	7
C	1.047109	-0.808921	1.176558	6
O	1.527069	-1.585671	1.977008	8
C	1.083439	0.654889	1.274568	6
C	0.479079	1.123909	0.175888	6
H	-1.842841	-0.774201	-1.542612	1
H	-1.805461	0.997939	-1.476842	1
H	-2.065451	0.053209	0.000798	1
H	0.525359	0.045579	-1.680902	1
H	0.296919	-2.077351	-0.289802	1
H	1.535059	1.189879	2.089578	1
H	0.361569	2.175049	-0.046262	1
Es	-0.012337	0.039211	-0.727060	99
Es	0.386446	1.831607	0.007048	99
Es	1.384968	1.008339	1.821759	99
Es	1.083456	0.654827	1.274613	99
Es	0.675627	-1.008274	0.520444	99
Es	0.332967	-1.670928	-0.172906	99
Es	-1.721117	-0.493424	-1.341284	99
Es	1.074141	0.875038	0.599842	99
Es	0.512816	0.872928	0.902636	99
Es	1.077257	-0.063982	1.251354	99
Es	1.461624	-1.693625	1.861479	99
Es	-1.515124	0.084683	-0.946690	99
Es	-1.876584	0.060733	-0.308331	99
Es	1.693229	-1.617489	2.246359	99
Es	0.198551	-0.640769	-0.325491	99
Es	1.047019	-0.808914	1.176404	99
Es	0.224601	0.605028	-0.292261	99
Es	0.385794	-1.118260	0.015818	99
Es	0.350927	0.060350	-1.364919	99
Es	0.479016	1.123936	0.175773	99
Es	-0.757846	0.069109	-0.828622	99
Es	1.269490	-1.383237	1.849414	99
Es	0.415551	-1.081732	0.131237	99
Es	1.526934	-1.585147	1.976809	99
Es	-1.710655	0.710740	-1.319427	99
Es	1.449978	-1.277119	1.561807	99
40
Properties=species:S:1:pos:R:3:Z:I:1 energy=-322.847986545218 field_type=dipole dipole="0.000000 0.000000 0.000000" charge=0
C	-1.515161	0.084679	-0.946682	6
C	-0.012361	0.039319	-0.727182	6
N	0.385669	-1.118301	0.015888	7
C	1.047109	-0.808921	1.176558	6
O	1.527069	-1.585671	1.977008	8
C	1.083439	0.654889	1.274568	6
C	0.479079	1.123909	0.175888	6
H	-1.842841	-0.774201	-1.542612	1
H	-1.805461	0.997939	-1.476842	1
H	-2.065451	0.053209	0.000798	1
H	0.525359	0.045579	-1.680902	1
H	0.296919	-2.077351	-0.289802	1
H	1.535059	1.189879	2.089578	1
H	0.361569	2.175049	-0.046262	1
Es	0.323443	-1.671411	-0.167879	99
Es	-1.709606	0.710326	-1.320263	99
Es	1.215551	-1.279465	1.687697	99
Es	0.205517	-0.640666	-0.329195	99
Es	0.350718	0.060632	-1.368673	99
Es	-0.012337	0.039211	-0.727060	99
Es	1.528831	-1.382109	1.709095	99
Es	-1.876897	0.060364	-0.304665	99
Es	1.074537	-0.063794	1.253054	99
Es	1.047016	-0.808914	1.176404	99
Es	0.667027	-1.008542	0.525183	99
Es	1.665476	-1.620814	2.260506	99
Es	1.464198	-1.689001	1.861832	99
Es	0.388394	1.831500	0.005987	99
Es	0.514138	0.871217	0.903531	99
Es	1.383616	1.008304	1.822413	99
Es	1.074475	0.876675	0.598000	99
Es	0.479017	1.123934	0.175772	99
Es	1.083454	0.654827	1.274613	99
Es	0.386221	-1.118219	0.015685	99
Es	0.224318	0.604656	-0.292234	99
Es	0.425833	-1.080963	0.125567	99
Es	-1.515120	0.084684	-0.946692	99
Es	-1.720273	-0.493056	-1.341510	99
Es	-0.757780	0.069501	-0.828200	99
Es	1.526958	-1.585249	1.976836	99
40
Properties=species:S:1:pos:R:3:Z:I:1 energy=-322.847986545218 field_type=dipole dipole="0.000000 0.000000 0.000000" charge=0
C	-1.515161	0.084679	-0.946682	6
C	-0.012361	0.039319	-0.727182	6
N	0.385669	-1.118301	0.015888	7
C	1.047109	-0.808921	1.176558	6
O	1.527069	-1.585671	1.977008	8
C	1.083439	0.654889	1.274568	6
C	0.479079	1.123909	0.175888	6
H	-1.842841	-0.774201	-1.542612	1
H	-1.805461	0.997939	-1.476842	1
H	-2.065451	0.053209	0.000798	1
H	0.525359	0.045579	-1.680902	1
H	0.296919	-2.077351	-0.289802	1
H	1.535059	1.189879	2.089578	1
H	0.361569	2.175049	-0.046262	1
Es	0.388233	1.831491	0.005928	99
Es	0.224419	0.604576	-0.292245	99
Es	0.662437	-1.008901	0.527567	99
Es	1.527144	-1.383449	1.709708	99
Es	1.463249	-1.688906	1.862763	99
Es	0.321892	-1.671145	-0.167021	99
Es	0.479018	1.123936	0.175772	99
Es	-1.709713	0.710321	-1.320386	99
Es	1.526950	-1.585336	1.976817	99
Es	1.083454	0.654823	1.274610	99
Es	-0.012337	0.039211	-0.727059	99
Es	1.217152	-1.278976	1.686388	99
Es	0.386357	-1.118198	0.015679	99
Es	1.383630	1.008283	1.822452	99
Es	1.074534	0.876511	0.598104	99
Es	1.666506	-1.619966	2.260307	99
Es	1.074542	-0.063839	1.252993	99
Es	-1.720134	-0.492913	-1.341365	99
Es	0.514064	0.871343	0.903407	99
Es	-1.515119	0.084684	-0.946693	99
Es	1.047018	-0.808914	1.176404	99
Es	-0.757984	0.069524	-0.828523	99
Es	0.204682	-0.640699	-0.328793	99
Es	0.432698	-1.080830	0.122008	99
Es	0.350991	0.060731	-1.368054	99
Es	-1.876955	0.060265	-0.304963	99
40
Properties=species:S:1:pos:R:3:Z:I:1 energy=-322.847986545218 field_type=dipole dipole="0.000000 0.000000 0.000000" charge=0
C	-1.515161	0.084679	-0.946682	6
C	-0.012361	0.039319	-0.727182	6
N	0.385669	-1.118301	0.015888	7
C	1.047109	-0.808921	1.176558	6
O	1.527069	-1.585671	1.977008	8
C	1.083439	0.654889	1.274568	6
C	0.479079	1.123909	0.175888	6
H	-1.842841	-0.774201	-1.542612	1
H	-1.805461	0.997939	-1.476842	1
H	-2.065451	0.053209	0.000798	1
H	0.525359	0.045579	-1.680902	1
H	0.296919	-2.077351	-0.289802	1
H	1.535059	1.189879	2.089578	1
H	0.361569	2.175049	-0.046262	1
Es	0.417059	-1.081652	0.130420	99
Es	1.047018	-0.808914	1.176404	99
Es	-1.515116	0.084677	-0.946696	99
Es	-0.012337	0.039211	-0.727059	99
Es	0.332948	-1.670229	-0.172566	99
Es	-1.876465	0.060874	-0.308648	99
Es	0.674681	-1.008533	0.521072	99
Es	1.461777	-1.688712	1.863091	99
Es	1.385019	1.008193	1.822037	99
Es	0.350887	0.060339	-1.364776	99
Es	1.526949	-1.585256	1.976840	99
Es	0.386360	1.831559	0.006789	99
Es	-1.710911	0.710517	-1.319774	99
Es	-0.757781	0.069186	-0.828509	99
Es	1.691726	-1.621344	2.246363	99
Es	0.385706	-1.118264	0.015862	99
Es	1.074092	0.874798	0.599959	99
Es	1.083457	0.654827	1.274611	99
Es	1.279797	-1.384406	1.846321	99
Es	1.441029	-1.276879	1.563268	99
Es	1.077212	-0.063896	1.251115	99
Es	0.512838	0.873053	0.902515	99
Es	0.198065	-0.641116	-0.325572	99
Es	-1.721004	-0.493386	-1.340889	99
Es	0.479016	1.123935	0.175773	99
Es	0.224708	0.605046	-0.292144	99
40
Properties=species:S:1:pos:R:3:Z:I:1 energy=-322.847986545218 field_type=dipole dipole="0.000000 0.000000 0.000000" charge=0
C	-1.515161	0.084679	-0.946682	6
C	-0.012361	0.039319	-0.727182	6
N	0.385669	-1.118301	0.015888	7
C	1.047109	-0.808921	1.176558	6
O	1.527069	-1.585671	1.977008	8
C	1.083439	0.654889	1.274568	6
C	0.479079	1.123909	0.175888	6
H	-1.842841	-0.774201	-1.542612	1
H	-1.805461	0.997939	-1.476842	1
H	-2.065451	0.053209	0.000798	1
H	0.525359	0.045579	-1.680902	1
H	0.296919	-2.077351	-0.289802	1
H	1.535059	1.189879	2.089578	1
H	0.361569	2.175049	-0.046262	1
Es	0.385737	-1.118262	0.015848	99
Es	0.197896	-0.641102	-0.325328	99
Es	1.439551	-1.277483	1.563025	99
Es	0.224652	0.604998	-0.292232	99
Es	1.526937	-1.585311	1.976794	99
Es	-1.721009	-0.493282	-1.340686	99
Es	1.077077	-0.063967	1.251152	99
Es	-1.876418	0.060915	-0.308991	99
Es	1.280811	-1.385530	1.845331	99
Es	0.675756	-1.008605	0.520470	99
Es	0.386343	1.831585	0.006752	99
Es	1.047020	-0.808914	1.176403	99
Es	1.083453	0.654826	1.274612	99
Es	0.479015	1.123937	0.175775	99
Es	0.512961	0.873440	0.902260	99
Es	1.074079	0.874442	0.600083	99
Es	-1.515120	0.084684	-0.946693	99
Es	0.417055	-1.081597	0.130589	99
Es	-0.012337	0.039214	-0.727059	99
Es	0.332155	-1.670236	-0.172195	99
Es	0.350665	0.060342	-1.365250	99
Es	1.690758	-1.621082	2.247068	99
Es	1.463263	-1.687170	1.863656	99
Es	-1.710927	0.710546	-1.319911	99
Es	1.384919	1.008204	1.822084	99
Es	-0.757564	0.069037	-0.827753	99
