38
Properties=species:S:1:pos:R:3:Z:I:1 energy=-358.607847576585 field_type=dipole dipole="0.000000 0.000000 0.000000" charge=0
C	-1.757904	-0.613068	-0.000609	6
C	-0.297744	-0.430808	-0.001539	6
C	0.540746	0.650022	0.002391	6
O	0.140516	1.930732	0.008831	8
C	1.834936	0.109132	-0.001809	6
N	1.806886	-1.226638	-0.008029	7
O	0.458406	-1.566898	-0.007899	8
H	-2.277724	0.349672	0.011771	1
H	-2.072844	-1.179998	0.880711	1
H	-2.076374	-1.159248	-0.893689	1
H	0.908786	2.528252	0.010591	1
H	2.792316	0.608852	-0.000719	1
Es	1.794948	-0.637400	-0.286476	99
Es	-1.757815	-0.613050	-0.000607	99
Es	1.796689	-0.640704	0.274562	99
Es	0.006377	1.954774	0.267830	99
Es	0.540710	0.650295	0.002386	99
Es	0.375837	-1.805741	0.156347	99
Es	1.806395	-1.226192	-0.008024	99
Es	-0.000295	1.959874	-0.247458	99
Es	0.444791	-1.504153	-0.247447	99
Es	0.205770	0.130973	-0.319928	99
Es	1.214820	0.449401	0.001627	99
Es	0.331422	1.442400	0.005023	99
Es	0.565874	2.225056	0.008899	99
Es	0.185015	-1.124489	0.051365	99
Es	2.055984	-1.506764	-0.009160	99
Es	-1.014693	-0.516005	-0.000614	99
Es	0.202495	0.127986	0.319228	99
Es	-1.951907	-0.990741	0.588962	99
Es	0.458533	-1.566448	-0.007845	99
Es	1.834956	0.109113	-0.001803	99
Es	1.014027	-1.390687	0.010846	99
Es	-1.954255	-0.976818	-0.598167	99
Es	-2.094597	0.034706	0.007709	99
Es	0.140867	1.930583	0.008809	99
Es	2.467785	0.461449	-0.000883	99
Es	-0.297662	-0.431060	-0.001546	99
38
Properties=species:S:1:pos:R:3:Z:I:1 energy=-358.607847576585 field_type=dipole dipole="0.000000 0.000000 0.000000" charge=0
C	-1.757904	-0.613068	-0.000609	6
C	-0.297744	-0.430808	-0.001539	6
C	0.540746	0.650022	0.002391	6
O	0.140516	1.930732	0.008831	8
C	1.834936	0.109132	-0.001809	6
N	1.806886	-1.226638	-0.008029	7
O	0.458406	-1.566898	-0.007899	8
H	-2.277724	0.349672	0.011771	1
H	-2.072844	-1.179998	0.880711	1
H	-2.076374	-1.159248	-0.893689	1
H	0.908786	2.528252	0.010591	1
H	2.792316	0.608852	-0.000719	1
Es	0.025116	1.949999	-0.237069	99
Es	-1.757817	-0.613052	-0.000609	99
Es	0.324198	1.435619	0.009645	99
Es	0.458551	-1.566443	-0.007668	99
Es	2.059141	-1.505983	-0.009331	99
Es	2.469821	0.462288	-0.000845	99
Es	1.796029	-0.635591	0.268817	99
Es	-1.952248	-0.990322	0.585762	99
Es	0.140917	1.930564	0.008670	99
Es	-0.014073	1.961960	0.247884	99
Es	-1.954650	-0.976603	-0.594855	99
Es	1.216492	0.446069	0.000990	99
Es	0.476956	-1.441624	-0.026234	99
Es	0.201324	0.127681	-0.314725	99
Es	0.350487	-1.874321	0.002306	99
Es	-1.012362	-0.516068	-0.001238	99
Es	0.204860	0.124645	0.315251	99
Es	0.568241	2.234668	0.013989	99
Es	1.806386	-1.226183	-0.008024	99
Es	-2.097434	0.034329	0.007667	99
Es	-0.297666	-0.431073	-0.001543	99
Es	1.834956	0.109117	-0.001810	99
Es	1.795108	-0.633217	-0.279844	99
Es	0.169636	-1.118010	-0.001516	99
Es	0.540711	0.650311	0.002399	99
Es	1.019392	-1.392402	-0.004435	99
38
Properties=species:S:1:pos:R:3:Z:I:1 energy=-358.607847576585 field_type=dipole dipole="0.000000 0.000000 0.000000" charge=0
C	-1.757904	-0.613068	-0.000609	6
C	-0.297744	-0.430808	-0.001539	6
C	0.540746	0.650022	0.002391	6
O	0.140516	1.930732	0.008831	8
C	1.834936	0.109132	-0.001809	6
N	1.806886	-1.226638	-0.008029	7
O	0.458406	-1.566898	-0.007899	8
H	-2.277724	0.349672	0.011771	1
H	-2.072844	-1.179998	0.880711	1
H	-2.076374	-1.159248	-0.893689	1
H	0.908786	2.528252	0.010591	1
H	2.792316	0.608852	-0.000719	1
Es	0.348822	-1.875442	-0.011716	99
Es	-1.012035	-0.515772	-0.001069	99
Es	1.834957	0.109118	-0.001811	99
Es	-2.096818	0.033286	0.007599	99
Es	2.469991	0.463155	-0.000954	99
Es	0.171352	-1.118600	-0.010324	99
Es	0.203734	0.125392	-0.315284	99
Es	0.566492	2.243319	0.010882	99
Es	0.158407	1.913342	-0.005315	99
Es	2.057803	-1.504616	-0.009068	99
Es	-1.954725	-0.975924	-0.595343	99
Es	0.316082	1.428811	0.005810	99
Es	-1.757815	-0.613052	-0.000609	99
Es	0.458559	-1.566318	-0.007574	99
Es	1.795741	-0.630396	-0.281509	99
Es	1.806385	-1.226187	-0.008028	99
Es	-1.953050	-0.990739	0.586248	99
Es	0.204529	0.122572	0.315733	99
Es	1.217173	0.445227	0.001300	99
Es	0.162757	1.909123	0.013038	99
Es	-0.297666	-0.431069	-0.001540	99
Es	1.796451	-0.632839	0.270204	99
Es	1.018966	-1.391610	-0.008259	99
Es	0.473939	-1.442948	0.000199	99
Es	0.540710	0.650308	0.002391	99
Es	-0.158670	2.018215	0.018633	99
38
Properties=species:S:1:pos:R:3:Z:I:1 energy=-358.607847576585 field_type=dipole dipole="0.000000 0.000000 0.000000" charge=0
C	-1.757904	-0.613068	-0.000609	6
C	-0.297744	-0.430808	-0.001539	6
C	0.540746	0.650022	0.002391	6
O	0.140516	1.930732	0.008831	8
C	1.834936	0.109132	-0.001809	6
N	1.806886	-1.226638	-0.008029	7
O	0.458406	-1.566898	-0.007899	8
H	-2.277724	0.349672	0.011771	1
H	-2.072844	-1.179998	0.880711	1
H	-2.076374	-1.159248	-0.893689	1
H	0.908786	2.528252	0.010591	1
H	2.792316	0.608852	-0.000719	1
Es	-1.954701	-0.975856	-0.594009	99
Es	1.834957	0.109119	-0.001805	99
Es	2.470416	0.463609	-0.000951	99
Es	0.314413	1.428421	0.008236	99
Es	1.217506	0.443865	0.000698	99
Es	1.796025	-0.630724	0.268265	99
Es	0.204347	0.124086	-0.313683	99
Es	0.566569	2.244071	0.010292	99
Es	0.347610	-1.875919	-0.009966	99
Es	0.205006	0.121180	0.314373	99
Es	-0.297667	-0.431078	-0.001540	99
Es	1.795067	-0.628341	-0.278805	99
Es	-2.098040	0.033156	0.007646	99
Es	-1.757814	-0.613053	-0.000609	99
Es	0.172909	-1.118997	-0.002253	99
Es	-1.952835	-0.990669	0.585057	99
Es	0.179088	1.893201	0.006000	99
Es	0.472055	-1.443637	-0.010723	99
Es	-0.157243	2.018131	0.007280	99
Es	0.540710	0.650311	0.002398	99
Es	0.142383	1.929134	0.011231	99
Es	1.018573	-1.391170	-0.007081	99
Es	2.059077	-1.504256	-0.009692	99
Es	0.458570	-1.566207	-0.007510	99
Es	1.806385	-1.226185	-0.008028	99
Es	-1.011294	-0.515835	-0.001188	99
38
Properties=species:S:1:pos:R:3:Z:I:1 energy=-358.607847576585 field_type=dipole dipole="0.000000 0.000000 0.000000" charge=0
C	-1.757904	-0.613068	-0.000609	6
C	-0.297744	-0.430808	-0.001539	6
C	0.540746	0.650022	0.002391	6
O	0.140516	1.930732	0.008831	8
C	1.834936	0.109132	-0.001809	6
N	1.806886	-1.226638	-0.008029	7
O	0.458406	-1.566898	-0.007899	8
H	-2.277724	0.349672	0.011771	1
H	-2.072844	-1.179998	0.880711	1
H	-2.076374	-1.159248	-0.893689	1
H	0.908786	2.528252	0.010591	1
H	2.792316	0.608852	-0.000719	1
Es	1.217689	0.442766	0.000933	99
Es	-0.155466	2.017593	0.012155	99
Es	0.313223	1.427949	0.007889	99
Es	0.204996	0.120403	0.312871	99
Es	-1.954437	-0.975796	-0.592792	99
Es	0.346691	-1.876055	-0.009176	99
Es	1.834957	0.109119	-0.001809	99
Es	-0.297667	-0.431076	-0.001541	99
Es	0.470585	-1.443996	-0.010500	99
Es	-1.010718	-0.516105	-0.001143	99
Es	0.180583	1.891786	0.004172	99
Es	1.795799	-0.628951	0.265990	99
Es	1.806379	-1.226185	-0.008025	99
Es	2.060115	-1.503760	-0.009164	99
Es	0.458574	-1.566256	-0.007290	99
Es	0.540707	0.650314	0.002394	99
Es	2.470670	0.463858	-0.000848	99
Es	1.018419	-1.391332	-0.006737	99
Es	-2.099170	0.033260	0.007579	99
Es	-1.757814	-0.613052	-0.000609	99
Es	0.140875	1.930600	0.008881	99
Es	0.174038	-1.119209	-0.003870	99
Es	1.794369	-0.627180	-0.277137	99
Es	-1.952727	-0.990552	0.583802	99
Es	0.205257	0.123057	-0.312414	99
Es	0.566145	2.245157	0.010024	99
38
Properties=species:S:1:pos:R:3:Z:I:1 energy=-358.607847576585 field_type=dipole dipole="0.000000 0.000000 0.000000" charge=0
C	-1.757904	-0.613068	-0.000609	6
C	-0.297744	-0.430808	-0.001539	6
C	0.540746	0.650022	0.002391	6
O	0.140516	1.930732	0.008831	8
C	1.834936	0.109132	-0.001809	6
N	1.806886	-1.226638	-0.008029	7
O	0.458406	-1.566898	-0.007899	8
H	-2.277724	0.349672	0.011771	1
H	-2.072844	-1.179998	0.880711	1
H	-2.076374	-1.159248	-0.893689	1
H	0.908786	2.528252	0.010591	1
H	2.792316	0.608852	-0.000719	1
Es	2.060905	-1.503548	-0.009956	99
Es	-0.154301	2.017391	0.011416	99
Es	1.217662	0.441796	0.000446	99
Es	-2.100175	0.033297	0.007441	99
Es	-1.010310	-0.516242	-0.001033	99
Es	1.018203	-1.390729	-0.007727	99
Es	0.141032	1.930477	0.008297	99
Es	1.834958	0.109119	-0.001813	99
Es	0.540713	0.650319	0.002392	99
Es	0.469460	-1.444156	-0.005810	99
Es	0.206598	0.119538	0.311919	99
Es	-1.757814	-0.613052	-0.000609	99
Es	0.180556	1.891865	0.008269	99
Es	0.346136	-1.876294	-0.009401	99
Es	1.794205	-0.625833	-0.275095	99
Es	0.565965	2.245786	0.009490	99
Es	0.458549	-1.566338	-0.008181	99
Es	1.795304	-0.628142	0.264988	99
Es	0.204469	0.122545	-0.311175	99
Es	-0.297666	-0.431075	-0.001532	99
Es	1.806399	-1.226182	-0.008018	99
Es	-1.954131	-0.975769	-0.591721	99
Es	0.312252	1.427722	0.005614	99
Es	0.174857	-1.119799	-0.006518	99
Es	-1.952572	-0.990437	0.582812	99
Es	2.470819	0.464098	-0.000858	99
38
Properties=species:S:1:pos:R:3:Z:I:1 energy=-358.607847576585 field_type=dipole dipole="0.000000 0.000000 0.000000" charge=0
C	-1.757904	-0.613068	-0.000609	6
C	-0.297744	-0.430808	-0.001539	6
C	0.540746	0.650022	0.002391	6
O	0.140516	1.930732	0.008831	8
C	1.834936	0.109132	-0.001809	6
N	1.806886	-1.226638	-0.008029	7
O	0.458406	-1.566898	-0.007899	8
H	-2.277724	0.349672	0.011771	1
H	-2.072844	-1.179998	0.880711	1
H	-2.076374	-1.159248	-0.893689	1
H	0.908786	2.528252	0.010591	1
H	2.792316	0.608852	-0.000719	1
Es	1.834958	0.109119	-0.001810	99
Es	1.794605	-0.627579	0.264030	99
Es	-1.952855	-0.973722	-0.590406	99
Es	0.142075	1.929462	0.010351	99
Es	0.345873	-1.876420	-0.010230	99
Es	0.220523	0.117021	0.309623	99
Es	0.191300	0.123984	-0.308176	99
Es	0.175362	-1.120062	-0.002182	99
Es	1.018070	-1.390647	-0.009317	99
Es	0.311317	1.427370	0.004882	99
Es	1.793934	-0.624691	-0.273418	99
Es	-1.757817	-0.613058	-0.000616	99
Es	0.565642	2.246456	0.009517	99
Es	1.806374	-1.226186	-0.008022	99
Es	0.540706	0.650315	0.002391	99
Es	-1.009937	-0.516425	-0.000986	99
Es	0.458549	-1.566439	-0.007873	99
Es	-2.101199	0.033304	0.007464	99
Es	-0.297666	-0.431075	-0.001541	99
Es	1.217841	0.441043	-0.000122	99
Es	0.179557	1.892876	0.006692	99
Es	-1.953289	-0.992329	0.581757	99
Es	-0.152957	2.017189	0.011726	99
Es	0.468457	-1.444182	-0.008084	99
Es	2.470939	0.464286	-0.001038	99
Es	2.061712	-1.503249	-0.010979	99
38
Properties=species:S:1:pos:R:3:Z:I:1 energy=-358.607847576585 field_type=dipole dipole="0.000000 0.000000 0.000000" charge=0
C	-1.757904	-0.613068	-0.000609	6
C	-0.297744	-0.430808	-0.001539	6
C	0.540746	0.650022	0.002391	6
O	0.140516	1.930732	0.008831	8
C	1.834936	0.109132	-0.001809	6
N	1.806886	-1.226638	-0.008029	7
O	0.458406	-1.566898	-0.007899	8
H	-2.277724	0.349672	0.011771	1
H	-2.072844	-1.179998	0.880711	1
H	-2.076374	-1.159248	-0.893689	1
H	0.908786	2.528252	0.010591	1
H	2.792316	0.608852	-0.000719	1
Es	2.470850	0.464548	-0.001327	99
Es	0.256210	0.111636	0.290904	99
Es	0.176370	-1.120486	0.003116	99
Es	-1.009927	-0.516520	-0.000600	99
Es	2.061474	-1.502838	-0.011943	99
Es	0.140970	1.930520	0.008487	99
Es	1.217996	0.440678	-0.002365	99
Es	0.467176	-1.444033	-0.009457	99
Es	-1.952207	-0.972323	-0.590172	99
Es	-1.954204	-0.993716	0.581954	99
Es	1.806372	-1.226243	-0.008031	99
Es	0.565357	2.246936	0.006387	99
Es	-0.297665	-0.431076	-0.001537	99
Es	0.540706	0.650314	0.002378	99
Es	-2.100912	0.033203	0.007282	99
Es	0.180280	1.892023	-0.001949	99
Es	1.794044	-0.624069	-0.273318	99
Es	1.017886	-1.390457	-0.012827	99
Es	1.834958	0.109119	-0.001810	99
Es	0.345277	-1.876547	-0.010765	99
Es	-1.757815	-0.613052	-0.000609	99
Es	0.156855	0.129063	-0.287271	99
Es	1.794294	-0.627808	0.264621	99
Es	-0.151316	2.016842	0.028428	99
Es	0.458530	-1.566451	-0.007916	99
Es	0.310512	1.427094	0.001971	99
38
Properties=species:S:1:pos:R:3:Z:I:1 energy=-358.607847576585 field_type=dipole dipole="0.000000 0.000000 0.000000" charge=0
C	-1.757904	-0.613068	-0.000609	6
C	-0.297744	-0.430808	-0.001539	6
C	0.540746	0.650022	0.002391	6
O	0.140516	1.930732	0.008831	8
C	1.834936	0.109132	-0.001809	6
N	1.806886	-1.226638	-0.008029	7
O	0.458406	-1.566898	-0.007899	8
H	-2.277724	0.349672	0.011771	1
H	-2.072844	-1.179998	0.880711	1
H	-2.076374	-1.159248	-0.893689	1
H	0.908786	2.528252	0.010591	1
H	2.792316	0.608852	-0.000719	1
Es	0.345154	-1.876660	-0.010717	99
Es	-1.010020	-0.516164	-0.001789	99
Es	0.309558	1.426736	0.011624	99
Es	1.795563	-0.625742	0.262720	99
Es	0.466134	-1.443976	-0.003157	99
Es	0.540706	0.650318	0.002387	99
Es	1.017841	-1.390465	-0.002243	99
Es	-0.149113	2.016545	-0.023092	99
Es	0.176629	-1.120646	-0.013492	99
Es	1.793061	-0.626061	-0.276044	99
Es	0.565151	2.247360	0.013623	99
Es	-1.955677	-0.978880	-0.591522	99
Es	1.806369	-1.226220	-0.008024	99
Es	-2.100626	0.032955	0.007569	99
Es	0.458533	-1.566450	-0.007893	99
Es	2.470716	0.464806	-0.000341	99
Es	1.834958	0.109119	-0.001809	99
Es	0.138889	0.129429	0.266285	99
Es	-1.950850	-0.987310	0.581978	99
Es	-0.297667	-0.431076	-0.001542	99
Es	2.060782	-1.502542	-0.006361	99
Es	0.275308	0.111108	-0.269739	99
Es	0.178110	1.893438	0.033273	99
Es	-1.757814	-0.613055	-0.000607	99
Es	1.218177	0.440428	0.005187	99
Es	0.142198	1.929366	0.007360	99
38
Properties=species:S:1:pos:R:3:Z:I:1 energy=-358.607847576585 field_type=dipole dipole="0.000000 0.000000 0.000000" charge=0
C	-1.757904	-0.613068	-0.000609	6
C	-0.297744	-0.430808	-0.001539	6
C	0.540746	0.650022	0.002391	6
O	0.140516	1.930732	0.008831	8
C	1.834936	0.109132	-0.001809	6
N	1.806886	-1.226638	-0.008029	7
O	0.458406	-1.566898	-0.007899	8
H	-2.277724	0.349672	0.011771	1
H	-2.072844	-1.179998	0.880711	1
H	-2.076374	-1.159248	-0.893689	1
H	0.908786	2.528252	0.010591	1
H	2.792316	0.608852	-0.000719	1
Es	-0.297665	-0.431076	-0.001543	99
Es	1.218344	0.440240	-0.004061	99
Es	1.793893	-0.623750	-0.274569	99
Es	-0.147825	2.016471	0.043363	99
Es	0.127889	0.133351	-0.249112	99
Es	0.540706	0.650315	0.002387	99
Es	0.308563	1.426458	-0.001530	99
Es	-2.100292	0.032817	0.007377	99
Es	1.017771	-1.390317	-0.014184	99
Es	2.060396	-1.502301	-0.012753	99
Es	-1.010095	-0.516125	-0.000507	99
Es	-1.757815	-0.613052	-0.000609	99
Es	1.806376	-1.226179	-0.008029	99
Es	2.470586	0.465040	-0.001543	99
Es	0.565061	2.247554	0.005883	99
Es	0.458521	-1.566459	-0.007906	99
Es	0.465319	-1.443767	-0.012709	99
Es	0.344934	-1.876699	-0.009251	99
Es	0.178425	1.893384	-0.010943	99
Es	1.834957	0.109119	-0.001816	99
Es	0.177143	-1.121086	0.006224	99
Es	1.794773	-0.627849	0.266587	99
Es	-1.954898	-0.995032	0.582542	99
Es	0.141870	1.929620	0.006591	99
Es	-1.951839	-0.971227	-0.590584	99
Es	0.286972	0.106906	0.254331	99
38
Properties=species:S:1:pos:R:3:Z:I:1 energy=-358.607847576585 field_type=dipole dipole="0.000000 0.000000 0.000000" charge=0
C	-1.757904	-0.613068	-0.000609	6
C	-0.297744	-0.430808	-0.001539	6
C	0.540746	0.650022	0.002391	6
O	0.140516	1.930732	0.008831	8
C	1.834936	0.109132	-0.001809	6
N	1.806886	-1.226638	-0.008029	7
O	0.458406	-1.566898	-0.007899	8
H	-2.277724	0.349672	0.011771	1
H	-2.072844	-1.179998	0.880711	1
H	-2.076374	-1.159248	-0.893689	1
H	0.908786	2.528252	0.010591	1
H	2.792316	0.608852	-0.000719	1
Es	0.177697	-1.121449	-0.018977	99
Es	1.793708	-0.625505	-0.277255	99
Es	0.458546	-1.566405	-0.007709	99
Es	0.564713	2.247941	0.014903	99
Es	-1.956433	-0.980076	-0.591929	99
Es	1.017748	-1.390148	-0.000472	99
Es	0.293677	0.107954	-0.241425	99
Es	2.060139	-1.502139	-0.006420	99
Es	1.806374	-1.226181	-0.008023	99
Es	2.470542	0.465151	-0.000157	99
Es	0.150745	1.920944	0.008220	99
Es	1.218481	0.440007	0.005698	99
Es	-1.757815	-0.613053	-0.000609	99
Es	0.169798	1.901787	0.028747	99
Es	0.121672	0.132301	0.237335	99
Es	-1.950336	-0.986227	0.582183	99
Es	-0.297666	-0.431075	-0.001539	99
Es	1.794940	-0.625928	0.264215	99
Es	-0.146892	2.016891	-0.022527	99
Es	1.834958	0.109119	-0.001809	99
Es	0.307795	1.425941	0.013410	99
Es	0.540707	0.650313	0.002397	99
Es	0.344477	-1.876696	-0.009265	99
Es	-2.100212	0.032697	0.007641	99
Es	0.464783	-1.443774	-0.001011	99
Es	-1.010072	-0.516032	-0.001986	99
38
Properties=species:S:1:pos:R:3:Z:I:1 energy=-358.607847576585 field_type=dipole dipole="0.000000 0.000000 0.000000" charge=0
C	-1.757904	-0.613068	-0.000609	6
C	-0.297744	-0.430808	-0.001539	6
C	0.540746	0.650022	0.002391	6
O	0.140516	1.930732	0.008831	8
C	1.834936	0.109132	-0.001809	6
N	1.806886	-1.226638	-0.008029	7
O	0.458406	-1.566898	-0.007899	8
H	-2.277724	0.349672	0.011771	1
H	-2.072844	-1.179998	0.880711	1
H	-2.076374	-1.159248	-0.893689	1
H	0.908786	2.528252	0.010591	1
H	2.792316	0.608852	-0.000719	1
Es	1.793919	-0.626372	0.265131	99
Es	1.834954	0.109122	-0.001808	99
Es	0.140959	1.930563	0.008649	99
Es	0.540706	0.650315	0.002393	99
Es	0.307798	1.426123	0.014228	99
Es	-0.146453	2.016424	-0.026422	99
Es	1.794744	-0.624890	-0.278008	99
Es	2.059696	-1.501879	-0.006363	99
Es	0.179270	1.892296	0.031325	99
Es	-1.956322	-0.979822	-0.592354	99
Es	1.017551	-1.390104	-0.000061	99
Es	0.177723	-1.121423	-0.016613	99
Es	2.470435	0.465398	-0.000199	99
Es	1.806399	-1.226178	-0.008030	99
Es	0.564686	2.248121	0.014957	99
Es	0.344555	-1.876873	-0.010318	99
Es	0.299999	0.106842	-0.229643	99
Es	-1.757815	-0.613052	-0.000610	99
Es	-2.100018	0.032572	0.007769	99
Es	0.116046	0.133188	0.225415	99
Es	-1.010175	-0.515873	-0.001943	99
Es	0.458551	-1.566449	-0.007912	99
Es	-1.950513	-0.986571	0.582373	99
Es	0.464335	-1.443819	-0.002590	99
Es	1.218709	0.439773	0.005813	99
Es	-0.297666	-0.431075	-0.001543	99
38
Properties=species:S:1:pos:R:3:Z:I:1 energy=-358.607847576585 field_type=dipole dipole="0.000000 0.000000 0.000000" charge=0
C	-1.757904	-0.613068	-0.000609	6
C	-0.297744	-0.430808	-0.001539	6
C	0.540746	0.650022	0.002391	6
O	0.140516	1.930732	0.008831	8
C	1.834936	0.109132	-0.001809	6
N	1.806886	-1.226638	-0.008029	7
O	0.458406	-1.566898	-0.007899	8
H	-2.277724	0.349672	0.011771	1
H	-2.072844	-1.179998	0.880711	1
H	-2.076374	-1.159248	-0.893689	1
H	0.908786	2.528252	0.010591	1
H	2.792316	0.608852	-0.000719	1
Es	1.806370	-1.226179	-0.008020	99
Es	-1.952047	-0.971572	-0.591198	99
Es	1.017608	-1.390039	-0.015776	99
Es	0.307002	1.425850	-0.001487	99
Es	-0.145744	2.016456	0.041824	99
Es	0.458535	-1.566367	-0.008129	99
Es	0.344570	-1.876894	-0.008636	99
Es	2.059420	-1.501648	-0.013229	99
Es	-1.010180	-0.515837	-0.000221	99
Es	-1.954942	-0.994853	0.583269	99
Es	0.564590	2.248333	0.004967	99
Es	1.834958	0.109119	-0.001808	99
Es	0.144021	1.927488	0.004386	99
Es	2.470327	0.465560	-0.001626	99
Es	0.110940	0.135907	-0.213666	99
Es	0.178051	-1.121914	0.010117	99
Es	0.176492	1.895423	-0.006256	99
Es	-2.099792	0.032449	0.007247	99
Es	1.793805	-0.623615	-0.275780	99
Es	1.218800	0.439717	-0.004783	99
Es	0.540709	0.650323	0.002377	99
Es	0.305653	0.104069	0.219515	99
Es	-1.757817	-0.613052	-0.000607	99
Es	0.463495	-1.443504	-0.015486	99
Es	-0.297669	-0.431073	-0.001534	99
Es	1.794917	-0.627789	0.268174	99
38
Properties=species:S:1:pos:R:3:Z:I:1 energy=-358.607847576585 field_type=dipole dipole="0.000000 0.000000 0.000000" charge=0
C	-1.757904	-0.613068	-0.000609	6
C	-0.297744	-0.430808	-0.001539	6
C	0.540746	0.650022	0.002391	6
O	0.140516	1.930732	0.008831	8
C	1.834936	0.109132	-0.001809	6
N	1.806886	-1.226638	-0.008029	7
O	0.458406	-1.566898	-0.007899	8
H	-2.277724	0.349672	0.011771	1
H	-2.072844	-1.179998	0.880711	1
H	-2.076374	-1.159248	-0.893689	1
H	0.908786	2.528252	0.010591	1
H	2.792316	0.608852	-0.000719	1
Es	2.059200	-1.501508	-0.013302	99
Es	0.308973	0.103580	0.211568	99
Es	-1.951803	-0.971027	-0.591313	99
Es	1.793041	-0.624032	-0.276162	99
Es	2.470273	0.465678	-0.001629	99
Es	-0.297666	-0.431075	-0.001539	99
Es	1.218871	0.439629	-0.004401	99
Es	0.344210	-1.876902	-0.007715	99
Es	-1.955263	-0.995418	0.583128	99
Es	1.834958	0.109119	-0.001809	99
Es	0.458524	-1.566459	-0.007899	99
Es	1.806371	-1.226182	-0.008028	99
Es	0.306895	1.425810	-0.001916	99
Es	1.795760	-0.627394	0.268451	99
Es	0.108054	0.136254	-0.205904	99
Es	-0.144945	2.015965	0.044982	99
Es	-1.010223	-0.515780	-0.000144	99
Es	0.142641	1.928838	0.005286	99
Es	0.463194	-1.443415	-0.015824	99
Es	0.540706	0.650314	0.002388	99
Es	-1.757815	-0.613052	-0.000609	99
Es	0.178395	-1.121988	0.008806	99
Es	-2.099672	0.032375	0.007395	99
Es	1.017560	-1.389950	-0.015251	99
Es	0.564260	2.248768	0.005133	99
Es	0.177572	1.894213	-0.010058	99
38
Properties=species:S:1:pos:R:3:Z:I:1 energy=-358.607847576585 field_type=dipole dipole="0.000000 0.000000 0.000000" charge=0
C	-1.757904	-0.613068	-0.000609	6
C	-0.297744	-0.430808	-0.001539	6
C	0.540746	0.650022	0.002391	6
O	0.140516	1.930732	0.008831	8
C	1.834936	0.109132	-0.001809	6
N	1.806886	-1.226638	-0.008029	7
O	0.458406	-1.566898	-0.007899	8
H	-2.277724	0.349672	0.011771	1
H	-2.072844	-1.179998	0.880711	1
H	-2.076374	-1.159248	-0.893689	1
H	0.908786	2.528252	0.010591	1
H	2.792316	0.608852	-0.000719	1
Es	-1.010213	-0.515670	-0.001966	99
Es	-1.757815	-0.613052	-0.000609	99
Es	0.458594	-1.565492	-0.007199	99
Es	0.344158	-1.876950	-0.009712	99
Es	0.462977	-1.444549	-0.001966	99
Es	-1.956080	-0.979169	-0.592928	99
Es	0.312211	0.104711	-0.201937	99
Es	2.470213	0.465782	-0.000084	99
Es	-1.951015	-0.987292	0.582872	99
Es	0.141646	1.929894	0.007576	99
Es	0.178452	-1.121966	-0.019076	99
Es	2.058937	-1.501358	-0.006694	99
Es	1.218985	0.439405	0.006205	99
Es	0.306670	1.425593	0.012985	99
Es	1.794912	-0.624753	-0.279064	99
Es	-2.099613	0.032252	0.007805	99
Es	1.834957	0.109119	-0.001809	99
Es	1.017536	-1.390023	0.000457	99
Es	-0.144469	2.016301	-0.026552	99
Es	1.806375	-1.226172	-0.008025	99
Es	0.564162	2.248841	0.015546	99
Es	0.540704	0.650312	0.002417	99
Es	0.178506	1.892994	0.033213	99
Es	-0.297666	-0.431076	-0.001543	99
Es	1.793824	-0.626388	0.266284	99
Es	0.105121	0.135063	0.197440	99
38
Properties=species:S:1:pos:R:3:Z:I:1 energy=-358.607847576585 field_type=dipole dipole="0.000000 0.000000 0.000000" charge=0
C	-1.757904	-0.613068	-0.000609	6
C	-0.297744	-0.430808	-0.001539	6
C	0.540746	0.650022	0.002391	6
O	0.140516	1.930732	0.008831	8
C	1.834936	0.109132	-0.001809	6
N	1.806886	-1.226638	-0.008029	7
O	0.458406	-1.566898	-0.007899	8
H	-2.277724	0.349672	0.011771	1
H	-2.072844	-1.179998	0.880711	1
H	-2.076374	-1.159248	-0.893689	1
H	0.908786	2.528252	0.010591	1
H	2.792316	0.608852	-0.000719	1
Es	-0.143701	2.015980	0.046126	99
Es	2.470158	0.465901	-0.001626	99
Es	1.794933	-0.627639	0.268936	99
Es	0.540706	0.650314	0.002389	99
Es	-2.099541	0.032225	0.007270	99
Es	0.462531	-1.443347	-0.016818	99
Es	0.564152	2.248988	0.005987	99
Es	1.219073	0.439403	-0.004367	99
Es	-1.757816	-0.613052	-0.000609	99
Es	0.314770	0.102620	0.196607	99
Es	-1.955191	-0.995266	0.583490	99
Es	1.793870	-0.623526	-0.276670	99
Es	1.806370	-1.226177	-0.008029	99
Es	0.344087	-1.876946	-0.007683	99
Es	-1.951923	-0.971245	-0.591423	99
Es	1.017586	-1.389985	-0.015184	99
Es	0.141094	1.930409	0.007912	99
Es	1.834958	0.109119	-0.001810	99
Es	0.102849	0.137002	-0.191138	99
Es	2.058780	-1.501225	-0.013007	99
Es	-0.297666	-0.431075	-0.001540	99
Es	0.178703	-1.122227	0.009666	99
Es	0.306072	1.425491	-0.001819	99
Es	0.458532	-1.566449	-0.007861	99
Es	-1.010261	-0.515678	-0.000394	99
Es	0.178946	1.892744	-0.014773	99
38
Properties=species:S:1:pos:R:3:Z:I:1 energy=-358.607847576585 field_type=dipole dipole="0.000000 0.000000 0.000000" charge=0
C	-1.757904	-0.613068	-0.000609	6
C	-0.297744	-0.430808	-0.001539	6
C	0.540746	0.650022	0.002391	6
O	0.140516	1.930732	0.008831	8
C	1.834936	0.109132	-0.001809	6
N	1.806886	-1.226638	-0.008029	7
O	0.458406	-1.566898	-0.007899	8
H	-2.277724	0.349672	0.011771	1
H	-2.072844	-1.179998	0.880711	1
H	-2.076374	-1.159248	-0.893689	1
H	0.908786	2.528252	0.010591	1
H	2.792316	0.608852	-0.000719	1
Es	-2.099346	0.032164	0.007733	99
Es	0.317509	0.103637	-0.186996	99
Es	1.017494	-1.389933	0.000089	99
Es	1.219202	0.439224	0.006340	99
Es	0.458530	-1.566403	-0.008053	99
Es	1.806375	-1.226178	-0.008024	99
Es	-1.956086	-0.979266	-0.593251	99
Es	-0.143918	2.016318	-0.024475	99
Es	-0.297667	-0.431075	-0.001542	99
Es	0.100285	0.135898	0.182396	99
Es	0.462533	-1.443562	0.000450	99
Es	0.306238	1.425436	0.013745	99
Es	1.834958	0.109119	-0.001810	99
Es	0.178939	1.892751	0.028821	99
Es	0.178790	-1.122178	-0.019474	99
Es	-1.010399	-0.515526	-0.001911	99
Es	0.141440	1.930061	0.010204	99
Es	0.563993	2.249121	0.014518	99
Es	0.540706	0.650317	0.002400	99
Es	2.058363	-1.501082	-0.006192	99
Es	0.343963	-1.877012	-0.010548	99
Es	1.794826	-0.625677	0.266668	99
Es	-1.757815	-0.613052	-0.000609	99
Es	1.794097	-0.625352	-0.280121	99
Es	-1.951045	-0.987338	0.583290	99
Es	2.470107	0.465945	-0.000012	99
38
Properties=species:S:1:pos:R:3:Z:I:1 energy=-358.607847576585 field_type=dipole dipole="0.000000 0.000000 0.000000" charge=0
C	-1.757904	-0.613068	-0.000609	6
C	-0.297744	-0.430808	-0.001539	6
C	0.540746	0.650022	0.002391	6
O	0.140516	1.930732	0.008831	8
C	1.834936	0.109132	-0.001809	6
N	1.806886	-1.226638	-0.008029	7
O	0.458406	-1.566898	-0.007899	8
H	-2.277724	0.349672	0.011771	1
H	-2.072844	-1.179998	0.880711	1
H	-2.076374	-1.159248	-0.893689	1
H	0.908786	2.528252	0.010591	1
H	2.792316	0.608852	-0.000719	1
Es	-1.757816	-0.613052	-0.000609	99
Es	-1.955341	-0.995476	0.583590	99
Es	0.178548	1.893204	-0.014475	99
Es	0.462221	-1.443430	-0.014367	99
Es	1.795435	-0.627361	0.269432	99
Es	0.344136	-1.877069	-0.009317	99
Es	0.099017	0.137598	-0.178743	99
Es	-1.951859	-0.971077	-0.591598	99
Es	1.017447	-1.389616	-0.015427	99
Es	0.319082	0.101928	0.184171	99
Es	1.834958	0.109119	-0.001811	99
Es	1.806365	-1.226175	-0.008036	99
Es	0.141705	1.929834	0.009906	99
Es	-1.010269	-0.515623	-0.000305	99
Es	1.219228	0.439260	-0.004491	99
Es	0.458552	-1.566406	-0.007689	99
Es	0.540706	0.650314	0.002387	99
Es	2.470068	0.466049	-0.001609	99
Es	0.305471	1.425428	-0.002809	99
Es	2.058385	-1.501038	-0.012599	99
Es	-0.143021	2.015883	0.045137	99
Es	0.178678	-1.122532	0.008952	99
Es	-2.099370	0.032133	0.007303	99
Es	1.793450	-0.623770	-0.277464	99
Es	0.563967	2.249310	0.005645	99
Es	-0.297667	-0.431076	-0.001539	99
38
Properties=species:S:1:pos:R:3:Z:I:1 energy=-358.607847576585 field_type=dipole dipole="0.000000 0.000000 0.000000" charge=0
C	-1.757904	-0.613068	-0.000609	6
C	-0.297744	-0.430808	-0.001539	6
C	0.540746	0.650022	0.002391	6
O	0.140516	1.930732	0.008831	8
C	1.834936	0.109132	-0.001809	6
N	1.806886	-1.226638	-0.008029	7
O	0.458406	-1.566898	-0.007899	8
H	-2.277724	0.349672	0.011771	1
H	-2.072844	-1.179998	0.880711	1
H	-2.076374	-1.159248	-0.893689	1
H	0.908786	2.528252	0.010591	1
H	2.792316	0.608852	-0.000719	1
Es	-0.297666	-0.431075	-0.001543	99
Es	2.470012	0.466127	-0.000144	99
Es	2.058269	-1.500833	-0.006636	99
Es	0.178901	-1.122342	-0.018513	99
Es	1.017709	-1.390257	0.000412	99
Es	0.321157	0.103096	-0.176251	99
Es	0.343607	-1.876820	-0.009486	99
Es	0.458532	-1.566456	-0.007920	99
Es	0.097199	0.136385	0.171970	99
Es	0.540706	0.650315	0.002398	99
Es	-0.142418	2.016251	-0.027561	99
Es	1.219293	0.439129	0.006152	99
Es	-1.951202	-0.987613	0.583418	99
Es	-1.956104	-0.978921	-0.593248	99
Es	0.462168	-1.443507	-0.002041	99
Es	1.794509	-0.625945	0.267116	99
Es	-2.099239	0.032012	0.007785	99
Es	-1.757814	-0.613053	-0.000609	99
Es	0.144767	1.926809	0.007766	99
Es	1.834958	0.109119	-0.001808	99
Es	0.305387	1.425091	0.011616	99
Es	-1.010264	-0.515413	-0.002074	99
Es	1.794240	-0.625104	-0.280090	99
Es	1.806375	-1.226177	-0.008024	99
Es	0.175141	1.896169	0.036425	99
Es	0.563851	2.249372	0.014525	99
38
Properties=species:S:1:pos:R:3:Z:I:1 energy=-358.607847576585 field_type=dipole dipole="0.000000 0.000000 0.000000" charge=0
C	-1.757904	-0.613068	-0.000609	6
C	-0.297744	-0.430808	-0.001539	6
C	0.540746	0.650022	0.002391	6
O	0.140516	1.930732	0.008831	8
C	1.834936	0.109132	-0.001809	6
N	1.806886	-1.226638	-0.008029	7
O	0.458406	-1.566898	-0.007899	8
H	-2.277724	0.349672	0.011771	1
H	-2.072844	-1.179998	0.880711	1
H	-2.076374	-1.159248	-0.893689	1
H	0.908786	2.528252	0.010591	1
H	2.792316	0.608852	-0.000719	1
Es	0.458545	-1.566454	-0.007874	99
Es	-1.956564	-0.979759	-0.593388	99
Es	0.540706	0.650313	0.002399	99
Es	-1.757816	-0.613054	-0.000610	99
Es	1.017550	-1.389826	-0.001237	99
Es	-2.099083	0.031967	0.007803	99
Es	0.343880	-1.877063	-0.009412	99
Es	0.179191	1.892409	0.031607	99
Es	0.461715	-1.443312	0.002092	99
Es	-0.142468	2.015956	-0.024921	99
Es	0.141050	1.930461	0.009412	99
Es	1.794081	-0.625235	-0.280594	99
Es	-1.950740	-0.986869	0.583542	99
Es	1.794909	-0.625956	0.267640	99
Es	1.834958	0.109119	-0.001809	99
Es	1.219524	0.439045	0.006425	99
Es	2.057879	-1.500786	-0.006857	99
Es	2.469945	0.466223	-0.000139	99
Es	-0.297666	-0.431075	-0.001544	99
Es	1.806377	-1.226175	-0.008023	99
Es	-1.010413	-0.515477	-0.001971	99
Es	0.323145	0.102817	-0.169624	99
Es	0.179073	-1.122522	-0.021126	99
Es	0.095327	0.136779	0.165153	99
Es	0.305370	1.425089	0.012663	99
Es	0.563597	2.249743	0.014027	99
38
Properties=species:S:1:pos:R:3:Z:I:1 energy=-358.607847576585 field_type=dipole dipole="0.000000 0.000000 0.000000" charge=0
C	-1.757904	-0.613068	-0.000609	6
C	-0.297744	-0.430808	-0.001539	6
C	0.540746	0.650022	0.002391	6
O	0.140516	1.930732	0.008831	8
C	1.834936	0.109132	-0.001809	6
N	1.806886	-1.226638	-0.008029	7
O	0.458406	-1.566898	-0.007899	8
H	-2.277724	0.349672	0.011771	1
H	-2.072844	-1.179998	0.880711	1
H	-2.076374	-1.159248	-0.893689	1
H	0.908786	2.528252	0.010591	1
H	2.792316	0.608852	-0.000719	1
Es	1.017551	-1.389703	-0.000975	99
Es	1.834958	0.109119	-0.001809	99
Es	0.343664	-1.877047	-0.010529	99
Es	1.795144	-0.625710	0.267216	99
Es	0.563625	2.249674	0.014328	99
Es	0.324271	0.102523	-0.165706	99
Es	0.305306	1.425009	0.011199	99
Es	2.057884	-1.500653	-0.006482	99
Es	2.469927	0.466259	-0.000193	99
Es	-1.757814	-0.613052	-0.000609	99
Es	-1.956050	-0.979084	-0.593301	99
Es	-0.297666	-0.431075	-0.001543	99
Es	0.540706	0.650311	0.002397	99
Es	-2.099166	0.032060	0.007624	99
Es	1.793784	-0.625366	-0.280683	99
Es	1.806378	-1.226176	-0.008026	99
Es	0.461538	-1.443319	0.002246	99
Es	-1.010395	-0.515530	-0.001968	99
Es	0.458537	-1.566438	-0.007801	99
Es	-1.951164	-0.987583	0.583691	99
Es	1.219463	0.438975	0.006354	99
Es	0.178944	1.892446	0.035748	99
Es	0.179318	-1.122805	-0.020525	99
Es	0.140993	1.930524	0.008467	99
Es	-0.142031	2.016054	-0.026937	99
Es	0.094366	0.136945	0.161451	99
38
Properties=species:S:1:pos:R:3:Z:I:1 energy=-358.607847576585 field_type=dipole dipole="0.000000 0.000000 0.000000" charge=0
C	-1.757904	-0.613068	-0.000609	6
C	-0.297744	-0.430808	-0.001539	6
C	0.540746	0.650022	0.002391	6
O	0.140516	1.930732	0.008831	8
C	1.834936	0.109132	-0.001809	6
N	1.806886	-1.226638	-0.008029	7
O	0.458406	-1.566898	-0.007899	8
H	-2.277724	0.349672	0.011771	1
H	-2.072844	-1.179998	0.880711	1
H	-2.076374	-1.159248	-0.893689	1
H	0.908786	2.528252	0.010591	1
H	2.792316	0.608852	-0.000719	1
Es	0.563471	2.249876	0.014789	99
Es	0.325018	0.102252	-0.163088	99
Es	2.058020	-1.500670	-0.006652	99
Es	0.458541	-1.566457	-0.007883	99
Es	0.540706	0.650313	0.002398	99
Es	0.461557	-1.443363	0.001590	99
Es	-1.956138	-0.979103	-0.593547	99
Es	0.174050	1.897884	0.019667	99
Es	-0.142308	2.016173	-0.020517	99
Es	2.469886	0.466315	-0.000115	99
Es	-2.099125	0.032016	0.007881	99
Es	1.793877	-0.625199	-0.280375	99
Es	1.219485	0.438952	0.005915	99
Es	-0.297666	-0.431076	-0.001545	99
Es	0.304865	1.424996	0.013756	99
Es	0.093791	0.136990	0.158872	99
Es	0.179302	-1.122597	-0.020458	99
Es	0.343683	-1.877080	-0.010800	99
Es	1.017466	-1.389830	0.000115	99
Es	1.834958	0.109119	-0.001804	99
Es	0.146751	1.924779	0.015080	99
Es	-1.010463	-0.515457	-0.002083	99
Es	-1.757816	-0.613053	-0.000609	99
Es	1.806363	-1.226188	-0.008023	99
Es	-1.951063	-0.987598	0.583589	99
Es	1.794861	-0.625641	0.267483	99
38
Properties=species:S:1:pos:R:3:Z:I:1 energy=-358.607847576585 field_type=dipole dipole="0.000000 0.000000 0.000000" charge=0
C	-1.757904	-0.613068	-0.000609	6
C	-0.297744	-0.430808	-0.001539	6
C	0.540746	0.650022	0.002391	6
O	0.140516	1.930732	0.008831	8
C	1.834936	0.109132	-0.001809	6
N	1.806886	-1.226638	-0.008029	7
O	0.458406	-1.566898	-0.007899	8
H	-2.277724	0.349672	0.011771	1
H	-2.072844	-1.179998	0.880711	1
H	-2.076374	-1.159248	-0.893689	1
H	0.908786	2.528252	0.010591	1
H	2.792316	0.608852	-0.000719	1
Es	0.326715	0.102144	-0.156758	99
Es	1.834957	0.109119	-0.001809	99
Es	-1.956124	-0.979019	-0.593557	99
Es	0.092240	0.137289	0.152577	99
Es	0.140939	1.930571	0.008790	99
Es	1.806360	-1.226199	-0.008023	99
Es	0.540707	0.650319	0.002400	99
Es	2.469824	0.466432	-0.000175	99
Es	-1.010447	-0.515293	-0.002109	99
Es	0.458532	-1.566179	-0.008279	99
Es	0.563300	2.250056	0.015294	99
Es	1.219652	0.438874	0.005802	99
Es	0.179687	1.892161	0.028076	99
Es	1.017584	-1.389981	-0.000547	99
Es	0.461413	-1.443596	0.001280	99
Es	0.304591	1.424816	0.012407	99
Es	-1.951219	-0.987673	0.583937	99
Es	1.794124	-0.625282	-0.280764	99
Es	-0.297666	-0.431076	-0.001545	99
Es	-2.098968	0.031802	0.007677	99
Es	-0.141701	2.016087	-0.021770	99
Es	0.343461	-1.877018	-0.010028	99
Es	-1.757813	-0.613053	-0.000610	99
Es	2.057596	-1.500478	-0.007041	99
Es	0.179469	-1.122624	-0.019867	99
Es	1.794859	-0.625842	0.268275	99
