40
Properties=species:S:1:pos:R:3:Z:I:1 energy=-322.76085573831665 field_type=dipole dipole="0.000000 0.000000 0.000000" charge=0
C	-0.811640	-2.334751	-0.531069	6
C	-0.886180	-0.997341	-0.552809	6
C	-0.126080	-0.087211	0.303131	6
C	1.270320	0.270429	-0.059499	6
N	0.195170	1.202339	-0.239709	7
C	0.108530	2.329889	0.561961	6
O	0.397979	2.417019	1.747681	8
H	-1.418330	-2.936971	-1.199919	1
H	-0.147940	-2.853451	0.153541	1
H	-1.577650	-0.538641	-1.258099	1
H	-0.401500	-0.088491	1.353701	1
H	1.696410	-0.077651	-0.990049	1
H	1.970280	0.508819	0.731231	1
H	-0.269370	3.186009	-0.020089	1
Es	1.557532	0.030914	-0.684886	99
Es	0.108549	2.329765	0.561898	99
Es	-0.811628	-2.334846	-0.531061	99
Es	-0.125982	-0.086992	0.302987	99
Es	1.270071	0.270584	-0.059510	99
Es	-1.081950	-1.679656	-0.314389	99
Es	-0.071029	0.730859	0.034507	99
Es	0.733753	0.938062	-0.169637	99
Es	-1.219037	-2.746379	-0.979423	99
Es	0.353939	2.698738	1.863336	99
Es	-0.506675	-0.533993	-0.127843	99
Es	-1.348820	-0.678141	-1.023912	99
Es	0.057417	2.322666	1.387583	99
Es	-0.609165	-1.661630	-0.764193	99
Es	0.091513	1.253416	-0.578469	99
Es	0.195375	1.202167	-0.239076	99
Es	-0.362500	-2.691149	-0.068892	99
Es	0.532035	2.448265	1.262375	99
Es	-0.886186	-0.997237	-0.552777	99
Es	-0.149025	2.912845	0.166049	99
Es	0.173453	1.665352	0.144177	99
Es	0.637346	-0.121127	0.179764	99
Es	0.499821	2.142448	1.858174	99
Es	0.397898	2.416990	1.747349	99
Es	1.741228	0.427992	0.470953	99
Es	-0.309213	-0.092956	1.001705	99
40
Properties=species:S:1:pos:R:3:Z:I:1 energy=-322.76085573831665 field_type=dipole dipole="0.000000 0.000000 0.000000" charge=0
C	-0.811640	-2.334751	-0.531069	6
C	-0.886180	-0.997341	-0.552809	6
C	-0.126080	-0.087211	0.303131	6
C	1.270320	0.270429	-0.059499	6
N	0.195170	1.202339	-0.239709	7
C	0.108530	2.329889	0.561961	6
O	0.397979	2.417019	1.747681	8
H	-1.418330	-2.936971	-1.199919	1
H	-0.147940	-2.853451	0.153541	1
H	-1.577650	-0.538641	-1.258099	1
H	-0.401500	-0.088491	1.353701	1
H	1.696410	-0.077651	-0.990049	1
H	1.970280	0.508819	0.731231	1
H	-0.269370	3.186009	-0.020089	1
Es	-0.506224	-0.534958	-0.127952	99
Es	0.195371	1.202161	-0.239091	99
Es	0.635859	-0.122089	0.181275	99
Es	0.500044	2.138814	1.860673	99
Es	-0.608714	-1.661699	-0.764168	99
Es	0.527334	2.445039	1.263779	99
Es	0.063357	2.324093	1.386321	99
Es	-1.082400	-1.679764	-0.314256	99
Es	-0.811631	-2.334843	-0.531058	99
Es	1.740850	0.427609	0.470021	99
Es	-0.308197	-0.093493	1.001263	99
Es	1.557455	0.030758	-0.684090	99
Es	-0.125990	-0.086987	0.302986	99
Es	-0.069620	0.729836	0.034340	99
Es	1.270074	0.270586	-0.059511	99
Es	-1.348306	-0.678224	-1.024057	99
Es	-1.218988	-2.746333	-0.979434	99
Es	-0.148702	2.913291	0.165949	99
Es	0.352229	2.704218	1.860443	99
Es	0.108533	2.329761	0.561907	99
Es	-0.362873	-2.691228	-0.068682	99
Es	0.730600	0.941198	-0.170273	99
Es	0.093522	1.250710	-0.577478	99
Es	0.173412	1.668751	0.143374	99
Es	-0.886167	-0.997224	-0.552789	99
Es	0.397892	2.416977	1.747300	99
40
Properties=species:S:1:pos:R:3:Z:I:1 energy=-322.76085573831665 field_type=dipole dipole="0.000000 0.000000 0.000000" charge=0
C	-0.811640	-2.334751	-0.531069	6
C	-0.886180	-0.997341	-0.552809	6
C	-0.126080	-0.087211	0.303131	6
C	1.270320	0.270429	-0.059499	6
N	0.195170	1.202339	-0.239709	7
C	0.108530	2.329889	0.561961	6
O	0.397979	2.417019	1.747681	8
H	-1.418330	-2.936971	-1.199919	1
H	-0.147940	-2.853451	0.153541	1
H	-1.577650	-0.538641	-1.258099	1
H	-0.401500	-0.088491	1.353701	1
H	1.696410	-0.077651	-0.990049	1
H	1.970280	0.508819	0.731231	1
H	-0.269370	3.186009	-0.020089	1
Es	-0.125986	-0.086984	0.302987	99
Es	0.172864	1.671105	0.142434	99
Es	-0.608525	-1.661721	-0.764100	99
Es	-0.068603	0.727914	0.034158	99
Es	1.270070	0.270586	-0.059511	99
Es	0.634773	-0.122317	0.182122	99
Es	0.095780	1.248781	-0.576803	99
Es	0.500318	2.134573	1.858623	99
Es	-0.505960	-0.535606	-0.127978	99
Es	0.195383	1.202166	-0.239046	99
Es	-1.348010	-0.678283	-1.024222	99
Es	-0.811634	-2.334846	-0.531056	99
Es	1.740535	0.427245	0.469508	99
Es	-0.148608	2.913573	0.165977	99
Es	1.557374	0.030511	-0.683583	99
Es	0.353595	2.708037	1.860887	99
Es	0.728168	0.944337	-0.170216	99
Es	0.066659	2.326445	1.385378	99
Es	0.108546	2.329765	0.561900	99
Es	-0.886175	-0.997227	-0.552782	99
Es	-1.218703	-2.746308	-0.979424	99
Es	-1.082914	-1.679827	-0.314075	99
Es	0.397910	2.416991	1.747392	99
Es	0.522284	2.443128	1.265965	99
Es	-0.307488	-0.093814	1.000917	99
Es	-0.362935	-2.691268	-0.068662	99
40
Properties=species:S:1:pos:R:3:Z:I:1 energy=-322.76085573831665 field_type=dipole dipole="0.000000 0.000000 0.000000" charge=0
C	-0.811640	-2.334751	-0.531069	6
C	-0.886180	-0.997341	-0.552809	6
C	-0.126080	-0.087211	0.303131	6
C	1.270320	0.270429	-0.059499	6
N	0.195170	1.202339	-0.239709	7
C	0.108530	2.329889	0.561961	6
O	0.397979	2.417019	1.747681	8
H	-1.418330	-2.936971	-1.199919	1
H	-0.147940	-2.853451	0.153541	1
H	-1.577650	-0.538641	-1.258099	1
H	-0.401500	-0.088491	1.353701	1
H	1.696410	-0.077651	-0.990049	1
H	1.970280	0.508819	0.731231	1
H	-0.269370	3.186009	-0.020089	1
Es	0.353369	2.710224	1.859984	99
Es	-0.886165	-0.997224	-0.552791	99
Es	-0.362947	-2.691288	-0.068532	99
Es	-0.148494	2.913806	0.165953	99
Es	-0.608508	-1.661799	-0.764132	99
Es	0.397897	2.416977	1.747422	99
Es	0.070087	2.328593	1.384294	99
Es	0.520082	2.441877	1.267553	99
Es	-0.307008	-0.094029	1.000600	99
Es	-1.347993	-0.678350	-1.024198	99
Es	0.108548	2.329765	0.561898	99
Es	0.499254	2.131515	1.858765	99
Es	0.634048	-0.122694	0.182805	99
Es	0.726571	0.946106	-0.170895	99
Es	1.740267	0.427033	0.469023	99
Es	-0.125987	-0.086978	0.302982	99
Es	0.096900	1.247885	-0.575623	99
Es	-0.811634	-2.334847	-0.531056	99
Es	1.557318	0.030551	-0.683088	99
Es	0.195377	1.202162	-0.239084	99
Es	0.172960	1.672499	0.142152	99
Es	-1.218761	-2.746280	-0.979402	99
Es	-0.505717	-0.536115	-0.127960	99
Es	-0.068057	0.726802	0.033866	99
Es	-1.082756	-1.679818	-0.314238	99
Es	1.270068	0.270585	-0.059509	99
40
Properties=species:S:1:pos:R:3:Z:I:1 energy=-322.76085573831665 field_type=dipole dipole="0.000000 0.000000 0.000000" charge=0
C	-0.811640	-2.334751	-0.531069	6
C	-0.886180	-0.997341	-0.552809	6
C	-0.126080	-0.087211	0.303131	6
C	1.270320	0.270429	-0.059499	6
N	0.195170	1.202339	-0.239709	7
C	0.108530	2.329889	0.561961	6
O	0.397979	2.417019	1.747681	8
H	-1.418330	-2.936971	-1.199919	1
H	-0.147940	-2.853451	0.153541	1
H	-1.577650	-0.538641	-1.258099	1
H	-0.401500	-0.088491	1.353701	1
H	1.696410	-0.077651	-0.990049	1
H	1.970280	0.508819	0.731231	1
H	-0.269370	3.186009	-0.020089	1
Es	0.108551	2.329768	0.561899	99
Es	0.354750	2.712438	1.859136	99
Es	1.740052	0.426895	0.468604	99
Es	0.725726	0.947783	-0.171206	99
Es	-0.066685	0.726112	0.034314	99
Es	-0.125987	-0.087002	0.302988	99
Es	1.557257	0.030523	-0.682791	99
Es	0.097208	1.246217	-0.574919	99
Es	1.270061	0.270591	-0.059508	99
Es	-0.505519	-0.536587	-0.128031	99
Es	0.071621	2.330182	1.384409	99
Es	-0.811634	-2.334844	-0.531057	99
Es	0.195381	1.202165	-0.239055	99
Es	0.172284	1.673955	0.141271	99
Es	-0.148307	2.913957	0.165977	99
Es	-0.362959	-2.691303	-0.068490	99
Es	-1.082879	-1.679868	-0.314238	99
Es	-0.306570	-0.094194	1.000284	99
Es	0.633460	-0.122777	0.183399	99
Es	-0.886165	-0.997227	-0.552797	99
Es	-1.218680	-2.746259	-0.979504	99
Es	0.516895	2.440274	1.268769	99
Es	-1.347886	-0.678383	-1.024322	99
Es	0.397916	2.416985	1.747415	99
Es	0.499289	2.129350	1.858140	99
Es	-0.608460	-1.661796	-0.763899	99
40
Properties=species:S:1:pos:R:3:Z:I:1 energy=-322.76085573831665 field_type=dipole dipole="0.000000 0.000000 0.000000" charge=0
C	-0.811640	-2.334751	-0.531069	6
C	-0.886180	-0.997341	-0.552809	6
C	-0.126080	-0.087211	0.303131	6
C	1.270320	0.270429	-0.059499	6
N	0.195170	1.202339	-0.239709	7
C	0.108530	2.329889	0.561961	6
O	0.397979	2.417019	1.747681	8
H	-1.418330	-2.936971	-1.199919	1
H	-0.147940	-2.853451	0.153541	1
H	-1.577650	-0.538641	-1.258099	1
H	-0.401500	-0.088491	1.353701	1
H	1.696410	-0.077651	-0.990049	1
H	1.970280	0.508819	0.731231	1
H	-0.269370	3.186009	-0.020089	1
Es	1.270068	0.270586	-0.059509	99
Es	-0.811634	-2.334845	-0.531056	99
Es	0.073986	2.332079	1.384371	99
Es	0.514257	2.440360	1.269803	99
Es	0.195384	1.202149	-0.239071	99
Es	-1.347855	-0.678373	-1.024275	99
Es	0.098131	1.245590	-0.574336	99
Es	-1.218546	-2.746116	-0.979575	99
Es	0.397916	2.416982	1.747388	99
Es	0.355177	2.713464	1.860107	99
Es	-0.362924	-2.691442	-0.068513	99
Es	0.108567	2.329770	0.561894	99
Es	-0.148302	2.914087	0.165995	99
Es	-0.886166	-0.997223	-0.552790	99
Es	-0.608417	-1.661806	-0.763869	99
Es	-0.306330	-0.094267	1.000034	99
Es	-0.505355	-0.536952	-0.128070	99
Es	-1.083052	-1.679900	-0.314208	99
Es	0.632999	-0.122796	0.183866	99
Es	0.724692	0.948951	-0.171262	99
Es	0.499177	2.126350	1.856030	99
Es	-0.125988	-0.086994	0.302988	99
Es	0.172211	1.674819	0.140842	99
Es	-0.066349	0.725331	0.034205	99
Es	1.739930	0.426718	0.468350	99
Es	1.557141	0.030435	-0.682548	99
40
Properties=species:S:1:pos:R:3:Z:I:1 energy=-322.76085573831665 field_type=dipole dipole="0.000000 0.000000 0.000000" charge=0
C	-0.811640	-2.334751	-0.531069	6
C	-0.886180	-0.997341	-0.552809	6
C	-0.126080	-0.087211	0.303131	6
C	1.270320	0.270429	-0.059499	6
N	0.195170	1.202339	-0.239709	7
C	0.108530	2.329889	0.561961	6
O	0.397979	2.417019	1.747681	8
H	-1.418330	-2.936971	-1.199919	1
H	-0.147940	-2.853451	0.153541	1
H	-1.577650	-0.538641	-1.258099	1
H	-0.401500	-0.088491	1.353701	1
H	1.696410	-0.077651	-0.990049	1
H	1.970280	0.508819	0.731231	1
H	-0.269370	3.186009	-0.020089	1
Es	0.098022	1.244787	-0.573726	99
Es	-0.811632	-2.334843	-0.531057	99
Es	0.723753	0.950751	-0.172087	99
Es	0.108552	2.329766	0.561897	99
Es	0.195380	1.202163	-0.239059	99
Es	0.632568	-0.122838	0.184240	99
Es	-0.148418	2.914167	0.166014	99
Es	0.397893	2.417005	1.747337	99
Es	-0.306083	-0.094314	0.999794	99
Es	0.352758	2.715753	1.857035	99
Es	-0.505142	-0.537350	-0.128029	99
Es	0.076753	2.330803	1.382938	99
Es	-0.125990	-0.086982	0.302984	99
Es	0.172008	1.675565	0.140577	99
Es	1.270069	0.270584	-0.059508	99
Es	0.514193	2.438855	1.271462	99
Es	1.557121	0.030372	-0.682253	99
Es	0.499106	2.126853	1.858748	99
Es	1.739733	0.426593	0.468151	99
Es	-0.362833	-2.691380	-0.068522	99
Es	-1.347907	-0.678349	-1.024264	99
Es	-0.064974	0.724119	0.034593	99
Es	-0.886165	-0.997222	-0.552790	99
Es	-0.608521	-1.661811	-0.763744	99
Es	-1.218454	-2.746166	-0.979667	99
Es	-1.083073	-1.679923	-0.314275	99
40
Properties=species:S:1:pos:R:3:Z:I:1 energy=-322.76085573831665 field_type=dipole dipole="0.000000 0.000000 0.000000" charge=0
C	-0.811640	-2.334751	-0.531069	6
C	-0.886180	-0.997341	-0.552809	6
C	-0.126080	-0.087211	0.303131	6
C	1.270320	0.270429	-0.059499	6
N	0.195170	1.202339	-0.239709	7
C	0.108530	2.329889	0.561961	6
O	0.397979	2.417019	1.747681	8
H	-1.418330	-2.936971	-1.199919	1
H	-0.147940	-2.853451	0.153541	1
H	-1.577650	-0.538641	-1.258099	1
H	-0.401500	-0.088491	1.353701	1
H	1.696410	-0.077651	-0.990049	1
H	1.970280	0.508819	0.731231	1
H	-0.269370	3.186009	-0.020089	1
Es	-0.064924	0.724012	0.034573	99
Es	0.108542	2.329763	0.561898	99
Es	-0.148262	2.914271	0.166001	99
Es	0.172122	1.676166	0.140223	99
Es	-1.082874	-1.679827	-0.314182	99
Es	-1.347947	-0.678425	-1.024230	99
Es	0.723141	0.951057	-0.172002	99
Es	0.397906	2.416958	1.747328	99
Es	0.098541	1.244330	-0.573418	99
Es	-0.608283	-1.661904	-0.764044	99
Es	0.510929	2.440067	1.272611	99
Es	0.354272	2.715649	1.859540	99
Es	0.077182	2.332599	1.383193	99
Es	-0.886167	-0.997222	-0.552788	99
Es	-0.811631	-2.334844	-0.531058	99
Es	1.270064	0.270591	-0.059510	99
Es	0.632306	-0.122935	0.184571	99
Es	0.500253	2.123964	1.854785	99
Es	-0.362958	-2.691469	-0.068475	99
Es	-0.125986	-0.086985	0.302984	99
Es	-0.505165	-0.537464	-0.128053	99
Es	0.195383	1.202163	-0.239049	99
Es	-1.218532	-2.746097	-0.979504	99
Es	1.739629	0.426606	0.467786	99
Es	1.557033	0.030353	-0.682129	99
Es	-0.305854	-0.094422	0.999739	99
40
Properties=species:S:1:pos:R:3:Z:I:1 energy=-322.76085573831665 field_type=dipole dipole="0.000000 0.000000 0.000000" charge=0
C	-0.811640	-2.334751	-0.531069	6
C	-0.886180	-0.997341	-0.552809	6
C	-0.126080	-0.087211	0.303131	6
C	1.270320	0.270429	-0.059499	6
N	0.195170	1.202339	-0.239709	7
C	0.108530	2.329889	0.561961	6
O	0.397979	2.417019	1.747681	8
H	-1.418330	-2.936971	-1.199919	1
H	-0.147940	-2.853451	0.153541	1
H	-1.577650	-0.538641	-1.258099	1
H	-0.401500	-0.088491	1.353701	1
H	1.696410	-0.077651	-0.990049	1
H	1.970280	0.508819	0.731231	1
H	-0.269370	3.186009	-0.020089	1
Es	-0.125984	-0.086980	0.302983	99
Es	1.739598	0.426383	0.467836	99
Es	0.108555	2.329768	0.561898	99
Es	-1.347913	-0.678439	-1.024251	99
Es	-0.608350	-1.661903	-0.763885	99
Es	0.632075	-0.122828	0.184531	99
Es	0.397918	2.416983	1.747461	99
Es	0.171442	1.676916	0.139517	99
Es	0.195385	1.202158	-0.239044	99
Es	0.353742	2.717664	1.856722	99
Es	-0.886165	-0.997223	-0.552790	99
Es	-0.148285	2.914327	0.166027	99
Es	1.270066	0.270589	-0.059510	99
Es	0.510395	2.438101	1.273120	99
Es	-0.064430	0.723207	0.034642	99
Es	-0.305628	-0.094500	0.999582	99
Es	-1.218435	-2.746030	-0.979624	99
Es	-1.082952	-1.679864	-0.314301	99
Es	0.099516	1.243532	-0.573171	99
Es	0.499763	2.124180	1.856774	99
Es	1.556965	0.030331	-0.681989	99
Es	0.722335	0.952251	-0.171553	99
Es	-0.362869	-2.691512	-0.068402	99
Es	0.078760	2.332309	1.383288	99
Es	-0.811633	-2.334845	-0.531058	99
Es	-0.505150	-0.537619	-0.128012	99
40
Properties=species:S:1:pos:R:3:Z:I:1 energy=-322.76085573831665 field_type=dipole dipole="0.000000 0.000000 0.000000" charge=0
C	-0.811640	-2.334751	-0.531069	6
C	-0.886180	-0.997341	-0.552809	6
C	-0.126080	-0.087211	0.303131	6
C	1.270320	0.270429	-0.059499	6
N	0.195170	1.202339	-0.239709	7
C	0.108530	2.329889	0.561961	6
O	0.397979	2.417019	1.747681	8
H	-1.418330	-2.936971	-1.199919	1
H	-0.147940	-2.853451	0.153541	1
H	-1.577650	-0.538641	-1.258099	1
H	-0.401500	-0.088491	1.353701	1
H	1.696410	-0.077651	-0.990049	1
H	1.970280	0.508819	0.731231	1
H	-0.269370	3.186009	-0.020089	1
Es	1.557041	0.030397	-0.681859	99
Es	1.739397	0.426297	0.467723	99
Es	-1.083151	-1.679932	-0.314227	99
Es	-0.305552	-0.094505	0.999515	99
Es	0.171654	1.677171	0.139573	99
Es	-0.886166	-0.997224	-0.552791	99
Es	-0.362774	-2.691579	-0.068556	99
Es	-0.608389	-1.661831	-0.763630	99
Es	0.631779	-0.122850	0.184729	99
Es	0.499711	2.123657	1.857171	99
Es	0.721894	0.952694	-0.171878	99
Es	0.108542	2.329763	0.561898	99
Es	-0.504924	-0.537928	-0.128048	99
Es	-1.347953	-0.678391	-1.024325	99
Es	0.079434	2.332873	1.384029	99
Es	-0.811634	-2.334845	-0.531056	99
Es	0.397911	2.416954	1.747372	99
Es	0.195377	1.202165	-0.239070	99
Es	0.354513	2.718813	1.855524	99
Es	1.270066	0.270588	-0.059509	99
Es	-0.125985	-0.086983	0.302984	99
Es	-1.218263	-2.745962	-0.979734	99
Es	0.508923	2.436924	1.273200	99
Es	-0.064098	0.722862	0.034482	99
Es	0.099604	1.243425	-0.572773	99
Es	-0.148239	2.914404	0.166044	99
40
Properties=species:S:1:pos:R:3:Z:I:1 energy=-322.76085573831665 field_type=dipole dipole="0.000000 0.000000 0.000000" charge=0
C	-0.811640	-2.334751	-0.531069	6
C	-0.886180	-0.997341	-0.552809	6
C	-0.126080	-0.087211	0.303131	6
C	1.270320	0.270429	-0.059499	6
N	0.195170	1.202339	-0.239709	7
C	0.108530	2.329889	0.561961	6
O	0.397979	2.417019	1.747681	8
H	-1.418330	-2.936971	-1.199919	1
H	-0.147940	-2.853451	0.153541	1
H	-1.577650	-0.538641	-1.258099	1
H	-0.401500	-0.088491	1.353701	1
H	1.696410	-0.077651	-0.990049	1
H	1.970280	0.508819	0.731231	1
H	-0.269370	3.186009	-0.020089	1
Es	-0.125983	-0.086977	0.302981	99
Es	-0.305448	-0.094575	0.999443	99
Es	-0.811633	-2.334845	-0.531061	99
Es	0.721447	0.953612	-0.172317	99
Es	-0.362833	-2.691508	-0.068451	99
Es	1.556988	0.030253	-0.681793	99
Es	1.739325	0.426237	0.467612	99
Es	0.397938	2.416989	1.747454	99
Es	0.080003	2.333264	1.383779	99
Es	-0.063336	0.722267	0.035029	99
Es	0.354630	2.719287	1.855181	99
Es	1.270067	0.270589	-0.059509	99
Es	-1.218246	-2.746026	-0.979771	99
Es	0.500396	2.122613	1.856502	99
Es	-0.148187	2.914445	0.166038	99
Es	-0.886165	-0.997223	-0.552789	99
Es	0.108547	2.329765	0.561897	99
Es	0.171551	1.677894	0.138906	99
Es	0.507477	2.437038	1.274356	99
Es	-1.083168	-1.679919	-0.314331	99
Es	0.195383	1.202165	-0.239048	99
Es	-0.608304	-1.661867	-0.763656	99
Es	0.099479	1.242620	-0.572253	99
Es	-1.347888	-0.678396	-1.024315	99
Es	-0.504918	-0.537986	-0.127992	99
Es	0.631596	-0.122758	0.184900	99
40
Properties=species:S:1:pos:R:3:Z:I:1 energy=-322.76085573831665 field_type=dipole dipole="0.000000 0.000000 0.000000" charge=0
C	-0.811640	-2.334751	-0.531069	6
C	-0.886180	-0.997341	-0.552809	6
C	-0.126080	-0.087211	0.303131	6
C	1.270320	0.270429	-0.059499	6
N	0.195170	1.202339	-0.239709	7
C	0.108530	2.329889	0.561961	6
O	0.397979	2.417019	1.747681	8
H	-1.418330	-2.936971	-1.199919	1
H	-0.147940	-2.853451	0.153541	1
H	-1.577650	-0.538641	-1.258099	1
H	-0.401500	-0.088491	1.353701	1
H	1.696410	-0.077651	-0.990049	1
H	1.970280	0.508819	0.731231	1
H	-0.269370	3.186009	-0.020089	1
Es	-0.886166	-0.997221	-0.552788	99
Es	0.100430	1.242906	-0.572567	99
Es	1.270052	0.270598	-0.059511	99
Es	-0.148148	2.914522	0.166064	99
Es	0.356427	2.719971	1.855049	99
Es	0.397913	2.416995	1.747397	99
Es	0.195378	1.202157	-0.239069	99
Es	-0.504804	-0.538249	-0.128042	99
Es	-0.608349	-1.661859	-0.763636	99
Es	0.499326	2.121825	1.856068	99
Es	0.720954	0.953385	-0.171615	99
Es	-1.218184	-2.745907	-0.979746	99
Es	0.506419	2.435751	1.273561	99
Es	-1.347936	-0.678394	-1.024318	99
Es	0.108547	2.329765	0.561897	99
Es	1.739223	0.426140	0.467484	99
Es	-0.125987	-0.086983	0.302985	99
Es	-1.083210	-1.679938	-0.314284	99
Es	1.556971	0.030261	-0.681681	99
Es	-0.305296	-0.094571	0.999173	99
Es	0.171648	1.677830	0.139174	99
Es	-0.362749	-2.691625	-0.068497	99
Es	-0.811634	-2.334847	-0.531060	99
Es	0.080330	2.334648	1.385119	99
Es	-0.064024	0.722513	0.034530	99
Es	0.631587	-0.122713	0.185103	99
40
Properties=species:S:1:pos:R:3:Z:I:1 energy=-322.76085573831665 field_type=dipole dipole="0.000000 0.000000 0.000000" charge=0
C	-0.811640	-2.334751	-0.531069	6
C	-0.886180	-0.997341	-0.552809	6
C	-0.126080	-0.087211	0.303131	6
C	1.270320	0.270429	-0.059499	6
N	0.195170	1.202339	-0.239709	7
C	0.108530	2.329889	0.561961	6
O	0.397979	2.417019	1.747681	8
H	-1.418330	-2.936971	-1.199919	1
H	-0.147940	-2.853451	0.153541	1
H	-1.577650	-0.538641	-1.258099	1
H	-0.401500	-0.088491	1.353701	1
H	1.696410	-0.077651	-0.990049	1
H	1.970280	0.508819	0.731231	1
H	-0.269370	3.186009	-0.020089	1
Es	-0.305077	-0.094697	0.999261	99
Es	0.108544	2.329764	0.561898	99
Es	-0.062932	0.721337	0.035057	99
Es	0.100179	1.242206	-0.571856	99
Es	-1.218233	-2.745852	-0.979745	99
Es	-0.886171	-0.997223	-0.552784	99
Es	1.270075	0.270583	-0.059509	99
Es	-0.504792	-0.538296	-0.128054	99
Es	1.739232	0.425989	0.467529	99
Es	-0.608354	-1.661883	-0.763662	99
Es	0.195390	1.202159	-0.239020	99
Es	0.171378	1.678400	0.138605	99
Es	0.631272	-0.122401	0.184973	99
Es	1.556866	0.030127	-0.681676	99
Es	0.505692	2.437386	1.274781	99
Es	0.720481	0.954840	-0.172245	99
Es	-0.125988	-0.086984	0.302986	99
Es	-0.362721	-2.691682	-0.068535	99
Es	-1.347946	-0.678423	-1.024305	99
Es	-0.811629	-2.334845	-0.531060	99
Es	0.354686	2.719642	1.855933	99
Es	0.500781	2.121098	1.854946	99
Es	-1.083131	-1.679912	-0.314255	99
Es	0.081402	2.334119	1.384128	99
Es	-0.148190	2.914544	0.166060	99
Es	0.397905	2.416962	1.747340	99
40
Properties=species:S:1:pos:R:3:Z:I:1 energy=-322.76085573831665 field_type=dipole dipole="0.000000 0.000000 0.000000" charge=0
C	-0.811640	-2.334751	-0.531069	6
C	-0.886180	-0.997341	-0.552809	6
C	-0.126080	-0.087211	0.303131	6
C	1.270320	0.270429	-0.059499	6
N	0.195170	1.202339	-0.239709	7
C	0.108530	2.329889	0.561961	6
O	0.397979	2.417019	1.747681	8
H	-1.418330	-2.936971	-1.199919	1
H	-0.147940	-2.853451	0.153541	1
H	-1.577650	-0.538641	-1.258099	1
H	-0.401500	-0.088491	1.353701	1
H	1.696410	-0.077651	-0.990049	1
H	1.970280	0.508819	0.731231	1
H	-0.269370	3.186009	-0.020089	1
Es	-0.304993	-0.094690	0.999226	99
Es	0.631184	-0.122586	0.185144	99
Es	-0.362656	-2.691735	-0.068578	99
Es	1.556829	0.030214	-0.681607	99
Es	0.504932	2.435424	1.275341	99
Es	0.195385	1.202168	-0.239038	99
Es	0.099798	1.242484	-0.572165	99
Es	-0.608392	-1.661886	-0.763683	99
Es	-0.504703	-0.538439	-0.128044	99
Es	-0.062657	0.721578	0.034947	99
Es	0.397924	2.416992	1.747423	99
Es	-0.148146	2.914609	0.166086	99
Es	-1.083274	-1.679932	-0.314169	99
Es	-0.811632	-2.334845	-0.531058	99
Es	0.171455	1.678067	0.139087	99
Es	-0.125986	-0.086984	0.302984	99
Es	0.356788	2.720944	1.855058	99
Es	0.081581	2.335398	1.384392	99
Es	1.270061	0.270591	-0.059511	99
Es	0.108542	2.329764	0.561902	99
Es	0.499160	2.120407	1.854859	99
Es	-1.218139	-2.745796	-0.979725	99
Es	-0.886164	-0.997222	-0.552789	99
Es	-1.347934	-0.678372	-1.024296	99
Es	1.739190	0.426009	0.467316	99
Es	0.720567	0.954792	-0.172312	99
40
Properties=species:S:1:pos:R:3:Z:I:1 energy=-322.76085573831665 field_type=dipole dipole="0.000000 0.000000 0.000000" charge=0
C	-0.811640	-2.334751	-0.531069	6
C	-0.886180	-0.997341	-0.552809	6
C	-0.126080	-0.087211	0.303131	6
C	1.270320	0.270429	-0.059499	6
N	0.195170	1.202339	-0.239709	7
C	0.108530	2.329889	0.561961	6
O	0.397979	2.417019	1.747681	8
H	-1.418330	-2.936971	-1.199919	1
H	-0.147940	-2.853451	0.153541	1
H	-1.577650	-0.538641	-1.258099	1
H	-0.401500	-0.088491	1.353701	1
H	1.696410	-0.077651	-0.990049	1
H	1.970280	0.508819	0.731231	1
H	-0.269370	3.186009	-0.020089	1
Es	-0.062291	0.721146	0.034996	99
Es	-0.608304	-1.661893	-0.763517	99
Es	0.108533	2.329763	0.561905	99
Es	0.504354	2.435697	1.275791	99
Es	0.099942	1.242265	-0.571782	99
Es	0.499726	2.120038	1.854731	99
Es	-1.347965	-0.678422	-1.024363	99
Es	-0.305028	-0.094674	0.999122	99
Es	-0.504798	-0.538437	-0.128027	99
Es	1.556804	0.030172	-0.681508	99
Es	0.397891	2.416983	1.747323	99
Es	-1.218068	-2.745785	-0.979859	99
Es	-0.148158	2.914589	0.166081	99
Es	0.720169	0.955298	-0.172575	99
Es	0.631127	-0.122692	0.185349	99
Es	0.355982	2.721289	1.854861	99
Es	-1.083217	-1.679920	-0.314282	99
Es	-0.125982	-0.086974	0.302981	99
Es	1.739138	0.425993	0.467248	99
Es	0.195382	1.202166	-0.239058	99
Es	1.270056	0.270599	-0.059503	99
Es	-0.886165	-0.997222	-0.552789	99
Es	0.082502	2.335205	1.384332	99
Es	0.171443	1.678353	0.138868	99
Es	-0.811631	-2.334844	-0.531058	99
Es	-0.362723	-2.691736	-0.068478	99
40
Properties=species:S:1:pos:R:3:Z:I:1 energy=-322.76085573831665 field_type=dipole dipole="0.000000 0.000000 0.000000" charge=0
C	-0.811640	-2.334751	-0.531069	6
C	-0.886180	-0.997341	-0.552809	6
C	-0.126080	-0.087211	0.303131	6
C	1.270320	0.270429	-0.059499	6
N	0.195170	1.202339	-0.239709	7
C	0.108530	2.329889	0.561961	6
O	0.397979	2.417019	1.747681	8
H	-1.418330	-2.936971	-1.199919	1
H	-0.147940	-2.853451	0.153541	1
H	-1.577650	-0.538641	-1.258099	1
H	-0.401500	-0.088491	1.353701	1
H	1.696410	-0.077651	-0.990049	1
H	1.970280	0.508819	0.731231	1
H	-0.269370	3.186009	-0.020089	1
Es	0.195373	1.202167	-0.239119	99
Es	-0.811633	-2.334845	-0.531057	99
Es	0.504812	2.435301	1.276993	99
Es	0.719832	0.955351	-0.172567	99
Es	0.100063	1.241843	-0.571505	99
Es	0.083403	2.334113	1.383042	99
Es	-0.304876	-0.094713	0.999063	99
Es	-0.608354	-1.661911	-0.763622	99
Es	-1.218159	-2.745823	-0.979787	99
Es	0.499915	2.120741	1.856294	99
Es	-0.886165	-0.997220	-0.552788	99
Es	-0.362661	-2.691696	-0.068485	99
Es	1.739012	0.425995	0.467186	99
Es	1.556880	0.030189	-0.681466	99
Es	-1.347979	-0.678407	-1.024306	99
Es	-0.504648	-0.538632	-0.128013	99
Es	0.108544	2.329764	0.561896	99
Es	-0.125990	-0.086979	0.302982	99
Es	1.270059	0.270591	-0.059509	99
Es	-0.062325	0.721197	0.035222	99
Es	-0.148254	2.914632	0.166119	99
Es	0.171617	1.678790	0.138447	99
Es	-1.083123	-1.679916	-0.314317	99
Es	0.397908	2.416984	1.747406	99
Es	0.354470	2.722026	1.853269	99
Es	0.630998	-0.122587	0.185412	99
40
Properties=species:S:1:pos:R:3:Z:I:1 energy=-322.76085573831665 field_type=dipole dipole="0.000000 0.000000 0.000000" charge=0
C	-0.811640	-2.334751	-0.531069	6
C	-0.886180	-0.997341	-0.552809	6
C	-0.126080	-0.087211	0.303131	6
C	1.270320	0.270429	-0.059499	6
N	0.195170	1.202339	-0.239709	7
C	0.108530	2.329889	0.561961	6
O	0.397979	2.417019	1.747681	8
H	-1.418330	-2.936971	-1.199919	1
H	-0.147940	-2.853451	0.153541	1
H	-1.577650	-0.538641	-1.258099	1
H	-0.401500	-0.088491	1.353701	1
H	1.696410	-0.077651	-0.990049	1
H	1.970280	0.508819	0.731231	1
H	-0.269370	3.186009	-0.020089	1
Es	-0.811634	-2.334845	-0.531056	99
Es	0.356261	2.721847	1.854406	99
Es	-0.886165	-0.997220	-0.552787	99
Es	-0.304752	-0.094677	0.998936	99
Es	-1.083087	-1.679896	-0.314326	99
Es	0.170943	1.678869	0.138485	99
Es	0.108547	2.329765	0.561897	99
Es	1.556735	0.030136	-0.681448	99
Es	0.719305	0.956206	-0.172106	99
Es	0.083233	2.335521	1.385884	99
Es	-0.148163	2.914637	0.166095	99
Es	0.631050	-0.122553	0.185373	99
Es	0.397902	2.416956	1.747321	99
Es	0.195387	1.202165	-0.239034	99
Es	-0.362617	-2.691694	-0.068477	99
Es	-0.061997	0.720380	0.034874	99
Es	1.739120	0.425910	0.467192	99
Es	0.500364	2.119515	1.854320	99
Es	-0.504780	-0.538666	-0.127925	99
Es	-0.125986	-0.086989	0.302987	99
Es	0.502660	2.435351	1.275065	99
Es	1.270061	0.270588	-0.059511	99
Es	-1.348037	-0.678399	-1.024333	99
Es	-0.608417	-1.661930	-0.763584	99
Es	-1.218104	-2.745817	-0.979804	99
Es	0.100890	1.241797	-0.571654	99
