45
Properties=species:S:1:pos:R:3:Z:I:1 energy=-288.10608638040776 field_type=dipole dipole="0.000000 0.000000 0.000000" charge=0
C	-1.329823	-0.000656	0.837092	6
C	-0.723273	-1.024636	-0.150248	6
C	0.773127	-1.269526	0.076092	6
C	1.575377	-0.000186	-0.227218	6
C	0.773977	1.268814	0.079642	6
C	-0.722653	1.025494	-0.147258	6
N	-0.959193	0.001774	-1.224988	7
H	-0.943743	-0.002146	1.859782	1
H	-2.426363	-0.000496	0.873562	1
H	-1.297963	-1.949396	-0.261308	1
H	0.941917	-1.582826	1.113112	1
H	1.128077	-2.085056	-0.564418	1
H	1.820597	0.001284	-1.298288	1
H	2.534457	-0.001166	0.302012	1
H	1.129427	2.086024	-0.558498	1
H	0.942747	1.579014	1.117532	1
H	-1.296763	1.950954	-0.256068	1
H	-1.919933	0.002734	-1.570528	1
Es	-1.062761	-0.001763	1.551379	99
Es	0.773099	-1.269490	0.076088	99
Es	-0.959563	0.001776	-1.224535	99
Es	-1.329810	-0.000656	0.837063	99
Es	0.023508	-1.142470	-0.040301	99
Es	-1.113791	-1.667995	-0.232049	99
Es	1.169489	0.633700	-0.060670	99
Es	1.168977	-0.634346	-0.062274	99
Es	-1.112790	1.669337	-0.227402	99
Es	2.230574	-0.000812	0.143445	99
Es	-1.039510	-0.579524	0.426064	99
Es	0.879294	1.479504	0.794361	99
Es	-0.723146	0.001626	-1.515569	99
Es	-0.872894	-0.487086	-0.801980	99
Es	1.012687	-1.826964	-0.362825	99
Es	0.024233	1.142596	-0.037010	99
Es	1.013885	1.827350	-0.357643	99
Es	-1.553527	0.002280	-1.391653	99
Es	-1.039159	0.579154	0.427617	99
Es	1.575342	-0.000189	-0.227184	99
Es	-0.723281	-1.024507	-0.150332	99
Es	1.741672	0.000786	-0.954879	99
Es	-2.080612	-0.000523	0.847152	99
Es	0.878438	-1.482306	0.790185	99
Es	-0.872037	0.490048	-0.801059	99
Es	-0.722662	1.025367	-0.147345	99
Es	0.773949	1.268779	0.079637	99
45
Properties=species:S:1:pos:R:3:Z:I:1 energy=-288.10608638040776 field_type=dipole dipole="0.000000 0.000000 0.000000" charge=0
C	-1.329823	-0.000656	0.837092	6
C	-0.723273	-1.024636	-0.150248	6
C	0.773127	-1.269526	0.076092	6
C	1.575377	-0.000186	-0.227218	6
C	0.773977	1.268814	0.079642	6
C	-0.722653	1.025494	-0.147258	6
N	-0.959193	0.001774	-1.224988	7
H	-0.943743	-0.002146	1.859782	1
H	-2.426363	-0.000496	0.873562	1
H	-1.297963	-1.949396	-0.261308	1
H	0.941917	-1.582826	1.113112	1
H	1.128077	-2.085056	-0.564418	1
H	1.820597	0.001284	-1.298288	1
H	2.534457	-0.001166	0.302012	1
H	1.129427	2.086024	-0.558498	1
H	0.942747	1.579014	1.117532	1
H	-1.296763	1.950954	-0.256068	1
H	-1.919933	0.002734	-1.570528	1
Es	1.013809	1.827156	-0.357601	99
Es	-0.959580	0.001773	-1.224514	99
Es	0.773949	1.268779	0.079637	99
Es	1.741512	0.000798	-0.954690	99
Es	-0.724298	0.002103	-1.513714	99
Es	-1.039247	0.579115	0.427410	99
Es	0.878588	-1.482414	0.790368	99
Es	-0.872026	-0.487815	-0.802496	99
Es	0.023466	-1.142510	-0.040335	99
Es	0.879437	1.479592	0.794530	99
Es	0.773101	-1.269490	0.076088	99
Es	1.012621	-1.826741	-0.362796	99
Es	-0.871667	0.490286	-0.801073	99
Es	-1.329810	-0.000656	0.837061	99
Es	0.024229	1.142536	-0.037038	99
Es	-1.039495	-0.579600	0.425867	99
Es	-1.553693	0.002281	-1.393010	99
Es	2.230937	-0.000885	0.143708	99
Es	-0.722661	1.025366	-0.147343	99
Es	-2.080407	-0.000460	0.847073	99
Es	-1.113892	-1.668025	-0.231959	99
Es	-1.112860	1.669384	-0.227394	99
Es	1.169309	0.633711	-0.060926	99
Es	-0.723280	-1.024509	-0.150328	99
Es	1.168904	-0.634255	-0.062701	99
Es	1.575328	-0.000186	-0.227182	99
Es	-1.062669	-0.001661	1.551642	99
45
Properties=species:S:1:pos:R:3:Z:I:1 energy=-288.10608638040776 field_type=dipole dipole="0.000000 0.000000 0.000000" charge=0
C	-1.329823	-0.000656	0.837092	6
C	-0.723273	-1.024636	-0.150248	6
C	0.773127	-1.269526	0.076092	6
C	1.575377	-0.000186	-0.227218	6
C	0.773977	1.268814	0.079642	6
C	-0.722653	1.025494	-0.147258	6
N	-0.959193	0.001774	-1.224988	7
H	-0.943743	-0.002146	1.859782	1
H	-2.426363	-0.000496	0.873562	1
H	-1.297963	-1.949396	-0.261308	1
H	0.941917	-1.582826	1.113112	1
H	1.128077	-2.085056	-0.564418	1
H	1.820597	0.001284	-1.298288	1
H	2.534457	-0.001166	0.302012	1
H	1.129427	2.086024	-0.558498	1
H	0.942747	1.579014	1.117532	1
H	-1.296763	1.950954	-0.256068	1
H	-1.919933	0.002734	-1.570528	1
Es	-1.113951	-1.668084	-0.231844	99
Es	0.878552	-1.482464	0.790536	99
Es	-1.329811	-0.000656	0.837063	99
Es	-1.553675	0.002275	-1.394423	99
Es	1.575329	-0.000186	-0.227184	99
Es	1.741410	0.000774	-0.954608	99
Es	-0.871728	-0.488180	-0.802693	99
Es	1.169244	0.633723	-0.061061	99
Es	1.013815	1.827036	-0.357610	99
Es	-2.080270	-0.000642	0.846899	99
Es	0.024213	1.142457	-0.037096	99
Es	-0.724969	0.002069	-1.512048	99
Es	-0.959640	0.001774	-1.224454	99
Es	2.231130	-0.000898	0.143862	99
Es	0.773949	1.268778	0.079637	99
Es	-0.722660	1.025366	-0.147345	99
Es	-1.039367	0.579221	0.427336	99
Es	1.168824	-0.634215	-0.062832	99
Es	-1.039403	-0.579469	0.425616	99
Es	0.023564	-1.142421	-0.040365	99
Es	0.773100	-1.269490	0.076088	99
Es	-1.112828	1.669426	-0.227338	99
Es	1.012620	-1.826642	-0.362760	99
Es	-0.871359	0.490677	-0.801303	99
Es	-1.062672	-0.001704	1.551890	99
Es	-0.723280	-1.024508	-0.150334	99
Es	0.879469	1.479654	0.794655	99
45
Properties=species:S:1:pos:R:3:Z:I:1 energy=-288.10608638040776 field_type=dipole dipole="0.000000 0.000000 0.000000" charge=0
C	-1.329823	-0.000656	0.837092	6
C	-0.723273	-1.024636	-0.150248	6
C	0.773127	-1.269526	0.076092	6
C	1.575377	-0.000186	-0.227218	6
C	0.773977	1.268814	0.079642	6
C	-0.722653	1.025494	-0.147258	6
N	-0.959193	0.001774	-1.224988	7
H	-0.943743	-0.002146	1.859782	1
H	-2.426363	-0.000496	0.873562	1
H	-1.297963	-1.949396	-0.261308	1
H	0.941917	-1.582826	1.113112	1
H	1.128077	-2.085056	-0.564418	1
H	1.820597	0.001284	-1.298288	1
H	2.534457	-0.001166	0.302012	1
H	1.129427	2.086024	-0.558498	1
H	0.942747	1.579014	1.117532	1
H	-1.296763	1.950954	-0.256068	1
H	-1.919933	0.002734	-1.570528	1
Es	0.773099	-1.269490	0.076088	99
Es	-1.553771	0.002260	-1.394634	99
Es	-1.039594	-0.579572	0.425561	99
Es	-0.871308	0.490599	-0.801340	99
Es	0.878594	-1.482524	0.790614	99
Es	1.012592	-1.826571	-0.362823	99
Es	-0.725538	0.002520	-1.511553	99
Es	1.741314	0.000785	-0.954561	99
Es	1.169201	0.633691	-0.061156	99
Es	0.773949	1.268779	0.079638	99
Es	-1.113963	-1.668124	-0.231855	99
Es	-0.723282	-1.024507	-0.150332	99
Es	-1.112951	1.669514	-0.227296	99
Es	-1.329808	-0.000656	0.837062	99
Es	-1.062633	-0.001690	1.552040	99
Es	0.023521	-1.142367	-0.040324	99
Es	-2.080119	-0.000462	0.846863	99
Es	-0.722661	1.025366	-0.147343	99
Es	-0.959550	0.001775	-1.224534	99
Es	1.575329	-0.000186	-0.227180	99
Es	-1.039218	0.579119	0.427139	99
Es	-0.871103	-0.488574	-0.802901	99
Es	2.231254	-0.000911	0.143888	99
Es	0.879477	1.479695	0.794782	99
Es	1.168788	-0.634219	-0.062882	99
Es	1.013758	1.826970	-0.357602	99
Es	0.024230	1.142454	-0.037074	99
45
Properties=species:S:1:pos:R:3:Z:I:1 energy=-288.10608638040776 field_type=dipole dipole="0.000000 0.000000 0.000000" charge=0
C	-1.329823	-0.000656	0.837092	6
C	-0.723273	-1.024636	-0.150248	6
C	0.773127	-1.269526	0.076092	6
C	1.575377	-0.000186	-0.227218	6
C	0.773977	1.268814	0.079642	6
C	-0.722653	1.025494	-0.147258	6
N	-0.959193	0.001774	-1.224988	7
H	-0.943743	-0.002146	1.859782	1
H	-2.426363	-0.000496	0.873562	1
H	-1.297963	-1.949396	-0.261308	1
H	0.941917	-1.582826	1.113112	1
H	1.128077	-2.085056	-0.564418	1
H	1.820597	0.001284	-1.298288	1
H	2.534457	-0.001166	0.302012	1
H	1.129427	2.086024	-0.558498	1
H	0.942747	1.579014	1.117532	1
H	-1.296763	1.950954	-0.256068	1
H	-1.919933	0.002734	-1.570528	1
Es	0.878641	-1.482573	0.790746	99
Es	0.024318	1.142427	-0.037040	99
Es	1.013727	1.826910	-0.357681	99
Es	-0.726097	0.002109	-1.510394	99
Es	-0.870952	-0.488531	-0.802973	99
Es	-1.039601	-0.579567	0.425401	99
Es	-1.062649	-0.001724	1.552259	99
Es	-1.329810	-0.000656	0.837063	99
Es	1.168898	-0.634370	-0.063012	99
Es	1.575326	-0.000182	-0.227182	99
Es	-2.079915	-0.000420	0.846757	99
Es	0.023498	-1.142310	-0.040368	99
Es	-1.553853	0.002183	-1.395502	99
Es	-0.722661	1.025366	-0.147342	99
Es	-1.039180	0.579155	0.426985	99
Es	0.773949	1.268778	0.079637	99
Es	-0.723281	-1.024507	-0.150332	99
Es	-1.112983	1.669525	-0.227177	99
Es	0.879484	1.479754	0.794898	99
Es	1.012540	-1.826468	-0.362805	99
Es	1.741235	0.000813	-0.954480	99
Es	-1.114072	-1.668205	-0.231772	99
Es	2.231365	-0.000811	0.143890	99
Es	-0.870828	0.491050	-0.801664	99
Es	-0.959580	0.001777	-1.224528	99
Es	0.773103	-1.269488	0.076087	99
Es	1.168982	0.633637	-0.061184	99
45
Properties=species:S:1:pos:R:3:Z:I:1 energy=-288.10608638040776 field_type=dipole dipole="0.000000 0.000000 0.000000" charge=0
C	-1.329823	-0.000656	0.837092	6
C	-0.723273	-1.024636	-0.150248	6
C	0.773127	-1.269526	0.076092	6
C	1.575377	-0.000186	-0.227218	6
C	0.773977	1.268814	0.079642	6
C	-0.722653	1.025494	-0.147258	6
N	-0.959193	0.001774	-1.224988	7
H	-0.943743	-0.002146	1.859782	1
H	-2.426363	-0.000496	0.873562	1
H	-1.297963	-1.949396	-0.261308	1
H	0.941917	-1.582826	1.113112	1
H	1.128077	-2.085056	-0.564418	1
H	1.820597	0.001284	-1.298288	1
H	2.534457	-0.001166	0.302012	1
H	1.129427	2.086024	-0.558498	1
H	0.942747	1.579014	1.117532	1
H	-1.296763	1.950954	-0.256068	1
H	-1.919933	0.002734	-1.570528	1
Es	1.169145	0.633682	-0.061367	99
Es	-0.723280	-1.024507	-0.150332	99
Es	2.231480	-0.000867	0.144046	99
Es	0.773099	-1.269490	0.076088	99
Es	-0.726333	0.001572	-1.509452	99
Es	-1.112959	1.669605	-0.227201	99
Es	1.013643	1.826857	-0.357702	99
Es	0.023552	-1.142288	-0.040346	99
Es	-2.079828	-0.000477	0.846754	99
Es	-0.959536	0.001775	-1.224556	99
Es	1.168626	-0.634178	-0.063021	99
Es	0.878634	-1.482615	0.790792	99
Es	-1.039299	0.579188	0.426928	99
Es	-0.871257	-0.488417	-0.802847	99
Es	-1.039631	-0.579641	0.425344	99
Es	-1.553911	0.002280	-1.396319	99
Es	-1.062628	-0.001677	1.552321	99
Es	-1.113970	-1.668246	-0.231757	99
Es	-0.722662	1.025365	-0.147342	99
Es	-0.870318	0.491377	-0.801925	99
Es	1.741195	0.000760	-0.954432	99
Es	0.879531	1.479821	0.794932	99
Es	1.012580	-1.826412	-0.362846	99
Es	-1.329810	-0.000656	0.837064	99
Es	1.575329	-0.000187	-0.227182	99
Es	0.024266	1.142269	-0.036995	99
Es	0.773949	1.268778	0.079637	99
45
Properties=species:S:1:pos:R:3:Z:I:1 energy=-288.10608638040776 field_type=dipole dipole="0.000000 0.000000 0.000000" charge=0
C	-1.329823	-0.000656	0.837092	6
C	-0.723273	-1.024636	-0.150248	6
C	0.773127	-1.269526	0.076092	6
C	1.575377	-0.000186	-0.227218	6
C	0.773977	1.268814	0.079642	6
C	-0.722653	1.025494	-0.147258	6
N	-0.959193	0.001774	-1.224988	7
H	-0.943743	-0.002146	1.859782	1
H	-2.426363	-0.000496	0.873562	1
H	-1.297963	-1.949396	-0.261308	1
H	0.941917	-1.582826	1.113112	1
H	1.128077	-2.085056	-0.564418	1
H	1.820597	0.001284	-1.298288	1
H	2.534457	-0.001166	0.302012	1
H	1.129427	2.086024	-0.558498	1
H	0.942747	1.579014	1.117532	1
H	-1.296763	1.950954	-0.256068	1
H	-1.919933	0.002734	-1.570528	1
Es	-0.726783	0.001925	-1.508695	99
Es	0.024272	1.142364	-0.037175	99
Es	0.023509	-1.142297	-0.040327	99
Es	1.169102	0.633651	-0.061382	99
Es	1.575329	-0.000186	-0.227181	99
Es	2.231515	-0.000862	0.144038	99
Es	1.012536	-1.826403	-0.362872	99
Es	-0.870754	-0.488761	-0.803109	99
Es	0.878667	-1.482616	0.790850	99
Es	1.168599	-0.634212	-0.063083	99
Es	0.879547	1.479824	0.795011	99
Es	-1.553927	0.002274	-1.396911	99
Es	-1.062595	-0.001688	1.552396	99
Es	-0.959571	0.001776	-1.224498	99
Es	0.773099	-1.269490	0.076088	99
Es	-1.039604	-0.579591	0.425344	99
Es	-1.113969	-1.668251	-0.231741	99
Es	-0.722664	1.025364	-0.147347	99
Es	-1.329811	-0.000658	0.837066	99
Es	1.013695	1.826770	-0.357641	99
Es	-0.870315	0.491437	-0.801887	99
Es	-2.079806	-0.000479	0.846710	99
Es	1.741157	0.000805	-0.954433	99
Es	-0.723283	-1.024510	-0.150330	99
Es	-1.039277	0.579101	0.426942	99
Es	0.773950	1.268778	0.079635	99
Es	-1.113012	1.669606	-0.227184	99
