39
Properties=species:S:1:pos:R:3:Z:I:1 energy=-338.7311309461088 field_type=dipole dipole="0.000000 0.000000 0.000000" charge=0
C	-1.371590	-1.138441	-0.146697	6
C	0.142600	-0.997681	-0.146277	6
C	0.579000	0.419838	-0.155727	6
N	0.766420	1.084439	-1.299757	7
O	1.165310	2.362009	-0.912307	8
N	1.220550	2.470768	0.476953	7
C	0.858010	1.269499	0.921043	6
H	-1.654950	-2.195632	-0.135987	1
H	-1.812530	-0.676971	-1.037277	1
H	-1.813930	-0.658611	0.733263	1
H	0.554590	-1.520391	-1.018627	1
H	0.550190	-1.499671	0.738663	1
H	0.816330	1.080849	1.982733	1
Es	1.425829	2.332557	-0.948589	99
Es	0.858025	1.269552	0.921047	99
Es	-0.601039	-1.046373	-0.144929	99
Es	1.220375	2.470212	0.476613	99
Es	0.957326	0.731273	-0.755090	99
Es	-1.664622	-0.809006	0.455991	99
Es	0.826209	1.130289	1.625150	99
Es	-1.555972	-1.857592	-0.137471	99
Es	0.766467	1.084584	-1.299152	99
Es	0.578999	0.419848	-0.155772	99
Es	-1.663265	-0.825067	-0.749517	99
Es	0.365657	-0.268427	-0.144634	99
Es	-1.371531	-1.138436	-0.146685	99
Es	0.983410	1.805703	-1.038187	99
Es	1.306774	1.802114	0.651700	99
Es	0.421061	-1.323603	0.459946	99
Es	0.780120	1.968309	0.661998	99
Es	1.324721	2.798440	0.616194	99
Es	0.742064	1.018445	-1.663488	99
Es	0.421080	-1.338496	-0.733999	99
Es	0.423865	0.890888	-0.750506	99
Es	0.702571	0.804378	0.422572	99
Es	0.963080	2.537290	-0.990889	99
Es	1.169683	2.371208	-0.309149	99
Es	1.165190	2.361718	-0.912051	99
Es	0.142594	-0.997587	-0.146261	99
39
Properties=species:S:1:pos:R:3:Z:I:1 energy=-338.7311309461088 field_type=dipole dipole="0.000000 0.000000 0.000000" charge=0
C	-1.371590	-1.138441	-0.146697	6
C	0.142600	-0.997681	-0.146277	6
C	0.579000	0.419838	-0.155727	6
N	0.766420	1.084439	-1.299757	7
O	1.165310	2.362009	-0.912307	8
N	1.220550	2.470768	0.476953	7
C	0.858010	1.269499	0.921043	6
H	-1.654950	-2.195632	-0.135987	1
H	-1.812530	-0.676971	-1.037277	1
H	-1.813930	-0.658611	0.733263	1
H	0.554590	-1.520391	-1.018627	1
H	0.550190	-1.499671	0.738663	1
H	0.816330	1.080849	1.982733	1
Es	-1.662205	-0.822906	-0.750750	99
Es	0.142594	-0.997585	-0.146260	99
Es	0.826090	1.130105	1.626535	99
Es	0.784222	1.965166	0.660591	99
Es	0.579011	0.419845	-0.155773	99
Es	1.324936	2.799024	0.618919	99
Es	1.301845	1.802471	0.650761	99
Es	-1.662225	-0.808434	0.455739	99
Es	0.419418	-1.326040	0.461945	99
Es	0.418393	-1.339169	-0.734247	99
Es	0.858030	1.269548	0.921048	99
Es	0.703146	0.806029	0.421165	99
Es	1.164907	2.361671	-0.911930	99
Es	1.180292	2.375208	-0.305270	99
Es	1.220374	2.470215	0.476658	99
Es	0.364593	-0.266790	-0.145297	99
Es	0.991512	1.800784	-1.045851	99
Es	1.122914	2.275800	-0.822193	99
Es	0.953113	0.733979	-0.754389	99
Es	-1.371531	-1.138435	-0.146684	99
Es	0.428436	0.890950	-0.749276	99
Es	1.248308	2.596799	-1.115028	99
Es	-0.599952	-1.045843	-0.145034	99
Es	-1.555214	-1.860504	-0.136579	99
Es	0.766483	1.084630	-1.299132	99
Es	0.741183	1.015700	-1.664830	99
39
Properties=species:S:1:pos:R:3:Z:I:1 energy=-338.7311309461088 field_type=dipole dipole="0.000000 0.000000 0.000000" charge=0
C	-1.371590	-1.138441	-0.146697	6
C	0.142600	-0.997681	-0.146277	6
C	0.579000	0.419838	-0.155727	6
N	0.766420	1.084439	-1.299757	7
O	1.165310	2.362009	-0.912307	8
N	1.220550	2.470768	0.476953	7
C	0.858010	1.269499	0.921043	6
H	-1.654950	-2.195632	-0.135987	1
H	-1.812530	-0.676971	-1.037277	1
H	-1.813930	-0.658611	0.733263	1
H	0.554590	-1.520391	-1.018627	1
H	0.550190	-1.499671	0.738663	1
H	0.816330	1.080849	1.982733	1
Es	-0.598438	-1.045299	-0.145230	99
Es	0.786364	1.962498	0.659801	99
Es	0.416868	-1.328061	0.463731	99
Es	1.326346	2.798873	0.620531	99
Es	-1.371529	-1.138436	-0.146684	99
Es	0.825628	1.130021	1.627231	99
Es	0.142590	-0.997584	-0.146260	99
Es	0.363370	-0.265519	-0.145725	99
Es	0.431517	0.890504	-0.748128	99
Es	-1.660110	-0.807742	0.455568	99
Es	1.165337	2.361580	-0.911981	99
Es	0.766482	1.084630	-1.299131	99
Es	1.179488	2.375150	-0.305817	99
Es	1.298484	1.802350	0.649637	99
Es	0.858022	1.269547	0.921051	99
Es	0.416015	-1.339947	-0.734671	99
Es	0.741125	1.013840	-1.665509	99
Es	1.132039	2.274421	-0.823593	99
Es	-1.554591	-1.862340	-0.135681	99
Es	0.988957	1.802142	-1.045350	99
Es	0.578991	0.419845	-0.155768	99
Es	1.242932	2.599133	-1.115618	99
Es	1.220372	2.470207	0.476649	99
Es	0.950645	0.736153	-0.752526	99
Es	-1.660707	-0.821237	-0.751901	99
Es	0.702476	0.807491	0.420211	99
39
Properties=species:S:1:pos:R:3:Z:I:1 energy=-338.7311309461088 field_type=dipole dipole="0.000000 0.000000 0.000000" charge=0
C	-1.371590	-1.138441	-0.146697	6
C	0.142600	-0.997681	-0.146277	6
C	0.579000	0.419838	-0.155727	6
N	0.766420	1.084439	-1.299757	7
O	1.165310	2.362009	-0.912307	8
N	1.220550	2.470768	0.476953	7
C	0.858010	1.269499	0.921043	6
H	-1.654950	-2.195632	-0.135987	1
H	-1.812530	-0.676971	-1.037277	1
H	-1.813930	-0.658611	0.733263	1
H	0.554590	-1.520391	-1.018627	1
H	0.550190	-1.499671	0.738663	1
H	0.816330	1.080849	1.982733	1
Es	0.578998	0.419842	-0.155768	99
Es	0.986422	1.803413	-1.045218	99
Es	0.949054	0.738115	-0.751218	99
Es	1.133140	2.275287	-0.824417	99
Es	0.741207	1.012452	-1.665676	99
Es	0.701729	0.808662	0.419433	99
Es	0.825188	1.129858	1.627600	99
Es	-1.658786	-0.819897	-0.752995	99
Es	-1.658337	-0.807088	0.455395	99
Es	1.327332	2.798399	0.621751	99
Es	0.433417	0.889849	-0.747560	99
Es	-0.595937	-1.044776	-0.145382	99
Es	1.220371	2.470205	0.476646	99
Es	0.766495	1.084652	-1.299158	99
Es	-1.554355	-1.863389	-0.134865	99
Es	1.296280	1.801931	0.648612	99
Es	1.165502	2.361494	-0.911945	99
Es	0.362453	-0.264682	-0.146298	99
Es	0.858015	1.269550	0.921051	99
Es	1.179490	2.375215	-0.306349	99
Es	0.413540	-1.340681	-0.735017	99
Es	1.244930	2.598872	-1.115825	99
Es	0.142593	-0.997587	-0.146260	99
Es	0.413448	-1.329927	0.465454	99
Es	0.788016	1.960887	0.659530	99
Es	-1.371528	-1.138436	-0.146685	99
39
Properties=species:S:1:pos:R:3:Z:I:1 energy=-338.7311309461088 field_type=dipole dipole="0.000000 0.000000 0.000000" charge=0
C	-1.371590	-1.138441	-0.146697	6
C	0.142600	-0.997681	-0.146277	6
C	0.579000	0.419838	-0.155727	6
N	0.766420	1.084439	-1.299757	7
O	1.165310	2.362009	-0.912307	8
N	1.220550	2.470768	0.476953	7
C	0.858010	1.269499	0.921043	6
H	-1.654950	-2.195632	-0.135987	1
H	-1.812530	-0.676971	-1.037277	1
H	-1.813930	-0.658611	0.733263	1
H	0.554590	-1.520391	-1.018627	1
H	0.550190	-1.499671	0.738663	1
H	0.816330	1.080849	1.982733	1
Es	0.361908	-0.264201	-0.146795	99
Es	0.824924	1.129807	1.627888	99
Es	-1.554250	-1.864132	-0.134148	99
Es	1.246459	2.598583	-1.116056	99
Es	1.180024	2.375037	-0.306670	99
Es	1.220372	2.470205	0.476643	99
Es	-1.656350	-0.818562	-0.754029	99
Es	0.411154	-1.341328	-0.735350	99
Es	1.328570	2.797940	0.622582	99
Es	1.134097	2.275767	-0.825030	99
Es	-1.371529	-1.138436	-0.146685	99
Es	-0.593993	-1.044459	-0.145091	99
Es	0.947863	0.738771	-0.750753	99
Es	0.741452	1.011633	-1.665742	99
Es	0.579001	0.419841	-0.155767	99
Es	0.434600	0.889945	-0.746649	99
Es	0.766477	1.084619	-1.299128	99
Es	-1.656706	-0.806615	0.455182	99
Es	1.165479	2.361466	-0.911920	99
Es	0.984013	1.804610	-1.044980	99
Es	0.142594	-0.997586	-0.146260	99
Es	0.700719	0.809641	0.418952	99
Es	0.858023	1.269545	0.921053	99
Es	0.409966	-1.331328	0.466695	99
Es	0.789028	1.959386	0.659152	99
Es	1.294782	1.802071	0.647745	99
39
Properties=species:S:1:pos:R:3:Z:I:1 energy=-338.7311309461088 field_type=dipole dipole="0.000000 0.000000 0.000000" charge=0
C	-1.371590	-1.138441	-0.146697	6
C	0.142600	-0.997681	-0.146277	6
C	0.579000	0.419838	-0.155727	6
N	0.766420	1.084439	-1.299757	7
O	1.165310	2.362009	-0.912307	8
N	1.220550	2.470768	0.476953	7
C	0.858010	1.269499	0.921043	6
H	-1.654950	-2.195632	-0.135987	1
H	-1.812530	-0.676971	-1.037277	1
H	-1.813930	-0.658611	0.733263	1
H	0.554590	-1.520391	-1.018627	1
H	0.550190	-1.499671	0.738663	1
H	0.816330	1.080849	1.982733	1
Es	0.409072	-1.341708	-0.735468	99
Es	-1.654051	-0.817543	-0.754797	99
Es	0.789773	1.958567	0.659364	99
Es	0.699765	0.810395	0.418455	99
Es	0.824498	1.129731	1.627968	99
Es	1.133737	2.276381	-0.825317	99
Es	1.247776	2.598255	-1.116118	99
Es	0.741319	1.010997	-1.665720	99
Es	0.858016	1.269549	0.921052	99
Es	1.165159	2.361659	-0.911984	99
Es	1.220372	2.470203	0.476637	99
Es	0.982699	1.805371	-1.045018	99
Es	-0.591637	-1.044225	-0.145064	99
Es	-1.554267	-1.864581	-0.133509	99
Es	0.435665	0.888553	-0.747254	99
Es	0.406074	-1.332599	0.467631	99
Es	0.361455	-0.263797	-0.147129	99
Es	1.293766	1.802006	0.646851	99
Es	-1.655282	-0.806243	0.455003	99
Es	1.329837	2.797366	0.623147	99
Es	0.142592	-0.997587	-0.146259	99
Es	0.578995	0.419842	-0.155768	99
Es	1.181090	2.374764	-0.306917	99
Es	0.947293	0.740664	-0.749141	99
Es	-1.371528	-1.138437	-0.146685	99
Es	0.766486	1.084636	-1.299122	99
39
Properties=species:S:1:pos:R:3:Z:I:1 energy=-338.7311309461088 field_type=dipole dipole="0.000000 0.000000 0.000000" charge=0
C	-1.371590	-1.138441	-0.146697	6
C	0.142600	-0.997681	-0.146277	6
C	0.579000	0.419838	-0.155727	6
N	0.766420	1.084439	-1.299757	7
O	1.165310	2.362009	-0.912307	8
N	1.220550	2.470768	0.476953	7
C	0.858010	1.269499	0.921043	6
H	-1.654950	-2.195632	-0.135987	1
H	-1.812530	-0.676971	-1.037277	1
H	-1.813930	-0.658611	0.733263	1
H	0.554590	-1.520391	-1.018627	1
H	0.550190	-1.499671	0.738663	1
H	0.816330	1.080849	1.982733	1
Es	0.981231	1.806048	-1.044960	99
Es	1.164653	2.361625	-0.911824	99
Es	0.402413	-1.333434	0.468291	99
Es	0.858016	1.269549	0.921052	99
Es	0.946669	0.742102	-0.747858	99
Es	0.766481	1.084641	-1.299123	99
Es	1.249482	2.597989	-1.116023	99
Es	-0.588741	-1.043821	-0.144720	99
Es	0.436203	0.887396	-0.747885	99
Es	0.406777	-1.342219	-0.735766	99
Es	-1.652054	-0.816775	-0.755285	99
Es	1.220371	2.470204	0.476633	99
Es	-1.654102	-0.805976	0.454648	99
Es	-1.554481	-1.864893	-0.132865	99
Es	0.824371	1.129619	1.628059	99
Es	0.361391	-0.263617	-0.147501	99
Es	0.789743	1.953655	0.657094	99
Es	0.142593	-0.997588	-0.146260	99
Es	0.699368	0.810865	0.418248	99
Es	-1.371526	-1.138436	-0.146685	99
Es	1.330308	2.797004	0.623397	99
Es	1.134444	2.276809	-0.825773	99
Es	0.741586	1.010651	-1.665638	99
Es	1.293495	1.806245	0.648561	99
Es	0.579000	0.419841	-0.155768	99
Es	1.180987	2.374736	-0.307209	99
39
Properties=species:S:1:pos:R:3:Z:I:1 energy=-338.7311309461088 field_type=dipole dipole="0.000000 0.000000 0.000000" charge=0
C	-1.371590	-1.138441	-0.146697	6
C	0.142600	-0.997681	-0.146277	6
C	0.579000	0.419838	-0.155727	6
N	0.766420	1.084439	-1.299757	7
O	1.165310	2.362009	-0.912307	8
N	1.220550	2.470768	0.476953	7
C	0.858010	1.269499	0.921043	6
H	-1.654950	-2.195632	-0.135987	1
H	-1.812530	-0.676971	-1.037277	1
H	-1.813930	-0.658611	0.733263	1
H	0.554590	-1.520391	-1.018627	1
H	0.550190	-1.499671	0.738663	1
H	0.816330	1.080849	1.982733	1
Es	-1.554682	-1.865085	-0.132549	99
Es	0.824111	1.129481	1.628095	99
Es	-0.587554	-1.043904	-0.144644	99
Es	-1.649948	-0.816110	-0.755639	99
Es	0.699071	0.811352	0.417954	99
Es	0.405725	-1.342405	-0.735781	99
Es	0.946284	0.743008	-0.747135	99
Es	0.436648	0.886624	-0.748181	99
Es	1.248822	2.598243	-1.116243	99
Es	0.399391	-1.333987	0.468644	99
Es	1.330730	2.796770	0.623606	99
Es	0.142592	-0.997587	-0.146260	99
Es	0.980489	1.806482	-1.044819	99
Es	0.858009	1.269552	0.921052	99
Es	1.291685	1.810854	0.650465	99
Es	0.791324	1.948545	0.654817	99
Es	0.766477	1.084623	-1.299121	99
Es	1.134031	2.277029	-0.825763	99
Es	-1.653202	-0.805765	0.454517	99
Es	0.741722	1.010466	-1.665442	99
Es	-1.371530	-1.138436	-0.146685	99
Es	0.578993	0.419842	-0.155768	99
Es	1.220377	2.470219	0.476614	99
Es	1.165291	2.361621	-0.911985	99
Es	0.361320	-0.263525	-0.147502	99
Es	1.182498	2.374313	-0.307409	99
39
Properties=species:S:1:pos:R:3:Z:I:1 energy=-338.7311309461088 field_type=dipole dipole="0.000000 0.000000 0.000000" charge=0
C	-1.371590	-1.138441	-0.146697	6
C	0.142600	-0.997681	-0.146277	6
C	0.579000	0.419838	-0.155727	6
N	0.766420	1.084439	-1.299757	7
O	1.165310	2.362009	-0.912307	8
N	1.220550	2.470768	0.476953	7
C	0.858010	1.269499	0.921043	6
H	-1.654950	-2.195632	-0.135987	1
H	-1.812530	-0.676971	-1.037277	1
H	-1.813930	-0.658611	0.733263	1
H	0.554590	-1.520391	-1.018627	1
H	0.550190	-1.499671	0.738663	1
H	0.816330	1.080849	1.982733	1
Es	1.181731	2.374459	-0.307426	99
Es	0.699094	0.811543	0.417742	99
Es	0.397439	-1.334428	0.468834	99
Es	-1.554679	-1.865202	-0.132119	99
Es	0.436969	0.886019	-0.748716	99
Es	0.824003	1.129341	1.628114	99
Es	0.980863	1.806544	-1.044969	99
Es	-1.371530	-1.138437	-0.146685	99
Es	1.288143	1.816322	0.652711	99
Es	-1.652548	-0.805695	0.454301	99
Es	0.741754	1.010368	-1.665248	99
Es	1.220372	2.470206	0.476623	99
Es	0.578994	0.419843	-0.155768	99
Es	-1.648846	-0.815760	-0.755895	99
Es	1.165133	2.361664	-0.911994	99
Es	1.250929	2.597595	-1.116200	99
Es	-0.585910	-1.043788	-0.144411	99
Es	1.132747	2.277902	-0.825863	99
Es	0.794620	1.942544	0.652460	99
Es	0.945825	0.743904	-0.746411	99
Es	0.858015	1.269549	0.921052	99
Es	0.361229	-0.263425	-0.147696	99
Es	1.330966	2.796624	0.623575	99
Es	0.142582	-0.997585	-0.146259	99
Es	0.766480	1.084634	-1.299124	99
Es	0.404299	-1.342522	-0.735788	99
39
Properties=species:S:1:pos:R:3:Z:I:1 energy=-338.7311309461088 field_type=dipole dipole="0.000000 0.000000 0.000000" charge=0
C	-1.371590	-1.138441	-0.146697	6
C	0.142600	-0.997681	-0.146277	6
C	0.579000	0.419838	-0.155727	6
N	0.766420	1.084439	-1.299757	7
O	1.165310	2.362009	-0.912307	8
N	1.220550	2.470768	0.476953	7
C	0.858010	1.269499	0.921043	6
H	-1.654950	-2.195632	-0.135987	1
H	-1.812530	-0.676971	-1.037277	1
H	-1.813930	-0.658611	0.733263	1
H	0.554590	-1.520391	-1.018627	1
H	0.550190	-1.499671	0.738663	1
H	0.816330	1.080849	1.982733	1
Es	1.250237	2.597869	-1.116302	99
Es	-1.652109	-0.805738	0.453965	99
Es	0.361392	-0.263411	-0.147808	99
Es	1.331731	2.796212	0.623650	99
Es	1.220369	2.470201	0.476639	99
Es	-0.583574	-1.043472	-0.144173	99
Es	-1.371523	-1.138437	-0.146684	99
Es	0.741815	1.010226	-1.665171	99
Es	0.436913	0.886236	-0.748235	99
Es	0.945801	0.743837	-0.746472	99
Es	0.823875	1.129276	1.628130	99
Es	0.980006	1.806987	-1.044900	99
Es	0.403042	-1.342653	-0.735839	99
Es	1.133970	2.277790	-0.826130	99
Es	0.142592	-0.997586	-0.146259	99
Es	1.164788	2.361647	-0.911880	99
Es	0.858017	1.269548	0.921052	99
Es	1.182566	2.374261	-0.307561	99
Es	-1.647672	-0.815359	-0.756001	99
Es	0.698544	0.811929	0.417636	99
Es	-1.554790	-1.865358	-0.131815	99
Es	1.286948	1.817539	0.652787	99
Es	0.766483	1.084635	-1.299123	99
Es	0.795646	1.941040	0.652102	99
Es	0.394613	-1.334845	0.468999	99
Es	0.578996	0.419842	-0.155769	99
39
Properties=species:S:1:pos:R:3:Z:I:1 energy=-338.7311309461088 field_type=dipole dipole="0.000000 0.000000 0.000000" charge=0
C	-1.371590	-1.138441	-0.146697	6
C	0.142600	-0.997681	-0.146277	6
C	0.579000	0.419838	-0.155727	6
N	0.766420	1.084439	-1.299757	7
O	1.165310	2.362009	-0.912307	8
N	1.220550	2.470768	0.476953	7
C	0.858010	1.269499	0.921043	6
H	-1.654950	-2.195632	-0.135987	1
H	-1.812530	-0.676971	-1.037277	1
H	-1.813930	-0.658611	0.733263	1
H	0.554590	-1.520391	-1.018627	1
H	0.550190	-1.499671	0.738663	1
H	0.816330	1.080849	1.982733	1
Es	0.742009	1.010186	-1.664936	99
Es	-1.371528	-1.138436	-0.146685	99
Es	0.361318	-0.263376	-0.147861	99
Es	1.281219	1.823668	0.655348	99
Es	-1.646965	-0.815201	-0.756136	99
Es	0.980337	1.806946	-1.045024	99
Es	1.248887	2.598459	-1.116289	99
Es	-1.651972	-0.805741	0.453712	99
Es	0.437240	0.885483	-0.748983	99
Es	1.220369	2.470204	0.476648	99
Es	0.402835	-1.342614	-0.735697	99
Es	1.181894	2.374443	-0.307648	99
Es	0.858014	1.269549	0.921053	99
Es	0.766491	1.084638	-1.299117	99
Es	-1.554945	-1.865359	-0.131547	99
Es	0.945623	0.744897	-0.745811	99
Es	1.135424	2.277488	-0.825954	99
Es	0.823710	1.129196	1.628110	99
Es	0.578997	0.419842	-0.155768	99
Es	0.698319	0.812027	0.417462	99
Es	0.393508	-1.335021	0.469061	99
Es	-0.582967	-1.043524	-0.144087	99
Es	1.331581	2.796183	0.623572	99
Es	0.801483	1.934209	0.649683	99
Es	1.165202	2.361658	-0.912005	99
Es	0.142592	-0.997586	-0.146261	99
39
Properties=species:S:1:pos:R:3:Z:I:1 energy=-338.7311309461088 field_type=dipole dipole="0.000000 0.000000 0.000000" charge=0
C	-1.371590	-1.138441	-0.146697	6
C	0.142600	-0.997681	-0.146277	6
C	0.579000	0.419838	-0.155727	6
N	0.766420	1.084439	-1.299757	7
O	1.165310	2.362009	-0.912307	8
N	1.220550	2.470768	0.476953	7
C	0.858010	1.269499	0.921043	6
H	-1.654950	-2.195632	-0.135987	1
H	-1.812530	-0.676971	-1.037277	1
H	-1.813930	-0.658611	0.733263	1
H	0.554590	-1.520391	-1.018627	1
H	0.550190	-1.499671	0.738663	1
H	0.816330	1.080849	1.982733	1
Es	0.858021	1.269547	0.921052	99
Es	1.272209	1.831415	0.658419	99
Es	-1.371520	-1.138433	-0.146684	99
Es	0.823710	1.129016	1.628085	99
Es	0.742160	1.010279	-1.664766	99
Es	-1.647157	-0.815152	-0.756099	99
Es	0.944837	0.746574	-0.744532	99
Es	1.133353	2.278661	-0.825980	99
Es	0.393166	-1.335099	0.469066	99
Es	0.810238	1.925992	0.646644	99
Es	0.981443	1.806588	-1.045070	99
Es	0.766476	1.084628	-1.299124	99
Es	1.330989	2.796225	0.623483	99
Es	0.142591	-0.997586	-0.146259	99
Es	0.578993	0.419843	-0.155768	99
Es	1.164959	2.361671	-0.911962	99
Es	1.220371	2.470198	0.476623	99
Es	0.361422	-0.263385	-0.147727	99
Es	-1.651874	-0.805810	0.453705	99
Es	0.403421	-1.342434	-0.735455	99
Es	1.181472	2.374650	-0.307723	99
Es	0.698634	0.812008	0.417440	99
Es	-0.583105	-1.043623	-0.144336	99
Es	-1.554938	-1.865362	-0.131535	99
Es	0.438108	0.883938	-0.750329	99
Es	1.250696	2.597870	-1.116328	99
39
Properties=species:S:1:pos:R:3:Z:I:1 energy=-338.7311309461088 field_type=dipole dipole="0.000000 0.000000 0.000000" charge=0
C	-1.371590	-1.138441	-0.146697	6
C	0.142600	-0.997681	-0.146277	6
C	0.579000	0.419838	-0.155727	6
N	0.766420	1.084439	-1.299757	7
O	1.165310	2.362009	-0.912307	8
N	1.220550	2.470768	0.476953	7
C	0.858010	1.269499	0.921043	6
H	-1.654950	-2.195632	-0.135987	1
H	-1.812530	-0.676971	-1.037277	1
H	-1.813930	-0.658611	0.733263	1
H	0.554590	-1.520391	-1.018627	1
H	0.550190	-1.499671	0.738663	1
H	0.816330	1.080849	1.982733	1
Es	0.766485	1.084635	-1.299122	99
Es	0.142592	-0.997587	-0.146259	99
Es	0.943228	0.748813	-0.743025	99
Es	-1.646745	-0.815046	-0.756144	99
Es	1.263295	1.837818	0.660884	99
Es	0.361348	-0.263386	-0.147501	99
Es	0.393804	-1.335119	0.469026	99
Es	1.133818	2.278727	-0.825937	99
Es	1.180695	2.374925	-0.307752	99
Es	-1.371528	-1.138437	-0.146684	99
Es	0.578993	0.419842	-0.155768	99
Es	0.439612	0.881916	-0.752003	99
Es	1.250590	2.597919	-1.116363	99
Es	1.330805	2.796166	0.623315	99
Es	-1.652234	-0.805918	0.453676	99
Es	0.823667	1.128899	1.628057	99
Es	0.404210	-1.342211	-0.735153	99
Es	-1.554701	-1.865427	-0.131642	99
Es	0.858032	1.269544	0.921052	99
Es	1.165228	2.361638	-0.911996	99
Es	0.742506	1.010322	-1.664555	99
Es	-0.584643	-1.043822	-0.144375	99
Es	1.220371	2.470202	0.476630	99
Es	0.981763	1.806550	-1.045141	99
Es	0.698859	0.811992	0.417209	99
Es	0.818624	1.919266	0.644411	99
39
Properties=species:S:1:pos:R:3:Z:I:1 energy=-338.7311309461088 field_type=dipole dipole="0.000000 0.000000 0.000000" charge=0
C	-1.371590	-1.138441	-0.146697	6
C	0.142600	-0.997681	-0.146277	6
C	0.579000	0.419838	-0.155727	6
N	0.766420	1.084439	-1.299757	7
O	1.165310	2.362009	-0.912307	8
N	1.220550	2.470768	0.476953	7
C	0.858010	1.269499	0.921043	6
H	-1.654950	-2.195632	-0.135987	1
H	-1.812530	-0.676971	-1.037277	1
H	-1.813930	-0.658611	0.733263	1
H	0.554590	-1.520391	-1.018627	1
H	0.550190	-1.499671	0.738663	1
H	0.816330	1.080849	1.982733	1
Es	-1.371531	-1.138436	-0.146683	99
Es	0.698169	0.812313	0.417291	99
Es	0.981573	1.806713	-1.045200	99
Es	1.250791	2.597898	-1.116389	99
Es	0.403212	-1.342377	-0.735201	99
Es	1.180906	2.374850	-0.307773	99
Es	1.133415	2.278770	-0.826227	99
Es	1.165254	2.361633	-0.911990	99
Es	-0.583078	-1.043743	-0.144149	99
Es	0.812103	1.924215	0.646123	99
Es	0.742514	1.010284	-1.664447	99
Es	1.270423	1.832718	0.658906	99
Es	1.330939	2.796091	0.623397	99
Es	-1.555042	-1.865411	-0.131311	99
Es	0.391973	-1.335257	0.469125	99
Es	0.444551	0.877583	-0.754568	99
Es	0.766483	1.084645	-1.299125	99
Es	0.142583	-0.997588	-0.146259	99
Es	0.361450	-0.263373	-0.147784	99
Es	1.220370	2.470201	0.476628	99
Es	0.858018	1.269548	0.921053	99
Es	0.823557	1.128862	1.628049	99
Es	0.938628	0.752970	-0.740016	99
Es	0.578997	0.419841	-0.155769	99
Es	-1.645815	-0.814842	-0.756257	99
Es	-1.651769	-0.805888	0.453414	99
39
Properties=species:S:1:pos:R:3:Z:I:1 energy=-338.7311309461088 field_type=dipole dipole="0.000000 0.000000 0.000000" charge=0
C	-1.371590	-1.138441	-0.146697	6
C	0.142600	-0.997681	-0.146277	6
C	0.579000	0.419838	-0.155727	6
N	0.766420	1.084439	-1.299757	7
O	1.165310	2.362009	-0.912307	8
N	1.220550	2.470768	0.476953	7
C	0.858010	1.269499	0.921043	6
H	-1.654950	-2.195632	-0.135987	1
H	-1.812530	-0.676971	-1.037277	1
H	-1.813930	-0.658611	0.733263	1
H	0.554590	-1.520391	-1.018627	1
H	0.550190	-1.499671	0.738663	1
H	0.816330	1.080849	1.982733	1
Es	1.251221	2.597779	-1.116386	99
Es	0.945025	0.746728	-0.744509	99
Es	0.578994	0.419842	-0.155769	99
Es	1.220373	2.470203	0.476636	99
Es	0.858013	1.269550	0.921053	99
Es	0.390713	-1.335478	0.469114	99
Es	1.263469	1.837600	0.660474	99
Es	0.823474	1.128754	1.628042	99
Es	1.331384	2.795808	0.623393	99
Es	-0.581864	-1.043627	-0.143967	99
Es	0.402131	-1.342466	-0.735268	99
Es	0.766486	1.084645	-1.299129	99
Es	-1.555184	-1.865472	-0.131025	99
Es	0.698297	0.812437	0.417183	99
Es	-1.371528	-1.138436	-0.146685	99
Es	0.142591	-0.997587	-0.146259	99
Es	1.133688	2.279023	-0.826139	99
Es	1.181644	2.374693	-0.307911	99
Es	1.165549	2.361438	-0.911901	99
Es	0.742293	1.010224	-1.664452	99
Es	0.437843	0.884165	-0.750153	99
Es	-1.645245	-0.814623	-0.756288	99
Es	-1.651256	-0.805862	0.453218	99
Es	0.980037	1.807314	-1.045084	99
Es	0.361540	-0.263368	-0.147900	99
Es	0.818986	1.918935	0.644554	99
39
Properties=species:S:1:pos:R:3:Z:I:1 energy=-338.7311309461088 field_type=dipole dipole="0.000000 0.000000 0.000000" charge=0
C	-1.371590	-1.138441	-0.146697	6
C	0.142600	-0.997681	-0.146277	6
C	0.579000	0.419838	-0.155727	6
N	0.766420	1.084439	-1.299757	7
O	1.165310	2.362009	-0.912307	8
N	1.220550	2.470768	0.476953	7
C	0.858010	1.269499	0.921043	6
H	-1.654950	-2.195632	-0.135987	1
H	-1.812530	-0.676971	-1.037277	1
H	-1.813930	-0.658611	0.733263	1
H	0.554590	-1.520391	-1.018627	1
H	0.550190	-1.499671	0.738663	1
H	0.816330	1.080849	1.982733	1
Es	0.814157	1.922380	0.645639	99
Es	0.823417	1.128739	1.628058	99
Es	-0.582545	-1.043819	-0.144062	99
Es	-1.371529	-1.138435	-0.146686	99
Es	0.446773	0.875890	-0.755589	99
Es	0.742701	1.010224	-1.664347	99
Es	1.251159	2.597839	-1.116382	99
Es	1.133517	2.279012	-0.826339	99
Es	0.936174	0.754907	-0.738866	99
Es	0.142591	-0.997586	-0.146259	99
Es	1.331040	2.795875	0.623330	99
Es	-1.651331	-0.805840	0.453080	99
Es	1.181080	2.374907	-0.307921	99
Es	1.165467	2.361496	-0.911933	99
Es	-1.555233	-1.865476	-0.130905	99
Es	1.220370	2.470202	0.476628	99
Es	0.858016	1.269549	0.921053	99
Es	0.697987	0.812582	0.417152	99
Es	0.402729	-1.342314	-0.735084	99
Es	0.390584	-1.335578	0.469090	99
Es	0.980891	1.807008	-1.045144	99
Es	-1.644814	-0.814547	-0.756350	99
Es	0.578994	0.419842	-0.155769	99
Es	1.268493	1.834081	0.659350	99
Es	0.361505	-0.263354	-0.147778	99
Es	0.766480	1.084636	-1.299124	99
39
Properties=species:S:1:pos:R:3:Z:I:1 energy=-338.7311309461088 field_type=dipole dipole="0.000000 0.000000 0.000000" charge=0
C	-1.371590	-1.138441	-0.146697	6
C	0.142600	-0.997681	-0.146277	6
C	0.579000	0.419838	-0.155727	6
N	0.766420	1.084439	-1.299757	7
O	1.165310	2.362009	-0.912307	8
N	1.220550	2.470768	0.476953	7
C	0.858010	1.269499	0.921043	6
H	-1.654950	-2.195632	-0.135987	1
H	-1.812530	-0.676971	-1.037277	1
H	-1.813930	-0.658611	0.733263	1
H	0.554590	-1.520391	-1.018627	1
H	0.550190	-1.499671	0.738663	1
H	0.816330	1.080849	1.982733	1
Es	-1.651611	-0.806042	0.452910	99
Es	0.980791	1.807094	-1.045141	99
Es	0.403044	-1.342264	-0.734868	99
Es	1.248605	1.847096	0.663727	99
Es	0.578993	0.419842	-0.155768	99
Es	0.742716	1.010295	-1.664225	99
Es	1.180622	2.375015	-0.308001	99
Es	-0.582328	-1.043739	-0.144076	99
Es	0.858015	1.269549	0.921053	99
Es	1.134860	2.278884	-0.826090	99
Es	0.766476	1.084622	-1.299125	99
Es	1.330920	2.795819	0.623207	99
Es	1.250842	2.597947	-1.116476	99
Es	0.833658	1.908847	0.641501	99
Es	0.391210	-1.335475	0.469116	99
Es	1.165136	2.361664	-0.911994	99
Es	0.823460	1.128691	1.628010	99
Es	-1.555306	-1.865451	-0.130925	99
Es	0.438520	0.882980	-0.751270	99
Es	0.142586	-0.997588	-0.146259	99
Es	0.698217	0.812345	0.417122	99
Es	1.220371	2.470203	0.476647	99
Es	-1.645600	-0.814609	-0.756241	99
Es	0.361516	-0.263333	-0.147846	99
Es	0.944489	0.748267	-0.743464	99
Es	-1.371529	-1.138436	-0.146685	99
39
Properties=species:S:1:pos:R:3:Z:I:1 energy=-338.7311309461088 field_type=dipole dipole="0.000000 0.000000 0.000000" charge=0
C	-1.371590	-1.138441	-0.146697	6
C	0.142600	-0.997681	-0.146277	6
C	0.579000	0.419838	-0.155727	6
N	0.766420	1.084439	-1.299757	7
O	1.165310	2.362009	-0.912307	8
N	1.220550	2.470768	0.476953	7
C	0.858010	1.269499	0.921043	6
H	-1.654950	-2.195632	-0.135987	1
H	-1.812530	-0.676971	-1.037277	1
H	-1.813930	-0.658611	0.733263	1
H	0.554590	-1.520391	-1.018627	1
H	0.550190	-1.499671	0.738663	1
H	0.816330	1.080849	1.982733	1
Es	0.942111	0.750758	-0.741892	99
Es	-1.371531	-1.138436	-0.146685	99
Es	-0.582955	-1.043740	-0.144070	99
Es	0.361528	-0.263351	-0.147792	99
Es	0.403323	-1.342131	-0.734718	99
Es	0.391179	-1.335552	0.469088	99
Es	1.133500	2.279562	-0.826077	99
Es	1.165518	2.361476	-0.911929	99
Es	0.441051	0.880405	-0.752986	99
Es	0.766479	1.084630	-1.299124	99
Es	-1.645225	-0.814573	-0.756299	99
Es	-1.555148	-1.865498	-0.130923	99
Es	0.742620	1.010434	-1.664067	99
Es	0.834658	1.908010	0.641333	99
Es	-1.651795	-0.806082	0.452858	99
Es	1.251090	2.597934	-1.116430	99
Es	0.698348	0.812438	0.417011	99
Es	0.858006	1.269552	0.921053	99
Es	0.981640	1.806810	-1.045233	99
Es	1.247565	1.847721	0.664054	99
Es	0.578995	0.419842	-0.155768	99
Es	1.180650	2.375090	-0.308061	99
Es	0.823309	1.128624	1.628015	99
Es	1.330827	2.795680	0.623114	99
Es	1.220369	2.470201	0.476627	99
Es	0.142565	-0.997584	-0.146259	99
39
Properties=species:S:1:pos:R:3:Z:I:1 energy=-338.7311309461088 field_type=dipole dipole="0.000000 0.000000 0.000000" charge=0
C	-1.371590	-1.138441	-0.146697	6
C	0.142600	-0.997681	-0.146277	6
C	0.579000	0.419838	-0.155727	6
N	0.766420	1.084439	-1.299757	7
O	1.165310	2.362009	-0.912307	8
N	1.220550	2.470768	0.476953	7
C	0.858010	1.269499	0.921043	6
H	-1.654950	-2.195632	-0.135987	1
H	-1.812530	-0.676971	-1.037277	1
H	-1.813930	-0.658611	0.733263	1
H	0.554590	-1.520391	-1.018627	1
H	0.550190	-1.499671	0.738663	1
H	0.816330	1.080849	1.982733	1
Es	1.251470	2.597791	-1.116459	99
Es	0.834586	1.908157	0.641286	99
Es	-0.581758	-1.043630	-0.144006	99
Es	0.402761	-1.342209	-0.734819	99
Es	0.823388	1.128510	1.627992	99
Es	-1.555216	-1.865518	-0.130728	99
Es	0.389967	-1.335677	0.469124	99
Es	-1.371511	-1.138433	-0.146685	99
Es	0.440511	0.880960	-0.752478	99
Es	0.361529	-0.263356	-0.147829	99
Es	0.742685	1.010274	-1.664154	99
Es	0.142592	-0.997586	-0.146260	99
Es	0.766481	1.084632	-1.299123	99
Es	-1.645043	-0.814436	-0.756318	99
Es	1.180692	2.375108	-0.308069	99
Es	1.165273	2.361621	-0.911995	99
Es	1.220373	2.470202	0.476629	99
Es	1.247698	1.847671	0.663941	99
Es	0.980656	1.807190	-1.045135	99
Es	1.330984	2.795613	0.623090	99
Es	0.942531	0.750332	-0.741998	99
Es	-1.651449	-0.806087	0.452747	99
Es	0.858016	1.269550	0.921053	99
Es	0.578994	0.419842	-0.155768	99
Es	0.698182	0.812525	0.416995	99
Es	1.134281	2.279174	-0.826195	99
39
Properties=species:S:1:pos:R:3:Z:I:1 energy=-338.7311309461088 field_type=dipole dipole="0.000000 0.000000 0.000000" charge=0
C	-1.371590	-1.138441	-0.146697	6
C	0.142600	-0.997681	-0.146277	6
C	0.579000	0.419838	-0.155727	6
N	0.766420	1.084439	-1.299757	7
O	1.165310	2.362009	-0.912307	8
N	1.220550	2.470768	0.476953	7
C	0.858010	1.269499	0.921043	6
H	-1.654950	-2.195632	-0.135987	1
H	-1.812530	-0.676971	-1.037277	1
H	-1.813930	-0.658611	0.733263	1
H	0.554590	-1.520391	-1.018627	1
H	0.550190	-1.499671	0.738663	1
H	0.816330	1.080849	1.982733	1
Es	1.180218	2.375225	-0.308052	99
Es	1.220375	2.470212	0.476616	99
Es	0.858014	1.269550	0.921053	99
Es	-1.651344	-0.806100	0.452652	99
Es	-1.555263	-1.865563	-0.130670	99
Es	0.823206	1.128573	1.628027	99
Es	1.133865	2.279174	-0.826495	99
Es	0.698160	0.812674	0.417063	99
Es	-0.581357	-1.043692	-0.143852	99
Es	-1.644239	-0.814294	-0.756355	99
Es	0.981009	1.807123	-1.045218	99
Es	1.251931	2.597698	-1.116385	99
Es	0.142582	-0.997590	-0.146260	99
Es	0.361507	-0.263278	-0.147981	99
Es	0.926313	0.761682	-0.735178	99
Es	0.456568	0.869349	-0.759225	99
Es	-1.371524	-1.138435	-0.146687	99
Es	1.331162	2.795604	0.623266	99
Es	0.402363	-1.342250	-0.734700	99
Es	1.267607	1.834647	0.659556	99
Es	0.742936	1.010351	-1.663966	99
Es	0.766481	1.084634	-1.299122	99
Es	0.578993	0.419842	-0.155769	99
Es	0.389161	-1.335730	0.469127	99
Es	1.165318	2.361597	-0.911983	99
Es	0.814632	1.921218	0.645376	99
39
Properties=species:S:1:pos:R:3:Z:I:1 energy=-338.7311309461088 field_type=dipole dipole="0.000000 0.000000 0.000000" charge=0
C	-1.371590	-1.138441	-0.146697	6
C	0.142600	-0.997681	-0.146277	6
C	0.579000	0.419838	-0.155727	6
N	0.766420	1.084439	-1.299757	7
O	1.165310	2.362009	-0.912307	8
N	1.220550	2.470768	0.476953	7
C	0.858010	1.269499	0.921043	6
H	-1.654950	-2.195632	-0.135987	1
H	-1.812530	-0.676971	-1.037277	1
H	-1.813930	-0.658611	0.733263	1
H	0.554590	-1.520391	-1.018627	1
H	0.550190	-1.499671	0.738663	1
H	0.816330	1.080849	1.982733	1
Es	1.165253	2.361629	-0.911995	99
Es	1.212535	1.786840	0.627771	99
Es	0.578993	0.419842	-0.155769	99
Es	0.926563	0.761913	-0.734852	99
Es	-1.371529	-1.138437	-0.146685	99
Es	0.457378	0.868562	-0.759006	99
Es	0.823410	1.128602	1.628146	99
Es	0.404140	-1.341470	-0.733186	99
Es	0.766475	1.084620	-1.299128	99
Es	0.974246	1.809967	-1.044722	99
Es	0.694914	0.814088	0.417068	99
Es	0.741884	1.010998	-1.663894	99
Es	1.334681	2.793898	0.623203	99
Es	0.870237	1.969348	0.677287	99
Es	-0.583567	-1.043242	-0.144109	99
Es	1.133065	2.278324	-0.827601	99
Es	1.220370	2.470200	0.476626	99
Es	0.362055	-0.263375	-0.148566	99
Es	-1.652280	-0.806944	0.450863	99
Es	1.184096	2.374138	-0.308263	99
Es	0.858010	1.269550	0.921053	99
Es	-1.648384	-0.814818	-0.755966	99
Es	0.394551	-1.335532	0.468948	99
Es	-1.556359	-1.865235	-0.129694	99
Es	0.142592	-0.997586	-0.146259	99
Es	1.255345	2.596340	-1.116432	99
39
Properties=species:S:1:pos:R:3:Z:I:1 energy=-338.7311309461088 field_type=dipole dipole="0.000000 0.000000 0.000000" charge=0
C	-1.371590	-1.138441	-0.146697	6
C	0.142600	-0.997681	-0.146277	6
C	0.579000	0.419838	-0.155727	6
N	0.766420	1.084439	-1.299757	7
O	1.165310	2.362009	-0.912307	8
N	1.220550	2.470768	0.476953	7
C	0.858010	1.269499	0.921043	6
H	-1.654950	-2.195632	-0.135987	1
H	-1.812530	-0.676971	-1.037277	1
H	-1.813930	-0.658611	0.733263	1
H	0.554590	-1.520391	-1.018627	1
H	0.550190	-1.499671	0.738663	1
H	0.816330	1.080849	1.982733	1
Es	0.823283	1.128419	1.627991	99
Es	0.388699	-1.335807	0.469155	99
Es	0.766481	1.084633	-1.299122	99
Es	0.402700	-1.342119	-0.734505	99
Es	0.858015	1.269550	0.921053	99
Es	0.824965	1.913826	0.643119	99
Es	0.932040	0.758469	-0.737015	99
Es	0.578992	0.419843	-0.155768	99
Es	1.165016	2.361677	-0.911971	99
Es	-1.555378	-1.865595	-0.130488	99
Es	1.257448	1.841548	0.661920	99
Es	1.251718	2.597763	-1.116436	99
Es	1.331001	2.795655	0.623130	99
Es	-1.651299	-0.806074	0.452435	99
Es	0.361627	-0.263325	-0.147965	99
Es	0.451020	0.872825	-0.757387	99
Es	1.134304	2.279262	-0.826425	99
Es	0.980612	1.807293	-1.045192	99
Es	-1.643508	-0.814189	-0.756404	99
Es	1.220370	2.470200	0.476628	99
Es	0.697729	0.812871	0.416952	99
Es	-1.371528	-1.138436	-0.146686	99
Es	0.742972	1.010259	-1.663978	99
Es	0.142592	-0.997586	-0.146260	99
Es	-0.581968	-1.043811	-0.143901	99
Es	1.180770	2.375069	-0.308041	99
