46
Properties=species:S:1:pos:R:3:Z:I:1 energy=-325.1165030988107 field_type=dipole dipole="0.000000 0.000000 0.000000" charge=0
C	-0.715888	-1.760073	-1.206511	6
C	-0.416688	-1.236623	0.190299	6
C	0.371142	0.071417	0.142239	6
O	1.658052	-0.162223	-0.490331	8
C	-0.409088	1.323437	-0.345421	6
N	0.166472	2.095827	0.777689	7
C	0.429702	0.829947	1.498129	6
H	-1.293358	-2.687983	-1.146811	1
H	0.205312	-1.970693	-1.758901	1
H	-1.296208	-1.034843	-1.785431	1
H	0.150202	-1.992393	0.747169	1
H	-1.365048	-1.095853	0.723249	1
H	2.102092	0.701777	-0.474791	1
H	-1.501788	1.239487	-0.299831	1
H	-0.132358	1.697257	-1.336231	1
H	1.010312	2.612867	0.532589	1
H	1.393362	0.800217	2.016189	1
H	-0.356228	0.568447	2.216709	1
Es	-1.114378	-1.258305	-1.597198	99
Es	0.429678	0.830079	1.498054	99
Es	-1.151624	1.256546	-0.303266	99
Es	1.885826	0.312202	-0.476906	99
Es	-0.216646	1.580957	-1.024063	99
Es	1.599791	-0.230093	-0.783211	99
Es	-0.083528	1.808171	0.256087	99
Es	-0.019764	-0.590275	0.157501	99
Es	1.092569	0.811479	1.851515	99
Es	-0.114634	0.648605	1.976408	99
Es	0.312986	1.576446	1.130685	99
Es	0.371350	0.071412	0.142149	99
Es	-0.564622	-1.495080	-0.511412	99
Es	0.695634	2.366190	0.609291	99
Es	-0.052671	2.326292	0.937409	99
Es	-0.047367	0.655859	-0.189796	99
Es	-0.093677	-1.903630	-1.578668	99
Es	1.178676	-0.046325	-0.251406	99
Es	-0.409025	1.323507	-0.345308	99
Es	1.811149	-0.343290	-0.296851	99
Es	-0.416687	-1.236611	0.190266	99
Es	-0.026624	-1.748159	0.572863	99
Es	1.657955	-0.161917	-0.490167	99
Es	-1.064598	-1.126042	0.555947	99
Es	0.166847	2.095419	0.777389	99
Es	-1.113498	-2.392604	-1.162958	99
Es	0.435086	0.378057	0.872149	99
Es	-0.715898	-1.760058	-1.206479	99
46
Properties=species:S:1:pos:R:3:Z:I:1 energy=-325.1165030988107 field_type=dipole dipole="0.000000 0.000000 0.000000" charge=0
C	-0.715888	-1.760073	-1.206511	6
C	-0.416688	-1.236623	0.190299	6
C	0.371142	0.071417	0.142239	6
O	1.658052	-0.162223	-0.490331	8
C	-0.409088	1.323437	-0.345421	6
N	0.166472	2.095827	0.777689	7
C	0.429702	0.829947	1.498129	6
H	-1.293358	-2.687983	-1.146811	1
H	0.205312	-1.970693	-1.758901	1
H	-1.296208	-1.034843	-1.785431	1
H	0.150202	-1.992393	0.747169	1
H	-1.365048	-1.095853	0.723249	1
H	2.102092	0.701777	-0.474791	1
H	-1.501788	1.239487	-0.299831	1
H	-0.132358	1.697257	-1.336231	1
H	1.010312	2.612867	0.532589	1
H	1.393362	0.800217	2.016189	1
H	-0.356228	0.568447	2.216709	1
Es	1.888475	0.312094	-0.474411	99
Es	1.597395	-0.223460	-0.781366	99
Es	-1.152102	1.256534	-0.303098	99
Es	1.178597	-0.047392	-0.249580	99
Es	0.371346	0.071412	0.142148	99
Es	1.811148	-0.348622	-0.302924	99
Es	-1.065091	-1.126317	0.556015	99
Es	-0.564614	-1.494944	-0.511455	99
Es	-0.216110	1.580983	-1.024233	99
Es	-0.115258	0.648081	1.976638	99
Es	-1.113914	-2.393168	-1.162701	99
Es	0.696479	2.367897	0.608899	99
Es	-0.019471	-0.590252	0.157666	99
Es	-0.084918	1.808209	0.256690	99
Es	0.429680	0.830078	1.498053	99
Es	-0.047402	0.656336	-0.189509	99
Es	-0.416690	-1.236609	0.190265	99
Es	-0.051276	2.324085	0.936466	99
Es	-0.093268	-1.903158	-1.578649	99
Es	-0.409024	1.323505	-0.345309	99
Es	1.657954	-0.161948	-0.490188	99
Es	0.435352	0.378929	0.872029	99
Es	0.166809	2.095455	0.777432	99
Es	1.092756	0.811350	1.851099	99
Es	0.312383	1.576365	1.130942	99
Es	-0.026835	-1.748353	0.572314	99
Es	-1.114191	-1.258198	-1.596735	99
Es	-0.715899	-1.760058	-1.206479	99
46
Properties=species:S:1:pos:R:3:Z:I:1 energy=-325.1165030988107 field_type=dipole dipole="0.000000 0.000000 0.000000" charge=0
C	-0.715888	-1.760073	-1.206511	6
C	-0.416688	-1.236623	0.190299	6
C	0.371142	0.071417	0.142239	6
O	1.658052	-0.162223	-0.490331	8
C	-0.409088	1.323437	-0.345421	6
N	0.166472	2.095827	0.777689	7
C	0.429702	0.829947	1.498129	6
H	-1.293358	-2.687983	-1.146811	1
H	0.205312	-1.970693	-1.758901	1
H	-1.296208	-1.034843	-1.785431	1
H	0.150202	-1.992393	0.747169	1
H	-1.365048	-1.095853	0.723249	1
H	2.102092	0.701777	-0.474791	1
H	-1.501788	1.239487	-0.299831	1
H	-0.132358	1.697257	-1.336231	1
H	1.010312	2.612867	0.532589	1
H	1.393362	0.800217	2.016189	1
H	-0.356228	0.568447	2.216709	1
Es	-1.113880	-1.258062	-1.596372	99
Es	-0.115487	0.647925	1.976767	99
Es	-1.065293	-1.126423	0.556103	99
Es	1.093067	0.811231	1.850842	99
Es	-0.026878	-1.748419	0.572050	99
Es	-0.019281	-0.590220	0.157451	99
Es	0.311287	1.576393	1.132066	99
Es	-0.715899	-1.760058	-1.206480	99
Es	-0.564630	-1.495053	-0.511264	99
Es	-1.152319	1.256406	-0.302956	99
Es	-0.050411	2.322117	0.934750	99
Es	-0.409024	1.323506	-0.345308	99
Es	-0.215862	1.580998	-1.024384	99
Es	1.888973	0.312513	-0.475478	99
Es	-1.114352	-2.393376	-1.162713	99
Es	1.812050	-0.350329	-0.305066	99
Es	-0.047404	0.656626	-0.189294	99
Es	1.596657	-0.221375	-0.778752	99
Es	0.435185	0.379360	0.871987	99
Es	-0.085273	1.808113	0.256879	99
Es	-0.093136	-1.902991	-1.578702	99
Es	1.657977	-0.162015	-0.490244	99
Es	0.697023	2.369617	0.609208	99
Es	0.166867	2.095423	0.777397	99
Es	0.371347	0.071412	0.142146	99
Es	-0.416687	-1.236610	0.190264	99
Es	0.429678	0.830078	1.498053	99
Es	1.178015	-0.047959	-0.248929	99
46
Properties=species:S:1:pos:R:3:Z:I:1 energy=-325.1165030988107 field_type=dipole dipole="0.000000 0.000000 0.000000" charge=0
C	-0.715888	-1.760073	-1.206511	6
C	-0.416688	-1.236623	0.190299	6
C	0.371142	0.071417	0.142239	6
O	1.658052	-0.162223	-0.490331	8
C	-0.409088	1.323437	-0.345421	6
N	0.166472	2.095827	0.777689	7
C	0.429702	0.829947	1.498129	6
H	-1.293358	-2.687983	-1.146811	1
H	0.205312	-1.970693	-1.758901	1
H	-1.296208	-1.034843	-1.785431	1
H	0.150202	-1.992393	0.747169	1
H	-1.365048	-1.095853	0.723249	1
H	2.102092	0.701777	-0.474791	1
H	-1.501788	1.239487	-0.299831	1
H	-0.132358	1.697257	-1.336231	1
H	1.010312	2.612867	0.532589	1
H	1.393362	0.800217	2.016189	1
H	-0.356228	0.568447	2.216709	1
Es	0.697069	2.370418	0.608713	99
Es	0.166885	2.095407	0.777387	99
Es	1.657951	-0.161959	-0.490229	99
Es	0.435470	0.379695	0.872041	99
Es	-0.092828	-1.902862	-1.578776	99
Es	-0.409024	1.323502	-0.345310	99
Es	-0.115895	0.647680	1.976641	99
Es	-1.152494	1.256227	-0.302793	99
Es	-0.049432	2.321110	0.934248	99
Es	1.811990	-0.349137	-0.304304	99
Es	-0.564605	-1.494973	-0.511489	99
Es	1.597984	-0.222917	-0.776765	99
Es	-0.416688	-1.236609	0.190264	99
Es	-1.114318	-2.393456	-1.162433	99
Es	-0.715899	-1.760058	-1.206479	99
Es	1.176874	-0.048299	-0.249927	99
Es	-0.047400	0.656961	-0.189163	99
Es	-0.019246	-0.590174	0.157533	99
Es	0.371347	0.071412	0.142147	99
Es	-1.114041	-1.258194	-1.596253	99
Es	1.888922	0.313181	-0.477273	99
Es	-0.086215	1.808175	0.257369	99
Es	-0.026967	-1.748298	0.571837	99
Es	-1.065541	-1.126606	0.556165	99
Es	-0.215661	1.581011	-1.024557	99
Es	0.311352	1.576326	1.132480	99
Es	0.429679	0.830077	1.498054	99
Es	1.093039	0.811193	1.850893	99
46
Properties=species:S:1:pos:R:3:Z:I:1 energy=-325.1165030988107 field_type=dipole dipole="0.000000 0.000000 0.000000" charge=0
C	-0.715888	-1.760073	-1.206511	6
C	-0.416688	-1.236623	0.190299	6
C	0.371142	0.071417	0.142239	6
O	1.658052	-0.162223	-0.490331	8
C	-0.409088	1.323437	-0.345421	6
N	0.166472	2.095827	0.777689	7
C	0.429702	0.829947	1.498129	6
H	-1.293358	-2.687983	-1.146811	1
H	0.205312	-1.970693	-1.758901	1
H	-1.296208	-1.034843	-1.785431	1
H	0.150202	-1.992393	0.747169	1
H	-1.365048	-1.095853	0.723249	1
H	2.102092	0.701777	-0.474791	1
H	-1.501788	1.239487	-0.299831	1
H	-0.132358	1.697257	-1.336231	1
H	1.010312	2.612867	0.532589	1
H	1.393362	0.800217	2.016189	1
H	-0.356228	0.568447	2.216709	1
Es	-0.409023	1.323504	-0.345308	99
Es	1.597442	-0.222508	-0.776215	99
Es	-1.152633	1.256102	-0.302632	99
Es	-0.564597	-1.494927	-0.511554	99
Es	-0.416687	-1.236610	0.190264	99
Es	-1.113904	-1.258114	-1.596116	99
Es	1.812442	-0.349116	-0.305553	99
Es	-0.049012	2.320243	0.933567	99
Es	-0.215536	1.581047	-1.024677	99
Es	-0.026966	-1.748360	0.571705	99
Es	-0.047406	0.657273	-0.189086	99
Es	-0.086243	1.808304	0.257296	99
Es	-0.715898	-1.760058	-1.206478	99
Es	1.093335	0.811101	1.850626	99
Es	0.435271	0.379925	0.872161	99
Es	0.697464	2.371040	0.609109	99
Es	0.371346	0.071411	0.142145	99
Es	-1.065703	-1.126647	0.556181	99
Es	-0.092710	-1.902748	-1.578721	99
Es	0.166848	2.095434	0.777421	99
Es	0.429680	0.830074	1.498058	99
Es	0.310618	1.576140	1.132589	99
Es	1.888930	0.313406	-0.477734	99
Es	1.177028	-0.048915	-0.248783	99
Es	1.657960	-0.161956	-0.490172	99
Es	-1.114520	-2.393623	-1.162353	99
Es	-0.116021	0.647593	1.976795	99
Es	-0.019197	-0.590185	0.157487	99
46
Properties=species:S:1:pos:R:3:Z:I:1 energy=-325.1165030988107 field_type=dipole dipole="0.000000 0.000000 0.000000" charge=0
C	-0.715888	-1.760073	-1.206511	6
C	-0.416688	-1.236623	0.190299	6
C	0.371142	0.071417	0.142239	6
O	1.658052	-0.162223	-0.490331	8
C	-0.409088	1.323437	-0.345421	6
N	0.166472	2.095827	0.777689	7
C	0.429702	0.829947	1.498129	6
H	-1.293358	-2.687983	-1.146811	1
H	0.205312	-1.970693	-1.758901	1
H	-1.296208	-1.034843	-1.785431	1
H	0.150202	-1.992393	0.747169	1
H	-1.365048	-1.095853	0.723249	1
H	2.102092	0.701777	-0.474791	1
H	-1.501788	1.239487	-0.299831	1
H	-0.132358	1.697257	-1.336231	1
H	1.010312	2.612867	0.532589	1
H	1.393362	0.800217	2.016189	1
H	-0.356228	0.568447	2.216709	1
Es	-0.116159	0.647430	1.976948	99
Es	0.435335	0.380222	0.872212	99
Es	-0.086813	1.808520	0.257311	99
Es	-1.114616	-2.393649	-1.162230	99
Es	-0.048186	2.319500	0.933077	99
Es	-0.215383	1.581021	-1.024790	99
Es	0.697673	2.371493	0.609177	99
Es	-0.047480	0.657443	-0.189017	99
Es	1.176481	-0.048980	-0.249736	99
Es	0.310156	1.576045	1.132906	99
Es	1.812397	-0.348367	-0.304551	99
Es	-0.019109	-0.590219	0.157543	99
Es	-0.409026	1.323507	-0.345309	99
Es	1.888707	0.313900	-0.478912	99
Es	-0.026997	-1.748315	0.571597	99
Es	-0.416687	-1.236611	0.190265	99
Es	-0.092631	-1.902710	-1.578836	99
Es	-0.715899	-1.760058	-1.206479	99
Es	1.657951	-0.161903	-0.490128	99
Es	0.166872	2.095419	0.777396	99
Es	0.371343	0.071413	0.142148	99
Es	-0.564532	-1.494886	-0.511593	99
Es	0.429677	0.830078	1.498054	99
Es	1.598266	-0.223709	-0.775159	99
Es	-1.113894	-1.258178	-1.595985	99
Es	1.093423	0.811093	1.850393	99
Es	-1.152754	1.256031	-0.302518	99
Es	-1.065811	-1.126695	0.556237	99
46
Properties=species:S:1:pos:R:3:Z:I:1 energy=-325.1165030988107 field_type=dipole dipole="0.000000 0.000000 0.000000" charge=0
C	-0.715888	-1.760073	-1.206511	6
C	-0.416688	-1.236623	0.190299	6
C	0.371142	0.071417	0.142239	6
O	1.658052	-0.162223	-0.490331	8
C	-0.409088	1.323437	-0.345421	6
N	0.166472	2.095827	0.777689	7
C	0.429702	0.829947	1.498129	6
H	-1.293358	-2.687983	-1.146811	1
H	0.205312	-1.970693	-1.758901	1
H	-1.296208	-1.034843	-1.785431	1
H	0.150202	-1.992393	0.747169	1
H	-1.365048	-1.095853	0.723249	1
H	2.102092	0.701777	-0.474791	1
H	-1.501788	1.239487	-0.299831	1
H	-0.132358	1.697257	-1.336231	1
H	1.010312	2.612867	0.532589	1
H	1.393362	0.800217	2.016189	1
H	-0.356228	0.568447	2.216709	1
Es	-1.114688	-2.393606	-1.162217	99
Es	0.166888	2.095425	0.777391	99
Es	-0.116240	0.647327	1.976900	99
Es	1.599904	-0.226770	-0.774362	99
Es	-0.416688	-1.236610	0.190265	99
Es	-0.215285	1.581112	-1.024733	99
Es	0.435259	0.380409	0.872249	99
Es	1.175679	-0.049207	-0.250238	99
Es	-1.113875	-1.258160	-1.595887	99
Es	1.657952	-0.161888	-0.490159	99
Es	-0.019127	-0.590133	0.157525	99
Es	1.093565	0.811031	1.850353	99
Es	-0.047098	2.318956	0.932399	99
Es	-0.087635	1.808669	0.257457	99
Es	-0.715899	-1.760058	-1.206478	99
Es	-0.564640	-1.494935	-0.511591	99
Es	-0.026996	-1.748326	0.571517	99
Es	0.429680	0.830076	1.498055	99
Es	0.371346	0.071413	0.142147	99
Es	-1.065856	-1.126765	0.556258	99
Es	-0.409025	1.323506	-0.345308	99
Es	0.697925	2.371656	0.609079	99
Es	-0.092463	-1.902706	-1.578853	99
Es	-1.152844	1.255988	-0.302554	99
Es	1.812548	-0.345451	-0.302734	99
Es	1.887797	0.314262	-0.481000	99
Es	-0.047399	0.657480	-0.189001	99
Es	0.309523	1.576137	1.133541	99
46
Properties=species:S:1:pos:R:3:Z:I:1 energy=-325.1165030988107 field_type=dipole dipole="0.000000 0.000000 0.000000" charge=0
C	-0.715888	-1.760073	-1.206511	6
C	-0.416688	-1.236623	0.190299	6
C	0.371142	0.071417	0.142239	6
O	1.658052	-0.162223	-0.490331	8
C	-0.409088	1.323437	-0.345421	6
N	0.166472	2.095827	0.777689	7
C	0.429702	0.829947	1.498129	6
H	-1.293358	-2.687983	-1.146811	1
H	0.205312	-1.970693	-1.758901	1
H	-1.296208	-1.034843	-1.785431	1
H	0.150202	-1.992393	0.747169	1
H	-1.365048	-1.095853	0.723249	1
H	2.102092	0.701777	-0.474791	1
H	-1.501788	1.239487	-0.299831	1
H	-0.132358	1.697257	-1.336231	1
H	1.010312	2.612867	0.532589	1
H	1.393362	0.800217	2.016189	1
H	-0.356228	0.568447	2.216709	1
Es	-1.113852	-1.258181	-1.595827	99
Es	0.435293	0.380555	0.872257	99
Es	-0.092402	-1.902655	-1.578868	99
Es	0.166875	2.095416	0.777398	99
Es	0.429679	0.830077	1.498054	99
Es	-0.047490	0.657632	-0.188916	99
Es	-0.409023	1.323507	-0.345308	99
Es	0.371346	0.071413	0.142147	99
Es	1.093613	0.811013	1.850341	99
Es	0.697919	2.372063	0.609086	99
Es	-0.116341	0.647251	1.976873	99
Es	-0.215178	1.581019	-1.024831	99
Es	0.309338	1.576231	1.133938	99
Es	-0.046739	2.318490	0.931873	99
Es	-0.087717	1.808576	0.257489	99
Es	1.597519	-0.223509	-0.773711	99
Es	-0.026990	-1.748248	0.571429	99
Es	1.812725	-0.348454	-0.305652	99
Es	-0.715899	-1.760058	-1.206479	99
Es	1.176555	-0.049114	-0.248562	99
Es	-0.416688	-1.236610	0.190265	99
Es	-1.152923	1.255949	-0.302483	99
Es	1.889157	0.313996	-0.480310	99
Es	1.657930	-0.161915	-0.490253	99
Es	-0.564581	-1.494949	-0.511574	99
Es	-1.114726	-2.393628	-1.162226	99
Es	-0.019088	-0.590252	0.157546	99
Es	-1.066006	-1.126783	0.556325	99
46
Properties=species:S:1:pos:R:3:Z:I:1 energy=-325.1165030988107 field_type=dipole dipole="0.000000 0.000000 0.000000" charge=0
C	-0.715888	-1.760073	-1.206511	6
C	-0.416688	-1.236623	0.190299	6
C	0.371142	0.071417	0.142239	6
O	1.658052	-0.162223	-0.490331	8
C	-0.409088	1.323437	-0.345421	6
N	0.166472	2.095827	0.777689	7
C	0.429702	0.829947	1.498129	6
H	-1.293358	-2.687983	-1.146811	1
H	0.205312	-1.970693	-1.758901	1
H	-1.296208	-1.034843	-1.785431	1
H	0.150202	-1.992393	0.747169	1
H	-1.365048	-1.095853	0.723249	1
H	2.102092	0.701777	-0.474791	1
H	-1.501788	1.239487	-0.299831	1
H	-0.132358	1.697257	-1.336231	1
H	1.010312	2.612867	0.532589	1
H	1.393362	0.800217	2.016189	1
H	-0.356228	0.568447	2.216709	1
Es	-0.564574	-1.494885	-0.511736	99
Es	-0.416689	-1.236611	0.190266	99
Es	0.166864	2.095412	0.777401	99
Es	-0.019156	-0.590254	0.157498	99
Es	-1.065955	-1.126688	0.556294	99
Es	1.599068	-0.225344	-0.773966	99
Es	-1.153001	1.255840	-0.302414	99
Es	-0.409025	1.323506	-0.345308	99
Es	-0.092407	-1.902511	-1.578964	99
Es	0.435360	0.380696	0.872393	99
Es	1.093667	0.811001	1.850290	99
Es	0.371346	0.071412	0.142148	99
Es	1.888887	0.314086	-0.480460	99
Es	1.657967	-0.161914	-0.490102	99
Es	0.429679	0.830078	1.498054	99
Es	-0.046341	2.318211	0.931431	99
Es	-0.715899	-1.760058	-1.206479	99
Es	-1.113951	-1.258155	-1.595679	99
Es	-0.116539	0.647212	1.976887	99
Es	1.812142	-0.346703	-0.304342	99
Es	0.697978	2.372239	0.608970	99
Es	-0.215059	1.581052	-1.024904	99
Es	-0.087923	1.808512	0.257659	99
Es	-1.114714	-2.393775	-1.162073	99
Es	-0.026939	-1.748389	0.571479	99
Es	0.309172	1.576190	1.134214	99
Es	-0.047496	0.657842	-0.188904	99
Es	1.175844	-0.049168	-0.249631	99
46
Properties=species:S:1:pos:R:3:Z:I:1 energy=-325.1165030988107 field_type=dipole dipole="0.000000 0.000000 0.000000" charge=0
C	-0.715888	-1.760073	-1.206511	6
C	-0.416688	-1.236623	0.190299	6
C	0.371142	0.071417	0.142239	6
O	1.658052	-0.162223	-0.490331	8
C	-0.409088	1.323437	-0.345421	6
N	0.166472	2.095827	0.777689	7
C	0.429702	0.829947	1.498129	6
H	-1.293358	-2.687983	-1.146811	1
H	0.205312	-1.970693	-1.758901	1
H	-1.296208	-1.034843	-1.785431	1
H	0.150202	-1.992393	0.747169	1
H	-1.365048	-1.095853	0.723249	1
H	2.102092	0.701777	-0.474791	1
H	-1.501788	1.239487	-0.299831	1
H	-0.132358	1.697257	-1.336231	1
H	1.010312	2.612867	0.532589	1
H	1.393362	0.800217	2.016189	1
H	-0.356228	0.568447	2.216709	1
Es	-1.113776	-1.258168	-1.595865	99
Es	-0.215040	1.581039	-1.024972	99
Es	-0.092297	-1.902626	-1.578742	99
Es	-1.065989	-1.126896	0.556403	99
Es	-0.019088	-0.590140	0.157453	99
Es	-0.409024	1.323505	-0.345309	99
Es	1.811962	-0.348107	-0.305137	99
Es	0.698003	2.372155	0.608899	99
Es	-0.046127	2.318199	0.931473	99
Es	-0.116563	0.647114	1.976882	99
Es	1.598254	-0.224228	-0.772760	99
Es	1.657934	-0.161986	-0.490190	99
Es	-1.153014	1.255783	-0.302356	99
Es	1.889826	0.313970	-0.480918	99
Es	0.371347	0.071413	0.142148	99
Es	1.175957	-0.048578	-0.249524	99
Es	-0.088162	1.808594	0.257661	99
Es	-0.026980	-1.748302	0.571275	99
Es	-0.715900	-1.760058	-1.206479	99
Es	0.429679	0.830077	1.498055	99
Es	-0.047480	0.657872	-0.188788	99
Es	1.093723	0.810966	1.850243	99
Es	0.309112	1.576207	1.134273	99
Es	0.435323	0.380786	0.872419	99
Es	-1.114788	-2.393691	-1.162197	99
Es	-0.416688	-1.236609	0.190264	99
Es	0.166888	2.095406	0.777386	99
Es	-0.564784	-1.494865	-0.511573	99
46
Properties=species:S:1:pos:R:3:Z:I:1 energy=-325.1165030988107 field_type=dipole dipole="0.000000 0.000000 0.000000" charge=0
C	-0.715888	-1.760073	-1.206511	6
C	-0.416688	-1.236623	0.190299	6
C	0.371142	0.071417	0.142239	6
O	1.658052	-0.162223	-0.490331	8
C	-0.409088	1.323437	-0.345421	6
N	0.166472	2.095827	0.777689	7
C	0.429702	0.829947	1.498129	6
H	-1.293358	-2.687983	-1.146811	1
H	0.205312	-1.970693	-1.758901	1
H	-1.296208	-1.034843	-1.785431	1
H	0.150202	-1.992393	0.747169	1
H	-1.365048	-1.095853	0.723249	1
H	2.102092	0.701777	-0.474791	1
H	-1.501788	1.239487	-0.299831	1
H	-0.132358	1.697257	-1.336231	1
H	1.010312	2.612867	0.532589	1
H	1.393362	0.800217	2.016189	1
H	-0.356228	0.568447	2.216709	1
Es	-1.153030	1.255836	-0.302281	99
Es	-0.027050	-1.748319	0.571293	99
Es	-0.715899	-1.760058	-1.206479	99
Es	-0.215002	1.581119	-1.025016	99
Es	-0.092438	-1.902733	-1.578880	99
Es	-0.045836	2.317815	0.931332	99
Es	-0.018923	-0.590206	0.157494	99
Es	0.435377	0.380850	0.872487	99
Es	1.812400	-0.347948	-0.306658	99
Es	-0.416687	-1.236611	0.190265	99
Es	0.308896	1.576020	1.134141	99
Es	-0.116689	0.647120	1.976837	99
Es	0.371347	0.071412	0.142148	99
Es	1.598150	-0.223322	-0.773299	99
Es	-0.047589	0.657951	-0.188920	99
Es	1.093784	0.810972	1.850276	99
Es	-0.088380	1.808707	0.257861	99
Es	-0.564560	-1.494953	-0.511602	99
Es	1.175932	-0.049988	-0.248392	99
Es	0.698220	2.372393	0.608829	99
Es	1.657916	-0.161917	-0.490200	99
Es	0.429680	0.830072	1.498053	99
Es	-1.114860	-2.393646	-1.162074	99
Es	1.889514	0.314158	-0.479905	99
Es	-1.066012	-1.126762	0.556414	99
Es	-1.113807	-1.258046	-1.595782	99
Es	-0.409024	1.323506	-0.345309	99
Es	0.166876	2.095410	0.777393	99
46
Properties=species:S:1:pos:R:3:Z:I:1 energy=-325.1165030988107 field_type=dipole dipole="0.000000 0.000000 0.000000" charge=0
C	-0.715888	-1.760073	-1.206511	6
C	-0.416688	-1.236623	0.190299	6
C	0.371142	0.071417	0.142239	6
O	1.658052	-0.162223	-0.490331	8
C	-0.409088	1.323437	-0.345421	6
N	0.166472	2.095827	0.777689	7
C	0.429702	0.829947	1.498129	6
H	-1.293358	-2.687983	-1.146811	1
H	0.205312	-1.970693	-1.758901	1
H	-1.296208	-1.034843	-1.785431	1
H	0.150202	-1.992393	0.747169	1
H	-1.365048	-1.095853	0.723249	1
H	2.102092	0.701777	-0.474791	1
H	-1.501788	1.239487	-0.299831	1
H	-0.132358	1.697257	-1.336231	1
H	1.010312	2.612867	0.532589	1
H	1.393362	0.800217	2.016189	1
H	-0.356228	0.568447	2.216709	1
Es	1.598413	-0.223084	-0.773061	99
Es	-1.153125	1.255789	-0.302232	99
Es	0.371344	0.071413	0.142149	99
Es	-0.027077	-1.748286	0.571273	99
Es	-1.066155	-1.126803	0.556364	99
Es	-1.113842	-1.258184	-1.595673	99
Es	1.175712	-0.049581	-0.249302	99
Es	-0.088429	1.808542	0.257586	99
Es	0.698065	2.372724	0.609037	99
Es	1.812181	-0.348467	-0.306310	99
Es	0.435275	0.380895	0.872495	99
Es	0.429678	0.830079	1.498055	99
Es	-0.409024	1.323506	-0.345308	99
Es	-0.045360	2.317402	0.930598	99
Es	1.889672	0.314090	-0.479709	99
Es	-0.715899	-1.760058	-1.206479	99
Es	-0.047531	0.657979	-0.188772	99
Es	-0.018930	-0.590204	0.157486	99
Es	-0.116618	0.647063	1.976940	99
Es	1.093817	0.810937	1.850127	99
Es	-0.564650	-1.494934	-0.511608	99
Es	-0.092195	-1.902574	-1.578901	99
Es	-0.214912	1.581132	-1.025030	99
Es	-0.416688	-1.236610	0.190265	99
Es	0.166828	2.095433	0.777411	99
Es	0.308597	1.576208	1.134896	99
Es	-1.114824	-2.393669	-1.162123	99
Es	1.657986	-0.161906	-0.490152	99
46
Properties=species:S:1:pos:R:3:Z:I:1 energy=-325.1165030988107 field_type=dipole dipole="0.000000 0.000000 0.000000" charge=0
C	-0.715888	-1.760073	-1.206511	6
C	-0.416688	-1.236623	0.190299	6
C	0.371142	0.071417	0.142239	6
O	1.658052	-0.162223	-0.490331	8
C	-0.409088	1.323437	-0.345421	6
N	0.166472	2.095827	0.777689	7
C	0.429702	0.829947	1.498129	6
H	-1.293358	-2.687983	-1.146811	1
H	0.205312	-1.970693	-1.758901	1
H	-1.296208	-1.034843	-1.785431	1
H	0.150202	-1.992393	0.747169	1
H	-1.365048	-1.095853	0.723249	1
H	2.102092	0.701777	-0.474791	1
H	-1.501788	1.239487	-0.299831	1
H	-0.132358	1.697257	-1.336231	1
H	1.010312	2.612867	0.532589	1
H	1.393362	0.800217	2.016189	1
H	-0.356228	0.568447	2.216709	1
Es	-0.416688	-1.236610	0.190265	99
Es	-1.113807	-1.258196	-1.595632	99
Es	0.435342	0.380937	0.872440	99
Es	-1.066257	-1.126844	0.556354	99
Es	-0.116693	0.647007	1.976951	99
Es	-0.715899	-1.760058	-1.206480	99
Es	-0.045084	2.317128	0.930404	99
Es	-1.153032	1.255773	-0.302207	99
Es	-0.026998	-1.748323	0.571232	99
Es	1.598747	-0.222900	-0.773199	99
Es	0.371350	0.071413	0.142145	99
Es	-0.088709	1.808626	0.257681	99
Es	1.890201	0.313828	-0.479134	99
Es	-0.092148	-1.902589	-1.578925	99
Es	-0.047599	0.657992	-0.188718	99
Es	1.811614	-0.348484	-0.306329	99
Es	0.429679	0.830076	1.498055	99
Es	0.166874	2.095440	0.777404	99
Es	-0.018953	-0.590185	0.157412	99
Es	0.698068	2.372895	0.609004	99
Es	-1.114903	-2.393677	-1.162033	99
Es	-0.564599	-1.494844	-0.511585	99
Es	-0.214889	1.581181	-1.025144	99
Es	1.093773	0.810966	1.850113	99
Es	0.308531	1.576155	1.135107	99
Es	1.657967	-0.161978	-0.490203	99
Es	1.175447	-0.049404	-0.249648	99
Es	-0.409025	1.323507	-0.345306	99
46
Properties=species:S:1:pos:R:3:Z:I:1 energy=-325.1165030988107 field_type=dipole dipole="0.000000 0.000000 0.000000" charge=0
C	-0.715888	-1.760073	-1.206511	6
C	-0.416688	-1.236623	0.190299	6
C	0.371142	0.071417	0.142239	6
O	1.658052	-0.162223	-0.490331	8
C	-0.409088	1.323437	-0.345421	6
N	0.166472	2.095827	0.777689	7
C	0.429702	0.829947	1.498129	6
H	-1.293358	-2.687983	-1.146811	1
H	0.205312	-1.970693	-1.758901	1
H	-1.296208	-1.034843	-1.785431	1
H	0.150202	-1.992393	0.747169	1
H	-1.365048	-1.095853	0.723249	1
H	2.102092	0.701777	-0.474791	1
H	-1.501788	1.239487	-0.299831	1
H	-0.132358	1.697257	-1.336231	1
H	1.010312	2.612867	0.532589	1
H	1.393362	0.800217	2.016189	1
H	-0.356228	0.568447	2.216709	1
Es	-1.114942	-2.393778	-1.162069	99
Es	-0.214898	1.581078	-1.025209	99
Es	-0.116730	0.646955	1.976996	99
Es	-0.092197	-1.902483	-1.578953	99
Es	-0.409024	1.323506	-0.345311	99
Es	-0.416688	-1.236611	0.190265	99
Es	0.698184	2.373009	0.609171	99
Es	1.889818	0.313671	-0.479942	99
Es	-1.113777	-1.258166	-1.595545	99
Es	-0.047527	0.658142	-0.188673	99
Es	0.308118	1.576247	1.135383	99
Es	1.599446	-0.223626	-0.772718	99
Es	-1.066147	-1.126814	0.556393	99
Es	-0.564645	-1.494945	-0.511656	99
Es	-0.019008	-0.590213	0.157404	99
Es	0.166883	2.095415	0.777391	99
Es	0.435348	0.381064	0.872484	99
Es	-0.088287	1.808527	0.257611	99
Es	-0.045187	2.317043	0.929932	99
Es	1.811876	-0.348112	-0.305325	99
Es	-1.153097	1.255670	-0.302095	99
Es	1.657933	-0.161905	-0.490210	99
Es	0.371347	0.071412	0.142147	99
Es	1.174899	-0.048951	-0.250325	99
Es	-0.715898	-1.760058	-1.206479	99
Es	0.429679	0.830077	1.498056	99
Es	1.093850	0.810973	1.850037	99
Es	-0.027021	-1.748297	0.571258	99
46
Properties=species:S:1:pos:R:3:Z:I:1 energy=-325.1165030988107 field_type=dipole dipole="0.000000 0.000000 0.000000" charge=0
C	-0.715888	-1.760073	-1.206511	6
C	-0.416688	-1.236623	0.190299	6
C	0.371142	0.071417	0.142239	6
O	1.658052	-0.162223	-0.490331	8
C	-0.409088	1.323437	-0.345421	6
N	0.166472	2.095827	0.777689	7
C	0.429702	0.829947	1.498129	6
H	-1.293358	-2.687983	-1.146811	1
H	0.205312	-1.970693	-1.758901	1
H	-1.296208	-1.034843	-1.785431	1
H	0.150202	-1.992393	0.747169	1
H	-1.365048	-1.095853	0.723249	1
H	2.102092	0.701777	-0.474791	1
H	-1.501788	1.239487	-0.299831	1
H	-0.132358	1.697257	-1.336231	1
H	1.010312	2.612867	0.532589	1
H	1.393362	0.800217	2.016189	1
H	-0.356228	0.568447	2.216709	1
Es	-0.214878	1.581126	-1.025114	99
Es	1.812052	-0.348125	-0.306993	99
Es	1.175407	-0.049863	-0.248759	99
Es	1.658010	-0.162053	-0.490275	99
Es	-1.113853	-1.258131	-1.595644	99
Es	-0.409021	1.323508	-0.345311	99
Es	-1.153131	1.255735	-0.302161	99
Es	-1.066180	-1.126809	0.556400	99
Es	0.435324	0.381118	0.872581	99
Es	0.429679	0.830077	1.498055	99
Es	-0.018900	-0.590214	0.157401	99
Es	0.166771	2.095489	0.777461	99
Es	-0.116814	0.646950	1.976894	99
Es	1.598406	-0.222871	-0.772411	99
Es	0.371345	0.071412	0.142148	99
Es	1.093889	0.810888	1.850098	99
Es	-0.092188	-1.902598	-1.578917	99
Es	-0.564643	-1.494929	-0.511600	99
Es	-0.047613	0.658086	-0.188796	99
Es	-0.044409	2.317321	0.929802	99
Es	1.890101	0.313995	-0.480055	99
Es	-0.416688	-1.236610	0.190265	99
Es	0.698374	2.372396	0.608880	99
Es	-0.088860	1.808590	0.257713	99
Es	-0.027015	-1.748322	0.571231	99
Es	-1.114872	-2.393687	-1.162009	99
Es	-0.715899	-1.760058	-1.206479	99
Es	0.307913	1.576409	1.135615	99
46
Properties=species:S:1:pos:R:3:Z:I:1 energy=-325.1165030988107 field_type=dipole dipole="0.000000 0.000000 0.000000" charge=0
C	-0.715888	-1.760073	-1.206511	6
C	-0.416688	-1.236623	0.190299	6
C	0.371142	0.071417	0.142239	6
O	1.658052	-0.162223	-0.490331	8
C	-0.409088	1.323437	-0.345421	6
N	0.166472	2.095827	0.777689	7
C	0.429702	0.829947	1.498129	6
H	-1.293358	-2.687983	-1.146811	1
H	0.205312	-1.970693	-1.758901	1
H	-1.296208	-1.034843	-1.785431	1
H	0.150202	-1.992393	0.747169	1
H	-1.365048	-1.095853	0.723249	1
H	2.102092	0.701777	-0.474791	1
H	-1.501788	1.239487	-0.299831	1
H	-0.132358	1.697257	-1.336231	1
H	1.010312	2.612867	0.532589	1
H	1.393362	0.800217	2.016189	1
H	-0.356228	0.568447	2.216709	1
Es	-0.715899	-1.760058	-1.206479	99
Es	-0.416688	-1.236610	0.190265	99
Es	0.371347	0.071413	0.142147	99
Es	1.658019	-0.162171	-0.490431	99
Es	1.093968	0.810917	1.850082	99
Es	1.889172	0.314301	-0.481139	99
Es	-0.047609	0.658236	-0.188681	99
Es	-0.564606	-1.494948	-0.511594	99
Es	-0.089476	1.808776	0.257842	99
Es	0.698391	2.372652	0.608823	99
Es	-0.214774	1.581097	-1.025177	99
Es	-1.113812	-1.258172	-1.595648	99
Es	0.435269	0.381102	0.872583	99
Es	0.166829	2.095442	0.777429	99
Es	1.813031	-0.347787	-0.306695	99
Es	-0.116796	0.646970	1.976911	99
Es	0.308087	1.576321	1.135209	99
Es	-0.409025	1.323506	-0.345309	99
Es	-1.114876	-2.393757	-1.162054	99
Es	-0.018896	-0.590205	0.157440	99
Es	1.175642	-0.050141	-0.248320	99
Es	-0.027087	-1.748253	0.571227	99
Es	-0.044170	2.316973	0.930162	99
Es	-1.066253	-1.126820	0.556377	99
Es	-0.092171	-1.902519	-1.578874	99
Es	-1.153136	1.255614	-0.302204	99
Es	1.598150	-0.223126	-0.771925	99
Es	0.429679	0.830077	1.498055	99
46
Properties=species:S:1:pos:R:3:Z:I:1 energy=-325.1165030988107 field_type=dipole dipole="0.000000 0.000000 0.000000" charge=0
C	-0.715888	-1.760073	-1.206511	6
C	-0.416688	-1.236623	0.190299	6
C	0.371142	0.071417	0.142239	6
O	1.658052	-0.162223	-0.490331	8
C	-0.409088	1.323437	-0.345421	6
N	0.166472	2.095827	0.777689	7
C	0.429702	0.829947	1.498129	6
H	-1.293358	-2.687983	-1.146811	1
H	0.205312	-1.970693	-1.758901	1
H	-1.296208	-1.034843	-1.785431	1
H	0.150202	-1.992393	0.747169	1
H	-1.365048	-1.095853	0.723249	1
H	2.102092	0.701777	-0.474791	1
H	-1.501788	1.239487	-0.299831	1
H	-0.132358	1.697257	-1.336231	1
H	1.010312	2.612867	0.532589	1
H	1.393362	0.800217	2.016189	1
H	-0.356228	0.568447	2.216709	1
Es	-0.214801	1.581271	-1.025171	99
Es	-0.047551	0.658237	-0.188779	99
Es	-0.564808	-1.495066	-0.511674	99
Es	1.601566	-0.229041	-0.772151	99
Es	-1.066153	-1.126874	0.556476	99
Es	0.166861	2.095427	0.777399	99
Es	-0.019039	-0.590177	0.157354	99
Es	-0.088989	1.808419	0.257994	99
Es	0.371348	0.071412	0.142147	99
Es	1.888511	0.314628	-0.483041	99
Es	1.657968	-0.161963	-0.490185	99
Es	-0.092055	-1.902523	-1.578856	99
Es	0.698480	2.372720	0.608749	99
Es	0.435346	0.381232	0.872623	99
Es	1.094015	0.810953	1.850085	99
Es	-1.113702	-1.258067	-1.595526	99
Es	0.307804	1.576330	1.135468	99
Es	-0.416688	-1.236610	0.190265	99
Es	-1.153172	1.255621	-0.302079	99
Es	-0.715899	-1.760058	-1.206479	99
Es	0.429682	0.830078	1.498054	99
Es	1.174472	-0.048972	-0.251680	99
Es	-0.026941	-1.748255	0.571196	99
Es	-1.115041	-2.393741	-1.162083	99
Es	-0.044483	2.317029	0.929800	99
Es	1.811486	-0.343566	-0.301448	99
Es	-0.116891	0.646884	1.976872	99
Es	-0.409020	1.323505	-0.345310	99
46
Properties=species:S:1:pos:R:3:Z:I:1 energy=-325.1165030988107 field_type=dipole dipole="0.000000 0.000000 0.000000" charge=0
C	-0.715888	-1.760073	-1.206511	6
C	-0.416688	-1.236623	0.190299	6
C	0.371142	0.071417	0.142239	6
O	1.658052	-0.162223	-0.490331	8
C	-0.409088	1.323437	-0.345421	6
N	0.166472	2.095827	0.777689	7
C	0.429702	0.829947	1.498129	6
H	-1.293358	-2.687983	-1.146811	1
H	0.205312	-1.970693	-1.758901	1
H	-1.296208	-1.034843	-1.785431	1
H	0.150202	-1.992393	0.747169	1
H	-1.365048	-1.095853	0.723249	1
H	2.102092	0.701777	-0.474791	1
H	-1.501788	1.239487	-0.299831	1
H	-0.132358	1.697257	-1.336231	1
H	1.010312	2.612867	0.532589	1
H	1.393362	0.800217	2.016189	1
H	-0.356228	0.568447	2.216709	1
Es	-0.416688	-1.236610	0.190265	99
Es	0.429679	0.830079	1.498056	99
Es	1.889599	0.314088	-0.480930	99
Es	1.599069	-0.224428	-0.772391	99
Es	-0.715899	-1.760058	-1.206479	99
Es	-0.564538	-1.494940	-0.511601	99
Es	1.657911	-0.161892	-0.490259	99
Es	0.166885	2.095402	0.777386	99
Es	-0.047643	0.658251	-0.188714	99
Es	-0.409024	1.323506	-0.345309	99
Es	1.175271	-0.049596	-0.249164	99
Es	1.093941	0.810869	1.849967	99
Es	0.371345	0.071413	0.142147	99
Es	-1.114931	-2.393755	-1.162014	99
Es	-1.153260	1.255686	-0.302123	99
Es	0.307878	1.576268	1.135701	99
Es	-0.089630	1.808879	0.257804	99
Es	-0.092080	-1.902472	-1.578959	99
Es	-1.113828	-1.258160	-1.595503	99
Es	-1.066365	-1.126871	0.556343	99
Es	-0.027036	-1.748285	0.571192	99
Es	-0.116839	0.646891	1.976983	99
Es	0.435293	0.381189	0.872560	99
Es	-0.214722	1.581115	-1.025136	99
Es	-0.018879	-0.590173	0.157446	99
Es	1.812166	-0.347094	-0.305781	99
Es	-0.043699	2.316476	0.929685	99
Es	0.698332	2.373053	0.608852	99
46
Properties=species:S:1:pos:R:3:Z:I:1 energy=-325.1165030988107 field_type=dipole dipole="0.000000 0.000000 0.000000" charge=0
C	-0.715888	-1.760073	-1.206511	6
C	-0.416688	-1.236623	0.190299	6
C	0.371142	0.071417	0.142239	6
O	1.658052	-0.162223	-0.490331	8
C	-0.409088	1.323437	-0.345421	6
N	0.166472	2.095827	0.777689	7
C	0.429702	0.829947	1.498129	6
H	-1.293358	-2.687983	-1.146811	1
H	0.205312	-1.970693	-1.758901	1
H	-1.296208	-1.034843	-1.785431	1
H	0.150202	-1.992393	0.747169	1
H	-1.365048	-1.095853	0.723249	1
H	2.102092	0.701777	-0.474791	1
H	-1.501788	1.239487	-0.299831	1
H	-0.132358	1.697257	-1.336231	1
H	1.010312	2.612867	0.532589	1
H	1.393362	0.800217	2.016189	1
H	-0.356228	0.568447	2.216709	1
Es	1.093942	0.810840	1.849893	99
Es	0.429680	0.830075	1.498056	99
Es	-0.047739	0.658257	-0.188690	99
Es	-0.715899	-1.760058	-1.206479	99
Es	-0.043504	2.316513	0.929683	99
Es	-0.089849	1.809087	0.258022	99
Es	-0.116909	0.646824	1.977012	99
Es	-1.114986	-2.393694	-1.162082	99
Es	-1.066300	-1.126827	0.556434	99
Es	0.698398	2.372933	0.608678	99
Es	0.166902	2.095391	0.777377	99
Es	0.435324	0.381257	0.872706	99
Es	-0.214695	1.581157	-1.025213	99
Es	1.175518	-0.049675	-0.248798	99
Es	0.371346	0.071413	0.142147	99
Es	-0.564681	-1.494923	-0.511577	99
Es	-1.113743	-1.258159	-1.595544	99
Es	-0.026976	-1.748291	0.571174	99
Es	1.890893	0.313696	-0.478700	99
Es	0.307814	1.576122	1.135657	99
Es	-0.409024	1.323505	-0.345310	99
Es	-1.153211	1.255641	-0.302109	99
Es	1.811637	-0.349554	-0.308195	99
Es	-0.416688	-1.236610	0.190265	99
Es	-0.018856	-0.590202	0.157399	99
Es	-0.092058	-1.902538	-1.578916	99
Es	1.598067	-0.221437	-0.772664	99
Es	1.657906	-0.161911	-0.490206	99
46
Properties=species:S:1:pos:R:3:Z:I:1 energy=-325.1165030988107 field_type=dipole dipole="0.000000 0.000000 0.000000" charge=0
C	-0.715888	-1.760073	-1.206511	6
C	-0.416688	-1.236623	0.190299	6
C	0.371142	0.071417	0.142239	6
O	1.658052	-0.162223	-0.490331	8
C	-0.409088	1.323437	-0.345421	6
N	0.166472	2.095827	0.777689	7
C	0.429702	0.829947	1.498129	6
H	-1.293358	-2.687983	-1.146811	1
H	0.205312	-1.970693	-1.758901	1
H	-1.296208	-1.034843	-1.785431	1
H	0.150202	-1.992393	0.747169	1
H	-1.365048	-1.095853	0.723249	1
H	2.102092	0.701777	-0.474791	1
H	-1.501788	1.239487	-0.299831	1
H	-0.132358	1.697257	-1.336231	1
H	1.010312	2.612867	0.532589	1
H	1.393362	0.800217	2.016189	1
H	-0.356228	0.568447	2.216709	1
Es	-1.113839	-1.258141	-1.595515	99
Es	-0.715899	-1.760058	-1.206480	99
Es	-0.092109	-1.902565	-1.579001	99
Es	1.094031	0.810861	1.849934	99
Es	-0.089609	1.808711	0.257968	99
Es	-0.043800	2.316323	0.929585	99
Es	0.429679	0.830077	1.498055	99
Es	1.657896	-0.161883	-0.490245	99
Es	0.307850	1.576291	1.135654	99
Es	-0.116942	0.646854	1.976972	99
Es	-0.214651	1.581127	-1.025308	99
Es	-1.066212	-1.126797	0.556550	99
Es	-0.047655	0.658387	-0.188674	99
Es	-0.027054	-1.748337	0.571050	99
Es	0.371346	0.071413	0.142148	99
Es	1.812317	-0.348302	-0.306682	99
Es	1.175315	-0.049701	-0.249062	99
Es	1.598605	-0.223118	-0.771911	99
Es	1.889911	0.314108	-0.480581	99
Es	-1.153228	1.255541	-0.302037	99
Es	0.435250	0.381352	0.872657	99
Es	-0.416688	-1.236610	0.190265	99
Es	-1.114924	-2.393642	-1.162064	99
Es	-0.018806	-0.590280	0.157454	99
Es	0.166883	2.095426	0.777396	99
Es	0.698401	2.373205	0.608779	99
Es	-0.564734	-1.494917	-0.511578	99
Es	-0.409024	1.323506	-0.345308	99
46
Properties=species:S:1:pos:R:3:Z:I:1 energy=-325.1165030988107 field_type=dipole dipole="0.000000 0.000000 0.000000" charge=0
C	-0.715888	-1.760073	-1.206511	6
C	-0.416688	-1.236623	0.190299	6
C	0.371142	0.071417	0.142239	6
O	1.658052	-0.162223	-0.490331	8
C	-0.409088	1.323437	-0.345421	6
N	0.166472	2.095827	0.777689	7
C	0.429702	0.829947	1.498129	6
H	-1.293358	-2.687983	-1.146811	1
H	0.205312	-1.970693	-1.758901	1
H	-1.296208	-1.034843	-1.785431	1
H	0.150202	-1.992393	0.747169	1
H	-1.365048	-1.095853	0.723249	1
H	2.102092	0.701777	-0.474791	1
H	-1.501788	1.239487	-0.299831	1
H	-0.132358	1.697257	-1.336231	1
H	1.010312	2.612867	0.532589	1
H	1.393362	0.800217	2.016189	1
H	-0.356228	0.568447	2.216709	1
Es	-0.026944	-1.748341	0.571172	99
Es	-0.416688	-1.236610	0.190266	99
Es	-0.409023	1.323505	-0.345308	99
Es	0.307578	1.576122	1.135858	99
Es	0.435248	0.381350	0.872684	99
Es	1.599183	-0.225038	-0.772709	99
Es	0.429679	0.830074	1.498057	99
Es	-0.214633	1.581178	-1.025239	99
Es	1.657942	-0.161916	-0.490204	99
Es	-0.047699	0.658406	-0.188706	99
Es	0.166814	2.095459	0.777432	99
Es	-0.715899	-1.760058	-1.206479	99
Es	-0.090053	1.809060	0.258063	99
Es	-0.116955	0.646805	1.976944	99
Es	-0.564633	-1.494956	-0.511608	99
Es	1.811315	-0.346411	-0.306003	99
Es	-0.092047	-1.902583	-1.578844	99
Es	-0.043131	2.316452	0.929453	99
Es	0.698501	2.372815	0.608542	99
Es	-1.114925	-2.393698	-1.161975	99
Es	1.175399	-0.049747	-0.248995	99
Es	-0.018904	-0.590160	0.157402	99
Es	1.890218	0.314184	-0.480579	99
Es	-1.153276	1.255598	-0.302048	99
Es	-1.113838	-1.258042	-1.595599	99
Es	0.371345	0.071414	0.142149	99
Es	1.094076	0.810829	1.849917	99
Es	-1.066341	-1.126860	0.556381	99
