43
Properties=species:S:1:pos:R:3:Z:I:1 energy=-323.9232134110257 field_type=dipole dipole="0.000000 0.000000 0.000000" charge=0
C	-1.077939	-1.415549	0.922491	6
C	-0.682539	-0.942709	-0.469209	6
C	-0.324849	0.516661	-0.489889	6
C	-1.176299	1.485811	-0.859169	6
C	1.058691	0.923981	-0.127019	6
N	1.984541	0.083781	0.206811	7
O	3.164021	0.788831	0.476041	8
H	-1.327599	-2.481380	0.901221	1
H	-1.956299	-0.872499	1.288251	1
H	-0.265459	-1.273519	1.642471	1
H	-1.516789	-1.133519	-1.155959	1
H	0.153361	-1.545629	-0.842879	1
H	-2.196319	1.250121	-1.148419	1
H	-0.893459	2.533881	-0.881239	1
H	1.269130	2.008991	-0.161879	1
H	3.787811	0.072751	0.698381	1
Es	-1.677949	-1.042326	1.166798	99
Es	-0.682540	-0.942643	-0.469174	99
Es	-0.496629	-0.197891	-0.476998	99
Es	0.378580	0.703059	-0.296649	99
Es	-1.867950	1.330585	-1.056821	99
Es	1.993505	-0.294321	0.243085	99
Es	-1.248093	-2.142514	0.902204	99
Es	-0.115429	-1.340737	-0.719727	99
Es	3.240381	0.913386	0.205851	99
Es	-0.324708	0.516603	-0.489850	99
Es	-0.873738	-1.160594	0.225220	99
Es	-0.985243	2.195708	-0.872232	99
Es	-1.077935	-1.415539	0.922449	99
Es	-1.257040	-1.061648	-0.935279	99
Es	3.494484	0.402066	0.595305	99
Es	1.984593	0.084412	0.206770	99
Es	-0.631750	0.982952	-0.973960	99
Es	-1.176364	1.485880	-0.859187	99
Es	3.164011	0.788469	0.476030	99
Es	-0.825084	1.041214	-0.361294	99
Es	3.097755	0.952606	0.726726	99
Es	1.196156	1.653565	-0.151223	99
Es	-0.527077	-1.316620	1.408169	99
Es	1.058644	0.923956	-0.127026	99
Es	1.486270	0.475314	0.334664	99
Es	2.647446	0.481746	0.357626	99
Es	1.641756	0.425982	-0.223158	99
43
Properties=species:S:1:pos:R:3:Z:I:1 energy=-323.9232134110257 field_type=dipole dipole="0.000000 0.000000 0.000000" charge=0
C	-1.077939	-1.415549	0.922491	6
C	-0.682539	-0.942709	-0.469209	6
C	-0.324849	0.516661	-0.489889	6
C	-1.176299	1.485811	-0.859169	6
C	1.058691	0.923981	-0.127019	6
N	1.984541	0.083781	0.206811	7
O	3.164021	0.788831	0.476041	8
H	-1.327599	-2.481380	0.901221	1
H	-1.956299	-0.872499	1.288251	1
H	-0.265459	-1.273519	1.642471	1
H	-1.516789	-1.133519	-1.155959	1
H	0.153361	-1.545629	-0.842879	1
H	-2.196319	1.250121	-1.148419	1
H	-0.893459	2.533881	-0.881239	1
H	1.269130	2.008991	-0.161879	1
H	3.787811	0.072751	0.698381	1
Es	1.990319	-0.296211	0.242944	99
Es	1.058640	0.923959	-0.127027	99
Es	-1.246697	-2.139512	0.899456	99
Es	-1.870144	1.331544	-1.057514	99
Es	1.984564	0.084404	0.206762	99
Es	3.163937	0.788435	0.476177	99
Es	3.099060	0.949633	0.710242	99
Es	-0.523064	-1.317916	1.408000	99
Es	-0.873601	-1.159878	0.223884	99
Es	-1.077934	-1.415539	0.922448	99
Es	-0.632396	0.982803	-0.973817	99
Es	3.504801	0.400463	0.600192	99
Es	3.233803	0.911181	0.217951	99
Es	1.488191	0.478015	0.332556	99
Es	1.642161	0.429555	-0.220398	99
Es	-1.176368	1.485886	-0.859189	99
Es	-0.984686	2.193081	-0.871916	99
Es	-0.324709	0.516600	-0.489841	99
Es	2.643688	0.484760	0.357757	99
Es	-0.825191	1.041352	-0.361352	99
Es	-0.497675	-0.197531	-0.474372	99
Es	1.196628	1.652436	-0.151614	99
Es	-0.111397	-1.343704	-0.717432	99
Es	-0.682540	-0.942642	-0.469173	99
Es	-1.260811	-1.061181	-0.934631	99
Es	0.379649	0.703145	-0.297152	99
Es	-1.682180	-1.040468	1.165378	99
43
Properties=species:S:1:pos:R:3:Z:I:1 energy=-323.9232134110257 field_type=dipole dipole="0.000000 0.000000 0.000000" charge=0
C	-1.077939	-1.415549	0.922491	6
C	-0.682539	-0.942709	-0.469209	6
C	-0.324849	0.516661	-0.489889	6
C	-1.176299	1.485811	-0.859169	6
C	1.058691	0.923981	-0.127019	6
N	1.984541	0.083781	0.206811	7
O	3.164021	0.788831	0.476041	8
H	-1.327599	-2.481380	0.901221	1
H	-1.956299	-0.872499	1.288251	1
H	-0.265459	-1.273519	1.642471	1
H	-1.516789	-1.133519	-1.155959	1
H	0.153361	-1.545629	-0.842879	1
H	-2.196319	1.250121	-1.148419	1
H	-0.893459	2.533881	-0.881239	1
H	1.269130	2.008991	-0.161879	1
H	3.787811	0.072751	0.698381	1
Es	1.988462	-0.296939	0.242804	99
Es	-0.632795	0.982670	-0.974500	99
Es	1.196832	1.651673	-0.151491	99
Es	3.510051	0.401015	0.598318	99
Es	1.642610	0.431105	-0.219426	99
Es	-0.108805	-1.347227	-0.712977	99
Es	3.094946	0.888920	0.695304	99
Es	-1.176369	1.485887	-0.859187	99
Es	2.642275	0.487627	0.352962	99
Es	-0.324705	0.516598	-0.489844	99
Es	1.058637	0.923960	-0.127027	99
Es	-0.825386	1.041443	-0.360383	99
Es	1.984562	0.084405	0.206762	99
Es	-1.871327	1.333325	-1.058210	99
Es	-0.984268	2.190590	-0.871286	99
Es	3.163989	0.788428	0.475980	99
Es	1.489434	0.480112	0.331455	99
Es	0.380171	0.702666	-0.297086	99
Es	-0.682541	-0.942644	-0.469174	99
Es	-1.263501	-1.060141	-0.933768	99
Es	3.234351	0.965615	0.240233	99
Es	-1.077934	-1.415539	0.922447	99
Es	-0.520120	-1.319857	1.407654	99
Es	-1.246174	-2.136478	0.897060	99
Es	-0.873417	-1.158963	0.222180	99
Es	-0.498147	-0.197513	-0.472654	99
Es	-1.684781	-1.038067	1.162171	99
43
Properties=species:S:1:pos:R:3:Z:I:1 energy=-323.9232134110257 field_type=dipole dipole="0.000000 0.000000 0.000000" charge=0
C	-1.077939	-1.415549	0.922491	6
C	-0.682539	-0.942709	-0.469209	6
C	-0.324849	0.516661	-0.489889	6
C	-1.176299	1.485811	-0.859169	6
C	1.058691	0.923981	-0.127019	6
N	1.984541	0.083781	0.206811	7
O	3.164021	0.788831	0.476041	8
H	-1.327599	-2.481380	0.901221	1
H	-1.956299	-0.872499	1.288251	1
H	-0.265459	-1.273519	1.642471	1
H	-1.516789	-1.133519	-1.155959	1
H	0.153361	-1.545629	-0.842879	1
H	-2.196319	1.250121	-1.148419	1
H	-0.893459	2.533881	-0.881239	1
H	1.269130	2.008991	-0.161879	1
H	3.787811	0.072751	0.698381	1
Es	1.984580	0.084424	0.206768	99
Es	1.987910	-0.296144	0.242180	99
Es	-0.324708	0.516600	-0.489837	99
Es	-0.518444	-1.323815	1.408116	99
Es	3.162907	0.788037	0.478387	99
Es	-0.498217	-0.198072	-0.471716	99
Es	-0.984112	2.187070	-0.870445	99
Es	-1.872164	1.336345	-1.058880	99
Es	-1.176369	1.485886	-0.859191	99
Es	3.512960	0.401803	0.596337	99
Es	0.380502	0.701603	-0.296828	99
Es	-0.873286	-1.158442	0.220869	99
Es	-1.686126	-1.036702	1.159640	99
Es	1.489360	0.481047	0.332698	99
Es	-0.107474	-1.349203	-0.709422	99
Es	3.225776	1.037013	0.305269	99
Es	-1.077932	-1.415538	0.922447	99
Es	1.643380	0.432101	-0.220404	99
Es	-0.631788	0.982780	-0.976603	99
Es	3.102592	0.810587	0.634523	99
Es	-1.246186	-2.131675	0.895575	99
Es	1.196942	1.650628	-0.151142	99
Es	-0.682538	-0.942642	-0.469170	99
Es	-0.826762	1.041171	-0.358493	99
Es	-1.264681	-1.057469	-0.933992	99
Es	2.641291	0.491318	0.348663	99
Es	1.058637	0.923960	-0.127031	99
43
Properties=species:S:1:pos:R:3:Z:I:1 energy=-323.9232134110257 field_type=dipole dipole="0.000000 0.000000 0.000000" charge=0
C	-1.077939	-1.415549	0.922491	6
C	-0.682539	-0.942709	-0.469209	6
C	-0.324849	0.516661	-0.489889	6
C	-1.176299	1.485811	-0.859169	6
C	1.058691	0.923981	-0.127019	6
N	1.984541	0.083781	0.206811	7
O	3.164021	0.788831	0.476041	8
H	-1.327599	-2.481380	0.901221	1
H	-1.956299	-0.872499	1.288251	1
H	-0.265459	-1.273519	1.642471	1
H	-1.516789	-1.133519	-1.155959	1
H	0.153361	-1.545629	-0.842879	1
H	-2.196319	1.250121	-1.148419	1
H	-0.893459	2.533881	-0.881239	1
H	1.269130	2.008991	-0.161879	1
H	3.787811	0.072751	0.698381	1
Es	3.512529	0.402375	0.600897	99
Es	-0.983633	2.182952	-0.870365	99
Es	-1.265332	-1.054079	-0.934386	99
Es	-0.106927	-1.350384	-0.707014	99
Es	-1.077934	-1.415542	0.922443	99
Es	2.639804	0.493531	0.351204	99
Es	-0.498410	-0.199397	-0.470966	99
Es	1.197209	1.649833	-0.151492	99
Es	-1.872772	1.340154	-1.059485	99
Es	-0.517576	-1.329328	1.408788	99
Es	1.489829	0.481957	0.333101	99
Es	1.058639	0.923961	-0.127039	99
Es	-0.827020	1.041533	-0.357038	99
Es	-0.682539	-0.942643	-0.469170	99
Es	-0.324707	0.516601	-0.489833	99
Es	1.987236	-0.295928	0.242959	99
Es	-1.246299	-2.125532	0.894752	99
Es	0.380791	0.700161	-0.296693	99
Es	-1.176368	1.485886	-0.859192	99
Es	-0.631800	0.982324	-0.977976	99
Es	-0.873055	-1.158020	0.220027	99
Es	-1.686796	-1.035919	1.157978	99
Es	1.984568	0.084426	0.206763	99
Es	1.643819	0.432791	-0.220986	99
Es	3.213050	1.072068	0.366669	99
Es	3.117453	0.771211	0.564867	99
Es	3.162291	0.787678	0.479507	99
43
Properties=species:S:1:pos:R:3:Z:I:1 energy=-323.9232134110257 field_type=dipole dipole="0.000000 0.000000 0.000000" charge=0
C	-1.077939	-1.415549	0.922491	6
C	-0.682539	-0.942709	-0.469209	6
C	-0.324849	0.516661	-0.489889	6
C	-1.176299	1.485811	-0.859169	6
C	1.058691	0.923981	-0.127019	6
N	1.984541	0.083781	0.206811	7
O	3.164021	0.788831	0.476041	8
H	-1.327599	-2.481380	0.901221	1
H	-1.956299	-0.872499	1.288251	1
H	-0.265459	-1.273519	1.642471	1
H	-1.516789	-1.133519	-1.155959	1
H	0.153361	-1.545629	-0.842879	1
H	-2.196319	1.250121	-1.148419	1
H	-0.893459	2.533881	-0.881239	1
H	1.269130	2.008991	-0.161879	1
H	3.787811	0.072751	0.698381	1
Es	-0.498743	-0.201044	-0.470081	99
Es	-1.246209	-2.119703	0.894079	99
Es	-1.686917	-1.034878	1.155845	99
Es	1.984569	0.084433	0.206759	99
Es	1.197419	1.649722	-0.151969	99
Es	1.643998	0.433525	-0.220641	99
Es	-0.682541	-0.942641	-0.469172	99
Es	-0.107015	-1.352032	-0.703504	99
Es	-0.827001	1.041767	-0.356586	99
Es	-0.632102	0.981964	-0.978212	99
Es	-1.872932	1.343303	-1.059991	99
Es	1.490698	0.482712	0.332405	99
Es	-1.265656	-1.050820	-0.934683	99
Es	3.511238	0.402567	0.605408	99
Es	-0.517114	-1.334893	1.409009	99
Es	1.058638	0.923959	-0.127036	99
Es	-0.983122	2.179918	-0.870497	99
Es	-0.324710	0.516601	-0.489840	99
Es	-0.872961	-1.157564	0.218623	99
Es	1.986568	-0.296872	0.244391	99
Es	3.145592	0.771239	0.496793	99
Es	0.381085	0.698757	-0.296479	99
Es	3.205804	1.081940	0.399045	99
Es	-1.176368	1.485886	-0.859193	99
Es	3.144764	0.773585	0.504025	99
Es	2.637000	0.496776	0.357374	99
Es	-1.077934	-1.415538	0.922447	99
43
Properties=species:S:1:pos:R:3:Z:I:1 energy=-323.9232134110257 field_type=dipole dipole="0.000000 0.000000 0.000000" charge=0
C	-1.077939	-1.415549	0.922491	6
C	-0.682539	-0.942709	-0.469209	6
C	-0.324849	0.516661	-0.489889	6
C	-1.176299	1.485811	-0.859169	6
C	1.058691	0.923981	-0.127019	6
N	1.984541	0.083781	0.206811	7
O	3.164021	0.788831	0.476041	8
H	-1.327599	-2.481380	0.901221	1
H	-1.956299	-0.872499	1.288251	1
H	-0.265459	-1.273519	1.642471	1
H	-1.516789	-1.133519	-1.155959	1
H	0.153361	-1.545629	-0.842879	1
H	-2.196319	1.250121	-1.148419	1
H	-0.893459	2.533881	-0.881239	1
H	1.269130	2.008991	-0.161879	1
H	3.787811	0.072751	0.698381	1
Es	-1.872933	1.346149	-1.060315	99
Es	1.491129	0.482752	0.331736	99
Es	-0.632179	0.981932	-0.978117	99
Es	1.984578	0.084436	0.206766	99
Es	-0.982965	2.177276	-0.870118	99
Es	3.510846	0.401927	0.605209	99
Es	-0.516976	-1.339861	1.408718	99
Es	-1.266108	-1.048556	-0.934426	99
Es	-1.176368	1.485887	-0.859191	99
Es	-0.682540	-0.942645	-0.469173	99
Es	2.635629	0.499528	0.357954	99
Es	3.127279	0.760936	0.528079	99
Es	-0.324709	0.516602	-0.489838	99
Es	-0.107723	-1.354187	-0.698326	99
Es	-1.245982	-2.114999	0.893334	99
Es	-0.827148	1.041673	-0.356572	99
Es	1.197429	1.650033	-0.152067	99
Es	-1.077933	-1.415537	0.922443	99
Es	1.644205	0.434516	-0.219880	99
Es	1.986854	-0.298359	0.244654	99
Es	-0.499007	-0.202084	-0.469413	99
Es	1.058638	0.923959	-0.127036	99
Es	0.381403	0.697523	-0.296268	99
Es	-0.872501	-1.157110	0.216907	99
Es	3.160546	0.786695	0.482470	99
Es	3.208951	1.077178	0.388556	99
Es	-1.686363	-1.032992	1.152233	99
43
Properties=species:S:1:pos:R:3:Z:I:1 energy=-323.9232134110257 field_type=dipole dipole="0.000000 0.000000 0.000000" charge=0
C	-1.077939	-1.415549	0.922491	6
C	-0.682539	-0.942709	-0.469209	6
C	-0.324849	0.516661	-0.489889	6
C	-1.176299	1.485811	-0.859169	6
C	1.058691	0.923981	-0.127019	6
N	1.984541	0.083781	0.206811	7
O	3.164021	0.788831	0.476041	8
H	-1.327599	-2.481380	0.901221	1
H	-1.956299	-0.872499	1.288251	1
H	-0.265459	-1.273519	1.642471	1
H	-1.516789	-1.133519	-1.155959	1
H	0.153361	-1.545629	-0.842879	1
H	-2.196319	1.250121	-1.148419	1
H	-0.893459	2.533881	-0.881239	1
H	1.269130	2.008991	-0.161879	1
H	3.787811	0.072751	0.698381	1
Es	3.510367	0.401657	0.605959	99
Es	3.163961	0.787942	0.475191	99
Es	3.125643	0.757275	0.527308	99
Es	3.208332	1.077113	0.393247	99
Es	1.987093	-0.299454	0.245585	99
Es	1.197320	1.650377	-0.152316	99
Es	2.633914	0.502452	0.360015	99
Es	-0.632209	0.981848	-0.977958	99
Es	1.644188	0.434184	-0.219770	99
Es	-1.266195	-1.046236	-0.934383	99
Es	-0.872219	-1.156893	0.215831	99
Es	-0.108638	-1.355830	-0.694003	99
Es	-0.499347	-0.203493	-0.468855	99
Es	-0.517366	-1.345252	1.408499	99
Es	-0.982848	2.175426	-0.870029	99
Es	1.984561	0.084423	0.206760	99
Es	1.058635	0.923958	-0.127034	99
Es	-1.176369	1.485887	-0.859188	99
Es	-1.245362	-2.109649	0.893095	99
Es	-1.872869	1.348202	-1.060393	99
Es	-0.827140	1.041701	-0.356858	99
Es	-1.077934	-1.415539	0.922444	99
Es	0.381729	0.696393	-0.296107	99
Es	-0.324708	0.516599	-0.489835	99
Es	1.491802	0.483868	0.331362	99
Es	-1.685753	-1.031644	1.148923	99
Es	-0.682539	-0.942644	-0.469172	99
43
Properties=species:S:1:pos:R:3:Z:I:1 energy=-323.9232134110257 field_type=dipole dipole="0.000000 0.000000 0.000000" charge=0
C	-1.077939	-1.415549	0.922491	6
C	-0.682539	-0.942709	-0.469209	6
C	-0.324849	0.516661	-0.489889	6
C	-1.176299	1.485811	-0.859169	6
C	1.058691	0.923981	-0.127019	6
N	1.984541	0.083781	0.206811	7
O	3.164021	0.788831	0.476041	8
H	-1.327599	-2.481380	0.901221	1
H	-1.956299	-0.872499	1.288251	1
H	-0.265459	-1.273519	1.642471	1
H	-1.516789	-1.133519	-1.155959	1
H	0.153361	-1.545629	-0.842879	1
H	-2.196319	1.250121	-1.148419	1
H	-0.893459	2.533881	-0.881239	1
H	1.269130	2.008991	-0.161879	1
H	3.787811	0.072751	0.698381	1
Es	-0.109517	-1.357069	-0.690188	99
Es	-1.244628	-2.105062	0.893154	99
Es	2.632432	0.504330	0.362194	99
Es	-1.077934	-1.415538	0.922446	99
Es	-1.872684	1.350428	-1.060569	99
Es	-0.827317	1.041621	-0.356984	99
Es	0.381910	0.695863	-0.296015	99
Es	-0.682539	-0.942644	-0.469172	99
Es	-1.685184	-1.030670	1.146571	99
Es	1.984546	0.084415	0.206757	99
Es	1.197267	1.650657	-0.152555	99
Es	1.644281	0.435046	-0.219105	99
Es	-0.517874	-1.349874	1.407992	99
Es	3.509975	0.401434	0.606527	99
Es	1.987860	-0.300552	0.246059	99
Es	3.207924	1.077214	0.394996	99
Es	-1.176370	1.485887	-0.859190	99
Es	-0.982913	2.173297	-0.869922	99
Es	-1.266389	-1.044426	-0.934086	99
Es	1.491917	0.483476	0.331032	99
Es	3.131668	0.760180	0.515203	99
Es	1.058637	0.923959	-0.127033	99
Es	-0.499604	-0.205038	-0.468451	99
Es	3.159098	0.783802	0.482174	99
Es	-0.324712	0.516601	-0.489839	99
Es	-0.632117	0.981881	-0.977784	99
Es	-0.871683	-1.156548	0.214107	99
43
Properties=species:S:1:pos:R:3:Z:I:1 energy=-323.9232134110257 field_type=dipole dipole="0.000000 0.000000 0.000000" charge=0
C	-1.077939	-1.415549	0.922491	6
C	-0.682539	-0.942709	-0.469209	6
C	-0.324849	0.516661	-0.489889	6
C	-1.176299	1.485811	-0.859169	6
C	1.058691	0.923981	-0.127019	6
N	1.984541	0.083781	0.206811	7
O	3.164021	0.788831	0.476041	8
H	-1.327599	-2.481380	0.901221	1
H	-1.956299	-0.872499	1.288251	1
H	-0.265459	-1.273519	1.642471	1
H	-1.516789	-1.133519	-1.155959	1
H	0.153361	-1.545629	-0.842879	1
H	-2.196319	1.250121	-1.148419	1
H	-0.893459	2.533881	-0.881239	1
H	1.269130	2.008991	-0.161879	1
H	3.787811	0.072751	0.698381	1
Es	-0.499911	-0.206404	-0.468215	99
Es	-0.682540	-0.942645	-0.469174	99
Es	-1.077934	-1.415538	0.922446	99
Es	-1.243604	-2.099878	0.893326	99
Es	3.206667	1.079401	0.400066	99
Es	-1.684605	-1.029840	1.144521	99
Es	-0.324707	0.516601	-0.489840	99
Es	1.987905	-0.300965	0.246739	99
Es	1.058637	0.923958	-0.127035	99
Es	-0.518694	-1.355146	1.407295	99
Es	1.197347	1.650695	-0.152662	99
Es	3.141702	0.769059	0.504187	99
Es	-0.982899	2.172533	-0.869881	99
Es	-1.176369	1.485887	-0.859191	99
Es	-0.110411	-1.358106	-0.686939	99
Es	2.631666	0.504731	0.364906	99
Es	0.381956	0.695499	-0.295948	99
Es	1.644323	0.435466	-0.218812	99
Es	3.150968	0.772221	0.483881	99
Es	1.492220	0.483395	0.330481	99
Es	-1.266466	-1.042724	-0.933827	99
Es	-0.632563	0.981664	-0.977829	99
Es	-0.826875	1.041844	-0.356923	99
Es	-0.871314	-1.156248	0.212978	99
Es	3.509602	0.401495	0.607605	99
Es	-1.872610	1.351290	-1.060599	99
Es	1.984558	0.084428	0.206760	99
43
Properties=species:S:1:pos:R:3:Z:I:1 energy=-323.9232134110257 field_type=dipole dipole="0.000000 0.000000 0.000000" charge=0
C	-1.077939	-1.415549	0.922491	6
C	-0.682539	-0.942709	-0.469209	6
C	-0.324849	0.516661	-0.489889	6
C	-1.176299	1.485811	-0.859169	6
C	1.058691	0.923981	-0.127019	6
N	1.984541	0.083781	0.206811	7
O	3.164021	0.788831	0.476041	8
H	-1.327599	-2.481380	0.901221	1
H	-1.956299	-0.872499	1.288251	1
H	-0.265459	-1.273519	1.642471	1
H	-1.516789	-1.133519	-1.155959	1
H	0.153361	-1.545629	-0.842879	1
H	-2.196319	1.250121	-1.148419	1
H	-0.893459	2.533881	-0.881239	1
H	1.269130	2.008991	-0.161879	1
H	3.787811	0.072751	0.698381	1
Es	-0.682540	-0.942645	-0.469172	99
Es	-1.266514	-1.041512	-0.933591	99
Es	1.196900	1.651388	-0.152877	99
Es	-0.632328	0.981778	-0.977544	99
Es	0.382469	0.694721	-0.295822	99
Es	-0.827164	1.041693	-0.357206	99
Es	1.644309	0.435392	-0.218672	99
Es	-0.871015	-1.156173	0.212050	99
Es	1.492433	0.483737	0.330363	99
Es	1.988821	-0.301880	0.247410	99
Es	3.136180	0.760307	0.503226	99
Es	-1.683951	-1.029025	1.142278	99
Es	1.058637	0.923958	-0.127036	99
Es	2.629822	0.508681	0.365067	99
Es	3.208190	1.075561	0.396740	99
Es	-1.077936	-1.415550	0.922441	99
Es	1.984577	0.084428	0.206766	99
Es	-0.983012	2.170967	-0.869815	99
Es	3.155629	0.781686	0.487808	99
Es	-1.176369	1.485887	-0.859190	99
Es	-1.872439	1.352951	-1.060584	99
Es	-0.500071	-0.207504	-0.468079	99
Es	-0.111340	-1.359010	-0.683823	99
Es	3.509576	0.401256	0.607166	99
Es	-1.243073	-2.097556	0.893488	99
Es	-0.519033	-1.357466	1.406766	99
Es	-0.324710	0.516602	-0.489840	99
43
Properties=species:S:1:pos:R:3:Z:I:1 energy=-323.9232134110257 field_type=dipole dipole="0.000000 0.000000 0.000000" charge=0
C	-1.077939	-1.415549	0.922491	6
C	-0.682539	-0.942709	-0.469209	6
C	-0.324849	0.516661	-0.489889	6
C	-1.176299	1.485811	-0.859169	6
C	1.058691	0.923981	-0.127019	6
N	1.984541	0.083781	0.206811	7
O	3.164021	0.788831	0.476041	8
H	-1.327599	-2.481380	0.901221	1
H	-1.956299	-0.872499	1.288251	1
H	-0.265459	-1.273519	1.642471	1
H	-1.516789	-1.133519	-1.155959	1
H	0.153361	-1.545629	-0.842879	1
H	-2.196319	1.250121	-1.148419	1
H	-0.893459	2.533881	-0.881239	1
H	1.269130	2.008991	-0.161879	1
H	3.787811	0.072751	0.698381	1
Es	-0.519893	-1.361642	1.406044	99
Es	1.644259	0.435104	-0.218657	99
Es	3.509521	0.400962	0.606658	99
Es	-1.176367	1.485889	-0.859190	99
Es	2.628907	0.510097	0.364698	99
Es	-1.683221	-1.028228	1.140082	99
Es	-1.266556	-1.040289	-0.933270	99
Es	-0.870786	-1.156152	0.211463	99
Es	-1.242084	-2.093471	0.893814	99
Es	-0.827159	1.041646	-0.357416	99
Es	-0.324709	0.516603	-0.489842	99
Es	-0.632293	0.981839	-0.977390	99
Es	1.984560	0.084427	0.206760	99
Es	-0.500347	-0.208569	-0.467893	99
Es	3.164011	0.788363	0.475840	99
Es	3.208760	1.074433	0.395492	99
Es	-1.872437	1.353036	-1.060584	99
Es	1.196936	1.651419	-0.152842	99
Es	1.058636	0.923958	-0.127034	99
Es	3.127328	0.754000	0.516879	99
Es	0.382443	0.694543	-0.295748	99
Es	-0.682540	-0.942643	-0.469170	99
Es	1.492620	0.484158	0.330259	99
Es	-1.077933	-1.415538	0.922444	99
Es	1.989593	-0.302422	0.247802	99
Es	-0.112196	-1.359794	-0.681170	99
Es	-0.983001	2.170942	-0.869710	99
43
Properties=species:S:1:pos:R:3:Z:I:1 energy=-323.9232134110257 field_type=dipole dipole="0.000000 0.000000 0.000000" charge=0
C	-1.077939	-1.415549	0.922491	6
C	-0.682539	-0.942709	-0.469209	6
C	-0.324849	0.516661	-0.489889	6
C	-1.176299	1.485811	-0.859169	6
C	1.058691	0.923981	-0.127019	6
N	1.984541	0.083781	0.206811	7
O	3.164021	0.788831	0.476041	8
H	-1.327599	-2.481380	0.901221	1
H	-1.956299	-0.872499	1.288251	1
H	-0.265459	-1.273519	1.642471	1
H	-1.516789	-1.133519	-1.155959	1
H	0.153361	-1.545629	-0.842879	1
H	-2.196319	1.250121	-1.148419	1
H	-0.893459	2.533881	-0.881239	1
H	1.269130	2.008991	-0.161879	1
H	3.787811	0.072751	0.698381	1
Es	-0.324711	0.516602	-0.489838	99
Es	-1.241110	-2.089980	0.894191	99
Es	-0.870773	-1.156270	0.211448	99
Es	-1.176368	1.485888	-0.859190	99
Es	-0.500568	-0.210574	-0.467689	99
Es	1.058637	0.923958	-0.127037	99
Es	-0.632631	0.981643	-0.977471	99
Es	-1.077932	-1.415535	0.922438	99
Es	-0.826961	1.041784	-0.357161	99
Es	3.156328	0.781884	0.486145	99
Es	1.989632	-0.302575	0.247776	99
Es	-1.266437	-1.038621	-0.933114	99
Es	3.136066	0.759101	0.501427	99
Es	1.984568	0.084433	0.206762	99
Es	-1.682714	-1.027731	1.138402	99
Es	-0.520691	-1.365105	1.405380	99
Es	1.196873	1.651511	-0.152965	99
Es	1.492614	0.483365	0.329786	99
Es	-0.112689	-1.360168	-0.679510	99
Es	-0.983048	2.170307	-0.869734	99
Es	2.628756	0.508908	0.366956	99
Es	1.644367	0.436101	-0.218037	99
Es	-0.682539	-0.942644	-0.469171	99
Es	3.509514	0.401132	0.607082	99
Es	-1.872335	1.353698	-1.060625	99
Es	3.207695	1.076775	0.397879	99
Es	0.382505	0.694784	-0.295814	99
43
Properties=species:S:1:pos:R:3:Z:I:1 energy=-323.9232134110257 field_type=dipole dipole="0.000000 0.000000 0.000000" charge=0
C	-1.077939	-1.415549	0.922491	6
C	-0.682539	-0.942709	-0.469209	6
C	-0.324849	0.516661	-0.489889	6
C	-1.176299	1.485811	-0.859169	6
C	1.058691	0.923981	-0.127019	6
N	1.984541	0.083781	0.206811	7
O	3.164021	0.788831	0.476041	8
H	-1.327599	-2.481380	0.901221	1
H	-1.956299	-0.872499	1.288251	1
H	-0.265459	-1.273519	1.642471	1
H	-1.516789	-1.133519	-1.155959	1
H	0.153361	-1.545629	-0.842879	1
H	-2.196319	1.250121	-1.148419	1
H	-0.893459	2.533881	-0.881239	1
H	1.269130	2.008991	-0.161879	1
H	3.787811	0.072751	0.698381	1
Es	-0.324712	0.516601	-0.489842	99
Es	1.492663	0.483142	0.329475	99
Es	-0.870240	-1.155996	0.210015	99
Es	-0.682539	-0.942644	-0.469170	99
Es	3.131807	0.755354	0.506553	99
Es	-0.500725	-0.210833	-0.467605	99
Es	0.382694	0.694454	-0.295742	99
Es	3.208289	1.074372	0.397657	99
Es	-0.521307	-1.367496	1.404916	99
Es	-0.113477	-1.360752	-0.677162	99
Es	1.058637	0.923958	-0.127037	99
Es	-0.632395	0.981796	-0.977219	99
Es	1.196761	1.651724	-0.153062	99
Es	-1.266545	-1.038272	-0.932877	99
Es	-1.872307	1.354045	-1.060596	99
Es	-1.176365	1.485885	-0.859199	99
Es	-1.240468	-2.087650	0.894491	99
Es	1.644401	0.436525	-0.217530	99
Es	2.627694	0.511679	0.366745	99
Es	1.984559	0.084437	0.206759	99
Es	3.160413	0.785632	0.481305	99
Es	-0.983057	2.170032	-0.869643	99
Es	-0.827148	1.041636	-0.357520	99
Es	1.990229	-0.303002	0.247994	99
Es	-1.682305	-1.027345	1.137320	99
Es	-1.077934	-1.415538	0.922445	99
Es	3.509428	0.400928	0.606845	99
43
Properties=species:S:1:pos:R:3:Z:I:1 energy=-323.9232134110257 field_type=dipole dipole="0.000000 0.000000 0.000000" charge=0
C	-1.077939	-1.415549	0.922491	6
C	-0.682539	-0.942709	-0.469209	6
C	-0.324849	0.516661	-0.489889	6
C	-1.176299	1.485811	-0.859169	6
C	1.058691	0.923981	-0.127019	6
N	1.984541	0.083781	0.206811	7
O	3.164021	0.788831	0.476041	8
H	-1.327599	-2.481380	0.901221	1
H	-1.956299	-0.872499	1.288251	1
H	-0.265459	-1.273519	1.642471	1
H	-1.516789	-1.133519	-1.155959	1
H	0.153361	-1.545629	-0.842879	1
H	-2.196319	1.250121	-1.148419	1
H	-0.893459	2.533881	-0.881239	1
H	1.269130	2.008991	-0.161879	1
H	3.787811	0.072751	0.698381	1
Es	-0.500824	-0.211202	-0.467614	99
Es	-0.324711	0.516602	-0.489839	99
Es	-0.521801	-1.369810	1.404259	99
Es	-0.826868	1.041791	-0.357328	99
Es	-0.682539	-0.942645	-0.469171	99
Es	1.058636	0.923958	-0.127032	99
Es	-1.266550	-1.037727	-0.932707	99
Es	-1.681814	-1.026909	1.135823	99
Es	1.990157	-0.302978	0.247994	99
Es	3.509396	0.400854	0.606780	99
Es	3.129968	0.756468	0.513460	99
Es	-0.983270	2.168839	-0.869566	99
Es	-0.114118	-1.361208	-0.675325	99
Es	1.492684	0.482928	0.329238	99
Es	3.161868	0.784695	0.475191	99
Es	0.382697	0.694358	-0.295780	99
Es	-0.870217	-1.156027	0.209815	99
Es	1.984565	0.084437	0.206760	99
Es	-1.176369	1.485887	-0.859190	99
Es	3.208548	1.075573	0.395302	99
Es	2.627839	0.510211	0.368303	99
Es	-1.872141	1.355230	-1.060580	99
Es	-0.632662	0.981689	-0.977350	99
Es	1.644449	0.436817	-0.217327	99
Es	-1.077933	-1.415538	0.922442	99
Es	-1.239727	-2.085317	0.894697	99
Es	1.196787	1.651696	-0.152936	99
43
Properties=species:S:1:pos:R:3:Z:I:1 energy=-323.9232134110257 field_type=dipole dipole="0.000000 0.000000 0.000000" charge=0
C	-1.077939	-1.415549	0.922491	6
C	-0.682539	-0.942709	-0.469209	6
C	-0.324849	0.516661	-0.489889	6
C	-1.176299	1.485811	-0.859169	6
C	1.058691	0.923981	-0.127019	6
N	1.984541	0.083781	0.206811	7
O	3.164021	0.788831	0.476041	8
H	-1.327599	-2.481380	0.901221	1
H	-1.956299	-0.872499	1.288251	1
H	-0.265459	-1.273519	1.642471	1
H	-1.516789	-1.133519	-1.155959	1
H	0.153361	-1.545629	-0.842879	1
H	-2.196319	1.250121	-1.148419	1
H	-0.893459	2.533881	-0.881239	1
H	1.269130	2.008991	-0.161879	1
H	3.787811	0.072751	0.698381	1
Es	3.140627	0.761376	0.492933	99
Es	1.196717	1.651819	-0.153137	99
Es	1.990835	-0.303316	0.248893	99
Es	-1.681495	-1.026651	1.134733	99
Es	-1.266624	-1.038066	-0.932660	99
Es	0.382803	0.694068	-0.295662	99
Es	3.509265	0.400944	0.607303	99
Es	3.207892	1.074313	0.399749	99
Es	-1.077933	-1.415537	0.922443	99
Es	-0.682547	-0.942652	-0.469142	99
Es	-0.114461	-1.361439	-0.674353	99
Es	-1.176369	1.485887	-0.859190	99
Es	1.644361	0.436549	-0.217483	99
Es	3.152351	0.778429	0.490664	99
Es	1.984548	0.084419	0.206757	99
Es	-0.870341	-1.156122	0.210060	99
Es	-1.238557	-2.081657	0.895288	99
Es	-0.500777	-0.210675	-0.467542	99
Es	-0.632424	0.981795	-0.976994	99
Es	-0.522832	-1.373404	1.403516	99
Es	-0.827170	1.041608	-0.357694	99
Es	2.626656	0.513076	0.367845	99
Es	-0.324710	0.516601	-0.489837	99
Es	-1.872372	1.353945	-1.060508	99
Es	1.492954	0.483246	0.329051	99
Es	-0.982984	2.170157	-0.869681	99
Es	1.058636	0.923958	-0.127034	99
43
Properties=species:S:1:pos:R:3:Z:I:1 energy=-323.9232134110257 field_type=dipole dipole="0.000000 0.000000 0.000000" charge=0
C	-1.077939	-1.415549	0.922491	6
C	-0.682539	-0.942709	-0.469209	6
C	-0.324849	0.516661	-0.489889	6
C	-1.176299	1.485811	-0.859169	6
C	1.058691	0.923981	-0.127019	6
N	1.984541	0.083781	0.206811	7
O	3.164021	0.788831	0.476041	8
H	-1.327599	-2.481380	0.901221	1
H	-1.956299	-0.872499	1.288251	1
H	-0.265459	-1.273519	1.642471	1
H	-1.516789	-1.133519	-1.155959	1
H	0.153361	-1.545629	-0.842879	1
H	-2.196319	1.250121	-1.148419	1
H	-0.893459	2.533881	-0.881239	1
H	1.269130	2.008991	-0.161879	1
H	3.787811	0.072751	0.698381	1
Es	3.131485	0.755823	0.507656	99
Es	1.196782	1.651763	-0.152994	99
Es	3.160066	0.785515	0.481891	99
Es	2.626753	0.510753	0.368436	99
Es	3.509462	0.400765	0.606424	99
Es	-1.681162	-1.026371	1.134000	99
Es	0.382751	0.693706	-0.295652	99
Es	-0.324712	0.516600	-0.489836	99
Es	3.208789	1.075220	0.394099	99
Es	-0.682543	-0.942651	-0.469162	99
Es	-0.522801	-1.373383	1.403456	99
Es	1.991021	-0.303474	0.248589	99
Es	-0.632200	0.981901	-0.976898	99
Es	-1.238609	-2.081788	0.895174	99
Es	-1.871987	1.356218	-1.060525	99
Es	-0.983353	2.167989	-0.869467	99
Es	-1.266603	-1.036759	-0.932295	99
Es	1.644445	0.436823	-0.217265	99
Es	-0.827410	1.041453	-0.357893	99
Es	-1.176371	1.485887	-0.859182	99
Es	-0.501089	-0.211602	-0.467567	99
Es	1.492882	0.483084	0.329012	99
Es	-0.869606	-1.155758	0.208321	99
Es	-0.115225	-1.361927	-0.672170	99
Es	1.984580	0.084464	0.206761	99
Es	1.058637	0.923958	-0.127035	99
Es	-1.077932	-1.415537	0.922442	99
43
Properties=species:S:1:pos:R:3:Z:I:1 energy=-323.9232134110257 field_type=dipole dipole="0.000000 0.000000 0.000000" charge=0
C	-1.077939	-1.415549	0.922491	6
C	-0.682539	-0.942709	-0.469209	6
C	-0.324849	0.516661	-0.489889	6
C	-1.176299	1.485811	-0.859169	6
C	1.058691	0.923981	-0.127019	6
N	1.984541	0.083781	0.206811	7
O	3.164021	0.788831	0.476041	8
H	-1.327599	-2.481380	0.901221	1
H	-1.956299	-0.872499	1.288251	1
H	-0.265459	-1.273519	1.642471	1
H	-1.516789	-1.133519	-1.155959	1
H	0.153361	-1.545629	-0.842879	1
H	-2.196319	1.250121	-1.148419	1
H	-0.893459	2.533881	-0.881239	1
H	1.269130	2.008991	-0.161879	1
H	3.787811	0.072751	0.698381	1
Es	-0.682538	-0.942643	-0.469170	99
Es	-0.324709	0.516603	-0.489841	99
Es	3.208482	1.073715	0.397312	99
Es	1.984569	0.084450	0.206760	99
Es	1.492934	0.482968	0.328848	99
Es	1.196658	1.651906	-0.153120	99
Es	0.382950	0.693495	-0.295667	99
Es	1.058637	0.923958	-0.127035	99
Es	-0.869445	-1.155674	0.207886	99
Es	3.509338	0.400759	0.606719	99
Es	-0.983135	2.169044	-0.869632	99
Es	1.992076	-0.303786	0.249192	99
Es	-1.681059	-1.026318	1.133374	99
Es	2.625532	0.513451	0.367076	99
Es	-0.115636	-1.362175	-0.671012	99
Es	-0.523455	-1.375750	1.402817	99
Es	1.644366	0.436931	-0.217053	99
Es	-1.237694	-2.079294	0.895527	99
Es	-1.266693	-1.036671	-0.932126	99
Es	-1.077934	-1.415542	0.922442	99
Es	-0.827335	1.041524	-0.357978	99
Es	3.163423	0.788158	0.477209	99
Es	-1.872231	1.355105	-1.060415	99
Es	-0.501160	-0.211645	-0.467501	99
Es	-1.176369	1.485887	-0.859190	99
Es	-0.632274	0.981871	-0.976707	99
Es	3.128751	0.752345	0.509599	99
43
Properties=species:S:1:pos:R:3:Z:I:1 energy=-323.9232134110257 field_type=dipole dipole="0.000000 0.000000 0.000000" charge=0
C	-1.077939	-1.415549	0.922491	6
C	-0.682539	-0.942709	-0.469209	6
C	-0.324849	0.516661	-0.489889	6
C	-1.176299	1.485811	-0.859169	6
C	1.058691	0.923981	-0.127019	6
N	1.984541	0.083781	0.206811	7
O	3.164021	0.788831	0.476041	8
H	-1.327599	-2.481380	0.901221	1
H	-1.956299	-0.872499	1.288251	1
H	-0.265459	-1.273519	1.642471	1
H	-1.516789	-1.133519	-1.155959	1
H	0.153361	-1.545629	-0.842879	1
H	-2.196319	1.250121	-1.148419	1
H	-0.893459	2.533881	-0.881239	1
H	1.269130	2.008991	-0.161879	1
H	3.787811	0.072751	0.698381	1
Es	-1.077934	-1.415541	0.922443	99
Es	3.209070	1.071683	0.395811	99
Es	-0.523512	-1.375883	1.402810	99
Es	-0.324712	0.516601	-0.489838	99
Es	-0.682540	-0.942645	-0.469170	99
Es	-0.827508	1.041369	-0.358222	99
Es	-1.266665	-1.036083	-0.932042	99
Es	-0.983249	2.168534	-0.869540	99
Es	-1.237758	-2.079275	0.895554	99
Es	-1.176367	1.485887	-0.859192	99
Es	1.196825	1.651747	-0.153006	99
Es	3.509273	0.400784	0.606927	99
Es	1.984545	0.084421	0.206755	99
Es	-0.869247	-1.155655	0.207465	99
Es	3.158639	0.783988	0.483186	99
Es	-1.872130	1.355620	-1.060470	99
Es	1.992948	-0.304084	0.249407	99
Es	-1.680651	-1.025967	1.132551	99
Es	-0.116016	-1.362370	-0.669900	99
Es	1.644390	0.437454	-0.216457	99
Es	2.624226	0.515730	0.368491	99
Es	-0.632084	0.982028	-0.976494	99
Es	1.058637	0.923958	-0.127035	99
Es	0.382755	0.694213	-0.295751	99
Es	1.492947	0.482523	0.328335	99
Es	3.133425	0.756460	0.503161	99
Es	-0.501257	-0.212826	-0.467460	99
43
Properties=species:S:1:pos:R:3:Z:I:1 energy=-323.9232134110257 field_type=dipole dipole="0.000000 0.000000 0.000000" charge=0
C	-1.077939	-1.415549	0.922491	6
C	-0.682539	-0.942709	-0.469209	6
C	-0.324849	0.516661	-0.489889	6
C	-1.176299	1.485811	-0.859169	6
C	1.058691	0.923981	-0.127019	6
N	1.984541	0.083781	0.206811	7
O	3.164021	0.788831	0.476041	8
H	-1.327599	-2.481380	0.901221	1
H	-1.956299	-0.872499	1.288251	1
H	-0.265459	-1.273519	1.642471	1
H	-1.516789	-1.133519	-1.155959	1
H	0.153361	-1.545629	-0.842879	1
H	-2.196319	1.250121	-1.148419	1
H	-0.893459	2.533881	-0.881239	1
H	1.269130	2.008991	-0.161879	1
H	3.787811	0.072751	0.698381	1
Es	-1.236876	-2.076788	0.895942	99
Es	-1.266483	-1.034972	-0.931909	99
Es	0.383039	0.693867	-0.295595	99
Es	3.128748	0.753370	0.511125	99
Es	-0.501550	-0.213883	-0.467259	99
Es	3.208792	1.073232	0.396202	99
Es	-1.872156	1.355598	-1.060410	99
Es	1.196582	1.652128	-0.153167	99
Es	-0.116231	-1.362492	-0.669273	99
Es	-0.827230	1.041543	-0.358070	99
Es	1.984562	0.084432	0.206759	99
Es	-0.869758	-1.156033	0.208716	99
Es	2.625493	0.514181	0.369242	99
Es	-0.324711	0.516602	-0.489839	99
Es	-1.680042	-1.025556	1.130764	99
Es	1.991801	-0.303778	0.249113	99
Es	-0.632387	0.981795	-0.976723	99
Es	1.644359	0.436215	-0.217564	99
Es	-0.983155	2.168628	-0.869586	99
Es	-1.077927	-1.415531	0.922421	99
Es	3.509401	0.400577	0.606175	99
Es	-0.524213	-1.378316	1.402159	99
Es	3.163282	0.786933	0.475170	99
Es	1.492983	0.483720	0.329320	99
Es	-1.176369	1.485886	-0.859192	99
Es	1.058636	0.923958	-0.127034	99
Es	-0.682539	-0.942645	-0.469170	99
43
Properties=species:S:1:pos:R:3:Z:I:1 energy=-323.9232134110257 field_type=dipole dipole="0.000000 0.000000 0.000000" charge=0
C	-1.077939	-1.415549	0.922491	6
C	-0.682539	-0.942709	-0.469209	6
C	-0.324849	0.516661	-0.489889	6
C	-1.176299	1.485811	-0.859169	6
C	1.058691	0.923981	-0.127019	6
N	1.984541	0.083781	0.206811	7
O	3.164021	0.788831	0.476041	8
H	-1.327599	-2.481380	0.901221	1
H	-1.956299	-0.872499	1.288251	1
H	-0.265459	-1.273519	1.642471	1
H	-1.516789	-1.133519	-1.155959	1
H	0.153361	-1.545629	-0.842879	1
H	-2.196319	1.250121	-1.148419	1
H	-0.893459	2.533881	-0.881239	1
H	1.269130	2.008991	-0.161879	1
H	3.787811	0.072751	0.698381	1
Es	1.984567	0.084436	0.206761	99
Es	0.382896	0.694489	-0.295754	99
Es	-1.176369	1.485887	-0.859189	99
Es	-1.236778	-2.076568	0.895949	99
Es	-1.077933	-1.415536	0.922439	99
Es	-0.632044	0.982080	-0.976168	99
Es	1.993455	-0.304148	0.249951	99
Es	-0.116459	-1.362630	-0.668731	99
Es	-0.983122	2.168778	-0.869568	99
Es	1.196647	1.651981	-0.153157	99
Es	-0.501382	-0.213923	-0.467199	99
Es	3.142096	0.768548	0.500829	99
Es	-1.872160	1.355472	-1.060445	99
Es	-1.266630	-1.035489	-0.931874	99
Es	-0.324718	0.516592	-0.489849	99
Es	3.208783	1.069832	0.398298	99
Es	-0.524234	-1.378493	1.402083	99
Es	2.623611	0.518664	0.368413	99
Es	-0.869342	-1.155786	0.207577	99
Es	1.493188	0.481488	0.326690	99
Es	-0.827602	1.041265	-0.358529	99
Es	1.058636	0.923958	-0.127034	99
Es	3.150521	0.771096	0.482573	99
Es	-0.682541	-0.942645	-0.469170	99
Es	-1.680272	-1.025730	1.131296	99
Es	3.509104	0.400639	0.607048	99
Es	1.644132	0.438413	-0.214922	99
43
Properties=species:S:1:pos:R:3:Z:I:1 energy=-323.9232134110257 field_type=dipole dipole="0.000000 0.000000 0.000000" charge=0
C	-1.077939	-1.415549	0.922491	6
C	-0.682539	-0.942709	-0.469209	6
C	-0.324849	0.516661	-0.489889	6
C	-1.176299	1.485811	-0.859169	6
C	1.058691	0.923981	-0.127019	6
N	1.984541	0.083781	0.206811	7
O	3.164021	0.788831	0.476041	8
H	-1.327599	-2.481380	0.901221	1
H	-1.956299	-0.872499	1.288251	1
H	-0.265459	-1.273519	1.642471	1
H	-1.516789	-1.133519	-1.155959	1
H	0.153361	-1.545629	-0.842879	1
H	-2.196319	1.250121	-1.148419	1
H	-0.893459	2.533881	-0.881239	1
H	1.269130	2.008991	-0.161879	1
H	3.787811	0.072751	0.698381	1
Es	1.644403	0.437057	-0.216795	99
Es	1.984558	0.084431	0.206759	99
Es	-1.077934	-1.415538	0.922442	99
Es	1.196334	1.652349	-0.153248	99
Es	1.992248	-0.303945	0.249348	99
Es	3.131722	0.753551	0.502543	99
Es	3.509345	0.400749	0.606684	99
Es	-1.872156	1.355695	-1.060347	99
Es	-0.324715	0.516601	-0.489836	99
Es	-0.501601	-0.213753	-0.467452	99
Es	-0.524803	-1.379964	1.401858	99
Es	-1.679620	-1.025270	1.129651	99
Es	-0.632487	0.981765	-0.976754	99
Es	3.208842	1.071706	0.396727	99
Es	-1.236315	-2.075122	0.896336	99
Es	-1.266562	-1.034691	-0.931628	99
Es	3.160664	0.785970	0.480957	99
Es	2.624614	0.516301	0.370606	99
Es	1.493044	0.483081	0.328707	99
Es	-0.827134	1.041621	-0.357919	99
Es	1.058636	0.923958	-0.127035	99
Es	-0.117020	-1.362977	-0.667365	99
Es	-0.682540	-0.942645	-0.469169	99
Es	-0.983162	2.168555	-0.869573	99
Es	-1.176369	1.485887	-0.859189	99
Es	0.383320	0.693176	-0.295548	99
Es	-0.869264	-1.155877	0.207559	99
43
Properties=species:S:1:pos:R:3:Z:I:1 energy=-323.9232134110257 field_type=dipole dipole="0.000000 0.000000 0.000000" charge=0
C	-1.077939	-1.415549	0.922491	6
C	-0.682539	-0.942709	-0.469209	6
C	-0.324849	0.516661	-0.489889	6
C	-1.176299	1.485811	-0.859169	6
C	1.058691	0.923981	-0.127019	6
N	1.984541	0.083781	0.206811	7
O	3.164021	0.788831	0.476041	8
H	-1.327599	-2.481380	0.901221	1
H	-1.956299	-0.872499	1.288251	1
H	-0.265459	-1.273519	1.642471	1
H	-1.516789	-1.133519	-1.155959	1
H	0.153361	-1.545629	-0.842879	1
H	-2.196319	1.250121	-1.148419	1
H	-0.893459	2.533881	-0.881239	1
H	1.269130	2.008991	-0.161879	1
H	3.787811	0.072751	0.698381	1
Es	3.138525	0.763002	0.501563	99
Es	-0.983071	2.168724	-0.869646	99
Es	1.058636	0.923958	-0.127034	99
Es	3.208076	1.073491	0.399420	99
Es	-0.525484	-1.382258	1.401172	99
Es	2.624740	0.515115	0.369715	99
Es	-1.077932	-1.415536	0.922439	99
Es	-0.827966	1.040911	-0.359746	99
Es	-0.501730	-0.214917	-0.467367	99
Es	0.383155	0.693716	-0.295576	99
Es	-0.117336	-1.363097	-0.666420	99
Es	-0.868945	-1.155642	0.206633	99
Es	-1.266476	-1.033985	-0.931586	99
Es	-0.631679	0.982426	-0.974984	99
Es	1.984566	0.084437	0.206761	99
Es	1.196472	1.652239	-0.153238	99
Es	-1.872209	1.355534	-1.060331	99
Es	-0.682538	-0.942643	-0.469169	99
Es	3.154486	0.775993	0.479913	99
Es	3.509283	0.400764	0.606876	99
Es	-1.235522	-2.072865	0.896709	99
Es	1.992266	-0.303927	0.249733	99
Es	-1.176369	1.485887	-0.859190	99
Es	1.493219	0.484392	0.329387	99
Es	-1.679697	-1.025301	1.129949	99
Es	-0.324704	0.516603	-0.489845	99
Es	1.644287	0.435650	-0.217820	99
43
Properties=species:S:1:pos:R:3:Z:I:1 energy=-323.9232134110257 field_type=dipole dipole="0.000000 0.000000 0.000000" charge=0
C	-1.077939	-1.415549	0.922491	6
C	-0.682539	-0.942709	-0.469209	6
C	-0.324849	0.516661	-0.489889	6
C	-1.176299	1.485811	-0.859169	6
C	1.058691	0.923981	-0.127019	6
N	1.984541	0.083781	0.206811	7
O	3.164021	0.788831	0.476041	8
H	-1.327599	-2.481380	0.901221	1
H	-1.956299	-0.872499	1.288251	1
H	-0.265459	-1.273519	1.642471	1
H	-1.516789	-1.133519	-1.155959	1
H	0.153361	-1.545629	-0.842879	1
H	-2.196319	1.250121	-1.148419	1
H	-0.893459	2.533881	-0.881239	1
H	1.269130	2.008991	-0.161879	1
H	3.787811	0.072751	0.698381	1
Es	1.984567	0.084447	0.206760	99
Es	0.382925	0.694512	-0.295792	99
Es	-0.324712	0.516601	-0.489839	99
Es	1.644288	0.437878	-0.215733	99
Es	3.148794	0.769383	0.483846	99
Es	-0.501684	-0.215355	-0.467261	99
Es	2.624537	0.516225	0.369671	99
Es	-1.872294	1.355153	-1.060284	99
Es	-1.234903	-2.071263	0.897011	99
Es	3.509184	0.400626	0.606827	99
Es	-0.827043	1.041646	-0.357994	99
Es	-1.176369	1.485887	-0.859190	99
Es	-0.117534	-1.363181	-0.665771	99
Es	-0.632553	0.981743	-0.976739	99
Es	3.208294	1.072410	0.399304	99
Es	-0.868712	-1.155566	0.206186	99
Es	-1.266595	-1.034202	-0.931440	99
Es	1.493235	0.482319	0.327588	99
Es	-1.077934	-1.415541	0.922440	99
Es	-0.526078	-1.383850	1.400831	99
Es	-1.679587	-1.025231	1.129550	99
Es	-0.983090	2.169070	-0.869532	99
Es	1.196667	1.652045	-0.153151	99
Es	1.992398	-0.304042	0.249482	99
Es	3.144151	0.769648	0.497749	99
Es	1.058636	0.923958	-0.127035	99
Es	-0.682540	-0.942647	-0.469165	99
43
Properties=species:S:1:pos:R:3:Z:I:1 energy=-323.9232134110257 field_type=dipole dipole="0.000000 0.000000 0.000000" charge=0
C	-1.077939	-1.415549	0.922491	6
C	-0.682539	-0.942709	-0.469209	6
C	-0.324849	0.516661	-0.489889	6
C	-1.176299	1.485811	-0.859169	6
C	1.058691	0.923981	-0.127019	6
N	1.984541	0.083781	0.206811	7
O	3.164021	0.788831	0.476041	8
H	-1.327599	-2.481380	0.901221	1
H	-1.956299	-0.872499	1.288251	1
H	-0.265459	-1.273519	1.642471	1
H	-1.516789	-1.133519	-1.155959	1
H	0.153361	-1.545629	-0.842879	1
H	-2.196319	1.250121	-1.148419	1
H	-0.893459	2.533881	-0.881239	1
H	1.269130	2.008991	-0.161879	1
H	3.787811	0.072751	0.698381	1
Es	-0.525498	-1.382443	1.401036	99
Es	-0.324713	0.516601	-0.489837	99
Es	1.984562	0.084436	0.206759	99
Es	1.058636	0.923958	-0.127034	99
Es	3.509316	0.400602	0.606459	99
Es	2.623558	0.518655	0.369619	99
Es	-1.679182	-1.024934	1.128687	99
Es	-0.827784	1.041125	-0.358916	99
Es	1.993245	-0.304369	0.249575	99
Es	-1.235462	-2.072712	0.896683	99
Es	3.160761	0.785988	0.480768	99
Es	3.208615	1.069926	0.398313	99
Es	-0.501860	-0.215397	-0.467301	99
Es	-0.631865	0.982217	-0.975814	99
Es	-1.266284	-1.033421	-0.931622	99
Es	3.131811	0.753353	0.502111	99
Es	-1.077933	-1.415538	0.922444	99
Es	-0.682540	-0.942645	-0.469169	99
Es	-0.983090	2.168891	-0.869529	99
Es	1.644173	0.438925	-0.214235	99
Es	-1.872218	1.355401	-1.060317	99
Es	-0.117452	-1.363157	-0.666064	99
Es	1.196533	1.652158	-0.153178	99
Es	-1.176369	1.485887	-0.859191	99
Es	0.383072	0.693772	-0.295635	99
Es	1.493379	0.481347	0.326145	99
Es	-0.869362	-1.155954	0.207561	99
