43
Properties=species:S:1:pos:R:3:Z:I:1 energy=-324.0043240159856 field_type=dipole dipole="0.000000 0.000000 0.000000" charge=0
C	-2.156796	-0.011307	0.229245	6
C	-0.683646	-0.292377	0.077105	6
C	-0.339476	-1.757417	0.065825	6
C	0.189324	0.723643	-0.033425	6
N	1.541574	0.572773	-0.173195	7
C	2.438724	1.600223	-0.285835	6
O	3.644204	1.427173	-0.409015	8
H	-2.377706	1.061273	0.236245	1
H	-2.527906	-0.432787	1.169155	1
H	-2.715416	-0.460007	-0.598665	1
H	-0.861226	-2.258777	-0.756275	1
H	-0.652136	-2.222947	1.006475	1
H	0.727354	-1.956467	-0.057645	1
H	-0.167666	1.752513	-0.013745	1
H	1.958663	-0.348667	-0.200165	1
H	1.982134	2.603153	-0.256085	1
Es	-0.694591	-2.086219	-0.488906	99
Es	3.643894	1.427202	-0.408967	99
Es	-2.401286	-0.302335	0.865395	99
Es	2.110521	2.278266	-0.264351	99
Es	1.772632	0.027767	-0.208739	99
Es	-1.417901	-0.145022	0.152823	99
Es	-0.213167	0.218100	0.355524	99
Es	-0.284267	0.206916	-0.311243	99
Es	0.394243	-1.881069	-0.019003	99
Es	-2.156757	-0.011314	0.229241	99
Es	1.623413	0.711043	0.020237	99
Es	3.708068	1.121336	-0.410697	99
Es	-0.683707	-0.292455	0.077099	99
Es	-0.035255	1.425313	-0.022156	99
Es	-2.299947	0.721001	0.233237	99
Es	-0.492614	-1.022023	0.069234	99
Es	0.189583	0.723722	-0.033456	99
Es	-0.339468	-1.757372	0.065823	99
Es	3.258541	1.491957	-0.118788	99
Es	3.207409	1.484583	-0.615114	99
Es	0.960682	0.639482	-0.149954	99
Es	1.541568	0.572987	-0.173850	99
Es	-2.528384	-0.320726	-0.332369	99
Es	-0.553294	-2.061922	0.700898	99
Es	2.438593	1.600106	-0.285797	99
Es	1.863874	0.987519	-0.360428	99
Es	3.799916	1.692261	-0.429414	99
43
Properties=species:S:1:pos:R:3:Z:I:1 energy=-324.0043240159856 field_type=dipole dipole="0.000000 0.000000 0.000000" charge=0
C	-2.156796	-0.011307	0.229245	6
C	-0.683646	-0.292377	0.077105	6
C	-0.339476	-1.757417	0.065825	6
C	0.189324	0.723643	-0.033425	6
N	1.541574	0.572773	-0.173195	7
C	2.438724	1.600223	-0.285835	6
O	3.644204	1.427173	-0.409015	8
H	-2.377706	1.061273	0.236245	1
H	-2.527906	-0.432787	1.169155	1
H	-2.715416	-0.460007	-0.598665	1
H	-0.861226	-2.258777	-0.756275	1
H	-0.652136	-2.222947	1.006475	1
H	0.727354	-1.956467	-0.057645	1
H	-0.167666	1.752513	-0.013745	1
H	1.958663	-0.348667	-0.200165	1
H	1.982134	2.603153	-0.256085	1
Es	0.957293	0.641612	-0.112725	99
Es	-2.402001	-0.301421	0.865249	99
Es	1.541791	0.573192	-0.172031	99
Es	-2.300511	0.718668	0.233307	99
Es	-0.034850	1.423187	-0.022002	99
Es	3.673652	1.136002	-0.409428	99
Es	2.438581	1.600107	-0.285815	99
Es	0.397051	-1.880650	-0.019227	99
Es	-0.695576	-2.084984	-0.488356	99
Es	-1.417374	-0.144979	0.152594	99
Es	3.260095	1.487042	-0.119684	99
Es	-0.554570	-2.061000	0.700263	99
Es	-2.529373	-0.319982	-0.331886	99
Es	3.205125	1.480822	-0.610848	99
Es	-0.493421	-1.022359	0.069573	99
Es	-0.212948	0.218064	0.356349	99
Es	1.570768	0.669871	-0.181927	99
Es	1.776748	0.027986	-0.186958	99
Es	-2.156758	-0.011314	0.229241	99
Es	2.110688	2.277654	-0.263780	99
Es	-0.283991	0.206447	-0.312405	99
Es	-0.683716	-0.292466	0.077111	99
Es	3.643873	1.427210	-0.408986	99
Es	3.835047	1.687391	-0.434306	99
Es	0.189589	0.723725	-0.033446	99
Es	1.916550	1.026652	-0.219420	99
Es	-0.339468	-1.757372	0.065823	99
43
Properties=species:S:1:pos:R:3:Z:I:1 energy=-324.0043240159856 field_type=dipole dipole="0.000000 0.000000 0.000000" charge=0
C	-2.156796	-0.011307	0.229245	6
C	-0.683646	-0.292377	0.077105	6
C	-0.339476	-1.757417	0.065825	6
C	0.189324	0.723643	-0.033425	6
N	1.541574	0.572773	-0.173195	7
C	2.438724	1.600223	-0.285835	6
O	3.644204	1.427173	-0.409015	8
H	-2.377706	1.061273	0.236245	1
H	-2.527906	-0.432787	1.169155	1
H	-2.715416	-0.460007	-0.598665	1
H	-0.861226	-2.258777	-0.756275	1
H	-0.652136	-2.222947	1.006475	1
H	0.727354	-1.956467	-0.057645	1
H	-0.167666	1.752513	-0.013745	1
H	1.958663	-0.348667	-0.200165	1
H	1.982134	2.603153	-0.256085	1
Es	1.775677	0.030838	-0.187972	99
Es	1.917862	1.026185	-0.221048	99
Es	3.848383	1.684737	-0.435585	99
Es	3.206891	1.473834	-0.610504	99
Es	-0.494148	-1.022275	0.069565	99
Es	2.110987	2.277252	-0.263681	99
Es	-0.339469	-1.757371	0.065824	99
Es	-0.034910	1.421934	-0.022053	99
Es	1.571268	0.670072	-0.177153	99
Es	-1.416744	-0.144983	0.152794	99
Es	2.438579	1.600107	-0.285819	99
Es	-0.554919	-2.060400	0.699360	99
Es	3.257372	1.482848	-0.122458	99
Es	-0.212845	0.217903	0.356483	99
Es	3.643872	1.427228	-0.408980	99
Es	-0.683718	-0.292471	0.077109	99
Es	-2.156754	-0.011314	0.229241	99
Es	-2.301396	0.717421	0.233310	99
Es	3.661201	1.150403	-0.405897	99
Es	1.541767	0.573144	-0.172112	99
Es	0.398685	-1.880322	-0.019351	99
Es	0.956884	0.639795	-0.114739	99
Es	-2.402699	-0.301212	0.864622	99
Es	-2.529316	-0.319542	-0.331285	99
Es	0.189590	0.723727	-0.033452	99
Es	-0.696017	-2.084737	-0.487472	99
Es	-0.283786	0.206302	-0.312466	99
43
Properties=species:S:1:pos:R:3:Z:I:1 energy=-324.0043240159856 field_type=dipole dipole="0.000000 0.000000 0.000000" charge=0
C	-2.156796	-0.011307	0.229245	6
C	-0.683646	-0.292377	0.077105	6
C	-0.339476	-1.757417	0.065825	6
C	0.189324	0.723643	-0.033425	6
N	1.541574	0.572773	-0.173195	7
C	2.438724	1.600223	-0.285835	6
O	3.644204	1.427173	-0.409015	8
H	-2.377706	1.061273	0.236245	1
H	-2.527906	-0.432787	1.169155	1
H	-2.715416	-0.460007	-0.598665	1
H	-0.861226	-2.258777	-0.756275	1
H	-0.652136	-2.222947	1.006475	1
H	0.727354	-1.956467	-0.057645	1
H	-0.167666	1.752513	-0.013745	1
H	1.958663	-0.348667	-0.200165	1
H	1.982134	2.603153	-0.256085	1
Es	-0.683717	-0.292466	0.077115	99
Es	-0.339469	-1.757372	0.065824	99
Es	-0.696332	-2.084704	-0.486683	99
Es	3.643845	1.427230	-0.408972	99
Es	-0.555011	-2.059926	0.698583	99
Es	1.571313	0.670133	-0.176890	99
Es	0.399798	-1.879977	-0.019456	99
Es	-0.035137	1.421282	-0.021864	99
Es	1.774942	0.033077	-0.187968	99
Es	3.207150	1.470597	-0.608960	99
Es	3.257134	1.478304	-0.123979	99
Es	-0.283689	0.206165	-0.312130	99
Es	0.957015	0.638298	-0.113648	99
Es	2.111250	2.276863	-0.263674	99
Es	2.438579	1.600105	-0.285819	99
Es	-2.302242	0.716992	0.233523	99
Es	-1.416445	-0.145221	0.152769	99
Es	-0.212668	0.217745	0.355889	99
Es	1.541760	0.573122	-0.172168	99
Es	0.189592	0.723726	-0.033457	99
Es	-2.529256	-0.319376	-0.330582	99
Es	1.918574	1.025869	-0.222406	99
Es	3.653566	1.161188	-0.405889	99
Es	-2.402857	-0.301250	0.863766	99
Es	-2.156758	-0.011314	0.229241	99
Es	-0.494571	-1.022260	0.069744	99
Es	3.855932	1.682274	-0.435629	99
43
Properties=species:S:1:pos:R:3:Z:I:1 energy=-324.0043240159856 field_type=dipole dipole="0.000000 0.000000 0.000000" charge=0
C	-2.156796	-0.011307	0.229245	6
C	-0.683646	-0.292377	0.077105	6
C	-0.339476	-1.757417	0.065825	6
C	0.189324	0.723643	-0.033425	6
N	1.541574	0.572773	-0.173195	7
C	2.438724	1.600223	-0.285835	6
O	3.644204	1.427173	-0.409015	8
H	-2.377706	1.061273	0.236245	1
H	-2.527906	-0.432787	1.169155	1
H	-2.715416	-0.460007	-0.598665	1
H	-0.861226	-2.258777	-0.756275	1
H	-0.652136	-2.222947	1.006475	1
H	0.727354	-1.956467	-0.057645	1
H	-0.167666	1.752513	-0.013745	1
H	1.958663	-0.348667	-0.200165	1
H	1.982134	2.603153	-0.256085	1
Es	3.643933	1.427182	-0.409001	99
Es	1.919443	1.025541	-0.221172	99
Es	-0.212645	0.217704	0.355704	99
Es	3.652515	1.166230	-0.405469	99
Es	-0.683716	-0.292468	0.077113	99
Es	1.571274	0.670398	-0.178045	99
Es	2.111445	2.276580	-0.263718	99
Es	-1.416119	-0.145299	0.152601	99
Es	2.438579	1.600104	-0.285812	99
Es	-2.402629	-0.300849	0.863216	99
Es	0.400656	-1.879549	-0.019547	99
Es	0.189593	0.723727	-0.033453	99
Es	-0.035338	1.420450	-0.021999	99
Es	3.249305	1.474495	-0.126469	99
Es	1.774483	0.035386	-0.186734	99
Es	-2.156758	-0.011313	0.229241	99
Es	0.957000	0.637094	-0.113570	99
Es	-0.696975	-2.085444	-0.485737	99
Es	-0.339467	-1.757373	0.065823	99
Es	3.215230	1.467644	-0.608278	99
Es	-0.554418	-2.058988	0.697737	99
Es	-0.495136	-1.022078	0.069779	99
Es	1.541529	0.572829	-0.173567	99
Es	-2.529506	-0.319640	-0.329808	99
Es	-0.283516	0.206007	-0.311851	99
Es	3.856568	1.684393	-0.434181	99
Es	-2.303034	0.716340	0.233479	99
43
Properties=species:S:1:pos:R:3:Z:I:1 energy=-324.0043240159856 field_type=dipole dipole="0.000000 0.000000 0.000000" charge=0
C	-2.156796	-0.011307	0.229245	6
C	-0.683646	-0.292377	0.077105	6
C	-0.339476	-1.757417	0.065825	6
C	0.189324	0.723643	-0.033425	6
N	1.541574	0.572773	-0.173195	7
C	2.438724	1.600223	-0.285835	6
O	3.644204	1.427173	-0.409015	8
H	-2.377706	1.061273	0.236245	1
H	-2.527906	-0.432787	1.169155	1
H	-2.715416	-0.460007	-0.598665	1
H	-0.861226	-2.258777	-0.756275	1
H	-0.652136	-2.222947	1.006475	1
H	0.727354	-1.956467	-0.057645	1
H	-0.167666	1.752513	-0.013745	1
H	1.958663	-0.348667	-0.200165	1
H	1.982134	2.603153	-0.256085	1
Es	-0.035678	1.420040	-0.022004	99
Es	-0.697269	-2.085641	-0.484964	99
Es	-0.283290	0.205882	-0.311297	99
Es	0.957220	0.636119	-0.111751	99
Es	2.111562	2.276440	-0.263796	99
Es	1.774087	0.037088	-0.187389	99
Es	-0.212628	0.217569	0.355095	99
Es	-0.683717	-0.292469	0.077115	99
Es	-2.403015	-0.301376	0.862706	99
Es	3.259677	1.470307	-0.126381	99
Es	1.919861	1.025335	-0.221058	99
Es	1.571085	0.670415	-0.179895	99
Es	3.650116	1.173591	-0.406984	99
Es	-0.495403	-1.021851	0.069971	99
Es	3.205771	1.464351	-0.605207	99
Es	2.438579	1.600104	-0.285816	99
Es	-2.303807	0.716067	0.233532	99
Es	1.541575	0.572811	-0.173014	99
Es	-2.156757	-0.011315	0.229241	99
Es	0.189595	0.723727	-0.033458	99
Es	-2.528890	-0.319215	-0.329124	99
Es	3.858018	1.684687	-0.435816	99
Es	3.643883	1.427247	-0.408980	99
Es	-1.415936	-0.145400	0.152498	99
Es	0.401265	-1.879430	-0.019664	99
Es	-0.339468	-1.757373	0.065823	99
Es	-0.554137	-2.058607	0.696896	99
43
Properties=species:S:1:pos:R:3:Z:I:1 energy=-324.0043240159856 field_type=dipole dipole="0.000000 0.000000 0.000000" charge=0
C	-2.156796	-0.011307	0.229245	6
C	-0.683646	-0.292377	0.077105	6
C	-0.339476	-1.757417	0.065825	6
C	0.189324	0.723643	-0.033425	6
N	1.541574	0.572773	-0.173195	7
C	2.438724	1.600223	-0.285835	6
O	3.644204	1.427173	-0.409015	8
H	-2.377706	1.061273	0.236245	1
H	-2.527906	-0.432787	1.169155	1
H	-2.715416	-0.460007	-0.598665	1
H	-0.861226	-2.258777	-0.756275	1
H	-0.652136	-2.222947	1.006475	1
H	0.727354	-1.956467	-0.057645	1
H	-0.167666	1.752513	-0.013745	1
H	1.958663	-0.348667	-0.200165	1
H	1.982134	2.603153	-0.256085	1
Es	1.541562	0.572799	-0.173133	99
Es	0.189596	0.723727	-0.033458	99
Es	0.957738	0.635561	-0.107347	99
Es	0.401166	-1.878770	-0.020149	99
Es	2.438576	1.600106	-0.285819	99
Es	-1.415846	-0.145263	0.152904	99
Es	-0.556122	-2.060875	0.697988	99
Es	-2.527249	-0.317630	-0.329233	99
Es	3.316288	1.478615	-0.171600	99
Es	1.571809	0.670429	-0.173314	99
Es	-2.404618	-0.303039	0.863381	99
Es	-0.283194	0.206111	-0.312191	99
Es	3.856849	1.684969	-0.447954	99
Es	-0.683717	-0.292468	0.077117	99
Es	-0.212822	0.217404	0.355607	99
Es	-2.303676	0.715745	0.233361	99
Es	3.150806	1.442594	-0.555847	99
Es	-0.035505	1.419566	-0.021947	99
Es	-0.339470	-1.757371	0.065824	99
Es	-2.156759	-0.011313	0.229241	99
Es	1.773084	0.038238	-0.193502	99
Es	3.643897	1.427231	-0.408987	99
Es	-0.495472	-1.022332	0.069765	99
Es	-0.695327	-2.083366	-0.485428	99
Es	3.649526	1.186601	-0.399086	99
Es	2.111651	2.276684	-0.263800	99
Es	1.919527	1.025148	-0.226110	99
43
Properties=species:S:1:pos:R:3:Z:I:1 energy=-324.0043240159856 field_type=dipole dipole="0.000000 0.000000 0.000000" charge=0
C	-2.156796	-0.011307	0.229245	6
C	-0.683646	-0.292377	0.077105	6
C	-0.339476	-1.757417	0.065825	6
C	0.189324	0.723643	-0.033425	6
N	1.541574	0.572773	-0.173195	7
C	2.438724	1.600223	-0.285835	6
O	3.644204	1.427173	-0.409015	8
H	-2.377706	1.061273	0.236245	1
H	-2.527906	-0.432787	1.169155	1
H	-2.715416	-0.460007	-0.598665	1
H	-0.861226	-2.258777	-0.756275	1
H	-0.652136	-2.222947	1.006475	1
H	0.727354	-1.956467	-0.057645	1
H	-0.167666	1.752513	-0.013745	1
H	1.958663	-0.348667	-0.200165	1
H	1.982134	2.603153	-0.256085	1
Es	0.956525	0.635215	-0.118625	99
Es	-0.339469	-1.757371	0.065824	99
Es	-0.683717	-0.292468	0.077114	99
Es	3.643881	1.427229	-0.408977	99
Es	3.857121	1.688384	-0.422861	99
Es	-0.698515	-2.086872	-0.486254	99
Es	1.920453	1.025292	-0.218253	99
Es	1.774200	0.038918	-0.182016	99
Es	-0.553237	-2.057430	0.697183	99
Es	-2.156758	-0.011314	0.229241	99
Es	0.401047	-1.878130	-0.018917	99
Es	-0.495269	-1.022573	0.070104	99
Es	2.111730	2.276956	-0.263692	99
Es	-2.303131	0.715089	0.233876	99
Es	-0.035220	1.419073	-0.021934	99
Es	1.570943	0.670278	-0.181001	99
Es	1.541587	0.572822	-0.172923	99
Es	-2.401282	-0.299587	0.862922	99
Es	3.648934	1.197358	-0.409240	99
Es	3.302852	1.471442	-0.532465	99
Es	-0.212338	0.217814	0.356851	99
Es	3.164516	1.435379	-0.209785	99
Es	2.438578	1.600104	-0.285819	99
Es	-2.531045	-0.320919	-0.330278	99
Es	-1.416011	-0.145100	0.152254	99
Es	0.189595	0.723726	-0.033453	99
Es	-0.283672	0.205790	-0.312596	99
43
Properties=species:S:1:pos:R:3:Z:I:1 energy=-324.0043240159856 field_type=dipole dipole="0.000000 0.000000 0.000000" charge=0
C	-2.156796	-0.011307	0.229245	6
C	-0.683646	-0.292377	0.077105	6
C	-0.339476	-1.757417	0.065825	6
C	0.189324	0.723643	-0.033425	6
N	1.541574	0.572773	-0.173195	7
C	2.438724	1.600223	-0.285835	6
O	3.644204	1.427173	-0.409015	8
H	-2.377706	1.061273	0.236245	1
H	-2.527906	-0.432787	1.169155	1
H	-2.715416	-0.460007	-0.598665	1
H	-0.861226	-2.258777	-0.756275	1
H	-0.652136	-2.222947	1.006475	1
H	0.727354	-1.956467	-0.057645	1
H	-0.167666	1.752513	-0.013745	1
H	1.958663	-0.348667	-0.200165	1
H	1.982134	2.603153	-0.256085	1
Es	-0.695930	-2.084127	-0.486190	99
Es	3.127876	1.424185	-0.469834	99
Es	-0.035117	1.418656	-0.022060	99
Es	3.342664	1.476059	-0.253094	99
Es	1.571560	0.670447	-0.175142	99
Es	2.111752	2.277059	-0.263929	99
Es	-0.283571	0.206136	-0.313490	99
Es	-2.303257	0.714706	0.233211	99
Es	3.643880	1.427220	-0.408982	99
Es	-0.212594	0.217550	0.356971	99
Es	-2.527430	-0.317698	-0.330033	99
Es	-2.156756	-0.011314	0.229241	99
Es	-1.415962	-0.145051	0.152889	99
Es	0.957695	0.634761	-0.107531	99
Es	0.400895	-1.877563	-0.020113	99
Es	-0.339470	-1.757371	0.065826	99
Es	3.648663	1.203452	-0.403995	99
Es	-2.404658	-0.302904	0.864292	99
Es	-0.683717	-0.292467	0.077113	99
Es	2.438579	1.600106	-0.285814	99
Es	3.854139	1.688850	-0.447434	99
Es	1.773112	0.039593	-0.191939	99
Es	-0.555522	-2.060302	0.698885	99
Es	1.541528	0.572822	-0.173516	99
Es	0.189589	0.723727	-0.033454	99
Es	1.919768	1.025171	-0.225286	99
Es	-0.495416	-1.022600	0.069690	99
43
Properties=species:S:1:pos:R:3:Z:I:1 energy=-324.0043240159856 field_type=dipole dipole="0.000000 0.000000 0.000000" charge=0
C	-2.156796	-0.011307	0.229245	6
C	-0.683646	-0.292377	0.077105	6
C	-0.339476	-1.757417	0.065825	6
C	0.189324	0.723643	-0.033425	6
N	1.541574	0.572773	-0.173195	7
C	2.438724	1.600223	-0.285835	6
O	3.644204	1.427173	-0.409015	8
H	-2.377706	1.061273	0.236245	1
H	-2.527906	-0.432787	1.169155	1
H	-2.715416	-0.460007	-0.598665	1
H	-0.861226	-2.258777	-0.756275	1
H	-0.652136	-2.222947	1.006475	1
H	0.727354	-1.956467	-0.057645	1
H	-0.167666	1.752513	-0.013745	1
H	1.958663	-0.348667	-0.200165	1
H	1.982134	2.603153	-0.256085	1
Es	-0.553837	-2.058311	0.698174	99
Es	3.643907	1.427226	-0.408979	99
Es	-0.697844	-2.086113	-0.486758	99
Es	-0.495250	-1.022676	0.069999	99
Es	1.920572	1.025233	-0.218427	99
Es	-0.339469	-1.757371	0.065824	99
Es	3.141265	1.417989	-0.281927	99
Es	-0.212388	0.217798	0.357555	99
Es	-2.156759	-0.011314	0.229241	99
Es	2.438579	1.600103	-0.285814	99
Es	-0.034985	1.418429	-0.021851	99
Es	2.111850	2.277204	-0.263630	99
Es	1.571078	0.670160	-0.179220	99
Es	1.773880	0.039858	-0.184130	99
Es	-2.402077	-0.300418	0.863714	99
Es	-1.416028	-0.144762	0.152476	99
Es	0.956610	0.634696	-0.117012	99
Es	3.646544	1.211726	-0.406377	99
Es	0.400845	-1.877373	-0.019264	99
Es	-0.683717	-0.292467	0.077115	99
Es	3.856235	1.689744	-0.428105	99
Es	1.541528	0.573027	-0.174154	99
Es	3.329200	1.472959	-0.458077	99
Es	0.189593	0.723726	-0.033454	99
Es	-2.530157	-0.320245	-0.330781	99
Es	-2.303130	0.714359	0.233701	99
Es	-0.283746	0.205916	-0.313560	99
43
Properties=species:S:1:pos:R:3:Z:I:1 energy=-324.0043240159856 field_type=dipole dipole="0.000000 0.000000 0.000000" charge=0
C	-2.156796	-0.011307	0.229245	6
C	-0.683646	-0.292377	0.077105	6
C	-0.339476	-1.757417	0.065825	6
C	0.189324	0.723643	-0.033425	6
N	1.541574	0.572773	-0.173195	7
C	2.438724	1.600223	-0.285835	6
O	3.644204	1.427173	-0.409015	8
H	-2.377706	1.061273	0.236245	1
H	-2.527906	-0.432787	1.169155	1
H	-2.715416	-0.460007	-0.598665	1
H	-0.861226	-2.258777	-0.756275	1
H	-0.652136	-2.222947	1.006475	1
H	0.727354	-1.956467	-0.057645	1
H	-0.167666	1.752513	-0.013745	1
H	1.958663	-0.348667	-0.200165	1
H	1.982134	2.603153	-0.256085	1
Es	3.643899	1.427235	-0.408982	99
Es	-0.683717	-0.292468	0.077110	99
Es	0.400887	-1.877094	-0.019483	99
Es	3.133714	1.411319	-0.324194	99
Es	0.956884	0.634147	-0.113894	99
Es	-1.416090	-0.144869	0.152447	99
Es	1.541519	0.572870	-0.173757	99
Es	-0.339469	-1.757372	0.065823	99
Es	2.111894	2.277228	-0.263818	99
Es	3.645580	1.216646	-0.405114	99
Es	0.189592	0.723726	-0.033455	99
Es	-0.495233	-1.022875	0.069850	99
Es	1.773528	0.040532	-0.186505	99
Es	2.438578	1.600103	-0.285819	99
Es	1.571268	0.670399	-0.177931	99
Es	3.855496	1.690231	-0.433481	99
Es	-0.283736	0.205972	-0.313711	99
Es	-0.034969	1.418303	-0.021925	99
Es	-0.554129	-2.058600	0.698508	99
Es	-2.156757	-0.011316	0.229241	99
Es	-2.303027	0.714235	0.233716	99
Es	-2.402283	-0.300742	0.864003	99
Es	-0.212441	0.217786	0.357670	99
Es	3.338444	1.474183	-0.411531	99
Es	1.920402	1.025186	-0.220923	99
Es	-0.697564	-2.085766	-0.486738	99
Es	-2.529977	-0.319893	-0.330829	99
43
Properties=species:S:1:pos:R:3:Z:I:1 energy=-324.0043240159856 field_type=dipole dipole="0.000000 0.000000 0.000000" charge=0
C	-2.156796	-0.011307	0.229245	6
C	-0.683646	-0.292377	0.077105	6
C	-0.339476	-1.757417	0.065825	6
C	0.189324	0.723643	-0.033425	6
N	1.541574	0.572773	-0.173195	7
C	2.438724	1.600223	-0.285835	6
O	3.644204	1.427173	-0.409015	8
H	-2.377706	1.061273	0.236245	1
H	-2.527906	-0.432787	1.169155	1
H	-2.715416	-0.460007	-0.598665	1
H	-0.861226	-2.258777	-0.756275	1
H	-0.652136	-2.222947	1.006475	1
H	0.727354	-1.956467	-0.057645	1
H	-0.167666	1.752513	-0.013745	1
H	1.958663	-0.348667	-0.200165	1
H	1.982134	2.603153	-0.256085	1
Es	1.571234	0.670474	-0.178452	99
Es	-0.554907	-2.059524	0.698527	99
Es	-2.156758	-0.011315	0.229240	99
Es	3.130351	1.405407	-0.360998	99
Es	-0.212510	0.217701	0.357337	99
Es	3.643218	1.222538	-0.405590	99
Es	3.856064	1.689346	-0.437113	99
Es	-0.495463	-1.022802	0.069888	99
Es	2.438578	1.600103	-0.285818	99
Es	-2.403206	-0.301532	0.863948	99
Es	2.111885	2.277201	-0.263972	99
Es	-0.683716	-0.292466	0.077113	99
Es	1.920390	1.025231	-0.220830	99
Es	1.541574	0.572811	-0.173014	99
Es	-1.415894	-0.144905	0.152689	99
Es	3.643920	1.427211	-0.408988	99
Es	-0.339471	-1.757372	0.065821	99
Es	-0.035188	1.418184	-0.022081	99
Es	-2.528887	-0.319192	-0.330415	99
Es	3.343573	1.475166	-0.370480	99
Es	0.189591	0.723727	-0.033458	99
Es	0.957108	0.634001	-0.112475	99
Es	-0.283531	0.205917	-0.313495	99
Es	-0.696640	-2.084942	-0.486521	99
Es	-2.303404	0.714292	0.233457	99
Es	1.773340	0.040855	-0.188396	99
Es	0.401047	-1.877012	-0.019643	99
43
Properties=species:S:1:pos:R:3:Z:I:1 energy=-324.0043240159856 field_type=dipole dipole="0.000000 0.000000 0.000000" charge=0
C	-2.156796	-0.011307	0.229245	6
C	-0.683646	-0.292377	0.077105	6
C	-0.339476	-1.757417	0.065825	6
C	0.189324	0.723643	-0.033425	6
N	1.541574	0.572773	-0.173195	7
C	2.438724	1.600223	-0.285835	6
O	3.644204	1.427173	-0.409015	8
H	-2.377706	1.061273	0.236245	1
H	-2.527906	-0.432787	1.169155	1
H	-2.715416	-0.460007	-0.598665	1
H	-0.861226	-2.258777	-0.756275	1
H	-0.652136	-2.222947	1.006475	1
H	0.727354	-1.956467	-0.057645	1
H	-0.167666	1.752513	-0.013745	1
H	1.958663	-0.348667	-0.200165	1
H	1.982134	2.603153	-0.256085	1
Es	-0.035275	1.418189	-0.021966	99
Es	-0.283595	0.205951	-0.313169	99
Es	-2.528334	-0.318568	-0.330249	99
Es	-0.697434	-2.085712	-0.486058	99
Es	-2.303590	0.714238	0.233600	99
Es	-2.403784	-0.302105	0.863651	99
Es	3.342994	1.475095	-0.376159	99
Es	-0.554112	-2.058707	0.697965	99
Es	1.571282	0.670430	-0.177907	99
Es	1.920426	1.025113	-0.221846	99
Es	0.401244	-1.877149	-0.019680	99
Es	2.438581	1.600100	-0.285820	99
Es	1.773201	0.041098	-0.187996	99
Es	3.132251	1.400283	-0.356524	99
Es	3.641779	1.227752	-0.405284	99
Es	1.541621	0.572865	-0.172710	99
Es	3.643904	1.427235	-0.408984	99
Es	3.856186	1.689361	-0.436280	99
Es	-0.212440	0.217660	0.356991	99
Es	0.957146	0.633913	-0.112675	99
Es	-1.415798	-0.145003	0.152621	99
Es	2.111909	2.277144	-0.263917	99
Es	-0.495510	-1.022653	0.069971	99
Es	0.189595	0.723726	-0.033454	99
Es	-2.156761	-0.011315	0.229238	99
Es	-0.339469	-1.757371	0.065823	99
Es	-0.683718	-0.292467	0.077099	99
43
Properties=species:S:1:pos:R:3:Z:I:1 energy=-324.0043240159856 field_type=dipole dipole="0.000000 0.000000 0.000000" charge=0
C	-2.156796	-0.011307	0.229245	6
C	-0.683646	-0.292377	0.077105	6
C	-0.339476	-1.757417	0.065825	6
C	0.189324	0.723643	-0.033425	6
N	1.541574	0.572773	-0.173195	7
C	2.438724	1.600223	-0.285835	6
O	3.644204	1.427173	-0.409015	8
H	-2.377706	1.061273	0.236245	1
H	-2.527906	-0.432787	1.169155	1
H	-2.715416	-0.460007	-0.598665	1
H	-0.861226	-2.258777	-0.756275	1
H	-0.652136	-2.222947	1.006475	1
H	0.727354	-1.956467	-0.057645	1
H	-0.167666	1.752513	-0.013745	1
H	1.958663	-0.348667	-0.200165	1
H	1.982134	2.603153	-0.256085	1
Es	1.541532	0.572819	-0.173506	99
Es	3.342678	1.475060	-0.379090	99
Es	-2.303925	0.714499	0.233513	99
Es	-0.212457	0.217600	0.356724	99
Es	1.571324	0.670470	-0.177572	99
Es	0.401461	-1.877036	-0.019532	99
Es	-2.156757	-0.011315	0.229241	99
Es	1.920372	1.025121	-0.222484	99
Es	-0.339468	-1.757373	0.065823	99
Es	0.189592	0.723725	-0.033461	99
Es	3.640492	1.230801	-0.405234	99
Es	-0.554023	-2.058484	0.697585	99
Es	3.856676	1.688911	-0.436233	99
Es	2.438578	1.600103	-0.285818	99
Es	-0.495729	-1.022710	0.069848	99
Es	1.773270	0.042041	-0.186998	99
Es	-2.528685	-0.319163	-0.329792	99
Es	3.643929	1.427196	-0.408979	99
Es	3.133320	1.397873	-0.353770	99
Es	0.957195	0.633229	-0.112608	99
Es	2.111926	2.277051	-0.263831	99
Es	-0.283505	0.205922	-0.312877	99
Es	-1.415743	-0.145120	0.152558	99
Es	-2.403227	-0.301665	0.863346	99
Es	-0.697430	-2.085995	-0.485769	99
Es	-0.683715	-0.292468	0.077116	99
Es	-0.035387	1.418010	-0.021920	99
43
Properties=species:S:1:pos:R:3:Z:I:1 energy=-324.0043240159856 field_type=dipole dipole="0.000000 0.000000 0.000000" charge=0
C	-2.156796	-0.011307	0.229245	6
C	-0.683646	-0.292377	0.077105	6
C	-0.339476	-1.757417	0.065825	6
C	0.189324	0.723643	-0.033425	6
N	1.541574	0.572773	-0.173195	7
C	2.438724	1.600223	-0.285835	6
O	3.644204	1.427173	-0.409015	8
H	-2.377706	1.061273	0.236245	1
H	-2.527906	-0.432787	1.169155	1
H	-2.715416	-0.460007	-0.598665	1
H	-0.861226	-2.258777	-0.756275	1
H	-0.652136	-2.222947	1.006475	1
H	0.727354	-1.956467	-0.057645	1
H	-0.167666	1.752513	-0.013745	1
H	1.958663	-0.348667	-0.200165	1
H	1.982134	2.603153	-0.256085	1
Es	-0.212824	0.217619	0.356412	99
Es	1.773163	0.042396	-0.187032	99
Es	0.189594	0.723725	-0.033454	99
Es	1.920533	1.025045	-0.222052	99
Es	2.438578	1.600103	-0.285821	99
Es	-2.528075	-0.318552	-0.329604	99
Es	3.342579	1.475048	-0.379978	99
Es	3.134667	1.393872	-0.353154	99
Es	-2.156757	-0.011315	0.229241	99
Es	-2.304160	0.714539	0.233669	99
Es	1.571239	0.669929	-0.176695	99
Es	3.638882	1.235235	-0.404563	99
Es	-0.683717	-0.292468	0.077115	99
Es	0.401612	-1.877130	-0.019677	99
Es	-1.415706	-0.145191	0.152496	99
Es	1.541579	0.573361	-0.174686	99
Es	3.857074	1.688505	-0.436619	99
Es	-0.035557	1.418121	-0.022016	99
Es	3.643880	1.427244	-0.408982	99
Es	2.111923	2.277010	-0.263875	99
Es	-0.495841	-1.022508	0.069994	99
Es	-0.698180	-2.086762	-0.485203	99
Es	0.957222	0.632927	-0.112695	99
Es	-0.553194	-2.057727	0.697055	99
Es	-0.283002	0.205783	-0.312478	99
Es	-0.339469	-1.757372	0.065824	99
Es	-2.403746	-0.302333	0.863062	99
