46
Properties=species:S:1:pos:R:3:Z:I:1 energy=-325.09839089317956 field_type=dipole dipole="0.000000 0.000000 0.000000" charge=0
C	-1.844018	-0.453233	-0.153067	6
C	-0.316688	-0.334323	-0.086197	6
C	0.213022	-1.268313	1.007913	6
C	0.275672	-0.687153	-1.455387	6
O	-0.048558	1.041137	0.244333	8
N	1.332612	1.277077	0.339093	7
C	1.517172	2.518747	0.630443	6
H	-2.255868	0.231697	-0.903437	1
H	-2.299028	-0.172593	0.803973	1
H	-2.161988	-1.471093	-0.402117	1
H	-0.161628	-0.965973	1.992503	1
H	1.306712	-1.237873	1.066393	1
H	-0.083298	-2.306943	0.825953	1
H	-0.058618	0.024487	-2.219046	1
H	-0.013118	-1.696143	-1.768887	1
H	1.370362	-0.641033	-1.442807	1
H	2.539302	2.908677	0.750413	1
H	0.687952	3.232857	0.769923	1
Es	-0.050662	-1.062125	1.674158	99
Es	1.409763	1.771079	0.753120	99
Es	0.951642	-1.249952	1.041094	99
Es	-0.109773	0.521905	0.121834	99
Es	1.332166	1.277530	0.339184	99
Es	0.039306	-0.204043	-1.971873	99
Es	-1.085992	-0.389895	-0.118899	99
Es	0.964478	2.999744	0.724665	99
Es	2.201564	2.779932	0.710832	99
Es	-1.843996	-0.453238	-0.153074	99
Es	-0.136910	1.219978	0.005280	99
Es	0.275651	-0.687159	-1.455375	99
Es	1.566150	0.987887	0.279398	99
Es	-0.146780	1.093259	0.532222	99
Es	-2.048614	-1.149187	-0.323006	99
Es	0.213006	-1.268315	1.007897	99
Es	-0.043222	-0.806030	0.465825	99
Es	0.563972	1.134542	0.282578	99
Es	-0.048290	1.040875	0.244235	99
Es	-0.316649	-0.334119	-0.086148	99
Es	1.014729	-0.660709	-1.442167	99
Es	1.426560	1.901364	0.187498	99
Es	-2.119126	0.008989	-0.668707	99
Es	-0.011579	-0.512985	-0.776974	99
Es	-2.148785	-0.267902	0.501189	99
Es	1.517199	2.518763	0.630442	99
Es	0.003874	-1.973153	0.874685	99
Es	0.071233	-1.376193	-1.659887	99
46
Properties=species:S:1:pos:R:3:Z:I:1 energy=-325.09839089317956 field_type=dipole dipole="0.000000 0.000000 0.000000" charge=0
C	-1.844018	-0.453233	-0.153067	6
C	-0.316688	-0.334323	-0.086197	6
C	0.213022	-1.268313	1.007913	6
C	0.275672	-0.687153	-1.455387	6
O	-0.048558	1.041137	0.244333	8
N	1.332612	1.277077	0.339093	7
C	1.517172	2.518747	0.630443	6
H	-2.255868	0.231697	-0.903437	1
H	-2.299028	-0.172593	0.803973	1
H	-2.161988	-1.471093	-0.402117	1
H	-0.161628	-0.965973	1.992503	1
H	1.306712	-1.237873	1.066393	1
H	-0.083298	-2.306943	0.825953	1
H	-0.058618	0.024487	-2.219046	1
H	-0.013118	-1.696143	-1.768887	1
H	1.370362	-0.641033	-1.442807	1
H	2.539302	2.908677	0.750413	1
H	0.687952	3.232857	0.769923	1
Es	0.040203	-0.204103	-1.969015	99
Es	1.517199	2.518771	0.630448	99
Es	-0.316648	-0.334114	-0.086147	99
Es	0.213002	-1.268311	1.007894	99
Es	1.408887	1.771640	0.752719	99
Es	-0.042270	-0.805781	0.467125	99
Es	-0.048221	1.040909	0.243934	99
Es	0.069508	-1.379176	-1.661153	99
Es	0.564869	1.135783	0.283701	99
Es	-0.010664	-0.512205	-0.778034	99
Es	1.425821	1.901660	0.188017	99
Es	2.202272	2.780687	0.711019	99
Es	-0.149471	1.099008	0.525954	99
Es	1.014580	-0.658615	-1.441693	99
Es	-2.050860	-1.152226	-0.323797	99
Es	0.964790	2.998813	0.724388	99
Es	0.951495	-1.247752	1.041694	99
Es	0.002215	-1.976407	0.874349	99
Es	-2.118201	0.009107	-0.665823	99
Es	1.332155	1.277520	0.339182	99
Es	-1.843999	-0.453241	-0.153068	99
Es	-2.147547	-0.266753	0.498673	99
Es	1.566633	0.989192	0.279879	99
Es	0.275655	-0.687161	-1.455370	99
Es	-0.049691	-1.061026	1.671566	99
Es	-1.086443	-0.388977	-0.118632	99
Es	-0.113041	0.518724	0.120946	99
Es	-0.131311	1.214876	0.011268	99
46
Properties=species:S:1:pos:R:3:Z:I:1 energy=-325.09839089317956 field_type=dipole dipole="0.000000 0.000000 0.000000" charge=0
C	-1.844018	-0.453233	-0.153067	6
C	-0.316688	-0.334323	-0.086197	6
C	0.213022	-1.268313	1.007913	6
C	0.275672	-0.687153	-1.455387	6
O	-0.048558	1.041137	0.244333	8
N	1.332612	1.277077	0.339093	7
C	1.517172	2.518747	0.630443	6
H	-2.255868	0.231697	-0.903437	1
H	-2.299028	-0.172593	0.803973	1
H	-2.161988	-1.471093	-0.402117	1
H	-0.161628	-0.965973	1.992503	1
H	1.306712	-1.237873	1.066393	1
H	-0.083298	-2.306943	0.825953	1
H	-0.058618	0.024487	-2.219046	1
H	-0.013118	-1.696143	-1.768887	1
H	1.370362	-0.641033	-1.442807	1
H	2.539302	2.908677	0.750413	1
H	0.687952	3.232857	0.769923	1
Es	0.001086	-1.978001	0.874263	99
Es	-2.146755	-0.266214	0.496931	99
Es	0.040647	-0.204441	-1.967436	99
Es	-0.146894	1.097614	0.522088	99
Es	0.068646	-1.380710	-1.661601	99
Es	0.565261	1.136468	0.284019	99
Es	0.213005	-1.268314	1.007896	99
Es	-1.843998	-0.453240	-0.153065	99
Es	1.517199	2.518771	0.630451	99
Es	0.965022	2.998161	0.724210	99
Es	-0.114968	0.517723	0.119213	99
Es	1.425097	1.901896	0.188609	99
Es	-0.041735	-0.805671	0.467953	99
Es	1.014350	-0.657318	-1.441510	99
Es	-0.048353	1.040905	0.244283	99
Es	1.332155	1.277524	0.339183	99
Es	2.202542	2.781241	0.711190	99
Es	1.408374	1.771965	0.752520	99
Es	-0.316648	-0.334112	-0.086146	99
Es	-0.131739	1.215607	0.015982	99
Es	0.275655	-0.687162	-1.455374	99
Es	1.567166	0.990139	0.279804	99
Es	-2.117691	0.008931	-0.664074	99
Es	0.951341	-1.246592	1.042023	99
Es	-1.086782	-0.388282	-0.118563	99
Es	-0.010011	-0.511728	-0.778591	99
Es	-2.052080	-1.153840	-0.324089	99
Es	-0.048977	-1.060477	1.669857	99
46
Properties=species:S:1:pos:R:3:Z:I:1 energy=-325.09839089317956 field_type=dipole dipole="0.000000 0.000000 0.000000" charge=0
C	-1.844018	-0.453233	-0.153067	6
C	-0.316688	-0.334323	-0.086197	6
C	0.213022	-1.268313	1.007913	6
C	0.275672	-0.687153	-1.455387	6
O	-0.048558	1.041137	0.244333	8
N	1.332612	1.277077	0.339093	7
C	1.517172	2.518747	0.630443	6
H	-2.255868	0.231697	-0.903437	1
H	-2.299028	-0.172593	0.803973	1
H	-2.161988	-1.471093	-0.402117	1
H	-0.161628	-0.965973	1.992503	1
H	1.306712	-1.237873	1.066393	1
H	-0.083298	-2.306943	0.825953	1
H	-0.058618	0.024487	-2.219046	1
H	-0.013118	-1.696143	-1.768887	1
H	1.370362	-0.641033	-1.442807	1
H	2.539302	2.908677	0.750413	1
H	0.687952	3.232857	0.769923	1
Es	0.951067	-1.245655	1.042238	99
Es	-0.116176	0.517120	0.117955	99
Es	0.213005	-1.268314	1.007895	99
Es	0.000549	-1.979011	0.873988	99
Es	1.332172	1.277550	0.339188	99
Es	-1.087126	-0.387910	-0.118302	99
Es	-0.141853	1.093523	0.518957	99
Es	-2.146314	-0.265753	0.495778	99
Es	1.517193	2.518771	0.630449	99
Es	1.567447	0.990667	0.280074	99
Es	-0.316648	-0.334114	-0.086148	99
Es	2.202697	2.781662	0.711363	99
Es	-2.117035	0.008655	-0.662769	99
Es	-0.135208	1.218197	0.020968	99
Es	-1.843999	-0.453240	-0.153069	99
Es	1.407804	1.772391	0.752133	99
Es	-0.041232	-0.805700	0.468538	99
Es	-2.053024	-1.154769	-0.324458	99
Es	0.067911	-1.381638	-1.662152	99
Es	-0.048512	1.041063	0.244323	99
Es	1.424769	1.902059	0.188623	99
Es	0.275654	-0.687161	-1.455373	99
Es	0.041111	-0.204771	-1.966028	99
Es	-0.009686	-0.511555	-0.779402	99
Es	-0.048682	-1.060127	1.668817	99
Es	0.965184	2.997613	0.724280	99
Es	1.014298	-0.656314	-1.441178	99
Es	0.565549	1.137603	0.283337	99
46
Properties=species:S:1:pos:R:3:Z:I:1 energy=-325.09839089317956 field_type=dipole dipole="0.000000 0.000000 0.000000" charge=0
C	-1.844018	-0.453233	-0.153067	6
C	-0.316688	-0.334323	-0.086197	6
C	0.213022	-1.268313	1.007913	6
C	0.275672	-0.687153	-1.455387	6
O	-0.048558	1.041137	0.244333	8
N	1.332612	1.277077	0.339093	7
C	1.517172	2.518747	0.630443	6
H	-2.255868	0.231697	-0.903437	1
H	-2.299028	-0.172593	0.803973	1
H	-2.161988	-1.471093	-0.402117	1
H	-0.161628	-0.965973	1.992503	1
H	1.306712	-1.237873	1.066393	1
H	-0.083298	-2.306943	0.825953	1
H	-0.058618	0.024487	-2.219046	1
H	-0.013118	-1.696143	-1.768887	1
H	1.370362	-0.641033	-1.442807	1
H	2.539302	2.908677	0.750413	1
H	0.687952	3.232857	0.769923	1
Es	1.424146	1.902272	0.189081	99
Es	-0.316647	-0.334118	-0.086146	99
Es	-0.040925	-0.805749	0.469070	99
Es	-1.087292	-0.387536	-0.118321	99
Es	0.041322	-0.204893	-1.965227	99
Es	1.517199	2.518773	0.630451	99
Es	-0.117015	0.516291	0.119272	99
Es	0.965351	2.997320	0.724103	99
Es	2.202750	2.781984	0.711277	99
Es	-0.144905	1.097583	0.515947	99
Es	-0.048292	1.040841	0.244276	99
Es	1.332150	1.277467	0.339174	99
Es	0.950806	-1.244901	1.042379	99
Es	-2.145915	-0.265519	0.494779	99
Es	-2.053658	-1.155404	-0.324543	99
Es	0.275653	-0.687160	-1.455373	99
Es	1.567657	0.991464	0.279811	99
Es	-0.009193	-0.511318	-0.779767	99
Es	-0.131239	1.214170	0.020969	99
Es	0.213005	-1.268314	1.007896	99
Es	1.407797	1.772327	0.752402	99
Es	0.565568	1.137928	0.284901	99
Es	-1.843998	-0.453241	-0.153069	99
Es	-0.048280	-1.059982	1.667905	99
Es	0.000149	-1.979768	0.873897	99
Es	-2.116740	0.008367	-0.661813	99
Es	0.067507	-1.382396	-1.662229	99
Es	1.013956	-0.655646	-1.441075	99
46
Properties=species:S:1:pos:R:3:Z:I:1 energy=-325.09839089317956 field_type=dipole dipole="0.000000 0.000000 0.000000" charge=0
C	-1.844018	-0.453233	-0.153067	6
C	-0.316688	-0.334323	-0.086197	6
C	0.213022	-1.268313	1.007913	6
C	0.275672	-0.687153	-1.455387	6
O	-0.048558	1.041137	0.244333	8
N	1.332612	1.277077	0.339093	7
C	1.517172	2.518747	0.630443	6
H	-2.255868	0.231697	-0.903437	1
H	-2.299028	-0.172593	0.803973	1
H	-2.161988	-1.471093	-0.402117	1
H	-0.161628	-0.965973	1.992503	1
H	1.306712	-1.237873	1.066393	1
H	-0.083298	-2.306943	0.825953	1
H	-0.058618	0.024487	-2.219046	1
H	-0.013118	-1.696143	-1.768887	1
H	1.370362	-0.641033	-1.442807	1
H	2.539302	2.908677	0.750413	1
H	0.687952	3.232857	0.769923	1
Es	0.275655	-0.687161	-1.455372	99
Es	-0.047870	-1.059946	1.667022	99
Es	1.517200	2.518773	0.630454	99
Es	-0.048536	1.041084	0.244289	99
Es	-0.151245	1.104976	0.513587	99
Es	1.407234	1.772664	0.752120	99
Es	-2.054066	-1.155903	-0.324475	99
Es	-0.123614	1.206178	0.020453	99
Es	-0.040729	-0.805815	0.469382	99
Es	-0.009051	-0.511241	-0.780277	99
Es	-2.116628	0.008397	-0.661224	99
Es	-0.117856	0.515637	0.120832	99
Es	-1.087460	-0.387247	-0.118287	99
Es	0.067265	-1.382916	-1.662266	99
Es	-0.316649	-0.334112	-0.086146	99
Es	0.041432	-0.204926	-1.964649	99
Es	2.202772	2.782301	0.711478	99
Es	1.567738	0.991777	0.280607	99
Es	0.950535	-1.244327	1.042594	99
Es	1.424217	1.902358	0.188800	99
Es	0.213005	-1.268314	1.007896	99
Es	0.965437	2.996980	0.723919	99
Es	1.013798	-0.655073	-1.440708	99
Es	0.565743	1.138319	0.285971	99
Es	-0.000094	-1.980379	0.874049	99
Es	-2.145466	-0.265528	0.493865	99
Es	1.332146	1.277527	0.339179	99
Es	-1.843997	-0.453241	-0.153069	99
46
Properties=species:S:1:pos:R:3:Z:I:1 energy=-325.09839089317956 field_type=dipole dipole="0.000000 0.000000 0.000000" charge=0
C	-1.844018	-0.453233	-0.153067	6
C	-0.316688	-0.334323	-0.086197	6
C	0.213022	-1.268313	1.007913	6
C	0.275672	-0.687153	-1.455387	6
O	-0.048558	1.041137	0.244333	8
N	1.332612	1.277077	0.339093	7
C	1.517172	2.518747	0.630443	6
H	-2.255868	0.231697	-0.903437	1
H	-2.299028	-0.172593	0.803973	1
H	-2.161988	-1.471093	-0.402117	1
H	-0.161628	-0.965973	1.992503	1
H	1.306712	-1.237873	1.066393	1
H	-0.083298	-2.306943	0.825953	1
H	-0.058618	0.024487	-2.219046	1
H	-0.013118	-1.696143	-1.768887	1
H	1.370362	-0.641033	-1.442807	1
H	2.539302	2.908677	0.750413	1
H	0.687952	3.232857	0.769923	1
Es	-1.843998	-0.453241	-0.153068	99
Es	1.407105	1.772732	0.752180	99
Es	0.965531	2.996679	0.723864	99
Es	1.423896	1.902385	0.189237	99
Es	-0.316645	-0.334111	-0.086147	99
Es	-2.116280	0.008079	-0.660456	99
Es	0.275655	-0.687162	-1.455374	99
Es	1.332153	1.277549	0.339186	99
Es	1.517199	2.518774	0.630451	99
Es	-0.008696	-0.511162	-0.780462	99
Es	0.041704	-0.205130	-1.963953	99
Es	-0.118409	0.515681	0.119592	99
Es	1.567982	0.992192	0.280325	99
Es	-0.128978	1.210946	0.023932	99
Es	-2.054454	-1.156216	-0.324766	99
Es	0.565763	1.139012	0.285073	99
Es	-2.145305	-0.265354	0.493369	99
Es	-1.087648	-0.387030	-0.118223	99
Es	-0.048351	1.040906	0.244290	99
Es	-0.047655	-1.059617	1.666843	99
Es	2.202740	2.782617	0.711467	99
Es	0.213003	-1.268314	1.007897	99
Es	-0.145325	1.099203	0.512168	99
Es	-0.040526	-0.805927	0.469648	99
Es	0.950182	-1.243935	1.042346	99
Es	0.066969	-1.383270	-1.662534	99
Es	1.013539	-0.654674	-1.440756	99
Es	-0.000238	-1.980770	0.873896	99
46
Properties=species:S:1:pos:R:3:Z:I:1 energy=-325.09839089317956 field_type=dipole dipole="0.000000 0.000000 0.000000" charge=0
C	-1.844018	-0.453233	-0.153067	6
C	-0.316688	-0.334323	-0.086197	6
C	0.213022	-1.268313	1.007913	6
C	0.275672	-0.687153	-1.455387	6
O	-0.048558	1.041137	0.244333	8
N	1.332612	1.277077	0.339093	7
C	1.517172	2.518747	0.630443	6
H	-2.255868	0.231697	-0.903437	1
H	-2.299028	-0.172593	0.803973	1
H	-2.161988	-1.471093	-0.402117	1
H	-0.161628	-0.965973	1.992503	1
H	1.306712	-1.237873	1.066393	1
H	-0.083298	-2.306943	0.825953	1
H	-0.058618	0.024487	-2.219046	1
H	-0.013118	-1.696143	-1.768887	1
H	1.370362	-0.641033	-1.442807	1
H	2.539302	2.908677	0.750413	1
H	0.687952	3.232857	0.769923	1
Es	0.275653	-0.687161	-1.455373	99
Es	-0.132098	1.213212	0.026766	99
Es	-2.145184	-0.265077	0.492921	99
Es	0.965623	2.996527	0.724024	99
Es	1.517199	2.518774	0.630447	99
Es	1.423525	1.902567	0.189200	99
Es	0.042008	-0.205374	-1.963592	99
Es	-0.047617	-1.059474	1.666337	99
Es	-2.054733	-1.156507	-0.324835	99
Es	1.568174	0.992409	0.280391	99
Es	-0.008569	-0.511087	-0.780654	99
Es	0.565947	1.139731	0.284214	99
Es	-0.141446	1.095748	0.510681	99
Es	0.066953	-1.383625	-1.662696	99
Es	0.213005	-1.268315	1.007896	99
Es	1.406851	1.772920	0.752030	99
Es	1.332146	1.277548	0.339187	99
Es	-2.115981	0.007695	-0.659928	99
Es	-0.048387	1.040959	0.244261	99
Es	-0.000486	-1.981045	0.873733	99
Es	2.202759	2.782709	0.711491	99
Es	-0.040345	-0.805995	0.470045	99
Es	-0.118950	0.515665	0.119045	99
Es	1.013231	-0.654281	-1.440576	99
Es	-0.316645	-0.334111	-0.086147	99
Es	-1.087825	-0.386812	-0.118233	99
Es	-1.843998	-0.453241	-0.153068	99
Es	0.950102	-1.243516	1.042457	99
46
Properties=species:S:1:pos:R:3:Z:I:1 energy=-325.09839089317956 field_type=dipole dipole="0.000000 0.000000 0.000000" charge=0
C	-1.844018	-0.453233	-0.153067	6
C	-0.316688	-0.334323	-0.086197	6
C	0.213022	-1.268313	1.007913	6
C	0.275672	-0.687153	-1.455387	6
O	-0.048558	1.041137	0.244333	8
N	1.332612	1.277077	0.339093	7
C	1.517172	2.518747	0.630443	6
H	-2.255868	0.231697	-0.903437	1
H	-2.299028	-0.172593	0.803973	1
H	-2.161988	-1.471093	-0.402117	1
H	-0.161628	-0.965973	1.992503	1
H	1.306712	-1.237873	1.066393	1
H	-0.083298	-2.306943	0.825953	1
H	-0.058618	0.024487	-2.219046	1
H	-0.013118	-1.696143	-1.768887	1
H	1.370362	-0.641033	-1.442807	1
H	2.539302	2.908677	0.750413	1
H	0.687952	3.232857	0.769923	1
Es	-0.119142	0.515486	0.119241	99
Es	-0.132264	1.212841	0.027834	99
Es	1.568356	0.992707	0.280430	99
Es	-0.316647	-0.334112	-0.086146	99
Es	-2.145005	-0.265119	0.492458	99
Es	-0.048267	1.040835	0.244275	99
Es	-0.140957	1.095609	0.509699	99
Es	0.565946	1.140098	0.283868	99
Es	-0.008384	-0.511050	-0.780872	99
Es	-0.040092	-0.805980	0.470256	99
Es	-2.115824	0.007604	-0.659420	99
Es	1.517200	2.518772	0.630453	99
Es	0.965595	2.996308	0.723970	99
Es	-1.844002	-0.453240	-0.153067	99
Es	0.066842	-1.383890	-1.662767	99
Es	1.406471	1.773198	0.751714	99
Es	-1.087970	-0.386661	-0.118024	99
Es	-2.054946	-1.156715	-0.324999	99
Es	-0.000573	-1.981321	0.873588	99
Es	0.042019	-0.205440	-1.963142	99
Es	0.213007	-1.268314	1.007900	99
Es	0.275655	-0.687162	-1.455374	99
Es	1.332210	1.277546	0.339188	99
Es	-0.047419	-1.059495	1.665971	99
Es	1.013031	-0.653932	-1.440616	99
Es	2.202733	2.782910	0.711678	99
Es	1.423491	1.902535	0.189419	99
Es	0.949853	-1.243175	1.042507	99
46
Properties=species:S:1:pos:R:3:Z:I:1 energy=-325.09839089317956 field_type=dipole dipole="0.000000 0.000000 0.000000" charge=0
C	-1.844018	-0.453233	-0.153067	6
C	-0.316688	-0.334323	-0.086197	6
C	0.213022	-1.268313	1.007913	6
C	0.275672	-0.687153	-1.455387	6
O	-0.048558	1.041137	0.244333	8
N	1.332612	1.277077	0.339093	7
C	1.517172	2.518747	0.630443	6
H	-2.255868	0.231697	-0.903437	1
H	-2.299028	-0.172593	0.803973	1
H	-2.161988	-1.471093	-0.402117	1
H	-0.161628	-0.965973	1.992503	1
H	1.306712	-1.237873	1.066393	1
H	-0.083298	-2.306943	0.825953	1
H	-0.058618	0.024487	-2.219046	1
H	-0.013118	-1.696143	-1.768887	1
H	1.370362	-0.641033	-1.442807	1
H	2.539302	2.908677	0.750413	1
H	0.687952	3.232857	0.769923	1
Es	-1.843999	-0.453241	-0.153068	99
Es	-2.144824	-0.265068	0.492080	99
Es	1.517199	2.518774	0.630450	99
Es	-0.039982	-0.806144	0.470425	99
Es	-2.115702	0.007459	-0.659026	99
Es	0.213005	-1.268315	1.007896	99
Es	-1.088078	-0.386481	-0.118163	99
Es	-0.048273	1.040847	0.244258	99
Es	1.423070	1.902699	0.189614	99
Es	1.568562	0.992740	0.280339	99
Es	0.965619	2.996130	0.723941	99
Es	-0.316647	-0.334104	-0.086155	99
Es	-0.008144	-0.511080	-0.781004	99
Es	-0.047388	-1.059274	1.665709	99
Es	1.406593	1.773122	0.751771	99
Es	0.275655	-0.687162	-1.455374	99
Es	0.066732	-1.384094	-1.662911	99
Es	-2.055138	-1.156904	-0.325039	99
Es	-0.140510	1.095280	0.508237	99
Es	2.202698	2.783131	0.711574	99
Es	1.332172	1.277544	0.339186	99
Es	-0.132175	1.212390	0.028921	99
Es	-0.000620	-1.981551	0.873572	99
Es	0.565826	1.140885	0.284314	99
Es	-0.119396	0.515368	0.119200	99
Es	0.949640	-1.242918	1.042533	99
Es	1.012845	-0.653662	-1.440513	99
Es	0.042172	-0.205528	-1.962743	99
46
Properties=species:S:1:pos:R:3:Z:I:1 energy=-325.09839089317956 field_type=dipole dipole="0.000000 0.000000 0.000000" charge=0
C	-1.844018	-0.453233	-0.153067	6
C	-0.316688	-0.334323	-0.086197	6
C	0.213022	-1.268313	1.007913	6
C	0.275672	-0.687153	-1.455387	6
O	-0.048558	1.041137	0.244333	8
N	1.332612	1.277077	0.339093	7
C	1.517172	2.518747	0.630443	6
H	-2.255868	0.231697	-0.903437	1
H	-2.299028	-0.172593	0.803973	1
H	-2.161988	-1.471093	-0.402117	1
H	-0.161628	-0.965973	1.992503	1
H	1.306712	-1.237873	1.066393	1
H	-0.083298	-2.306943	0.825953	1
H	-0.058618	0.024487	-2.219046	1
H	-0.013118	-1.696143	-1.768887	1
H	1.370362	-0.641033	-1.442807	1
H	2.539302	2.908677	0.750413	1
H	0.687952	3.232857	0.769923	1
Es	1.568781	0.993083	0.280719	99
Es	-2.055307	-1.157116	-0.324896	99
Es	1.406349	1.773268	0.751566	99
Es	-0.316642	-0.334108	-0.086150	99
Es	0.965657	2.996028	0.723806	99
Es	1.422834	1.902812	0.189710	99
Es	-1.843998	-0.453241	-0.153068	99
Es	0.275655	-0.687162	-1.455374	99
Es	0.066746	-1.384342	-1.662813	99
Es	-0.119693	0.515471	0.118804	99
Es	-2.115620	0.007181	-0.658699	99
Es	0.565973	1.140026	0.286117	99
Es	-1.088195	-0.386309	-0.118059	99
Es	-0.048307	1.040855	0.244326	99
Es	-0.039980	-0.806125	0.470536	99
Es	-0.141657	1.096222	0.507098	99
Es	-0.000670	-1.981791	0.873649	99
Es	1.332158	1.277551	0.339189	99
Es	1.517199	2.518774	0.630453	99
Es	-2.144634	-0.264903	0.491707	99
Es	-0.007962	-0.511086	-0.781291	99
Es	0.949483	-1.242583	1.042478	99
Es	-0.047219	-1.059189	1.665368	99
Es	0.213006	-1.268314	1.007897	99
Es	2.202653	2.783285	0.711538	99
Es	1.012659	-0.653341	-1.440543	99
Es	0.042176	-0.205693	-1.962519	99
Es	-0.130529	1.211590	0.028476	99
46
Properties=species:S:1:pos:R:3:Z:I:1 energy=-325.09839089317956 field_type=dipole dipole="0.000000 0.000000 0.000000" charge=0
C	-1.844018	-0.453233	-0.153067	6
C	-0.316688	-0.334323	-0.086197	6
C	0.213022	-1.268313	1.007913	6
C	0.275672	-0.687153	-1.455387	6
O	-0.048558	1.041137	0.244333	8
N	1.332612	1.277077	0.339093	7
C	1.517172	2.518747	0.630443	6
H	-2.255868	0.231697	-0.903437	1
H	-2.299028	-0.172593	0.803973	1
H	-2.161988	-1.471093	-0.402117	1
H	-0.161628	-0.965973	1.992503	1
H	1.306712	-1.237873	1.066393	1
H	-0.083298	-2.306943	0.825953	1
H	-0.058618	0.024487	-2.219046	1
H	-0.013118	-1.696143	-1.768887	1
H	1.370362	-0.641033	-1.442807	1
H	2.539302	2.908677	0.750413	1
H	0.687952	3.232857	0.769923	1
Es	0.213005	-1.268315	1.007896	99
Es	0.066766	-1.384494	-1.662936	99
Es	-0.039830	-0.806161	0.470691	99
Es	0.275653	-0.687160	-1.455373	99
Es	-0.000634	-1.981974	0.873581	99
Es	-1.844002	-0.453238	-0.153071	99
Es	-0.142288	1.097168	0.506401	99
Es	1.012432	-0.653246	-1.440217	99
Es	-2.115429	0.007206	-0.658535	99
Es	1.422687	1.902796	0.189977	99
Es	-0.316640	-0.334113	-0.086138	99
Es	-0.129406	1.209246	0.030016	99
Es	1.406191	1.773364	0.751534	99
Es	-0.048307	1.040880	0.244227	99
Es	0.042276	-0.205470	-1.962360	99
Es	-0.007951	-0.511097	-0.781386	99
Es	-0.047096	-1.059339	1.665042	99
Es	2.202642	2.783427	0.711639	99
Es	0.565798	1.141536	0.285167	99
Es	1.517200	2.518774	0.630449	99
Es	-1.088349	-0.386183	-0.117961	99
Es	0.965679	2.995866	0.723789	99
Es	1.568967	0.993107	0.280441	99
Es	1.332167	1.277551	0.339189	99
Es	-2.144643	-0.264965	0.491313	99
Es	-0.119910	0.515296	0.118992	99
Es	-2.055332	-1.157247	-0.325022	99
Es	0.949273	-1.242371	1.042679	99
46
Properties=species:S:1:pos:R:3:Z:I:1 energy=-325.09839089317956 field_type=dipole dipole="0.000000 0.000000 0.000000" charge=0
C	-1.844018	-0.453233	-0.153067	6
C	-0.316688	-0.334323	-0.086197	6
C	0.213022	-1.268313	1.007913	6
C	0.275672	-0.687153	-1.455387	6
O	-0.048558	1.041137	0.244333	8
N	1.332612	1.277077	0.339093	7
C	1.517172	2.518747	0.630443	6
H	-2.255868	0.231697	-0.903437	1
H	-2.299028	-0.172593	0.803973	1
H	-2.161988	-1.471093	-0.402117	1
H	-0.161628	-0.965973	1.992503	1
H	1.306712	-1.237873	1.066393	1
H	-0.083298	-2.306943	0.825953	1
H	-0.058618	0.024487	-2.219046	1
H	-0.013118	-1.696143	-1.768887	1
H	1.370362	-0.641033	-1.442807	1
H	2.539302	2.908677	0.750413	1
H	0.687952	3.232857	0.769923	1
Es	1.517199	2.518774	0.630450	99
Es	0.565654	1.142396	0.284677	99
Es	-0.138903	1.093808	0.505179	99
Es	-2.115423	0.007073	-0.658218	99
Es	1.332150	1.277543	0.339187	99
Es	1.569092	0.993223	0.280493	99
Es	-2.055440	-1.157341	-0.325059	99
Es	-0.000656	-1.982078	0.873410	99
Es	-0.120023	0.515335	0.118593	99
Es	0.949102	-1.242205	1.042565	99
Es	-2.144468	-0.264943	0.491187	99
Es	-0.316645	-0.334109	-0.086145	99
Es	0.965678	2.995833	0.723826	99
Es	-1.088427	-0.386111	-0.118054	99
Es	-0.131828	1.210920	0.032181	99
Es	0.066773	-1.384643	-1.662956	99
Es	0.042353	-0.205688	-1.962134	99
Es	-0.048881	1.041475	0.244141	99
Es	-0.047165	-1.059061	1.665041	99
Es	1.406112	1.773424	0.751472	99
Es	1.422550	1.902844	0.190052	99
Es	1.012291	-0.653002	-1.440273	99
Es	0.275655	-0.687160	-1.455377	99
Es	-1.843999	-0.453241	-0.153068	99
Es	2.202603	2.783476	0.711610	99
Es	-0.007808	-0.511050	-0.781486	99
Es	-0.039635	-0.806334	0.470833	99
Es	0.213005	-1.268315	1.007896	99
46
Properties=species:S:1:pos:R:3:Z:I:1 energy=-325.09839089317956 field_type=dipole dipole="0.000000 0.000000 0.000000" charge=0
C	-1.844018	-0.453233	-0.153067	6
C	-0.316688	-0.334323	-0.086197	6
C	0.213022	-1.268313	1.007913	6
C	0.275672	-0.687153	-1.455387	6
O	-0.048558	1.041137	0.244333	8
N	1.332612	1.277077	0.339093	7
C	1.517172	2.518747	0.630443	6
H	-2.255868	0.231697	-0.903437	1
H	-2.299028	-0.172593	0.803973	1
H	-2.161988	-1.471093	-0.402117	1
H	-0.161628	-0.965973	1.992503	1
H	1.306712	-1.237873	1.066393	1
H	-0.083298	-2.306943	0.825953	1
H	-0.058618	0.024487	-2.219046	1
H	-0.013118	-1.696143	-1.768887	1
H	1.370362	-0.641033	-1.442807	1
H	2.539302	2.908677	0.750413	1
H	0.687952	3.232857	0.769923	1
Es	1.012059	-0.652933	-1.439971	99
Es	0.042245	-0.205265	-1.962062	99
Es	-0.007595	-0.511227	-0.781681	99
Es	1.422549	1.902861	0.190066	99
Es	-1.088517	-0.385981	-0.117995	99
Es	-0.120287	0.515010	0.119973	99
Es	-2.115624	0.007486	-0.657991	99
Es	0.275655	-0.687162	-1.455375	99
Es	-1.843998	-0.453241	-0.153068	99
Es	-0.146990	1.102342	0.504700	99
Es	0.066767	-1.384828	-1.662826	99
Es	1.569093	0.993363	0.280608	99
Es	-0.316642	-0.334105	-0.086147	99
Es	-2.144093	-0.265407	0.490607	99
Es	-0.039692	-0.806133	0.470857	99
Es	0.965704	2.995781	0.723679	99
Es	2.202593	2.783532	0.711736	99
Es	0.948960	-1.242036	1.042849	99
Es	0.213006	-1.268313	1.007895	99
Es	-0.048309	1.040871	0.244257	99
Es	1.517199	2.518775	0.630447	99
Es	-2.055506	-1.157478	-0.325025	99
Es	-0.000620	-1.982260	0.873575	99
Es	1.405930	1.773516	0.751394	99
Es	-0.046907	-1.059389	1.664561	99
Es	-0.123877	1.203429	0.029571	99
Es	0.565624	1.142083	0.286199	99
Es	1.332188	1.277554	0.339191	99
46
Properties=species:S:1:pos:R:3:Z:I:1 energy=-325.09839089317956 field_type=dipole dipole="0.000000 0.000000 0.000000" charge=0
C	-1.844018	-0.453233	-0.153067	6
C	-0.316688	-0.334323	-0.086197	6
C	0.213022	-1.268313	1.007913	6
C	0.275672	-0.687153	-1.455387	6
O	-0.048558	1.041137	0.244333	8
N	1.332612	1.277077	0.339093	7
C	1.517172	2.518747	0.630443	6
H	-2.255868	0.231697	-0.903437	1
H	-2.299028	-0.172593	0.803973	1
H	-2.161988	-1.471093	-0.402117	1
H	-0.161628	-0.965973	1.992503	1
H	1.306712	-1.237873	1.066393	1
H	-0.083298	-2.306943	0.825953	1
H	-0.058618	0.024487	-2.219046	1
H	-0.013118	-1.696143	-1.768887	1
H	1.370362	-0.641033	-1.442807	1
H	2.539302	2.908677	0.750413	1
H	0.687952	3.232857	0.769923	1
Es	0.965725	2.995610	0.723723	99
Es	0.066775	-1.384942	-1.662920	99
Es	-0.039224	-0.806228	0.470808	99
Es	-0.007527	-0.511116	-0.781723	99
Es	-0.047036	-1.059063	1.664454	99
Es	1.332168	1.277555	0.339190	99
Es	-0.000707	-1.982347	0.873422	99
Es	-1.088726	-0.386108	-0.117749	99
Es	1.011931	-0.652666	-1.440182	99
Es	0.275655	-0.687162	-1.455374	99
Es	-1.843998	-0.453239	-0.153071	99
Es	2.202564	2.783687	0.711785	99
Es	0.213002	-1.268312	1.007896	99
Es	1.569373	0.993533	0.280504	99
Es	-0.048245	1.040790	0.244452	99
Es	1.422284	1.902894	0.190328	99
Es	0.565614	1.142560	0.285090	99
Es	0.042315	-0.205587	-1.961761	99
Es	-0.316645	-0.334109	-0.086141	99
Es	-0.120183	0.515066	0.119413	99
Es	0.948792	-1.241932	1.042885	99
Es	-2.055635	-1.157536	-0.325163	99
Es	-2.115341	0.007218	-0.657745	99
Es	1.517200	2.518774	0.630451	99
Es	-0.128697	1.207593	0.031558	99
Es	-0.142145	1.097443	0.504080	99
Es	-2.144121	-0.265172	0.490566	99
Es	1.405749	1.773640	0.751250	99
46
Properties=species:S:1:pos:R:3:Z:I:1 energy=-325.09839089317956 field_type=dipole dipole="0.000000 0.000000 0.000000" charge=0
C	-1.844018	-0.453233	-0.153067	6
C	-0.316688	-0.334323	-0.086197	6
C	0.213022	-1.268313	1.007913	6
C	0.275672	-0.687153	-1.455387	6
O	-0.048558	1.041137	0.244333	8
N	1.332612	1.277077	0.339093	7
C	1.517172	2.518747	0.630443	6
H	-2.255868	0.231697	-0.903437	1
H	-2.299028	-0.172593	0.803973	1
H	-2.161988	-1.471093	-0.402117	1
H	-0.161628	-0.965973	1.992503	1
H	1.306712	-1.237873	1.066393	1
H	-0.083298	-2.306943	0.825953	1
H	-0.058618	0.024487	-2.219046	1
H	-0.013118	-1.696143	-1.768887	1
H	1.370362	-0.641033	-1.442807	1
H	2.539302	2.908677	0.750413	1
H	0.687952	3.232857	0.769923	1
Es	0.213005	-1.268313	1.007895	99
Es	0.066717	-1.385000	-1.663030	99
Es	0.042414	-0.205872	-1.961474	99
Es	1.517199	2.518774	0.630452	99
Es	-0.138946	1.094192	0.502872	99
Es	-1.088738	-0.385846	-0.118101	99
Es	-0.007493	-0.511093	-0.781848	99
Es	0.965717	2.995565	0.723766	99
Es	-0.046972	-1.058938	1.664580	99
Es	-0.131547	1.210002	0.033164	99
Es	0.275653	-0.687161	-1.455373	99
Es	-2.055676	-1.157610	-0.325225	99
Es	0.948620	-1.241589	1.042510	99
Es	-0.316645	-0.334110	-0.086142	99
Es	1.421851	1.903040	0.190563	99
Es	-0.120225	0.515095	0.119071	99
Es	1.011932	-0.652422	-1.440216	99
Es	-2.115141	0.006743	-0.657487	99
Es	-0.039455	-0.806534	0.471185	99
Es	-0.000546	-1.982485	0.873312	99
Es	0.565477	1.143221	0.285290	99
Es	2.202555	2.783775	0.711601	99
Es	1.332152	1.277537	0.339184	99
Es	-1.844000	-0.453240	-0.153068	99
Es	-2.144193	-0.264844	0.490642	99
Es	1.569523	0.993553	0.280465	99
Es	-0.048278	1.040853	0.244241	99
Es	1.405954	1.773551	0.751196	99
46
Properties=species:S:1:pos:R:3:Z:I:1 energy=-325.09839089317956 field_type=dipole dipole="0.000000 0.000000 0.000000" charge=0
C	-1.844018	-0.453233	-0.153067	6
C	-0.316688	-0.334323	-0.086197	6
C	0.213022	-1.268313	1.007913	6
C	0.275672	-0.687153	-1.455387	6
O	-0.048558	1.041137	0.244333	8
N	1.332612	1.277077	0.339093	7
C	1.517172	2.518747	0.630443	6
H	-2.255868	0.231697	-0.903437	1
H	-2.299028	-0.172593	0.803973	1
H	-2.161988	-1.471093	-0.402117	1
H	-0.161628	-0.965973	1.992503	1
H	1.306712	-1.237873	1.066393	1
H	-0.083298	-2.306943	0.825953	1
H	-0.058618	0.024487	-2.219046	1
H	-0.013118	-1.696143	-1.768887	1
H	1.370362	-0.641033	-1.442807	1
H	2.539302	2.908677	0.750413	1
H	0.687952	3.232857	0.769923	1
Es	-1.843997	-0.453240	-0.153068	99
Es	1.332204	1.277550	0.339190	99
Es	0.066767	-1.385106	-1.663072	99
Es	-0.048467	1.041006	0.244315	99
Es	-0.136025	1.091678	0.502374	99
Es	-0.316642	-0.334107	-0.086143	99
Es	-2.115062	0.006460	-0.657426	99
Es	1.517199	2.518773	0.630455	99
Es	-0.046920	-1.058738	1.664617	99
Es	-0.000601	-1.982532	0.873303	99
Es	-2.144300	-0.264724	0.490334	99
Es	-2.055632	-1.157724	-0.325104	99
Es	1.011734	-0.652329	-1.440249	99
Es	-0.133697	1.211705	0.035149	99
Es	0.275655	-0.687162	-1.455374	99
Es	1.405929	1.773585	0.751155	99
Es	-1.088805	-0.385734	-0.117909	99
Es	-0.120640	0.515188	0.118664	99
Es	0.042455	-0.205883	-1.961341	99
Es	0.565427	1.143581	0.284098	99
Es	-0.007288	-0.511128	-0.781825	99
Es	0.948452	-1.241636	1.042418	99
Es	2.202528	2.783858	0.711706	99
Es	-0.039318	-0.806450	0.471068	99
Es	1.569549	0.993728	0.280302	99
Es	1.421686	1.903075	0.190724	99
Es	0.965715	2.995463	0.723770	99
Es	0.213005	-1.268315	1.007896	99
46
Properties=species:S:1:pos:R:3:Z:I:1 energy=-325.09839089317956 field_type=dipole dipole="0.000000 0.000000 0.000000" charge=0
C	-1.844018	-0.453233	-0.153067	6
C	-0.316688	-0.334323	-0.086197	6
C	0.213022	-1.268313	1.007913	6
C	0.275672	-0.687153	-1.455387	6
O	-0.048558	1.041137	0.244333	8
N	1.332612	1.277077	0.339093	7
C	1.517172	2.518747	0.630443	6
H	-2.255868	0.231697	-0.903437	1
H	-2.299028	-0.172593	0.803973	1
H	-2.161988	-1.471093	-0.402117	1
H	-0.161628	-0.965973	1.992503	1
H	1.306712	-1.237873	1.066393	1
H	-0.083298	-2.306943	0.825953	1
H	-0.058618	0.024487	-2.219046	1
H	-0.013118	-1.696143	-1.768887	1
H	1.370362	-0.641033	-1.442807	1
H	2.539302	2.908677	0.750413	1
H	0.687952	3.232857	0.769923	1
Es	-1.843998	-0.453241	-0.153069	99
Es	0.948395	-1.241696	1.043072	99
Es	-0.115275	1.194040	0.030338	99
Es	0.042233	-0.204885	-1.961665	99
Es	-0.046462	-1.059541	1.663892	99
Es	-1.088906	-0.385691	-0.117943	99
Es	-2.143500	-0.265800	0.489553	99
Es	0.565227	1.143379	0.287865	99
Es	-2.115720	0.007738	-0.657471	99
Es	0.066846	-1.385238	-1.662768	99
Es	1.569612	0.993680	0.281048	99
Es	2.202473	2.784046	0.711892	99
Es	1.011515	-0.652563	-1.439501	99
Es	-0.007364	-0.511325	-0.782023	99
Es	-0.039276	-0.806078	0.471110	99
Es	1.517199	2.518774	0.630450	99
Es	-0.048310	1.040849	0.244354	99
Es	0.275654	-0.687162	-1.455373	99
Es	0.213006	-1.268315	1.007897	99
Es	-0.316645	-0.334106	-0.086147	99
Es	-0.154298	1.109979	0.501387	99
Es	0.965766	2.995321	0.723419	99
Es	1.421996	1.903046	0.190492	99
Es	-0.000672	-1.982637	0.873535	99
Es	-0.120615	0.514777	0.120455	99
Es	1.332166	1.277554	0.339190	99
Es	1.405478	1.773799	0.750908	99
Es	-2.055610	-1.157862	-0.324872	99
46
Properties=species:S:1:pos:R:3:Z:I:1 energy=-325.09839089317956 field_type=dipole dipole="0.000000 0.000000 0.000000" charge=0
C	-1.844018	-0.453233	-0.153067	6
C	-0.316688	-0.334323	-0.086197	6
C	0.213022	-1.268313	1.007913	6
C	0.275672	-0.687153	-1.455387	6
O	-0.048558	1.041137	0.244333	8
N	1.332612	1.277077	0.339093	7
C	1.517172	2.518747	0.630443	6
H	-2.255868	0.231697	-0.903437	1
H	-2.299028	-0.172593	0.803973	1
H	-2.161988	-1.471093	-0.402117	1
H	-0.161628	-0.965973	1.992503	1
H	1.306712	-1.237873	1.066393	1
H	-0.083298	-2.306943	0.825953	1
H	-0.058618	0.024487	-2.219046	1
H	-0.013118	-1.696143	-1.768887	1
H	1.370362	-0.641033	-1.442807	1
H	2.539302	2.908677	0.750413	1
H	0.687952	3.232857	0.769923	1
Es	-0.046972	-1.058447	1.664585	99
Es	0.042623	-0.206123	-1.961070	99
Es	-2.055611	-1.157810	-0.325333	99
Es	-2.144363	-0.264556	0.490307	99
Es	-0.316642	-0.334107	-0.086147	99
Es	1.421793	1.903016	0.190699	99
Es	0.948172	-1.241389	1.042288	99
Es	-0.000535	-1.982681	0.873136	99
Es	1.517200	2.518775	0.630449	99
Es	0.066851	-1.385249	-1.663228	99
Es	0.275654	-0.687161	-1.455373	99
Es	1.569830	0.993675	0.280524	99
Es	1.332145	1.277537	0.339184	99
Es	-0.007313	-0.510998	-0.781802	99
Es	0.965744	2.995357	0.723779	99
Es	1.405400	1.773876	0.750985	99
Es	-0.133259	1.088860	0.500146	99
Es	2.202499	2.783971	0.711703	99
Es	-2.114819	0.006140	-0.657093	99
Es	-0.120650	0.515190	0.118426	99
Es	-1.843995	-0.453241	-0.153069	99
Es	-0.038998	-0.806763	0.471267	99
Es	1.011517	-0.652045	-1.440194	99
Es	-0.136222	1.213293	0.037391	99
Es	-1.089047	-0.385655	-0.118039	99
Es	0.213005	-1.268314	1.007896	99
Es	0.565145	1.144829	0.284492	99
Es	-0.048236	1.040866	0.244115	99
46
Properties=species:S:1:pos:R:3:Z:I:1 energy=-325.09839089317956 field_type=dipole dipole="0.000000 0.000000 0.000000" charge=0
C	-1.844018	-0.453233	-0.153067	6
C	-0.316688	-0.334323	-0.086197	6
C	0.213022	-1.268313	1.007913	6
C	0.275672	-0.687153	-1.455387	6
O	-0.048558	1.041137	0.244333	8
N	1.332612	1.277077	0.339093	7
C	1.517172	2.518747	0.630443	6
H	-2.255868	0.231697	-0.903437	1
H	-2.299028	-0.172593	0.803973	1
H	-2.161988	-1.471093	-0.402117	1
H	-0.161628	-0.965973	1.992503	1
H	1.306712	-1.237873	1.066393	1
H	-0.083298	-2.306943	0.825953	1
H	-0.058618	0.024487	-2.219046	1
H	-0.013118	-1.696143	-1.768887	1
H	1.370362	-0.641033	-1.442807	1
H	2.539302	2.908677	0.750413	1
H	0.687952	3.232857	0.769923	1
Es	0.948081	-1.241369	1.043059	99
Es	0.042328	-0.205109	-1.961161	99
Es	1.405198	1.773955	0.750858	99
Es	-2.115404	0.007425	-0.657118	99
Es	-2.055777	-1.157939	-0.325023	99
Es	-0.118825	1.196941	0.032125	99
Es	0.564984	1.144375	0.287182	99
Es	-0.046583	-1.059257	1.663753	99
Es	-0.150290	1.105900	0.500870	99
Es	1.011425	-0.652157	-1.439353	99
Es	0.066801	-1.385362	-1.662983	99
Es	-0.048369	1.040945	0.244233	99
Es	0.965737	2.995304	0.723467	99
Es	-1.843998	-0.453241	-0.153068	99
Es	-1.089053	-0.385612	-0.117794	99
Es	-0.039082	-0.806297	0.471248	99
Es	2.202450	2.784081	0.711839	99
Es	-0.007238	-0.511505	-0.782521	99
Es	1.422016	1.902992	0.190608	99
Es	-0.316645	-0.334106	-0.086151	99
Es	-0.120679	0.514829	0.119945	99
Es	1.569810	0.993637	0.281041	99
Es	-0.000503	-1.982847	0.873437	99
Es	-2.143487	-0.265589	0.489371	99
Es	0.213005	-1.268314	1.007896	99
Es	0.275655	-0.687161	-1.455374	99
Es	1.517199	2.518774	0.630451	99
Es	1.332157	1.277549	0.339188	99
