45
Properties=species:S:1:pos:R:3:Z:I:1 energy=-341.10004918939035 field_type=dipole dipole="0.000000 0.000000 0.000000" charge=0
C	-1.002392	0.550296	1.717254	6
C	0.121648	-0.018444	0.856904	6
C	0.313748	-1.506034	1.134674	6
N	-0.258022	0.161186	-0.550907	7
C	0.734298	0.357276	-1.349256	6
N	0.606918	0.540666	-2.702306	7
O	-0.681602	0.946646	-3.074206	8
H	-1.136522	1.619116	1.518504	1
H	-0.780592	0.427856	2.782363	1
H	-1.956362	0.054116	1.506693	1
H	1.045958	0.521616	1.099983	1
H	-0.592762	-2.075054	0.900504	1
H	0.563618	-1.677744	2.186674	1
H	1.125608	-1.914394	0.523353	1
H	1.789098	0.380436	-1.022946	1
H	1.348838	1.051006	-3.175797	1
H	-1.241482	0.581456	-2.351487	1
Es	1.453674	0.372373	-1.134029	99
Es	0.170548	-0.039160	-0.905183	99
Es	-0.092796	0.759507	-2.891760	99
Es	0.121585	-0.018452	0.856772	99
Es	0.767329	0.353210	1.016755	99
Es	-0.956779	0.748422	-2.701759	99
Es	-0.443006	0.264940	1.292089	99
Es	0.653270	0.565680	-2.113133	99
Es	-0.257530	0.161209	-0.550841	99
Es	-0.304181	-1.886557	0.977167	99
Es	-1.646643	0.206321	1.574053	99
Es	1.036861	0.866853	-2.963475	99
Es	-0.681525	0.946496	-3.073925	99
Es	0.734339	0.357277	-1.349446	99
Es	-0.680644	1.257781	-3.037978	99
Es	0.872603	-1.779554	0.715766	99
Es	0.313758	-1.506021	1.134679	99
Es	0.606822	0.541252	-2.701920	99
Es	-1.002371	0.550290	1.717260	99
Es	0.675335	0.202528	-2.684500	99
Es	-0.746540	0.800103	-3.343513	99
Es	0.485330	-1.616783	1.855079	99
Es	0.120672	0.527824	-0.815853	99
Es	-1.088764	1.279054	1.582660	99
Es	-0.611073	0.147938	-0.667905	99
Es	0.219618	-0.768725	0.993912	99
Es	-0.843884	0.463437	2.445996	99
Es	-0.067240	0.087814	0.041211	99
45
Properties=species:S:1:pos:R:3:Z:I:1 energy=-341.10004918939035 field_type=dipole dipole="0.000000 0.000000 0.000000" charge=0
C	-1.002392	0.550296	1.717254	6
C	0.121648	-0.018444	0.856904	6
C	0.313748	-1.506034	1.134674	6
N	-0.258022	0.161186	-0.550907	7
C	0.734298	0.357276	-1.349256	6
N	0.606918	0.540666	-2.702306	7
O	-0.681602	0.946646	-3.074206	8
H	-1.136522	1.619116	1.518504	1
H	-0.780592	0.427856	2.782363	1
H	-1.956362	0.054116	1.506693	1
H	1.045958	0.521616	1.099983	1
H	-0.592762	-2.075054	0.900504	1
H	0.563618	-1.677744	2.186674	1
H	1.125608	-1.914394	0.523353	1
H	1.789098	0.380436	-1.022946	1
H	1.348838	1.051006	-3.175797	1
H	-1.241482	0.581456	-2.351487	1
Es	1.453517	0.372443	-1.133909	99
Es	-1.002371	0.550290	1.717262	99
Es	0.219392	-0.768781	0.993312	99
Es	-0.091893	0.759986	-2.894123	99
Es	-0.745134	0.812486	-3.351255	99
Es	0.121582	-0.018452	0.856773	99
Es	-0.443134	0.264607	1.292023	99
Es	-0.304351	-1.884997	0.977000	99
Es	-0.069806	0.086134	0.042634	99
Es	0.653828	0.550517	-2.105680	99
Es	-0.257506	0.161204	-0.550851	99
Es	0.606801	0.541248	-2.701963	99
Es	-0.609381	0.147681	-0.671463	99
Es	-0.681525	0.946440	-3.073938	99
Es	0.873807	-1.779323	0.714144	99
Es	-0.963399	0.749545	-2.697304	99
Es	0.313759	-1.506021	1.134680	99
Es	0.170835	-0.037316	-0.904011	99
Es	0.768036	0.352172	1.017028	99
Es	-0.676331	1.242099	-3.032874	99
Es	1.043093	0.856891	-2.975733	99
Es	0.484605	-1.615923	1.856396	99
Es	0.669663	0.229784	-2.679140	99
Es	-0.844427	0.464329	2.447578	99
Es	0.734340	0.357280	-1.349446	99
Es	-1.646972	0.207717	1.573485	99
Es	0.120792	0.526916	-0.815686	99
Es	-1.089053	1.276105	1.583244	99
45
Properties=species:S:1:pos:R:3:Z:I:1 energy=-341.10004918939035 field_type=dipole dipole="0.000000 0.000000 0.000000" charge=0
C	-1.002392	0.550296	1.717254	6
C	0.121648	-0.018444	0.856904	6
C	0.313748	-1.506034	1.134674	6
N	-0.258022	0.161186	-0.550907	7
C	0.734298	0.357276	-1.349256	6
N	0.606918	0.540666	-2.702306	7
O	-0.681602	0.946646	-3.074206	8
H	-1.136522	1.619116	1.518504	1
H	-0.780592	0.427856	2.782363	1
H	-1.956362	0.054116	1.506693	1
H	1.045958	0.521616	1.099983	1
H	-0.592762	-2.075054	0.900504	1
H	0.563618	-1.677744	2.186674	1
H	1.125608	-1.914394	0.523353	1
H	1.789098	0.380436	-1.022946	1
H	1.348838	1.051006	-3.175797	1
H	-1.241482	0.581456	-2.351487	1
Es	-0.681504	0.946355	-3.073926	99
Es	-0.443059	0.264565	1.291945	99
Es	0.734341	0.357281	-1.349448	99
Es	-1.089269	1.274753	1.583910	99
Es	0.170054	-0.037326	-0.902937	99
Es	-0.966513	0.750459	-2.695214	99
Es	-1.002371	0.550290	1.717260	99
Es	0.653984	0.536688	-2.101876	99
Es	0.606806	0.541280	-2.701919	99
Es	-0.674032	1.230194	-3.027854	99
Es	-0.744798	0.822449	-3.356618	99
Es	1.046117	0.850289	-2.981959	99
Es	-0.607142	0.147202	-0.672886	99
Es	0.219243	-0.768924	0.993157	99
Es	0.121373	0.527959	-0.816354	99
Es	0.667001	0.250844	-2.676976	99
Es	-0.091173	0.760747	-2.895562	99
Es	-0.257533	0.161224	-0.550905	99
Es	-0.072030	0.084784	0.043405	99
Es	1.453291	0.372726	-1.133949	99
Es	0.484010	-1.615504	1.856845	99
Es	0.121584	-0.018453	0.856771	99
Es	0.874606	-1.779179	0.713202	99
Es	-1.647172	0.208341	1.573454	99
Es	-0.304367	-1.884082	0.977012	99
Es	0.313759	-1.506020	1.134679	99
Es	-0.844696	0.464611	2.447885	99
Es	0.768258	0.351506	1.017036	99
45
Properties=species:S:1:pos:R:3:Z:I:1 energy=-341.10004918939035 field_type=dipole dipole="0.000000 0.000000 0.000000" charge=0
C	-1.002392	0.550296	1.717254	6
C	0.121648	-0.018444	0.856904	6
C	0.313748	-1.506034	1.134674	6
N	-0.258022	0.161186	-0.550907	7
C	0.734298	0.357276	-1.349256	6
N	0.606918	0.540666	-2.702306	7
O	-0.681602	0.946646	-3.074206	8
H	-1.136522	1.619116	1.518504	1
H	-0.780592	0.427856	2.782363	1
H	-1.956362	0.054116	1.506693	1
H	1.045958	0.521616	1.099983	1
H	-0.592762	-2.075054	0.900504	1
H	0.563618	-1.677744	2.186674	1
H	1.125608	-1.914394	0.523353	1
H	1.789098	0.380436	-1.022946	1
H	1.348838	1.051006	-3.175797	1
H	-1.241482	0.581456	-2.351487	1
Es	0.768432	0.351134	1.017035	99
Es	-0.744206	0.826348	-3.356909	99
Es	-0.442887	0.264569	1.291897	99
Es	0.219050	-0.768895	0.993195	99
Es	0.121584	-0.018453	0.856773	99
Es	-1.647242	0.208717	1.573366	99
Es	-0.968222	0.750889	-2.694324	99
Es	0.483655	-1.615295	1.856920	99
Es	0.122385	0.528994	-0.817569	99
Es	-0.673114	1.225297	-3.026964	99
Es	-0.074557	0.083629	0.044327	99
Es	0.875281	-1.778723	0.712499	99
Es	-0.681520	0.946531	-3.073986	99
Es	-0.604872	0.146189	-0.674824	99
Es	0.313759	-1.506022	1.134679	99
Es	0.606746	0.541043	-2.702160	99
Es	-0.304393	-1.883670	0.977050	99
Es	1.453030	0.372908	-1.133928	99
Es	0.665920	0.264234	-2.674862	99
Es	-0.090572	0.760740	-2.896757	99
Es	-1.089560	1.273444	1.584418	99
Es	1.047514	0.846233	-2.985467	99
Es	0.734340	0.357283	-1.349447	99
Es	0.654055	0.528278	-2.100381	99
Es	-0.845066	0.464994	2.448142	99
Es	-1.002372	0.550291	1.717261	99
Es	-0.257518	0.161215	-0.550833	99
Es	0.169115	-0.036842	-0.900969	99
45
Properties=species:S:1:pos:R:3:Z:I:1 energy=-341.10004918939035 field_type=dipole dipole="0.000000 0.000000 0.000000" charge=0
C	-1.002392	0.550296	1.717254	6
C	0.121648	-0.018444	0.856904	6
C	0.313748	-1.506034	1.134674	6
N	-0.258022	0.161186	-0.550907	7
C	0.734298	0.357276	-1.349256	6
N	0.606918	0.540666	-2.702306	7
O	-0.681602	0.946646	-3.074206	8
H	-1.136522	1.619116	1.518504	1
H	-0.780592	0.427856	2.782363	1
H	-1.956362	0.054116	1.506693	1
H	1.045958	0.521616	1.099983	1
H	-0.592762	-2.075054	0.900504	1
H	0.563618	-1.677744	2.186674	1
H	1.125608	-1.914394	0.523353	1
H	1.789098	0.380436	-1.022946	1
H	1.348838	1.051006	-3.175797	1
H	-1.241482	0.581456	-2.351487	1
Es	0.483413	-1.615053	1.856655	99
Es	0.606871	0.541402	-2.701710	99
Es	0.768609	0.350883	1.017002	99
Es	0.875812	-1.778590	0.712051	99
Es	0.734341	0.357284	-1.349448	99
Es	0.665354	0.274244	-2.674364	99
Es	0.121585	-0.018452	0.856774	99
Es	1.048284	0.844067	-2.987223	99
Es	-0.304563	-1.883429	0.977309	99
Es	-0.845223	0.465121	2.447916	99
Es	-0.743488	0.837956	-3.362822	99
Es	0.313758	-1.506021	1.134679	99
Es	-1.089748	1.272805	1.584971	99
Es	-0.602145	0.146748	-0.674928	99
Es	-0.076718	0.082463	0.044995	99
Es	0.218908	-0.768828	0.993236	99
Es	0.653961	0.520655	-2.099506	99
Es	-0.257482	0.161232	-0.550835	99
Es	-0.672349	1.215012	-3.019381	99
Es	-0.442768	0.264651	1.291795	99
Es	-0.969887	0.748697	-2.695283	99
Es	1.452861	0.373149	-1.133964	99
Es	-1.647421	0.208840	1.573495	99
Es	0.167366	-0.037964	-0.900327	99
Es	-0.090082	0.761379	-2.897431	99
Es	-1.002371	0.550289	1.717261	99
Es	0.123396	0.530152	-0.818814	99
Es	-0.681509	0.946368	-3.073925	99
45
Properties=species:S:1:pos:R:3:Z:I:1 energy=-341.10004918939035 field_type=dipole dipole="0.000000 0.000000 0.000000" charge=0
C	-1.002392	0.550296	1.717254	6
C	0.121648	-0.018444	0.856904	6
C	0.313748	-1.506034	1.134674	6
N	-0.258022	0.161186	-0.550907	7
C	0.734298	0.357276	-1.349256	6
N	0.606918	0.540666	-2.702306	7
O	-0.681602	0.946646	-3.074206	8
H	-1.136522	1.619116	1.518504	1
H	-0.780592	0.427856	2.782363	1
H	-1.956362	0.054116	1.506693	1
H	1.045958	0.521616	1.099983	1
H	-0.592762	-2.075054	0.900504	1
H	0.563618	-1.677744	2.186674	1
H	1.125608	-1.914394	0.523353	1
H	1.789098	0.380436	-1.022946	1
H	1.348838	1.051006	-3.175797	1
H	-1.241482	0.581456	-2.351487	1
Es	-0.845384	0.465285	2.447737	99
Es	-0.599750	0.144617	-0.676315	99
Es	0.606799	0.541312	-2.701920	99
Es	-0.089827	0.761202	-2.898361	99
Es	-0.442648	0.264552	1.291825	99
Es	-1.647506	0.208893	1.573630	99
Es	0.734340	0.357282	-1.349448	99
Es	0.121549	0.531811	-0.817978	99
Es	0.654232	0.515742	-2.099437	99
Es	0.121587	-0.018451	0.856779	99
Es	0.169073	-0.037113	-0.900412	99
Es	-0.743761	0.845066	-3.365415	99
Es	-0.671679	1.209008	-3.015202	99
Es	1.452572	0.373309	-1.133940	99
Es	-1.002371	0.550289	1.717261	99
Es	1.048725	0.842548	-2.988555	99
Es	-0.304559	-1.883313	0.977297	99
Es	0.876375	-1.778189	0.711762	99
Es	-0.079091	0.081795	0.045607	99
Es	-0.681519	0.946463	-3.073904	99
Es	0.313759	-1.506022	1.134680	99
Es	-1.089946	1.272259	1.585353	99
Es	0.483073	-1.614856	1.856589	99
Es	0.768691	0.350699	1.016991	99
Es	-0.257492	0.161217	-0.550846	99
Es	0.218744	-0.768921	0.993183	99
Es	-0.970323	0.747687	-2.695410	99
Es	0.665104	0.280888	-2.673369	99
45
Properties=species:S:1:pos:R:3:Z:I:1 energy=-341.10004918939035 field_type=dipole dipole="0.000000 0.000000 0.000000" charge=0
C	-1.002392	0.550296	1.717254	6
C	0.121648	-0.018444	0.856904	6
C	0.313748	-1.506034	1.134674	6
N	-0.258022	0.161186	-0.550907	7
C	0.734298	0.357276	-1.349256	6
N	0.606918	0.540666	-2.702306	7
O	-0.681602	0.946646	-3.074206	8
H	-1.136522	1.619116	1.518504	1
H	-0.780592	0.427856	2.782363	1
H	-1.956362	0.054116	1.506693	1
H	1.045958	0.521616	1.099983	1
H	-0.592762	-2.075054	0.900504	1
H	0.563618	-1.677744	2.186674	1
H	1.125608	-1.914394	0.523353	1
H	1.789098	0.380436	-1.022946	1
H	1.348838	1.051006	-3.175797	1
H	-1.241482	0.581456	-2.351487	1
Es	-0.089056	0.762173	-2.898735	99
Es	-0.845552	0.465245	2.447757	99
Es	-0.742951	0.844509	-3.363649	99
Es	0.734341	0.357283	-1.349448	99
Es	-1.647590	0.209092	1.573515	99
Es	-0.081775	0.080660	0.046332	99
Es	0.121184	0.532460	-0.817476	99
Es	0.169498	-0.036702	-0.900392	99
Es	-1.090016	1.271620	1.585805	99
Es	0.482859	-1.614785	1.856570	99
Es	-0.257497	0.161216	-0.550847	99
Es	-0.671891	1.208132	-3.016806	99
Es	0.313758	-1.506021	1.134679	99
Es	-1.002372	0.550289	1.717263	99
Es	-0.681514	0.946397	-3.073919	99
Es	0.606822	0.541363	-2.701845	99
Es	0.876668	-1.777985	0.711484	99
Es	1.049148	0.841329	-2.989452	99
Es	-0.304619	-1.883054	0.977297	99
Es	1.452460	0.373299	-1.133977	99
Es	0.653902	0.510803	-2.099208	99
Es	0.218853	-0.768772	0.993128	99
Es	-0.597308	0.144429	-0.677531	99
Es	0.768819	0.350674	1.016915	99
Es	-0.971227	0.747989	-2.695186	99
Es	-0.442637	0.264527	1.291811	99
Es	0.121585	-0.018452	0.856775	99
Es	0.664875	0.287342	-2.672681	99
45
Properties=species:S:1:pos:R:3:Z:I:1 energy=-341.10004918939035 field_type=dipole dipole="0.000000 0.000000 0.000000" charge=0
C	-1.002392	0.550296	1.717254	6
C	0.121648	-0.018444	0.856904	6
C	0.313748	-1.506034	1.134674	6
N	-0.258022	0.161186	-0.550907	7
C	0.734298	0.357276	-1.349256	6
N	0.606918	0.540666	-2.702306	7
O	-0.681602	0.946646	-3.074206	8
H	-1.136522	1.619116	1.518504	1
H	-0.780592	0.427856	2.782363	1
H	-1.956362	0.054116	1.506693	1
H	1.045958	0.521616	1.099983	1
H	-0.592762	-2.075054	0.900504	1
H	0.563618	-1.677744	2.186674	1
H	1.125608	-1.914394	0.523353	1
H	1.789098	0.380436	-1.022946	1
H	1.348838	1.051006	-3.175797	1
H	-1.241482	0.581456	-2.351487	1
Es	-0.742714	0.845952	-3.363472	99
Es	-1.002370	0.550289	1.717260	99
Es	-0.671851	1.205264	-3.017073	99
Es	0.664587	0.292851	-2.672457	99
Es	0.734341	0.357285	-1.349448	99
Es	-0.595566	0.144264	-0.677698	99
Es	0.876964	-1.777681	0.711133	99
Es	0.482775	-1.614708	1.856397	99
Es	0.122281	0.532984	-0.819153	99
Es	1.049395	0.840422	-2.990093	99
Es	-0.681570	0.946289	-3.073933	99
Es	-0.304680	-1.882953	0.977457	99
Es	-0.083177	0.080624	0.046731	99
Es	0.313759	-1.506020	1.134679	99
Es	0.168031	-0.037210	-0.899010	99
Es	-0.971560	0.748372	-2.694666	99
Es	0.121584	-0.018452	0.856774	99
Es	0.768840	0.350477	1.016913	99
Es	-0.088628	0.763486	-2.898853	99
Es	-0.442601	0.264543	1.291821	99
Es	0.653991	0.506045	-2.099205	99
Es	0.606883	0.541432	-2.701669	99
Es	0.218733	-0.768750	0.993176	99
Es	-1.647669	0.208956	1.573788	99
Es	1.452258	0.373401	-1.133940	99
Es	-0.845519	0.465421	2.447489	99
Es	-1.090259	1.271262	1.586076	99
Es	-0.257491	0.161217	-0.550843	99
45
Properties=species:S:1:pos:R:3:Z:I:1 energy=-341.10004918939035 field_type=dipole dipole="0.000000 0.000000 0.000000" charge=0
C	-1.002392	0.550296	1.717254	6
C	0.121648	-0.018444	0.856904	6
C	0.313748	-1.506034	1.134674	6
N	-0.258022	0.161186	-0.550907	7
C	0.734298	0.357276	-1.349256	6
N	0.606918	0.540666	-2.702306	7
O	-0.681602	0.946646	-3.074206	8
H	-1.136522	1.619116	1.518504	1
H	-0.780592	0.427856	2.782363	1
H	-1.956362	0.054116	1.506693	1
H	1.045958	0.521616	1.099983	1
H	-0.592762	-2.075054	0.900504	1
H	0.563618	-1.677744	2.186674	1
H	1.125608	-1.914394	0.523353	1
H	1.789098	0.380436	-1.022946	1
H	1.348838	1.051006	-3.175797	1
H	-1.241482	0.581456	-2.351487	1
Es	-0.442424	0.264570	1.291806	99
Es	0.769017	0.350521	1.016806	99
Es	1.049480	0.840397	-2.990240	99
Es	0.654022	0.504610	-2.099289	99
Es	-0.085370	0.079991	0.047223	99
Es	0.664400	0.293771	-2.672700	99
Es	0.122811	0.533419	-0.819654	99
Es	-0.681525	0.946127	-3.074018	99
Es	-0.845504	0.465611	2.447030	99
Es	0.606852	0.541426	-2.701740	99
Es	0.167403	-0.037633	-0.898513	99
Es	0.877168	-1.777692	0.711108	99
Es	-1.090298	1.270996	1.586397	99
Es	-0.670860	1.195192	-3.008737	99
Es	-1.002370	0.550289	1.717262	99
Es	-0.257489	0.161218	-0.550854	99
Es	0.218737	-0.768617	0.993141	99
Es	1.452032	0.373574	-1.133908	99
Es	-0.972151	0.746086	-2.696006	99
Es	-0.088135	0.763014	-2.899741	99
Es	0.734340	0.357288	-1.349448	99
Es	-0.743093	0.859511	-3.368866	99
Es	-0.593512	0.144549	-0.678116	99
Es	0.121585	-0.018452	0.856775	99
Es	0.313759	-1.506020	1.134679	99
Es	-0.305029	-1.883125	0.977794	99
Es	-1.647970	0.208821	1.574034	99
Es	0.482891	-1.614382	1.855958	99
45
Properties=species:S:1:pos:R:3:Z:I:1 energy=-341.10004918939035 field_type=dipole dipole="0.000000 0.000000 0.000000" charge=0
C	-1.002392	0.550296	1.717254	6
C	0.121648	-0.018444	0.856904	6
C	0.313748	-1.506034	1.134674	6
N	-0.258022	0.161186	-0.550907	7
C	0.734298	0.357276	-1.349256	6
N	0.606918	0.540666	-2.702306	7
O	-0.681602	0.946646	-3.074206	8
H	-1.136522	1.619116	1.518504	1
H	-0.780592	0.427856	2.782363	1
H	-1.956362	0.054116	1.506693	1
H	1.045958	0.521616	1.099983	1
H	-0.592762	-2.075054	0.900504	1
H	0.563618	-1.677744	2.186674	1
H	1.125608	-1.914394	0.523353	1
H	1.789098	0.380436	-1.022946	1
H	1.348838	1.051006	-3.175797	1
H	-1.241482	0.581456	-2.351487	1
Es	0.734340	0.357283	-1.349446	99
Es	0.166480	-0.037718	-0.897508	99
Es	0.664485	0.296505	-2.671832	99
Es	0.218811	-0.768666	0.993240	99
Es	0.769019	0.350548	1.016741	99
Es	-0.845479	0.465726	2.446911	99
Es	-1.647973	0.208740	1.574204	99
Es	-0.670561	1.192412	-3.007103	99
Es	-0.305211	-1.883104	0.977933	99
Es	-1.090427	1.270870	1.586454	99
Es	-1.002371	0.550289	1.717261	99
Es	-0.743080	0.862784	-3.369525	99
Es	-0.442546	0.264361	1.291872	99
Es	-0.972481	0.745668	-2.696301	99
Es	0.877448	-1.777412	0.710902	99
Es	1.049624	0.839647	-2.990850	99
Es	-0.257464	0.161235	-0.550836	99
Es	0.482841	-1.614265	1.855703	99
Es	-0.591373	0.144688	-0.678626	99
Es	0.606867	0.541429	-2.701717	99
Es	0.123743	0.533658	-0.820543	99
Es	1.451974	0.373747	-1.133922	99
Es	0.653819	0.503176	-2.099344	99
Es	-0.087563	0.079425	0.047649	99
Es	0.313760	-1.506024	1.134678	99
Es	-0.681533	0.946344	-3.073960	99
Es	0.121586	-0.018450	0.856779	99
Es	-0.087966	0.762165	-2.900635	99
45
Properties=species:S:1:pos:R:3:Z:I:1 energy=-341.10004918939035 field_type=dipole dipole="0.000000 0.000000 0.000000" charge=0
C	-1.002392	0.550296	1.717254	6
C	0.121648	-0.018444	0.856904	6
C	0.313748	-1.506034	1.134674	6
N	-0.258022	0.161186	-0.550907	7
C	0.734298	0.357276	-1.349256	6
N	0.606918	0.540666	-2.702306	7
O	-0.681602	0.946646	-3.074206	8
H	-1.136522	1.619116	1.518504	1
H	-0.780592	0.427856	2.782363	1
H	-1.956362	0.054116	1.506693	1
H	1.045958	0.521616	1.099983	1
H	-0.592762	-2.075054	0.900504	1
H	0.563618	-1.677744	2.186674	1
H	1.125608	-1.914394	0.523353	1
H	1.789098	0.380436	-1.022946	1
H	1.348838	1.051006	-3.175797	1
H	-1.241482	0.581456	-2.351487	1
Es	0.123823	0.534137	-0.820957	99
Es	-0.305320	-1.883245	0.978151	99
Es	-0.670200	1.183558	-3.002535	99
Es	-0.742998	0.872847	-3.372508	99
Es	-0.089487	0.079288	0.048076	99
Es	0.734341	0.357286	-1.349447	99
Es	-0.442405	0.264421	1.291903	99
Es	0.313758	-1.506020	1.134680	99
Es	0.218675	-0.768807	0.993276	99
Es	-0.589531	0.144332	-0.679048	99
Es	-0.845438	0.465834	2.446478	99
Es	-0.257483	0.161219	-0.550847	99
Es	1.049598	0.839745	-2.990893	99
Es	-0.087636	0.762620	-2.901088	99
Es	0.653942	0.503861	-2.099381	99
Es	-0.972964	0.744363	-2.697059	99
Es	0.664468	0.295568	-2.671937	99
Es	0.121585	-0.018452	0.856774	99
Es	-1.002372	0.550290	1.717261	99
Es	-0.681532	0.946256	-3.073980	99
Es	0.606829	0.541369	-2.701827	99
Es	-1.648255	0.208611	1.574421	99
Es	-1.090399	1.270784	1.586699	99
Es	1.451787	0.373797	-1.133917	99
Es	0.482868	-1.614109	1.855406	99
Es	0.877647	-1.777260	0.710811	99
Es	0.166361	-0.037811	-0.896955	99
Es	0.769104	0.350579	1.016625	99
45
Properties=species:S:1:pos:R:3:Z:I:1 energy=-341.10004918939035 field_type=dipole dipole="0.000000 0.000000 0.000000" charge=0
C	-1.002392	0.550296	1.717254	6
C	0.121648	-0.018444	0.856904	6
C	0.313748	-1.506034	1.134674	6
N	-0.258022	0.161186	-0.550907	7
C	0.734298	0.357276	-1.349256	6
N	0.606918	0.540666	-2.702306	7
O	-0.681602	0.946646	-3.074206	8
H	-1.136522	1.619116	1.518504	1
H	-0.780592	0.427856	2.782363	1
H	-1.956362	0.054116	1.506693	1
H	1.045958	0.521616	1.099983	1
H	-0.592762	-2.075054	0.900504	1
H	0.563618	-1.677744	2.186674	1
H	1.125608	-1.914394	0.523353	1
H	1.789098	0.380436	-1.022946	1
H	1.348838	1.051006	-3.175797	1
H	-1.241482	0.581456	-2.351487	1
Es	-0.442405	0.264617	1.291742	99
Es	-0.257479	0.161221	-0.550865	99
Es	0.482816	-1.614014	1.855492	99
Es	-0.671029	1.191245	-3.007404	99
Es	-0.087096	0.763526	-2.901279	99
Es	-1.090540	1.270036	1.586898	99
Es	-0.587607	0.144368	-0.679657	99
Es	0.167282	-0.037467	-0.897754	99
Es	0.313758	-1.506021	1.134679	99
Es	0.877830	-1.776797	0.710636	99
Es	0.121584	-0.018452	0.856774	99
Es	-0.091414	0.078489	0.048303	99
Es	-0.742915	0.863338	-3.368227	99
Es	-0.681519	0.946235	-3.073972	99
Es	-0.972621	0.745067	-2.696324	99
Es	0.218579	-0.768828	0.993289	99
Es	0.734341	0.357283	-1.349449	99
Es	-1.002371	0.550289	1.717261	99
Es	1.451681	0.373728	-1.133859	99
Es	0.122848	0.534477	-0.819926	99
Es	-1.648306	0.208643	1.574416	99
Es	0.653964	0.498168	-2.099578	99
Es	-0.305333	-1.883254	0.978079	99
Es	0.664314	0.302717	-2.670977	99
Es	0.769141	0.350463	1.016690	99
Es	-0.845376	0.466001	2.446628	99
Es	1.049789	0.838565	-2.991682	99
Es	0.606851	0.541415	-2.701755	99
45
Properties=species:S:1:pos:R:3:Z:I:1 energy=-341.10004918939035 field_type=dipole dipole="0.000000 0.000000 0.000000" charge=0
C	-1.002392	0.550296	1.717254	6
C	0.121648	-0.018444	0.856904	6
C	0.313748	-1.506034	1.134674	6
N	-0.258022	0.161186	-0.550907	7
C	0.734298	0.357276	-1.349256	6
N	0.606918	0.540666	-2.702306	7
O	-0.681602	0.946646	-3.074206	8
H	-1.136522	1.619116	1.518504	1
H	-0.780592	0.427856	2.782363	1
H	-1.956362	0.054116	1.506693	1
H	1.045958	0.521616	1.099983	1
H	-0.592762	-2.075054	0.900504	1
H	0.563618	-1.677744	2.186674	1
H	1.125608	-1.914394	0.523353	1
H	1.789098	0.380436	-1.022946	1
H	1.348838	1.051006	-3.175797	1
H	-1.241482	0.581456	-2.351487	1
Es	-0.586136	0.144272	-0.679903	99
Es	-0.670571	1.186989	-3.006018	99
Es	0.123301	0.534726	-0.820483	99
Es	-0.742856	0.867273	-3.369214	99
Es	-0.442417	0.264514	1.291774	99
Es	0.653999	0.497554	-2.099680	99
Es	-0.092948	0.078228	0.048517	99
Es	0.218625	-0.768633	0.993253	99
Es	0.877939	-1.776748	0.710602	99
Es	-1.648340	0.208694	1.574477	99
Es	0.664343	0.303320	-2.670905	99
Es	0.734340	0.357286	-1.349449	99
Es	0.606835	0.541404	-2.701794	99
Es	1.049800	0.838611	-2.991706	99
Es	-0.257472	0.161217	-0.550858	99
Es	0.313758	-1.506022	1.134680	99
Es	0.121584	-0.018452	0.856773	99
Es	-0.305453	-1.883260	0.978161	99
Es	-1.002370	0.550292	1.717259	99
Es	-0.087058	0.763534	-2.901584	99
Es	-1.090568	1.269916	1.587075	99
Es	1.451632	0.373808	-1.133866	99
Es	-0.681582	0.946369	-3.073935	99
Es	-0.973021	0.745251	-2.696298	99
Es	0.482802	-1.614000	1.855282	99
Es	0.769212	0.350455	1.016616	99
Es	-0.845422	0.465963	2.446509	99
Es	0.166809	-0.037498	-0.897103	99
45
Properties=species:S:1:pos:R:3:Z:I:1 energy=-341.10004918939035 field_type=dipole dipole="0.000000 0.000000 0.000000" charge=0
C	-1.002392	0.550296	1.717254	6
C	0.121648	-0.018444	0.856904	6
C	0.313748	-1.506034	1.134674	6
N	-0.258022	0.161186	-0.550907	7
C	0.734298	0.357276	-1.349256	6
N	0.606918	0.540666	-2.702306	7
O	-0.681602	0.946646	-3.074206	8
H	-1.136522	1.619116	1.518504	1
H	-0.780592	0.427856	2.782363	1
H	-1.956362	0.054116	1.506693	1
H	1.045958	0.521616	1.099983	1
H	-0.592762	-2.075054	0.900504	1
H	0.563618	-1.677744	2.186674	1
H	1.125608	-1.914394	0.523353	1
H	1.789098	0.380436	-1.022946	1
H	1.348838	1.051006	-3.175797	1
H	-1.241482	0.581456	-2.351487	1
Es	-0.584835	0.144464	-0.679880	99
Es	-0.669998	1.173966	-2.999101	99
Es	-0.257485	0.161216	-0.550841	99
Es	-1.090640	1.270168	1.587188	99
Es	0.769262	0.350570	1.016511	99
Es	0.166116	-0.038111	-0.896497	99
Es	0.123917	0.534902	-0.821266	99
Es	-0.086897	0.763179	-2.901652	99
Es	-1.648606	0.208275	1.574913	99
Es	0.606763	0.541180	-2.702063	99
Es	-0.305759	-1.883542	0.978616	99
Es	-0.742539	0.882538	-3.374469	99
Es	-1.002371	0.550289	1.717262	99
Es	-0.845241	0.466153	2.445840	99
Es	0.664473	0.299755	-2.671292	99
Es	-0.681509	0.946502	-3.073865	99
Es	1.049749	0.839276	-2.991360	99
Es	-0.094319	0.078305	0.048732	99
Es	-0.973696	0.743415	-2.697732	99
Es	0.218616	-0.768544	0.993272	99
Es	0.313757	-1.506020	1.134679	99
Es	0.121585	-0.018452	0.856774	99
Es	0.878098	-1.776915	0.710685	99
Es	1.451459	0.373982	-1.133849	99
Es	0.482945	-1.613689	1.854706	99
Es	-0.442322	0.264531	1.291835	99
Es	0.653902	0.500382	-2.099517	99
Es	0.734341	0.357285	-1.349449	99
45
Properties=species:S:1:pos:R:3:Z:I:1 energy=-341.10004918939035 field_type=dipole dipole="0.000000 0.000000 0.000000" charge=0
C	-1.002392	0.550296	1.717254	6
C	0.121648	-0.018444	0.856904	6
C	0.313748	-1.506034	1.134674	6
N	-0.258022	0.161186	-0.550907	7
C	0.734298	0.357276	-1.349256	6
N	0.606918	0.540666	-2.702306	7
O	-0.681602	0.946646	-3.074206	8
H	-1.136522	1.619116	1.518504	1
H	-0.780592	0.427856	2.782363	1
H	-1.956362	0.054116	1.506693	1
H	1.045958	0.521616	1.099983	1
H	-0.592762	-2.075054	0.900504	1
H	0.563618	-1.677744	2.186674	1
H	1.125608	-1.914394	0.523353	1
H	1.789098	0.380436	-1.022946	1
H	1.348838	1.051006	-3.175797	1
H	-1.241482	0.581456	-2.351487	1
Es	0.165089	-0.038115	-0.895821	99
Es	-0.442348	0.264497	1.291804	99
Es	-1.090663	1.270119	1.587269	99
Es	-0.973803	0.743334	-2.697702	99
Es	-1.648749	0.208178	1.575161	99
Es	-1.002371	0.550289	1.717261	99
Es	1.451394	0.374018	-1.133837	99
Es	-0.583409	0.144925	-0.679906	99
Es	0.313758	-1.506022	1.134680	99
Es	-0.305837	-1.883438	0.978757	99
Es	0.606833	0.541370	-2.701820	99
Es	-0.681558	0.946409	-3.073984	99
Es	0.482974	-1.613605	1.854628	99
Es	-0.845109	0.466264	2.445596	99
Es	-0.095647	0.077892	0.048876	99
Es	0.218610	-0.768633	0.993326	99
Es	-0.742763	0.884959	-3.374217	99
Es	0.769313	0.350526	1.016492	99
Es	0.878136	-1.776862	0.710508	99
Es	-0.669952	1.171357	-2.998378	99
Es	0.653858	0.500339	-2.099543	99
Es	-0.257492	0.161212	-0.550827	99
Es	0.664384	0.299861	-2.671398	99
Es	0.121584	-0.018452	0.856774	99
Es	1.049778	0.839110	-2.991483	99
Es	-0.086439	0.763492	-2.902523	99
Es	0.734341	0.357282	-1.349449	99
Es	0.124856	0.534754	-0.822064	99
45
Properties=species:S:1:pos:R:3:Z:I:1 energy=-341.10004918939035 field_type=dipole dipole="0.000000 0.000000 0.000000" charge=0
C	-1.002392	0.550296	1.717254	6
C	0.121648	-0.018444	0.856904	6
C	0.313748	-1.506034	1.134674	6
N	-0.258022	0.161186	-0.550907	7
C	0.734298	0.357276	-1.349256	6
N	0.606918	0.540666	-2.702306	7
O	-0.681602	0.946646	-3.074206	8
H	-1.136522	1.619116	1.518504	1
H	-0.780592	0.427856	2.782363	1
H	-1.956362	0.054116	1.506693	1
H	1.045958	0.521616	1.099983	1
H	-0.592762	-2.075054	0.900504	1
H	0.563618	-1.677744	2.186674	1
H	1.125608	-1.914394	0.523353	1
H	1.789098	0.380436	-1.022946	1
H	1.348838	1.051006	-3.175797	1
H	-1.241482	0.581456	-2.351487	1
Es	-0.742633	0.877569	-3.371945	99
Es	1.049916	0.838504	-2.991856	99
Es	-0.086336	0.764509	-2.901929	99
Es	0.653963	0.495446	-2.099914	99
Es	-0.442273	0.264630	1.291777	99
Es	-0.973566	0.743699	-2.697298	99
Es	-0.670458	1.177637	-3.001379	99
Es	-0.305747	-1.883351	0.978515	99
Es	-0.582038	0.144312	-0.680353	99
Es	1.451391	0.374003	-1.133843	99
Es	0.606785	0.541291	-2.701961	99
Es	0.482769	-1.613671	1.854783	99
Es	-1.090664	1.269482	1.587446	99
Es	0.734340	0.357285	-1.349448	99
Es	-1.002371	0.550288	1.717261	99
Es	-0.681536	0.946290	-3.073978	99
Es	-0.257472	0.161220	-0.550874	99
Es	0.664262	0.305329	-2.670753	99
Es	0.313758	-1.506021	1.134679	99
Es	-1.648678	0.208450	1.574829	99
Es	0.166253	-0.037816	-0.896292	99
Es	0.121583	-0.018451	0.856775	99
Es	-0.845345	0.466225	2.445938	99
Es	0.769402	0.350514	1.016427	99
Es	-0.097127	0.077651	0.049117	99
Es	0.218581	-0.768604	0.993283	99
Es	0.123709	0.535203	-0.821300	99
Es	0.878298	-1.776562	0.710476	99
45
Properties=species:S:1:pos:R:3:Z:I:1 energy=-341.10004918939035 field_type=dipole dipole="0.000000 0.000000 0.000000" charge=0
C	-1.002392	0.550296	1.717254	6
C	0.121648	-0.018444	0.856904	6
C	0.313748	-1.506034	1.134674	6
N	-0.258022	0.161186	-0.550907	7
C	0.734298	0.357276	-1.349256	6
N	0.606918	0.540666	-2.702306	7
O	-0.681602	0.946646	-3.074206	8
H	-1.136522	1.619116	1.518504	1
H	-0.780592	0.427856	2.782363	1
H	-1.956362	0.054116	1.506693	1
H	1.045958	0.521616	1.099983	1
H	-0.592762	-2.075054	0.900504	1
H	0.563618	-1.677744	2.186674	1
H	1.125608	-1.914394	0.523353	1
H	1.789098	0.380436	-1.022946	1
H	1.348838	1.051006	-3.175797	1
H	-1.241482	0.581456	-2.351487	1
Es	0.124796	0.534707	-0.822249	99
Es	0.606764	0.541191	-2.702054	99
Es	0.482710	-1.613728	1.854924	99
Es	0.313759	-1.506020	1.134680	99
Es	-1.002371	0.550289	1.717260	99
Es	1.049980	0.837451	-2.992530	99
Es	0.734340	0.357286	-1.349449	99
Es	-0.973195	0.744637	-2.696428	99
Es	-0.681524	0.946402	-3.073925	99
Es	-0.845360	0.466207	2.446055	99
Es	-0.257468	0.161221	-0.550858	99
Es	-1.648635	0.208538	1.574794	99
Es	0.218538	-0.768505	0.993261	99
Es	0.121584	-0.018451	0.856774	99
Es	-0.085849	0.764844	-2.902904	99
Es	-0.742967	0.869982	-3.368354	99
Es	-1.090704	1.269223	1.587527	99
Es	-0.442327	0.264514	1.291837	99
Es	-0.670928	1.183674	-3.005072	99
Es	0.654033	0.492765	-2.100002	99
Es	-0.305669	-1.883243	0.978418	99
Es	-0.581163	0.144702	-0.680518	99
Es	1.451298	0.373919	-1.133826	99
Es	-0.097996	0.077331	0.049245	99
Es	0.878357	-1.776274	0.710291	99
Es	0.664200	0.309446	-2.669748	99
Es	0.769450	0.350383	1.016434	99
Es	0.165114	-0.037428	-0.895405	99
45
Properties=species:S:1:pos:R:3:Z:I:1 energy=-341.10004918939035 field_type=dipole dipole="0.000000 0.000000 0.000000" charge=0
C	-1.002392	0.550296	1.717254	6
C	0.121648	-0.018444	0.856904	6
C	0.313748	-1.506034	1.134674	6
N	-0.258022	0.161186	-0.550907	7
C	0.734298	0.357276	-1.349256	6
N	0.606918	0.540666	-2.702306	7
O	-0.681602	0.946646	-3.074206	8
H	-1.136522	1.619116	1.518504	1
H	-0.780592	0.427856	2.782363	1
H	-1.956362	0.054116	1.506693	1
H	1.045958	0.521616	1.099983	1
H	-0.592762	-2.075054	0.900504	1
H	0.563618	-1.677744	2.186674	1
H	1.125608	-1.914394	0.523353	1
H	1.789098	0.380436	-1.022946	1
H	1.348838	1.051006	-3.175797	1
H	-1.241482	0.581456	-2.351487	1
Es	-0.580159	0.144578	-0.680711	99
Es	1.049988	0.837565	-2.992480	99
Es	-1.002372	0.550292	1.717262	99
Es	0.606851	0.541434	-2.701743	99
Es	-0.086174	0.763564	-2.903033	99
Es	1.451327	0.374017	-1.133801	99
Es	0.653875	0.493110	-2.099942	99
Es	-0.305901	-1.883364	0.978664	99
Es	0.313758	-1.506021	1.134679	99
Es	0.769448	0.350475	1.016374	99
Es	-0.442294	0.264606	1.291860	99
Es	-1.648764	0.208421	1.574828	99
Es	0.482921	-1.613550	1.854701	99
Es	0.121583	-0.018452	0.856773	99
Es	-1.090730	1.268998	1.587604	99
Es	0.164982	-0.037389	-0.894995	99
Es	-0.973679	0.744460	-2.696812	99
Es	0.734341	0.357287	-1.349448	99
Es	-0.681500	0.946320	-3.073922	99
Es	0.664139	0.308739	-2.670123	99
Es	0.878376	-1.776109	0.710158	99
Es	0.218594	-0.768697	0.993265	99
Es	-0.099196	0.077215	0.049303	99
Es	-0.670171	1.180280	-3.002947	99
Es	-0.845313	0.466335	2.445952	99
Es	-0.257471	0.161222	-0.550866	99
Es	0.125051	0.534829	-0.822462	99
Es	-0.742741	0.874894	-3.369956	99
45
Properties=species:S:1:pos:R:3:Z:I:1 energy=-341.10004918939035 field_type=dipole dipole="0.000000 0.000000 0.000000" charge=0
C	-1.002392	0.550296	1.717254	6
C	0.121648	-0.018444	0.856904	6
C	0.313748	-1.506034	1.134674	6
N	-0.258022	0.161186	-0.550907	7
C	0.734298	0.357276	-1.349256	6
N	0.606918	0.540666	-2.702306	7
O	-0.681602	0.946646	-3.074206	8
H	-1.136522	1.619116	1.518504	1
H	-0.780592	0.427856	2.782363	1
H	-1.956362	0.054116	1.506693	1
H	1.045958	0.521616	1.099983	1
H	-0.592762	-2.075054	0.900504	1
H	0.563618	-1.677744	2.186674	1
H	1.125608	-1.914394	0.523353	1
H	1.789098	0.380436	-1.022946	1
H	1.348838	1.051006	-3.175797	1
H	-1.241482	0.581456	-2.351487	1
Es	-0.442260	0.264684	1.291793	99
Es	-0.681542	0.946278	-3.073984	99
Es	0.606796	0.541320	-2.701926	99
Es	0.165661	-0.037907	-0.895623	99
Es	-1.649087	0.208235	1.575131	99
Es	0.653756	0.493988	-2.099977	99
Es	0.734340	0.357285	-1.349449	99
Es	-0.578661	0.144560	-0.680625	99
Es	-1.090641	1.269096	1.587700	99
Es	0.769513	0.350534	1.016347	99
Es	-0.306056	-1.883563	0.978725	99
Es	0.124262	0.535496	-0.821867	99
Es	-0.670093	1.171823	-2.999553	99
Es	-1.002371	0.550288	1.717260	99
Es	0.121583	-0.018451	0.856771	99
Es	1.050009	0.838266	-2.992010	99
Es	-0.743191	0.883324	-3.372340	99
Es	0.482889	-1.613469	1.854392	99
Es	-0.845102	0.466473	2.445518	99
Es	-0.973619	0.743880	-2.697011	99
Es	-0.257465	0.161213	-0.550849	99
Es	0.218557	-0.768608	0.993368	99
Es	0.313758	-1.506021	1.134679	99
Es	1.451208	0.374111	-1.133797	99
Es	-0.085581	0.764411	-2.903574	99
Es	0.878526	-1.776170	0.710378	99
Es	0.664185	0.307015	-2.670597	99
Es	-0.100607	0.076971	0.049300	99
