41
Properties=species:S:1:pos:R:3:Z:I:1 energy=-359.8517470916432 field_type=dipole dipole="0.000000 0.000000 0.000000" charge=0
C	-1.489197	0.507099	-0.078549	6
C	-0.018497	0.296469	0.093491	6
C	0.630143	-0.878851	0.058181	6
N	0.126603	-2.132041	-0.184539	7
C	0.756773	1.529909	0.368781	6
O	1.851234	1.648649	-0.412109	8
O	0.404384	2.379298	1.168151	8
H	-1.677607	1.259399	-0.852059	1
H	-1.938627	0.854899	0.857491	1
H	-2.012167	-0.404721	-0.380259	1
H	1.704503	-0.919251	0.244741	1
H	-0.879956	-2.221591	-0.062859	1
H	0.633173	-2.882111	0.284261	1
H	1.909233	0.962849	-1.104719	1
Es	1.358402	-0.904008	0.179506	99
Es	0.244067	-0.245923	0.395736	99
Es	-0.018518	0.296556	0.093514	99
Es	0.668301	1.975023	1.068699	99
Es	-1.605392	1.010282	-0.601270	99
Es	0.404561	2.379072	1.167874	99
Es	0.388895	2.204413	0.714754	99
Es	0.126569	-2.131783	-0.183972	99
Es	1.850952	1.648359	-0.412155	99
Es	0.314336	-1.592746	-0.010534	99
Es	1.423671	1.581296	-0.146152	99
Es	-0.743430	0.390780	0.007859	99
Es	0.757002	1.529894	0.368614	99
Es	0.588248	2.622787	1.181352	99
Es	-0.469090	-2.179246	-0.093126	99
Es	0.148569	2.279083	1.304980	99
Es	0.343876	-0.202262	-0.259792	99
Es	-1.489128	0.507060	-0.078558	99
Es	2.026938	1.582488	-0.205269	99
Es	-1.833336	-0.125777	-0.283101	99
Es	1.826653	1.912374	-0.524729	99
Es	0.210336	-2.094102	-0.475856	99
Es	-1.781785	0.732416	0.546778	99
Es	0.630155	-0.879070	0.058159	99
Es	0.377319	0.903942	0.219260	99
Es	0.424738	-2.563238	0.113941	99
Es	1.855628	1.276315	-0.766559	99
41
Properties=species:S:1:pos:R:3:Z:I:1 energy=-359.8517470916432 field_type=dipole dipole="0.000000 0.000000 0.000000" charge=0
C	-1.489197	0.507099	-0.078549	6
C	-0.018497	0.296469	0.093491	6
C	0.630143	-0.878851	0.058181	6
N	0.126603	-2.132041	-0.184539	7
C	0.756773	1.529909	0.368781	6
O	1.851234	1.648649	-0.412109	8
O	0.404384	2.379298	1.168151	8
H	-1.677607	1.259399	-0.852059	1
H	-1.938627	0.854899	0.857491	1
H	-2.012167	-0.404721	-0.380259	1
H	1.704503	-0.919251	0.244741	1
H	-0.879956	-2.221591	-0.062859	1
H	0.633173	-2.882111	0.284261	1
H	1.909233	0.962849	-1.104719	1
Es	-1.603822	1.008099	-0.600367	99
Es	0.576502	2.637543	1.183786	99
Es	0.378122	0.902990	0.223193	99
Es	0.126577	-2.131720	-0.183939	99
Es	0.343558	-0.205695	-0.262399	99
Es	0.630155	-0.879066	0.058155	99
Es	1.357005	-0.903615	0.176161	99
Es	0.199161	-2.083765	-0.468982	99
Es	-1.832805	-0.126300	-0.284520	99
Es	1.869351	1.264811	-0.762973	99
Es	0.243603	-0.242309	0.397418	99
Es	0.675118	1.970340	1.069820	99
Es	-0.463642	-2.178639	-0.087198	99
Es	1.863520	1.923072	-0.516816	99
Es	0.153221	2.272276	1.290242	99
Es	-0.018521	0.296559	0.093498	99
Es	0.757005	1.529892	0.368616	99
Es	1.982081	1.571359	-0.207693	99
Es	1.850943	1.648370	-0.412158	99
Es	-0.743586	0.391379	0.009036	99
Es	0.388354	2.202811	0.724499	99
Es	0.404473	2.379097	1.167989	99
Es	0.315570	-1.592297	-0.007064	99
Es	1.417302	1.592470	-0.154900	99
Es	-1.782671	0.734585	0.548583	99
Es	-1.489129	0.507061	-0.078557	99
Es	0.431087	-2.575326	0.096525	99
41
Properties=species:S:1:pos:R:3:Z:I:1 energy=-359.8517470916432 field_type=dipole dipole="0.000000 0.000000 0.000000" charge=0
C	-1.489197	0.507099	-0.078549	6
C	-0.018497	0.296469	0.093491	6
C	0.630143	-0.878851	0.058181	6
N	0.126603	-2.132041	-0.184539	7
C	0.756773	1.529909	0.368781	6
O	1.851234	1.648649	-0.412109	8
O	0.404384	2.379298	1.168151	8
H	-1.677607	1.259399	-0.852059	1
H	-1.938627	0.854899	0.857491	1
H	-2.012167	-0.404721	-0.380259	1
H	1.704503	-0.919251	0.244741	1
H	-0.879956	-2.221591	-0.062859	1
H	0.633173	-2.882111	0.284261	1
H	1.909233	0.962849	-1.104719	1
Es	0.683033	1.969988	1.069208	99
Es	1.966536	1.574519	-0.217316	99
Es	1.871228	1.922855	-0.514241	99
Es	-1.783793	0.736191	0.549598	99
Es	-1.602794	1.006154	-0.599874	99
Es	1.416355	1.595103	-0.152362	99
Es	1.356182	-0.903250	0.174576	99
Es	0.404519	2.379066	1.167900	99
Es	0.315451	-1.592636	-0.004590	99
Es	1.850839	1.648388	-0.412129	99
Es	0.174483	2.246107	1.251230	99
Es	-0.743788	0.391312	0.009864	99
Es	1.877867	1.258846	-0.758346	99
Es	0.539819	2.659421	1.217814	99
Es	0.378421	0.902251	0.225331	99
Es	0.395294	2.208178	0.729408	99
Es	0.343290	-0.207524	-0.263638	99
Es	-0.018522	0.296559	0.093504	99
Es	0.630156	-0.879066	0.058143	99
Es	0.126550	-2.131793	-0.183965	99
Es	0.243807	-0.240180	0.397586	99
Es	0.435014	-2.581670	0.084049	99
Es	0.757007	1.529889	0.368620	99
Es	-0.458535	-2.177802	-0.081930	99
Es	0.191480	-2.078035	-0.464653	99
Es	-1.489127	0.507061	-0.078558	99
Es	-1.832239	-0.125950	-0.285276	99
41
Properties=species:S:1:pos:R:3:Z:I:1 energy=-359.8517470916432 field_type=dipole dipole="0.000000 0.000000 0.000000" charge=0
C	-1.489197	0.507099	-0.078549	6
C	-0.018497	0.296469	0.093491	6
C	0.630143	-0.878851	0.058181	6
N	0.126603	-2.132041	-0.184539	7
C	0.756773	1.529909	0.368781	6
O	1.851234	1.648649	-0.412109	8
O	0.404384	2.379298	1.168151	8
H	-1.677607	1.259399	-0.852059	1
H	-1.938627	0.854899	0.857491	1
H	-2.012167	-0.404721	-0.380259	1
H	1.704503	-0.919251	0.244741	1
H	-0.879956	-2.221591	-0.062859	1
H	0.633173	-2.882111	0.284261	1
H	1.909233	0.962849	-1.104719	1
Es	-1.831728	-0.125762	-0.285420	99
Es	0.437280	-2.585351	0.074950	99
Es	0.690914	1.973015	1.066279	99
Es	-0.018522	0.296558	0.093506	99
Es	0.489744	2.669856	1.252374	99
Es	0.404535	2.379087	1.167904	99
Es	0.757009	1.529890	0.368621	99
Es	1.881033	1.922744	-0.511075	99
Es	0.342828	-0.208432	-0.264012	99
Es	1.414208	1.598146	-0.151336	99
Es	0.315870	-1.593433	-0.003333	99
Es	0.188591	-2.074101	-0.457742	99
Es	0.126529	-2.131762	-0.183994	99
Es	-0.743810	0.391366	0.010495	99
Es	0.630155	-0.879068	0.058148	99
Es	1.355745	-0.902814	0.173543	99
Es	1.884885	1.255588	-0.753814	99
Es	0.396376	2.210486	0.733329	99
Es	1.850947	1.648385	-0.412146	99
Es	0.215122	2.230572	1.215114	99
Es	-1.602470	1.004970	-0.599726	99
Es	-1.489130	0.507062	-0.078558	99
Es	0.244239	-0.239199	0.397817	99
Es	1.951687	1.574810	-0.226009	99
Es	0.378651	0.901853	0.226028	99
Es	-0.457649	-2.177531	-0.080962	99
Es	-1.784505	0.737048	0.549973	99
41
Properties=species:S:1:pos:R:3:Z:I:1 energy=-359.8517470916432 field_type=dipole dipole="0.000000 0.000000 0.000000" charge=0
C	-1.489197	0.507099	-0.078549	6
C	-0.018497	0.296469	0.093491	6
C	0.630143	-0.878851	0.058181	6
N	0.126603	-2.132041	-0.184539	7
C	0.756773	1.529909	0.368781	6
O	1.851234	1.648649	-0.412109	8
O	0.404384	2.379298	1.168151	8
H	-1.677607	1.259399	-0.852059	1
H	-1.938627	0.854899	0.857491	1
H	-2.012167	-0.404721	-0.380259	1
H	1.704503	-0.919251	0.244741	1
H	-0.879956	-2.221591	-0.062859	1
H	0.633173	-2.882111	0.284261	1
H	1.909233	0.962849	-1.104719	1
Es	0.244514	-0.238388	0.397643	99
Es	1.414341	1.598525	-0.148490	99
Es	0.399989	2.213968	0.737019	99
Es	0.246666	2.231503	1.188902	99
Es	-1.831873	-0.125765	-0.285540	99
Es	0.438847	-2.587094	0.068866	99
Es	0.757015	1.529886	0.368625	99
Es	-1.489128	0.507061	-0.078557	99
Es	1.888924	1.924489	-0.508188	99
Es	-0.456166	-2.176976	-0.078235	99
Es	0.342695	-0.209160	-0.263846	99
Es	0.404705	2.379131	1.167796	99
Es	-1.784623	0.737584	0.549967	99
Es	0.126550	-2.131809	-0.183964	99
Es	1.850905	1.648368	-0.412170	99
Es	-1.602215	1.004455	-0.599427	99
Es	0.317585	-1.591425	-0.006330	99
Es	1.940496	1.574225	-0.234289	99
Es	0.183943	-2.074925	-0.451411	99
Es	1.888052	1.253985	-0.751232	99
Es	-0.743869	0.391138	0.010781	99
Es	1.355631	-0.902684	0.173069	99
Es	0.452891	2.667584	1.275652	99
Es	0.630155	-0.879068	0.058143	99
Es	-0.018524	0.296558	0.093512	99
Es	0.692225	1.971017	1.065273	99
Es	0.378803	0.901800	0.226384	99
41
Properties=species:S:1:pos:R:3:Z:I:1 energy=-359.8517470916432 field_type=dipole dipole="0.000000 0.000000 0.000000" charge=0
C	-1.489197	0.507099	-0.078549	6
C	-0.018497	0.296469	0.093491	6
C	0.630143	-0.878851	0.058181	6
N	0.126603	-2.132041	-0.184539	7
C	0.756773	1.529909	0.368781	6
O	1.851234	1.648649	-0.412109	8
O	0.404384	2.379298	1.168151	8
H	-1.677607	1.259399	-0.852059	1
H	-1.938627	0.854899	0.857491	1
H	-2.012167	-0.404721	-0.380259	1
H	1.704503	-0.919251	0.244741	1
H	-0.879956	-2.221591	-0.062859	1
H	0.633173	-2.882111	0.284261	1
H	1.909233	0.962849	-1.104719	1
Es	0.691039	1.967853	1.063779	99
Es	0.244738	-0.238021	0.397554	99
Es	-1.831632	-0.126055	-0.285699	99
Es	0.439966	-2.588541	0.063552	99
Es	0.399396	2.214734	0.740047	99
Es	0.431640	2.663960	1.287340	99
Es	0.757012	1.529887	0.368623	99
Es	0.630163	-0.879065	0.058150	99
Es	-0.456021	-2.176764	-0.077550	99
Es	0.182257	-2.073843	-0.446178	99
Es	0.404655	2.379072	1.167794	99
Es	-1.601809	1.004013	-0.599368	99
Es	1.891109	1.925494	-0.507556	99
Es	-1.784867	0.738082	0.550001	99
Es	1.935001	1.575165	-0.238401	99
Es	1.414480	1.598314	-0.148041	99
Es	-0.744101	0.391032	0.011387	99
Es	0.378930	0.902004	0.226510	99
Es	-0.018522	0.296560	0.093504	99
Es	-1.489126	0.507064	-0.078558	99
Es	1.850999	1.648178	-0.412036	99
Es	1.891080	1.252456	-0.748304	99
Es	0.318261	-1.591438	-0.006845	99
Es	0.269607	2.237685	1.175458	99
Es	0.342348	-0.209600	-0.263757	99
Es	0.126548	-2.131856	-0.184038	99
Es	1.355383	-0.902388	0.172584	99
41
Properties=species:S:1:pos:R:3:Z:I:1 energy=-359.8517470916432 field_type=dipole dipole="0.000000 0.000000 0.000000" charge=0
C	-1.489197	0.507099	-0.078549	6
C	-0.018497	0.296469	0.093491	6
C	0.630143	-0.878851	0.058181	6
N	0.126603	-2.132041	-0.184539	7
C	0.756773	1.529909	0.368781	6
O	1.851234	1.648649	-0.412109	8
O	0.404384	2.379298	1.168151	8
H	-1.677607	1.259399	-0.852059	1
H	-1.938627	0.854899	0.857491	1
H	-2.012167	-0.404721	-0.380259	1
H	1.704503	-0.919251	0.244741	1
H	-0.879956	-2.221591	-0.062859	1
H	0.633173	-2.882111	0.284261	1
H	1.909233	0.962849	-1.104719	1
Es	0.404692	2.379108	1.167797	99
Es	0.283405	2.241610	1.166498	99
Es	0.440559	-2.589636	0.059628	99
Es	1.851030	1.648174	-0.411987	99
Es	0.401240	2.215639	0.741982	99
Es	0.244693	-0.237653	0.397344	99
Es	1.893120	1.926820	-0.506737	99
Es	0.690707	1.966632	1.063800	99
Es	1.893210	1.251335	-0.746140	99
Es	-1.831402	-0.126363	-0.285827	99
Es	-1.784970	0.738299	0.550015	99
Es	1.929781	1.575925	-0.243444	99
Es	0.181339	-2.073334	-0.442010	99
Es	-1.601699	1.003775	-0.599244	99
Es	1.415444	1.597313	-0.146009	99
Es	0.379053	0.901994	0.227017	99
Es	-0.018522	0.296561	0.093500	99
Es	-0.455354	-2.177080	-0.078145	99
Es	-0.744197	0.391269	0.011507	99
Es	0.416215	2.660458	1.294114	99
Es	0.318082	-1.590929	-0.006574	99
Es	0.630157	-0.879066	0.058144	99
Es	1.355180	-0.902193	0.172309	99
Es	0.342287	-0.210006	-0.263724	99
Es	0.757013	1.529886	0.368627	99
Es	-1.489128	0.507062	-0.078557	99
Es	0.126599	-2.131616	-0.183931	99
41
Properties=species:S:1:pos:R:3:Z:I:1 energy=-359.8517470916432 field_type=dipole dipole="0.000000 0.000000 0.000000" charge=0
C	-1.489197	0.507099	-0.078549	6
C	-0.018497	0.296469	0.093491	6
C	0.630143	-0.878851	0.058181	6
N	0.126603	-2.132041	-0.184539	7
C	0.756773	1.529909	0.368781	6
O	1.851234	1.648649	-0.412109	8
O	0.404384	2.379298	1.168151	8
H	-1.677607	1.259399	-0.852059	1
H	-1.938627	0.854899	0.857491	1
H	-2.012167	-0.404721	-0.380259	1
H	1.704503	-0.919251	0.244741	1
H	-0.879956	-2.221591	-0.062859	1
H	0.633173	-2.882111	0.284261	1
H	1.909233	0.962849	-1.104719	1
Es	0.379100	0.902009	0.226958	99
Es	-0.018524	0.296557	0.093516	99
Es	0.404780	2.379144	1.167742	99
Es	-1.601474	1.003454	-0.599086	99
Es	0.630155	-0.879068	0.058147	99
Es	-0.744096	0.391023	0.011776	99
Es	0.244881	-0.237537	0.397412	99
Es	1.894292	1.250893	-0.745138	99
Es	1.354962	-0.902182	0.172244	99
Es	0.126577	-2.131726	-0.183952	99
Es	0.400472	2.214688	0.743288	99
Es	0.688860	1.964440	1.064237	99
Es	-1.489128	0.507061	-0.078557	99
Es	-1.831567	-0.126331	-0.285862	99
Es	0.402115	2.656816	1.299739	99
Es	-0.454413	-2.176582	-0.076837	99
Es	0.342205	-0.210069	-0.263884	99
Es	1.414294	1.598983	-0.147598	99
Es	1.850999	1.648214	-0.412048	99
Es	1.899860	1.927637	-0.503892	99
Es	0.757017	1.529884	0.368633	99
Es	-1.785029	0.738698	0.549946	99
Es	0.179350	-2.073963	-0.439315	99
Es	0.299951	2.248448	1.159018	99
Es	0.318962	-1.590088	-0.008041	99
Es	1.923074	1.573885	-0.245596	99
Es	0.440859	-2.590305	0.057104	99
41
Properties=species:S:1:pos:R:3:Z:I:1 energy=-359.8517470916432 field_type=dipole dipole="0.000000 0.000000 0.000000" charge=0
C	-1.489197	0.507099	-0.078549	6
C	-0.018497	0.296469	0.093491	6
C	0.630143	-0.878851	0.058181	6
N	0.126603	-2.132041	-0.184539	7
C	0.756773	1.529909	0.368781	6
O	1.851234	1.648649	-0.412109	8
O	0.404384	2.379298	1.168151	8
H	-1.677607	1.259399	-0.852059	1
H	-1.938627	0.854899	0.857491	1
H	-2.012167	-0.404721	-0.380259	1
H	1.704503	-0.919251	0.244741	1
H	-0.879956	-2.221591	-0.062859	1
H	0.633173	-2.882111	0.284261	1
H	1.909233	0.962849	-1.104719	1
Es	0.630155	-0.879068	0.058144	99
Es	-0.018522	0.296558	0.093510	99
Es	-0.744236	0.391346	0.011639	99
Es	-1.489127	0.507062	-0.078558	99
Es	1.415049	1.599017	-0.146079	99
Es	0.390290	2.653061	1.304193	99
Es	1.850892	1.648391	-0.412114	99
Es	0.342159	-0.210288	-0.263710	99
Es	-0.454421	-2.176467	-0.076879	99
Es	0.312037	2.253292	1.153549	99
Es	0.404791	2.379021	1.167654	99
Es	0.244784	-0.237477	0.397384	99
Es	0.757015	1.529885	0.368628	99
Es	0.126546	-2.131656	-0.183959	99
Es	-1.831443	-0.126865	-0.286036	99
Es	0.440984	-2.590901	0.054720	99
Es	0.379212	0.902245	0.227291	99
Es	1.898846	1.927254	-0.504901	99
Es	-1.601350	1.003396	-0.598913	99
Es	0.400284	2.215021	0.746377	99
Es	0.688744	1.963196	1.062153	99
Es	1.354700	-0.901979	0.171986	99
Es	1.895035	1.249857	-0.743480	99
Es	-1.784879	0.738861	0.549956	99
Es	1.922638	1.575075	-0.247716	99
Es	0.178745	-2.074033	-0.436249	99
Es	0.319606	-1.589823	-0.008637	99
41
Properties=species:S:1:pos:R:3:Z:I:1 energy=-359.8517470916432 field_type=dipole dipole="0.000000 0.000000 0.000000" charge=0
C	-1.489197	0.507099	-0.078549	6
C	-0.018497	0.296469	0.093491	6
C	0.630143	-0.878851	0.058181	6
N	0.126603	-2.132041	-0.184539	7
C	0.756773	1.529909	0.368781	6
O	1.851234	1.648649	-0.412109	8
O	0.404384	2.379298	1.168151	8
H	-1.677607	1.259399	-0.852059	1
H	-1.938627	0.854899	0.857491	1
H	-2.012167	-0.404721	-0.380259	1
H	1.704503	-0.919251	0.244741	1
H	-0.879956	-2.221591	-0.062859	1
H	0.633173	-2.882111	0.284261	1
H	1.909233	0.962849	-1.104719	1
Es	-0.454165	-2.176844	-0.077627	99
Es	1.354695	-0.901920	0.171926	99
Es	0.630155	-0.879067	0.058146	99
Es	-1.831474	-0.126872	-0.286057	99
Es	1.921496	1.575604	-0.249861	99
Es	-1.489127	0.507061	-0.078558	99
Es	0.342088	-0.211016	-0.263365	99
Es	-1.601281	1.003097	-0.598772	99
Es	0.379148	0.902392	0.227160	99
Es	0.321767	2.257909	1.147715	99
Es	1.850941	1.648382	-0.412151	99
Es	0.404801	2.379137	1.167705	99
Es	0.757015	1.529886	0.368625	99
Es	1.897866	1.929322	-0.504741	99
Es	1.416760	1.596398	-0.144122	99
Es	0.402208	2.216346	0.746800	99
Es	-0.744089	0.391214	0.011629	99
Es	0.126557	-2.131728	-0.183937	99
Es	0.244876	-0.236790	0.397235	99
Es	-1.784976	0.739136	0.549896	99
Es	0.319256	-1.589357	-0.008431	99
Es	0.178266	-2.073279	-0.431637	99
Es	0.686572	1.961123	1.062905	99
Es	1.895382	1.249857	-0.743342	99
Es	-0.018523	0.296559	0.093504	99
Es	0.441555	-2.591715	0.050621	99
Es	0.380764	2.649151	1.308686	99
41
Properties=species:S:1:pos:R:3:Z:I:1 energy=-359.8517470916432 field_type=dipole dipole="0.000000 0.000000 0.000000" charge=0
C	-1.489197	0.507099	-0.078549	6
C	-0.018497	0.296469	0.093491	6
C	0.630143	-0.878851	0.058181	6
N	0.126603	-2.132041	-0.184539	7
C	0.756773	1.529909	0.368781	6
O	1.851234	1.648649	-0.412109	8
O	0.404384	2.379298	1.168151	8
H	-1.677607	1.259399	-0.852059	1
H	-1.938627	0.854899	0.857491	1
H	-2.012167	-0.404721	-0.380259	1
H	1.704503	-0.919251	0.244741	1
H	-0.879956	-2.221591	-0.062859	1
H	0.633173	-2.882111	0.284261	1
H	1.909233	0.962849	-1.104719	1
Es	0.379753	2.648816	1.309124	99
Es	0.441703	-2.591986	0.049309	99
Es	1.899591	1.928547	-0.504636	99
Es	0.630155	-0.879068	0.058148	99
Es	-1.601103	1.002962	-0.598783	99
Es	0.325062	2.259805	1.147036	99
Es	0.685799	1.960155	1.061498	99
Es	0.319255	-1.589681	-0.007847	99
Es	0.379167	0.902265	0.227285	99
Es	0.244864	-0.236771	0.397507	99
Es	0.126540	-2.131876	-0.184067	99
Es	-1.831339	-0.126901	-0.286126	99
Es	-0.744185	0.391333	0.011602	99
Es	0.177704	-2.072797	-0.431374	99
Es	1.415907	1.597962	-0.144975	99
Es	1.897441	1.248732	-0.740738	99
Es	-1.489127	0.507062	-0.078558	99
Es	1.918456	1.576125	-0.252308	99
Es	0.401013	2.215998	0.748181	99
Es	-1.785086	0.739286	0.549955	99
Es	0.342115	-0.211092	-0.263510	99
Es	0.404444	2.378947	1.167899	99
Es	1.354350	-0.901798	0.171790	99
Es	-0.018521	0.296559	0.093499	99
Es	1.850953	1.648217	-0.411555	99
Es	-0.453395	-2.176704	-0.077034	99
Es	0.757016	1.529885	0.368630	99
41
Properties=species:S:1:pos:R:3:Z:I:1 energy=-359.8517470916432 field_type=dipole dipole="0.000000 0.000000 0.000000" charge=0
C	-1.489197	0.507099	-0.078549	6
C	-0.018497	0.296469	0.093491	6
C	0.630143	-0.878851	0.058181	6
N	0.126603	-2.132041	-0.184539	7
C	0.756773	1.529909	0.368781	6
O	1.851234	1.648649	-0.412109	8
O	0.404384	2.379298	1.168151	8
H	-1.677607	1.259399	-0.852059	1
H	-1.938627	0.854899	0.857491	1
H	-2.012167	-0.404721	-0.380259	1
H	1.704503	-0.919251	0.244741	1
H	-0.879956	-2.221591	-0.062859	1
H	0.633173	-2.882111	0.284261	1
H	1.909233	0.962849	-1.104719	1
Es	0.244937	-0.236657	0.397567	99
Es	-1.831165	-0.127121	-0.286050	99
Es	0.441820	-2.592244	0.048305	99
Es	-0.452701	-2.176601	-0.076705	99
Es	-1.489130	0.507062	-0.078558	99
Es	0.757026	1.529883	0.368640	99
Es	0.630155	-0.879067	0.058145	99
Es	0.319426	-1.588982	-0.008708	99
Es	0.379083	0.902493	0.227145	99
Es	-0.018525	0.296556	0.093524	99
Es	0.370262	2.645577	1.311514	99
Es	0.337684	2.266200	1.143148	99
Es	-1.785009	0.739272	0.549983	99
Es	-1.601197	1.002970	-0.598854	99
Es	1.905922	1.929014	-0.501714	99
Es	0.684522	1.958944	1.062704	99
Es	1.850823	1.648385	-0.412182	99
Es	1.913067	1.574054	-0.253235	99
Es	1.354257	-0.901765	0.171783	99
Es	0.399094	2.213987	0.748445	99
Es	0.176777	-2.073425	-0.429868	99
Es	-0.744174	0.391438	0.011652	99
Es	0.126540	-2.131851	-0.184018	99
Es	0.404478	2.379015	1.167903	99
Es	1.414852	1.599663	-0.146714	99
Es	0.342040	-0.211240	-0.263526	99
Es	1.897671	1.248424	-0.740374	99
41
Properties=species:S:1:pos:R:3:Z:I:1 energy=-359.8517470916432 field_type=dipole dipole="0.000000 0.000000 0.000000" charge=0
C	-1.489197	0.507099	-0.078549	6
C	-0.018497	0.296469	0.093491	6
C	0.630143	-0.878851	0.058181	6
N	0.126603	-2.132041	-0.184539	7
C	0.756773	1.529909	0.368781	6
O	1.851234	1.648649	-0.412109	8
O	0.404384	2.379298	1.168151	8
H	-1.677607	1.259399	-0.852059	1
H	-1.938627	0.854899	0.857491	1
H	-2.012167	-0.404721	-0.380259	1
H	1.704503	-0.919251	0.244741	1
H	-0.879956	-2.221591	-0.062859	1
H	0.633173	-2.882111	0.284261	1
H	1.909233	0.962849	-1.104719	1
Es	0.342144	-0.211076	-0.263629	99
Es	-1.489127	0.507061	-0.078557	99
Es	0.757018	1.529883	0.368627	99
Es	0.364142	2.642471	1.314584	99
Es	-0.744260	0.391465	0.011606	99
Es	0.176756	-2.073431	-0.428975	99
Es	0.319087	-1.588839	-0.008426	99
Es	1.851229	1.647938	-0.411639	99
Es	-1.831244	-0.127212	-0.286111	99
Es	0.126570	-2.131650	-0.183931	99
Es	0.442033	-2.592304	0.047441	99
Es	-1.601124	1.003187	-0.598864	99
Es	0.344557	2.270104	1.140045	99
Es	1.898969	1.248152	-0.739456	99
Es	-1.784860	0.739178	0.549983	99
Es	0.399724	2.215128	0.750094	99
Es	0.244843	-0.236836	0.397611	99
Es	1.907585	1.929857	-0.500367	99
Es	-0.452513	-2.176929	-0.077099	99
Es	0.630158	-0.879066	0.058146	99
Es	0.682787	1.957123	1.061298	99
Es	1.354108	-0.901758	0.171769	99
Es	1.414828	1.599396	-0.147317	99
Es	1.909665	1.574204	-0.255346	99
Es	0.379166	0.902404	0.227356	99
Es	-0.018523	0.296559	0.093507	99
Es	0.404814	2.378973	1.167603	99
41
Properties=species:S:1:pos:R:3:Z:I:1 energy=-359.8517470916432 field_type=dipole dipole="0.000000 0.000000 0.000000" charge=0
C	-1.489197	0.507099	-0.078549	6
C	-0.018497	0.296469	0.093491	6
C	0.630143	-0.878851	0.058181	6
N	0.126603	-2.132041	-0.184539	7
C	0.756773	1.529909	0.368781	6
O	1.851234	1.648649	-0.412109	8
O	0.404384	2.379298	1.168151	8
H	-1.677607	1.259399	-0.852059	1
H	-1.938627	0.854899	0.857491	1
H	-2.012167	-0.404721	-0.380259	1
H	1.704503	-0.919251	0.244741	1
H	-0.879956	-2.221591	-0.062859	1
H	0.633173	-2.882111	0.284261	1
H	1.909233	0.962849	-1.104719	1
Es	1.353852	-0.901653	0.171668	99
Es	-1.831090	-0.127269	-0.286176	99
Es	0.630155	-0.879067	0.058145	99
Es	-0.451481	-2.176367	-0.075579	99
Es	0.682689	1.956462	1.058632	99
Es	0.343844	2.269715	1.140637	99
Es	1.850704	1.648397	-0.412200	99
Es	1.898053	1.248109	-0.739851	99
Es	1.414462	1.600913	-0.146684	99
Es	0.757017	1.529885	0.368629	99
Es	0.379209	0.902482	0.227347	99
Es	-1.489131	0.507061	-0.078557	99
Es	0.126546	-2.131753	-0.183926	99
Es	0.399101	2.214734	0.753470	99
Es	0.319697	-1.588643	-0.009317	99
Es	0.442176	-2.592549	0.046313	99
Es	0.365758	2.643825	1.312947	99
Es	-1.601000	1.002943	-0.598804	99
Es	0.244903	-0.236446	0.397640	99
Es	0.175230	-2.073958	-0.428446	99
Es	-1.784985	0.739385	0.550039	99
Es	1.913522	1.574533	-0.253342	99
Es	-0.018522	0.296557	0.093510	99
Es	0.342066	-0.211498	-0.263557	99
Es	1.905514	1.927577	-0.502088	99
Es	-0.744311	0.391531	0.011632	99
Es	0.404555	2.379075	1.167872	99
41
Properties=species:S:1:pos:R:3:Z:I:1 energy=-359.8517470916432 field_type=dipole dipole="0.000000 0.000000 0.000000" charge=0
C	-1.489197	0.507099	-0.078549	6
C	-0.018497	0.296469	0.093491	6
C	0.630143	-0.878851	0.058181	6
N	0.126603	-2.132041	-0.184539	7
C	0.756773	1.529909	0.368781	6
O	1.851234	1.648649	-0.412109	8
O	0.404384	2.379298	1.168151	8
H	-1.677607	1.259399	-0.852059	1
H	-1.938627	0.854899	0.857491	1
H	-2.012167	-0.404721	-0.380259	1
H	1.704503	-0.919251	0.244741	1
H	-0.879956	-2.221591	-0.062859	1
H	0.633173	-2.882111	0.284261	1
H	1.909233	0.962849	-1.104719	1
Es	-0.018525	0.296558	0.093514	99
Es	1.353926	-0.901684	0.171664	99
Es	-1.600977	1.002803	-0.598804	99
Es	0.757020	1.529883	0.368634	99
Es	1.898525	1.247688	-0.738840	99
Es	0.357978	2.639916	1.316293	99
Es	0.630155	-0.879068	0.058147	99
Es	0.342094	-0.211528	-0.263529	99
Es	0.680914	1.955116	1.059616	99
Es	0.442075	-2.592944	0.044830	99
Es	1.911779	1.574790	-0.255340	99
Es	1.850700	1.648222	-0.411759	99
Es	-1.489128	0.507061	-0.078557	99
Es	0.126565	-2.131699	-0.183945	99
Es	1.415081	1.600003	-0.146208	99
Es	0.404008	2.378178	1.167735	99
Es	-0.451533	-2.176682	-0.076806	99
Es	0.399560	2.215137	0.752953	99
Es	0.175587	-2.073769	-0.425940	99
Es	-1.784964	0.739590	0.549907	99
Es	0.244917	-0.236378	0.397427	99
Es	0.319367	-1.588151	-0.009112	99
Es	0.379175	0.902561	0.227508	99
Es	-0.744272	0.391442	0.011731	99
Es	1.906091	1.928842	-0.502002	99
Es	0.353542	2.275520	1.136921	99
Es	-1.831126	-0.127424	-0.286086	99
41
Properties=species:S:1:pos:R:3:Z:I:1 energy=-359.8517470916432 field_type=dipole dipole="0.000000 0.000000 0.000000" charge=0
C	-1.489197	0.507099	-0.078549	6
C	-0.018497	0.296469	0.093491	6
C	0.630143	-0.878851	0.058181	6
N	0.126603	-2.132041	-0.184539	7
C	0.756773	1.529909	0.368781	6
O	1.851234	1.648649	-0.412109	8
O	0.404384	2.379298	1.168151	8
H	-1.677607	1.259399	-0.852059	1
H	-1.938627	0.854899	0.857491	1
H	-2.012167	-0.404721	-0.380259	1
H	1.704503	-0.919251	0.244741	1
H	-0.879956	-2.221591	-0.062859	1
H	0.633173	-2.882111	0.284261	1
H	1.909233	0.962849	-1.104719	1
Es	0.442255	-2.592968	0.044191	99
Es	1.415960	1.598591	-0.144681	99
Es	0.680690	1.954699	1.057565	99
Es	0.757019	1.529884	0.368633	99
Es	1.913330	1.576022	-0.255639	99
Es	-0.018523	0.296559	0.093513	99
Es	0.398490	2.214072	0.755734	99
Es	0.359818	2.641521	1.314488	99
Es	-1.489129	0.507061	-0.078557	99
Es	-0.744284	0.391364	0.011747	99
Es	0.379170	0.902482	0.227530	99
Es	0.175666	-2.073287	-0.425907	99
Es	1.902730	1.928792	-0.503096	99
Es	0.342026	-0.211842	-0.263476	99
Es	1.850894	1.648386	-0.412145	99
Es	0.318973	-1.588337	-0.008407	99
Es	0.245027	-0.236072	0.397505	99
Es	0.404137	2.378518	1.167821	99
Es	-1.600849	1.002555	-0.598701	99
Es	-0.451200	-2.176881	-0.076901	99
Es	0.630155	-0.879068	0.058144	99
Es	-1.785183	0.739735	0.550009	99
Es	1.353826	-0.901611	0.171543	99
Es	1.899264	1.247730	-0.738639	99
Es	-1.831052	-0.127203	-0.286202	99
Es	0.352782	2.275072	1.137832	99
Es	0.126541	-2.131789	-0.183952	99
41
Properties=species:S:1:pos:R:3:Z:I:1 energy=-359.8517470916432 field_type=dipole dipole="0.000000 0.000000 0.000000" charge=0
C	-1.489197	0.507099	-0.078549	6
C	-0.018497	0.296469	0.093491	6
C	0.630143	-0.878851	0.058181	6
N	0.126603	-2.132041	-0.184539	7
C	0.756773	1.529909	0.368781	6
O	1.851234	1.648649	-0.412109	8
O	0.404384	2.379298	1.168151	8
H	-1.677607	1.259399	-0.852059	1
H	-1.938627	0.854899	0.857491	1
H	-2.012167	-0.404721	-0.380259	1
H	1.704503	-0.919251	0.244741	1
H	-0.879956	-2.221591	-0.062859	1
H	0.633173	-2.882111	0.284261	1
H	1.909233	0.962849	-1.104719	1
Es	0.379285	0.902391	0.227738	99
Es	0.244998	-0.235743	0.397244	99
Es	0.126569	-2.131645	-0.183919	99
Es	0.352433	2.274254	1.136765	99
Es	-1.831070	-0.127507	-0.286375	99
Es	0.357318	2.640124	1.315807	99
Es	1.901060	1.928964	-0.503767	99
Es	0.404849	2.379222	1.167726	99
Es	0.400352	2.215047	0.753786	99
Es	-1.600697	1.002536	-0.598518	99
Es	0.757016	1.529886	0.368628	99
Es	0.319189	-1.588238	-0.008610	99
Es	1.416244	1.598248	-0.145021	99
Es	-1.489128	0.507062	-0.078558	99
Es	-1.785052	0.739864	0.549994	99
Es	0.680966	1.955301	1.059280	99
Es	0.175185	-2.073455	-0.424383	99
Es	-0.018526	0.296558	0.093515	99
Es	0.442246	-2.593260	0.042646	99
Es	1.353685	-0.901544	0.171481	99
Es	1.850985	1.648356	-0.412168	99
Es	1.913521	1.576708	-0.255809	99
Es	1.900315	1.247216	-0.737363	99
Es	-0.450915	-2.176757	-0.076757	99
Es	-0.744509	0.391616	0.011835	99
Es	0.342052	-0.212156	-0.263389	99
Es	0.630161	-0.879064	0.058147	99
41
Properties=species:S:1:pos:R:3:Z:I:1 energy=-359.8517470916432 field_type=dipole dipole="0.000000 0.000000 0.000000" charge=0
C	-1.489197	0.507099	-0.078549	6
C	-0.018497	0.296469	0.093491	6
C	0.630143	-0.878851	0.058181	6
N	0.126603	-2.132041	-0.184539	7
C	0.756773	1.529909	0.368781	6
O	1.851234	1.648649	-0.412109	8
O	0.404384	2.379298	1.168151	8
H	-1.677607	1.259399	-0.852059	1
H	-1.938627	0.854899	0.857491	1
H	-2.012167	-0.404721	-0.380259	1
H	1.704503	-0.919251	0.244741	1
H	-0.879956	-2.221591	-0.062859	1
H	0.633173	-2.882111	0.284261	1
H	1.909233	0.962849	-1.104719	1
Es	0.126556	-2.131759	-0.183923	99
Es	-0.018523	0.296557	0.093514	99
Es	1.850892	1.648384	-0.412091	99
Es	1.416557	1.597874	-0.144773	99
Es	-1.830907	-0.127621	-0.286207	99
Es	0.442335	-2.593325	0.042608	99
Es	0.361606	2.279492	1.135029	99
Es	0.397384	2.213080	0.756739	99
Es	0.680726	1.954636	1.057040	99
Es	0.342025	-0.212122	-0.263385	99
Es	0.244921	-0.235907	0.397517	99
Es	1.899895	1.247416	-0.737958	99
Es	-1.600719	1.002482	-0.598711	99
Es	0.175114	-2.073373	-0.424211	99
Es	1.910521	1.575612	-0.257346	99
Es	0.379213	0.902552	0.227482	99
Es	0.757023	1.529882	0.368639	99
Es	-0.744454	0.391709	0.011724	99
Es	1.904252	1.930210	-0.501943	99
Es	0.630155	-0.879067	0.058145	99
Es	-1.785131	0.739934	0.549915	99
Es	-0.450731	-2.176716	-0.076775	99
Es	0.319141	-1.588195	-0.008672	99
Es	1.353600	-0.901553	0.171586	99
Es	-1.489128	0.507062	-0.078557	99
Es	0.351220	2.637698	1.317052	99
Es	0.404990	2.379042	1.167516	99
41
Properties=species:S:1:pos:R:3:Z:I:1 energy=-359.8517470916432 field_type=dipole dipole="0.000000 0.000000 0.000000" charge=0
C	-1.489197	0.507099	-0.078549	6
C	-0.018497	0.296469	0.093491	6
C	0.630143	-0.878851	0.058181	6
N	0.126603	-2.132041	-0.184539	7
C	0.756773	1.529909	0.368781	6
O	1.851234	1.648649	-0.412109	8
O	0.404384	2.379298	1.168151	8
H	-1.677607	1.259399	-0.852059	1
H	-1.938627	0.854899	0.857491	1
H	-2.012167	-0.404721	-0.380259	1
H	1.704503	-0.919251	0.244741	1
H	-0.879956	-2.221591	-0.062859	1
H	0.633173	-2.882111	0.284261	1
H	1.909233	0.962849	-1.104719	1
Es	0.630154	-0.879069	0.058146	99
Es	1.415579	1.599956	-0.145445	99
Es	0.400682	2.214847	0.754404	99
Es	0.379199	0.902669	0.227735	99
Es	0.244948	-0.235932	0.397344	99
Es	-1.785181	0.740156	0.549908	99
Es	-0.018524	0.296558	0.093514	99
Es	0.358014	2.277367	1.134611	99
Es	0.126578	-2.131600	-0.183930	99
Es	0.319437	-1.588003	-0.008936	99
Es	1.913097	1.576448	-0.255786	99
Es	0.174111	-2.073706	-0.422040	99
Es	0.342091	-0.211998	-0.263489	99
Es	-0.450128	-2.176671	-0.076119	99
Es	0.404432	2.378955	1.167924	99
Es	1.899998	1.246834	-0.736976	99
Es	1.902592	1.927869	-0.503714	99
Es	0.679873	1.954365	1.059820	99
Es	0.757016	1.529885	0.368629	99
Es	-1.489128	0.507061	-0.078557	99
Es	-1.830710	-0.127825	-0.286193	99
Es	-1.600682	1.002242	-0.598676	99
Es	0.352922	2.638435	1.316597	99
Es	0.442580	-2.593540	0.040080	99
Es	1.353329	-0.901449	0.171526	99
Es	-0.744566	0.391761	0.011773	99
Es	1.850819	1.648369	-0.412196	99
41
Properties=species:S:1:pos:R:3:Z:I:1 energy=-359.8517470916432 field_type=dipole dipole="0.000000 0.000000 0.000000" charge=0
C	-1.489197	0.507099	-0.078549	6
C	-0.018497	0.296469	0.093491	6
C	0.630143	-0.878851	0.058181	6
N	0.126603	-2.132041	-0.184539	7
C	0.756773	1.529909	0.368781	6
O	1.851234	1.648649	-0.412109	8
O	0.404384	2.379298	1.168151	8
H	-1.677607	1.259399	-0.852059	1
H	-1.938627	0.854899	0.857491	1
H	-2.012167	-0.404721	-0.380259	1
H	1.704503	-0.919251	0.244741	1
H	-0.879956	-2.221591	-0.062859	1
H	0.633173	-2.882111	0.284261	1
H	1.909233	0.962849	-1.104719	1
Es	0.244838	-0.236293	0.397606	99
Es	-0.744577	0.392029	0.011699	99
Es	0.442561	-2.593371	0.041659	99
Es	0.126538	-2.131786	-0.183954	99
Es	1.353490	-0.901506	0.171593	99
Es	0.379329	0.902362	0.227738	99
Es	0.630155	-0.879067	0.058144	99
Es	-1.830671	-0.127695	-0.286234	99
Es	1.415382	1.599939	-0.145592	99
Es	-1.785216	0.739992	0.549983	99
Es	0.173930	-2.073822	-0.423892	99
Es	1.901476	1.246645	-0.735981	99
Es	0.405008	2.379038	1.167498	99
Es	1.909397	1.576187	-0.258170	99
Es	-1.489128	0.507061	-0.078557	99
Es	0.342097	-0.211729	-0.263662	99
Es	-1.600716	1.002358	-0.598721	99
Es	0.757017	1.529884	0.368631	99
Es	1.850930	1.648346	-0.412166	99
Es	0.679628	1.953600	1.055701	99
Es	0.397266	2.213607	0.757895	99
Es	-0.449274	-2.176769	-0.075996	99
Es	0.352439	2.638001	1.317183	99
Es	0.361520	2.279719	1.135038	99
Es	-0.018525	0.296556	0.093519	99
Es	1.904870	1.928371	-0.502193	99
Es	0.318770	-1.587674	-0.008816	99
41
Properties=species:S:1:pos:R:3:Z:I:1 energy=-359.8517470916432 field_type=dipole dipole="0.000000 0.000000 0.000000" charge=0
C	-1.489197	0.507099	-0.078549	6
C	-0.018497	0.296469	0.093491	6
C	0.630143	-0.878851	0.058181	6
N	0.126603	-2.132041	-0.184539	7
C	0.756773	1.529909	0.368781	6
O	1.851234	1.648649	-0.412109	8
O	0.404384	2.379298	1.168151	8
H	-1.677607	1.259399	-0.852059	1
H	-1.938627	0.854899	0.857491	1
H	-2.012167	-0.404721	-0.380259	1
H	1.704503	-0.919251	0.244741	1
H	-0.879956	-2.221591	-0.062859	1
H	0.633173	-2.882111	0.284261	1
H	1.909233	0.962849	-1.104719	1
Es	0.244883	-0.235944	0.397471	99
Es	0.362059	2.279644	1.133608	99
Es	-1.489128	0.507062	-0.078557	99
Es	1.353470	-0.901483	0.171473	99
Es	0.350198	2.637172	1.317380	99
Es	0.342115	-0.212071	-0.263507	99
Es	0.442495	-2.593707	0.039924	99
Es	-1.600651	1.002128	-0.598502	99
Es	0.679308	1.953320	1.056591	99
Es	1.900412	1.246843	-0.736727	99
Es	0.399740	2.214781	0.757871	99
Es	1.913315	1.577125	-0.256419	99
Es	0.126544	-2.131736	-0.183927	99
Es	-0.018523	0.296560	0.093510	99
Es	0.379140	0.902630	0.227842	99
Es	0.173769	-2.073992	-0.421305	99
Es	0.404606	2.379107	1.167847	99
Es	0.319191	-1.587322	-0.009406	99
Es	-1.830555	-0.127958	-0.286360	99
Es	0.757017	1.529886	0.368630	99
Es	-1.785241	0.740202	0.549960	99
Es	1.850963	1.648287	-0.412115	99
Es	-0.744551	0.391983	0.011640	99
Es	1.901452	1.927911	-0.504125	99
Es	-0.449483	-2.176676	-0.076273	99
Es	0.630155	-0.879068	0.058145	99
Es	1.415835	1.599302	-0.144715	99
41
Properties=species:S:1:pos:R:3:Z:I:1 energy=-359.8517470916432 field_type=dipole dipole="0.000000 0.000000 0.000000" charge=0
C	-1.489197	0.507099	-0.078549	6
C	-0.018497	0.296469	0.093491	6
C	0.630143	-0.878851	0.058181	6
N	0.126603	-2.132041	-0.184539	7
C	0.756773	1.529909	0.368781	6
O	1.851234	1.648649	-0.412109	8
O	0.404384	2.379298	1.168151	8
H	-1.677607	1.259399	-0.852059	1
H	-1.938627	0.854899	0.857491	1
H	-2.012167	-0.404721	-0.380259	1
H	1.704503	-0.919251	0.244741	1
H	-0.879956	-2.221591	-0.062859	1
H	0.633173	-2.882111	0.284261	1
H	1.909233	0.962849	-1.104719	1
Es	-0.018524	0.296557	0.093515	99
Es	0.397930	2.213749	0.758693	99
Es	0.342114	-0.212359	-0.263379	99
Es	1.353253	-0.901414	0.171566	99
Es	0.349279	2.636695	1.317825	99
Es	0.442606	-2.593834	0.039050	99
Es	1.900591	1.928332	-0.504236	99
Es	-0.449942	-2.176795	-0.076931	99
Es	-1.600594	1.002324	-0.598640	99
Es	1.912399	1.578082	-0.259359	99
Es	0.365667	2.281848	1.133087	99
Es	0.126649	-2.131352	-0.184174	99
Es	0.379242	0.902502	0.227702	99
Es	-1.830871	-0.127599	-0.286276	99
Es	-1.489128	0.507062	-0.078557	99
Es	0.404503	2.379043	1.167882	99
Es	1.850747	1.648370	-0.412080	99
Es	0.757016	1.529885	0.368629	99
Es	1.417163	1.598085	-0.142284	99
Es	-1.785151	0.740103	0.549980	99
Es	0.678511	1.952685	1.055798	99
Es	-0.744514	0.391639	0.011683	99
Es	0.630153	-0.879069	0.058140	99
Es	1.901088	1.246618	-0.736136	99
Es	0.319043	-1.587886	-0.008677	99
Es	0.174363	-2.073673	-0.420237	99
Es	0.244942	-0.235617	0.397371	99
