45
Properties=species:S:1:pos:R:3:Z:I:1 energy=-341.1035865499874 field_type=dipole dipole="0.000000 0.000000 0.000000" charge=0
C	-1.418016	-0.825686	0.430439	6
C	0.094654	-0.687456	0.276079	6
C	0.626054	-1.605476	-0.822941	6
N	0.467514	0.701854	-0.003501	7
O	-0.048877	1.211634	-1.201961	8
C	0.586984	1.643664	0.986419	6
N	0.462184	2.919284	0.855149	7
H	-1.791166	-0.175226	1.228739	1
H	-1.689256	-1.856776	0.681499	1
H	-1.945066	-0.554506	-0.491311	1
H	0.566984	-0.996176	1.217159	1
H	0.177124	-1.376976	-1.795561	1
H	0.409554	-2.653676	-0.590501	1
H	1.711733	-1.498916	-0.925311	1
H	0.758714	1.453324	-1.694870	1
H	0.830924	1.215774	1.973409	1
H	0.199964	3.085334	-0.122941	1
Es	0.420410	-0.878349	0.918989	99
Es	-0.048522	1.211601	-1.201880	99
Es	0.310761	3.015007	0.268602	99
Es	0.785898	2.419764	0.828999	99
Es	1.365117	-1.530492	-0.888010	99
Es	0.317802	-1.448673	-1.477116	99
Es	0.508396	3.171937	1.107946	99
Es	-1.766678	-0.644649	-0.194864	99
Es	0.389006	1.086365	0.426088	99
Es	0.587010	1.643474	0.986330	99
Es	-0.667124	-0.753681	0.349663	99
Es	-0.180203	0.972447	-1.344855	99
Es	0.626043	-1.605464	-0.822910	99
Es	0.462130	2.918877	0.854792	99
Es	0.386848	1.338652	-1.458014	99
Es	0.182947	0.985152	-0.667188	99
Es	-1.663075	-0.382229	0.976391	99
Es	-0.197833	1.475832	-1.126669	99
Es	-1.417987	-0.825693	0.430445	99
Es	0.466816	0.702089	-0.003290	99
Es	-1.593348	-1.530429	0.601965	99
Es	0.094685	-0.687281	0.276015	99
Es	0.804520	0.757515	0.028899	99
Es	0.752489	1.333959	1.644168	99
Es	0.236087	2.385010	0.964428	99
Es	0.358742	-1.140196	-0.281053	99
Es	0.280669	0.132756	0.118598	99
Es	0.474377	-2.315253	-0.656095	99
45
Properties=species:S:1:pos:R:3:Z:I:1 energy=-341.1035865499874 field_type=dipole dipole="0.000000 0.000000 0.000000" charge=0
C	-1.418016	-0.825686	0.430439	6
C	0.094654	-0.687456	0.276079	6
C	0.626054	-1.605476	-0.822941	6
N	0.467514	0.701854	-0.003501	7
O	-0.048877	1.211634	-1.201961	8
C	0.586984	1.643664	0.986419	6
N	0.462184	2.919284	0.855149	7
H	-1.791166	-0.175226	1.228739	1
H	-1.689256	-1.856776	0.681499	1
H	-1.945066	-0.554506	-0.491311	1
H	0.566984	-0.996176	1.217159	1
H	0.177124	-1.376976	-1.795561	1
H	0.409554	-2.653676	-0.590501	1
H	1.711733	-1.498916	-0.925311	1
H	0.758714	1.453324	-1.694870	1
H	0.830924	1.215774	1.973409	1
H	0.199964	3.085334	-0.122941	1
Es	0.385107	1.342469	-1.453688	99
Es	-1.765663	-0.643535	-0.195060	99
Es	0.311067	3.016337	0.268233	99
Es	0.789200	0.757735	0.028724	99
Es	0.094686	-0.687280	0.276015	99
Es	0.419861	-0.879009	0.919509	99
Es	0.397243	1.091156	0.428995	99
Es	0.184578	0.983472	-0.668720	99
Es	0.587006	1.643474	0.986331	99
Es	0.235942	2.385237	0.963717	99
Es	-0.172181	0.970641	-1.348036	99
Es	-1.661978	-0.381635	0.975782	99
Es	-0.668036	-0.753068	0.349542	99
Es	1.362393	-1.529791	-0.887719	99
Es	0.286977	0.128083	0.116666	99
Es	0.510320	3.171088	1.108922	99
Es	-0.048507	1.211501	-1.201917	99
Es	0.358989	-1.139648	-0.281499	99
Es	0.466766	0.702113	-0.003248	99
Es	0.783763	2.419324	0.828225	99
Es	0.752424	1.333859	1.644397	99
Es	-1.417985	-0.825690	0.430447	99
Es	0.626042	-1.605464	-0.822910	99
Es	-0.204943	1.475982	-1.126738	99
Es	0.462141	2.918878	0.854829	99
Es	0.474832	-2.317844	-0.655546	99
Es	0.319129	-1.447571	-1.477429	99
Es	-1.593189	-1.532766	0.602548	99
45
Properties=species:S:1:pos:R:3:Z:I:1 energy=-341.1035865499874 field_type=dipole dipole="0.000000 0.000000 0.000000" charge=0
C	-1.418016	-0.825686	0.430439	6
C	0.094654	-0.687456	0.276079	6
C	0.626054	-1.605476	-0.822941	6
N	0.467514	0.701854	-0.003501	7
O	-0.048877	1.211634	-1.201961	8
C	0.586984	1.643664	0.986419	6
N	0.462184	2.919284	0.855149	7
H	-1.791166	-0.175226	1.228739	1
H	-1.689256	-1.856776	0.681499	1
H	-1.945066	-0.554506	-0.491311	1
H	0.566984	-0.996176	1.217159	1
H	0.177124	-1.376976	-1.795561	1
H	0.409554	-2.653676	-0.590501	1
H	1.711733	-1.498916	-0.925311	1
H	0.758714	1.453324	-1.694870	1
H	0.830924	1.215774	1.973409	1
H	0.199964	3.085334	-0.122941	1
Es	0.780391	0.760003	0.030076	99
Es	1.360690	-1.529311	-0.887558	99
Es	0.319777	-1.446912	-1.477569	99
Es	0.587001	1.643473	0.986333	99
Es	0.462140	2.918877	0.854809	99
Es	0.626043	-1.605465	-0.822911	99
Es	0.359111	-1.139619	-0.281831	99
Es	0.292968	0.124697	0.114760	99
Es	-1.593082	-1.534081	0.602988	99
Es	-0.172747	0.972588	-1.348500	99
Es	-1.417989	-0.825693	0.430446	99
Es	0.399628	1.092500	0.429849	99
Es	0.511397	3.170852	1.109413	99
Es	0.475285	-2.319262	-0.655173	99
Es	0.311390	3.016880	0.268147	99
Es	0.094687	-0.687280	0.276018	99
Es	0.384435	1.340199	-1.453277	99
Es	0.466728	0.702223	-0.003076	99
Es	0.235712	2.385866	0.963072	99
Es	-1.661314	-0.381442	0.975193	99
Es	0.419429	-0.879363	0.919804	99
Es	-0.048569	1.211637	-1.201860	99
Es	-1.765087	-0.642843	-0.195125	99
Es	0.184999	0.980997	-0.669584	99
Es	-0.203632	1.478767	-1.126047	99
Es	-0.668372	-0.752588	0.349611	99
Es	0.782766	2.418587	0.827813	99
Es	0.752201	1.333761	1.644551	99
45
Properties=species:S:1:pos:R:3:Z:I:1 energy=-341.1035865499874 field_type=dipole dipole="0.000000 0.000000 0.000000" charge=0
C	-1.418016	-0.825686	0.430439	6
C	0.094654	-0.687456	0.276079	6
C	0.626054	-1.605476	-0.822941	6
N	0.467514	0.701854	-0.003501	7
O	-0.048877	1.211634	-1.201961	8
C	0.586984	1.643664	0.986419	6
N	0.462184	2.919284	0.855149	7
H	-1.791166	-0.175226	1.228739	1
H	-1.689256	-1.856776	0.681499	1
H	-1.945066	-0.554506	-0.491311	1
H	0.566984	-0.996176	1.217159	1
H	0.177124	-1.376976	-1.795561	1
H	0.409554	-2.653676	-0.590501	1
H	1.711733	-1.498916	-0.925311	1
H	0.758714	1.453324	-1.694870	1
H	0.830924	1.215774	1.973409	1
H	0.199964	3.085334	-0.122941	1
Es	0.466904	0.702031	-0.003404	99
Es	0.587000	1.643474	0.986334	99
Es	-1.660735	-0.381151	0.974782	99
Es	0.185226	0.979705	-0.670345	99
Es	0.462131	2.918859	0.854810	99
Es	0.475591	-2.320378	-0.655055	99
Es	-1.764687	-0.642455	-0.195041	99
Es	1.359340	-1.528991	-0.887529	99
Es	0.419279	-0.879631	0.919970	99
Es	-0.048543	1.211615	-1.201871	99
Es	0.782603	2.418575	0.827372	99
Es	0.403356	1.094351	0.430536	99
Es	0.311380	3.018184	0.268205	99
Es	0.383840	1.340771	-1.451653	99
Es	-1.592835	-1.535097	0.603369	99
Es	0.774283	0.759644	0.030528	99
Es	0.359288	-1.139355	-0.281943	99
Es	0.094686	-0.687281	0.276015	99
Es	0.294894	0.123582	0.114262	99
Es	0.320363	-1.446371	-1.477456	99
Es	-1.417990	-0.825693	0.430447	99
Es	0.512061	3.169700	1.109299	99
Es	0.626043	-1.605465	-0.822911	99
Es	-0.669046	-0.752328	0.349415	99
Es	0.235093	2.385878	0.963153	99
Es	0.752245	1.333574	1.644587	99
Es	-0.204834	1.479503	-1.125699	99
Es	-0.170953	0.972796	-1.349804	99
45
Properties=species:S:1:pos:R:3:Z:I:1 energy=-341.1035865499874 field_type=dipole dipole="0.000000 0.000000 0.000000" charge=0
C	-1.418016	-0.825686	0.430439	6
C	0.094654	-0.687456	0.276079	6
C	0.626054	-1.605476	-0.822941	6
N	0.467514	0.701854	-0.003501	7
O	-0.048877	1.211634	-1.201961	8
C	0.586984	1.643664	0.986419	6
N	0.462184	2.919284	0.855149	7
H	-1.791166	-0.175226	1.228739	1
H	-1.689256	-1.856776	0.681499	1
H	-1.945066	-0.554506	-0.491311	1
H	0.566984	-0.996176	1.217159	1
H	0.177124	-1.376976	-1.795561	1
H	0.409554	-2.653676	-0.590501	1
H	1.711733	-1.498916	-0.925311	1
H	0.758714	1.453324	-1.694870	1
H	0.830924	1.215774	1.973409	1
H	0.199964	3.085334	-0.122941	1
Es	0.475810	-2.321059	-0.654757	99
Es	0.782522	2.418879	0.827279	99
Es	0.466753	0.702113	-0.003246	99
Es	-1.417983	-0.825692	0.430444	99
Es	0.626043	-1.605464	-0.822910	99
Es	0.094690	-0.687278	0.276020	99
Es	-1.660317	-0.381064	0.974555	99
Es	1.358442	-1.528751	-0.887479	99
Es	-0.169533	0.974275	-1.350227	99
Es	-0.205789	1.480126	-1.125087	99
Es	0.359389	-1.139072	-0.282184	99
Es	0.234836	2.385612	0.962906	99
Es	-1.764415	-0.642069	-0.194979	99
Es	-0.669402	-0.752318	0.349336	99
Es	0.320760	-1.446170	-1.477424	99
Es	0.383389	1.340980	-1.450995	99
Es	0.587001	1.643473	0.986333	99
Es	-0.048532	1.211621	-1.201874	99
Es	0.419147	-0.879865	0.920002	99
Es	0.752057	1.333559	1.644606	99
Es	0.311665	3.018904	0.268119	99
Es	0.406413	1.095734	0.431303	99
Es	0.512237	3.169038	1.109362	99
Es	0.462127	2.918885	0.854793	99
Es	0.185533	0.977509	-0.671347	99
Es	0.297354	0.122491	0.113578	99
Es	0.768644	0.759290	0.030737	99
Es	-1.592857	-1.535637	0.603508	99
45
Properties=species:S:1:pos:R:3:Z:I:1 energy=-341.1035865499874 field_type=dipole dipole="0.000000 0.000000 0.000000" charge=0
C	-1.418016	-0.825686	0.430439	6
C	0.094654	-0.687456	0.276079	6
C	0.626054	-1.605476	-0.822941	6
N	0.467514	0.701854	-0.003501	7
O	-0.048877	1.211634	-1.201961	8
C	0.586984	1.643664	0.986419	6
N	0.462184	2.919284	0.855149	7
H	-1.791166	-0.175226	1.228739	1
H	-1.689256	-1.856776	0.681499	1
H	-1.945066	-0.554506	-0.491311	1
H	0.566984	-0.996176	1.217159	1
H	0.177124	-1.376976	-1.795561	1
H	0.409554	-2.653676	-0.590501	1
H	1.711733	-1.498916	-0.925311	1
H	0.758714	1.453324	-1.694870	1
H	0.830924	1.215774	1.973409	1
H	0.199964	3.085334	-0.122941	1
Es	0.185421	0.977016	-0.671571	99
Es	-0.169249	0.975001	-1.349749	99
Es	-0.669784	-0.752163	0.349442	99
Es	0.311731	3.020129	0.268314	99
Es	0.466983	0.702010	-0.003455	99
Es	0.476124	-2.321623	-0.654784	99
Es	0.626043	-1.605464	-0.822909	99
Es	-1.417987	-0.825693	0.430445	99
Es	0.752078	1.333465	1.644597	99
Es	0.513464	3.168030	1.109138	99
Es	0.383072	1.339376	-1.451083	99
Es	0.587000	1.643473	0.986333	99
Es	0.359504	-1.139078	-0.282113	99
Es	-0.048570	1.211601	-1.201916	99
Es	0.419039	-0.879959	0.919939	99
Es	0.764146	0.758586	0.030663	99
Es	-1.592795	-1.536196	0.603623	99
Es	0.782129	2.418324	0.826748	99
Es	1.357595	-1.528573	-0.887410	99
Es	0.298503	0.121914	0.113378	99
Es	-1.764129	-0.641724	-0.194884	99
Es	0.233864	2.386046	0.963180	99
Es	0.321073	-1.445827	-1.477402	99
Es	0.462129	2.918872	0.854812	99
Es	0.409761	1.097118	0.431771	99
Es	-0.205792	1.481730	-1.125002	99
Es	0.094688	-0.687279	0.276016	99
Es	-1.660056	-0.381062	0.974250	99
45
Properties=species:S:1:pos:R:3:Z:I:1 energy=-341.1035865499874 field_type=dipole dipole="0.000000 0.000000 0.000000" charge=0
C	-1.418016	-0.825686	0.430439	6
C	0.094654	-0.687456	0.276079	6
C	0.626054	-1.605476	-0.822941	6
N	0.467514	0.701854	-0.003501	7
O	-0.048877	1.211634	-1.201961	8
C	0.586984	1.643664	0.986419	6
N	0.462184	2.919284	0.855149	7
H	-1.791166	-0.175226	1.228739	1
H	-1.689256	-1.856776	0.681499	1
H	-1.945066	-0.554506	-0.491311	1
H	0.566984	-0.996176	1.217159	1
H	0.177124	-1.376976	-1.795561	1
H	0.409554	-2.653676	-0.590501	1
H	1.711733	-1.498916	-0.925311	1
H	0.758714	1.453324	-1.694870	1
H	0.830924	1.215774	1.973409	1
H	0.199964	3.085334	-0.122941	1
Es	0.359505	-1.139004	-0.282390	99
Es	-1.659780	-0.381073	0.974024	99
Es	0.586999	1.643473	0.986333	99
Es	-0.048484	1.211580	-1.201858	99
Es	-0.669962	-0.752019	0.349383	99
Es	0.466696	0.702260	-0.003014	99
Es	0.094687	-0.687275	0.276014	99
Es	0.752006	1.333416	1.644647	99
Es	-0.207408	1.481648	-1.125284	99
Es	0.382659	1.340437	-1.449415	99
Es	0.626043	-1.605464	-0.822910	99
Es	0.311843	3.020529	0.268439	99
Es	-1.592636	-1.536599	0.603788	99
Es	0.462134	2.918865	0.854813	99
Es	-0.167010	0.974943	-1.350962	99
Es	0.409334	1.097046	0.431729	99
Es	-1.764002	-0.641481	-0.194863	99
Es	1.357054	-1.528302	-0.887426	99
Es	0.782490	2.419168	0.826558	99
Es	0.321284	-1.445654	-1.477226	99
Es	-1.417986	-0.825692	0.430443	99
Es	0.300001	0.121323	0.112844	99
Es	0.185619	0.976065	-0.671984	99
Es	0.512779	3.167722	1.109422	99
Es	0.234193	2.385184	0.962669	99
Es	0.418938	-0.880120	0.920068	99
Es	0.762707	0.759196	0.031140	99
Es	0.476281	-2.322123	-0.654612	99
45
Properties=species:S:1:pos:R:3:Z:I:1 energy=-341.1035865499874 field_type=dipole dipole="0.000000 0.000000 0.000000" charge=0
C	-1.418016	-0.825686	0.430439	6
C	0.094654	-0.687456	0.276079	6
C	0.626054	-1.605476	-0.822941	6
N	0.467514	0.701854	-0.003501	7
O	-0.048877	1.211634	-1.201961	8
C	0.586984	1.643664	0.986419	6
N	0.462184	2.919284	0.855149	7
H	-1.791166	-0.175226	1.228739	1
H	-1.689256	-1.856776	0.681499	1
H	-1.945066	-0.554506	-0.491311	1
H	0.566984	-0.996176	1.217159	1
H	0.177124	-1.376976	-1.795561	1
H	0.409554	-2.653676	-0.590501	1
H	1.711733	-1.498916	-0.925311	1
H	0.758714	1.453324	-1.694870	1
H	0.830924	1.215774	1.973409	1
H	0.199964	3.085334	-0.122941	1
Es	0.513592	3.167266	1.109087	99
Es	0.411330	1.097831	0.431982	99
Es	0.233144	2.386936	0.962661	99
Es	-0.048473	1.211593	-1.201817	99
Es	0.312202	3.021070	0.268461	99
Es	0.462131	2.918860	0.854803	99
Es	0.466832	0.702048	-0.003371	99
Es	-1.763702	-0.641379	-0.194794	99
Es	0.185219	0.975034	-0.672289	99
Es	0.626043	-1.605464	-0.822910	99
Es	0.586993	1.643472	0.986334	99
Es	0.359648	-1.138954	-0.282330	99
Es	1.356606	-1.528302	-0.887393	99
Es	-0.209295	1.480462	-1.125220	99
Es	-1.417986	-0.825693	0.430445	99
Es	0.782362	2.417409	0.826752	99
Es	-1.592647	-1.536903	0.603856	99
Es	-1.659689	-0.380945	0.973819	99
Es	0.476369	-2.322376	-0.654623	99
Es	0.382583	1.342439	-1.448188	99
Es	-0.670284	-0.751981	0.349460	99
Es	0.301122	0.120857	0.112625	99
Es	0.094687	-0.687279	0.276016	99
Es	0.418863	-0.880151	0.919988	99
Es	-0.164755	0.975266	-1.351893	99
Es	0.751938	1.333359	1.644603	99
Es	0.321484	-1.445483	-1.477214	99
Es	0.759670	0.759057	0.031523	99
45
Properties=species:S:1:pos:R:3:Z:I:1 energy=-341.1035865499874 field_type=dipole dipole="0.000000 0.000000 0.000000" charge=0
C	-1.418016	-0.825686	0.430439	6
C	0.094654	-0.687456	0.276079	6
C	0.626054	-1.605476	-0.822941	6
N	0.467514	0.701854	-0.003501	7
O	-0.048877	1.211634	-1.201961	8
C	0.586984	1.643664	0.986419	6
N	0.462184	2.919284	0.855149	7
H	-1.791166	-0.175226	1.228739	1
H	-1.689256	-1.856776	0.681499	1
H	-1.945066	-0.554506	-0.491311	1
H	0.566984	-0.996176	1.217159	1
H	0.177124	-1.376976	-1.795561	1
H	0.409554	-2.653676	-0.590501	1
H	1.711733	-1.498916	-0.925311	1
H	0.758714	1.453324	-1.694870	1
H	0.830924	1.215774	1.973409	1
H	0.199964	3.085334	-0.122941	1
Es	-1.659550	-0.380898	0.973630	99
Es	0.418610	-0.880155	0.920061	99
Es	-1.592698	-1.537143	0.603927	99
Es	0.587000	1.643472	0.986334	99
Es	1.356059	-1.528259	-0.887181	99
Es	0.466733	0.702117	-0.003242	99
Es	0.301664	0.120684	0.112548	99
Es	-1.763538	-0.641251	-0.194689	99
Es	0.758379	0.758903	0.031496	99
Es	0.094687	-0.687280	0.276012	99
Es	0.359771	-1.138988	-0.282343	99
Es	0.311843	3.021603	0.268573	99
Es	0.233737	2.384182	0.962955	99
Es	-0.670300	-0.751955	0.349311	99
Es	0.751926	1.333421	1.644572	99
Es	-0.208394	1.482264	-1.124832	99
Es	0.321856	-1.445269	-1.477287	99
Es	0.412217	1.098022	0.432096	99
Es	0.382326	1.340560	-1.448649	99
Es	-0.165349	0.976113	-1.351252	99
Es	0.626043	-1.605464	-0.822910	99
Es	0.782591	2.420247	0.826116	99
Es	0.513116	3.166689	1.109096	99
Es	0.462136	2.918877	0.854824	99
Es	-1.417986	-0.825692	0.430443	99
Es	0.185193	0.974309	-0.672708	99
Es	0.476491	-2.322681	-0.654642	99
Es	-0.048579	1.211622	-1.201887	99
45
Properties=species:S:1:pos:R:3:Z:I:1 energy=-341.1035865499874 field_type=dipole dipole="0.000000 0.000000 0.000000" charge=0
C	-1.418016	-0.825686	0.430439	6
C	0.094654	-0.687456	0.276079	6
C	0.626054	-1.605476	-0.822941	6
N	0.467514	0.701854	-0.003501	7
O	-0.048877	1.211634	-1.201961	8
C	0.586984	1.643664	0.986419	6
N	0.462184	2.919284	0.855149	7
H	-1.791166	-0.175226	1.228739	1
H	-1.689256	-1.856776	0.681499	1
H	-1.945066	-0.554506	-0.491311	1
H	0.566984	-0.996176	1.217159	1
H	0.177124	-1.376976	-1.795561	1
H	0.409554	-2.653676	-0.590501	1
H	1.711733	-1.498916	-0.925311	1
H	0.758714	1.453324	-1.694870	1
H	0.830924	1.215774	1.973409	1
H	0.199964	3.085334	-0.122941	1
Es	0.756375	0.758521	0.031187	99
Es	0.476647	-2.322915	-0.654503	99
Es	0.586998	1.643472	0.986333	99
Es	0.359679	-1.138794	-0.282523	99
Es	0.233079	2.385077	0.962548	99
Es	0.466799	0.702511	-0.002632	99
Es	0.782711	2.419279	0.826307	99
Es	0.462144	2.918867	0.854808	99
Es	0.513254	3.166318	1.109155	99
Es	-0.048592	1.211631	-1.201895	99
Es	0.418791	-0.880386	0.919941	99
Es	-0.670599	-0.751895	0.349457	99
Es	0.185234	0.973684	-0.672941	99
Es	0.382089	1.341546	-1.447680	99
Es	0.094687	-0.687279	0.276014	99
Es	-0.163870	0.976157	-1.351956	99
Es	-1.417987	-0.825693	0.430445	99
Es	-1.763474	-0.641065	-0.194674	99
Es	-1.659337	-0.380925	0.973520	99
Es	0.302560	0.120351	0.112365	99
Es	0.413133	1.098457	0.432128	99
Es	1.355760	-1.528110	-0.887332	99
Es	0.626043	-1.605464	-0.822909	99
Es	0.321820	-1.445230	-1.477137	99
Es	-0.209449	1.481867	-1.124866	99
Es	0.312311	3.022116	0.268658	99
Es	0.751820	1.333301	1.644546	99
Es	-1.592638	-1.537349	0.604007	99
45
Properties=species:S:1:pos:R:3:Z:I:1 energy=-341.1035865499874 field_type=dipole dipole="0.000000 0.000000 0.000000" charge=0
C	-1.418016	-0.825686	0.430439	6
C	0.094654	-0.687456	0.276079	6
C	0.626054	-1.605476	-0.822941	6
N	0.467514	0.701854	-0.003501	7
O	-0.048877	1.211634	-1.201961	8
C	0.586984	1.643664	0.986419	6
N	0.462184	2.919284	0.855149	7
H	-1.791166	-0.175226	1.228739	1
H	-1.689256	-1.856776	0.681499	1
H	-1.945066	-0.554506	-0.491311	1
H	0.566984	-0.996176	1.217159	1
H	0.177124	-1.376976	-1.795561	1
H	0.409554	-2.653676	-0.590501	1
H	1.711733	-1.498916	-0.925311	1
H	0.758714	1.453324	-1.694870	1
H	0.830924	1.215774	1.973409	1
H	0.199964	3.085334	-0.122941	1
Es	0.359831	-1.138821	-0.282410	99
Es	0.303612	0.119954	0.112030	99
Es	0.462134	2.918883	0.854814	99
Es	-1.763221	-0.640946	-0.194579	99
Es	0.094687	-0.687278	0.276013	99
Es	0.754520	0.759044	0.032153	99
Es	0.782868	2.419491	0.826173	99
Es	0.418733	-0.880357	0.919945	99
Es	0.321930	-1.445061	-1.476966	99
Es	-1.592622	-1.537610	0.603971	99
Es	-0.165012	0.976678	-1.351489	99
Es	0.381943	1.340900	-1.448381	99
Es	0.185741	0.973311	-0.673445	99
Es	0.232993	2.384953	0.962794	99
Es	-0.208637	1.482393	-1.124196	99
Es	-0.048530	1.211613	-1.201858	99
Es	0.312135	3.022535	0.268662	99
Es	0.626043	-1.605464	-0.822910	99
Es	0.513444	3.165842	1.108872	99
Es	0.751697	1.333261	1.644561	99
Es	0.587001	1.643472	0.986332	99
Es	0.413766	1.098814	0.432274	99
Es	-0.670816	-0.751892	0.349479	99
Es	0.476684	-2.323146	-0.654611	99
Es	1.355537	-1.528021	-0.887359	99
Es	0.466835	0.702084	-0.003309	99
Es	-1.417980	-0.825692	0.430444	99
Es	-1.659328	-0.380892	0.973367	99
45
Properties=species:S:1:pos:R:3:Z:I:1 energy=-341.1035865499874 field_type=dipole dipole="0.000000 0.000000 0.000000" charge=0
C	-1.418016	-0.825686	0.430439	6
C	0.094654	-0.687456	0.276079	6
C	0.626054	-1.605476	-0.822941	6
N	0.467514	0.701854	-0.003501	7
O	-0.048877	1.211634	-1.201961	8
C	0.586984	1.643664	0.986419	6
N	0.462184	2.919284	0.855149	7
H	-1.791166	-0.175226	1.228739	1
H	-1.689256	-1.856776	0.681499	1
H	-1.945066	-0.554506	-0.491311	1
H	0.566984	-0.996176	1.217159	1
H	0.177124	-1.376976	-1.795561	1
H	0.409554	-2.653676	-0.590501	1
H	1.711733	-1.498916	-0.925311	1
H	0.758714	1.453324	-1.694870	1
H	0.830924	1.215774	1.973409	1
H	0.199964	3.085334	-0.122941	1
Es	-0.207984	1.482851	-1.123622	99
Es	0.462136	2.918868	0.854820	99
Es	-0.048537	1.211615	-1.201884	99
Es	-0.165224	0.977323	-1.352143	99
Es	0.755330	0.759555	0.032357	99
Es	0.626043	-1.605464	-0.822910	99
Es	-1.763247	-0.640777	-0.194518	99
Es	-1.659143	-0.380977	0.973267	99
Es	0.751773	1.333273	1.644579	99
Es	0.359829	-1.138728	-0.282524	99
Es	0.782480	2.418762	0.826053	99
Es	0.322148	-1.444996	-1.476981	99
Es	0.412827	1.098281	0.432058	99
Es	1.355158	-1.528043	-0.887305	99
Es	0.303936	0.119878	0.111929	99
Es	0.513746	3.165708	1.109202	99
Es	0.232764	2.385544	0.962388	99
Es	-1.417984	-0.825693	0.430445	99
Es	-0.670912	-0.751707	0.349401	99
Es	-1.592464	-1.537821	0.604043	99
Es	0.185504	0.972242	-0.673906	99
Es	0.381742	1.340938	-1.447734	99
Es	0.466686	0.702172	-0.003145	99
Es	0.418593	-0.880458	0.919976	99
Es	0.312375	3.022833	0.268703	99
Es	0.476725	-2.323324	-0.654523	99
Es	0.094686	-0.687279	0.276014	99
Es	0.587001	1.643472	0.986332	99
45
Properties=species:S:1:pos:R:3:Z:I:1 energy=-341.1035865499874 field_type=dipole dipole="0.000000 0.000000 0.000000" charge=0
C	-1.418016	-0.825686	0.430439	6
C	0.094654	-0.687456	0.276079	6
C	0.626054	-1.605476	-0.822941	6
N	0.467514	0.701854	-0.003501	7
O	-0.048877	1.211634	-1.201961	8
C	0.586984	1.643664	0.986419	6
N	0.462184	2.919284	0.855149	7
H	-1.791166	-0.175226	1.228739	1
H	-1.689256	-1.856776	0.681499	1
H	-1.945066	-0.554506	-0.491311	1
H	0.566984	-0.996176	1.217159	1
H	0.177124	-1.376976	-1.795561	1
H	0.409554	-2.653676	-0.590501	1
H	1.711733	-1.498916	-0.925311	1
H	0.758714	1.453324	-1.694870	1
H	0.830924	1.215774	1.973409	1
H	0.199964	3.085334	-0.122941	1
Es	0.303884	0.119858	0.111902	99
Es	-1.417987	-0.825693	0.430445	99
Es	0.359798	-1.138936	-0.282591	99
Es	0.751674	1.333175	1.644597	99
Es	-0.670718	-0.751751	0.349536	99
Es	-0.162072	0.977150	-1.352425	99
Es	0.232242	2.385259	0.962987	99
Es	0.381502	1.340924	-1.446419	99
Es	0.322239	-1.444930	-1.477015	99
Es	0.418553	-0.880345	0.919896	99
Es	0.752773	0.758591	0.032140	99
Es	-1.659187	-0.380846	0.973013	99
Es	-0.210405	1.483236	-1.124812	99
Es	0.626043	-1.605465	-0.822911	99
Es	0.415295	1.099463	0.432392	99
Es	0.185015	0.972024	-0.673729	99
Es	0.476914	-2.323481	-0.654467	99
Es	-0.048499	1.211649	-1.201844	99
Es	-1.592687	-1.537783	0.604245	99
Es	0.466814	0.702068	-0.003332	99
Es	0.462134	2.918846	0.854802	99
Es	0.782671	2.419185	0.826104	99
Es	0.094686	-0.687278	0.276013	99
Es	0.312461	3.022664	0.268748	99
Es	0.587006	1.643472	0.986331	99
Es	1.354919	-1.527878	-0.887193	99
Es	0.514045	3.165790	1.108449	99
Es	-1.763128	-0.640923	-0.194487	99
45
Properties=species:S:1:pos:R:3:Z:I:1 energy=-341.1035865499874 field_type=dipole dipole="0.000000 0.000000 0.000000" charge=0
C	-1.418016	-0.825686	0.430439	6
C	0.094654	-0.687456	0.276079	6
C	0.626054	-1.605476	-0.822941	6
N	0.467514	0.701854	-0.003501	7
O	-0.048877	1.211634	-1.201961	8
C	0.586984	1.643664	0.986419	6
N	0.462184	2.919284	0.855149	7
H	-1.791166	-0.175226	1.228739	1
H	-1.689256	-1.856776	0.681499	1
H	-1.945066	-0.554506	-0.491311	1
H	0.566984	-0.996176	1.217159	1
H	0.177124	-1.376976	-1.795561	1
H	0.409554	-2.653676	-0.590501	1
H	1.711733	-1.498916	-0.925311	1
H	0.758714	1.453324	-1.694870	1
H	0.830924	1.215774	1.973409	1
H	0.199964	3.085334	-0.122941	1
Es	0.303926	0.119821	0.112035	99
Es	0.782775	2.420098	0.825774	99
Es	0.466848	0.702048	-0.003370	99
Es	0.185262	0.971514	-0.674318	99
Es	0.476962	-2.323625	-0.654364	99
Es	-0.671091	-0.751694	0.349638	99
Es	1.354683	-1.527863	-0.887381	99
Es	0.587000	1.643472	0.986332	99
Es	0.232757	2.384306	0.962736	99
Es	0.462133	2.918856	0.854795	99
Es	0.381393	1.340421	-1.447000	99
Es	0.322250	-1.444956	-1.476853	99
Es	0.312210	3.023234	0.268834	99
Es	-1.417985	-0.825692	0.430443	99
Es	0.751664	1.333139	1.644557	99
Es	-1.763021	-0.640806	-0.194459	99
Es	0.626043	-1.605464	-0.822909	99
Es	-0.208784	1.483796	-1.123679	99
Es	0.513658	3.165283	1.108870	99
Es	-1.659068	-0.380806	0.973014	99
Es	0.418695	-0.880459	0.919833	99
Es	0.752778	0.758768	0.032289	99
Es	-0.048534	1.211622	-1.201874	99
Es	0.359840	-1.138690	-0.282761	99
Es	0.415252	1.099316	0.432265	99
Es	-1.592468	-1.538017	0.604219	99
Es	0.094687	-0.687277	0.276014	99
Es	-0.163881	0.977704	-1.352308	99
45
Properties=species:S:1:pos:R:3:Z:I:1 energy=-341.1035865499874 field_type=dipole dipole="0.000000 0.000000 0.000000" charge=0
C	-1.418016	-0.825686	0.430439	6
C	0.094654	-0.687456	0.276079	6
C	0.626054	-1.605476	-0.822941	6
N	0.467514	0.701854	-0.003501	7
O	-0.048877	1.211634	-1.201961	8
C	0.586984	1.643664	0.986419	6
N	0.462184	2.919284	0.855149	7
H	-1.791166	-0.175226	1.228739	1
H	-1.689256	-1.856776	0.681499	1
H	-1.945066	-0.554506	-0.491311	1
H	0.566984	-0.996176	1.217159	1
H	0.177124	-1.376976	-1.795561	1
H	0.409554	-2.653676	-0.590501	1
H	1.711733	-1.498916	-0.925311	1
H	0.758714	1.453324	-1.694870	1
H	0.830924	1.215774	1.973409	1
H	0.199964	3.085334	-0.122941	1
Es	-0.671197	-0.751681	0.349476	99
Es	0.626043	-1.605464	-0.822910	99
Es	0.586998	1.643472	0.986333	99
Es	0.312427	3.023971	0.268740	99
Es	0.305291	0.119390	0.111600	99
Es	-1.417988	-0.825693	0.430445	99
Es	0.415186	1.099251	0.432306	99
Es	0.231833	2.385924	0.963003	99
Es	-0.048549	1.211599	-1.201894	99
Es	0.782390	2.418492	0.825874	99
Es	1.354683	-1.527917	-0.887265	99
Es	0.462133	2.918862	0.854812	99
Es	0.476754	-2.323713	-0.654539	99
Es	0.322528	-1.444862	-1.476750	99
Es	0.466744	0.702112	-0.003251	99
Es	0.514712	3.164562	1.108509	99
Es	-0.208460	1.483803	-1.123569	99
Es	0.751731	1.333196	1.644518	99
Es	-1.658970	-0.380835	0.972971	99
Es	-1.762964	-0.640689	-0.194357	99
Es	0.751396	0.759168	0.032706	99
Es	0.418506	-0.880456	0.919846	99
Es	-0.164154	0.977906	-1.352316	99
Es	0.185525	0.971349	-0.674412	99
Es	-1.592493	-1.538140	0.604179	99
Es	0.359855	-1.138680	-0.282650	99
Es	0.381337	1.340400	-1.447049	99
Es	0.094687	-0.687277	0.276015	99
45
Properties=species:S:1:pos:R:3:Z:I:1 energy=-341.1035865499874 field_type=dipole dipole="0.000000 0.000000 0.000000" charge=0
C	-1.418016	-0.825686	0.430439	6
C	0.094654	-0.687456	0.276079	6
C	0.626054	-1.605476	-0.822941	6
N	0.467514	0.701854	-0.003501	7
O	-0.048877	1.211634	-1.201961	8
C	0.586984	1.643664	0.986419	6
N	0.462184	2.919284	0.855149	7
H	-1.791166	-0.175226	1.228739	1
H	-1.689256	-1.856776	0.681499	1
H	-1.945066	-0.554506	-0.491311	1
H	0.566984	-0.996176	1.217159	1
H	0.177124	-1.376976	-1.795561	1
H	0.409554	-2.653676	-0.590501	1
H	1.711733	-1.498916	-0.925311	1
H	0.758714	1.453324	-1.694870	1
H	0.830924	1.215774	1.973409	1
H	0.199964	3.085334	-0.122941	1
Es	0.305270	0.119413	0.111604	99
Es	0.587000	1.643472	0.986332	99
Es	0.232266	2.384690	0.962629	99
Es	-0.048537	1.211637	-1.201879	99
Es	0.626043	-1.605465	-0.822910	99
Es	0.751513	0.759110	0.032591	99
Es	0.466646	0.702253	-0.003010	99
Es	0.322586	-1.444866	-1.476771	99
Es	0.359927	-1.138580	-0.282716	99
Es	-0.164692	0.978628	-1.352333	99
Es	0.312502	3.024054	0.268858	99
Es	-1.658838	-0.380933	0.972868	99
Es	-1.592639	-1.538197	0.604196	99
Es	0.418514	-0.880486	0.919843	99
Es	-0.671139	-0.751736	0.349426	99
Es	0.462140	2.918901	0.854835	99
Es	-1.762979	-0.640536	-0.194262	99
Es	0.476981	-2.323864	-0.654408	99
Es	1.354340	-1.527812	-0.887261	99
Es	0.751641	1.333199	1.644559	99
Es	0.094689	-0.687277	0.276016	99
Es	0.514187	3.164523	1.108834	99
Es	0.782515	2.419650	0.825634	99
Es	0.185221	0.970637	-0.674755	99
Es	0.381085	1.338879	-1.446778	99
Es	-0.207368	1.485359	-1.123500	99
Es	-1.417987	-0.825693	0.430445	99
Es	0.415097	1.099088	0.432284	99
45
Properties=species:S:1:pos:R:3:Z:I:1 energy=-341.1035865499874 field_type=dipole dipole="0.000000 0.000000 0.000000" charge=0
C	-1.418016	-0.825686	0.430439	6
C	0.094654	-0.687456	0.276079	6
C	0.626054	-1.605476	-0.822941	6
N	0.467514	0.701854	-0.003501	7
O	-0.048877	1.211634	-1.201961	8
C	0.586984	1.643664	0.986419	6
N	0.462184	2.919284	0.855149	7
H	-1.791166	-0.175226	1.228739	1
H	-1.689256	-1.856776	0.681499	1
H	-1.945066	-0.554506	-0.491311	1
H	0.566984	-0.996176	1.217159	1
H	0.177124	-1.376976	-1.795561	1
H	0.409554	-2.653676	-0.590501	1
H	1.711733	-1.498916	-0.925311	1
H	0.758714	1.453324	-1.694870	1
H	0.830924	1.215774	1.973409	1
H	0.199964	3.085334	-0.122941	1
Es	-0.048549	1.211660	-1.201864	99
Es	0.626043	-1.605464	-0.822909	99
Es	-0.161286	0.978230	-1.352856	99
Es	0.305416	0.119359	0.111590	99
Es	0.232062	2.384544	0.962845	99
Es	0.381194	1.341514	-1.445755	99
Es	-0.671141	-0.751644	0.349393	99
Es	0.416872	1.099982	0.432546	99
Es	-1.658865	-0.380864	0.972796	99
Es	0.462135	2.918865	0.854810	99
Es	0.184910	0.970423	-0.674568	99
Es	0.586998	1.643472	0.986333	99
Es	0.466668	0.702204	-0.003090	99
Es	-1.592565	-1.538279	0.604244	99
Es	0.322555	-1.444817	-1.476723	99
Es	-1.762868	-0.640571	-0.194279	99
Es	-0.210676	1.483290	-1.124071	99
Es	-1.417988	-0.825693	0.430445	99
Es	0.513984	3.165039	1.108492	99
Es	0.751605	1.333068	1.644533	99
Es	1.354336	-1.527829	-0.887303	99
Es	0.782882	2.419894	0.825670	99
Es	0.094685	-0.687277	0.276015	99
Es	0.749776	0.758470	0.032345	99
Es	0.359983	-1.138614	-0.282779	99
Es	0.418410	-0.880541	0.919925	99
Es	0.312492	3.023511	0.268949	99
Es	0.476916	-2.323883	-0.654361	99
45
Properties=species:S:1:pos:R:3:Z:I:1 energy=-341.1035865499874 field_type=dipole dipole="0.000000 0.000000 0.000000" charge=0
C	-1.418016	-0.825686	0.430439	6
C	0.094654	-0.687456	0.276079	6
C	0.626054	-1.605476	-0.822941	6
N	0.467514	0.701854	-0.003501	7
O	-0.048877	1.211634	-1.201961	8
C	0.586984	1.643664	0.986419	6
N	0.462184	2.919284	0.855149	7
H	-1.791166	-0.175226	1.228739	1
H	-1.689256	-1.856776	0.681499	1
H	-1.945066	-0.554506	-0.491311	1
H	0.566984	-0.996176	1.217159	1
H	0.177124	-1.376976	-1.795561	1
H	0.409554	-2.653676	-0.590501	1
H	1.711733	-1.498916	-0.925311	1
H	0.758714	1.453324	-1.694870	1
H	0.830924	1.215774	1.973409	1
H	0.199964	3.085334	-0.122941	1
Es	-0.048601	1.211629	-1.201891	99
Es	0.466677	0.702164	-0.003155	99
Es	0.359996	-1.138572	-0.282647	99
Es	-0.671269	-0.751566	0.349450	99
Es	0.476999	-2.323936	-0.654406	99
Es	0.626043	-1.605465	-0.822910	99
Es	0.586999	1.643472	0.986332	99
Es	0.094685	-0.687276	0.276013	99
Es	0.750086	0.759140	0.032886	99
Es	0.514597	3.164837	1.108598	99
Es	0.184986	0.969696	-0.675027	99
Es	-1.762891	-0.640472	-0.194173	99
Es	-1.592486	-1.538407	0.604243	99
Es	0.232029	2.384399	0.962884	99
Es	-1.417987	-0.825693	0.430445	99
Es	-0.209123	1.484495	-1.123581	99
Es	0.322526	-1.444739	-1.476714	99
Es	-0.162478	0.978954	-1.352812	99
Es	0.415803	1.099449	0.432411	99
Es	0.380943	1.340336	-1.445882	99
Es	-1.658802	-0.380954	0.972718	99
Es	0.312391	3.023820	0.269038	99
Es	0.418505	-0.880589	0.919840	99
Es	0.306002	0.119199	0.111386	99
Es	1.354183	-1.527846	-0.887351	99
Es	0.782462	2.419949	0.825327	99
Es	0.462136	2.918859	0.854810	99
Es	0.751575	1.333165	1.644540	99
45
Properties=species:S:1:pos:R:3:Z:I:1 energy=-341.1035865499874 field_type=dipole dipole="0.000000 0.000000 0.000000" charge=0
C	-1.418016	-0.825686	0.430439	6
C	0.094654	-0.687456	0.276079	6
C	0.626054	-1.605476	-0.822941	6
N	0.467514	0.701854	-0.003501	7
O	-0.048877	1.211634	-1.201961	8
C	0.586984	1.643664	0.986419	6
N	0.462184	2.919284	0.855149	7
H	-1.791166	-0.175226	1.228739	1
H	-1.689256	-1.856776	0.681499	1
H	-1.945066	-0.554506	-0.491311	1
H	0.566984	-0.996176	1.217159	1
H	0.177124	-1.376976	-1.795561	1
H	0.409554	-2.653676	-0.590501	1
H	1.711733	-1.498916	-0.925311	1
H	0.758714	1.453324	-1.694870	1
H	0.830924	1.215774	1.973409	1
H	0.199964	3.085334	-0.122941	1
Es	0.360142	-1.138622	-0.282706	99
Es	-1.417985	-0.825694	0.430445	99
Es	0.417575	1.100178	0.432596	99
Es	0.748273	0.758551	0.032860	99
Es	0.467139	0.701964	-0.003548	99
Es	-0.162711	0.979441	-1.352335	99
Es	0.322583	-1.444729	-1.476578	99
Es	0.184658	0.969477	-0.674959	99
Es	0.626044	-1.605465	-0.822911	99
Es	0.462141	2.918906	0.854833	99
Es	-1.658779	-0.380841	0.972625	99
Es	0.094687	-0.687278	0.276014	99
Es	0.586995	1.643472	0.986333	99
Es	0.514776	3.164148	1.108491	99
Es	-0.671426	-0.751649	0.349542	99
Es	0.782542	2.418989	0.825514	99
Es	0.418468	-0.880474	0.919695	99
Es	0.305749	0.119271	0.111562	99
Es	0.381081	1.339686	-1.446234	99
Es	0.477054	-2.324074	-0.654388	99
Es	0.312626	3.024487	0.269018	99
Es	-0.208828	1.484899	-1.123645	99
Es	-0.048609	1.211641	-1.201903	99
Es	0.231470	2.385353	0.962804	99
Es	-1.592498	-1.538415	0.604368	99
Es	0.751604	1.333134	1.644500	99
Es	1.354034	-1.527758	-0.887406	99
Es	-1.762821	-0.640548	-0.194217	99
45
Properties=species:S:1:pos:R:3:Z:I:1 energy=-341.1035865499874 field_type=dipole dipole="0.000000 0.000000 0.000000" charge=0
C	-1.418016	-0.825686	0.430439	6
C	0.094654	-0.687456	0.276079	6
C	0.626054	-1.605476	-0.822941	6
N	0.467514	0.701854	-0.003501	7
O	-0.048877	1.211634	-1.201961	8
C	0.586984	1.643664	0.986419	6
N	0.462184	2.919284	0.855149	7
H	-1.791166	-0.175226	1.228739	1
H	-1.689256	-1.856776	0.681499	1
H	-1.945066	-0.554506	-0.491311	1
H	0.566984	-0.996176	1.217159	1
H	0.177124	-1.376976	-1.795561	1
H	0.409554	-2.653676	-0.590501	1
H	1.711733	-1.498916	-0.925311	1
H	0.758714	1.453324	-1.694870	1
H	0.830924	1.215774	1.973409	1
H	0.199964	3.085334	-0.122941	1
Es	-0.048547	1.211637	-1.201909	99
Es	0.466717	0.702126	-0.003224	99
Es	0.306429	0.119022	0.111372	99
Es	-1.592423	-1.538489	0.604267	99
Es	0.747272	0.758379	0.032693	99
Es	0.462123	2.918923	0.854852	99
Es	0.476975	-2.324118	-0.654495	99
Es	-1.658766	-0.380832	0.972700	99
Es	0.782780	2.420074	0.825481	99
Es	0.514207	3.163797	1.108521	99
Es	0.418279	1.100383	0.432637	99
Es	-1.762818	-0.640518	-0.194129	99
Es	-0.210347	1.483644	-1.123564	99
Es	0.418403	-0.880512	0.919789	99
Es	-0.671462	-0.751619	0.349355	99
Es	0.586998	1.643472	0.986333	99
Es	0.322788	-1.444802	-1.476488	99
Es	1.354034	-1.527778	-0.887377	99
Es	0.360033	-1.138452	-0.282657	99
Es	0.626043	-1.605464	-0.822909	99
Es	-0.161322	0.979140	-1.352932	99
Es	0.094687	-0.687277	0.276014	99
Es	0.751642	1.333120	1.644493	99
Es	0.381229	1.341413	-1.445528	99
Es	0.312525	3.024763	0.268989	99
Es	0.184606	0.969368	-0.675131	99
Es	0.231886	2.384339	0.962773	99
Es	-1.417987	-0.825693	0.430445	99
45
Properties=species:S:1:pos:R:3:Z:I:1 energy=-341.1035865499874 field_type=dipole dipole="0.000000 0.000000 0.000000" charge=0
C	-1.418016	-0.825686	0.430439	6
C	0.094654	-0.687456	0.276079	6
C	0.626054	-1.605476	-0.822941	6
N	0.467514	0.701854	-0.003501	7
O	-0.048877	1.211634	-1.201961	8
C	0.586984	1.643664	0.986419	6
N	0.462184	2.919284	0.855149	7
H	-1.791166	-0.175226	1.228739	1
H	-1.689256	-1.856776	0.681499	1
H	-1.945066	-0.554506	-0.491311	1
H	0.566984	-0.996176	1.217159	1
H	0.177124	-1.376976	-1.795561	1
H	0.409554	-2.653676	-0.590501	1
H	1.711733	-1.498916	-0.925311	1
H	0.758714	1.453324	-1.694870	1
H	0.830924	1.215774	1.973409	1
H	0.199964	3.085334	-0.122941	1
Es	0.380861	1.340221	-1.445764	99
Es	-0.671565	-0.751722	0.349415	99
Es	0.312443	3.024687	0.269055	99
Es	0.418413	-0.880622	0.919781	99
Es	-1.762624	-0.640430	-0.194146	99
Es	0.322741	-1.444710	-1.476556	99
Es	-0.161948	0.979715	-1.352637	99
Es	-1.658673	-0.380740	0.972713	99
Es	0.417999	1.100391	0.432613	99
Es	-1.417988	-0.825693	0.430445	99
Es	0.747687	0.758498	0.032791	99
Es	0.184642	0.968839	-0.675303	99
Es	-1.592520	-1.538549	0.604213	99
Es	0.462138	2.918860	0.854827	99
Es	0.306189	0.119107	0.111429	99
Es	0.782789	2.420453	0.825360	99
Es	0.586999	1.643471	0.986332	99
Es	0.751544	1.333029	1.644502	99
Es	0.477136	-2.324193	-0.654404	99
Es	0.514313	3.163942	1.108428	99
Es	-0.048614	1.211628	-1.201911	99
Es	0.359949	-1.138563	-0.282826	99
Es	1.353916	-1.527632	-0.887289	99
Es	0.231948	2.383983	0.962911	99
Es	-0.209404	1.484790	-1.123301	99
Es	0.466885	0.702030	-0.003409	99
Es	0.626043	-1.605464	-0.822909	99
Es	0.094687	-0.687278	0.276014	99
