49
Properties=species:S:1:pos:R:3:Z:I:1 energy=-326.33847497008924 field_type=dipole dipole="0.000000 0.000000 0.000000" charge=0
C	-1.429739	-1.036881	0.173610	6
C	0.068011	-0.752082	0.297460	6
C	0.659241	-1.583622	1.439020	6
O	0.703721	-1.191452	-0.905170	8
C	0.370231	0.745189	0.534260	6
C	-0.143139	1.705288	-0.545870	6
N	0.426601	1.405048	-1.859360	7
H	-1.856909	-0.564932	-0.717410	1
H	-1.979519	-0.688802	1.054060	1
H	-1.611229	-2.111892	0.057140	1
H	0.216431	-1.317591	2.404350	1
H	1.744281	-1.441231	1.503230	1
H	0.499931	-2.654501	1.267150	1
H	0.534011	-0.490301	-1.573390	1
H	1.457901	0.879499	0.613680	1
H	-0.056679	1.054178	1.496980	1
H	0.123191	2.731828	-0.270080	1
H	-1.234999	1.665198	-0.607410	1
H	1.437121	1.563559	-1.826120	1
H	0.071551	2.083498	-2.536130	1
Es	0.426718	1.405542	-1.859191	99
Es	0.350480	-1.394972	2.097382	99
Es	0.541929	-2.308473	1.322217	99
Es	0.068094	-0.752117	0.297303	99
Es	0.453943	-1.004827	-0.457429	99
Es	0.108343	1.213631	-0.019039	99
Es	0.370206	0.745218	0.534229	99
Es	1.115205	0.837639	0.582530	99
Es	-0.143061	1.705230	-0.545996	99
Es	0.703576	-1.191141	-0.905123	99
Es	0.598732	-0.831270	-1.239367	99
Es	-1.429751	-1.036865	0.173621	99
Es	0.041522	2.414858	-0.347686	99
Es	-1.548166	-1.766504	0.102015	99
Es	-1.716956	-0.703804	-0.431461	99
Es	-0.700620	-0.883100	0.242023	99
Es	0.357230	1.053326	-1.960602	99
Es	0.363484	-1.167084	0.883284	99
Es	1.396198	-1.476572	1.485546	99
Es	0.564161	-1.457935	-0.986815	99
Es	1.006615	-1.175045	-0.846034	99
Es	0.191645	1.550485	-1.296680	99
Es	0.208893	0.017724	0.409157	99
Es	-1.803028	-0.793050	0.779921	99
Es	0.659229	-1.583608	1.439032	99
Es	0.072267	0.957335	1.189770	99
Es	1.031706	1.517038	-1.828073	99
Es	-0.889874	1.675326	-0.592732	99
Es	0.214079	1.825311	-2.256386	99
49
Properties=species:S:1:pos:R:3:Z:I:1 energy=-326.33847497008924 field_type=dipole dipole="0.000000 0.000000 0.000000" charge=0
C	-1.429739	-1.036881	0.173610	6
C	0.068011	-0.752082	0.297460	6
C	0.659241	-1.583622	1.439020	6
O	0.703721	-1.191452	-0.905170	8
C	0.370231	0.745189	0.534260	6
C	-0.143139	1.705288	-0.545870	6
N	0.426601	1.405048	-1.859360	7
H	-1.856909	-0.564932	-0.717410	1
H	-1.979519	-0.688802	1.054060	1
H	-1.611229	-2.111892	0.057140	1
H	0.216431	-1.317591	2.404350	1
H	1.744281	-1.441231	1.503230	1
H	0.499931	-2.654501	1.267150	1
H	0.534011	-0.490301	-1.573390	1
H	1.457901	0.879499	0.613680	1
H	-0.056679	1.054178	1.496980	1
H	0.123191	2.731828	-0.270080	1
H	-1.234999	1.665198	-0.607410	1
H	1.437121	1.563559	-1.826120	1
H	0.071551	2.083498	-2.536130	1
Es	0.357189	1.053397	-1.960566	99
Es	0.560573	-1.453788	-0.987032	99
Es	0.541925	-2.308369	1.322374	99
Es	-1.429750	-1.036865	0.173621	99
Es	0.426707	1.405546	-1.859183	99
Es	0.703625	-1.191288	-0.905107	99
Es	-0.143060	1.705231	-0.545995	99
Es	1.006873	-1.180992	-0.845250	99
Es	0.659230	-1.583609	1.439032	99
Es	0.068094	-0.752117	0.297304	99
Es	1.396046	-1.476861	1.485565	99
Es	0.072433	0.957132	1.189758	99
Es	1.114829	0.837519	0.582801	99
Es	0.214160	1.825825	-2.256586	99
Es	0.191848	1.550504	-1.296604	99
Es	0.041291	2.414903	-0.347762	99
Es	0.370207	0.745219	0.534227	99
Es	-1.802751	-0.793111	0.779982	99
Es	1.031440	1.516575	-1.827979	99
Es	-0.889629	1.675376	-0.592912	99
Es	-0.700772	-0.882975	0.241920	99
Es	0.350546	-1.394876	2.097494	99
Es	0.363540	-1.167114	0.883133	99
Es	-1.717080	-0.703579	-0.431541	99
Es	0.601810	-0.829290	-1.239927	99
Es	0.108384	1.213796	-0.019098	99
Es	0.454148	-1.004805	-0.457508	99
Es	-1.548060	-1.766661	0.102080	99
Es	0.209006	0.017573	0.409176	99
49
Properties=species:S:1:pos:R:3:Z:I:1 energy=-326.33847497008924 field_type=dipole dipole="0.000000 0.000000 0.000000" charge=0
C	-1.429739	-1.036881	0.173610	6
C	0.068011	-0.752082	0.297460	6
C	0.659241	-1.583622	1.439020	6
O	0.703721	-1.191452	-0.905170	8
C	0.370231	0.745189	0.534260	6
C	-0.143139	1.705288	-0.545870	6
N	0.426601	1.405048	-1.859360	7
H	-1.856909	-0.564932	-0.717410	1
H	-1.979519	-0.688802	1.054060	1
H	-1.611229	-2.111892	0.057140	1
H	0.216431	-1.317591	2.404350	1
H	1.744281	-1.441231	1.503230	1
H	0.499931	-2.654501	1.267150	1
H	0.534011	-0.490301	-1.573390	1
H	1.457901	0.879499	0.613680	1
H	-0.056679	1.054178	1.496980	1
H	0.123191	2.731828	-0.270080	1
H	-1.234999	1.665198	-0.607410	1
H	1.437121	1.563559	-1.826120	1
H	0.071551	2.083498	-2.536130	1
Es	-0.143061	1.705232	-0.545994	99
Es	0.659230	-1.583608	1.439031	99
Es	1.006979	-1.182349	-0.844536	99
Es	0.041221	2.414871	-0.347863	99
Es	0.350624	-1.395017	2.097481	99
Es	0.108332	1.213793	-0.018977	99
Es	-1.716889	-0.703458	-0.431731	99
Es	-1.548101	-1.766684	0.102154	99
Es	0.208919	0.017633	0.409240	99
Es	0.703562	-1.191173	-0.905135	99
Es	1.395808	-1.476770	1.485692	99
Es	-1.429751	-1.036864	0.173621	99
Es	-1.802745	-0.793013	0.779938	99
Es	0.542123	-2.308518	1.322328	99
Es	0.068095	-0.752118	0.297304	99
Es	0.191428	1.549667	-1.296211	99
Es	-0.889544	1.675489	-0.593031	99
Es	0.426717	1.405547	-1.859189	99
Es	0.072590	0.957144	1.189807	99
Es	0.453572	-1.004963	-0.457771	99
Es	1.114739	0.837414	0.582736	99
Es	0.602568	-0.829009	-1.240571	99
Es	0.214306	1.826178	-2.256569	99
Es	0.560334	-1.452641	-0.986787	99
Es	0.363465	-1.167013	0.883095	99
Es	0.370206	0.745220	0.534229	99
Es	-0.700831	-0.883169	0.242038	99
Es	0.357424	1.054298	-1.961038	99
Es	1.031479	1.516180	-1.827874	99
49
Properties=species:S:1:pos:R:3:Z:I:1 energy=-326.33847497008924 field_type=dipole dipole="0.000000 0.000000 0.000000" charge=0
C	-1.429739	-1.036881	0.173610	6
C	0.068011	-0.752082	0.297460	6
C	0.659241	-1.583622	1.439020	6
O	0.703721	-1.191452	-0.905170	8
C	0.370231	0.745189	0.534260	6
C	-0.143139	1.705288	-0.545870	6
N	0.426601	1.405048	-1.859360	7
H	-1.856909	-0.564932	-0.717410	1
H	-1.979519	-0.688802	1.054060	1
H	-1.611229	-2.111892	0.057140	1
H	0.216431	-1.317591	2.404350	1
H	1.744281	-1.441231	1.503230	1
H	0.499931	-2.654501	1.267150	1
H	0.534011	-0.490301	-1.573390	1
H	1.457901	0.879499	0.613680	1
H	-0.056679	1.054178	1.496980	1
H	0.123191	2.731828	-0.270080	1
H	-1.234999	1.665198	-0.607410	1
H	1.437121	1.563559	-1.826120	1
H	0.071551	2.083498	-2.536130	1
Es	1.114820	0.837346	0.582756	99
Es	1.031478	1.515888	-1.827778	99
Es	0.659229	-1.583609	1.439032	99
Es	-0.700819	-0.883063	0.241932	99
Es	0.370206	0.745219	0.534230	99
Es	0.603064	-0.827544	-1.239826	99
Es	1.395890	-1.476790	1.485745	99
Es	0.350691	-1.395154	2.097399	99
Es	0.191715	1.549910	-1.296436	99
Es	-1.717000	-0.703414	-0.431711	99
Es	1.005075	-1.181477	-0.844824	99
Es	0.426699	1.405526	-1.859197	99
Es	-0.889604	1.675617	-0.593062	99
Es	0.363366	-1.166958	0.883197	99
Es	0.453505	-1.006560	-0.456664	99
Es	-1.802638	-0.793066	0.779937	99
Es	-0.143060	1.705231	-0.545996	99
Es	0.703560	-1.191147	-0.905173	99
Es	0.041214	2.414708	-0.347894	99
Es	-1.548041	-1.766756	0.102188	99
Es	0.542074	-2.308478	1.322335	99
Es	0.357153	1.054167	-1.960838	99
Es	0.214323	1.826479	-2.256641	99
Es	-1.429751	-1.036865	0.173621	99
Es	0.208813	0.017734	0.409239	99
Es	0.072625	0.957070	1.189762	99
Es	0.561811	-1.453383	-0.988290	99
Es	0.068094	-0.752117	0.297305	99
Es	0.108310	1.213784	-0.018931	99
49
Properties=species:S:1:pos:R:3:Z:I:1 energy=-326.33847497008924 field_type=dipole dipole="0.000000 0.000000 0.000000" charge=0
C	-1.429739	-1.036881	0.173610	6
C	0.068011	-0.752082	0.297460	6
C	0.659241	-1.583622	1.439020	6
O	0.703721	-1.191452	-0.905170	8
C	0.370231	0.745189	0.534260	6
C	-0.143139	1.705288	-0.545870	6
N	0.426601	1.405048	-1.859360	7
H	-1.856909	-0.564932	-0.717410	1
H	-1.979519	-0.688802	1.054060	1
H	-1.611229	-2.111892	0.057140	1
H	0.216431	-1.317591	2.404350	1
H	1.744281	-1.441231	1.503230	1
H	0.499931	-2.654501	1.267150	1
H	0.534011	-0.490301	-1.573390	1
H	1.457901	0.879499	0.613680	1
H	-0.056679	1.054178	1.496980	1
H	0.123191	2.731828	-0.270080	1
H	-1.234999	1.665198	-0.607410	1
H	1.437121	1.563559	-1.826120	1
H	0.071551	2.083498	-2.536130	1
Es	0.108326	1.213759	-0.018908	99
Es	0.072675	0.957093	1.189788	99
Es	0.357653	1.054565	-1.961239	99
Es	1.031129	1.515839	-1.827604	99
Es	0.556489	-1.447269	-0.988396	99
Es	-1.429751	-1.036865	0.173621	99
Es	1.007331	-1.189511	-0.844248	99
Es	0.208825	0.017827	0.409295	99
Es	0.542059	-2.308667	1.322373	99
Es	0.659229	-1.583608	1.439031	99
Es	-1.802564	-0.792934	0.779974	99
Es	-0.143060	1.705230	-0.545997	99
Es	-1.716903	-0.703363	-0.431656	99
Es	0.214441	1.826839	-2.256732	99
Es	-0.700782	-0.883080	0.241872	99
Es	0.426718	1.405520	-1.859211	99
Es	0.363330	-1.166990	0.883163	99
Es	0.453529	-1.006206	-0.457266	99
Es	0.041179	2.414764	-0.347975	99
Es	-1.547996	-1.766974	0.102168	99
Es	1.114652	0.837400	0.582769	99
Es	0.370206	0.745220	0.534229	99
Es	-0.889513	1.675644	-0.593093	99
Es	0.191371	1.549184	-1.296079	99
Es	0.350846	-1.395039	2.097406	99
Es	1.395683	-1.476826	1.485724	99
Es	0.068095	-0.752117	0.297302	99
Es	0.703512	-1.191176	-0.905117	99
Es	0.606092	-0.825963	-1.239778	99
