45
Properties=species:S:1:pos:R:3:Z:I:1 energy=-341.1872404585062 field_type=dipole dipole="0.000000 0.000000 0.000000" charge=0
C	-2.465627	-1.240102	-0.160240	6
C	-0.968057	-1.243172	0.088150	6
C	-0.368507	0.151278	-0.045750	6
O	1.045783	0.051018	0.194140	8
C	1.817873	1.152818	0.156820	6
N	3.101053	0.868828	0.443310	7
N	1.425933	2.335948	-0.140480	7
H	-2.867907	-2.253482	-0.065780	1
H	-2.695377	-0.875982	-1.166620	1
H	-2.981657	-0.600732	0.562920	1
H	-0.475147	-1.924032	-0.616240	1
H	-0.756747	-1.640092	1.088400	1
H	-0.814857	0.827258	0.692120	1
H	-0.537117	0.537108	-1.057180	1
H	3.371523	-0.083932	0.245890	1
H	3.742143	1.577368	0.110760	1
H	0.426693	2.359898	-0.330220	1
Es	1.817863	1.152498	0.156894	99
Es	-2.812738	-0.800600	0.333634	99
Es	0.819186	2.330016	-0.248769	99
Es	-2.735381	-1.928548	-0.095472	99
Es	-0.674404	0.617080	0.455596	99
Es	-2.465590	-1.240097	-0.160235	99
Es	3.476471	1.277077	0.230209	99
Es	-0.968082	-1.243115	0.088134	99
Es	1.597910	1.840688	-0.307834	99
Es	-0.661142	-0.537842	0.020781	99
Es	-0.634133	-1.700670	-0.398680	99
Es	1.504248	1.934659	0.244680	99
Es	-0.368235	0.151244	-0.045702	99
Es	3.100886	0.868824	0.442723	99
Es	2.559858	0.973522	0.249397	99
Es	-1.716707	-1.229861	-0.038223	99
Es	1.171419	-0.091786	-0.027632	99
Es	-0.828110	-1.505608	0.772350	99
Es	1.298087	0.500586	0.175421	99
Es	1.090436	-0.035355	0.470253	99
Es	-2.617336	-0.988436	-0.847134	99
Es	-0.485277	0.420191	-0.736927	99
Es	3.017436	0.909265	0.728361	99
Es	1.425690	2.335504	-0.140433	99
Es	1.643604	2.626487	-0.157116	99
Es	1.045682	0.051405	0.194118	99
Es	0.534204	0.138649	0.098806	99
Es	3.257291	0.309560	0.305430	99
45
Properties=species:S:1:pos:R:3:Z:I:1 energy=-341.1872404585062 field_type=dipole dipole="0.000000 0.000000 0.000000" charge=0
C	-2.465627	-1.240102	-0.160240	6
C	-0.968057	-1.243172	0.088150	6
C	-0.368507	0.151278	-0.045750	6
O	1.045783	0.051018	0.194140	8
C	1.817873	1.152818	0.156820	6
N	3.101053	0.868828	0.443310	7
N	1.425933	2.335948	-0.140480	7
H	-2.867907	-2.253482	-0.065780	1
H	-2.695377	-0.875982	-1.166620	1
H	-2.981657	-0.600732	0.562920	1
H	-0.475147	-1.924032	-0.616240	1
H	-0.756747	-1.640092	1.088400	1
H	-0.814857	0.827258	0.692120	1
H	-0.537117	0.537108	-1.057180	1
H	3.371523	-0.083932	0.245890	1
H	3.742143	1.577368	0.110760	1
H	0.426693	2.359898	-0.330220	1
Es	1.166466	-0.077105	-0.031899	99
Es	1.297961	0.500339	0.177131	99
Es	2.555746	0.975131	0.253155	99
Es	1.045643	0.051394	0.194057	99
Es	1.644475	2.624150	-0.157038	99
Es	-2.735879	-1.929057	-0.095287	99
Es	-2.812308	-0.800591	0.333142	99
Es	1.096521	-0.050723	0.470137	99
Es	1.597187	1.841281	-0.307919	99
Es	3.017349	0.912355	0.711120	99
Es	-0.634370	-1.700662	-0.398386	99
Es	1.504507	1.934357	0.244754	99
Es	-0.828065	-1.505767	0.772014	99
Es	-2.617249	-0.988155	-0.846874	99
Es	-0.485065	0.420637	-0.736695	99
Es	-0.368235	0.151244	-0.045704	99
Es	3.476475	1.277755	0.232865	99
Es	0.533581	0.139570	0.101573	99
Es	-1.716755	-1.229954	-0.038053	99
Es	-0.968082	-1.243116	0.088134	99
Es	-0.661399	-0.537861	0.020849	99
Es	3.261385	0.303795	0.316360	99
Es	1.817862	1.152497	0.156898	99
Es	-0.673924	0.617139	0.455164	99
Es	-2.465587	-1.240096	-0.160235	99
Es	3.100848	0.868827	0.442710	99
Es	1.425683	2.335507	-0.140434	99
Es	0.818363	2.332449	-0.248909	99
45
Properties=species:S:1:pos:R:3:Z:I:1 energy=-341.1872404585062 field_type=dipole dipole="0.000000 0.000000 0.000000" charge=0
C	-2.465627	-1.240102	-0.160240	6
C	-0.968057	-1.243172	0.088150	6
C	-0.368507	0.151278	-0.045750	6
O	1.045783	0.051018	0.194140	8
C	1.817873	1.152818	0.156820	6
N	3.101053	0.868828	0.443310	7
N	1.425933	2.335948	-0.140480	7
H	-2.867907	-2.253482	-0.065780	1
H	-2.695377	-0.875982	-1.166620	1
H	-2.981657	-0.600732	0.562920	1
H	-0.475147	-1.924032	-0.616240	1
H	-0.756747	-1.640092	1.088400	1
H	-0.814857	0.827258	0.692120	1
H	-0.537117	0.537108	-1.057180	1
H	3.371523	-0.083932	0.245890	1
H	3.742143	1.577368	0.110760	1
H	0.426693	2.359898	-0.330220	1
Es	-0.674128	0.617499	0.455236	99
Es	1.149039	0.003024	-0.041376	99
Es	3.263012	0.301797	0.320251	99
Es	0.818122	2.334640	-0.249151	99
Es	-0.484784	0.420403	-0.736535	99
Es	3.100733	0.868848	0.442623	99
Es	1.817862	1.152496	0.156898	99
Es	-2.465588	-1.240095	-0.160233	99
Es	1.045657	0.051474	0.194213	99
Es	2.552779	0.976731	0.256826	99
Es	1.425682	2.335516	-0.140443	99
Es	1.121255	-0.132071	0.438795	99
Es	-2.735653	-1.929233	-0.095475	99
Es	-0.634110	-1.701079	-0.398686	99
Es	-2.812569	-0.800038	0.333435	99
Es	-2.616787	-0.988450	-0.846801	99
Es	-0.368230	0.151245	-0.045701	99
Es	-0.968082	-1.243115	0.088135	99
Es	1.292216	0.501007	0.209733	99
Es	-0.828341	-1.505487	0.771967	99
Es	0.532291	0.139913	0.109533	99
Es	3.475415	1.277186	0.233088	99
Es	1.503044	1.934987	0.243253	99
Es	1.644289	2.622674	-0.153620	99
Es	-0.661637	-0.537785	0.020737	99
Es	1.598755	1.840130	-0.309453	99
Es	3.019799	0.913077	0.703427	99
Es	-1.716904	-1.229956	-0.038047	99
45
Properties=species:S:1:pos:R:3:Z:I:1 energy=-341.1872404585062 field_type=dipole dipole="0.000000 0.000000 0.000000" charge=0
C	-2.465627	-1.240102	-0.160240	6
C	-0.968057	-1.243172	0.088150	6
C	-0.368507	0.151278	-0.045750	6
O	1.045783	0.051018	0.194140	8
C	1.817873	1.152818	0.156820	6
N	3.101053	0.868828	0.443310	7
N	1.425933	2.335948	-0.140480	7
H	-2.867907	-2.253482	-0.065780	1
H	-2.695377	-0.875982	-1.166620	1
H	-2.981657	-0.600732	0.562920	1
H	-0.475147	-1.924032	-0.616240	1
H	-0.756747	-1.640092	1.088400	1
H	-0.814857	0.827258	0.692120	1
H	-0.537117	0.537108	-1.057180	1
H	3.371523	-0.083932	0.245890	1
H	3.742143	1.577368	0.110760	1
H	0.426693	2.359898	-0.330220	1
Es	-2.735417	-1.929315	-0.095664	99
Es	1.045628	0.051503	0.194347	99
Es	-0.368230	0.151244	-0.045703	99
Es	3.264612	0.300648	0.322674	99
Es	1.644087	2.620403	-0.152615	99
Es	-0.484605	0.420250	-0.736479	99
Es	1.598955	1.840511	-0.310624	99
Es	1.130601	-0.157757	0.422297	99
Es	-2.616742	-0.988402	-0.846767	99
Es	-0.968082	-1.243116	0.088136	99
Es	-1.716929	-1.229871	-0.038099	99
Es	-2.465589	-1.240096	-0.160235	99
Es	0.817810	2.336980	-0.249256	99
Es	-0.661726	-0.537769	0.020783	99
Es	3.474854	1.277215	0.234832	99
Es	1.291290	0.500545	0.216811	99
Es	-2.812568	-0.799916	0.333871	99
Es	3.018494	0.913610	0.699855	99
Es	1.425697	2.335498	-0.140429	99
Es	-0.674255	0.617737	0.455334	99
Es	-0.634074	-1.701278	-0.399077	99
Es	-0.828462	-1.505477	0.771935	99
Es	3.100804	0.868825	0.442636	99
Es	1.817863	1.152499	0.156895	99
Es	0.532302	0.140137	0.110539	99
Es	1.140774	0.028914	-0.033154	99
Es	2.552878	0.977092	0.256173	99
Es	1.503167	1.934724	0.243614	99
45
Properties=species:S:1:pos:R:3:Z:I:1 energy=-341.1872404585062 field_type=dipole dipole="0.000000 0.000000 0.000000" charge=0
C	-2.465627	-1.240102	-0.160240	6
C	-0.968057	-1.243172	0.088150	6
C	-0.368507	0.151278	-0.045750	6
O	1.045783	0.051018	0.194140	8
C	1.817873	1.152818	0.156820	6
N	3.101053	0.868828	0.443310	7
N	1.425933	2.335948	-0.140480	7
H	-2.867907	-2.253482	-0.065780	1
H	-2.695377	-0.875982	-1.166620	1
H	-2.981657	-0.600732	0.562920	1
H	-0.475147	-1.924032	-0.616240	1
H	-0.756747	-1.640092	1.088400	1
H	-0.814857	0.827258	0.692120	1
H	-0.537117	0.537108	-1.057180	1
H	3.371523	-0.083932	0.245890	1
H	3.742143	1.577368	0.110760	1
H	0.426693	2.359898	-0.330220	1
Es	-0.484594	0.420227	-0.736616	99
Es	0.531744	0.140323	0.110980	99
Es	-0.634052	-1.701367	-0.399265	99
Es	-0.661906	-0.537696	0.020672	99
Es	-0.968081	-1.243114	0.088133	99
Es	3.264752	0.300242	0.323762	99
Es	2.552589	0.977299	0.256691	99
Es	1.643576	2.619458	-0.151504	99
Es	-2.735173	-1.929331	-0.095634	99
Es	1.817861	1.152497	0.156901	99
Es	1.425685	2.335514	-0.140434	99
Es	1.502522	1.935511	0.243435	99
Es	1.133414	0.051460	-0.021445	99
Es	1.139780	-0.179226	0.404012	99
Es	3.100827	0.868835	0.442665	99
Es	-1.716940	-1.229913	-0.038102	99
Es	1.290051	0.499305	0.223142	99
Es	-0.828498	-1.505384	0.772220	99
Es	-2.812673	-0.799696	0.334057	99
Es	-2.616562	-0.988561	-0.846939	99
Es	0.817822	2.337917	-0.249468	99
Es	1.045667	0.051411	0.194120	99
Es	3.020127	0.915329	0.700967	99
Es	1.599942	1.839756	-0.311335	99
Es	-0.674245	0.617781	0.455486	99
Es	-2.465589	-1.240096	-0.160235	99
Es	-0.368232	0.151243	-0.045702	99
Es	3.473320	1.275614	0.232066	99
45
Properties=species:S:1:pos:R:3:Z:I:1 energy=-341.1872404585062 field_type=dipole dipole="0.000000 0.000000 0.000000" charge=0
C	-2.465627	-1.240102	-0.160240	6
C	-0.968057	-1.243172	0.088150	6
C	-0.368507	0.151278	-0.045750	6
O	1.045783	0.051018	0.194140	8
C	1.817873	1.152818	0.156820	6
N	3.101053	0.868828	0.443310	7
N	1.425933	2.335948	-0.140480	7
H	-2.867907	-2.253482	-0.065780	1
H	-2.695377	-0.875982	-1.166620	1
H	-2.981657	-0.600732	0.562920	1
H	-0.475147	-1.924032	-0.616240	1
H	-0.756747	-1.640092	1.088400	1
H	-0.814857	0.827258	0.692120	1
H	-0.537117	0.537108	-1.057180	1
H	3.371523	-0.083932	0.245890	1
H	3.742143	1.577368	0.110760	1
H	0.426693	2.359898	-0.330220	1
Es	1.130613	0.060593	-0.017571	99
Es	-2.616455	-0.988496	-0.847254	99
Es	3.021480	0.915138	0.698041	99
Es	1.425691	2.335505	-0.140446	99
Es	1.503401	1.933140	0.243983	99
Es	1.643006	2.618525	-0.150365	99
Es	-0.368233	0.151244	-0.045703	99
Es	1.599570	1.842162	-0.313221	99
Es	-2.812559	-0.799686	0.334098	99
Es	1.045653	0.051409	0.194146	99
Es	1.288821	0.498281	0.226508	99
Es	3.472673	1.275377	0.232234	99
Es	0.817819	2.338911	-0.249319	99
Es	-2.735024	-1.929426	-0.095444	99
Es	-1.717059	-1.229816	-0.038133	99
Es	-2.465588	-1.240096	-0.160235	99
Es	-0.828717	-1.505312	0.772420	99
Es	2.551206	0.978170	0.258825	99
Es	1.144168	-0.187565	0.395142	99
Es	-0.674178	0.617797	0.455492	99
Es	3.265295	0.299695	0.324453	99
Es	1.817863	1.152496	0.156895	99
Es	-0.661939	-0.537666	0.020676	99
Es	3.100852	0.868828	0.442688	99
Es	-0.484581	0.420232	-0.736714	99
Es	-0.634031	-1.701523	-0.399262	99
Es	-0.968082	-1.243114	0.088135	99
Es	0.531471	0.140534	0.112559	99
45
Properties=species:S:1:pos:R:3:Z:I:1 energy=-341.1872404585062 field_type=dipole dipole="0.000000 0.000000 0.000000" charge=0
C	-2.465627	-1.240102	-0.160240	6
C	-0.968057	-1.243172	0.088150	6
C	-0.368507	0.151278	-0.045750	6
O	1.045783	0.051018	0.194140	8
C	1.817873	1.152818	0.156820	6
N	3.101053	0.868828	0.443310	7
N	1.425933	2.335948	-0.140480	7
H	-2.867907	-2.253482	-0.065780	1
H	-2.695377	-0.875982	-1.166620	1
H	-2.981657	-0.600732	0.562920	1
H	-0.475147	-1.924032	-0.616240	1
H	-0.756747	-1.640092	1.088400	1
H	-0.814857	0.827258	0.692120	1
H	-0.537117	0.537108	-1.057180	1
H	3.371523	-0.083932	0.245890	1
H	3.742143	1.577368	0.110760	1
H	0.426693	2.359898	-0.330220	1
Es	3.266221	0.299440	0.331487	99
Es	-2.810944	-0.802025	0.333591	99
Es	1.505409	1.931328	0.250692	99
Es	2.555684	0.975444	0.250206	99
Es	1.644167	2.615427	-0.158224	99
Es	3.100873	0.868823	0.442738	99
Es	1.817863	1.152498	0.156900	99
Es	-0.485537	0.421897	-0.737754	99
Es	0.539446	0.134942	0.074105	99
Es	-2.735024	-1.929172	-0.094212	99
Es	-0.968082	-1.243115	0.088135	99
Es	-0.368234	0.151244	-0.045703	99
Es	-0.662068	-0.537582	0.020670	99
Es	1.193965	-0.235659	0.131513	99
Es	1.308898	0.482444	0.120603	99
Es	-0.635600	-1.699098	-0.398787	99
Es	1.052723	0.130265	0.391676	99
Es	0.818496	2.339402	-0.254007	99
Es	-2.617758	-0.986584	-0.848942	99
Es	1.425674	2.335513	-0.140435	99
Es	3.472078	1.273007	0.229305	99
Es	-2.465589	-1.240096	-0.160235	99
Es	-1.717035	-1.229872	-0.038230	99
Es	-0.673046	0.615890	0.455240	99
Es	-0.827489	-1.507351	0.774053	99
Es	1.595815	1.846356	-0.308510	99
Es	1.045710	0.051420	0.193826	99
Es	3.016521	0.920550	0.702928	99
