44
Properties=species:S:1:pos:R:3:Z:I:1 energy=-360.94849485537554 field_type=dipole dipole="0.000000 0.000000 0.000000" charge=0
C	-1.450796	-0.752616	-0.008706	6
C	0.039574	-0.610586	-0.295176	6
C	0.460494	-1.525836	-1.438696	6
O	0.318894	0.742294	-0.709826	8
C	0.579844	1.663784	0.246314	6
N	0.604264	1.413074	1.509174	7
O	0.911574	2.592334	2.200004	8
H	-1.755096	-0.092526	0.809784	1
H	-1.705086	-1.781066	0.264994	1
H	-2.046316	-0.464186	-0.881816	1
H	0.627004	-0.875596	0.591884	1
H	-0.071506	-1.273106	-2.362496	1
H	0.269914	-2.576216	-1.198706	1
H	1.528744	-1.404346	-1.647966	1
H	0.769634	2.649514	-0.208196	1
H	0.918854	2.295074	3.129434	1
Es	-1.847847	-0.561889	-0.608551	99
Es	-1.450769	-0.752626	-0.008710	99
Es	-0.711007	-0.678882	-0.149124	99
Es	0.318863	0.742235	-0.709422	99
Es	0.706655	2.323055	-0.052888	99
Es	0.405418	1.060566	-0.297952	99
Es	0.438621	-0.785849	0.305324	99
Es	1.187243	-1.445079	-1.574510	99
Es	0.884152	1.450204	0.971251	99
Es	0.091407	-1.354203	-2.061085	99
Es	0.223042	0.264401	-0.516062	99
Es	0.081693	0.862017	-0.828461	99
Es	0.579785	1.663576	0.246112	99
Es	0.777113	2.073756	1.891033	99
Es	0.460485	-1.525830	-1.438671	99
Es	-1.613204	-1.455368	0.175398	99
Es	0.914232	2.426513	2.694283	99
Es	0.247075	-1.066247	-0.875515	99
Es	0.579929	0.757575	-0.838707	99
Es	0.668208	2.778221	2.156622	99
Es	0.039593	-0.610339	-0.295297	99
Es	0.326058	-2.236629	-1.265105	99
Es	0.545339	1.098112	1.703441	99
Es	0.604355	1.413602	1.508848	99
Es	-1.653064	-0.308460	0.545348	99
Es	0.911583	2.592011	2.200150	99
Es	0.305128	1.579838	1.008406	99
Es	1.200543	2.667945	2.114614	99
44
Properties=species:S:1:pos:R:3:Z:I:1 energy=-360.94849485537554 field_type=dipole dipole="0.000000 0.000000 0.000000" charge=0
C	-1.450796	-0.752616	-0.008706	6
C	0.039574	-0.610586	-0.295176	6
C	0.460494	-1.525836	-1.438696	6
O	0.318894	0.742294	-0.709826	8
C	0.579844	1.663784	0.246314	6
N	0.604264	1.413074	1.509174	7
O	0.911574	2.592334	2.200004	8
H	-1.755096	-0.092526	0.809784	1
H	-1.705086	-1.781066	0.264994	1
H	-2.046316	-0.464186	-0.881816	1
H	0.627004	-0.875596	0.591884	1
H	-0.071506	-1.273106	-2.362496	1
H	0.269914	-2.576216	-1.198706	1
H	1.528744	-1.404346	-1.647966	1
H	0.769634	2.649514	-0.208196	1
H	0.918854	2.295074	3.129434	1
Es	0.882199	1.451746	0.971202	99
Es	0.091897	-1.354141	-2.064203	99
Es	0.576997	0.751845	-0.791394	99
Es	0.913962	2.429396	2.701016	99
Es	0.039592	-0.610337	-0.295299	99
Es	0.328111	-2.236177	-1.265338	99
Es	0.604361	1.413600	1.508850	99
Es	0.911479	2.592063	2.200132	99
Es	0.318780	0.742271	-0.709376	99
Es	-1.450767	-0.752625	-0.008710	99
Es	-0.711361	-0.678848	-0.149256	99
Es	0.307630	1.580618	1.008242	99
Es	0.706839	2.322961	-0.052583	99
Es	0.776898	2.073718	1.888581	99
Es	0.544564	1.096198	1.702016	99
Es	-1.652298	-0.307602	0.547567	99
Es	0.099144	0.859861	-0.876300	99
Es	1.192433	2.668754	2.114197	99
Es	1.183724	-1.446381	-1.573148	99
Es	0.579792	1.663573	0.246108	99
Es	0.246767	-1.066382	-0.875132	99
Es	0.676829	2.773934	2.154718	99
Es	-1.611110	-1.454692	0.174893	99
Es	0.395414	1.067768	-0.295807	99
Es	-1.847625	-0.562300	-0.611006	99
Es	0.218173	0.265049	-0.518039	99
Es	0.437722	-0.785811	0.307513	99
Es	0.460483	-1.525830	-1.438671	99
44
Properties=species:S:1:pos:R:3:Z:I:1 energy=-360.94849485537554 field_type=dipole dipole="0.000000 0.000000 0.000000" charge=0
C	-1.450796	-0.752616	-0.008706	6
C	0.039574	-0.610586	-0.295176	6
C	0.460494	-1.525836	-1.438696	6
O	0.318894	0.742294	-0.709826	8
C	0.579844	1.663784	0.246314	6
N	0.604264	1.413074	1.509174	7
O	0.911574	2.592334	2.200004	8
H	-1.755096	-0.092526	0.809784	1
H	-1.705086	-1.781066	0.264994	1
H	-2.046316	-0.464186	-0.881816	1
H	0.627004	-0.875596	0.591884	1
H	-0.071506	-1.273106	-2.362496	1
H	0.269914	-2.576216	-1.198706	1
H	1.528744	-1.404346	-1.647966	1
H	0.769634	2.649514	-0.208196	1
H	0.918854	2.295074	3.129434	1
Es	0.579785	1.663574	0.246108	99
Es	0.707241	2.322510	-0.052405	99
Es	-1.847762	-0.562873	-0.611523	99
Es	0.883669	1.450281	0.971099	99
Es	0.328728	-2.235116	-1.265729	99
Es	0.911519	2.592079	2.200138	99
Es	0.679092	2.767289	2.156680	99
Es	0.091707	-1.354669	-2.064852	99
Es	0.912980	2.430423	2.702485	99
Es	0.542075	1.097579	1.701363	99
Es	-1.652476	-0.307558	0.548697	99
Es	0.460484	-1.525830	-1.438671	99
Es	0.374158	1.075824	-0.297300	99
Es	0.604383	1.413619	1.508862	99
Es	-1.450770	-0.752626	-0.008710	99
Es	-1.610452	-1.453599	0.174293	99
Es	0.246517	-1.066584	-0.874657	99
Es	0.182883	0.850132	-0.978248	99
Es	0.209948	0.266209	-0.519887	99
Es	0.522374	0.752339	-0.686264	99
Es	0.039591	-0.610343	-0.295296	99
Es	0.437524	-0.785638	0.307813	99
Es	1.183354	-1.446920	-1.573072	99
Es	0.776508	2.073748	1.888168	99
Es	1.191510	2.673946	2.112035	99
Es	-0.711164	-0.679130	-0.149277	99
Es	0.319141	0.742192	-0.709375	99
Es	0.308080	1.581370	1.008293	99
44
Properties=species:S:1:pos:R:3:Z:I:1 energy=-360.94849485537554 field_type=dipole dipole="0.000000 0.000000 0.000000" charge=0
C	-1.450796	-0.752616	-0.008706	6
C	0.039574	-0.610586	-0.295176	6
C	0.460494	-1.525836	-1.438696	6
O	0.318894	0.742294	-0.709826	8
C	0.579844	1.663784	0.246314	6
N	0.604264	1.413074	1.509174	7
O	0.911574	2.592334	2.200004	8
H	-1.755096	-0.092526	0.809784	1
H	-1.705086	-1.781066	0.264994	1
H	-2.046316	-0.464186	-0.881816	1
H	0.627004	-0.875596	0.591884	1
H	-0.071506	-1.273106	-2.362496	1
H	0.269914	-2.576216	-1.198706	1
H	1.528744	-1.404346	-1.647966	1
H	0.769634	2.649514	-0.208196	1
H	0.918854	2.295074	3.129434	1
Es	0.039593	-0.610337	-0.295297	99
Es	1.182820	-1.447353	-1.572703	99
Es	-0.711015	-0.679197	-0.149264	99
Es	0.318667	0.742319	-0.709321	99
Es	0.215852	0.844813	-0.999245	99
Es	-1.652507	-0.307750	0.549476	99
Es	0.776567	2.073696	1.887863	99
Es	0.486039	0.754366	-0.666047	99
Es	0.542608	1.098303	1.700791	99
Es	0.208267	0.267430	-0.519769	99
Es	0.460484	-1.525831	-1.438672	99
Es	0.911578	2.592037	2.200135	99
Es	0.379540	1.077616	-0.296828	99
Es	0.884197	1.450153	0.970735	99
Es	-1.847930	-0.563160	-0.612125	99
Es	0.913241	2.431252	2.703621	99
Es	0.246245	-1.066803	-0.874324	99
Es	0.437398	-0.785579	0.308269	99
Es	0.091597	-1.355004	-2.065702	99
Es	0.707229	2.322253	-0.052289	99
Es	-1.609895	-1.452743	0.173911	99
Es	0.329330	-2.234229	-1.265903	99
Es	0.307095	1.581176	1.008732	99
Es	-1.450768	-0.752626	-0.008711	99
Es	0.604366	1.413613	1.508852	99
Es	0.579789	1.663579	0.246112	99
Es	1.189657	2.676681	2.110774	99
Es	0.680585	2.763554	2.157697	99
44
Properties=species:S:1:pos:R:3:Z:I:1 energy=-360.94849485537554 field_type=dipole dipole="0.000000 0.000000 0.000000" charge=0
C	-1.450796	-0.752616	-0.008706	6
C	0.039574	-0.610586	-0.295176	6
C	0.460494	-1.525836	-1.438696	6
O	0.318894	0.742294	-0.709826	8
C	0.579844	1.663784	0.246314	6
N	0.604264	1.413074	1.509174	7
O	0.911574	2.592334	2.200004	8
H	-1.755096	-0.092526	0.809784	1
H	-1.705086	-1.781066	0.264994	1
H	-2.046316	-0.464186	-0.881816	1
H	0.627004	-0.875596	0.591884	1
H	-0.071506	-1.273106	-2.362496	1
H	0.269914	-2.576216	-1.198706	1
H	1.528744	-1.404346	-1.647966	1
H	0.769634	2.649514	-0.208196	1
H	0.918854	2.295074	3.129434	1
Es	0.090852	-1.355258	-2.066494	99
Es	0.303077	1.579892	1.007582	99
Es	0.329574	-2.233025	-1.265564	99
Es	0.437705	-0.785891	0.308773	99
Es	0.232325	0.260770	-0.522104	99
Es	-1.450770	-0.752626	-0.008711	99
Es	0.775431	2.073655	1.888732	99
Es	1.187022	2.664045	2.115234	99
Es	0.883599	1.451637	0.972315	99
Es	0.548635	1.098388	1.699636	99
Es	0.916858	2.430329	2.703228	99
Es	0.460490	-1.525833	-1.438676	99
Es	0.445881	1.065123	-0.300046	99
Es	0.246244	-1.066776	-0.874176	99
Es	0.371682	0.813053	-1.023697	99
Es	0.579790	1.663573	0.246107	99
Es	0.319019	0.742177	-0.709420	99
Es	-0.710902	-0.679386	-0.149444	99
Es	-1.848846	-0.563340	-0.612980	99
Es	1.182927	-1.447866	-1.572351	99
Es	0.681183	2.776740	2.153419	99
Es	0.039591	-0.610347	-0.295295	99
Es	0.604369	1.413625	1.508866	99
Es	-1.652123	-0.308375	0.549633	99
Es	0.706011	2.322226	-0.052193	99
Es	0.238853	0.805337	-0.635976	99
Es	0.911516	2.592015	2.200141	99
Es	-1.609364	-1.451632	0.174228	99
44
Properties=species:S:1:pos:R:3:Z:I:1 energy=-360.94849485537554 field_type=dipole dipole="0.000000 0.000000 0.000000" charge=0
C	-1.450796	-0.752616	-0.008706	6
C	0.039574	-0.610586	-0.295176	6
C	0.460494	-1.525836	-1.438696	6
O	0.318894	0.742294	-0.709826	8
C	0.579844	1.663784	0.246314	6
N	0.604264	1.413074	1.509174	7
O	0.911574	2.592334	2.200004	8
H	-1.755096	-0.092526	0.809784	1
H	-1.705086	-1.781066	0.264994	1
H	-2.046316	-0.464186	-0.881816	1
H	0.627004	-0.875596	0.591884	1
H	-0.071506	-1.273106	-2.362496	1
H	0.269914	-2.576216	-1.198706	1
H	1.528744	-1.404346	-1.647966	1
H	0.769634	2.649514	-0.208196	1
H	0.918854	2.295074	3.129434	1
Es	0.683425	2.770100	2.154832	99
Es	0.039591	-0.610340	-0.295297	99
Es	0.329624	-2.232739	-1.265968	99
Es	0.437497	-0.785574	0.308745	99
Es	0.885120	1.449883	0.971329	99
Es	0.318568	0.742352	-0.709281	99
Es	1.182973	-1.448007	-1.572432	99
Es	-0.710858	-0.679486	-0.149383	99
Es	0.268291	0.835342	-1.019497	99
Es	0.706909	2.321963	-0.052216	99
Es	-1.450769	-0.752626	-0.008712	99
Es	0.394711	1.077809	-0.295582	99
Es	0.460485	-1.525830	-1.438671	99
Es	0.914079	2.431672	2.704381	99
Es	0.209206	0.266962	-0.520258	99
Es	0.246095	-1.066949	-0.874022	99
Es	-1.652418	-0.308214	0.550173	99
Es	-1.609195	-1.451289	0.173782	99
Es	0.417261	0.763862	-0.646658	99
Es	0.775186	2.073632	1.888320	99
Es	-1.848620	-0.563683	-0.612916	99
Es	0.305354	1.581149	1.008258	99
Es	0.911447	2.591948	2.200152	99
Es	0.091072	-1.355476	-2.066439	99
Es	0.543841	1.099422	1.699592	99
Es	0.604363	1.413619	1.508858	99
Es	1.187606	2.669153	2.113573	99
Es	0.579785	1.663574	0.246108	99
44
Properties=species:S:1:pos:R:3:Z:I:1 energy=-360.94849485537554 field_type=dipole dipole="0.000000 0.000000 0.000000" charge=0
C	-1.450796	-0.752616	-0.008706	6
C	0.039574	-0.610586	-0.295176	6
C	0.460494	-1.525836	-1.438696	6
O	0.318894	0.742294	-0.709826	8
C	0.579844	1.663784	0.246314	6
N	0.604264	1.413074	1.509174	7
O	0.911574	2.592334	2.200004	8
H	-1.755096	-0.092526	0.809784	1
H	-1.705086	-1.781066	0.264994	1
H	-2.046316	-0.464186	-0.881816	1
H	0.627004	-0.875596	0.591884	1
H	-0.071506	-1.273106	-2.362496	1
H	0.269914	-2.576216	-1.198706	1
H	1.528744	-1.404346	-1.647966	1
H	0.769634	2.649514	-0.208196	1
H	0.918854	2.295074	3.129434	1
Es	0.460484	-1.525832	-1.438670	99
Es	-0.710845	-0.679655	-0.149419	99
Es	-1.608961	-1.450878	0.173509	99
Es	0.579780	1.663575	0.246107	99
Es	0.263524	0.835626	-1.019110	99
Es	0.318719	0.742254	-0.709393	99
Es	1.182453	-1.448275	-1.572231	99
Es	-1.652342	-0.308165	0.550670	99
Es	0.039591	-0.610337	-0.295298	99
Es	0.884991	1.449932	0.971366	99
Es	0.707022	2.321882	-0.052157	99
Es	0.775674	2.073796	1.887696	99
Es	0.682772	2.760809	2.159054	99
Es	0.604371	1.413631	1.508864	99
Es	1.186679	2.678147	2.109601	99
Es	0.437292	-0.785537	0.309049	99
Es	0.543834	1.099367	1.699511	99
Es	0.417613	0.764699	-0.647610	99
Es	0.246040	-1.067041	-0.873851	99
Es	0.329910	-2.232392	-1.266094	99
Es	0.212984	0.266697	-0.520371	99
Es	0.915044	2.431692	2.704852	99
Es	0.911537	2.591990	2.200175	99
Es	-1.450772	-0.752626	-0.008711	99
Es	-1.848480	-0.563819	-0.613254	99
Es	0.305332	1.581221	1.008228	99
Es	0.091173	-1.355579	-2.066884	99
Es	0.395210	1.077045	-0.294858	99
44
Properties=species:S:1:pos:R:3:Z:I:1 energy=-360.94849485537554 field_type=dipole dipole="0.000000 0.000000 0.000000" charge=0
C	-1.450796	-0.752616	-0.008706	6
C	0.039574	-0.610586	-0.295176	6
C	0.460494	-1.525836	-1.438696	6
O	0.318894	0.742294	-0.709826	8
C	0.579844	1.663784	0.246314	6
N	0.604264	1.413074	1.509174	7
O	0.911574	2.592334	2.200004	8
H	-1.755096	-0.092526	0.809784	1
H	-1.705086	-1.781066	0.264994	1
H	-2.046316	-0.464186	-0.881816	1
H	0.627004	-0.875596	0.591884	1
H	-0.071506	-1.273106	-2.362496	1
H	0.269914	-2.576216	-1.198706	1
H	1.528744	-1.404346	-1.647966	1
H	0.769634	2.649514	-0.208196	1
H	0.918854	2.295074	3.129434	1
Es	0.330174	-2.232221	-1.266160	99
Es	0.269680	0.834228	-1.021005	99
Es	0.604366	1.413621	1.508854	99
Es	-0.710965	-0.679682	-0.149479	99
Es	0.318234	0.742869	-0.708532	99
Es	0.305351	1.581260	1.008240	99
Es	1.185904	2.676874	2.110103	99
Es	1.182020	-1.448390	-1.572155	99
Es	0.437194	-0.785535	0.309292	99
Es	0.911527	2.591965	2.200159	99
Es	0.884957	1.450130	0.971331	99
Es	0.775468	2.073772	1.887757	99
Es	0.039590	-0.610341	-0.295297	99
Es	0.211112	0.267877	-0.520207	99
Es	0.543989	1.099365	1.699180	99
Es	0.411907	0.764574	-0.646904	99
Es	-1.608576	-1.450505	0.173480	99
Es	0.091161	-1.355617	-2.067163	99
Es	0.579792	1.663572	0.246107	99
Es	-1.848615	-0.564015	-0.613616	99
Es	0.246092	-1.067058	-0.873717	99
Es	0.683321	2.761799	2.158636	99
Es	0.396999	1.076716	-0.294712	99
Es	0.915457	2.431821	2.705101	99
Es	-1.652189	-0.308219	0.550962	99
Es	0.706965	2.321824	-0.052103	99
Es	0.460484	-1.525831	-1.438672	99
Es	-1.450769	-0.752626	-0.008710	99
44
Properties=species:S:1:pos:R:3:Z:I:1 energy=-360.94849485537554 field_type=dipole dipole="0.000000 0.000000 0.000000" charge=0
C	-1.450796	-0.752616	-0.008706	6
C	0.039574	-0.610586	-0.295176	6
C	0.460494	-1.525836	-1.438696	6
O	0.318894	0.742294	-0.709826	8
C	0.579844	1.663784	0.246314	6
N	0.604264	1.413074	1.509174	7
O	0.911574	2.592334	2.200004	8
H	-1.755096	-0.092526	0.809784	1
H	-1.705086	-1.781066	0.264994	1
H	-2.046316	-0.464186	-0.881816	1
H	0.627004	-0.875596	0.591884	1
H	-0.071506	-1.273106	-2.362496	1
H	0.269914	-2.576216	-1.198706	1
H	1.528744	-1.404346	-1.647966	1
H	0.769634	2.649514	-0.208196	1
H	0.918854	2.295074	3.129434	1
Es	0.330283	-2.231892	-1.266238	99
Es	0.460484	-1.525830	-1.438671	99
Es	0.884743	1.450377	0.971043	99
Es	0.914618	2.432446	2.705510	99
Es	0.409430	0.765295	-0.645879	99
Es	-1.608422	-1.450388	0.173372	99
Es	0.398593	1.076258	-0.294430	99
Es	-1.848551	-0.564090	-0.613743	99
Es	0.685006	2.762853	2.157721	99
Es	-0.710926	-0.679654	-0.149497	99
Es	0.210515	0.268532	-0.520152	99
Es	-1.450770	-0.752626	-0.008711	99
Es	0.604366	1.413625	1.508906	99
Es	0.318835	0.742238	-0.709440	99
Es	0.774861	2.073864	1.887457	99
Es	0.437152	-0.785530	0.309467	99
Es	0.270518	0.833911	-1.021479	99
Es	1.185603	2.674922	2.111070	99
Es	0.579781	1.663575	0.246108	99
Es	1.181782	-1.448613	-1.571882	99
Es	0.543922	1.099153	1.699037	99
Es	0.091312	-1.355686	-2.067540	99
Es	0.305492	1.581349	1.008509	99
Es	0.245868	-1.067121	-0.873694	99
Es	0.911563	2.592013	2.200144	99
Es	0.039592	-0.610341	-0.295296	99
Es	-1.652143	-0.308184	0.551172	99
Es	0.707122	2.321772	-0.052094	99
44
Properties=species:S:1:pos:R:3:Z:I:1 energy=-360.94849485537554 field_type=dipole dipole="0.000000 0.000000 0.000000" charge=0
C	-1.450796	-0.752616	-0.008706	6
C	0.039574	-0.610586	-0.295176	6
C	0.460494	-1.525836	-1.438696	6
O	0.318894	0.742294	-0.709826	8
C	0.579844	1.663784	0.246314	6
N	0.604264	1.413074	1.509174	7
O	0.911574	2.592334	2.200004	8
H	-1.755096	-0.092526	0.809784	1
H	-1.705086	-1.781066	0.264994	1
H	-2.046316	-0.464186	-0.881816	1
H	0.627004	-0.875596	0.591884	1
H	-0.071506	-1.273106	-2.362496	1
H	0.269914	-2.576216	-1.198706	1
H	1.528744	-1.404346	-1.647966	1
H	0.769634	2.649514	-0.208196	1
H	0.918854	2.295074	3.129434	1
Es	-1.652173	-0.308452	0.551411	99
Es	0.305164	1.581523	1.007569	99
Es	0.579781	1.663575	0.246108	99
Es	-1.608341	-1.450005	0.173176	99
Es	0.318487	0.742507	-0.709076	99
Es	-1.450769	-0.752626	-0.008711	99
Es	0.914470	2.432413	2.705629	99
Es	0.706992	2.321712	-0.052054	99
Es	0.774978	2.073867	1.887677	99
Es	0.403850	1.075624	-0.294294	99
Es	0.245934	-1.067220	-0.873560	99
Es	0.393254	0.768376	-0.643972	99
Es	0.911558	2.591998	2.200148	99
Es	-0.710825	-0.679811	-0.149327	99
Es	0.544051	1.099456	1.698856	99
Es	0.279727	0.831725	-1.023781	99
Es	-1.848614	-0.564049	-0.613958	99
Es	0.212517	0.268094	-0.520315	99
Es	0.604373	1.413633	1.508867	99
Es	1.185619	2.674935	2.111022	99
Es	1.181628	-1.448678	-1.571868	99
Es	0.460484	-1.525831	-1.438671	99
Es	0.091180	-1.355858	-2.067709	99
Es	0.330500	-2.231606	-1.266238	99
Es	0.039591	-0.610342	-0.295296	99
Es	0.885020	1.449989	0.972024	99
Es	0.437113	-0.785475	0.309479	99
Es	0.685083	2.762754	2.157634	99
44
Properties=species:S:1:pos:R:3:Z:I:1 energy=-360.94849485537554 field_type=dipole dipole="0.000000 0.000000 0.000000" charge=0
C	-1.450796	-0.752616	-0.008706	6
C	0.039574	-0.610586	-0.295176	6
C	0.460494	-1.525836	-1.438696	6
O	0.318894	0.742294	-0.709826	8
C	0.579844	1.663784	0.246314	6
N	0.604264	1.413074	1.509174	7
O	0.911574	2.592334	2.200004	8
H	-1.755096	-0.092526	0.809784	1
H	-1.705086	-1.781066	0.264994	1
H	-2.046316	-0.464186	-0.881816	1
H	0.627004	-0.875596	0.591884	1
H	-0.071506	-1.273106	-2.362496	1
H	0.269914	-2.576216	-1.198706	1
H	1.528744	-1.404346	-1.647966	1
H	0.769634	2.649514	-0.208196	1
H	0.918854	2.295074	3.129434	1
Es	0.437086	-0.785512	0.309688	99
Es	0.408627	1.074462	-0.294077	99
Es	0.579768	1.663578	0.246110	99
Es	0.884782	1.450485	0.971112	99
Es	0.245882	-1.067218	-0.873518	99
Es	0.318947	0.742211	-0.709405	99
Es	-1.848756	-0.564197	-0.614017	99
Es	-0.710790	-0.679789	-0.149560	99
Es	0.304577	1.581183	1.008536	99
Es	0.039591	-0.610343	-0.295296	99
Es	-1.608226	-1.449781	0.173210	99
Es	0.686082	2.764591	2.156452	99
Es	0.091077	-1.355951	-2.067848	99
Es	0.213932	0.267664	-0.520464	99
Es	0.604371	1.413627	1.508859	99
Es	1.185594	2.672704	2.112397	99
Es	1.181564	-1.448737	-1.571820	99
Es	-1.652082	-0.308453	0.551500	99
Es	0.286539	0.830438	-1.025241	99
Es	0.913465	2.432616	2.705785	99
Es	0.707022	2.321675	-0.052069	99
Es	0.460484	-1.525830	-1.438671	99
Es	0.544854	1.099478	1.698654	99
Es	0.330631	-2.231367	-1.266265	99
Es	0.911568	2.592022	2.200137	99
Es	0.379764	0.771391	-0.642209	99
Es	-1.450765	-0.752626	-0.008713	99
Es	0.775043	2.073906	1.887503	99
44
Properties=species:S:1:pos:R:3:Z:I:1 energy=-360.94849485537554 field_type=dipole dipole="0.000000 0.000000 0.000000" charge=0
C	-1.450796	-0.752616	-0.008706	6
C	0.039574	-0.610586	-0.295176	6
C	0.460494	-1.525836	-1.438696	6
O	0.318894	0.742294	-0.709826	8
C	0.579844	1.663784	0.246314	6
N	0.604264	1.413074	1.509174	7
O	0.911574	2.592334	2.200004	8
H	-1.755096	-0.092526	0.809784	1
H	-1.705086	-1.781066	0.264994	1
H	-2.046316	-0.464186	-0.881816	1
H	0.627004	-0.875596	0.591884	1
H	-0.071506	-1.273106	-2.362496	1
H	0.269914	-2.576216	-1.198706	1
H	1.528744	-1.404346	-1.647966	1
H	0.769634	2.649514	-0.208196	1
H	0.918854	2.295074	3.129434	1
Es	0.039592	-0.610343	-0.295295	99
Es	0.330732	-2.231213	-1.266359	99
Es	-1.652097	-0.308594	0.551645	99
Es	0.317916	0.743000	-0.708390	99
Es	0.579788	1.663574	0.246107	99
Es	0.408403	1.074639	-0.294221	99
Es	0.091200	-1.355949	-2.068064	99
Es	-1.607982	-1.449580	0.173153	99
Es	0.686140	2.762300	2.157674	99
Es	-1.450770	-0.752626	-0.008711	99
Es	1.184481	2.674860	2.111446	99
Es	0.304658	1.581162	1.008532	99
Es	-0.710739	-0.679755	-0.149446	99
Es	0.287775	0.829806	-1.025626	99
Es	0.544762	1.099511	1.698588	99
Es	0.214220	0.267871	-0.520169	99
Es	0.437015	-0.785530	0.309774	99
Es	0.884902	1.450482	0.971107	99
Es	0.914423	2.432745	2.705968	99
Es	0.775045	2.073927	1.887124	99
Es	0.245744	-1.067318	-0.873471	99
Es	0.604366	1.413625	1.508862	99
Es	-1.848804	-0.564270	-0.614256	99
Es	0.911626	2.591960	2.200153	99
Es	0.379397	0.770957	-0.643017	99
Es	0.706969	2.321638	-0.052021	99
Es	1.181382	-1.448817	-1.571644	99
Es	0.460484	-1.525830	-1.438671	99
44
Properties=species:S:1:pos:R:3:Z:I:1 energy=-360.94849485537554 field_type=dipole dipole="0.000000 0.000000 0.000000" charge=0
C	-1.450796	-0.752616	-0.008706	6
C	0.039574	-0.610586	-0.295176	6
C	0.460494	-1.525836	-1.438696	6
O	0.318894	0.742294	-0.709826	8
C	0.579844	1.663784	0.246314	6
N	0.604264	1.413074	1.509174	7
O	0.911574	2.592334	2.200004	8
H	-1.755096	-0.092526	0.809784	1
H	-1.705086	-1.781066	0.264994	1
H	-2.046316	-0.464186	-0.881816	1
H	0.627004	-0.875596	0.591884	1
H	-0.071506	-1.273106	-2.362496	1
H	0.269914	-2.576216	-1.198706	1
H	1.528744	-1.404346	-1.647966	1
H	0.769634	2.649514	-0.208196	1
H	0.918854	2.295074	3.129434	1
Es	0.884977	1.450270	0.971649	99
Es	0.604371	1.413639	1.508871	99
Es	0.245784	-1.067271	-0.873476	99
Es	1.181104	-1.448867	-1.571579	99
Es	1.183465	2.676122	2.110627	99
Es	0.377129	0.771776	-0.641681	99
Es	0.911740	2.591895	2.200147	99
Es	-1.450769	-0.752626	-0.008712	99
Es	0.544480	1.099529	1.698457	99
Es	0.436990	-0.785484	0.309878	99
Es	0.091194	-1.356063	-2.068257	99
Es	0.706916	2.321681	-0.052021	99
Es	0.579797	1.663571	0.246107	99
Es	0.915721	2.432707	2.706053	99
Es	0.289795	0.829476	-1.026157	99
Es	0.685462	2.761238	2.158342	99
Es	-0.710845	-0.679806	-0.149506	99
Es	-1.848768	-0.564283	-0.614329	99
Es	0.330890	-2.231135	-1.266256	99
Es	0.039590	-0.610344	-0.295296	99
Es	0.304928	1.581344	1.007962	99
Es	0.408689	1.074160	-0.293809	99
Es	0.460484	-1.525831	-1.438672	99
Es	0.319008	0.742200	-0.709402	99
Es	-1.607968	-1.449506	0.173125	99
Es	0.213106	0.268595	-0.520408	99
Es	-1.651952	-0.308510	0.551763	99
Es	0.775313	2.073751	1.887350	99
44
Properties=species:S:1:pos:R:3:Z:I:1 energy=-360.94849485537554 field_type=dipole dipole="0.000000 0.000000 0.000000" charge=0
C	-1.450796	-0.752616	-0.008706	6
C	0.039574	-0.610586	-0.295176	6
C	0.460494	-1.525836	-1.438696	6
O	0.318894	0.742294	-0.709826	8
C	0.579844	1.663784	0.246314	6
N	0.604264	1.413074	1.509174	7
O	0.911574	2.592334	2.200004	8
H	-1.755096	-0.092526	0.809784	1
H	-1.705086	-1.781066	0.264994	1
H	-2.046316	-0.464186	-0.881816	1
H	0.627004	-0.875596	0.591884	1
H	-0.071506	-1.273106	-2.362496	1
H	0.269914	-2.576216	-1.198706	1
H	1.528744	-1.404346	-1.647966	1
H	0.769634	2.649514	-0.208196	1
H	0.918854	2.295074	3.129434	1
Es	0.544962	1.099805	1.698125	99
Es	-0.710875	-0.679719	-0.149434	99
Es	1.181145	-1.449019	-1.571611	99
Es	0.911656	2.591949	2.200148	99
Es	0.916249	2.432817	2.706141	99
Es	0.091040	-1.356138	-2.068313	99
Es	0.418592	1.072228	-0.294253	99
Es	-1.848712	-0.564364	-0.614564	99
Es	0.245685	-1.067299	-0.873434	99
Es	0.303031	0.826211	-1.028102	99
Es	-1.651973	-0.308562	0.551860	99
Es	0.685868	2.762814	2.157757	99
Es	0.328132	0.760302	-0.675908	99
Es	0.436996	-0.785551	0.310035	99
Es	-1.450772	-0.752626	-0.008711	99
Es	0.039590	-0.610344	-0.295296	99
Es	0.304537	1.581193	1.007880	99
Es	0.330939	-2.230781	-1.266368	99
Es	-1.607785	-1.449358	0.173096	99
Es	0.216619	0.267600	-0.520551	99
Es	0.579783	1.663574	0.246107	99
Es	0.775160	2.073709	1.887420	99
Es	0.706836	2.321630	-0.051954	99
Es	0.884981	1.450299	0.971780	99
Es	1.182840	2.674305	2.111341	99
Es	0.604372	1.413632	1.508861	99
Es	0.341250	0.759752	-0.672611	99
Es	0.460484	-1.525831	-1.438671	99
44
Properties=species:S:1:pos:R:3:Z:I:1 energy=-360.94849485537554 field_type=dipole dipole="0.000000 0.000000 0.000000" charge=0
C	-1.450796	-0.752616	-0.008706	6
C	0.039574	-0.610586	-0.295176	6
C	0.460494	-1.525836	-1.438696	6
O	0.318894	0.742294	-0.709826	8
C	0.579844	1.663784	0.246314	6
N	0.604264	1.413074	1.509174	7
O	0.911574	2.592334	2.200004	8
H	-1.755096	-0.092526	0.809784	1
H	-1.705086	-1.781066	0.264994	1
H	-2.046316	-0.464186	-0.881816	1
H	0.627004	-0.875596	0.591884	1
H	-0.071506	-1.273106	-2.362496	1
H	0.269914	-2.576216	-1.198706	1
H	1.528744	-1.404346	-1.647966	1
H	0.769634	2.649514	-0.208196	1
H	0.918854	2.295074	3.129434	1
Es	0.318459	0.742420	-0.709196	99
Es	-1.651932	-0.308666	0.551979	99
Es	0.331056	-2.230857	-1.266305	99
Es	0.436895	-0.785503	0.310105	99
Es	0.091137	-1.356176	-2.068446	99
Es	1.182949	2.678477	2.109240	99
Es	0.544749	1.099613	1.698088	99
Es	0.304800	1.581322	1.008039	99
Es	0.216089	0.267931	-0.520247	99
Es	-1.848899	-0.564446	-0.614548	99
Es	0.706772	2.321642	-0.051964	99
Es	0.911528	2.592040	2.200149	99
Es	-0.710757	-0.679760	-0.149592	99
Es	0.039591	-0.610342	-0.295296	99
Es	0.604392	1.413652	1.508857	99
Es	1.180985	-1.448933	-1.571487	99
Es	0.295872	0.827567	-1.027325	99
Es	-1.450769	-0.752626	-0.008711	99
Es	0.916532	2.432784	2.706289	99
Es	0.775427	2.073574	1.887679	99
Es	0.685277	2.758557	2.159560	99
Es	0.364727	0.774651	-0.640677	99
Es	0.460484	-1.525831	-1.438672	99
Es	0.579783	1.663574	0.246106	99
Es	0.245673	-1.067345	-0.873443	99
Es	0.412522	1.073609	-0.294037	99
Es	0.884953	1.450468	0.971575	99
Es	-1.607664	-1.449166	0.173049	99
44
Properties=species:S:1:pos:R:3:Z:I:1 energy=-360.94849485537554 field_type=dipole dipole="0.000000 0.000000 0.000000" charge=0
C	-1.450796	-0.752616	-0.008706	6
C	0.039574	-0.610586	-0.295176	6
C	0.460494	-1.525836	-1.438696	6
O	0.318894	0.742294	-0.709826	8
C	0.579844	1.663784	0.246314	6
N	0.604264	1.413074	1.509174	7
O	0.911574	2.592334	2.200004	8
H	-1.755096	-0.092526	0.809784	1
H	-1.705086	-1.781066	0.264994	1
H	-2.046316	-0.464186	-0.881816	1
H	0.627004	-0.875596	0.591884	1
H	-0.071506	-1.273106	-2.362496	1
H	0.269914	-2.576216	-1.198706	1
H	1.528744	-1.404346	-1.647966	1
H	0.769634	2.649514	-0.208196	1
H	0.918854	2.295074	3.129434	1
Es	0.604384	1.413629	1.508863	99
Es	0.545877	1.099279	1.698156	99
Es	0.359192	0.775841	-0.639898	99
Es	0.884251	1.451156	0.970533	99
Es	0.039591	-0.610342	-0.295296	99
Es	0.687581	2.763215	2.157258	99
Es	0.707000	2.321557	-0.051966	99
Es	0.436920	-0.785560	0.310177	99
Es	-1.848881	-0.564449	-0.614646	99
Es	-1.607655	-1.449128	0.173094	99
Es	0.773985	2.074217	1.887260	99
Es	-1.651868	-0.308644	0.551970	99
Es	0.300000	0.827033	-1.027835	99
Es	1.183641	2.673047	2.111637	99
Es	0.319030	0.742139	-0.709416	99
Es	0.579783	1.663575	0.246107	99
Es	-0.710774	-0.679779	-0.149583	99
Es	0.460483	-1.525831	-1.438671	99
Es	0.215478	0.268272	-0.520661	99
Es	0.331206	-2.230828	-1.266405	99
Es	-1.450771	-0.752627	-0.008710	99
Es	0.915085	2.433083	2.706440	99
Es	0.413947	1.072893	-0.293707	99
Es	1.180817	-1.448894	-1.571454	99
Es	0.304094	1.580923	1.009187	99
Es	0.911519	2.591996	2.200163	99
Es	0.245593	-1.067421	-0.873303	99
Es	0.091120	-1.356121	-2.068522	99
44
Properties=species:S:1:pos:R:3:Z:I:1 energy=-360.94849485537554 field_type=dipole dipole="0.000000 0.000000 0.000000" charge=0
C	-1.450796	-0.752616	-0.008706	6
C	0.039574	-0.610586	-0.295176	6
C	0.460494	-1.525836	-1.438696	6
O	0.318894	0.742294	-0.709826	8
C	0.579844	1.663784	0.246314	6
N	0.604264	1.413074	1.509174	7
O	0.911574	2.592334	2.200004	8
H	-1.755096	-0.092526	0.809784	1
H	-1.705086	-1.781066	0.264994	1
H	-2.046316	-0.464186	-0.881816	1
H	0.627004	-0.875596	0.591884	1
H	-0.071506	-1.273106	-2.362496	1
H	0.269914	-2.576216	-1.198706	1
H	1.528744	-1.404346	-1.647966	1
H	0.769634	2.649514	-0.208196	1
H	0.918854	2.295074	3.129434	1
Es	0.460484	-1.525829	-1.438671	99
Es	0.352068	0.777227	-0.639836	99
Es	0.544318	1.099584	1.698210	99
Es	0.579783	1.663574	0.246107	99
Es	0.302417	0.826191	-1.028257	99
Es	0.706700	2.321653	-0.051954	99
Es	-1.450769	-0.752626	-0.008711	99
Es	0.319846	0.742334	-0.708940	99
Es	0.436924	-0.785508	0.310176	99
Es	-0.710792	-0.679904	-0.149453	99
Es	1.182647	2.674947	2.110998	99
Es	0.686890	2.761424	2.158233	99
Es	0.885127	1.450277	0.971957	99
Es	0.331040	-2.230665	-1.266413	99
Es	1.180786	-1.449143	-1.571272	99
Es	-1.607644	-1.448945	0.173007	99
Es	0.091292	-1.356059	-2.068702	99
Es	0.774617	2.073973	1.887032	99
Es	0.916019	2.433063	2.706434	99
Es	0.604369	1.413632	1.508875	99
Es	-1.848820	-0.564452	-0.614782	99
Es	0.039592	-0.610340	-0.295296	99
Es	0.245644	-1.067404	-0.873335	99
Es	0.911598	2.592053	2.200130	99
Es	-1.651901	-0.308712	0.552079	99
Es	0.305116	1.581482	1.007620	99
Es	0.216700	0.268013	-0.520576	99
Es	0.416578	1.072390	-0.293888	99
