45
Properties=species:S:1:pos:R:3:Z:I:1 energy=-341.10313648677595 field_type=dipole dipole="0.000000 0.000000 0.000000" charge=0
C	-2.310864	-0.642042	0.909478	6
C	-0.937174	-0.844642	0.292268	6
N	-0.260834	0.448298	0.251268	7
C	0.944016	0.504518	-0.230252	6
C	1.698626	-0.697622	-0.755392	6
N	1.601366	1.720008	-0.274072	7
O	0.728936	2.815538	-0.217312	8
H	-2.854894	-1.590632	0.953648	1
H	-2.903174	0.067828	0.322088	1
H	-2.227484	-0.245292	1.927058	1
H	-1.059994	-1.252942	-0.716672	1
H	-0.378384	-1.560962	0.903998	1
H	1.152366	-1.141512	-1.591872	1
H	1.815716	-1.438412	0.039978	1
H	2.693646	-0.409082	-1.106212	1
H	2.355026	1.830988	-0.947692	1
H	-0.056894	2.435958	0.239698	1
Es	1.718482	1.584210	0.022650	99
Es	0.099139	0.495610	-0.199377	99
Es	0.645993	2.865905	-0.515268	99
Es	0.339310	2.614755	0.020944	99
Es	1.698598	-0.697556	-0.755370	99
Es	-0.543938	-1.337848	0.708000	99
Es	0.728908	2.815211	-0.217165	99
Es	0.944169	0.504613	-0.230262	99
Es	-1.627564	-0.746395	0.601455	99
Es	1.290172	1.219725	-0.358860	99
Es	1.600985	1.719932	-0.274576	99
Es	-0.260546	0.447934	0.251081	99
Es	1.324890	-0.983202	-1.308852	99
Es	0.868217	3.029337	-0.034881	99
Es	-2.250751	-0.376255	1.602697	99
Es	0.311214	0.408508	0.322993	99
Es	-2.310851	-0.642065	0.909468	99
Es	2.024012	1.780670	-0.696900	99
Es	-2.712663	-0.162183	0.505426	99
Es	-0.522578	-0.125285	0.256778	99
Es	-2.680798	-1.296088	0.937692	99
Es	1.121921	2.302832	-0.242821	99
Es	-1.011423	-1.125845	-0.404872	99
Es	1.769403	-1.185743	-0.221632	99
Es	-0.435464	0.766512	0.371621	99
Es	1.336180	-0.087179	-0.491133	99
Es	2.371520	-0.492097	-0.992767	99
Es	-0.937128	-0.844507	0.292275	99
45
Properties=species:S:1:pos:R:3:Z:I:1 energy=-341.10313648677595 field_type=dipole dipole="0.000000 0.000000 0.000000" charge=0
C	-2.310864	-0.642042	0.909478	6
C	-0.937174	-0.844642	0.292268	6
N	-0.260834	0.448298	0.251268	7
C	0.944016	0.504518	-0.230252	6
C	1.698626	-0.697622	-0.755392	6
N	1.601366	1.720008	-0.274072	7
O	0.728936	2.815538	-0.217312	8
H	-2.854894	-1.590632	0.953648	1
H	-2.903174	0.067828	0.322088	1
H	-2.227484	-0.245292	1.927058	1
H	-1.059994	-1.252942	-0.716672	1
H	-0.378384	-1.560962	0.903998	1
H	1.152366	-1.141512	-1.591872	1
H	1.815716	-1.438412	0.039978	1
H	2.693646	-0.409082	-1.106212	1
H	2.355026	1.830988	-0.947692	1
H	-0.056894	2.435958	0.239698	1
Es	1.289670	1.209975	-0.346295	99
Es	-0.524186	-0.125761	0.258060	99
Es	-0.937125	-0.844499	0.292274	99
Es	1.325067	-0.982516	-1.305891	99
Es	2.374749	-0.491698	-0.994359	99
Es	0.871359	3.037355	-0.043572	99
Es	1.767466	-1.185323	-0.222960	99
Es	1.334750	-0.088338	-0.490822	99
Es	-2.310853	-0.642061	0.909469	99
Es	-1.627448	-0.746101	0.601481	99
Es	-0.260529	0.447932	0.251085	99
Es	0.649268	2.856926	-0.504203	99
Es	2.037485	1.784498	-0.688603	99
Es	1.600948	1.719927	-0.274611	99
Es	-0.544141	-1.337641	0.705986	99
Es	0.098624	0.495243	-0.198476	99
Es	1.698597	-0.697555	-0.755371	99
Es	-2.711858	-0.162293	0.507884	99
Es	0.944172	0.504615	-0.230263	99
Es	-0.432675	0.766660	0.369674	99
Es	-2.251672	-0.376328	1.599506	99
Es	-1.010323	-1.125430	-0.402651	99
Es	-2.683044	-1.296970	0.938880	99
Es	1.705833	1.589829	0.000295	99
Es	0.332320	2.614516	0.020481	99
Es	0.311075	0.409311	0.322154	99
Es	1.123020	2.304043	-0.243608	99
Es	0.728862	2.815194	-0.217200	99
45
Properties=species:S:1:pos:R:3:Z:I:1 energy=-341.10313648677595 field_type=dipole dipole="0.000000 0.000000 0.000000" charge=0
C	-2.310864	-0.642042	0.909478	6
C	-0.937174	-0.844642	0.292268	6
N	-0.260834	0.448298	0.251268	7
C	0.944016	0.504518	-0.230252	6
C	1.698626	-0.697622	-0.755392	6
N	1.601366	1.720008	-0.274072	7
O	0.728936	2.815538	-0.217312	8
H	-2.854894	-1.590632	0.953648	1
H	-2.903174	0.067828	0.322088	1
H	-2.227484	-0.245292	1.927058	1
H	-1.059994	-1.252942	-0.716672	1
H	-0.378384	-1.560962	0.903998	1
H	1.152366	-1.141512	-1.591872	1
H	1.815716	-1.438412	0.039978	1
H	2.693646	-0.409082	-1.106212	1
H	2.355026	1.830988	-0.947692	1
H	-0.056894	2.435958	0.239698	1
Es	0.944170	0.504615	-0.230267	99
Es	-0.430383	0.766226	0.369050	99
Es	1.290100	1.205953	-0.339298	99
Es	1.124187	2.304634	-0.243642	99
Es	-1.627462	-0.746093	0.601501	99
Es	0.872849	3.044206	-0.051801	99
Es	-2.684304	-1.297256	0.939741	99
Es	0.649662	2.848653	-0.496030	99
Es	-0.544376	-1.337254	0.704732	99
Es	0.311774	0.409494	0.321317	99
Es	-0.525465	-0.125688	0.259077	99
Es	-2.252074	-0.376274	1.597612	99
Es	2.376227	-0.491620	-0.995418	99
Es	0.097254	0.495354	-0.198349	99
Es	-2.711327	-0.162635	0.509240	99
Es	0.728890	2.815224	-0.217170	99
Es	1.700086	1.592412	-0.011572	99
Es	1.333986	-0.088846	-0.490907	99
Es	-1.009732	-1.125230	-0.401296	99
Es	-2.310852	-0.642066	0.909469	99
Es	2.043139	1.786017	-0.684303	99
Es	-0.937126	-0.844502	0.292271	99
Es	1.698598	-0.697556	-0.755370	99
Es	-0.260545	0.447933	0.251067	99
Es	0.329376	2.614934	0.020768	99
Es	1.600957	1.719951	-0.274598	99
Es	1.325368	-0.982005	-1.303980	99
Es	1.766433	-1.185076	-0.223499	99
45
Properties=species:S:1:pos:R:3:Z:I:1 energy=-341.10313648677595 field_type=dipole dipole="0.000000 0.000000 0.000000" charge=0
C	-2.310864	-0.642042	0.909478	6
C	-0.937174	-0.844642	0.292268	6
N	-0.260834	0.448298	0.251268	7
C	0.944016	0.504518	-0.230252	6
C	1.698626	-0.697622	-0.755392	6
N	1.601366	1.720008	-0.274072	7
O	0.728936	2.815538	-0.217312	8
H	-2.854894	-1.590632	0.953648	1
H	-2.903174	0.067828	0.322088	1
H	-2.227484	-0.245292	1.927058	1
H	-1.059994	-1.252942	-0.716672	1
H	-0.378384	-1.560962	0.903998	1
H	1.152366	-1.141512	-1.591872	1
H	1.815716	-1.438412	0.039978	1
H	2.693646	-0.409082	-1.106212	1
H	2.355026	1.830988	-0.947692	1
H	-0.056894	2.435958	0.239698	1
Es	2.046329	1.786794	-0.681612	99
Es	0.099387	0.495196	-0.198997	99
Es	-2.310851	-0.642066	0.909467	99
Es	0.328050	2.615571	0.022073	99
Es	-1.627453	-0.746024	0.601289	99
Es	-0.526825	-0.125174	0.259292	99
Es	0.728915	2.815232	-0.217106	99
Es	-1.009294	-1.125116	-0.400391	99
Es	0.944175	0.504617	-0.230269	99
Es	-2.685168	-1.297333	0.940209	99
Es	2.376973	-0.491467	-0.995721	99
Es	1.125168	2.305267	-0.243519	99
Es	1.333738	-0.089275	-0.490833	99
Es	-2.252336	-0.376370	1.596383	99
Es	-0.544506	-1.337011	0.704199	99
Es	0.649430	2.843351	-0.490718	99
Es	1.698599	-0.697557	-0.755372	99
Es	0.873602	3.048042	-0.058262	99
Es	1.290595	1.202924	-0.333336	99
Es	-0.937126	-0.844501	0.292274	99
Es	1.600948	1.719937	-0.274610	99
Es	1.325453	-0.981496	-1.303254	99
Es	-0.429231	0.765840	0.367428	99
Es	-2.710896	-0.162845	0.510188	99
Es	-0.260557	0.447926	0.251069	99
Es	1.765849	-1.185050	-0.223962	99
Es	0.309912	0.409541	0.323227	99
Es	1.696528	1.594555	-0.020791	99
45
Properties=species:S:1:pos:R:3:Z:I:1 energy=-341.10313648677595 field_type=dipole dipole="0.000000 0.000000 0.000000" charge=0
C	-2.310864	-0.642042	0.909478	6
C	-0.937174	-0.844642	0.292268	6
N	-0.260834	0.448298	0.251268	7
C	0.944016	0.504518	-0.230252	6
C	1.698626	-0.697622	-0.755392	6
N	1.601366	1.720008	-0.274072	7
O	0.728936	2.815538	-0.217312	8
H	-2.854894	-1.590632	0.953648	1
H	-2.903174	0.067828	0.322088	1
H	-2.227484	-0.245292	1.927058	1
H	-1.059994	-1.252942	-0.716672	1
H	-0.378384	-1.560962	0.903998	1
H	1.152366	-1.141512	-1.591872	1
H	1.815716	-1.438412	0.039978	1
H	2.693646	-0.409082	-1.106212	1
H	2.355026	1.830988	-0.947692	1
H	-0.056894	2.435958	0.239698	1
Es	-0.260529	0.447922	0.251077	99
Es	1.333261	-0.089505	-0.490851	99
Es	1.694040	1.594925	-0.025076	99
Es	-1.627394	-0.746051	0.601497	99
Es	-2.710602	-0.163060	0.510807	99
Es	1.325778	-0.981068	-1.302329	99
Es	-0.427558	0.765151	0.367367	99
Es	-2.252575	-0.376429	1.595525	99
Es	-2.685718	-1.297346	0.940529	99
Es	-0.527913	-0.124809	0.260071	99
Es	1.125361	2.305387	-0.244656	99
Es	0.098898	0.495538	-0.199588	99
Es	-0.937124	-0.844500	0.292276	99
Es	-2.310851	-0.642064	0.909466	99
Es	0.944173	0.504615	-0.230264	99
Es	0.326438	2.615182	0.020817	99
Es	0.650298	2.840456	-0.485636	99
Es	0.874169	3.050895	-0.061104	99
Es	1.698599	-0.697554	-0.755371	99
Es	2.048793	1.787473	-0.679209	99
Es	1.290965	1.202006	-0.331444	99
Es	1.600930	1.719930	-0.274643	99
Es	2.377523	-0.491437	-0.996193	99
Es	-1.009085	-1.124990	-0.399796	99
Es	-0.544639	-1.336722	0.703518	99
Es	0.728870	2.815186	-0.217185	99
Es	0.309923	0.409476	0.323030	99
Es	1.765376	-1.185100	-0.224290	99
45
Properties=species:S:1:pos:R:3:Z:I:1 energy=-341.10313648677595 field_type=dipole dipole="0.000000 0.000000 0.000000" charge=0
C	-2.310864	-0.642042	0.909478	6
C	-0.937174	-0.844642	0.292268	6
N	-0.260834	0.448298	0.251268	7
C	0.944016	0.504518	-0.230252	6
C	1.698626	-0.697622	-0.755392	6
N	1.601366	1.720008	-0.274072	7
O	0.728936	2.815538	-0.217312	8
H	-2.854894	-1.590632	0.953648	1
H	-2.903174	0.067828	0.322088	1
H	-2.227484	-0.245292	1.927058	1
H	-1.059994	-1.252942	-0.716672	1
H	-0.378384	-1.560962	0.903998	1
H	1.152366	-1.141512	-1.591872	1
H	1.815716	-1.438412	0.039978	1
H	2.693646	-0.409082	-1.106212	1
H	2.355026	1.830988	-0.947692	1
H	-0.056894	2.435958	0.239698	1
Es	-0.260540	0.447913	0.251087	99
Es	2.377935	-0.491435	-0.996361	99
Es	1.698598	-0.697555	-0.755370	99
Es	0.310043	0.409245	0.323098	99
Es	-0.426359	0.764669	0.367166	99
Es	0.728899	2.815198	-0.217125	99
Es	-0.937126	-0.844500	0.292271	99
Es	1.691981	1.595946	-0.030809	99
Es	1.333122	-0.089625	-0.491085	99
Es	2.050417	1.787935	-0.677517	99
Es	0.325554	2.615426	0.020869	99
Es	0.944173	0.504614	-0.230262	99
Es	-2.710358	-0.163284	0.511217	99
Es	1.125991	2.305785	-0.244584	99
Es	1.600907	1.719888	-0.274687	99
Es	-0.544709	-1.336648	0.703218	99
Es	1.325848	-0.981042	-1.301851	99
Es	-1.008910	-1.124839	-0.399304	99
Es	-2.686157	-1.297261	0.940862	99
Es	0.873946	3.050179	-0.062051	99
Es	-2.310851	-0.642066	0.909469	99
Es	-1.627368	-0.746072	0.601376	99
Es	-2.252735	-0.376397	1.594873	99
Es	0.651028	2.840527	-0.484359	99
Es	1.291351	1.200374	-0.327937	99
Es	-0.528810	-0.124362	0.260602	99
Es	1.765035	-1.184767	-0.224340	99
Es	0.098504	0.495660	-0.200120	99
45
Properties=species:S:1:pos:R:3:Z:I:1 energy=-341.10313648677595 field_type=dipole dipole="0.000000 0.000000 0.000000" charge=0
C	-2.310864	-0.642042	0.909478	6
C	-0.937174	-0.844642	0.292268	6
N	-0.260834	0.448298	0.251268	7
C	0.944016	0.504518	-0.230252	6
C	1.698626	-0.697622	-0.755392	6
N	1.601366	1.720008	-0.274072	7
O	0.728936	2.815538	-0.217312	8
H	-2.854894	-1.590632	0.953648	1
H	-2.903174	0.067828	0.322088	1
H	-2.227484	-0.245292	1.927058	1
H	-1.059994	-1.252942	-0.716672	1
H	-0.378384	-1.560962	0.903998	1
H	1.152366	-1.141512	-1.591872	1
H	1.815716	-1.438412	0.039978	1
H	2.693646	-0.409082	-1.106212	1
H	2.355026	1.830988	-0.947692	1
H	-0.056894	2.435958	0.239698	1
Es	-2.310850	-0.642066	0.909469	99
Es	1.333034	-0.089778	-0.491150	99
Es	1.126557	2.306253	-0.244019	99
Es	1.691084	1.596309	-0.032891	99
Es	1.325825	-0.980853	-1.301451	99
Es	-2.686428	-1.297174	0.940962	99
Es	-0.544788	-1.336413	0.702753	99
Es	0.325517	2.615787	0.022147	99
Es	2.378202	-0.491388	-0.996603	99
Es	-1.627300	-0.746139	0.601577	99
Es	0.649919	2.834480	-0.479716	99
Es	1.698599	-0.697554	-0.755370	99
Es	0.728902	2.815233	-0.217111	99
Es	-0.425759	0.764072	0.366549	99
Es	-2.252915	-0.376500	1.594453	99
Es	-0.937124	-0.844498	0.292274	99
Es	-0.260515	0.447913	0.251088	99
Es	1.764814	-1.184677	-0.224464	99
Es	0.098771	0.495780	-0.200621	99
Es	-2.710211	-0.163420	0.511587	99
Es	1.600911	1.719911	-0.274680	99
Es	-1.008775	-1.124729	-0.399061	99
Es	0.309725	0.409436	0.323841	99
Es	1.291693	1.199927	-0.326519	99
Es	-0.529326	-0.124174	0.261111	99
Es	0.874418	3.055090	-0.068712	99
Es	2.051258	1.788067	-0.676836	99
Es	0.944174	0.504614	-0.230260	99
45
Properties=species:S:1:pos:R:3:Z:I:1 energy=-341.10313648677595 field_type=dipole dipole="0.000000 0.000000 0.000000" charge=0
C	-2.310864	-0.642042	0.909478	6
C	-0.937174	-0.844642	0.292268	6
N	-0.260834	0.448298	0.251268	7
C	0.944016	0.504518	-0.230252	6
C	1.698626	-0.697622	-0.755392	6
N	1.601366	1.720008	-0.274072	7
O	0.728936	2.815538	-0.217312	8
H	-2.854894	-1.590632	0.953648	1
H	-2.903174	0.067828	0.322088	1
H	-2.227484	-0.245292	1.927058	1
H	-1.059994	-1.252942	-0.716672	1
H	-0.378384	-1.560962	0.903998	1
H	1.152366	-1.141512	-1.591872	1
H	1.815716	-1.438412	0.039978	1
H	2.693646	-0.409082	-1.106212	1
H	2.355026	1.830988	-0.947692	1
H	-0.056894	2.435958	0.239698	1
Es	1.764634	-1.184616	-0.224684	99
Es	0.874215	3.054019	-0.068681	99
Es	1.325944	-0.980739	-1.301232	99
Es	1.689745	1.596940	-0.036266	99
Es	-2.253041	-0.376566	1.593986	99
Es	-2.686738	-1.297165	0.941099	99
Es	1.698601	-0.697563	-0.755367	99
Es	-2.310851	-0.642065	0.909468	99
Es	-0.937126	-0.844501	0.292274	99
Es	0.650601	2.835255	-0.478856	99
Es	1.332886	-0.089945	-0.491187	99
Es	-1.627294	-0.746104	0.601506	99
Es	2.378423	-0.491336	-0.996613	99
Es	-0.530349	-0.123787	0.261182	99
Es	2.052375	1.788428	-0.675571	99
Es	1.126815	2.306167	-0.244861	99
Es	-2.710013	-0.163503	0.511889	99
Es	-0.424402	0.763241	0.366906	99
Es	0.098459	0.496573	-0.200972	99
Es	0.309736	0.409147	0.323797	99
Es	0.324830	2.615976	0.021929	99
Es	-0.260514	0.447909	0.251095	99
Es	-0.544927	-1.336226	0.702642	99
Es	0.944173	0.504615	-0.230263	99
Es	-1.008544	-1.124759	-0.398784	99
Es	1.291922	1.198968	-0.324395	99
Es	0.728910	2.815205	-0.217065	99
Es	1.600939	1.719941	-0.274631	99
45
Properties=species:S:1:pos:R:3:Z:I:1 energy=-341.10313648677595 field_type=dipole dipole="0.000000 0.000000 0.000000" charge=0
C	-2.310864	-0.642042	0.909478	6
C	-0.937174	-0.844642	0.292268	6
N	-0.260834	0.448298	0.251268	7
C	0.944016	0.504518	-0.230252	6
C	1.698626	-0.697622	-0.755392	6
N	1.601366	1.720008	-0.274072	7
O	0.728936	2.815538	-0.217312	8
H	-2.854894	-1.590632	0.953648	1
H	-2.903174	0.067828	0.322088	1
H	-2.227484	-0.245292	1.927058	1
H	-1.059994	-1.252942	-0.716672	1
H	-0.378384	-1.560962	0.903998	1
H	1.152366	-1.141512	-1.591872	1
H	1.815716	-1.438412	0.039978	1
H	2.693646	-0.409082	-1.106212	1
H	2.355026	1.830988	-0.947692	1
H	-0.056894	2.435958	0.239698	1
Es	-2.709893	-0.163719	0.512270	99
Es	-0.423699	0.763116	0.367025	99
Es	0.310269	0.408938	0.323330	99
Es	1.325910	-0.980546	-1.300938	99
Es	1.126944	2.306229	-0.244932	99
Es	0.324825	2.616247	0.022592	99
Es	1.689247	1.597115	-0.037275	99
Es	-0.530709	-0.123528	0.261543	99
Es	-0.937126	-0.844502	0.292274	99
Es	2.378611	-0.491395	-0.996803	99
Es	0.728900	2.815244	-0.217115	99
Es	0.097685	0.496550	-0.201070	99
Es	1.698600	-0.697558	-0.755371	99
Es	-2.686985	-1.297124	0.941343	99
Es	0.650132	2.832701	-0.476593	99
Es	2.052891	1.788519	-0.675137	99
Es	-1.627265	-0.746030	0.601484	99
Es	1.764459	-1.184574	-0.224813	99
Es	-2.253064	-0.376552	1.593588	99
Es	-1.008555	-1.124677	-0.398487	99
Es	1.292187	1.198843	-0.323731	99
Es	1.600920	1.719904	-0.274667	99
Es	-2.310851	-0.642066	0.909468	99
Es	0.944175	0.504614	-0.230259	99
Es	1.332813	-0.090017	-0.491106	99
Es	0.874498	3.055979	-0.071658	99
Es	-0.260526	0.447921	0.251078	99
Es	-0.544982	-1.336127	0.702305	99
45
Properties=species:S:1:pos:R:3:Z:I:1 energy=-341.10313648677595 field_type=dipole dipole="0.000000 0.000000 0.000000" charge=0
C	-2.310864	-0.642042	0.909478	6
C	-0.937174	-0.844642	0.292268	6
N	-0.260834	0.448298	0.251268	7
C	0.944016	0.504518	-0.230252	6
C	1.698626	-0.697622	-0.755392	6
N	1.601366	1.720008	-0.274072	7
O	0.728936	2.815538	-0.217312	8
H	-2.854894	-1.590632	0.953648	1
H	-2.903174	0.067828	0.322088	1
H	-2.227484	-0.245292	1.927058	1
H	-1.059994	-1.252942	-0.716672	1
H	-0.378384	-1.560962	0.903998	1
H	1.152366	-1.141512	-1.591872	1
H	1.815716	-1.438412	0.039978	1
H	2.693646	-0.409082	-1.106212	1
H	2.355026	1.830988	-0.947692	1
H	-0.056894	2.435958	0.239698	1
Es	-2.253169	-0.376429	1.593289	99
Es	-2.310851	-0.642065	0.909467	99
Es	2.378820	-0.491287	-0.996793	99
Es	1.698599	-0.697557	-0.755372	99
Es	0.098607	0.496720	-0.201421	99
Es	0.650996	2.834711	-0.478041	99
Es	0.309358	0.409221	0.324074	99
Es	1.332613	-0.090173	-0.491070	99
Es	1.292403	1.198140	-0.321964	99
Es	2.053913	1.788735	-0.673901	99
Es	-1.008465	-1.124714	-0.398304	99
Es	-0.260507	0.447945	0.251075	99
Es	-1.627225	-0.746089	0.601560	99
Es	0.944172	0.504615	-0.230266	99
Es	1.687968	1.597491	-0.040533	99
Es	1.127533	2.306615	-0.244276	99
Es	1.764352	-1.184449	-0.225098	99
Es	-0.545116	-1.335916	0.702071	99
Es	-0.937126	-0.844503	0.292274	99
Es	-2.709673	-0.163957	0.512462	99
Es	1.326026	-0.980531	-1.300727	99
Es	-0.423512	0.762633	0.366503	99
Es	0.728892	2.815160	-0.217147	99
Es	0.873685	3.053877	-0.069868	99
Es	-0.530863	-0.123531	0.261647	99
Es	-2.687238	-1.297112	0.941485	99
Es	1.600879	1.719839	-0.274735	99
Es	0.324335	2.616117	0.021952	99
45
Properties=species:S:1:pos:R:3:Z:I:1 energy=-341.10313648677595 field_type=dipole dipole="0.000000 0.000000 0.000000" charge=0
C	-2.310864	-0.642042	0.909478	6
C	-0.937174	-0.844642	0.292268	6
N	-0.260834	0.448298	0.251268	7
C	0.944016	0.504518	-0.230252	6
C	1.698626	-0.697622	-0.755392	6
N	1.601366	1.720008	-0.274072	7
O	0.728936	2.815538	-0.217312	8
H	-2.854894	-1.590632	0.953648	1
H	-2.903174	0.067828	0.322088	1
H	-2.227484	-0.245292	1.927058	1
H	-1.059994	-1.252942	-0.716672	1
H	-0.378384	-1.560962	0.903998	1
H	1.152366	-1.141512	-1.591872	1
H	1.815716	-1.438412	0.039978	1
H	2.693646	-0.409082	-1.106212	1
H	2.355026	1.830988	-0.947692	1
H	-0.056894	2.435958	0.239698	1
Es	-0.422611	0.762680	0.366232	99
Es	1.127492	2.306494	-0.245017	99
Es	0.651157	2.833898	-0.476400	99
Es	-2.310851	-0.642065	0.909468	99
Es	-2.687522	-1.297116	0.941617	99
Es	0.099625	0.496611	-0.201609	99
Es	1.332635	-0.090163	-0.491077	99
Es	1.698597	-0.697556	-0.755371	99
Es	-0.531804	-0.123119	0.261768	99
Es	1.326001	-0.980436	-1.300444	99
Es	-2.253174	-0.376547	1.592877	99
Es	-2.709509	-0.163946	0.512763	99
Es	1.600925	1.719918	-0.274655	99
Es	0.873940	3.054512	-0.070845	99
Es	2.378939	-0.491434	-0.997011	99
Es	2.054082	1.788771	-0.673781	99
Es	0.323972	2.616154	0.021803	99
Es	0.308381	0.408887	0.324321	99
Es	-1.008324	-1.124680	-0.397996	99
Es	1.292383	1.198187	-0.322028	99
Es	-0.260528	0.447912	0.251078	99
Es	-0.545113	-1.335842	0.702008	99
Es	1.687861	1.597424	-0.040496	99
Es	1.764236	-1.184346	-0.225134	99
Es	0.728869	2.815209	-0.217188	99
Es	-1.627297	-0.746017	0.601452	99
Es	-0.937126	-0.844498	0.292273	99
Es	0.944173	0.504615	-0.230263	99
45
Properties=species:S:1:pos:R:3:Z:I:1 energy=-341.10313648677595 field_type=dipole dipole="0.000000 0.000000 0.000000" charge=0
C	-2.310864	-0.642042	0.909478	6
C	-0.937174	-0.844642	0.292268	6
N	-0.260834	0.448298	0.251268	7
C	0.944016	0.504518	-0.230252	6
C	1.698626	-0.697622	-0.755392	6
N	1.601366	1.720008	-0.274072	7
O	0.728936	2.815538	-0.217312	8
H	-2.854894	-1.590632	0.953648	1
H	-2.903174	0.067828	0.322088	1
H	-2.227484	-0.245292	1.927058	1
H	-1.059994	-1.252942	-0.716672	1
H	-0.378384	-1.560962	0.903998	1
H	1.152366	-1.141512	-1.591872	1
H	1.815716	-1.438412	0.039978	1
H	2.693646	-0.409082	-1.106212	1
H	2.355026	1.830988	-0.947692	1
H	-0.056894	2.435958	0.239698	1
Es	-1.627315	-0.746159	0.601417	99
Es	-0.422386	0.762085	0.365917	99
Es	1.332854	-0.090235	-0.490987	99
Es	0.098530	0.496724	-0.201855	99
Es	-0.937127	-0.844503	0.292274	99
Es	1.292614	1.197864	-0.320829	99
Es	-2.253198	-0.376441	1.593025	99
Es	0.874441	3.057779	-0.075999	99
Es	-2.709557	-0.164113	0.512765	99
Es	2.054275	1.788764	-0.673654	99
Es	0.728890	2.815260	-0.217141	99
Es	-0.545130	-1.335702	0.701888	99
Es	1.600889	1.719853	-0.274716	99
Es	1.325795	-0.980235	-1.300452	99
Es	-2.687465	-1.296963	0.941644	99
Es	2.379022	-0.491430	-0.997047	99
Es	0.650026	2.829756	-0.472619	99
Es	-1.008297	-1.124676	-0.398000	99
Es	1.764147	-1.184348	-0.225211	99
Es	-0.532007	-0.122940	0.262150	99
Es	1.687624	1.597865	-0.041602	99
Es	0.944172	0.504614	-0.230265	99
Es	0.324343	2.616827	0.023332	99
Es	1.127667	2.306507	-0.245373	99
Es	-2.310851	-0.642065	0.909468	99
Es	-0.260521	0.447909	0.251073	99
Es	1.698599	-0.697556	-0.755371	99
Es	0.309376	0.409068	0.324514	99
45
Properties=species:S:1:pos:R:3:Z:I:1 energy=-341.10313648677595 field_type=dipole dipole="0.000000 0.000000 0.000000" charge=0
C	-2.310864	-0.642042	0.909478	6
C	-0.937174	-0.844642	0.292268	6
N	-0.260834	0.448298	0.251268	7
C	0.944016	0.504518	-0.230252	6
C	1.698626	-0.697622	-0.755392	6
N	1.601366	1.720008	-0.274072	7
O	0.728936	2.815538	-0.217312	8
H	-2.854894	-1.590632	0.953648	1
H	-2.903174	0.067828	0.322088	1
H	-2.227484	-0.245292	1.927058	1
H	-1.059994	-1.252942	-0.716672	1
H	-0.378384	-1.560962	0.903998	1
H	1.152366	-1.141512	-1.591872	1
H	1.815716	-1.438412	0.039978	1
H	2.693646	-0.409082	-1.106212	1
H	2.355026	1.830988	-0.947692	1
H	-0.056894	2.435958	0.239698	1
Es	-0.545179	-1.335642	0.701773	99
Es	-2.310852	-0.642065	0.909468	99
Es	-2.687698	-1.296975	0.941607	99
Es	-2.253280	-0.376621	1.592715	99
Es	2.379149	-0.491368	-0.997072	99
Es	1.600930	1.719937	-0.274648	99
Es	1.127893	2.306663	-0.245452	99
Es	-0.422062	0.762080	0.365060	99
Es	0.323879	2.616460	0.022541	99
Es	-2.709390	-0.164034	0.512975	99
Es	0.307378	0.409121	0.325566	99
Es	-1.627301	-0.746173	0.601485	99
Es	-1.008179	-1.124615	-0.397794	99
Es	-0.532536	-0.122611	0.262417	99
Es	0.728883	2.815228	-0.217172	99
Es	2.054766	1.789022	-0.673020	99
Es	1.326187	-0.980239	-1.300127	99
Es	0.100799	0.496441	-0.202250	99
Es	0.874192	3.057304	-0.075210	99
Es	1.332475	-0.090309	-0.491292	99
Es	-0.260544	0.447905	0.251082	99
Es	1.763983	-1.184326	-0.225231	99
Es	1.698601	-0.697562	-0.755367	99
Es	-0.937125	-0.844500	0.292274	99
Es	0.944173	0.504616	-0.230265	99
Es	0.650591	2.830383	-0.472364	99
Es	1.292474	1.198104	-0.321769	99
Es	1.687203	1.597284	-0.041586	99
45
Properties=species:S:1:pos:R:3:Z:I:1 energy=-341.10313648677595 field_type=dipole dipole="0.000000 0.000000 0.000000" charge=0
C	-2.310864	-0.642042	0.909478	6
C	-0.937174	-0.844642	0.292268	6
N	-0.260834	0.448298	0.251268	7
C	0.944016	0.504518	-0.230252	6
C	1.698626	-0.697622	-0.755392	6
N	1.601366	1.720008	-0.274072	7
O	0.728936	2.815538	-0.217312	8
H	-2.854894	-1.590632	0.953648	1
H	-2.903174	0.067828	0.322088	1
H	-2.227484	-0.245292	1.927058	1
H	-1.059994	-1.252942	-0.716672	1
H	-0.378384	-1.560962	0.903998	1
H	1.152366	-1.141512	-1.591872	1
H	1.815716	-1.438412	0.039978	1
H	2.693646	-0.409082	-1.106212	1
H	2.355026	1.830988	-0.947692	1
H	-0.056894	2.435958	0.239698	1
Es	0.873794	3.054979	-0.072876	99
Es	-2.310851	-0.642065	0.909468	99
Es	-0.260543	0.447924	0.251086	99
Es	1.332212	-0.090128	-0.491117	99
Es	-1.627278	-0.746151	0.601450	99
Es	0.651249	2.832768	-0.474280	99
Es	0.096258	0.497144	-0.201812	99
Es	0.728838	2.815145	-0.217249	99
Es	0.311080	0.408690	0.323195	99
Es	-1.008186	-1.124648	-0.397689	99
Es	-0.421088	0.761620	0.366727	99
Es	1.763904	-1.184318	-0.225496	99
Es	2.055114	1.789035	-0.672618	99
Es	-2.709197	-0.164316	0.513237	99
Es	1.127850	2.306635	-0.245526	99
Es	-0.545321	-1.335487	0.701524	99
Es	-0.532550	-0.122546	0.262635	99
Es	0.944172	0.504614	-0.230264	99
Es	-0.937126	-0.844500	0.292275	99
Es	1.600897	1.719871	-0.274704	99
Es	1.293012	1.197230	-0.319375	99
Es	-2.687909	-1.296957	0.941705	99
Es	1.698598	-0.697555	-0.755370	99
Es	1.686540	1.598204	-0.044305	99
Es	2.379264	-0.491461	-0.997076	99
Es	1.326343	-0.980200	-1.299965	99
Es	-2.253298	-0.376492	1.592562	99
Es	0.323632	2.616472	0.022203	99
