45
Properties=species:S:1:pos:R:3:Z:I:1 energy=-341.2036980298435 field_type=dipole dipole="0.000000 0.000000 0.000000" charge=0
C	-0.553877	-1.655852	1.205143	6
C	-0.520497	-1.202992	-0.247097	6
N	-0.051957	0.173118	-0.398827	7
C	-1.026977	1.223058	-0.131037	6
C	1.308763	0.376148	-0.473297	6
N	1.716863	1.661718	-0.602567	7
O	2.152053	-0.513602	-0.430487	8
H	-0.880018	-2.698592	1.268793	1
H	-1.248007	-1.048312	1.794163	1
H	0.434833	-1.577412	1.668293	1
H	-1.517327	-1.282442	-0.695007	1
H	0.138443	-1.871052	-0.813837	1
H	-1.920447	1.041038	-0.735527	1
H	-0.650597	2.221117	-0.361237	1
H	-1.292057	1.195428	0.929923	1
H	1.191483	2.230768	-1.248217	1
H	2.719323	1.727867	-0.729177	1
Es	-0.520464	-1.202792	-0.247065	99
Es	0.106341	0.210786	-0.692554	99
Es	0.480894	0.263653	-0.253703	99
Es	-1.210147	-1.245862	-0.547793	99
Es	1.401838	1.986645	-0.997204	99
Es	-0.452636	0.632177	-0.271418	99
Es	1.308613	0.376279	-0.473287	99
Es	1.632164	1.705582	-0.313451	99
Es	1.896931	-0.194568	-0.202802	99
Es	-0.553901	-1.655843	1.205119	99
Es	2.435386	-0.387293	-0.476280	99
Es	-0.082121	-1.648302	-0.629444	99
Es	1.537430	1.110428	-0.616969	99
Es	-0.248232	-0.401573	-0.309395	99
Es	-1.032436	-1.235678	1.602904	99
Es	-1.211819	1.206188	0.590185	99
Es	-1.026843	1.222930	-0.131080	99
Es	2.302925	1.696221	-0.699843	99
Es	-0.780111	-2.365226	1.242232	99
Es	1.716920	1.661400	-0.602986	99
Es	2.151840	-0.513379	-0.430497	99
Es	-0.540720	-1.421903	0.486706	99
Es	-0.051717	0.173145	-0.398317	99
Es	-1.635323	1.095745	-0.540945	99
Es	-0.763936	1.893166	-0.294678	99
Es	1.853495	-0.274132	-0.687392	99
Es	2.032844	-0.799839	-0.371728	99
Es	0.111499	-1.600128	1.514965	99
45
Properties=species:S:1:pos:R:3:Z:I:1 energy=-341.2036980298435 field_type=dipole dipole="0.000000 0.000000 0.000000" charge=0
C	-0.553877	-1.655852	1.205143	6
C	-0.520497	-1.202992	-0.247097	6
N	-0.051957	0.173118	-0.398827	7
C	-1.026977	1.223058	-0.131037	6
C	1.308763	0.376148	-0.473297	6
N	1.716863	1.661718	-0.602567	7
O	2.152053	-0.513602	-0.430487	8
H	-0.880018	-2.698592	1.268793	1
H	-1.248007	-1.048312	1.794163	1
H	0.434833	-1.577412	1.668293	1
H	-1.517327	-1.282442	-0.695007	1
H	0.138443	-1.871052	-0.813837	1
H	-1.920447	1.041038	-0.735527	1
H	-0.650597	2.221117	-0.361237	1
H	-1.292057	1.195428	0.929923	1
H	1.191483	2.230768	-1.248217	1
H	2.719323	1.727867	-0.729177	1
Es	1.308612	0.376278	-0.473291	99
Es	-0.080863	-1.649319	-0.629463	99
Es	-0.051761	0.173132	-0.398302	99
Es	-0.247360	-0.402240	-0.308959	99
Es	-0.779523	-2.364457	1.241285	99
Es	1.896250	-0.193644	-0.203043	99
Es	2.029660	-0.795541	-0.370964	99
Es	1.536586	1.111522	-0.617002	99
Es	-1.635719	1.096169	-0.540702	99
Es	0.089573	0.206077	-0.669379	99
Es	2.304488	1.696021	-0.700228	99
Es	1.852600	-0.276951	-0.684781	99
Es	-0.553902	-1.655843	1.205119	99
Es	2.151836	-0.513376	-0.430498	99
Es	-0.520463	-1.202797	-0.247068	99
Es	-0.764577	1.892933	-0.294072	99
Es	-0.540689	-1.422007	0.486688	99
Es	-1.211700	1.206557	0.589453	99
Es	1.398050	1.992735	-0.991965	99
Es	0.498500	0.266539	-0.274498	99
Es	-1.026844	1.222932	-0.131081	99
Es	-1.210929	-1.245533	-0.547048	99
Es	-1.033964	-1.234668	1.603383	99
Es	2.440464	-0.389897	-0.479511	99
Es	0.112331	-1.600693	1.514270	99
Es	1.716898	1.661500	-0.602907	99
Es	1.635008	1.698284	-0.318349	99
Es	-0.453846	0.634115	-0.273808	99
45
Properties=species:S:1:pos:R:3:Z:I:1 energy=-341.2036980298435 field_type=dipole dipole="0.000000 0.000000 0.000000" charge=0
C	-0.553877	-1.655852	1.205143	6
C	-0.520497	-1.202992	-0.247097	6
N	-0.051957	0.173118	-0.398827	7
C	-1.026977	1.223058	-0.131037	6
C	1.308763	0.376148	-0.473297	6
N	1.716863	1.661718	-0.602567	7
O	2.152053	-0.513602	-0.430487	8
H	-0.880018	-2.698592	1.268793	1
H	-1.248007	-1.048312	1.794163	1
H	0.434833	-1.577412	1.668293	1
H	-1.517327	-1.282442	-0.695007	1
H	0.138443	-1.871052	-0.813837	1
H	-1.920447	1.041038	-0.735527	1
H	-0.650597	2.221117	-0.361237	1
H	-1.292057	1.195428	0.929923	1
H	1.191483	2.230768	-1.248217	1
H	2.719323	1.727867	-0.729177	1
Es	-0.520462	-1.202799	-0.247068	99
Es	1.855333	-0.279014	-0.684639	99
Es	1.716908	1.661349	-0.603013	99
Es	-0.080307	-1.649715	-0.629681	99
Es	2.027434	-0.792826	-0.371789	99
Es	1.536653	1.112918	-0.619093	99
Es	1.893718	-0.191640	-0.202649	99
Es	-0.553901	-1.655843	1.205119	99
Es	0.081559	0.203122	-0.654764	99
Es	-0.764943	1.892661	-0.293834	99
Es	0.112673	-1.601089	1.514089	99
Es	-0.246791	-0.402182	-0.308033	99
Es	-0.051784	0.173137	-0.398316	99
Es	-1.211199	-1.245282	-0.546564	99
Es	-1.635848	1.096498	-0.540540	99
Es	-0.540521	-1.422106	0.486655	99
Es	0.507208	0.268085	-0.286927	99
Es	-1.034863	-1.234377	1.603656	99
Es	-0.779098	-2.363841	1.240707	99
Es	1.308617	0.376277	-0.473299	99
Es	-1.211676	1.206874	0.589122	99
Es	1.636858	1.693367	-0.318948	99
Es	1.395835	1.997262	-0.987976	99
Es	-1.026846	1.222929	-0.131082	99
Es	2.442699	-0.392813	-0.479186	99
Es	-0.454966	0.635128	-0.276703	99
Es	2.151858	-0.513241	-0.430515	99
Es	2.304568	1.694988	-0.701450	99
45
Properties=species:S:1:pos:R:3:Z:I:1 energy=-341.2036980298435 field_type=dipole dipole="0.000000 0.000000 0.000000" charge=0
C	-0.553877	-1.655852	1.205143	6
C	-0.520497	-1.202992	-0.247097	6
N	-0.051957	0.173118	-0.398827	7
C	-1.026977	1.223058	-0.131037	6
C	1.308763	0.376148	-0.473297	6
N	1.716863	1.661718	-0.602567	7
O	2.152053	-0.513602	-0.430487	8
H	-0.880018	-2.698592	1.268793	1
H	-1.248007	-1.048312	1.794163	1
H	0.434833	-1.577412	1.668293	1
H	-1.517327	-1.282442	-0.695007	1
H	0.138443	-1.871052	-0.813837	1
H	-1.920447	1.041038	-0.735527	1
H	-0.650597	2.221117	-0.361237	1
H	-1.292057	1.195428	0.929923	1
H	1.191483	2.230768	-1.248217	1
H	2.719323	1.727867	-0.729177	1
Es	-1.211458	-1.245098	-0.546196	99
Es	-0.079742	-1.650143	-0.629685	99
Es	-1.635859	1.096681	-0.540591	99
Es	-0.246072	-0.401920	-0.306272	99
Es	1.308614	0.376278	-0.473291	99
Es	2.443760	-0.393550	-0.479412	99
Es	1.854370	-0.277794	-0.684272	99
Es	-0.520463	-1.202801	-0.247068	99
Es	-0.051802	0.173135	-0.398341	99
Es	-0.455156	0.635699	-0.277438	99
Es	0.511350	0.268820	-0.294416	99
Es	2.026886	-0.791576	-0.373421	99
Es	1.638320	1.691942	-0.320252	99
Es	-1.026843	1.222929	-0.131082	99
Es	0.077091	0.201377	-0.648027	99
Es	-1.035435	-1.233987	1.603875	99
Es	-0.765221	1.892508	-0.293538	99
Es	2.304647	1.693879	-0.702538	99
Es	2.151827	-0.513376	-0.430493	99
Es	1.894344	-0.193339	-0.201205	99
Es	-0.778936	-2.363276	1.240281	99
Es	-1.211800	1.206996	0.588812	99
Es	-0.553901	-1.655843	1.205119	99
Es	0.112986	-1.601591	1.513851	99
Es	1.394650	1.999019	-0.986384	99
Es	-0.540481	-1.422053	0.486585	99
Es	1.536119	1.113571	-0.618253	99
Es	1.716920	1.661338	-0.603069	99
45
Properties=species:S:1:pos:R:3:Z:I:1 energy=-341.2036980298435 field_type=dipole dipole="0.000000 0.000000 0.000000" charge=0
C	-0.553877	-1.655852	1.205143	6
C	-0.520497	-1.202992	-0.247097	6
N	-0.051957	0.173118	-0.398827	7
C	-1.026977	1.223058	-0.131037	6
C	1.308763	0.376148	-0.473297	6
N	1.716863	1.661718	-0.602567	7
O	2.152053	-0.513602	-0.430487	8
H	-0.880018	-2.698592	1.268793	1
H	-1.248007	-1.048312	1.794163	1
H	0.434833	-1.577412	1.668293	1
H	-1.517327	-1.282442	-0.695007	1
H	0.138443	-1.871052	-0.813837	1
H	-1.920447	1.041038	-0.735527	1
H	-0.650597	2.221117	-0.361237	1
H	-1.292057	1.195428	0.929923	1
H	1.191483	2.230768	-1.248217	1
H	2.719323	1.727867	-0.729177	1
Es	-0.051663	0.173149	-0.398153	99
Es	-1.035830	-1.233718	1.604003	99
Es	1.536420	1.114133	-0.619336	99
Es	-0.778677	-2.362966	1.240198	99
Es	-1.211447	-1.244966	-0.545953	99
Es	1.308612	0.376278	-0.473292	99
Es	-1.211951	1.207194	0.588984	99
Es	2.446041	-0.398991	-0.478083	99
Es	-1.026844	1.222931	-0.131083	99
Es	-0.079548	-1.650292	-0.629867	99
Es	1.639435	1.688517	-0.321846	99
Es	1.393145	2.002001	-0.983763	99
Es	-0.765525	1.892229	-0.293643	99
Es	1.716911	1.661385	-0.603005	99
Es	-0.455880	0.636231	-0.279675	99
Es	-0.553902	-1.655843	1.205119	99
Es	1.857330	-0.278248	-0.685168	99
Es	2.151798	-0.513348	-0.430492	99
Es	2.304589	1.693655	-0.702616	99
Es	-0.246118	-0.402042	-0.306971	99
Es	1.893528	-0.190874	-0.201323	99
Es	-0.540395	-1.422276	0.486655	99
Es	0.075574	0.200648	-0.641739	99
Es	2.022609	-0.788241	-0.373702	99
Es	0.513552	0.268970	-0.298049	99
Es	0.113040	-1.601778	1.513647	99
Es	-0.520462	-1.202799	-0.247067	99
Es	-1.635628	1.096888	-0.540500	99
45
Properties=species:S:1:pos:R:3:Z:I:1 energy=-341.2036980298435 field_type=dipole dipole="0.000000 0.000000 0.000000" charge=0
C	-0.553877	-1.655852	1.205143	6
C	-0.520497	-1.202992	-0.247097	6
N	-0.051957	0.173118	-0.398827	7
C	-1.026977	1.223058	-0.131037	6
C	1.308763	0.376148	-0.473297	6
N	1.716863	1.661718	-0.602567	7
O	2.152053	-0.513602	-0.430487	8
H	-0.880018	-2.698592	1.268793	1
H	-1.248007	-1.048312	1.794163	1
H	0.434833	-1.577412	1.668293	1
H	-1.517327	-1.282442	-0.695007	1
H	0.138443	-1.871052	-0.813837	1
H	-1.920447	1.041038	-0.735527	1
H	-0.650597	2.221117	-0.361237	1
H	-1.292057	1.195428	0.929923	1
H	1.191483	2.230768	-1.248217	1
H	2.719323	1.727867	-0.729177	1
Es	1.896513	-0.191317	-0.200838	99
Es	-0.051715	0.173145	-0.398175	99
Es	-0.553901	-1.655843	1.205119	99
Es	2.151739	-0.513386	-0.430470	99
Es	0.074462	0.199854	-0.638959	99
Es	-0.456250	0.636495	-0.280858	99
Es	0.113053	-1.601980	1.513440	99
Es	-0.765553	1.892087	-0.293491	99
Es	-0.520460	-1.202801	-0.247069	99
Es	-0.079286	-1.650662	-0.629932	99
Es	-0.778556	-2.362802	1.240057	99
Es	2.449056	-0.404933	-0.478490	99
Es	-0.540463	-1.422167	0.486495	99
Es	1.392445	2.003589	-0.982239	99
Es	1.308612	0.376278	-0.473292	99
Es	-0.245765	-0.401880	-0.306002	99
Es	2.304135	1.692903	-0.703627	99
Es	0.514710	0.269274	-0.300579	99
Es	1.536089	1.114132	-0.619114	99
Es	1.640807	1.687580	-0.322581	99
Es	-1.211882	1.207281	0.588872	99
Es	-1.635733	1.097086	-0.540477	99
Es	-1.036020	-1.233506	1.604173	99
Es	1.856602	-0.275652	-0.684661	99
Es	-1.211461	-1.244785	-0.545651	99
Es	-1.026847	1.222935	-0.131080	99
Es	1.716903	1.661381	-0.602988	99
Es	2.017481	-0.784478	-0.374304	99
45
Properties=species:S:1:pos:R:3:Z:I:1 energy=-341.2036980298435 field_type=dipole dipole="0.000000 0.000000 0.000000" charge=0
C	-0.553877	-1.655852	1.205143	6
C	-0.520497	-1.202992	-0.247097	6
N	-0.051957	0.173118	-0.398827	7
C	-1.026977	1.223058	-0.131037	6
C	1.308763	0.376148	-0.473297	6
N	1.716863	1.661718	-0.602567	7
O	2.152053	-0.513602	-0.430487	8
H	-0.880018	-2.698592	1.268793	1
H	-1.248007	-1.048312	1.794163	1
H	0.434833	-1.577412	1.668293	1
H	-1.517327	-1.282442	-0.695007	1
H	0.138443	-1.871052	-0.813837	1
H	-1.920447	1.041038	-0.735527	1
H	-0.650597	2.221117	-0.361237	1
H	-1.292057	1.195428	0.929923	1
H	1.191483	2.230768	-1.248217	1
H	2.719323	1.727867	-0.729177	1
Es	0.515006	0.269313	-0.300893	99
Es	-0.540429	-1.422131	0.486508	99
Es	2.021843	-0.786835	-0.374677	99
Es	-0.765746	1.892003	-0.293405	99
Es	1.641638	1.686186	-0.323411	99
Es	2.151830	-0.513328	-0.430507	99
Es	-0.520461	-1.202801	-0.247068	99
Es	-0.079044	-1.650786	-0.629892	99
Es	2.446884	-0.400438	-0.479755	99
Es	-0.245581	-0.401809	-0.305927	99
Es	-0.553901	-1.655843	1.205119	99
Es	1.895187	-0.192066	-0.199652	99
Es	-1.211620	-1.244653	-0.545566	99
Es	-1.026845	1.222934	-0.131081	99
Es	-0.456647	0.636572	-0.282031	99
Es	0.113211	-1.602137	1.513433	99
Es	1.536169	1.114947	-0.618896	99
Es	1.308611	0.376278	-0.473295	99
Es	1.391437	2.004873	-0.980880	99
Es	-1.635747	1.097166	-0.540381	99
Es	-0.051681	0.173148	-0.398153	99
Es	1.855671	-0.277191	-0.684177	99
Es	-0.778406	-2.362497	1.239821	99
Es	1.716915	1.661346	-0.603097	99
Es	-1.036376	-1.233471	1.604204	99
Es	0.074476	0.199506	-0.637485	99
Es	-1.211880	1.207377	0.588714	99
Es	2.304200	1.692164	-0.704290	99
45
Properties=species:S:1:pos:R:3:Z:I:1 energy=-341.2036980298435 field_type=dipole dipole="0.000000 0.000000 0.000000" charge=0
C	-0.553877	-1.655852	1.205143	6
C	-0.520497	-1.202992	-0.247097	6
N	-0.051957	0.173118	-0.398827	7
C	-1.026977	1.223058	-0.131037	6
C	1.308763	0.376148	-0.473297	6
N	1.716863	1.661718	-0.602567	7
O	2.152053	-0.513602	-0.430487	8
H	-0.880018	-2.698592	1.268793	1
H	-1.248007	-1.048312	1.794163	1
H	0.434833	-1.577412	1.668293	1
H	-1.517327	-1.282442	-0.695007	1
H	0.138443	-1.871052	-0.813837	1
H	-1.920447	1.041038	-0.735527	1
H	-0.650597	2.221117	-0.361237	1
H	-1.292057	1.195428	0.929923	1
H	1.191483	2.230768	-1.248217	1
H	2.719323	1.727867	-0.729177	1
Es	-0.520461	-1.202801	-0.247068	99
Es	1.641471	1.684368	-0.323227	99
Es	2.022952	-0.787127	-0.371450	99
Es	1.391073	2.006076	-0.979910	99
Es	-0.765792	1.891701	-0.293211	99
Es	-0.456723	0.636704	-0.282320	99
Es	-0.245316	-0.401665	-0.305317	99
Es	-1.635757	1.097418	-0.540574	99
Es	2.304256	1.691962	-0.704027	99
Es	-0.540425	-1.422257	0.486455	99
Es	-1.026846	1.222933	-0.131081	99
Es	-0.778380	-2.362281	1.239826	99
Es	-0.078867	-1.650901	-0.629904	99
Es	-1.036501	-1.233232	1.604224	99
Es	1.308611	0.376279	-0.473291	99
Es	1.892801	-0.188737	-0.202077	99
Es	0.516621	0.269594	-0.304205	99
Es	1.716906	1.661324	-0.603031	99
Es	0.113271	-1.602327	1.513312	99
Es	0.072719	0.198928	-0.634437	99
Es	1.857627	-0.281193	-0.685545	99
Es	2.446263	-0.399497	-0.479164	99
Es	-1.211630	-1.244615	-0.545444	99
Es	-0.051701	0.173143	-0.398174	99
Es	2.151831	-0.513342	-0.430502	99
Es	1.536582	1.115722	-0.620387	99
Es	-0.553901	-1.655842	1.205120	99
Es	-1.211966	1.207491	0.588688	99
45
Properties=species:S:1:pos:R:3:Z:I:1 energy=-341.2036980298435 field_type=dipole dipole="0.000000 0.000000 0.000000" charge=0
C	-0.553877	-1.655852	1.205143	6
C	-0.520497	-1.202992	-0.247097	6
N	-0.051957	0.173118	-0.398827	7
C	-1.026977	1.223058	-0.131037	6
C	1.308763	0.376148	-0.473297	6
N	1.716863	1.661718	-0.602567	7
O	2.152053	-0.513602	-0.430487	8
H	-0.880018	-2.698592	1.268793	1
H	-1.248007	-1.048312	1.794163	1
H	0.434833	-1.577412	1.668293	1
H	-1.517327	-1.282442	-0.695007	1
H	0.138443	-1.871052	-0.813837	1
H	-1.920447	1.041038	-0.735527	1
H	-0.650597	2.221117	-0.361237	1
H	-1.292057	1.195428	0.929923	1
H	1.191483	2.230768	-1.248217	1
H	2.719323	1.727867	-0.729177	1
Es	-1.635834	1.097561	-0.540620	99
Es	1.716913	1.661331	-0.603001	99
Es	-1.036677	-1.233282	1.604393	99
Es	0.113256	-1.602294	1.513169	99
Es	-0.778136	-2.362206	1.239773	99
Es	0.070424	0.197736	-0.631759	99
Es	1.390695	2.006824	-0.978950	99
Es	1.891014	-0.188701	-0.202185	99
Es	-1.026844	1.222929	-0.131084	99
Es	2.303961	1.691761	-0.704632	99
Es	1.642271	1.684054	-0.323889	99
Es	1.536378	1.115491	-0.620040	99
Es	2.021234	-0.785861	-0.373116	99
Es	-0.051659	0.173151	-0.398146	99
Es	-0.553901	-1.655842	1.205118	99
Es	-0.540483	-1.422188	0.486333	99
Es	2.151811	-0.513393	-0.430492	99
Es	-1.211910	1.207725	0.588706	99
Es	-0.765804	1.891435	-0.293226	99
Es	-0.520462	-1.202799	-0.247067	99
Es	2.446943	-0.401644	-0.475270	99
Es	-0.244836	-0.401148	-0.303539	99
Es	-0.456777	0.636931	-0.282778	99
Es	0.518445	0.269870	-0.308181	99
Es	-0.078719	-1.650998	-0.629908	99
Es	1.860497	-0.280345	-0.687699	99
Es	-1.211697	-1.244548	-0.545340	99
Es	1.308612	0.376278	-0.473291	99
45
Properties=species:S:1:pos:R:3:Z:I:1 energy=-341.2036980298435 field_type=dipole dipole="0.000000 0.000000 0.000000" charge=0
C	-0.553877	-1.655852	1.205143	6
C	-0.520497	-1.202992	-0.247097	6
N	-0.051957	0.173118	-0.398827	7
C	-1.026977	1.223058	-0.131037	6
C	1.308763	0.376148	-0.473297	6
N	1.716863	1.661718	-0.602567	7
O	2.152053	-0.513602	-0.430487	8
H	-0.880018	-2.698592	1.268793	1
H	-1.248007	-1.048312	1.794163	1
H	0.434833	-1.577412	1.668293	1
H	-1.517327	-1.282442	-0.695007	1
H	0.138443	-1.871052	-0.813837	1
H	-1.920447	1.041038	-0.735527	1
H	-0.650597	2.221117	-0.361237	1
H	-1.292057	1.195428	0.929923	1
H	1.191483	2.230768	-1.248217	1
H	2.719323	1.727867	-0.729177	1
Es	1.861491	-0.285221	-0.687307	99
Es	-1.635768	1.097518	-0.540458	99
Es	-0.540475	-1.422140	0.486256	99
Es	0.517057	0.269469	-0.305070	99
Es	2.022990	-0.785896	-0.369971	99
Es	2.303844	1.691048	-0.705230	99
Es	1.389905	2.007672	-0.978132	99
Es	-0.766008	1.891469	-0.293258	99
Es	-0.245238	-0.401585	-0.305268	99
Es	-0.778137	-2.361855	1.239617	99
Es	-0.520462	-1.202802	-0.247068	99
Es	-0.456979	0.636905	-0.283249	99
Es	-0.051730	0.173141	-0.398236	99
Es	0.113370	-1.602545	1.513316	99
Es	2.151861	-0.513402	-0.430490	99
Es	1.888588	-0.185450	-0.204170	99
Es	-1.211716	-1.244489	-0.545336	99
Es	1.308611	0.376278	-0.473295	99
Es	0.072548	0.198631	-0.632564	99
Es	1.536083	1.115589	-0.618555	99
Es	-0.553901	-1.655843	1.205122	99
Es	-0.078571	-1.651042	-0.629877	99
Es	1.643430	1.683741	-0.325551	99
Es	1.716911	1.661290	-0.603065	99
Es	-1.211919	1.207739	0.588647	99
Es	-1.036860	-1.233329	1.604395	99
Es	-1.026843	1.222932	-0.131081	99
Es	2.446634	-0.399996	-0.476844	99
45
Properties=species:S:1:pos:R:3:Z:I:1 energy=-341.2036980298435 field_type=dipole dipole="0.000000 0.000000 0.000000" charge=0
C	-0.553877	-1.655852	1.205143	6
C	-0.520497	-1.202992	-0.247097	6
N	-0.051957	0.173118	-0.398827	7
C	-1.026977	1.223058	-0.131037	6
C	1.308763	0.376148	-0.473297	6
N	1.716863	1.661718	-0.602567	7
O	2.152053	-0.513602	-0.430487	8
H	-0.880018	-2.698592	1.268793	1
H	-1.248007	-1.048312	1.794163	1
H	0.434833	-1.577412	1.668293	1
H	-1.517327	-1.282442	-0.695007	1
H	0.138443	-1.871052	-0.813837	1
H	-1.920447	1.041038	-0.735527	1
H	-0.650597	2.221117	-0.361237	1
H	-1.292057	1.195428	0.929923	1
H	1.191483	2.230768	-1.248217	1
H	2.719323	1.727867	-0.729177	1
Es	-0.244970	-0.401201	-0.303963	99
Es	1.857891	-0.278286	-0.685608	99
Es	-0.540526	-1.422220	0.486430	99
Es	-0.520463	-1.202803	-0.247069	99
Es	0.072004	0.198025	-0.633581	99
Es	2.018864	-0.783414	-0.374242	99
Es	1.643521	1.681800	-0.326348	99
Es	-0.456964	0.636976	-0.283501	99
Es	-0.766007	1.891665	-0.293252	99
Es	-0.051377	0.173188	-0.397938	99
Es	-0.553901	-1.655842	1.205118	99
Es	2.151829	-0.513308	-0.430505	99
Es	1.308611	0.376278	-0.473293	99
Es	0.113380	-1.602745	1.513116	99
Es	-1.036877	-1.232958	1.604406	99
Es	-1.026845	1.222930	-0.131081	99
Es	1.389495	2.009149	-0.976463	99
Es	2.448874	-0.404808	-0.478119	99
Es	1.716926	1.661358	-0.603054	99
Es	-0.078472	-1.651227	-0.629894	99
Es	-1.211588	-1.244439	-0.545240	99
Es	-1.635678	1.097506	-0.540335	99
Es	-0.778220	-2.361820	1.239558	99
Es	0.516910	0.269497	-0.305376	99
Es	-1.211990	1.207661	0.588499	99
Es	1.536227	1.115828	-0.619826	99
Es	1.894099	-0.190196	-0.200247	99
Es	2.303962	1.691233	-0.704913	99
45
Properties=species:S:1:pos:R:3:Z:I:1 energy=-341.2036980298435 field_type=dipole dipole="0.000000 0.000000 0.000000" charge=0
C	-0.553877	-1.655852	1.205143	6
C	-0.520497	-1.202992	-0.247097	6
N	-0.051957	0.173118	-0.398827	7
C	-1.026977	1.223058	-0.131037	6
C	1.308763	0.376148	-0.473297	6
N	1.716863	1.661718	-0.602567	7
O	2.152053	-0.513602	-0.430487	8
H	-0.880018	-2.698592	1.268793	1
H	-1.248007	-1.048312	1.794163	1
H	0.434833	-1.577412	1.668293	1
H	-1.517327	-1.282442	-0.695007	1
H	0.138443	-1.871052	-0.813837	1
H	-1.920447	1.041038	-0.735527	1
H	-0.650597	2.221117	-0.361237	1
H	-1.292057	1.195428	0.929923	1
H	1.191483	2.230768	-1.248217	1
H	2.719323	1.727867	-0.729177	1
Es	0.113326	-1.602675	1.513034	99
Es	-1.635669	1.097467	-0.540281	99
Es	-0.766118	1.891675	-0.293250	99
Es	2.448757	-0.405815	-0.478229	99
Es	0.072075	0.197997	-0.632190	99
Es	1.388977	2.009451	-0.975951	99
Es	-0.778098	-2.361890	1.239498	99
Es	1.893409	-0.187946	-0.200961	99
Es	2.303572	1.690751	-0.705880	99
Es	1.535945	1.115535	-0.618361	99
Es	1.716926	1.661353	-0.603058	99
Es	-1.211612	-1.244368	-0.545135	99
Es	-0.520464	-1.202806	-0.247070	99
Es	2.151804	-0.513322	-0.430512	99
Es	-0.078407	-1.651286	-0.629956	99
Es	1.858256	-0.281054	-0.687151	99
Es	-0.540477	-1.422238	0.486426	99
Es	-1.036990	-1.232915	1.604427	99
Es	-0.457022	0.637108	-0.283899	99
Es	-0.245069	-0.401120	-0.304175	99
Es	2.019322	-0.781943	-0.371865	99
Es	-0.553901	-1.655843	1.205118	99
Es	0.517369	0.269430	-0.305876	99
Es	1.644695	1.682232	-0.327307	99
Es	-0.051669	0.173149	-0.398165	99
Es	-1.026840	1.222930	-0.131084	99
Es	1.308611	0.376278	-0.473293	99
Es	-1.211993	1.207692	0.588425	99
45
Properties=species:S:1:pos:R:3:Z:I:1 energy=-341.2036980298435 field_type=dipole dipole="0.000000 0.000000 0.000000" charge=0
C	-0.553877	-1.655852	1.205143	6
C	-0.520497	-1.202992	-0.247097	6
N	-0.051957	0.173118	-0.398827	7
C	-1.026977	1.223058	-0.131037	6
C	1.308763	0.376148	-0.473297	6
N	1.716863	1.661718	-0.602567	7
O	2.152053	-0.513602	-0.430487	8
H	-0.880018	-2.698592	1.268793	1
H	-1.248007	-1.048312	1.794163	1
H	0.434833	-1.577412	1.668293	1
H	-1.517327	-1.282442	-0.695007	1
H	0.138443	-1.871052	-0.813837	1
H	-1.920447	1.041038	-0.735527	1
H	-0.650597	2.221117	-0.361237	1
H	-1.292057	1.195428	0.929923	1
H	1.191483	2.230768	-1.248217	1
H	2.719323	1.727867	-0.729177	1
Es	-1.211654	-1.244408	-0.545174	99
Es	-0.540440	-1.422234	0.486310	99
Es	2.151823	-0.513400	-0.430490	99
Es	0.071334	0.197326	-0.629950	99
Es	-0.078282	-1.651244	-0.629899	99
Es	-0.520461	-1.202799	-0.247067	99
Es	-0.766135	1.891486	-0.293256	99
Es	1.388969	2.010207	-0.975482	99
Es	2.303739	1.691166	-0.704832	99
Es	1.716898	1.661490	-0.602917	99
Es	2.448469	-0.405943	-0.479003	99
Es	1.858259	-0.280651	-0.686470	99
Es	-0.457232	0.637263	-0.284825	99
Es	-1.037033	-1.232946	1.604339	99
Es	-0.244788	-0.400933	-0.303193	99
Es	-0.051891	0.173131	-0.398520	99
Es	1.893868	-0.187838	-0.200412	99
Es	-1.026844	1.222929	-0.131081	99
Es	0.518229	0.269638	-0.307846	99
Es	-0.553901	-1.655842	1.205118	99
Es	2.019119	-0.782299	-0.372334	99
Es	-1.635577	1.097649	-0.540314	99
Es	-0.778131	-2.361759	1.239523	99
Es	-1.212061	1.207782	0.588530	99
Es	1.308612	0.376278	-0.473293	99
Es	0.113365	-1.602734	1.513171	99
Es	1.643671	1.680186	-0.326505	99
Es	1.536791	1.116324	-0.620848	99
45
Properties=species:S:1:pos:R:3:Z:I:1 energy=-341.2036980298435 field_type=dipole dipole="0.000000 0.000000 0.000000" charge=0
C	-0.553877	-1.655852	1.205143	6
C	-0.520497	-1.202992	-0.247097	6
N	-0.051957	0.173118	-0.398827	7
C	-1.026977	1.223058	-0.131037	6
C	1.308763	0.376148	-0.473297	6
N	1.716863	1.661718	-0.602567	7
O	2.152053	-0.513602	-0.430487	8
H	-0.880018	-2.698592	1.268793	1
H	-1.248007	-1.048312	1.794163	1
H	0.434833	-1.577412	1.668293	1
H	-1.517327	-1.282442	-0.695007	1
H	0.138443	-1.871052	-0.813837	1
H	-1.920447	1.041038	-0.735527	1
H	-0.650597	2.221117	-0.361237	1
H	-1.292057	1.195428	0.929923	1
H	1.191483	2.230768	-1.248217	1
H	2.719323	1.727867	-0.729177	1
Es	1.644306	1.680619	-0.326059	99
Es	-0.553901	-1.655843	1.205119	99
Es	-1.635744	1.097620	-0.540172	99
Es	-0.520459	-1.202798	-0.247067	99
Es	-0.766248	1.891373	-0.293308	99
Es	1.308611	0.376278	-0.473295	99
Es	1.716908	1.661413	-0.602992	99
Es	-1.026844	1.222929	-0.131082	99
Es	0.518717	0.269819	-0.309498	99
Es	-0.540369	-1.422220	0.486298	99
Es	1.536509	1.116450	-0.620528	99
Es	2.151899	-0.513176	-0.430518	99
Es	1.388883	2.010364	-0.975205	99
Es	2.449017	-0.407190	-0.477840	99
Es	0.070560	0.197371	-0.628396	99
Es	1.895521	-0.190615	-0.199249	99
Es	0.113325	-1.602802	1.513064	99
Es	-0.778064	-2.361706	1.239508	99
Es	-1.211670	-1.244313	-0.544988	99
Es	-0.244587	-0.401228	-0.303592	99
Es	-1.211858	1.207957	0.588467	99
Es	-0.078338	-1.651426	-0.629946	99
Es	-0.051633	0.173153	-0.398067	99
Es	2.303417	1.690473	-0.705835	99
Es	-1.037103	-1.232825	1.604401	99
Es	1.857420	-0.277053	-0.686416	99
Es	-0.457273	0.637318	-0.284909	99
Es	2.017714	-0.782117	-0.374618	99
45
Properties=species:S:1:pos:R:3:Z:I:1 energy=-341.2036980298435 field_type=dipole dipole="0.000000 0.000000 0.000000" charge=0
C	-0.553877	-1.655852	1.205143	6
C	-0.520497	-1.202992	-0.247097	6
N	-0.051957	0.173118	-0.398827	7
C	-1.026977	1.223058	-0.131037	6
C	1.308763	0.376148	-0.473297	6
N	1.716863	1.661718	-0.602567	7
O	2.152053	-0.513602	-0.430487	8
H	-0.880018	-2.698592	1.268793	1
H	-1.248007	-1.048312	1.794163	1
H	0.434833	-1.577412	1.668293	1
H	-1.517327	-1.282442	-0.695007	1
H	0.138443	-1.871052	-0.813837	1
H	-1.920447	1.041038	-0.735527	1
H	-0.650597	2.221117	-0.361237	1
H	-1.292057	1.195428	0.929923	1
H	1.191483	2.230768	-1.248217	1
H	2.719323	1.727867	-0.729177	1
Es	-0.540391	-1.422280	0.486361	99
Es	-1.026845	1.222931	-0.131081	99
Es	2.151814	-0.513344	-0.430502	99
Es	-0.520461	-1.202797	-0.247067	99
Es	1.308610	0.376279	-0.473292	99
Es	1.388217	2.011749	-0.973460	99
Es	-0.553900	-1.655842	1.205118	99
Es	1.536029	1.116108	-0.619440	99
Es	2.449225	-0.406704	-0.478272	99
Es	-1.635642	1.097760	-0.540440	99
Es	-1.212082	1.207847	0.588417	99
Es	0.517532	0.269461	-0.306465	99
Es	-0.244808	-0.400896	-0.303458	99
Es	-0.766129	1.891351	-0.293106	99
Es	-0.051704	0.173145	-0.398164	99
Es	-0.777972	-2.361464	1.239343	99
Es	1.716898	1.661266	-0.603018	99
Es	2.018171	-0.781818	-0.373024	99
Es	-1.211637	-1.244246	-0.544915	99
Es	2.303259	1.690074	-0.706362	99
Es	-0.078289	-1.651445	-0.630048	99
Es	0.113428	-1.602952	1.513044	99
Es	1.894238	-0.188763	-0.200386	99
Es	-1.037290	-1.232857	1.604488	99
Es	1.645637	1.680049	-0.328312	99
Es	-0.457284	0.637256	-0.284876	99
Es	1.858137	-0.279516	-0.686533	99
Es	0.071954	0.197479	-0.631269	99
45
Properties=species:S:1:pos:R:3:Z:I:1 energy=-341.2036980298435 field_type=dipole dipole="0.000000 0.000000 0.000000" charge=0
C	-0.553877	-1.655852	1.205143	6
C	-0.520497	-1.202992	-0.247097	6
N	-0.051957	0.173118	-0.398827	7
C	-1.026977	1.223058	-0.131037	6
C	1.308763	0.376148	-0.473297	6
N	1.716863	1.661718	-0.602567	7
O	2.152053	-0.513602	-0.430487	8
H	-0.880018	-2.698592	1.268793	1
H	-1.248007	-1.048312	1.794163	1
H	0.434833	-1.577412	1.668293	1
H	-1.517327	-1.282442	-0.695007	1
H	0.138443	-1.871052	-0.813837	1
H	-1.920447	1.041038	-0.735527	1
H	-0.650597	2.221117	-0.361237	1
H	-1.292057	1.195428	0.929923	1
H	1.191483	2.230768	-1.248217	1
H	2.719323	1.727867	-0.729177	1
Es	0.113342	-1.602927	1.512939	99
Es	-0.457323	0.637376	-0.285315	99
Es	-0.777965	-2.361557	1.239419	99
Es	-1.026844	1.222929	-0.131082	99
Es	0.071336	0.197176	-0.629487	99
Es	-0.078193	-1.651555	-0.629934	99
Es	1.388098	2.012149	-0.973011	99
Es	-1.037237	-1.232738	1.604506	99
Es	0.518123	0.269700	-0.308188	99
Es	-1.212127	1.207845	0.588427	99
Es	-0.553901	-1.655843	1.205119	99
Es	1.856047	-0.277079	-0.685970	99
Es	1.536810	1.116560	-0.621404	99
Es	-0.540403	-1.422174	0.486273	99
Es	-1.211689	-1.244228	-0.544891	99
Es	-0.520461	-1.202800	-0.247067	99
Es	-0.051848	0.173130	-0.398392	99
Es	1.308611	0.376278	-0.473294	99
Es	2.449450	-0.407948	-0.479316	99
Es	1.896936	-0.190593	-0.199043	99
Es	-0.244532	-0.400991	-0.302977	99
Es	-1.635534	1.097745	-0.540318	99
Es	2.151819	-0.513286	-0.430522	99
Es	2.303228	1.690558	-0.705898	99
Es	-0.766241	1.891393	-0.293174	99
Es	2.017356	-0.781271	-0.373820	99
Es	1.716907	1.661359	-0.603023	99
Es	1.644952	1.678620	-0.327280	99
45
Properties=species:S:1:pos:R:3:Z:I:1 energy=-341.2036980298435 field_type=dipole dipole="0.000000 0.000000 0.000000" charge=0
C	-0.553877	-1.655852	1.205143	6
C	-0.520497	-1.202992	-0.247097	6
N	-0.051957	0.173118	-0.398827	7
C	-1.026977	1.223058	-0.131037	6
C	1.308763	0.376148	-0.473297	6
N	1.716863	1.661718	-0.602567	7
O	2.152053	-0.513602	-0.430487	8
H	-0.880018	-2.698592	1.268793	1
H	-1.248007	-1.048312	1.794163	1
H	0.434833	-1.577412	1.668293	1
H	-1.517327	-1.282442	-0.695007	1
H	0.138443	-1.871052	-0.813837	1
H	-1.920447	1.041038	-0.735527	1
H	-0.650597	2.221117	-0.361237	1
H	-1.292057	1.195428	0.929923	1
H	1.191483	2.230768	-1.248217	1
H	2.719323	1.727867	-0.729177	1
Es	-0.244786	-0.401045	-0.303656	99
Es	2.017632	-0.780470	-0.372808	99
Es	1.857298	-0.279633	-0.686158	99
Es	0.072578	0.197516	-0.631243	99
Es	-0.457498	0.637362	-0.285675	99
Es	1.895153	-0.188611	-0.199719	99
Es	1.646285	1.680170	-0.329181	99
Es	2.151815	-0.513356	-0.430497	99
Es	1.535810	1.115984	-0.618446	99
Es	-0.553901	-1.655842	1.205118	99
Es	0.516933	0.269373	-0.305676	99
Es	2.303089	1.689732	-0.706840	99
Es	1.308613	0.376279	-0.473292	99
Es	-1.211798	-1.244293	-0.544842	99
Es	0.113395	-1.603081	1.512905	99
Es	-0.520462	-1.202803	-0.247068	99
Es	1.387858	2.011951	-0.973165	99
Es	2.449735	-0.408102	-0.479490	99
Es	-0.778096	-2.361475	1.239451	99
Es	-0.051559	0.173165	-0.398048	99
Es	-0.766268	1.891462	-0.293102	99
Es	-1.635560	1.097742	-0.540272	99
Es	-1.037219	-1.232487	1.604399	99
Es	-0.078005	-1.651541	-0.629859	99
Es	1.716926	1.661371	-0.603007	99
Es	-1.026844	1.222930	-0.131082	99
Es	-1.212110	1.207786	0.588328	99
Es	-0.540300	-1.422258	0.486208	99
45
Properties=species:S:1:pos:R:3:Z:I:1 energy=-341.2036980298435 field_type=dipole dipole="0.000000 0.000000 0.000000" charge=0
C	-0.553877	-1.655852	1.205143	6
C	-0.520497	-1.202992	-0.247097	6
N	-0.051957	0.173118	-0.398827	7
C	-1.026977	1.223058	-0.131037	6
C	1.308763	0.376148	-0.473297	6
N	1.716863	1.661718	-0.602567	7
O	2.152053	-0.513602	-0.430487	8
H	-0.880018	-2.698592	1.268793	1
H	-1.248007	-1.048312	1.794163	1
H	0.434833	-1.577412	1.668293	1
H	-1.517327	-1.282442	-0.695007	1
H	0.138443	-1.871052	-0.813837	1
H	-1.920447	1.041038	-0.735527	1
H	-0.650597	2.221117	-0.361237	1
H	-1.292057	1.195428	0.929923	1
H	1.191483	2.230768	-1.248217	1
H	2.719323	1.727867	-0.729177	1
Es	1.308612	0.376278	-0.473293	99
Es	2.018236	-0.781416	-0.372788	99
Es	1.535364	1.116280	-0.617675	99
Es	-0.457524	0.637314	-0.285593	99
Es	0.113477	-1.603017	1.513025	99
Es	-1.037417	-1.232718	1.604396	99
Es	1.387600	2.012457	-0.972434	99
Es	-0.553901	-1.655843	1.205118	99
Es	-1.026843	1.222929	-0.131082	99
Es	2.449346	-0.406863	-0.476861	99
Es	0.073176	0.197585	-0.632114	99
Es	1.860888	-0.281778	-0.687201	99
Es	-0.777959	-2.361366	1.239315	99
Es	-1.212046	1.208012	0.588371	99
Es	-0.244735	-0.400868	-0.303563	99
Es	-0.766274	1.891190	-0.293128	99
Es	-0.051701	0.173141	-0.398221	99
Es	1.716869	1.661198	-0.602930	99
Es	1.891371	-0.186793	-0.201350	99
Es	-1.635641	1.097853	-0.540342	99
Es	-0.078022	-1.651474	-0.629890	99
Es	-1.211782	-1.244239	-0.544912	99
Es	1.646887	1.680113	-0.330341	99
Es	2.151816	-0.513324	-0.430499	99
Es	-0.540348	-1.422299	0.486251	99
Es	0.516498	0.269126	-0.304659	99
Es	-0.520462	-1.202801	-0.247068	99
Es	2.303230	1.689152	-0.707255	99
45
Properties=species:S:1:pos:R:3:Z:I:1 energy=-341.2036980298435 field_type=dipole dipole="0.000000 0.000000 0.000000" charge=0
C	-0.553877	-1.655852	1.205143	6
C	-0.520497	-1.202992	-0.247097	6
N	-0.051957	0.173118	-0.398827	7
C	-1.026977	1.223058	-0.131037	6
C	1.308763	0.376148	-0.473297	6
N	1.716863	1.661718	-0.602567	7
O	2.152053	-0.513602	-0.430487	8
H	-0.880018	-2.698592	1.268793	1
H	-1.248007	-1.048312	1.794163	1
H	0.434833	-1.577412	1.668293	1
H	-1.517327	-1.282442	-0.695007	1
H	0.138443	-1.871052	-0.813837	1
H	-1.920447	1.041038	-0.735527	1
H	-0.650597	2.221117	-0.361237	1
H	-1.292057	1.195428	0.929923	1
H	1.191483	2.230768	-1.248217	1
H	2.719323	1.727867	-0.729177	1
Es	-1.037481	-1.232639	1.604385	99
Es	-0.777932	-2.361286	1.239305	99
Es	-1.211790	-1.244211	-0.544876	99
Es	-0.051657	0.173151	-0.398143	99
Es	0.517602	0.269538	-0.307485	99
Es	-0.766220	1.891099	-0.293077	99
Es	-0.457610	0.637468	-0.286023	99
Es	-0.540406	-1.422323	0.486275	99
Es	1.387821	2.012534	-0.972638	99
Es	1.891810	-0.184455	-0.202476	99
Es	-1.635740	1.097903	-0.540401	99
Es	-1.026847	1.222931	-0.131078	99
Es	0.071635	0.196822	-0.630197	99
Es	-0.244294	-0.400720	-0.302337	99
Es	1.536033	1.116563	-0.619421	99
Es	1.308611	0.376278	-0.473294	99
Es	-0.077951	-1.651558	-0.629851	99
Es	2.017919	-0.780868	-0.370291	99
Es	2.303290	1.689677	-0.706399	99
Es	-0.520462	-1.202802	-0.247068	99
Es	-0.553901	-1.655843	1.205117	99
Es	2.151885	-0.513422	-0.430487	99
Es	0.113547	-1.603054	1.512955	99
Es	2.448950	-0.407799	-0.477624	99
Es	-1.211979	1.208063	0.588365	99
Es	1.645869	1.679089	-0.329097	99
Es	1.861087	-0.283657	-0.687785	99
Es	1.716927	1.661349	-0.603073	99
