39
Properties=species:S:1:pos:R:3:Z:I:1 energy=-338.80723394654325 field_type=dipole dipole="0.000000 0.000000 0.000000" charge=0
C	-2.333139	0.034678	-0.894498	6
C	-1.295219	-0.351502	-0.147428	6
N	-0.034569	0.177348	-0.182078	7
C	1.098801	-0.132422	0.532012	6
N	1.234031	-1.039352	1.444612	7
C	2.343841	0.686258	0.215002	6
O	2.289971	1.559488	-0.639568	8
H	-3.298689	-0.450982	-0.791898	1
H	-2.251979	0.836488	-1.620958	1
H	-1.432499	-1.160372	0.565382	1
H	0.097831	0.936438	-0.853208	1
H	0.342041	-1.520891	1.572442	1
H	3.239581	0.424818	0.800191	1
Es	2.372373	1.067328	-0.497263	99
Es	2.289961	1.559303	-0.639387	99
Es	0.688957	-1.323542	1.513002	99
Es	1.233609	-1.039206	1.444322	99
Es	-2.981103	-0.291129	-0.825904	99
Es	2.556007	1.712418	-0.688689	99
Es	0.041644	0.616917	-0.578362	99
Es	-0.014325	0.156649	-0.105238	99
Es	1.704896	0.278062	0.366203	99
Es	-2.274083	0.578660	-1.386041	99
Es	-2.333168	0.034697	-0.894534	99
Es	1.104416	-0.474171	1.261100	99
Es	1.251011	-0.848948	0.867347	99
Es	1.098717	-0.132327	0.531870	99
Es	2.343757	0.686242	0.214981	99
Es	-1.294941	-0.351481	-0.147345	99
Es	-1.371837	-0.897587	0.339717	99
Es	1.999380	1.574226	-0.761090	99
Es	2.938887	0.508139	0.607841	99
Es	-1.918923	0.066863	-0.306403	99
Es	-0.568390	-0.072750	-0.157559	99
Es	-1.749361	-0.366865	-0.765795	99
Es	0.448888	0.010327	0.128926	99
Es	1.534137	-1.113619	1.626967	99
Es	2.243294	1.403953	-0.148076	99
Es	-0.034447	0.177047	-0.182299	99
39
Properties=species:S:1:pos:R:3:Z:I:1 energy=-338.80723394654325 field_type=dipole dipole="0.000000 0.000000 0.000000" charge=0
C	-2.333139	0.034678	-0.894498	6
C	-1.295219	-0.351502	-0.147428	6
N	-0.034569	0.177348	-0.182078	7
C	1.098801	-0.132422	0.532012	6
N	1.234031	-1.039352	1.444612	7
C	2.343841	0.686258	0.215002	6
O	2.289971	1.559488	-0.639568	8
H	-3.298689	-0.450982	-0.791898	1
H	-2.251979	0.836488	-1.620958	1
H	-1.432499	-1.160372	0.565382	1
H	0.097831	0.936438	-0.853208	1
H	0.342041	-1.520891	1.572442	1
H	3.239581	0.424818	0.800191	1
Es	2.552372	1.693273	-0.668091	99
Es	-0.006219	0.136460	-0.127989	99
Es	0.444189	0.020526	0.143150	99
Es	-2.333172	0.034700	-0.894535	99
Es	1.542956	-1.117246	1.632590	99
Es	-2.274688	0.580839	-1.388310	99
Es	-1.918372	0.065265	-0.308521	99
Es	1.098710	-0.132319	0.531866	99
Es	-1.372354	-0.899146	0.341170	99
Es	2.246412	1.400849	-0.149698	99
Es	2.939415	0.507829	0.608482	99
Es	2.343756	0.686239	0.214986	99
Es	1.243741	-0.846276	0.869997	99
Es	0.037964	0.621308	-0.576105	99
Es	-1.294944	-0.351482	-0.147344	99
Es	2.376397	1.070722	-0.496349	99
Es	2.289950	1.559260	-0.639356	99
Es	-2.978418	-0.291120	-0.824909	99
Es	0.690879	-1.318278	1.508836	99
Es	1.704806	0.278015	0.366292	99
Es	-0.569838	-0.065706	-0.151520	99
Es	1.233613	-1.039207	1.444320	99
Es	1.101064	-0.478997	1.257584	99
Es	-1.749824	-0.364935	-0.764162	99
Es	-0.033938	0.175963	-0.182810	99
Es	1.994900	1.592674	-0.781286	99
39
Properties=species:S:1:pos:R:3:Z:I:1 energy=-338.80723394654325 field_type=dipole dipole="0.000000 0.000000 0.000000" charge=0
C	-2.333139	0.034678	-0.894498	6
C	-1.295219	-0.351502	-0.147428	6
N	-0.034569	0.177348	-0.182078	7
C	1.098801	-0.132422	0.532012	6
N	1.234031	-1.039352	1.444612	7
C	2.343841	0.686258	0.215002	6
O	2.289971	1.559488	-0.639568	8
H	-3.298689	-0.450982	-0.791898	1
H	-2.251979	0.836488	-1.620958	1
H	-1.432499	-1.160372	0.565382	1
H	0.097831	0.936438	-0.853208	1
H	0.342041	-1.520891	1.572442	1
H	3.239581	0.424818	0.800191	1
Es	1.998529	1.609190	-0.795643	99
Es	2.548686	1.675841	-0.654187	99
Es	2.343757	0.686235	0.214985	99
Es	-1.750557	-0.363023	-0.762700	99
Es	1.704736	0.277927	0.366551	99
Es	-0.034621	0.177494	-0.181849	99
Es	-1.294935	-0.351488	-0.147352	99
Es	-2.333173	0.034701	-0.894535	99
Es	-0.568927	-0.064117	-0.151041	99
Es	-1.917360	0.063975	-0.310299	99
Es	2.939622	0.507589	0.608655	99
Es	-1.372545	-0.900179	0.341972	99
Es	0.692023	-1.315258	1.506339	99
Es	0.036423	0.621553	-0.577250	99
Es	1.098704	-0.132312	0.531872	99
Es	2.375070	1.072607	-0.494034	99
Es	2.247428	1.399822	-0.151544	99
Es	1.546541	-1.118872	1.635557	99
Es	1.233611	-1.039200	1.444310	99
Es	1.240358	-0.844791	0.871930	99
Es	1.099474	-0.482266	1.255359	99
Es	0.443340	0.019991	0.144132	99
Es	2.289993	1.559233	-0.639317	99
Es	-2.976811	-0.291327	-0.824070	99
Es	-2.275136	0.581905	-1.389606	99
Es	-0.004871	0.133978	-0.129945	99
39
Properties=species:S:1:pos:R:3:Z:I:1 energy=-338.80723394654325 field_type=dipole dipole="0.000000 0.000000 0.000000" charge=0
C	-2.333139	0.034678	-0.894498	6
C	-1.295219	-0.351502	-0.147428	6
N	-0.034569	0.177348	-0.182078	7
C	1.098801	-0.132422	0.532012	6
N	1.234031	-1.039352	1.444612	7
C	2.343841	0.686258	0.215002	6
O	2.289971	1.559488	-0.639568	8
H	-3.298689	-0.450982	-0.791898	1
H	-2.251979	0.836488	-1.620958	1
H	-1.432499	-1.160372	0.565382	1
H	0.097831	0.936438	-0.853208	1
H	0.342041	-1.520891	1.572442	1
H	3.239581	0.424818	0.800191	1
Es	1.548778	-1.119619	1.637372	99
Es	1.098705	-0.132308	0.531870	99
Es	0.692544	-1.313409	1.504448	99
Es	-1.372823	-0.900670	0.342474	99
Es	1.098777	-0.485212	1.253734	99
Es	2.939763	0.507470	0.608819	99
Es	-2.975934	-0.291923	-0.823372	99
Es	2.006347	1.625265	-0.807582	99
Es	2.372813	1.074402	-0.493251	99
Es	1.238008	-0.843135	0.873681	99
Es	-2.275467	0.582597	-1.390272	99
Es	2.343755	0.686240	0.214989	99
Es	-0.004223	0.132575	-0.131820	99
Es	-1.750622	-0.361171	-0.761324	99
Es	-1.294935	-0.351482	-0.147345	99
Es	0.442685	0.019302	0.144699	99
Es	1.233615	-1.039224	1.444328	99
Es	1.704866	0.277874	0.366539	99
Es	-0.034768	0.178011	-0.180870	99
Es	2.543343	1.660196	-0.641467	99
Es	-2.333175	0.034703	-0.894534	99
Es	0.035338	0.621972	-0.577511	99
Es	-0.568171	-0.062756	-0.150757	99
Es	2.247080	1.397523	-0.153022	99
Es	-1.916853	0.062757	-0.312201	99
Es	2.289914	1.559228	-0.639335	99
39
Properties=species:S:1:pos:R:3:Z:I:1 energy=-338.80723394654325 field_type=dipole dipole="0.000000 0.000000 0.000000" charge=0
C	-2.333139	0.034678	-0.894498	6
C	-1.295219	-0.351502	-0.147428	6
N	-0.034569	0.177348	-0.182078	7
C	1.098801	-0.132422	0.532012	6
N	1.234031	-1.039352	1.444612	7
C	2.343841	0.686258	0.215002	6
O	2.289971	1.559488	-0.639568	8
H	-3.298689	-0.450982	-0.791898	1
H	-2.251979	0.836488	-1.620958	1
H	-1.432499	-1.160372	0.565382	1
H	0.097831	0.936438	-0.853208	1
H	0.342041	-1.520891	1.572442	1
H	3.239581	0.424818	0.800191	1
Es	2.289914	1.559224	-0.639337	99
Es	2.373407	1.072531	-0.486473	99
Es	0.442366	0.018971	0.144853	99
Es	1.705025	0.277755	0.366452	99
Es	-1.916136	0.061826	-0.313881	99
Es	1.549757	-1.121105	1.639376	99
Es	-0.567112	-0.062963	-0.151488	99
Es	-2.275671	0.582909	-1.390853	99
Es	0.034640	0.621546	-0.578482	99
Es	1.233609	-1.039204	1.444314	99
Es	2.011136	1.632595	-0.814027	99
Es	1.235578	-0.840782	0.873855	99
Es	1.098704	-0.132307	0.531876	99
Es	-1.750924	-0.359742	-0.760165	99
Es	2.245456	1.399736	-0.159998	99
Es	-0.034372	0.176875	-0.182427	99
Es	-2.975397	-0.292220	-0.822543	99
Es	-1.294939	-0.351471	-0.147336	99
Es	1.099709	-0.488854	1.253432	99
Es	-1.373053	-0.901039	0.342786	99
Es	0.692729	-1.310733	1.502686	99
Es	-0.004959	0.134832	-0.129039	99
Es	-2.333178	0.034702	-0.894533	99
Es	2.343755	0.686240	0.214991	99
Es	2.539490	1.652563	-0.634666	99
Es	2.939823	0.507325	0.608915	99
39
Properties=species:S:1:pos:R:3:Z:I:1 energy=-338.80723394654325 field_type=dipole dipole="0.000000 0.000000 0.000000" charge=0
C	-2.333139	0.034678	-0.894498	6
C	-1.295219	-0.351502	-0.147428	6
N	-0.034569	0.177348	-0.182078	7
C	1.098801	-0.132422	0.532012	6
N	1.234031	-1.039352	1.444612	7
C	2.343841	0.686258	0.215002	6
O	2.289971	1.559488	-0.639568	8
H	-3.298689	-0.450982	-0.791898	1
H	-2.251979	0.836488	-1.620958	1
H	-1.432499	-1.160372	0.565382	1
H	0.097831	0.936438	-0.853208	1
H	0.342041	-1.520891	1.572442	1
H	3.239581	0.424818	0.800191	1
Es	-2.276094	0.583344	-1.390764	99
Es	1.233615	-1.039203	1.444314	99
Es	-1.914222	0.061528	-0.313812	99
Es	1.117874	-0.524128	1.253366	99
Es	-1.752697	-0.359690	-0.760639	99
Es	-1.372805	-0.901309	0.342807	99
Es	-2.333174	0.034697	-0.894541	99
Es	0.442633	0.017132	0.143451	99
Es	0.033732	0.622508	-0.577797	99
Es	-0.034701	0.177719	-0.181519	99
Es	1.098708	-0.132314	0.531869	99
Es	2.939819	0.507082	0.608893	99
Es	-1.294936	-0.351478	-0.147343	99
Es	1.550820	-1.123870	1.638321	99
Es	2.289870	1.559199	-0.639329	99
Es	-0.004365	0.133450	-0.130455	99
Es	1.705233	0.277452	0.366185	99
Es	-2.974866	-0.291828	-0.822172	99
Es	2.245381	1.402435	-0.171549	99
Es	1.215158	-0.804265	0.875753	99
Es	2.343754	0.686241	0.214990	99
Es	0.693724	-1.309210	1.502053	99
Es	2.015152	1.638386	-0.817569	99
Es	2.533018	1.647141	-0.630642	99
Es	2.375805	1.069714	-0.475143	99
Es	-0.567077	-0.061523	-0.150439	99
39
Properties=species:S:1:pos:R:3:Z:I:1 energy=-338.80723394654325 field_type=dipole dipole="0.000000 0.000000 0.000000" charge=0
C	-2.333139	0.034678	-0.894498	6
C	-1.295219	-0.351502	-0.147428	6
N	-0.034569	0.177348	-0.182078	7
C	1.098801	-0.132422	0.532012	6
N	1.234031	-1.039352	1.444612	7
C	2.343841	0.686258	0.215002	6
O	2.289971	1.559488	-0.639568	8
H	-3.298689	-0.450982	-0.791898	1
H	-2.251979	0.836488	-1.620958	1
H	-1.432499	-1.160372	0.565382	1
H	0.097831	0.936438	-0.853208	1
H	0.342041	-1.520891	1.572442	1
H	3.239581	0.424818	0.800191	1
Es	2.939783	0.507165	0.609062	99
Es	0.441819	0.018383	0.145236	99
Es	-1.372686	-0.901000	0.343239	99
Es	1.704933	0.277296	0.366064	99
Es	-1.749146	-0.359370	-0.759325	99
Es	-1.917946	0.061781	-0.314514	99
Es	2.366351	1.098637	-0.397618	99
Es	1.225209	-0.823377	0.869921	99
Es	-0.034436	0.177006	-0.182331	99
Es	2.290010	1.559222	-0.639299	99
Es	2.525824	1.641868	-0.627702	99
Es	-2.974159	-0.291984	-0.822645	99
Es	0.694606	-1.308028	1.501166	99
Es	-0.004797	0.134587	-0.129159	99
Es	1.549201	-1.123500	1.641256	99
Es	1.233615	-1.039204	1.444316	99
Es	-0.566362	-0.061795	-0.150931	99
Es	0.033756	0.620996	-0.579663	99
Es	-2.276319	0.582747	-1.391481	99
Es	-2.333175	0.034702	-0.894536	99
Es	2.019770	1.641195	-0.822851	99
Es	1.098707	-0.132313	0.531870	99
Es	2.257380	1.375716	-0.246976	99
Es	1.108599	-0.506280	1.257546	99
Es	-1.294935	-0.351481	-0.147346	99
Es	2.343756	0.686239	0.214989	99
39
Properties=species:S:1:pos:R:3:Z:I:1 energy=-338.80723394654325 field_type=dipole dipole="0.000000 0.000000 0.000000" charge=0
C	-2.333139	0.034678	-0.894498	6
C	-1.295219	-0.351502	-0.147428	6
N	-0.034569	0.177348	-0.182078	7
C	1.098801	-0.132422	0.532012	6
N	1.234031	-1.039352	1.444612	7
C	2.343841	0.686258	0.215002	6
O	2.289971	1.559488	-0.639568	8
H	-3.298689	-0.450982	-0.791898	1
H	-2.251979	0.836488	-1.620958	1
H	-1.432499	-1.160372	0.565382	1
H	0.097831	0.936438	-0.853208	1
H	0.342041	-1.520891	1.572442	1
H	3.239581	0.424818	0.800191	1
Es	-1.372477	-0.901012	0.343354	99
Es	-0.566574	-0.061145	-0.150380	99
Es	2.349327	1.148296	-0.327157	99
Es	1.232884	-0.838241	0.870948	99
Es	-0.034630	0.177515	-0.181819	99
Es	-1.294934	-0.351482	-0.147345	99
Es	1.704623	0.277436	0.366227	99
Es	0.033423	0.621234	-0.579509	99
Es	-2.276669	0.582887	-1.391451	99
Es	1.233624	-1.039212	1.444327	99
Es	2.278058	1.326805	-0.316999	99
Es	2.289886	1.559203	-0.639328	99
Es	-1.915094	0.062206	-0.313013	99
Es	2.020742	1.643751	-0.823151	99
Es	1.098708	-0.132312	0.531872	99
Es	-2.333178	0.034704	-0.894534	99
Es	1.548555	-1.124437	1.642127	99
Es	1.100888	-0.491696	1.256127	99
Es	-1.751999	-0.360262	-0.760974	99
Es	0.441640	0.018706	0.145681	99
Es	2.343755	0.686239	0.214988	99
Es	0.695448	-1.307029	1.500557	99
Es	-2.973618	-0.291472	-0.822673	99
Es	-0.004128	0.132911	-0.130833	99
Es	2.521341	1.638490	-0.627897	99
Es	2.939758	0.507123	0.609142	99
39
Properties=species:S:1:pos:R:3:Z:I:1 energy=-338.80723394654325 field_type=dipole dipole="0.000000 0.000000 0.000000" charge=0
C	-2.333139	0.034678	-0.894498	6
C	-1.295219	-0.351502	-0.147428	6
N	-0.034569	0.177348	-0.182078	7
C	1.098801	-0.132422	0.532012	6
N	1.234031	-1.039352	1.444612	7
C	2.343841	0.686258	0.215002	6
O	2.289971	1.559488	-0.639568	8
H	-3.298689	-0.450982	-0.791898	1
H	-2.251979	0.836488	-1.620958	1
H	-1.432499	-1.160372	0.565382	1
H	0.097831	0.936438	-0.853208	1
H	0.342041	-1.520891	1.572442	1
H	3.239581	0.424818	0.800191	1
Es	1.098705	-0.132310	0.531871	99
Es	2.939702	0.507127	0.609260	99
Es	-2.333178	0.034700	-0.894535	99
Es	-1.916072	0.062195	-0.313421	99
Es	1.704471	0.277859	0.366672	99
Es	-0.004953	0.134971	-0.128644	99
Es	2.302048	1.265791	-0.384696	99
Es	1.233614	-1.039203	1.444316	99
Es	2.325491	1.208835	-0.259836	99
Es	1.240686	-0.848292	0.887791	99
Es	-2.276778	0.582864	-1.391598	99
Es	2.343755	0.686240	0.214989	99
Es	-1.294935	-0.351482	-0.147346	99
Es	1.548372	-1.123935	1.643491	99
Es	-0.565877	-0.062470	-0.151906	99
Es	-0.034432	0.176995	-0.182339	99
Es	1.093012	-0.482499	1.238649	99
Es	0.695868	-1.307008	1.499485	99
Es	2.025563	1.650899	-0.825113	99
Es	2.516423	1.631660	-0.625704	99
Es	2.289895	1.559192	-0.639329	99
Es	-2.973422	-0.291727	-0.822682	99
Es	0.441658	0.018284	0.145394	99
Es	-1.372422	-0.901126	0.343333	99
Es	-1.750967	-0.359798	-0.760464	99
Es	0.033131	0.621445	-0.579348	99
39
Properties=species:S:1:pos:R:3:Z:I:1 energy=-338.80723394654325 field_type=dipole dipole="0.000000 0.000000 0.000000" charge=0
C	-2.333139	0.034678	-0.894498	6
C	-1.295219	-0.351502	-0.147428	6
N	-0.034569	0.177348	-0.182078	7
C	1.098801	-0.132422	0.532012	6
N	1.234031	-1.039352	1.444612	7
C	2.343841	0.686258	0.215002	6
O	2.289971	1.559488	-0.639568	8
H	-3.298689	-0.450982	-0.791898	1
H	-2.251979	0.836488	-1.620958	1
H	-1.432499	-1.160372	0.565382	1
H	0.097831	0.936438	-0.853208	1
H	0.342041	-1.520891	1.572442	1
H	3.239581	0.424818	0.800191	1
Es	2.028230	1.654699	-0.825784	99
Es	-1.294933	-0.351481	-0.147346	99
Es	-2.333177	0.034707	-0.894530	99
Es	0.032653	0.621549	-0.579377	99
Es	1.094243	-0.501097	1.179368	99
Es	2.296217	1.283645	-0.194355	99
Es	1.238477	-0.830489	0.946368	99
Es	1.548148	-1.123748	1.644498	99
Es	0.697017	-1.306734	1.498890	99
Es	2.939613	0.507161	0.609353	99
Es	1.233611	-1.039204	1.444315	99
Es	-0.565419	-0.062401	-0.151962	99
Es	1.704557	0.278266	0.367165	99
Es	2.289901	1.559211	-0.639330	99
Es	-0.034382	0.176899	-0.182408	99
Es	2.343756	0.686239	0.214988	99
Es	-1.915991	0.062474	-0.312898	99
Es	2.331019	1.189676	-0.451294	99
Es	0.441005	0.019382	0.146880	99
Es	-1.372280	-0.901112	0.343335	99
Es	1.098706	-0.132311	0.531871	99
Es	-0.004454	0.133747	-0.129948	99
Es	-2.277067	0.582842	-1.391671	99
Es	2.514043	1.628916	-0.624178	99
Es	-2.972944	-0.291471	-0.822837	99
Es	-1.751190	-0.360158	-0.760821	99
39
Properties=species:S:1:pos:R:3:Z:I:1 energy=-338.80723394654325 field_type=dipole dipole="0.000000 0.000000 0.000000" charge=0
C	-2.333139	0.034678	-0.894498	6
C	-1.295219	-0.351502	-0.147428	6
N	-0.034569	0.177348	-0.182078	7
C	1.098801	-0.132422	0.532012	6
N	1.234031	-1.039352	1.444612	7
C	2.343841	0.686258	0.215002	6
O	2.289971	1.559488	-0.639568	8
H	-3.298689	-0.450982	-0.791898	1
H	-2.251979	0.836488	-1.620958	1
H	-1.432499	-1.160372	0.565382	1
H	0.097831	0.936438	-0.853208	1
H	0.342041	-1.520891	1.572442	1
H	3.239581	0.424818	0.800191	1
Es	-1.748332	-0.359677	-0.759583	99
Es	-0.034631	0.177513	-0.181816	99
Es	-2.972968	-0.291217	-0.822352	99
Es	-0.004307	0.133403	-0.130253	99
Es	1.121918	-0.534195	1.249614	99
Es	-1.294934	-0.351481	-0.147347	99
Es	0.441899	0.017071	0.144342	99
Es	0.032194	0.622807	-0.578122	99
Es	1.098705	-0.132313	0.531870	99
Es	2.289880	1.559207	-0.639331	99
Es	1.704809	0.277379	0.366217	99
Es	-1.372060	-0.901509	0.343028	99
Es	-2.277447	0.583406	-1.391137	99
Es	2.030311	1.655927	-0.827709	99
Es	1.233618	-1.039210	1.444322	99
Es	2.347997	1.156436	-0.317114	99
Es	-0.565887	-0.061626	-0.151069	99
Es	-2.333177	0.034707	-0.894530	99
Es	1.549195	-1.127691	1.641424	99
Es	2.939738	0.506786	0.609050	99
Es	1.209628	-0.794531	0.879173	99
Es	0.697038	-1.305307	1.499290	99
Es	-1.918497	0.061724	-0.314724	99
Es	2.281872	1.316815	-0.328947	99
Es	2.509042	1.628547	-0.620995	99
Es	2.343756	0.686238	0.214988	99
39
Properties=species:S:1:pos:R:3:Z:I:1 energy=-338.80723394654325 field_type=dipole dipole="0.000000 0.000000 0.000000" charge=0
C	-2.333139	0.034678	-0.894498	6
C	-1.295219	-0.351502	-0.147428	6
N	-0.034569	0.177348	-0.182078	7
C	1.098801	-0.132422	0.532012	6
N	1.234031	-1.039352	1.444612	7
C	2.343841	0.686258	0.215002	6
O	2.289971	1.559488	-0.639568	8
H	-3.298689	-0.450982	-0.791898	1
H	-2.251979	0.836488	-1.620958	1
H	-1.432499	-1.160372	0.565382	1
H	0.097831	0.936438	-0.853208	1
H	0.342041	-1.520891	1.572442	1
H	3.239581	0.424818	0.800191	1
Es	-0.034721	0.177803	-0.181362	99
Es	0.032745	0.620590	-0.580559	99
Es	2.308358	1.249608	-0.400379	99
Es	0.697778	-1.305415	1.498688	99
Es	-1.294935	-0.351479	-0.147343	99
Es	-1.915429	0.062589	-0.312487	99
Es	-0.565651	-0.061036	-0.150608	99
Es	1.098708	-0.132315	0.531868	99
Es	2.031604	1.655978	-0.829182	99
Es	1.547311	-1.123768	1.646124	99
Es	-1.372230	-0.900840	0.343705	99
Es	-1.751830	-0.360056	-0.761006	99
Es	2.507275	1.625378	-0.622683	99
Es	0.440452	0.020297	0.147974	99
Es	2.343755	0.686241	0.214991	99
Es	-2.333175	0.034701	-0.894537	99
Es	2.939552	0.507174	0.609500	99
Es	1.704508	0.278132	0.366999	99
Es	2.322086	1.225765	-0.243594	99
Es	-0.003575	0.131506	-0.132343	99
Es	2.290097	1.559237	-0.639283	99
Es	1.093389	-0.499138	1.183509	99
Es	-2.972442	-0.291611	-0.823116	99
Es	1.239341	-0.833486	0.941155	99
Es	-2.277227	0.582559	-1.392063	99
Es	1.233616	-1.039206	1.444321	99
39
Properties=species:S:1:pos:R:3:Z:I:1 energy=-338.80723394654325 field_type=dipole dipole="0.000000 0.000000 0.000000" charge=0
C	-2.333139	0.034678	-0.894498	6
C	-1.295219	-0.351502	-0.147428	6
N	-0.034569	0.177348	-0.182078	7
C	1.098801	-0.132422	0.532012	6
N	1.234031	-1.039352	1.444612	7
C	2.343841	0.686258	0.215002	6
O	2.289971	1.559488	-0.639568	8
H	-3.298689	-0.450982	-0.791898	1
H	-2.251979	0.836488	-1.620958	1
H	-1.432499	-1.160372	0.565382	1
H	0.097831	0.936438	-0.853208	1
H	0.342041	-1.520891	1.572442	1
H	3.239581	0.424818	0.800191	1
Es	-1.294935	-0.351479	-0.147343	99
Es	-1.371971	-0.901180	0.343415	99
Es	-2.972310	-0.291011	-0.822754	99
Es	1.233615	-1.039205	1.444318	99
Es	-0.034578	0.177370	-0.182001	99
Es	2.256264	1.378810	-0.242041	99
Es	1.705203	0.277217	0.366126	99
Es	2.372045	1.095712	-0.402347	99
Es	1.549137	-1.127015	1.642634	99
Es	-1.749128	-0.360216	-0.760174	99
Es	2.939591	0.506784	0.609222	99
Es	2.034651	1.656913	-0.831624	99
Es	1.098706	-0.132311	0.531872	99
Es	-2.333176	0.034702	-0.894535	99
Es	2.343756	0.686238	0.214988	99
Es	2.289851	1.559187	-0.639323	99
Es	0.441475	0.017722	0.145228	99
Es	0.032154	0.621568	-0.579569	99
Es	1.173081	-0.714830	0.931411	99
Es	-1.918012	0.062349	-0.313662	99
Es	-0.565538	-0.061385	-0.150893	99
Es	0.698408	-1.304298	1.499692	99
Es	-2.277536	0.582934	-1.391714	99
Es	2.506235	1.626069	-0.619043	99
Es	1.156803	-0.615249	1.196190	99
Es	-0.004436	0.133813	-0.129783	99
39
Properties=species:S:1:pos:R:3:Z:I:1 energy=-338.80723394654325 field_type=dipole dipole="0.000000 0.000000 0.000000" charge=0
C	-2.333139	0.034678	-0.894498	6
C	-1.295219	-0.351502	-0.147428	6
N	-0.034569	0.177348	-0.182078	7
C	1.098801	-0.132422	0.532012	6
N	1.234031	-1.039352	1.444612	7
C	2.343841	0.686258	0.215002	6
O	2.289971	1.559488	-0.639568	8
H	-3.298689	-0.450982	-0.791898	1
H	-2.251979	0.836488	-1.620958	1
H	-1.432499	-1.160372	0.565382	1
H	0.097831	0.936438	-0.853208	1
H	0.342041	-1.520891	1.572442	1
H	3.239581	0.424818	0.800191	1
Es	-2.277714	0.583034	-1.391665	99
Es	-1.749931	-0.360433	-0.760642	99
Es	-0.565509	-0.061221	-0.150904	99
Es	1.098706	-0.132314	0.531868	99
Es	1.154101	-0.608763	1.201376	99
Es	1.548639	-1.127931	1.643171	99
Es	-1.371905	-0.901240	0.343400	99
Es	2.260632	1.369635	-0.257318	99
Es	1.176038	-0.721202	0.926288	99
Es	2.504704	1.624508	-0.619046	99
Es	-1.294934	-0.351480	-0.147344	99
Es	-2.972210	-0.290885	-0.822550	99
Es	2.035115	1.658559	-0.831329	99
Es	1.233615	-1.039206	1.444320	99
Es	0.441383	0.017642	0.145323	99
Es	2.343755	0.686239	0.214988	99
Es	-0.034578	0.177381	-0.181983	99
Es	2.368650	1.104780	-0.387340	99
Es	2.289962	1.559230	-0.639325	99
Es	2.939585	0.506749	0.609223	99
Es	-0.004360	0.133640	-0.129961	99
Es	0.698706	-1.303563	1.499046	99
Es	-2.333176	0.034703	-0.894535	99
Es	0.032075	0.621621	-0.579540	99
Es	-1.917103	0.062486	-0.313372	99
Es	1.705113	0.277240	0.366141	99
39
Properties=species:S:1:pos:R:3:Z:I:1 energy=-338.80723394654325 field_type=dipole dipole="0.000000 0.000000 0.000000" charge=0
C	-2.333139	0.034678	-0.894498	6
C	-1.295219	-0.351502	-0.147428	6
N	-0.034569	0.177348	-0.182078	7
C	1.098801	-0.132422	0.532012	6
N	1.234031	-1.039352	1.444612	7
C	2.343841	0.686258	0.215002	6
O	2.289971	1.559488	-0.639568	8
H	-3.298689	-0.450982	-0.791898	1
H	-2.251979	0.836488	-1.620958	1
H	-1.432499	-1.160372	0.565382	1
H	0.097831	0.936438	-0.853208	1
H	0.342041	-1.520891	1.572442	1
H	3.239581	0.424818	0.800191	1
Es	-1.294933	-0.351483	-0.147348	99
Es	2.035716	1.666735	-0.826547	99
Es	0.443033	0.013185	0.140582	99
Es	-1.748817	-0.361008	-0.761051	99
Es	-2.333177	0.034707	-0.894529	99
Es	0.030231	0.625771	-0.575033	99
Es	-0.034480	0.177131	-0.182229	99
Es	-2.278309	0.584295	-1.390225	99
Es	-0.564771	-0.062800	-0.152516	99
Es	1.170117	-0.708258	0.937249	99
Es	2.939692	0.506420	0.608879	99
Es	0.699310	-1.304616	1.497913	99
Es	-0.005212	0.135944	-0.127554	99
Es	2.336080	1.176910	-0.461584	99
Es	-2.972177	-0.290132	-0.822227	99
Es	1.158426	-0.618557	1.194043	99
Es	-1.918112	0.062175	-0.313577	99
Es	2.295097	1.293849	-0.187073	99
Es	2.290083	1.559231	-0.639281	99
Es	1.098705	-0.132310	0.531873	99
Es	2.501797	1.620656	-0.619160	99
Es	-1.371355	-0.902231	0.342253	99
Es	2.343757	0.686237	0.214986	99
Es	1.233616	-1.039202	1.444315	99
Es	1.550133	-1.131225	1.639396	99
Es	1.704908	0.277784	0.366734	99
39
Properties=species:S:1:pos:R:3:Z:I:1 energy=-338.80723394654325 field_type=dipole dipole="0.000000 0.000000 0.000000" charge=0
C	-2.333139	0.034678	-0.894498	6
C	-1.295219	-0.351502	-0.147428	6
N	-0.034569	0.177348	-0.182078	7
C	1.098801	-0.132422	0.532012	6
N	1.234031	-1.039352	1.444612	7
C	2.343841	0.686258	0.215002	6
O	2.289971	1.559488	-0.639568	8
H	-3.298689	-0.450982	-0.791898	1
H	-2.251979	0.836488	-1.620958	1
H	-1.432499	-1.160372	0.565382	1
H	0.097831	0.936438	-0.853208	1
H	0.342041	-1.520891	1.572442	1
H	3.239581	0.424818	0.800191	1
Es	-0.564968	-0.062214	-0.151837	99
Es	-2.277537	0.582306	-1.392405	99
Es	1.097971	-0.516922	1.151988	99
Es	2.289879	1.559205	-0.639334	99
Es	0.032347	0.620130	-0.581126	99
Es	1.704544	0.277964	0.366924	99
Es	-2.971794	-0.291311	-0.823260	99
Es	1.546707	-1.124325	1.647590	99
Es	1.233614	-1.039203	1.444316	99
Es	0.440205	0.020870	0.148571	99
Es	2.499617	1.619049	-0.619496	99
Es	2.038261	1.661413	-0.833149	99
Es	2.343754	0.686243	0.214992	99
Es	-1.294935	-0.351479	-0.147343	99
Es	-0.003958	0.132533	-0.131191	99
Es	-1.371993	-0.900715	0.343927	99
Es	2.939449	0.507127	0.609642	99
Es	0.699009	-1.304073	1.497935	99
Es	-1.749591	-0.360176	-0.760317	99
Es	-2.333175	0.034701	-0.894536	99
Es	1.098707	-0.132313	0.531870	99
Es	2.327680	1.215308	-0.253726	99
Es	1.234041	-0.816293	0.972216	99
Es	-0.034703	0.177740	-0.181479	99
Es	-1.917777	0.062776	-0.312963	99
Es	2.304005	1.260867	-0.389522	99
39
Properties=species:S:1:pos:R:3:Z:I:1 energy=-338.80723394654325 field_type=dipole dipole="0.000000 0.000000 0.000000" charge=0
C	-2.333139	0.034678	-0.894498	6
C	-1.295219	-0.351502	-0.147428	6
N	-0.034569	0.177348	-0.182078	7
C	1.098801	-0.132422	0.532012	6
N	1.234031	-1.039352	1.444612	7
C	2.343841	0.686258	0.215002	6
O	2.289971	1.559488	-0.639568	8
H	-3.298689	-0.450982	-0.791898	1
H	-2.251979	0.836488	-1.620958	1
H	-1.432499	-1.160372	0.565382	1
H	0.097831	0.936438	-0.853208	1
H	0.342041	-1.520891	1.572442	1
H	3.239581	0.424818	0.800191	1
Es	2.939558	0.506710	0.609269	99
Es	2.266193	1.355933	-0.278128	99
Es	1.157027	-0.615974	1.195657	99
Es	-2.971856	-0.290876	-0.822786	99
Es	-1.371736	-0.901281	0.343368	99
Es	-0.004650	0.134300	-0.129319	99
Es	1.098706	-0.132312	0.531871	99
Es	-2.277917	0.583000	-1.391709	99
Es	-1.294937	-0.351477	-0.147341	99
Es	-0.034359	0.176846	-0.182445	99
Es	0.699438	-1.302969	1.498484	99
Es	1.548356	-1.128609	1.643637	99
Es	-2.333175	0.034700	-0.894538	99
Es	-1.918404	0.062428	-0.313636	99
Es	1.233612	-1.039201	1.444321	99
Es	0.031702	0.621723	-0.579527	99
Es	1.172694	-0.713992	0.932045	99
Es	2.343756	0.686239	0.214988	99
Es	2.289931	1.559210	-0.639318	99
Es	0.441344	0.017327	0.145209	99
Es	-1.748727	-0.360231	-0.760152	99
Es	2.039005	1.662118	-0.833352	99
Es	-0.565180	-0.061132	-0.150975	99
Es	2.498862	1.620438	-0.617341	99
Es	1.705076	0.277256	0.366184	99
Es	2.365040	1.119034	-0.366180	99
39
Properties=species:S:1:pos:R:3:Z:I:1 energy=-338.80723394654325 field_type=dipole dipole="0.000000 0.000000 0.000000" charge=0
C	-2.333139	0.034678	-0.894498	6
C	-1.295219	-0.351502	-0.147428	6
N	-0.034569	0.177348	-0.182078	7
C	1.098801	-0.132422	0.532012	6
N	1.234031	-1.039352	1.444612	7
C	2.343841	0.686258	0.215002	6
O	2.289971	1.559488	-0.639568	8
H	-3.298689	-0.450982	-0.791898	1
H	-2.251979	0.836488	-1.620958	1
H	-1.432499	-1.160372	0.565382	1
H	0.097831	0.936438	-0.853208	1
H	0.342041	-1.520891	1.572442	1
H	3.239581	0.424818	0.800191	1
Es	-2.277832	0.582635	-1.392106	99
Es	2.289980	1.559163	-0.639265	99
Es	1.098711	-0.132312	0.531874	99
Es	-0.004174	0.133042	-0.130771	99
Es	0.440242	0.020127	0.148161	99
Es	1.547109	-1.125613	1.646793	99
Es	2.343755	0.686240	0.214990	99
Es	-2.333173	0.034695	-0.894542	99
Es	0.031913	0.620754	-0.580538	99
Es	-0.034197	0.176492	-0.182640	99
Es	1.102323	-0.531941	1.128724	99
Es	1.233611	-1.039188	1.444299	99
Es	2.316066	1.245396	-0.225741	99
Es	1.704571	0.278142	0.367033	99
Es	1.228476	-0.800620	0.996233	99
Es	2.939438	0.506947	0.609589	99
Es	2.039053	1.663535	-0.832581	99
Es	0.699884	-1.303793	1.497681	99
Es	2.316268	1.229583	-0.418744	99
Es	-1.750024	-0.360420	-0.760830	99
Es	2.497970	1.618371	-0.618696	99
Es	-1.371788	-0.900947	0.343739	99
Es	-1.294936	-0.351479	-0.147342	99
Es	-1.917232	0.062876	-0.312657	99
Es	-0.565051	-0.061370	-0.151218	99
Es	-2.971606	-0.291106	-0.823155	99
39
Properties=species:S:1:pos:R:3:Z:I:1 energy=-338.80723394654325 field_type=dipole dipole="0.000000 0.000000 0.000000" charge=0
C	-2.333139	0.034678	-0.894498	6
C	-1.295219	-0.351502	-0.147428	6
N	-0.034569	0.177348	-0.182078	7
C	1.098801	-0.132422	0.532012	6
N	1.234031	-1.039352	1.444612	7
C	2.343841	0.686258	0.215002	6
O	2.289971	1.559488	-0.639568	8
H	-3.298689	-0.450982	-0.791898	1
H	-2.251979	0.836488	-1.620958	1
H	-1.432499	-1.160372	0.565382	1
H	0.097831	0.936438	-0.853208	1
H	0.342041	-1.520891	1.572442	1
H	3.239581	0.424818	0.800191	1
Es	-1.918634	0.062440	-0.313633	99
Es	-2.333178	0.034709	-0.894528	99
Es	2.496215	1.618665	-0.616646	99
Es	1.704897	0.277163	0.366101	99
Es	2.356227	1.144297	-0.332484	99
Es	1.152272	-0.604531	1.204914	99
Es	-1.748485	-0.360556	-0.760325	99
Es	1.098706	-0.132311	0.531871	99
Es	2.040298	1.664328	-0.833393	99
Es	-0.033994	0.176084	-0.182774	99
Es	0.699894	-1.303052	1.498096	99
Es	-0.565100	-0.061555	-0.151376	99
Es	0.031349	0.622460	-0.578757	99
Es	1.177015	-0.724524	0.923730	99
Es	1.233616	-1.039207	1.444320	99
Es	0.441772	0.016333	0.144072	99
Es	-2.971671	-0.290515	-0.822677	99
Es	-0.005292	0.135781	-0.128204	99
Es	2.276428	1.330455	-0.312268	99
Es	-1.371543	-0.901427	0.343218	99
Es	2.939557	0.506587	0.609222	99
Es	1.548492	-1.129557	1.642981	99
Es	-2.278153	0.583208	-1.391497	99
Es	2.343756	0.686238	0.214988	99
Es	2.289846	1.559176	-0.639317	99
Es	-1.294934	-0.351480	-0.147346	99
39
Properties=species:S:1:pos:R:3:Z:I:1 energy=-338.80723394654325 field_type=dipole dipole="0.000000 0.000000 0.000000" charge=0
C	-2.333139	0.034678	-0.894498	6
C	-1.295219	-0.351502	-0.147428	6
N	-0.034569	0.177348	-0.182078	7
C	1.098801	-0.132422	0.532012	6
N	1.234031	-1.039352	1.444612	7
C	2.343841	0.686258	0.215002	6
O	2.289971	1.559488	-0.639568	8
H	-3.298689	-0.450982	-0.791898	1
H	-2.251979	0.836488	-1.620958	1
H	-1.432499	-1.160372	0.565382	1
H	0.097831	0.936438	-0.853208	1
H	0.342041	-1.520891	1.572442	1
H	3.239581	0.424818	0.800191	1
Es	2.939652	0.506383	0.608966	99
Es	-1.917277	0.062602	-0.312837	99
Es	-0.005482	0.136628	-0.126771	99
Es	1.549443	-1.131945	1.640617	99
Es	2.343757	0.686234	0.214987	99
Es	1.704879	0.277750	0.366700	99
Es	-2.278633	0.584107	-1.390480	99
Es	-1.294934	-0.351481	-0.147345	99
Es	2.289846	1.559171	-0.639316	99
Es	0.030098	0.625459	-0.575461	99
Es	1.233617	-1.039212	1.444326	99
Es	1.164490	-0.633612	1.181375	99
Es	2.327308	1.198988	-0.444864	99
Es	2.305695	1.272725	-0.203079	99
Es	-2.971617	-0.289830	-0.822302	99
Es	0.700398	-1.303389	1.497265	99
Es	-0.564473	-0.063159	-0.153041	99
Es	0.442968	0.012960	0.140522	99
Es	-2.333176	0.034705	-0.894532	99
Es	1.163592	-0.693574	0.949524	99
Es	2.495460	1.615303	-0.617533	99
Es	2.040498	1.671042	-0.828965	99
Es	-0.034533	0.177252	-0.182109	99
Es	-1.371220	-0.902055	0.342504	99
Es	-1.749704	-0.361535	-0.761736	99
Es	1.098705	-0.132310	0.531874	99
39
Properties=species:S:1:pos:R:3:Z:I:1 energy=-338.80723394654325 field_type=dipole dipole="0.000000 0.000000 0.000000" charge=0
C	-2.333139	0.034678	-0.894498	6
C	-1.295219	-0.351502	-0.147428	6
N	-0.034569	0.177348	-0.182078	7
C	1.098801	-0.132422	0.532012	6
N	1.234031	-1.039352	1.444612	7
C	2.343841	0.686258	0.215002	6
O	2.289971	1.559488	-0.639568	8
H	-3.298689	-0.450982	-0.791898	1
H	-2.251979	0.836488	-1.620958	1
H	-1.432499	-1.160372	0.565382	1
H	0.097831	0.936438	-0.853208	1
H	0.342041	-1.520891	1.572442	1
H	3.239581	0.424818	0.800191	1
Es	2.289850	1.559164	-0.639315	99
Es	0.440653	0.018727	0.146872	99
Es	2.343758	0.686236	0.214985	99
Es	1.106640	-0.544655	1.110612	99
Es	-2.278179	0.582753	-1.392007	99
Es	2.040761	1.665375	-0.833198	99
Es	2.316760	1.247372	-0.224127	99
Es	-1.915158	0.062942	-0.311934	99
Es	2.495003	1.616313	-0.618077	99
Es	-0.034626	0.177503	-0.181834	99
Es	1.098703	-0.132308	0.531868	99
Es	-2.971272	-0.290741	-0.823042	99
Es	-0.565085	-0.061047	-0.150959	99
Es	0.700369	-1.303169	1.497403	99
Es	1.704613	0.278113	0.367081	99
Es	1.223751	-0.787577	1.014689	99
Es	-1.371676	-0.900940	0.343766	99
Es	-0.004097	0.132934	-0.130647	99
Es	1.547005	-1.126603	1.646703	99
Es	-1.752029	-0.360887	-0.761813	99
Es	-1.294932	-0.351480	-0.147345	99
Es	2.939431	0.506923	0.609555	99
Es	2.316898	1.227838	-0.420303	99
Es	0.031773	0.620928	-0.580422	99
Es	1.233619	-1.039204	1.444318	99
Es	-2.333175	0.034699	-0.894539	99
39
Properties=species:S:1:pos:R:3:Z:I:1 energy=-338.80723394654325 field_type=dipole dipole="0.000000 0.000000 0.000000" charge=0
C	-2.333139	0.034678	-0.894498	6
C	-1.295219	-0.351502	-0.147428	6
N	-0.034569	0.177348	-0.182078	7
C	1.098801	-0.132422	0.532012	6
N	1.234031	-1.039352	1.444612	7
C	2.343841	0.686258	0.215002	6
O	2.289971	1.559488	-0.639568	8
H	-3.298689	-0.450982	-0.791898	1
H	-2.251979	0.836488	-1.620958	1
H	-1.432499	-1.160372	0.565382	1
H	0.097831	0.936438	-0.853208	1
H	0.342041	-1.520891	1.572442	1
H	3.239581	0.424818	0.800191	1
Es	2.343755	0.686241	0.214990	99
Es	0.440474	0.019288	0.147366	99
Es	2.493019	1.614985	-0.617418	99
Es	0.700391	-1.303240	1.497456	99
Es	1.225392	-0.791983	1.008623	99
Es	2.289867	1.559187	-0.639307	99
Es	1.105026	-0.540595	1.116343	99
Es	1.546933	-1.126096	1.647065	99
Es	-0.034320	0.176763	-0.182497	99
Es	-1.294934	-0.351480	-0.147345	99
Es	1.098705	-0.132308	0.531876	99
Es	-0.004371	0.133557	-0.130081	99
Es	2.042139	1.665820	-0.834498	99
Es	0.031877	0.620565	-0.580799	99
Es	-2.333175	0.034701	-0.894536	99
Es	-0.565020	-0.061062	-0.151039	99
Es	-2.971230	-0.291035	-0.823141	99
Es	-1.371729	-0.900861	0.343876	99
Es	-1.916565	0.062909	-0.312371	99
Es	2.939405	0.506965	0.609620	99
Es	1.704596	0.278064	0.367061	99
Es	2.322665	1.234514	-0.235876	99
Es	2.311643	1.241484	-0.407985	99
Es	-2.278089	0.582557	-1.392266	99
Es	-1.750710	-0.360530	-0.761143	99
Es	1.233616	-1.039203	1.444316	99
39
Properties=species:S:1:pos:R:3:Z:I:1 energy=-338.80723394654325 field_type=dipole dipole="0.000000 0.000000 0.000000" charge=0
C	-2.333139	0.034678	-0.894498	6
C	-1.295219	-0.351502	-0.147428	6
N	-0.034569	0.177348	-0.182078	7
C	1.098801	-0.132422	0.532012	6
N	1.234031	-1.039352	1.444612	7
C	2.343841	0.686258	0.215002	6
O	2.289971	1.559488	-0.639568	8
H	-3.298689	-0.450982	-0.791898	1
H	-2.251979	0.836488	-1.620958	1
H	-1.432499	-1.160372	0.565382	1
H	0.097831	0.936438	-0.853208	1
H	0.342041	-1.520891	1.572442	1
H	3.239581	0.424818	0.800191	1
Es	-2.971300	-0.290295	-0.822765	99
Es	-2.278225	0.582810	-1.391944	99
Es	-1.751648	-0.361251	-0.761872	99
Es	2.366083	1.123557	-0.360424	99
Es	2.267840	1.353084	-0.282628	99
Es	2.939472	0.506675	0.609349	99
Es	1.547720	-1.129173	1.644637	99
Es	1.705088	0.277231	0.366181	99
Es	-0.034566	0.177344	-0.182022	99
Es	0.700290	-1.301831	1.498153	99
Es	-2.333174	0.034699	-0.894539	99
Es	-1.915520	0.063098	-0.312010	99
Es	1.157032	-0.676880	0.963929	99
Es	2.343758	0.686234	0.214982	99
Es	1.172380	-0.653607	1.163251	99
Es	2.289889	1.559199	-0.639323	99
Es	1.233623	-1.039203	1.444315	99
Es	0.031786	0.621145	-0.580245	99
Es	-1.371538	-0.901063	0.343637	99
Es	2.492671	1.616034	-0.616639	99
Es	-1.294933	-0.351482	-0.147347	99
Es	1.098705	-0.132312	0.531870	99
Es	0.440459	0.018812	0.147083	99
Es	2.042573	1.664748	-0.835438	99
Es	-0.003776	0.132164	-0.131445	99
Es	-0.565330	-0.060527	-0.150458	99
39
Properties=species:S:1:pos:R:3:Z:I:1 energy=-338.80723394654325 field_type=dipole dipole="0.000000 0.000000 0.000000" charge=0
C	-2.333139	0.034678	-0.894498	6
C	-1.295219	-0.351502	-0.147428	6
N	-0.034569	0.177348	-0.182078	7
C	1.098801	-0.132422	0.532012	6
N	1.234031	-1.039352	1.444612	7
C	2.343841	0.686258	0.215002	6
O	2.289971	1.559488	-0.639568	8
H	-3.298689	-0.450982	-0.791898	1
H	-2.251979	0.836488	-1.620958	1
H	-1.432499	-1.160372	0.565382	1
H	0.097831	0.936438	-0.853208	1
H	0.342041	-1.520891	1.572442	1
H	3.239581	0.424818	0.800191	1
Es	1.546697	-1.123893	1.648443	99
Es	2.360057	1.139552	-0.339143	99
Es	0.032599	0.618421	-0.582998	99
Es	-0.003924	0.132489	-0.131503	99
Es	2.273041	1.338631	-0.302379	99
Es	2.289843	1.559179	-0.639321	99
Es	1.704882	0.277519	0.366640	99
Es	2.491325	1.614927	-0.615812	99
Es	1.216531	-0.767460	1.041471	99
Es	-1.751638	-0.361093	-0.761738	99
Es	-1.371796	-0.900327	0.344351	99
Es	-1.915951	0.063604	-0.311215	99
Es	0.700272	-1.302768	1.498654	99
Es	-2.970679	-0.290789	-0.823618	99
Es	-1.294935	-0.351478	-0.147343	99
Es	1.113891	-0.567070	1.081716	99
Es	-0.034108	0.176297	-0.182736	99
Es	2.343755	0.686243	0.214992	99
Es	-2.333171	0.034694	-0.894544	99
Es	2.045066	1.663465	-0.838675	99
Es	1.233602	-1.039187	1.444296	99
Es	2.939346	0.507058	0.609739	99
Es	1.098709	-0.132320	0.531863	99
Es	-0.565462	-0.060046	-0.149743	99
Es	-2.278069	0.581805	-1.392951	99
Es	0.439474	0.021756	0.149844	99
39
Properties=species:S:1:pos:R:3:Z:I:1 energy=-338.80723394654325 field_type=dipole dipole="0.000000 0.000000 0.000000" charge=0
C	-2.333139	0.034678	-0.894498	6
C	-1.295219	-0.351502	-0.147428	6
N	-0.034569	0.177348	-0.182078	7
C	1.098801	-0.132422	0.532012	6
N	1.234031	-1.039352	1.444612	7
C	2.343841	0.686258	0.215002	6
O	2.289971	1.559488	-0.639568	8
H	-3.298689	-0.450982	-0.791898	1
H	-2.251979	0.836488	-1.620958	1
H	-1.432499	-1.160372	0.565382	1
H	0.097831	0.936438	-0.853208	1
H	0.342041	-1.520891	1.572442	1
H	3.239581	0.424818	0.800191	1
Es	0.440819	0.018380	0.146447	99
Es	-1.749874	-0.360650	-0.760913	99
Es	2.343756	0.686240	0.214989	99
Es	2.289927	1.559249	-0.639357	99
Es	2.043833	1.667430	-0.835131	99
Es	1.108749	-0.551359	1.101671	99
Es	1.098706	-0.132311	0.531872	99
Es	-0.564619	-0.061841	-0.151849	99
Es	-1.917432	0.063035	-0.312518	99
Es	-2.278184	0.582565	-1.392235	99
Es	-0.004592	0.134125	-0.129471	99
Es	-1.294934	-0.351479	-0.147344	99
Es	-1.371659	-0.900929	0.343795	99
Es	0.700906	-1.302588	1.496824	99
Es	-0.034708	0.177729	-0.181496	99
Es	2.490811	1.613691	-0.616365	99
Es	1.546550	-1.126833	1.647603	99
Es	0.031724	0.620654	-0.580735	99
Es	2.312916	1.238525	-0.410740	99
Es	1.221573	-0.781126	1.023421	99
Es	-2.333174	0.034699	-0.894539	99
Es	2.321771	1.237186	-0.233394	99
Es	2.939419	0.506943	0.609586	99
Es	1.704576	0.277925	0.367010	99
Es	1.233614	-1.039197	1.444310	99
Es	-2.971116	-0.290854	-0.823155	99
