41
Properties=species:S:1:pos:R:3:Z:I:1 energy=-359.8575284792324 field_type=dipole dipole="0.000000 0.000000 0.000000" charge=0
C	-0.451188	-1.991179	0.034695	6
C	0.683562	-1.018909	0.291545	6
N	0.189602	0.332071	0.427305	7
C	0.284842	1.272481	-0.571035	6
O	0.831532	1.137161	-1.653895	8
C	-0.365848	2.599651	-0.228985	6
O	-1.051648	2.721591	0.777295	8
H	-0.067438	-3.011049	-0.063345	1
H	-0.990868	-1.735309	-0.884245	1
H	-1.173278	-1.975029	0.859165	1
H	1.411202	-1.067769	-0.523785	1
H	1.193752	-1.272879	1.224665	1
H	-0.337828	0.600042	1.256115	1
H	-0.156398	3.409122	-0.945495	1
Es	0.950386	0.851477	-1.693226	99
Es	0.189493	0.332089	0.427166	99
Es	-0.997740	2.605900	0.269631	99
Es	-0.451166	-1.991168	0.034708	99
Es	-0.041444	1.936295	-0.390608	99
Es	0.011037	0.562433	0.003817	99
Es	0.451759	0.644004	0.316188	99
Es	0.111369	-1.500709	0.162350	99
Es	0.427085	1.112184	-1.380437	99
Es	0.813961	1.399159	-1.817778	99
Es	-0.122219	0.472881	0.909121	99
Es	1.026349	-1.192346	0.931267	99
Es	-1.170061	3.005592	0.816929	99
Es	-0.365853	2.599597	-0.228956	99
Es	0.831385	1.137188	-1.653597	99
Es	-0.591865	2.739533	0.534744	99
Es	0.683448	-1.018733	0.291573	99
Es	0.857395	1.263885	-1.184297	99
Es	-1.066394	2.451080	0.938170	99
Es	0.284787	1.272434	-0.570908	99
Es	-1.051467	2.721542	0.777042	99
Es	-0.223878	3.140076	-0.712723	99
Es	0.389436	-0.232291	0.363990	99
Es	-0.812790	-1.813168	-0.588220	99
Es	-0.183932	-2.682608	-0.029612	99
Es	1.169260	-1.046808	-0.252618	99
Es	-0.939274	-1.974825	0.601973	99
41
Properties=species:S:1:pos:R:3:Z:I:1 energy=-359.8575284792324 field_type=dipole dipole="0.000000 0.000000 0.000000" charge=0
C	-0.451188	-1.991179	0.034695	6
C	0.683562	-1.018909	0.291545	6
N	0.189602	0.332071	0.427305	7
C	0.284842	1.272481	-0.571035	6
O	0.831532	1.137161	-1.653895	8
C	-0.365848	2.599651	-0.228985	6
O	-1.051648	2.721591	0.777295	8
H	-0.067438	-3.011049	-0.063345	1
H	-0.990868	-1.735309	-0.884245	1
H	-1.173278	-1.975029	0.859165	1
H	1.411202	-1.067769	-0.523785	1
H	1.193752	-1.272879	1.224665	1
H	-0.337828	0.600042	1.256115	1
H	-0.156398	3.409122	-0.945495	1
Es	0.411396	0.579997	0.358125	99
Es	0.822448	1.399531	-1.831697	99
Es	0.111414	-1.500507	0.162973	99
Es	-0.998413	2.605946	0.269625	99
Es	-0.130632	0.473166	0.910646	99
Es	-0.223810	3.140133	-0.713276	99
Es	0.189420	0.332059	0.427133	99
Es	0.284800	1.272440	-0.570898	99
Es	0.831372	1.137215	-1.653590	99
Es	0.064296	0.626136	-0.033854	99
Es	0.384224	-0.233440	0.359085	99
Es	0.857251	1.261376	-1.187218	99
Es	-1.075519	2.453225	0.955997	99
Es	-0.451166	-1.991166	0.034708	99
Es	-1.158611	3.000476	0.801074	99
Es	-0.809944	-1.813759	-0.589237	99
Es	0.683447	-1.018731	0.291573	99
Es	1.171622	-1.047703	-0.256451	99
Es	-0.593045	2.741932	0.533379	99
Es	-1.051448	2.721514	0.777028	99
Es	-0.942122	-1.975625	0.606208	99
Es	0.425651	1.109217	-1.378256	99
Es	-0.042568	1.936031	-0.390620	99
Es	1.023283	-1.192053	0.931919	99
Es	-0.183013	-2.678612	-0.030976	99
Es	-0.365859	2.599594	-0.228964	99
Es	0.944596	0.856298	-1.678747	99
41
Properties=species:S:1:pos:R:3:Z:I:1 energy=-359.8575284792324 field_type=dipole dipole="0.000000 0.000000 0.000000" charge=0
C	-0.451188	-1.991179	0.034695	6
C	0.683562	-1.018909	0.291545	6
N	0.189602	0.332071	0.427305	7
C	0.284842	1.272481	-0.571035	6
O	0.831532	1.137161	-1.653895	8
C	-0.365848	2.599651	-0.228985	6
O	-1.051648	2.721591	0.777295	8
H	-0.067438	-3.011049	-0.063345	1
H	-0.990868	-1.735309	-0.884245	1
H	-1.173278	-1.975029	0.859165	1
H	1.411202	-1.067769	-0.523785	1
H	1.193752	-1.272879	1.224665	1
H	-0.337828	0.600042	1.256115	1
H	-0.156398	3.409122	-0.945495	1
Es	-0.183120	-2.676060	-0.031279	99
Es	0.421808	1.111141	-1.374688	99
Es	-0.999340	2.603705	0.268419	99
Es	0.111769	-1.500413	0.162939	99
Es	-0.590885	2.739996	0.535959	99
Es	0.188971	0.332095	0.426736	99
Es	0.832170	1.392433	-1.843824	99
Es	0.284795	1.272439	-0.570902	99
Es	1.172548	-1.047983	-0.258011	99
Es	0.831382	1.137210	-1.653606	99
Es	0.683448	-1.018732	0.291572	99
Es	-1.051468	2.721521	0.777048	99
Es	-0.132511	0.474330	0.912179	99
Es	-0.223738	3.139815	-0.713339	99
Es	0.936296	0.859909	-1.665616	99
Es	-0.943083	-1.976074	0.608067	99
Es	-0.451166	-1.991167	0.034709	99
Es	0.860261	1.262318	-1.191912	99
Es	0.348774	0.525422	0.370009	99
Es	1.021569	-1.191878	0.932301	99
Es	-1.145127	2.993893	0.784179	99
Es	0.130213	0.679274	-0.044506	99
Es	0.383192	-0.233836	0.356668	99
Es	-1.090023	2.463993	0.971890	99
Es	-0.043269	1.936080	-0.390509	99
Es	-0.365845	2.599598	-0.228956	99
Es	-0.808553	-1.814338	-0.589836	99
41
Properties=species:S:1:pos:R:3:Z:I:1 energy=-359.8575284792324 field_type=dipole dipole="0.000000 0.000000 0.000000" charge=0
C	-0.451188	-1.991179	0.034695	6
C	0.683562	-1.018909	0.291545	6
N	0.189602	0.332071	0.427305	7
C	0.284842	1.272481	-0.571035	6
O	0.831532	1.137161	-1.653895	8
C	-0.365848	2.599651	-0.228985	6
O	-1.051648	2.721591	0.777295	8
H	-0.067438	-3.011049	-0.063345	1
H	-0.990868	-1.735309	-0.884245	1
H	-1.173278	-1.975029	0.859165	1
H	1.411202	-1.067769	-0.523785	1
H	1.193752	-1.272879	1.224665	1
H	-0.337828	0.600042	1.256115	1
H	-0.156398	3.409122	-0.945495	1
Es	0.841420	1.382273	-1.855447	99
Es	-0.589259	2.733312	0.537705	99
Es	0.831360	1.137232	-1.653578	99
Es	-1.000824	2.597392	0.269136	99
Es	-1.123251	2.502119	1.005679	99
Es	1.172915	-1.048554	-0.258675	99
Es	-0.807593	-1.814493	-0.589822	99
Es	-1.051358	2.721319	0.776985	99
Es	0.284797	1.272439	-0.570898	99
Es	0.387174	-0.233631	0.357373	99
Es	0.858327	1.266641	-1.190611	99
Es	-0.365849	2.599596	-0.228961	99
Es	0.930191	0.862050	-1.651194	99
Es	0.301759	0.499223	0.361402	99
Es	0.683448	-1.018732	0.291573	99
Es	-0.129759	0.476769	0.914811	99
Es	0.420790	1.114037	-1.378915	99
Es	0.189180	0.332022	0.426976	99
Es	-0.182474	-2.675824	-0.031263	99
Es	-0.223883	3.139630	-0.713196	99
Es	-1.112239	2.969179	0.748120	99
Es	-0.943572	-1.975364	0.608661	99
Es	-0.451168	-1.991172	0.034707	99
Es	0.111467	-1.500173	0.162796	99
Es	-0.043186	1.936211	-0.390248	99
Es	1.020587	-1.192082	0.932242	99
Es	0.170069	0.703274	-0.039670	99
41
Properties=species:S:1:pos:R:3:Z:I:1 energy=-359.8575284792324 field_type=dipole dipole="0.000000 0.000000 0.000000" charge=0
C	-0.451188	-1.991179	0.034695	6
C	0.683562	-1.018909	0.291545	6
N	0.189602	0.332071	0.427305	7
C	0.284842	1.272481	-0.571035	6
O	0.831532	1.137161	-1.653895	8
C	-0.365848	2.599651	-0.228985	6
O	-1.051648	2.721591	0.777295	8
H	-0.067438	-3.011049	-0.063345	1
H	-0.990868	-1.735309	-0.884245	1
H	-1.173278	-1.975029	0.859165	1
H	1.411202	-1.067769	-0.523785	1
H	1.193752	-1.272879	1.224665	1
H	-0.337828	0.600042	1.256115	1
H	-0.156398	3.409122	-0.945495	1
Es	0.266128	0.482582	0.350786	99
Es	-0.943417	-1.974857	0.609042	99
Es	0.683449	-1.018730	0.291571	99
Es	1.020165	-1.192644	0.932358	99
Es	-0.043251	1.936208	-0.390072	99
Es	-0.224030	3.139626	-0.713283	99
Es	0.416560	1.123431	-1.380645	99
Es	-0.127922	0.477925	0.916040	99
Es	0.189011	0.332037	0.426821	99
Es	0.831361	1.137218	-1.653552	99
Es	0.859718	1.275775	-1.194764	99
Es	0.198759	0.717729	-0.032471	99
Es	-0.451169	-1.991171	0.034707	99
Es	-0.592785	2.738106	0.535490	99
Es	-1.084486	2.462262	0.967431	99
Es	-0.365853	2.599596	-0.228961	99
Es	0.871290	0.935799	-1.583204	99
Es	0.392114	-0.232534	0.359625	99
Es	-1.148900	2.999467	0.789383	99
Es	1.172769	-1.049135	-0.259088	99
Es	0.111298	-1.500072	0.162812	99
Es	-0.999161	2.602091	0.268422	99
Es	0.284795	1.272439	-0.570899	99
Es	0.903154	1.290049	-1.917537	99
Es	-0.807263	-1.813782	-0.589722	99
Es	-0.181820	-2.676288	-0.031595	99
Es	-1.051444	2.721566	0.776994	99
41
Properties=species:S:1:pos:R:3:Z:I:1 energy=-359.8575284792324 field_type=dipole dipole="0.000000 0.000000 0.000000" charge=0
C	-0.451188	-1.991179	0.034695	6
C	0.683562	-1.018909	0.291545	6
N	0.189602	0.332071	0.427305	7
C	0.284842	1.272481	-0.571035	6
O	0.831532	1.137161	-1.653895	8
C	-0.365848	2.599651	-0.228985	6
O	-1.051648	2.721591	0.777295	8
H	-0.067438	-3.011049	-0.063345	1
H	-0.990868	-1.735309	-0.884245	1
H	-1.173278	-1.975029	0.859165	1
H	1.411202	-1.067769	-0.523785	1
H	1.193752	-1.272879	1.224665	1
H	-0.337828	0.600042	1.256115	1
H	-0.156398	3.409122	-0.945495	1
Es	-0.181241	-2.676417	-0.031694	99
Es	-0.451161	-1.991170	0.034708	99
Es	-1.051440	2.721500	0.776995	99
Es	0.284794	1.272439	-0.570900	99
Es	0.683449	-1.018733	0.291571	99
Es	0.415931	1.124860	-1.381967	99
Es	-0.943287	-1.974445	0.609407	99
Es	-0.124432	0.479548	0.918134	99
Es	-0.224259	3.139609	-0.713412	99
Es	-0.593435	2.737164	0.535658	99
Es	-0.806913	-1.813301	-0.589859	99
Es	0.235296	0.470157	0.338232	99
Es	-1.088438	2.465136	0.972599	99
Es	0.220390	0.727254	-0.024756	99
Es	1.172613	-1.049618	-0.259493	99
Es	0.396968	-0.231196	0.361941	99
Es	-1.144879	2.998369	0.783951	99
Es	0.831184	1.137530	-1.653425	99
Es	-0.043122	1.936270	-0.390042	99
Es	0.111175	-1.499998	0.162864	99
Es	0.916029	1.263597	-1.924250	99
Es	1.019730	-1.192996	0.932655	99
Es	0.189411	0.332021	0.427155	99
Es	-0.998308	2.601373	0.268698	99
Es	0.858570	0.959720	-1.575916	99
Es	0.860298	1.276424	-1.194203	99
Es	-0.365853	2.599595	-0.228963	99
41
Properties=species:S:1:pos:R:3:Z:I:1 energy=-359.8575284792324 field_type=dipole dipole="0.000000 0.000000 0.000000" charge=0
C	-0.451188	-1.991179	0.034695	6
C	0.683562	-1.018909	0.291545	6
N	0.189602	0.332071	0.427305	7
C	0.284842	1.272481	-0.571035	6
O	0.831532	1.137161	-1.653895	8
C	-0.365848	2.599651	-0.228985	6
O	-1.051648	2.721591	0.777295	8
H	-0.067438	-3.011049	-0.063345	1
H	-0.990868	-1.735309	-0.884245	1
H	-1.173278	-1.975029	0.859165	1
H	1.411202	-1.067769	-0.523785	1
H	1.193752	-1.272879	1.224665	1
H	-0.337828	0.600042	1.256115	1
H	-0.156398	3.409122	-0.945495	1
Es	-0.451167	-1.991168	0.034709	99
Es	-0.043208	1.936206	-0.390138	99
Es	0.831428	1.136867	-1.653417	99
Es	-1.101120	2.477065	0.987023	99
Es	-1.051448	2.721666	0.776947	99
Es	0.860191	1.276881	-1.197035	99
Es	0.284795	1.272439	-0.570898	99
Es	0.220715	0.727253	-0.024567	99
Es	0.854907	0.968936	-1.573357	99
Es	-0.997362	2.598554	0.269631	99
Es	-0.224424	3.139685	-0.713327	99
Es	0.415884	1.124846	-1.379378	99
Es	0.235183	0.470115	0.338294	99
Es	-0.365855	2.599595	-0.228963	99
Es	0.919740	1.254407	-1.926510	99
Es	-0.943400	-1.973775	0.609485	99
Es	-0.593855	2.733996	0.536178	99
Es	0.189051	0.332014	0.426868	99
Es	0.110900	-1.499679	0.162926	99
Es	0.683447	-1.018729	0.291573	99
Es	-1.132581	2.992341	0.768224	99
Es	-0.806368	-1.812663	-0.589387	99
Es	1.019248	-1.193581	0.932552	99
Es	-0.180433	-2.677156	-0.032099	99
Es	1.172455	-1.050159	-0.259923	99
Es	0.396861	-0.231047	0.362187	99
Es	-0.124516	0.479781	0.918093	99
41
Properties=species:S:1:pos:R:3:Z:I:1 energy=-359.8575284792324 field_type=dipole dipole="0.000000 0.000000 0.000000" charge=0
C	-0.451188	-1.991179	0.034695	6
C	0.683562	-1.018909	0.291545	6
N	0.189602	0.332071	0.427305	7
C	0.284842	1.272481	-0.571035	6
O	0.831532	1.137161	-1.653895	8
C	-0.365848	2.599651	-0.228985	6
O	-1.051648	2.721591	0.777295	8
H	-0.067438	-3.011049	-0.063345	1
H	-0.990868	-1.735309	-0.884245	1
H	-1.173278	-1.975029	0.859165	1
H	1.411202	-1.067769	-0.523785	1
H	1.193752	-1.272879	1.224665	1
H	-0.337828	0.600042	1.256115	1
H	-0.156398	3.409122	-0.945495	1
Es	0.856724	1.364647	-1.877562	99
Es	-0.224657	3.139551	-0.713458	99
Es	0.914687	0.869183	-1.627064	99
Es	0.831347	1.137266	-1.653571	99
Es	-1.172420	2.597709	1.040190	99
Es	-1.000557	2.591436	0.268624	99
Es	-1.061496	2.883537	0.712120	99
Es	0.422041	1.121250	-1.374062	99
Es	-0.451167	-1.991167	0.034709	99
Es	-0.180238	-2.677195	-0.032275	99
Es	0.110999	-1.499667	0.162796	99
Es	0.683447	-1.018733	0.291572	99
Es	-1.051386	2.721364	0.777003	99
Es	-0.121881	0.480946	0.919624	99
Es	-0.806149	-1.812175	-0.589472	99
Es	-0.365854	2.599594	-0.228962	99
Es	-0.043162	1.936279	-0.390061	99
Es	0.284798	1.272439	-0.570897	99
Es	-0.590055	2.729789	0.540325	99
Es	0.235300	0.732850	-0.018337	99
Es	0.189323	0.332009	0.427098	99
Es	0.217046	0.463265	0.329988	99
Es	0.397229	-0.230763	0.362523	99
Es	0.857181	1.269260	-1.197591	99
Es	1.018834	-1.194074	0.932766	99
Es	-0.943064	-1.973360	0.609951	99
Es	1.172197	-1.050548	-0.260287	99
41
Properties=species:S:1:pos:R:3:Z:I:1 energy=-359.8575284792324 field_type=dipole dipole="0.000000 0.000000 0.000000" charge=0
C	-0.451188	-1.991179	0.034695	6
C	0.683562	-1.018909	0.291545	6
N	0.189602	0.332071	0.427305	7
C	0.284842	1.272481	-0.571035	6
O	0.831532	1.137161	-1.653895	8
C	-0.365848	2.599651	-0.228985	6
O	-1.051648	2.721591	0.777295	8
H	-0.067438	-3.011049	-0.063345	1
H	-0.990868	-1.735309	-0.884245	1
H	-1.173278	-1.975029	0.859165	1
H	1.411202	-1.067769	-0.523785	1
H	1.193752	-1.272879	1.224665	1
H	-0.337828	0.600042	1.256115	1
H	-0.156398	3.409122	-0.945495	1
Es	-0.122825	0.480007	0.919168	99
Es	-0.224530	3.139730	-0.713631	99
Es	0.932590	1.223500	-1.930828	99
Es	0.284799	1.272440	-0.570897	99
Es	0.683447	-1.018731	0.291571	99
Es	-0.179770	-2.677067	-0.032312	99
Es	-0.942967	-1.973359	0.610157	99
Es	0.397907	-0.230224	0.363001	99
Es	-1.098025	2.473533	0.985943	99
Es	0.840899	1.003126	-1.570638	99
Es	-0.596565	2.735132	0.535727	99
Es	0.233239	0.732132	-0.019466	99
Es	-0.365854	2.599595	-0.228963	99
Es	-0.043269	1.936263	-0.390097	99
Es	0.110730	-1.499670	0.162839	99
Es	0.189069	0.332013	0.426889	99
Es	1.172078	-1.050713	-0.260463	99
Es	-0.995552	2.599723	0.269163	99
Es	-0.805857	-1.811665	-0.589766	99
Es	-1.134482	2.993432	0.770412	99
Es	0.861954	1.273685	-1.201325	99
Es	-0.451165	-1.991168	0.034709	99
Es	0.415320	1.124454	-1.373344	99
Es	0.219516	0.463969	0.331301	99
Es	0.831347	1.137257	-1.653573	99
Es	-1.051448	2.721760	0.776905	99
Es	1.018482	-1.194460	0.933205	99
41
Properties=species:S:1:pos:R:3:Z:I:1 energy=-359.8575284792324 field_type=dipole dipole="0.000000 0.000000 0.000000" charge=0
C	-0.451188	-1.991179	0.034695	6
C	0.683562	-1.018909	0.291545	6
N	0.189602	0.332071	0.427305	7
C	0.284842	1.272481	-0.571035	6
O	0.831532	1.137161	-1.653895	8
C	-0.365848	2.599651	-0.228985	6
O	-1.051648	2.721591	0.777295	8
H	-0.067438	-3.011049	-0.063345	1
H	-0.990868	-1.735309	-0.884245	1
H	-1.173278	-1.975029	0.859165	1
H	1.411202	-1.067769	-0.523785	1
H	1.193752	-1.272879	1.224665	1
H	-0.337828	0.600042	1.256115	1
H	-0.156398	3.409122	-0.945495	1
Es	0.419142	1.129247	-1.371882	99
Es	-0.043149	1.936250	-0.390125	99
Es	0.189494	0.332043	0.427206	99
Es	-0.592576	2.724663	0.540660	99
Es	-1.074535	2.920546	0.715590	99
Es	0.219585	0.464366	0.331122	99
Es	0.396437	-0.231217	0.362081	99
Es	-0.943128	-1.972114	0.610016	99
Es	1.172275	-1.051490	-0.260464	99
Es	-0.365861	2.599593	-0.228966	99
Es	0.284797	1.272439	-0.570897	99
Es	-1.159721	2.568428	1.034380	99
Es	0.882365	0.910984	-1.586570	99
Es	0.683447	-1.018730	0.291573	99
Es	0.891793	1.307822	-1.912475	99
Es	-0.997629	2.589136	0.270651	99
Es	-0.451167	-1.991167	0.034709	99
Es	0.232965	0.732106	-0.018777	99
Es	-0.805398	-1.811174	-0.588029	99
Es	-0.224865	3.139606	-0.713242	99
Es	0.110264	-1.499636	0.162671	99
Es	-0.121961	0.481630	0.919349	99
Es	1.018104	-1.194565	0.932241	99
Es	-1.051370	2.721275	0.777019	99
Es	-0.179032	-2.678647	-0.033359	99
Es	0.831281	1.137351	-1.653497	99
Es	0.857511	1.275950	-1.205296	99
41
Properties=species:S:1:pos:R:3:Z:I:1 energy=-359.8575284792324 field_type=dipole dipole="0.000000 0.000000 0.000000" charge=0
C	-0.451188	-1.991179	0.034695	6
C	0.683562	-1.018909	0.291545	6
N	0.189602	0.332071	0.427305	7
C	0.284842	1.272481	-0.571035	6
O	0.831532	1.137161	-1.653895	8
C	-0.365848	2.599651	-0.228985	6
O	-1.051648	2.721591	0.777295	8
H	-0.067438	-3.011049	-0.063345	1
H	-0.990868	-1.735309	-0.884245	1
H	-1.173278	-1.975029	0.859165	1
H	1.411202	-1.067769	-0.523785	1
H	1.193752	-1.272879	1.224665	1
H	-0.337828	0.600042	1.256115	1
H	-0.156398	3.409122	-0.945495	1
Es	-0.224284	3.140023	-0.714550	99
Es	-1.051444	2.721631	0.776959	99
Es	0.284795	1.272438	-0.570898	99
Es	-1.120598	2.497497	1.010817	99
Es	0.683446	-1.018730	0.291571	99
Es	0.990224	0.992913	-1.875940	99
Es	-0.179933	-2.674360	-0.031261	99
Es	0.430505	1.076556	-1.362441	99
Es	-0.598509	2.738140	0.534133	99
Es	-0.043604	1.936365	-0.390098	99
Es	-0.365855	2.599595	-0.228964	99
Es	0.211832	0.460469	0.327734	99
Es	-1.109137	2.960938	0.748389	99
Es	0.761307	1.320354	-1.639153	99
Es	1.171061	-1.050061	-0.261059	99
Es	0.111338	-1.499378	0.162914	99
Es	-0.995876	2.604654	0.267681	99
Es	-0.805579	-1.810587	-0.592758	99
Es	-0.451166	-1.991167	0.034708	99
Es	0.868517	1.236475	-1.198615	99
Es	0.240435	0.735023	-0.017500	99
Es	1.017578	-1.196267	0.935575	99
Es	-0.122455	0.477598	0.919513	99
Es	0.831390	1.137007	-1.653470	99
Es	0.397634	-0.229261	0.364160	99
Es	0.189458	0.332032	0.427183	99
Es	-0.942014	-1.975206	0.611058	99
41
Properties=species:S:1:pos:R:3:Z:I:1 energy=-359.8575284792324 field_type=dipole dipole="0.000000 0.000000 0.000000" charge=0
C	-0.451188	-1.991179	0.034695	6
C	0.683562	-1.018909	0.291545	6
N	0.189602	0.332071	0.427305	7
C	0.284842	1.272481	-0.571035	6
O	0.831532	1.137161	-1.653895	8
C	-0.365848	2.599651	-0.228985	6
O	-1.051648	2.721591	0.777295	8
H	-0.067438	-3.011049	-0.063345	1
H	-0.990868	-1.735309	-0.884245	1
H	-1.173278	-1.975029	0.859165	1
H	1.411202	-1.067769	-0.523785	1
H	1.193752	-1.272879	1.224665	1
H	-0.337828	0.600042	1.256115	1
H	-0.156398	3.409122	-0.945495	1
Es	-0.451166	-1.991166	0.034708	99
Es	1.171831	-1.051587	-0.260928	99
Es	0.683447	-1.018731	0.291571	99
Es	-0.365850	2.599597	-0.228960	99
Es	0.208575	0.460138	0.325969	99
Es	0.398248	-0.230047	0.363696	99
Es	0.860376	1.275355	-1.204763	99
Es	-0.224768	3.139780	-0.713681	99
Es	-0.942769	-1.972587	0.610542	99
Es	0.415778	1.125467	-1.371260	99
Es	1.017397	-1.195498	0.933403	99
Es	-0.597773	2.731028	0.536753	99
Es	0.284801	1.272441	-0.570895	99
Es	0.831343	1.137264	-1.653563	99
Es	-0.994150	2.597094	0.269709	99
Es	-1.051393	2.721388	0.777003	99
Es	-0.043245	1.936215	-0.390066	99
Es	0.241520	0.735149	-0.015555	99
Es	0.189701	0.332117	0.427305	99
Es	-0.804938	-1.810270	-0.589493	99
Es	0.935911	1.214353	-1.931665	99
Es	-0.178687	-2.677619	-0.032896	99
Es	-1.118082	2.982381	0.752345	99
Es	-0.121937	0.480737	0.919497	99
Es	0.110553	-1.499622	0.162874	99
Es	-1.114365	2.491880	1.002471	99
Es	0.838711	1.009438	-1.568433	99
41
Properties=species:S:1:pos:R:3:Z:I:1 energy=-359.8575284792324 field_type=dipole dipole="0.000000 0.000000 0.000000" charge=0
C	-0.451188	-1.991179	0.034695	6
C	0.683562	-1.018909	0.291545	6
N	0.189602	0.332071	0.427305	7
C	0.284842	1.272481	-0.571035	6
O	0.831532	1.137161	-1.653895	8
C	-0.365848	2.599651	-0.228985	6
O	-1.051648	2.721591	0.777295	8
H	-0.067438	-3.011049	-0.063345	1
H	-0.990868	-1.735309	-0.884245	1
H	-1.173278	-1.975029	0.859165	1
H	1.411202	-1.067769	-0.523785	1
H	1.193752	-1.272879	1.224665	1
H	-0.337828	0.600042	1.256115	1
H	-0.156398	3.409122	-0.945495	1
Es	-0.224763	3.139816	-0.713682	99
Es	-1.116667	2.981984	0.751671	99
Es	0.189222	0.332002	0.427022	99
Es	0.110561	-1.499288	0.162748	99
Es	-0.365856	2.599594	-0.228964	99
Es	0.415854	1.125985	-1.365728	99
Es	-0.121449	0.480786	0.919820	99
Es	0.240883	0.735017	-0.015714	99
Es	0.861911	1.272317	-1.208651	99
Es	0.831272	1.137450	-1.653557	99
Es	-0.043325	1.936220	-0.390177	99
Es	0.209902	0.460563	0.326644	99
Es	-0.178470	-2.677770	-0.032952	99
Es	1.017092	-1.195789	0.933506	99
Es	0.397568	-0.230242	0.363210	99
Es	-0.451166	-1.991168	0.034710	99
Es	0.683446	-1.018730	0.291572	99
Es	0.284793	1.272436	-0.570897	99
Es	-1.051419	2.721502	0.776983	99
Es	-0.804881	-1.810217	-0.589365	99
Es	-0.598731	2.730188	0.537263	99
Es	-0.942720	-1.972372	0.610583	99
Es	0.937000	1.210011	-1.932117	99
Es	-0.993291	2.597658	0.269272	99
Es	1.171743	-1.051766	-0.261052	99
Es	-1.115591	2.492427	1.003127	99
Es	0.836152	1.016078	-1.569583	99
41
Properties=species:S:1:pos:R:3:Z:I:1 energy=-359.8575284792324 field_type=dipole dipole="0.000000 0.000000 0.000000" charge=0
C	-0.451188	-1.991179	0.034695	6
C	0.683562	-1.018909	0.291545	6
N	0.189602	0.332071	0.427305	7
C	0.284842	1.272481	-0.571035	6
O	0.831532	1.137161	-1.653895	8
C	-0.365848	2.599651	-0.228985	6
O	-1.051648	2.721591	0.777295	8
H	-0.067438	-3.011049	-0.063345	1
H	-0.990868	-1.735309	-0.884245	1
H	-1.173278	-1.975029	0.859165	1
H	1.411202	-1.067769	-0.523785	1
H	1.193752	-1.272879	1.224665	1
H	-0.337828	0.600042	1.256115	1
H	-0.156398	3.409122	-0.945495	1
Es	0.110322	-1.499273	0.162733	99
Es	-0.942693	-1.972413	0.610705	99
Es	0.240811	0.734693	-0.015989	99
Es	0.683444	-1.018730	0.291572	99
Es	-0.121456	0.480911	0.919855	99
Es	-0.451167	-1.991167	0.034708	99
Es	0.416994	1.127471	-1.358086	99
Es	0.284795	1.272438	-0.570898	99
Es	-0.365857	2.599594	-0.228965	99
Es	-0.178224	-2.677562	-0.032913	99
Es	-0.224840	3.139758	-0.713709	99
Es	-0.043432	1.936187	-0.390206	99
Es	-1.051278	2.721184	0.776931	99
Es	-1.115195	2.493910	1.003891	99
Es	-0.994057	2.596739	0.269464	99
Es	0.396727	-0.230494	0.362917	99
Es	0.189704	0.332118	0.427306	99
Es	-1.116808	2.981166	0.751224	99
Es	0.862220	1.271203	-1.215591	99
Es	0.830931	1.137855	-1.653138	99
Es	-0.598195	2.730814	0.536936	99
Es	0.836839	1.015494	-1.569922	99
Es	0.935219	1.209761	-1.932924	99
Es	0.210378	0.460834	0.326807	99
Es	1.017030	-1.195802	0.933627	99
Es	1.171668	-1.051773	-0.261184	99
Es	-0.804814	-1.810226	-0.589462	99
41
Properties=species:S:1:pos:R:3:Z:I:1 energy=-359.8575284792324 field_type=dipole dipole="0.000000 0.000000 0.000000" charge=0
C	-0.451188	-1.991179	0.034695	6
C	0.683562	-1.018909	0.291545	6
N	0.189602	0.332071	0.427305	7
C	0.284842	1.272481	-0.571035	6
O	0.831532	1.137161	-1.653895	8
C	-0.365848	2.599651	-0.228985	6
O	-1.051648	2.721591	0.777295	8
H	-0.067438	-3.011049	-0.063345	1
H	-0.990868	-1.735309	-0.884245	1
H	-1.173278	-1.975029	0.859165	1
H	1.411202	-1.067769	-0.523785	1
H	1.193752	-1.272879	1.224665	1
H	-0.337828	0.600042	1.256115	1
H	-0.156398	3.409122	-0.945495	1
Es	0.856235	1.261990	-1.221804	99
Es	1.171052	-1.050224	-0.261458	99
Es	-0.224223	3.139869	-0.714713	99
Es	0.885047	1.324059	-1.910756	99
Es	0.189411	0.332021	0.427156	99
Es	-0.180269	-2.673745	-0.031541	99
Es	-1.225781	2.883956	0.977676	99
Es	0.204054	0.457584	0.323712	99
Es	-0.451166	-1.991169	0.034709	99
Es	-1.051429	2.721902	0.776805	99
Es	-1.004351	2.634857	0.261596	99
Es	-0.120317	0.477860	0.921014	99
Es	-0.043623	1.936148	-0.390057	99
Es	0.284797	1.272438	-0.570895	99
Es	-0.805045	-1.810378	-0.592768	99
Es	-0.365859	2.599594	-0.228965	99
Es	-0.987854	2.517218	0.788732	99
Es	0.391138	-0.230643	0.361303	99
Es	0.424578	1.118185	-1.346698	99
Es	-0.942090	-1.975426	0.611435	99
Es	0.112281	-1.498483	0.162708	99
Es	0.683446	-1.018730	0.291572	99
Es	0.252391	0.738544	-0.012032	99
Es	-0.605390	2.765334	0.533541	99
Es	1.016184	-1.197145	0.936006	99
Es	0.884558	0.921784	-1.597117	99
Es	0.831291	1.137291	-1.653473	99
41
Properties=species:S:1:pos:R:3:Z:I:1 energy=-359.8575284792324 field_type=dipole dipole="0.000000 0.000000 0.000000" charge=0
C	-0.451188	-1.991179	0.034695	6
C	0.683562	-1.018909	0.291545	6
N	0.189602	0.332071	0.427305	7
C	0.284842	1.272481	-0.571035	6
O	0.831532	1.137161	-1.653895	8
C	-0.365848	2.599651	-0.228985	6
O	-1.051648	2.721591	0.777295	8
H	-0.067438	-3.011049	-0.063345	1
H	-0.990868	-1.735309	-0.884245	1
H	-1.173278	-1.975029	0.859165	1
H	1.411202	-1.067769	-0.523785	1
H	1.193752	-1.272879	1.224665	1
H	-0.337828	0.600042	1.256115	1
H	-0.156398	3.409122	-0.945495	1
Es	-0.043310	1.936241	-0.390156	99
Es	0.396730	-0.230230	0.363333	99
Es	-0.804308	-1.809443	-0.589310	99
Es	0.189466	0.332035	0.427189	99
Es	0.938120	1.205542	-1.932640	99
Es	1.016270	-1.196608	0.933653	99
Es	0.284795	1.272439	-0.570898	99
Es	0.683446	-1.018732	0.291572	99
Es	-1.113372	2.977605	0.747650	99
Es	0.110628	-1.499187	0.162664	99
Es	0.416664	1.126614	-1.360762	99
Es	-0.451165	-1.991166	0.034709	99
Es	0.242780	0.735258	-0.015121	99
Es	-0.224846	3.139857	-0.713711	99
Es	-0.942575	-1.972074	0.610888	99
Es	-0.599633	2.730475	0.537490	99
Es	0.861194	1.271788	-1.213584	99
Es	0.831267	1.137447	-1.653548	99
Es	-1.118441	2.497714	1.007281	99
Es	0.834948	1.020397	-1.569117	99
Es	-0.121916	0.480820	0.919603	99
Es	-1.051390	2.721396	0.776997	99
Es	-0.365856	2.599595	-0.228964	99
Es	-0.992693	2.596559	0.269012	99
Es	1.171606	-1.052128	-0.261316	99
Es	-0.178126	-2.677802	-0.033281	99
Es	0.208787	0.460279	0.326057	99
41
Properties=species:S:1:pos:R:3:Z:I:1 energy=-359.8575284792324 field_type=dipole dipole="0.000000 0.000000 0.000000" charge=0
C	-0.451188	-1.991179	0.034695	6
C	0.683562	-1.018909	0.291545	6
N	0.189602	0.332071	0.427305	7
C	0.284842	1.272481	-0.571035	6
O	0.831532	1.137161	-1.653895	8
C	-0.365848	2.599651	-0.228985	6
O	-1.051648	2.721591	0.777295	8
H	-0.067438	-3.011049	-0.063345	1
H	-0.990868	-1.735309	-0.884245	1
H	-1.173278	-1.975029	0.859165	1
H	1.411202	-1.067769	-0.523785	1
H	1.193752	-1.272879	1.224665	1
H	-0.337828	0.600042	1.256115	1
H	-0.156398	3.409122	-0.945495	1
Es	-0.451165	-1.991165	0.034709	99
Es	0.242418	0.735642	-0.015484	99
Es	-0.365856	2.599595	-0.228964	99
Es	0.821464	1.129921	-1.626344	99
Es	-0.804355	-1.809125	-0.590408	99
Es	-1.125195	2.988406	0.760827	99
Es	1.171406	-1.051799	-0.261240	99
Es	0.284797	1.272439	-0.570898	99
Es	-0.043528	1.936180	-0.390262	99
Es	0.189170	0.332002	0.426980	99
Es	-0.178126	-2.677268	-0.032647	99
Es	0.950191	1.165401	-1.931883	99
Es	0.420765	1.112374	-1.345217	99
Es	0.825112	1.093960	-1.606038	99
Es	0.396686	-0.230231	0.363307	99
Es	1.016256	-1.196937	0.934460	99
Es	-1.105556	2.479988	0.995818	99
Es	-0.121152	0.480255	0.919951	99
Es	-1.051431	2.721471	0.777021	99
Es	0.110584	-1.499311	0.162727	99
Es	-0.224837	3.139960	-0.713986	99
Es	-0.991171	2.600684	0.268605	99
Es	0.864605	1.260582	-1.220111	99
Es	-0.942373	-1.972605	0.610886	99
Es	0.208914	0.459909	0.326216	99
Es	-0.602002	2.733095	0.536092	99
Es	0.683447	-1.018731	0.291571	99
41
Properties=species:S:1:pos:R:3:Z:I:1 energy=-359.8575284792324 field_type=dipole dipole="0.000000 0.000000 0.000000" charge=0
C	-0.451188	-1.991179	0.034695	6
C	0.683562	-1.018909	0.291545	6
N	0.189602	0.332071	0.427305	7
C	0.284842	1.272481	-0.571035	6
O	0.831532	1.137161	-1.653895	8
C	-0.365848	2.599651	-0.228985	6
O	-1.051648	2.721591	0.777295	8
H	-0.067438	-3.011049	-0.063345	1
H	-0.990868	-1.735309	-0.884245	1
H	-1.173278	-1.975029	0.859165	1
H	1.411202	-1.067769	-0.523785	1
H	1.193752	-1.272879	1.224665	1
H	-0.337828	0.600042	1.256115	1
H	-0.156398	3.409122	-0.945495	1
Es	0.831290	1.137409	-1.653566	99
Es	0.418468	1.129041	-1.350958	99
Es	-1.051429	2.721458	0.777026	99
Es	-0.365854	2.599595	-0.228963	99
Es	-0.599716	2.730044	0.537950	99
Es	-1.120015	2.499492	1.008370	99
Es	0.861008	1.268821	-1.222323	99
Es	0.833421	1.024601	-1.569458	99
Es	0.284796	1.272439	-0.570898	99
Es	-0.942519	-1.971935	0.610939	99
Es	-0.043426	1.936234	-0.390186	99
Es	-0.451166	-1.991167	0.034710	99
Es	1.016260	-1.196551	0.933743	99
Es	-0.804271	-1.809553	-0.589513	99
Es	0.189383	0.332018	0.427139	99
Es	-0.224898	3.139813	-0.713785	99
Es	1.171538	-1.052187	-0.261395	99
Es	0.937936	1.201866	-1.933390	99
Es	-1.111991	2.976485	0.746206	99
Es	0.210962	0.461004	0.327093	99
Es	0.683447	-1.018730	0.291572	99
Es	-0.121309	0.480942	0.919919	99
Es	0.395453	-0.230698	0.362666	99
Es	0.110642	-1.499232	0.162665	99
Es	-0.992175	2.596337	0.268995	99
Es	0.241318	0.734849	-0.015807	99
Es	-0.178085	-2.677701	-0.033061	99
41
Properties=species:S:1:pos:R:3:Z:I:1 energy=-359.8575284792324 field_type=dipole dipole="0.000000 0.000000 0.000000" charge=0
C	-0.451188	-1.991179	0.034695	6
C	0.683562	-1.018909	0.291545	6
N	0.189602	0.332071	0.427305	7
C	0.284842	1.272481	-0.571035	6
O	0.831532	1.137161	-1.653895	8
C	-0.365848	2.599651	-0.228985	6
O	-1.051648	2.721591	0.777295	8
H	-0.067438	-3.011049	-0.063345	1
H	-0.990868	-1.735309	-0.884245	1
H	-1.173278	-1.975029	0.859165	1
H	1.411202	-1.067769	-0.523785	1
H	1.193752	-1.272879	1.224665	1
H	-0.337828	0.600042	1.256115	1
H	-0.156398	3.409122	-0.945495	1
Es	-1.124031	2.505883	1.012324	99
Es	-0.120715	0.481116	0.920225	99
Es	1.171550	-1.052204	-0.261338	99
Es	0.189810	0.332164	0.427343	99
Es	0.683447	-1.018732	0.291572	99
Es	-0.600646	2.728552	0.538384	99
Es	0.861441	1.267595	-1.222969	99
Es	-0.804036	-1.809137	-0.589357	99
Es	0.396054	-0.230464	0.362913	99
Es	0.833756	1.020406	-1.569382	99
Es	1.016263	-1.196574	0.933769	99
Es	-0.224954	3.139811	-0.713783	99
Es	0.418670	1.132030	-1.350422	99
Es	-0.365855	2.599595	-0.228964	99
Es	-0.043396	1.936234	-0.390193	99
Es	-1.107605	2.973046	0.741752	99
Es	-0.991567	2.594998	0.269098	99
Es	-0.942619	-1.971893	0.610813	99
Es	0.245065	0.736234	-0.013952	99
Es	-0.178045	-2.677970	-0.033268	99
Es	0.284799	1.272439	-0.570895	99
Es	0.936961	1.204340	-1.933348	99
Es	-0.451166	-1.991166	0.034709	99
Es	0.110510	-1.499448	0.162791	99
Es	0.831299	1.137324	-1.653546	99
Es	-1.051405	2.721413	0.777008	99
Es	0.205483	0.459101	0.324402	99
41
Properties=species:S:1:pos:R:3:Z:I:1 energy=-359.8575284792324 field_type=dipole dipole="0.000000 0.000000 0.000000" charge=0
C	-0.451188	-1.991179	0.034695	6
C	0.683562	-1.018909	0.291545	6
N	0.189602	0.332071	0.427305	7
C	0.284842	1.272481	-0.571035	6
O	0.831532	1.137161	-1.653895	8
C	-0.365848	2.599651	-0.228985	6
O	-1.051648	2.721591	0.777295	8
H	-0.067438	-3.011049	-0.063345	1
H	-0.990868	-1.735309	-0.884245	1
H	-1.173278	-1.975029	0.859165	1
H	1.411202	-1.067769	-0.523785	1
H	1.193752	-1.272879	1.224665	1
H	-0.337828	0.600042	1.256115	1
H	-0.156398	3.409122	-0.945495	1
Es	0.189516	0.332048	0.427218	99
Es	-0.043424	1.936218	-0.390182	99
Es	0.941013	1.194440	-1.933252	99
Es	0.208503	0.460151	0.325887	99
Es	0.395956	-0.230423	0.362867	99
Es	0.683447	-1.018733	0.291571	99
Es	0.242916	0.735548	-0.015009	99
Es	-0.601339	2.730774	0.538006	99
Es	-0.451166	-1.991167	0.034709	99
Es	1.015827	-1.196911	0.933893	99
Es	0.284797	1.272439	-0.570897	99
Es	0.861037	1.267837	-1.222320	99
Es	0.831400	1.136959	-1.653453	99
Es	0.830042	1.036459	-1.570817	99
Es	-0.365855	2.599592	-0.228965	99
Es	-0.177870	-2.677719	-0.033327	99
Es	-0.121184	0.480709	0.920061	99
Es	-0.803964	-1.809129	-0.589380	99
Es	-1.051418	2.721447	0.777012	99
Es	0.418670	1.126064	-1.349819	99
Es	-0.942533	-1.971940	0.611023	99
Es	0.110649	-1.499091	0.162680	99
Es	-1.113215	2.977264	0.747701	99
Es	-1.118234	2.497154	1.007546	99
Es	1.171485	-1.052329	-0.261508	99
Es	-0.991071	2.597213	0.268284	99
Es	-0.224918	3.139817	-0.713836	99
