39
Properties=species:S:1:pos:R:3:Z:I:1 energy=-338.7655582941981 field_type=dipole dipole="0.000000 0.000000 0.000000" charge=0
C	-0.623904	-2.092331	0.579731	6
C	-1.005584	-0.811191	0.490311	6
N	-0.197774	0.244628	0.096021	7
C	-0.690294	1.558428	0.095681	6
O	-0.088564	2.606478	-0.116089	8
N	1.127456	-0.066732	-0.140289	7
C	1.838716	0.717588	-0.876579	6
H	-1.322804	-2.858032	0.897111	1
H	0.387566	-2.407542	0.344651	1
H	-2.032404	-0.556651	0.739371	1
H	-1.766794	1.586879	0.336641	1
H	2.902496	0.475419	-1.029259	1
H	1.471886	1.603059	-1.417299	1
Es	-1.005525	-0.810913	0.490248	99
Es	-0.690206	1.558234	0.095671	99
Es	-0.343977	2.220220	-0.290185	99
Es	-0.623910	-2.092373	0.579739	99
Es	-1.098888	-2.605025	0.794826	99
Es	1.236365	-0.376875	0.024915	99
Es	2.550859	0.552790	-0.977184	99
Es	1.479671	0.435749	-0.220648	99
Es	0.445446	0.127663	-0.029349	99
Es	-1.422433	1.553176	0.263862	99
Es	1.341941	0.129028	-0.691515	99
Es	0.209163	2.567627	-0.188351	99
Es	0.046462	-2.309647	0.422705	99
Es	-0.197625	0.244916	0.096844	99
Es	-0.325146	0.326545	-0.094209	99
Es	1.597221	1.298627	-1.236893	99
Es	-0.899812	-1.516234	0.221869	99
Es	-1.692609	-0.613059	0.652221	99
Es	-0.723126	-1.415892	0.847155	99
Es	-0.531646	-0.196680	0.304697	99
Es	1.838730	0.717563	-0.876550	99
Es	-0.284679	2.835338	-0.085080	99
Es	-0.347749	0.788842	0.209347	99
Es	-0.225752	2.257634	0.197005	99
Es	1.127188	-0.066167	-0.140561	99
Es	-0.088706	2.606183	-0.116047	99
39
Properties=species:S:1:pos:R:3:Z:I:1 energy=-338.7655582941981 field_type=dipole dipole="0.000000 0.000000 0.000000" charge=0
C	-0.623904	-2.092331	0.579731	6
C	-1.005584	-0.811191	0.490311	6
N	-0.197774	0.244628	0.096021	7
C	-0.690294	1.558428	0.095681	6
O	-0.088564	2.606478	-0.116089	8
N	1.127456	-0.066732	-0.140289	7
C	1.838716	0.717588	-0.876579	6
H	-1.322804	-2.858032	0.897111	1
H	0.387566	-2.407542	0.344651	1
H	-2.032404	-0.556651	0.739371	1
H	-1.766794	1.586879	0.336641	1
H	2.902496	0.475419	-1.029259	1
H	1.471886	1.603059	-1.417299	1
Es	1.237031	-0.387171	0.017692	99
Es	-0.088715	2.606185	-0.116034	99
Es	-0.281803	2.847302	-0.091072	99
Es	1.127190	-0.066173	-0.140564	99
Es	-1.422037	1.553156	0.264678	99
Es	-0.390558	0.815900	0.095323	99
Es	-1.100673	-2.608081	0.796092	99
Es	0.204061	2.555145	-0.190102	99
Es	1.338402	0.136401	-0.686628	99
Es	1.479959	0.436460	-0.221593	99
Es	-0.226932	2.252973	0.197703	99
Es	-0.340145	2.225636	-0.284692	99
Es	2.549609	0.553557	-0.975161	99
Es	-0.623912	-2.092366	0.579730	99
Es	-0.543479	-0.206344	0.279372	99
Es	1.598495	1.301952	-1.234387	99
Es	-1.690939	-0.614167	0.652463	99
Es	0.044103	-2.307226	0.421936	99
Es	1.838727	0.717565	-0.876528	99
Es	-0.690201	1.558234	0.095687	99
Es	-0.899016	-1.515701	0.224023	99
Es	-0.198182	0.244667	0.094786	99
Es	0.444306	0.125585	-0.046669	99
Es	-1.005520	-0.810900	0.490239	99
Es	-0.722086	-1.416246	0.844977	99
Es	-0.266432	0.310925	0.063260	99
39
Properties=species:S:1:pos:R:3:Z:I:1 energy=-338.7655582941981 field_type=dipole dipole="0.000000 0.000000 0.000000" charge=0
C	-0.623904	-2.092331	0.579731	6
C	-1.005584	-0.811191	0.490311	6
N	-0.197774	0.244628	0.096021	7
C	-0.690294	1.558428	0.095681	6
O	-0.088564	2.606478	-0.116089	8
N	1.127456	-0.066732	-0.140289	7
C	1.838716	0.717588	-0.876579	6
H	-1.322804	-2.858032	0.897111	1
H	0.387566	-2.407542	0.344651	1
H	-2.032404	-0.556651	0.739371	1
H	-1.766794	1.586879	0.336641	1
H	2.902496	0.475419	-1.029259	1
H	1.471886	1.603059	-1.417299	1
Es	-1.421666	1.553300	0.265453	99
Es	-0.623909	-2.092370	0.579739	99
Es	-0.391985	0.815470	0.087393	99
Es	1.127192	-0.066165	-0.140569	99
Es	-0.088729	2.606137	-0.116029	99
Es	0.443000	0.124742	-0.052953	99
Es	-0.543731	-0.206836	0.277441	99
Es	1.838735	0.717572	-0.876526	99
Es	0.042485	-2.305505	0.420970	99
Es	-0.261073	0.309299	0.073847	99
Es	1.599588	1.303819	-1.232640	99
Es	1.237114	-0.392722	0.012351	99
Es	-0.269960	2.862183	-0.096709	99
Es	-0.198877	0.247615	0.099607	99
Es	-0.232476	2.245910	0.197096	99
Es	-0.337683	2.236117	-0.279790	99
Es	-1.689909	-0.614862	0.653311	99
Es	1.336060	0.139903	-0.682788	99
Es	1.479988	0.437228	-0.222633	99
Es	0.195722	2.536912	-0.189819	99
Es	-1.101198	-2.609781	0.796883	99
Es	2.548581	0.553985	-0.973676	99
Es	-0.898813	-1.515560	0.225943	99
Es	-1.005523	-0.810897	0.490240	99
Es	-0.721478	-1.416458	0.842703	99
Es	-0.690200	1.558231	0.095685	99
39
Properties=species:S:1:pos:R:3:Z:I:1 energy=-338.7655582941981 field_type=dipole dipole="0.000000 0.000000 0.000000" charge=0
C	-0.623904	-2.092331	0.579731	6
C	-1.005584	-0.811191	0.490311	6
N	-0.197774	0.244628	0.096021	7
C	-0.690294	1.558428	0.095681	6
O	-0.088564	2.606478	-0.116089	8
N	1.127456	-0.066732	-0.140289	7
C	1.838716	0.717588	-0.876579	6
H	-1.322804	-2.858032	0.897111	1
H	0.387566	-2.407542	0.344651	1
H	-2.032404	-0.556651	0.739371	1
H	-1.766794	1.586879	0.336641	1
H	2.902496	0.475419	-1.029259	1
H	1.471886	1.603059	-1.417299	1
Es	-0.898507	-1.515660	0.227991	99
Es	1.237576	-0.394830	0.008182	99
Es	-0.235547	2.887008	-0.107798	99
Es	0.441018	0.123364	-0.056798	99
Es	0.173953	2.503949	-0.180404	99
Es	-0.543825	-0.207020	0.276743	99
Es	-0.257178	2.226567	0.185443	99
Es	-0.721110	-1.416403	0.840868	99
Es	-0.392325	0.815184	0.083904	99
Es	0.041603	-2.304508	0.420006	99
Es	-1.421543	1.553460	0.266057	99
Es	1.600287	1.304699	-1.231467	99
Es	-0.258766	0.312896	0.087264	99
Es	-0.088815	2.606164	-0.116025	99
Es	-1.101677	-2.610600	0.797014	99
Es	-0.623908	-2.092369	0.579744	99
Es	2.548253	0.554228	-0.972619	99
Es	1.480004	0.437959	-0.223772	99
Es	-0.690202	1.558231	0.095682	99
Es	-1.689582	-0.615198	0.654038	99
Es	-0.325124	2.263390	-0.267261	99
Es	-1.005518	-0.810900	0.490251	99
Es	1.127182	-0.066178	-0.140553	99
Es	-0.198393	0.244758	0.094435	99
Es	1.838734	0.717574	-0.876526	99
Es	1.334664	0.141504	-0.679863	99
39
Properties=species:S:1:pos:R:3:Z:I:1 energy=-338.7655582941981 field_type=dipole dipole="0.000000 0.000000 0.000000" charge=0
C	-0.623904	-2.092331	0.579731	6
C	-1.005584	-0.811191	0.490311	6
N	-0.197774	0.244628	0.096021	7
C	-0.690294	1.558428	0.095681	6
O	-0.088564	2.606478	-0.116089	8
N	1.127456	-0.066732	-0.140289	7
C	1.838716	0.717588	-0.876579	6
H	-1.322804	-2.858032	0.897111	1
H	0.387566	-2.407542	0.344651	1
H	-2.032404	-0.556651	0.739371	1
H	-1.766794	1.586879	0.336641	1
H	2.902496	0.475419	-1.029259	1
H	1.471886	1.603059	-1.417299	1
Es	1.333947	0.142668	-0.677494	99
Es	-1.005519	-0.810902	0.490252	99
Es	-0.623910	-2.092371	0.579738	99
Es	0.042199	-2.304285	0.419399	99
Es	-0.312024	2.285563	-0.244299	99
Es	-0.259045	0.313062	0.086562	99
Es	1.600309	1.304966	-1.230685	99
Es	-0.181419	2.907674	-0.124077	99
Es	-0.282164	2.214358	0.167035	99
Es	-1.421648	1.553533	0.266395	99
Es	-0.690199	1.558230	0.095686	99
Es	-1.690297	-0.615457	0.654695	99
Es	1.480002	0.437971	-0.225009	99
Es	0.440019	0.122750	-0.057994	99
Es	-0.391992	0.815076	0.084527	99
Es	-0.897680	-1.514772	0.229922	99
Es	1.127170	-0.066157	-0.140578	99
Es	2.548590	0.554171	-0.972447	99
Es	0.131948	2.473122	-0.169052	99
Es	-0.088868	2.606185	-0.116003	99
Es	-0.197792	0.244587	0.095652	99
Es	1.838731	0.717568	-0.876533	99
Es	-0.721604	-1.417312	0.838751	99
Es	-1.102243	-2.610405	0.797261	99
Es	-0.543640	-0.206968	0.277091	99
Es	1.238383	-0.395586	0.005738	99
39
Properties=species:S:1:pos:R:3:Z:I:1 energy=-338.7655582941981 field_type=dipole dipole="0.000000 0.000000 0.000000" charge=0
C	-0.623904	-2.092331	0.579731	6
C	-1.005584	-0.811191	0.490311	6
N	-0.197774	0.244628	0.096021	7
C	-0.690294	1.558428	0.095681	6
O	-0.088564	2.606478	-0.116089	8
N	1.127456	-0.066732	-0.140289	7
C	1.838716	0.717588	-0.876579	6
H	-1.322804	-2.858032	0.897111	1
H	0.387566	-2.407542	0.344651	1
H	-2.032404	-0.556651	0.739371	1
H	-1.766794	1.586879	0.336641	1
H	2.902496	0.475419	-1.029259	1
H	1.471886	1.603059	-1.417299	1
Es	-0.543426	-0.206872	0.277563	99
Es	1.479928	0.438171	-0.226921	99
Es	0.106150	2.464820	-0.161965	99
Es	-0.296350	2.300542	-0.217533	99
Es	1.838736	0.717570	-0.876529	99
Es	-0.392044	0.814992	0.084016	99
Es	1.333582	0.142865	-0.675378	99
Es	-0.258806	0.312950	0.086625	99
Es	-0.088976	2.606067	-0.115958	99
Es	1.600434	1.305198	-1.230241	99
Es	-1.102389	-2.610374	0.797550	99
Es	-0.197574	0.244749	0.096601	99
Es	-0.152931	2.912761	-0.134739	99
Es	0.439563	0.122758	-0.058984	99
Es	-0.690196	1.558230	0.095688	99
Es	2.548591	0.554037	-0.972442	99
Es	1.127196	-0.066157	-0.140576	99
Es	-1.421616	1.553623	0.266686	99
Es	1.238558	-0.396183	0.004998	99
Es	-1.005519	-0.810893	0.490245	99
Es	-0.300408	2.202630	0.143514	99
Es	-0.623910	-2.092372	0.579739	99
Es	-1.690480	-0.615614	0.655295	99
Es	-0.721570	-1.417632	0.837581	99
Es	-0.897558	-1.514507	0.231117	99
Es	0.042273	-2.304088	0.418579	99
39
Properties=species:S:1:pos:R:3:Z:I:1 energy=-338.7655582941981 field_type=dipole dipole="0.000000 0.000000 0.000000" charge=0
C	-0.623904	-2.092331	0.579731	6
C	-1.005584	-0.811191	0.490311	6
N	-0.197774	0.244628	0.096021	7
C	-0.690294	1.558428	0.095681	6
O	-0.088564	2.606478	-0.116089	8
N	1.127456	-0.066732	-0.140289	7
C	1.838716	0.717588	-0.876579	6
H	-1.322804	-2.858032	0.897111	1
H	0.387566	-2.407542	0.344651	1
H	-2.032404	-0.556651	0.739371	1
H	-1.766794	1.586879	0.336641	1
H	2.902496	0.475419	-1.029259	1
H	1.471886	1.603059	-1.417299	1
Es	0.085350	2.461856	-0.157088	99
Es	-0.721286	-1.416849	0.836448	99
Es	1.838735	0.717575	-0.876523	99
Es	0.438844	0.122564	-0.060701	99
Es	-1.102411	-2.610297	0.797913	99
Es	-1.421551	1.553712	0.266959	99
Es	2.548597	0.553862	-0.972503	99
Es	-0.258371	0.312963	0.087132	99
Es	0.042523	-2.303932	0.418360	99
Es	-0.543140	-0.206643	0.278423	99
Es	1.127196	-0.066157	-0.140577	99
Es	-0.132152	2.914198	-0.143042	99
Es	1.333360	0.143433	-0.673486	99
Es	1.238968	-0.396867	0.004316	99
Es	-0.312711	2.193738	0.121804	99
Es	-1.690592	-0.615706	0.655869	99
Es	-0.897993	-1.515373	0.231712	99
Es	1.479625	0.438184	-0.228320	99
Es	1.600431	1.305366	-1.230062	99
Es	-0.284139	2.310774	-0.192663	99
Es	-0.623909	-2.092372	0.579740	99
Es	-1.005520	-0.810901	0.490244	99
Es	-0.690199	1.558230	0.095687	99
Es	-0.088887	2.606178	-0.115987	99
Es	-0.197577	0.244742	0.096580	99
Es	-0.391936	0.814991	0.084295	99
39
Properties=species:S:1:pos:R:3:Z:I:1 energy=-338.7655582941981 field_type=dipole dipole="0.000000 0.000000 0.000000" charge=0
C	-0.623904	-2.092331	0.579731	6
C	-1.005584	-0.811191	0.490311	6
N	-0.197774	0.244628	0.096021	7
C	-0.690294	1.558428	0.095681	6
O	-0.088564	2.606478	-0.116089	8
N	1.127456	-0.066732	-0.140289	7
C	1.838716	0.717588	-0.876579	6
H	-1.322804	-2.858032	0.897111	1
H	0.387566	-2.407542	0.344651	1
H	-2.032404	-0.556651	0.739371	1
H	-1.766794	1.586879	0.336641	1
H	2.902496	0.475419	-1.029259	1
H	1.471886	1.603059	-1.417299	1
Es	-0.230538	0.286624	0.102194	99
Es	0.042375	-2.303707	0.417908	99
Es	-0.623914	-2.092373	0.579724	99
Es	-0.542733	-0.206349	0.279754	99
Es	-1.421481	1.553764	0.267081	99
Es	-0.128444	2.914064	-0.145947	99
Es	0.080611	2.461728	-0.156819	99
Es	1.600813	1.305743	-1.229879	99
Es	-0.690201	1.558230	0.095683	99
Es	-0.897593	-1.514420	0.232390	99
Es	0.438403	0.122687	-0.062320	99
Es	-0.721481	-1.417863	0.835932	99
Es	-1.005518	-0.810899	0.490240	99
Es	-1.102440	-2.610346	0.798232	99
Es	2.548208	0.553720	-0.972221	99
Es	-0.274639	2.317758	-0.171445	99
Es	1.333025	0.143886	-0.671625	99
Es	-0.321151	2.186985	0.103026	99
Es	1.238896	-0.397873	0.003685	99
Es	1.838734	0.717578	-0.876522	99
Es	-0.392059	0.814928	0.083242	99
Es	-1.690594	-0.615881	0.655997	99
Es	1.127171	-0.066152	-0.140580	99
Es	1.479323	0.438367	-0.229948	99
Es	-0.224592	0.270880	0.082736	99
Es	-0.088925	2.606191	-0.115986	99
39
Properties=species:S:1:pos:R:3:Z:I:1 energy=-338.7655582941981 field_type=dipole dipole="0.000000 0.000000 0.000000" charge=0
C	-0.623904	-2.092331	0.579731	6
C	-1.005584	-0.811191	0.490311	6
N	-0.197774	0.244628	0.096021	7
C	-0.690294	1.558428	0.095681	6
O	-0.088564	2.606478	-0.116089	8
N	1.127456	-0.066732	-0.140289	7
C	1.838716	0.717588	-0.876579	6
H	-1.322804	-2.858032	0.897111	1
H	0.387566	-2.407542	0.344651	1
H	-2.032404	-0.556651	0.739371	1
H	-1.766794	1.586879	0.336641	1
H	2.902496	0.475419	-1.029259	1
H	1.471886	1.603059	-1.417299	1
Es	-0.897373	-1.513959	0.233147	99
Es	1.600816	1.305843	-1.229653	99
Es	-0.325851	2.184480	0.093696	99
Es	-0.690199	1.558229	0.095686	99
Es	0.437567	0.122329	-0.063439	99
Es	1.333029	0.144372	-0.668027	99
Es	-0.256524	0.313259	0.091286	99
Es	-0.112716	2.913411	-0.152498	99
Es	-0.721618	-1.418384	0.834995	99
Es	-1.421389	1.553808	0.267303	99
Es	-1.102519	-2.610294	0.798376	99
Es	-0.623909	-2.092372	0.579740	99
Es	2.548253	0.553593	-0.972322	99
Es	-0.392250	0.814830	0.082639	99
Es	0.042495	-2.303589	0.417399	99
Es	1.838735	0.717574	-0.876527	99
Es	1.239614	-0.398305	0.002800	99
Es	0.064309	2.461726	-0.152742	99
Es	-0.269783	2.321101	-0.159747	99
Es	-0.542651	-0.206330	0.279890	99
Es	-1.005519	-0.810900	0.490238	99
Es	-0.197889	0.244591	0.095387	99
Es	1.478688	0.438436	-0.233047	99
Es	1.127170	-0.066166	-0.140569	99
Es	-0.088522	2.605978	-0.116050	99
Es	-1.690710	-0.615994	0.656570	99
39
Properties=species:S:1:pos:R:3:Z:I:1 energy=-338.7655582941981 field_type=dipole dipole="0.000000 0.000000 0.000000" charge=0
C	-0.623904	-2.092331	0.579731	6
C	-1.005584	-0.811191	0.490311	6
N	-0.197774	0.244628	0.096021	7
C	-0.690294	1.558428	0.095681	6
O	-0.088564	2.606478	-0.116089	8
N	1.127456	-0.066732	-0.140289	7
C	1.838716	0.717588	-0.876579	6
H	-1.322804	-2.858032	0.897111	1
H	0.387566	-2.407542	0.344651	1
H	-2.032404	-0.556651	0.739371	1
H	-1.766794	1.586879	0.336641	1
H	2.902496	0.475419	-1.029259	1
H	1.471886	1.603059	-1.417299	1
Es	1.477399	0.437937	-0.235204	99
Es	-0.541945	-0.206221	0.280657	99
Es	0.041111	-2.303520	0.417644	99
Es	-0.198231	0.244703	0.094704	99
Es	-0.292614	2.647284	-0.063882	99
Es	-0.690194	1.558229	0.095689	99
Es	0.438718	0.124677	-0.070456	99
Es	1.237647	-0.405386	0.001720	99
Es	-0.246181	2.129602	0.034739	99
Es	-0.253828	2.330405	-0.117678	99
Es	-1.005517	-0.810901	0.490250	99
Es	-0.898326	-1.513785	0.229694	99
Es	1.601410	1.307291	-1.229253	99
Es	-0.392171	0.815991	0.084342	99
Es	-1.100651	-2.611384	0.797691	99
Es	-0.254083	0.313831	0.094238	99
Es	-1.689167	-0.615993	0.656017	99
Es	-0.720631	-1.418607	0.838970	99
Es	0.147297	2.774022	-0.224844	99
Es	1.331902	0.147140	-0.662373	99
Es	-1.420536	1.554432	0.267720	99
Es	1.127201	-0.066168	-0.140570	99
Es	-0.623909	-2.092372	0.579739	99
Es	2.546308	0.552860	-0.972429	99
Es	-0.088486	2.605626	-0.116069	99
Es	1.838734	0.717576	-0.876525	99
39
Properties=species:S:1:pos:R:3:Z:I:1 energy=-338.7655582941981 field_type=dipole dipole="0.000000 0.000000 0.000000" charge=0
C	-0.623904	-2.092331	0.579731	6
C	-1.005584	-0.811191	0.490311	6
N	-0.197774	0.244628	0.096021	7
C	-0.690294	1.558428	0.095681	6
O	-0.088564	2.606478	-0.116089	8
N	1.127456	-0.066732	-0.140289	7
C	1.838716	0.717588	-0.876579	6
H	-1.322804	-2.858032	0.897111	1
H	0.387566	-2.407542	0.344651	1
H	-2.032404	-0.556651	0.739371	1
H	-1.766794	1.586879	0.336641	1
H	2.902496	0.475419	-1.029259	1
H	1.471886	1.603059	-1.417299	1
Es	-0.392398	0.814762	0.082085	99
Es	-1.421275	1.553883	0.267621	99
Es	-0.690201	1.558231	0.095686	99
Es	-0.088910	2.606194	-0.115990	99
Es	-0.542302	-0.206161	0.280749	99
Es	1.838742	0.717573	-0.876517	99
Es	-0.254266	0.312816	0.094906	99
Es	-0.099771	2.912071	-0.158884	99
Es	2.548104	0.553336	-0.972273	99
Es	1.239915	-0.399485	0.000850	99
Es	-0.723306	-1.422137	0.831380	99
Es	-1.005516	-0.810898	0.490247	99
Es	1.601030	1.306202	-1.229211	99
Es	0.436514	0.122087	-0.065532	99
Es	-0.262350	2.325889	-0.140980	99
Es	-1.102763	-2.610165	0.798733	99
Es	-0.198992	0.245107	0.093588	99
Es	1.478321	0.438310	-0.235323	99
Es	-0.329851	2.178266	0.077769	99
Es	0.042379	-2.303437	0.416581	99
Es	-0.623910	-2.092372	0.579735	99
Es	-1.690970	-0.616308	0.657254	99
Es	0.048281	2.464213	-0.149518	99
Es	-0.895071	-1.510198	0.236638	99
Es	1.127182	-0.066146	-0.140582	99
Es	1.332639	0.145638	-0.664478	99
39
Properties=species:S:1:pos:R:3:Z:I:1 energy=-338.7655582941981 field_type=dipole dipole="0.000000 0.000000 0.000000" charge=0
C	-0.623904	-2.092331	0.579731	6
C	-1.005584	-0.811191	0.490311	6
N	-0.197774	0.244628	0.096021	7
C	-0.690294	1.558428	0.095681	6
O	-0.088564	2.606478	-0.116089	8
N	1.127456	-0.066732	-0.140289	7
C	1.838716	0.717588	-0.876579	6
H	-1.322804	-2.858032	0.897111	1
H	0.387566	-2.407542	0.344651	1
H	-2.032404	-0.556651	0.739371	1
H	-1.766794	1.586879	0.336641	1
H	2.902496	0.475419	-1.029259	1
H	1.471886	1.603059	-1.417299	1
Es	-0.089047	2.606185	-0.115956	99
Es	1.127176	-0.066147	-0.140579	99
Es	1.477856	0.438098	-0.238126	99
Es	-1.421229	1.553888	0.267672	99
Es	-1.005514	-0.810896	0.490254	99
Es	1.601161	1.306358	-1.229077	99
Es	-0.255157	0.313214	0.092871	99
Es	0.436407	0.122312	-0.066548	99
Es	-0.725128	-1.424888	0.827925	99
Es	-0.093893	2.911357	-0.160600	99
Es	-0.542373	-0.206166	0.280638	99
Es	1.838735	0.717574	-0.876528	99
Es	-0.261621	2.326617	-0.138775	99
Es	1.239682	-0.400129	0.000423	99
Es	-0.198116	0.244643	0.094925	99
Es	1.332957	0.146080	-0.661312	99
Es	2.547958	0.553290	-0.972176	99
Es	-1.690950	-0.616372	0.657476	99
Es	-0.330370	2.177864	0.076430	99
Es	-1.102676	-2.610296	0.798728	99
Es	-0.391864	0.814918	0.083717	99
Es	-0.893249	-1.507429	0.239954	99
Es	0.042330	2.464617	-0.148752	99
Es	-0.690198	1.558231	0.095689	99
Es	0.042289	-2.303281	0.416517	99
Es	-0.623910	-2.092372	0.579740	99
39
Properties=species:S:1:pos:R:3:Z:I:1 energy=-338.7655582941981 field_type=dipole dipole="0.000000 0.000000 0.000000" charge=0
C	-0.623904	-2.092331	0.579731	6
C	-1.005584	-0.811191	0.490311	6
N	-0.197774	0.244628	0.096021	7
C	-0.690294	1.558428	0.095681	6
O	-0.088564	2.606478	-0.116089	8
N	1.127456	-0.066732	-0.140289	7
C	1.838716	0.717588	-0.876579	6
H	-1.322804	-2.858032	0.897111	1
H	0.387566	-2.407542	0.344651	1
H	-2.032404	-0.556651	0.739371	1
H	-1.766794	1.586879	0.336641	1
H	2.902496	0.475419	-1.029259	1
H	1.471886	1.603059	-1.417299	1
Es	-0.092546	2.910892	-0.162586	99
Es	0.435978	0.122148	-0.067381	99
Es	-1.690946	-0.616532	0.657959	99
Es	-0.089084	2.606169	-0.115938	99
Es	1.477035	0.437868	-0.241185	99
Es	-0.690195	1.558230	0.095691	99
Es	-0.724498	-1.424028	0.828257	99
Es	-1.005515	-0.810901	0.490248	99
Es	-1.102677	-2.610347	0.798870	99
Es	1.333229	0.146844	-0.657916	99
Es	0.042149	-2.303100	0.416090	99
Es	-0.392172	0.814801	0.082504	99
Es	-1.421168	1.553895	0.267780	99
Es	0.040123	2.465618	-0.147407	99
Es	1.838735	0.717576	-0.876522	99
Es	-0.254787	0.313261	0.093441	99
Es	1.127191	-0.066156	-0.140575	99
Es	1.239871	-0.400548	-0.000152	99
Es	2.547841	0.553187	-0.972096	99
Es	-0.893786	-1.508286	0.239433	99
Es	-0.332562	2.175860	0.069386	99
Es	-0.542099	-0.205950	0.281483	99
Es	1.601329	1.306466	-1.229040	99
Es	-0.258500	2.328084	-0.131233	99
Es	-0.197781	0.244588	0.095682	99
Es	-0.623910	-2.092372	0.579740	99
39
Properties=species:S:1:pos:R:3:Z:I:1 energy=-338.7655582941981 field_type=dipole dipole="0.000000 0.000000 0.000000" charge=0
C	-0.623904	-2.092331	0.579731	6
C	-1.005584	-0.811191	0.490311	6
N	-0.197774	0.244628	0.096021	7
C	-0.690294	1.558428	0.095681	6
O	-0.088564	2.606478	-0.116089	8
N	1.127456	-0.066732	-0.140289	7
C	1.838716	0.717588	-0.876579	6
H	-1.322804	-2.858032	0.897111	1
H	0.387566	-2.407542	0.344651	1
H	-2.032404	-0.556651	0.739371	1
H	-1.766794	1.586879	0.336641	1
H	2.902496	0.475419	-1.029259	1
H	1.471886	1.603059	-1.417299	1
Es	-0.727301	-1.427940	0.822432	99
Es	-0.391694	0.815010	0.084321	99
Es	-0.200834	0.246626	0.091867	99
Es	0.042064	-2.303220	0.416073	99
Es	1.240198	-0.400274	-0.000144	99
Es	-0.331729	2.174536	0.068065	99
Es	-0.086273	2.910030	-0.164595	99
Es	0.435673	0.121773	-0.067440	99
Es	-0.252183	0.311004	0.095540	99
Es	0.032432	2.467813	-0.144567	99
Es	1.333299	0.146930	-0.657403	99
Es	-0.542017	-0.205923	0.281631	99
Es	-1.690957	-0.616513	0.658041	99
Es	-1.005516	-0.810898	0.490245	99
Es	-0.890799	-1.504318	0.245234	99
Es	1.476742	0.437793	-0.242035	99
Es	1.601424	1.306554	-1.228972	99
Es	-0.088828	2.606186	-0.116016	99
Es	-1.421103	1.553948	0.267831	99
Es	1.127199	-0.066153	-0.140580	99
Es	-0.258222	2.328073	-0.130676	99
Es	2.547783	0.553096	-0.972055	99
Es	-1.102730	-2.610300	0.798824	99
Es	-0.690198	1.558230	0.095687	99
Es	-0.623908	-2.092371	0.579747	99
Es	1.838734	0.717575	-0.876525	99
39
Properties=species:S:1:pos:R:3:Z:I:1 energy=-338.7655582941981 field_type=dipole dipole="0.000000 0.000000 0.000000" charge=0
C	-0.623904	-2.092331	0.579731	6
C	-1.005584	-0.811191	0.490311	6
N	-0.197774	0.244628	0.096021	7
C	-0.690294	1.558428	0.095681	6
O	-0.088564	2.606478	-0.116089	8
N	1.127456	-0.066732	-0.140289	7
C	1.838716	0.717588	-0.876579	6
H	-1.322804	-2.858032	0.897111	1
H	0.387566	-2.407542	0.344651	1
H	-2.032404	-0.556651	0.739371	1
H	-1.766794	1.586879	0.336641	1
H	2.902496	0.475419	-1.029259	1
H	1.471886	1.603059	-1.417299	1
Es	-0.079889	2.909125	-0.165896	99
Es	0.434966	0.121572	-0.068359	99
Es	-0.623910	-2.092372	0.579738	99
Es	-0.197736	0.244598	0.095832	99
Es	-0.089028	2.606135	-0.115955	99
Es	1.240253	-0.400185	-0.000223	99
Es	-0.391813	0.814995	0.083816	99
Es	1.477116	0.437922	-0.240680	99
Es	1.838738	0.717572	-0.876522	99
Es	-1.421107	1.553934	0.267902	99
Es	-0.254573	0.313200	0.092892	99
Es	0.024857	2.470271	-0.142455	99
Es	2.547815	0.553189	-0.972141	99
Es	-1.005517	-0.810898	0.490244	99
Es	-0.690199	1.558230	0.095688	99
Es	0.041859	-2.303403	0.415938	99
Es	-0.330988	2.172665	0.065504	99
Es	1.601331	1.306483	-1.228980	99
Es	-1.690910	-0.616534	0.658232	99
Es	-1.102819	-2.610241	0.798725	99
Es	-0.730072	-1.431424	0.815724	99
Es	1.127196	-0.066163	-0.140572	99
Es	-0.257625	2.328436	-0.128988	99
Es	1.333063	0.146691	-0.658723	99
Es	-0.542049	-0.205804	0.281829	99
Es	-0.887703	-1.500727	0.251964	99
39
Properties=species:S:1:pos:R:3:Z:I:1 energy=-338.7655582941981 field_type=dipole dipole="0.000000 0.000000 0.000000" charge=0
C	-0.623904	-2.092331	0.579731	6
C	-1.005584	-0.811191	0.490311	6
N	-0.197774	0.244628	0.096021	7
C	-0.690294	1.558428	0.095681	6
O	-0.088564	2.606478	-0.116089	8
N	1.127456	-0.066732	-0.140289	7
C	1.838716	0.717588	-0.876579	6
H	-1.322804	-2.858032	0.897111	1
H	0.387566	-2.407542	0.344651	1
H	-2.032404	-0.556651	0.739371	1
H	-1.766794	1.586879	0.336641	1
H	2.902496	0.475419	-1.029259	1
H	1.471886	1.603059	-1.417299	1
Es	-0.329943	2.173574	0.069024	99
Es	-0.257436	2.328365	-0.128758	99
Es	-0.722278	-1.408821	0.811699	99
Es	0.022465	2.470561	-0.141755	99
Es	-1.102108	-2.610323	0.799902	99
Es	-0.393137	0.814467	0.079478	99
Es	1.475208	0.437043	-0.247148	99
Es	-0.089129	2.606212	-0.115950	99
Es	1.838735	0.717575	-0.876525	99
Es	0.042384	-2.302615	0.414798	99
Es	-0.253890	0.312961	0.094472	99
Es	2.547580	0.552810	-0.972315	99
Es	-0.623906	-2.092372	0.579748	99
Es	-1.420950	1.553991	0.268205	99
Es	-0.690198	1.558230	0.095689	99
Es	1.601466	1.306532	-1.229450	99
Es	1.334290	0.148054	-0.652351	99
Es	-0.078805	2.907819	-0.170889	99
Es	-1.005516	-0.810899	0.490245	99
Es	-1.690461	-0.616398	0.658496	99
Es	1.127190	-0.066168	-0.140570	99
Es	-0.541059	-0.205325	0.284180	99
Es	0.435259	0.122037	-0.068855	99
Es	-0.897214	-1.524064	0.256094	99
Es	1.240301	-0.400689	0.000602	99
Es	-0.197596	0.244711	0.096464	99
39
Properties=species:S:1:pos:R:3:Z:I:1 energy=-338.7655582941981 field_type=dipole dipole="0.000000 0.000000 0.000000" charge=0
C	-0.623904	-2.092331	0.579731	6
C	-1.005584	-0.811191	0.490311	6
N	-0.197774	0.244628	0.096021	7
C	-0.690294	1.558428	0.095681	6
O	-0.088564	2.606478	-0.116089	8
N	1.127456	-0.066732	-0.140289	7
C	1.838716	0.717588	-0.876579	6
H	-1.322804	-2.858032	0.897111	1
H	0.387566	-2.407542	0.344651	1
H	-2.032404	-0.556651	0.739371	1
H	-1.766794	1.586879	0.336641	1
H	2.902496	0.475419	-1.029259	1
H	1.471886	1.603059	-1.417299	1
Es	-0.542223	-0.206031	0.281062	99
Es	-0.197742	0.244595	0.095803	99
Es	0.041686	-2.303347	0.415880	99
Es	-0.884206	-1.496984	0.260263	99
Es	2.547587	0.552997	-0.972164	99
Es	-1.421038	1.553951	0.267941	99
Es	-0.391555	0.815141	0.084809	99
Es	-0.623910	-2.092372	0.579739	99
Es	-0.088984	2.606195	-0.115971	99
Es	1.601539	1.306658	-1.228912	99
Es	0.016438	2.472114	-0.140093	99
Es	0.434649	0.121641	-0.069087	99
Es	1.838735	0.717576	-0.876524	99
Es	1.332831	0.147024	-0.658467	99
Es	-0.254225	0.313318	0.093305	99
Es	-0.072166	2.907624	-0.168491	99
Es	-0.733409	-1.435090	0.806943	99
Es	1.477150	0.437949	-0.240487	99
Es	-1.005514	-0.810897	0.490255	99
Es	-1.102731	-2.610313	0.798809	99
Es	1.127175	-0.066169	-0.140566	99
Es	-0.690197	1.558230	0.095688	99
Es	1.240262	-0.400621	-0.000640	99
Es	-0.258500	2.327934	-0.131316	99
Es	-0.329490	2.172794	0.068084	99
Es	-1.690904	-0.616649	0.658669	99
39
Properties=species:S:1:pos:R:3:Z:I:1 energy=-338.7655582941981 field_type=dipole dipole="0.000000 0.000000 0.000000" charge=0
C	-0.623904	-2.092331	0.579731	6
C	-1.005584	-0.811191	0.490311	6
N	-0.197774	0.244628	0.096021	7
C	-0.690294	1.558428	0.095681	6
O	-0.088564	2.606478	-0.116089	8
N	1.127456	-0.066732	-0.140289	7
C	1.838716	0.717588	-0.876579	6
H	-1.322804	-2.858032	0.897111	1
H	0.387566	-2.407542	0.344651	1
H	-2.032404	-0.556651	0.739371	1
H	-1.766794	1.586879	0.336641	1
H	2.902496	0.475419	-1.029259	1
H	1.471886	1.603059	-1.417299	1
Es	-0.542278	-0.206013	0.281031	99
Es	-0.735111	-1.436979	0.802523	99
Es	1.601564	1.306650	-1.228904	99
Es	-0.254103	0.312961	0.093083	99
Es	1.239836	-0.400844	-0.000558	99
Es	-0.390968	0.815329	0.086419	99
Es	-1.005519	-0.810897	0.490236	99
Es	-0.070980	2.907486	-0.168402	99
Es	-0.260379	2.326720	-0.136536	99
Es	2.547549	0.553065	-0.972128	99
Es	1.127209	-0.066161	-0.140575	99
Es	1.333174	0.147192	-0.656792	99
Es	-0.089112	2.606166	-0.115938	99
Es	-0.690199	1.558229	0.095684	99
Es	-1.690822	-0.616666	0.658569	99
Es	1.476813	0.437799	-0.242131	99
Es	0.041417	-2.303397	0.415767	99
Es	-0.198359	0.244756	0.094474	99
Es	-0.882280	-1.495028	0.264993	99
Es	-1.421050	1.553930	0.267931	99
Es	1.838735	0.717574	-0.876525	99
Es	0.434968	0.121826	-0.069251	99
Es	-1.102759	-2.610349	0.798731	99
Es	0.015469	2.472568	-0.139520	99
Es	-0.623912	-2.092373	0.579733	99
Es	-0.327648	2.173727	0.072619	99
39
Properties=species:S:1:pos:R:3:Z:I:1 energy=-338.7655582941981 field_type=dipole dipole="0.000000 0.000000 0.000000" charge=0
C	-0.623904	-2.092331	0.579731	6
C	-1.005584	-0.811191	0.490311	6
N	-0.197774	0.244628	0.096021	7
C	-0.690294	1.558428	0.095681	6
O	-0.088564	2.606478	-0.116089	8
N	1.127456	-0.066732	-0.140289	7
C	1.838716	0.717588	-0.876579	6
H	-1.322804	-2.858032	0.897111	1
H	0.387566	-2.407542	0.344651	1
H	-2.032404	-0.556651	0.739371	1
H	-1.766794	1.586879	0.336641	1
H	2.902496	0.475419	-1.029259	1
H	1.471886	1.603059	-1.417299	1
Es	-0.197564	0.244795	0.096732	99
Es	1.477226	0.437985	-0.240480	99
Es	-0.088974	2.606201	-0.115970	99
Es	-0.391352	0.815203	0.085382	99
Es	-0.881298	-1.494089	0.267759	99
Es	-0.068211	2.906923	-0.169213	99
Es	1.127192	-0.066166	-0.140566	99
Es	0.435220	0.122216	-0.069742	99
Es	-0.328550	2.173167	0.070214	99
Es	1.838736	0.717579	-0.876516	99
Es	-1.420994	1.553951	0.268033	99
Es	-0.623912	-2.092373	0.579734	99
Es	-1.690813	-0.616742	0.658972	99
Es	0.041397	-2.303275	0.415543	99
Es	1.239456	-0.401333	-0.000561	99
Es	2.547443	0.552972	-0.972132	99
Es	-1.005518	-0.810900	0.490235	99
Es	-0.259424	2.327511	-0.133680	99
Es	1.601662	1.306748	-1.228837	99
Es	-0.542210	-0.206004	0.281162	99
Es	-1.102721	-2.610373	0.798864	99
Es	-0.690198	1.558230	0.095687	99
Es	-0.736093	-1.437956	0.799436	99
Es	1.332777	0.147117	-0.658219	99
Es	0.012456	2.472853	-0.139234	99
Es	-0.254477	0.313027	0.091927	99
39
Properties=species:S:1:pos:R:3:Z:I:1 energy=-338.7655582941981 field_type=dipole dipole="0.000000 0.000000 0.000000" charge=0
C	-0.623904	-2.092331	0.579731	6
C	-1.005584	-0.811191	0.490311	6
N	-0.197774	0.244628	0.096021	7
C	-0.690294	1.558428	0.095681	6
O	-0.088564	2.606478	-0.116089	8
N	1.127456	-0.066732	-0.140289	7
C	1.838716	0.717588	-0.876579	6
H	-1.322804	-2.858032	0.897111	1
H	0.387566	-2.407542	0.344651	1
H	-2.032404	-0.556651	0.739371	1
H	-1.766794	1.586879	0.336641	1
H	2.902496	0.475419	-1.029259	1
H	1.471886	1.603059	-1.417299	1
Es	1.477531	0.438264	-0.238791	99
Es	0.041200	-2.303408	0.415512	99
Es	-0.878726	-1.491517	0.274516	99
Es	-0.089034	2.606193	-0.115957	99
Es	1.332625	0.146669	-0.660132	99
Es	-0.197810	0.244586	0.095597	99
Es	1.239406	-0.401025	-0.000220	99
Es	-0.623910	-2.092372	0.579737	99
Es	-0.390977	0.815321	0.086197	99
Es	-0.066918	2.906492	-0.170250	99
Es	-1.005514	-0.810898	0.490244	99
Es	0.434878	0.121975	-0.070012	99
Es	0.010780	2.474110	-0.137501	99
Es	-0.259842	2.326763	-0.135534	99
Es	-0.738599	-1.440501	0.792915	99
Es	-0.327644	2.173128	0.071463	99
Es	1.127174	-0.066157	-0.140570	99
Es	-1.421004	1.553943	0.267937	99
Es	-1.690645	-0.616664	0.658859	99
Es	-0.690199	1.558228	0.095683	99
Es	-0.542232	-0.205912	0.281341	99
Es	2.547372	0.553055	-0.972078	99
Es	-0.254329	0.313106	0.092376	99
Es	1.838737	0.717577	-0.876517	99
Es	1.601692	1.306680	-1.229030	99
Es	-1.102757	-2.610367	0.798746	99
39
Properties=species:S:1:pos:R:3:Z:I:1 energy=-338.7655582941981 field_type=dipole dipole="0.000000 0.000000 0.000000" charge=0
C	-0.623904	-2.092331	0.579731	6
C	-1.005584	-0.811191	0.490311	6
N	-0.197774	0.244628	0.096021	7
C	-0.690294	1.558428	0.095681	6
O	-0.088564	2.606478	-0.116089	8
N	1.127456	-0.066732	-0.140289	7
C	1.838716	0.717588	-0.876579	6
H	-1.322804	-2.858032	0.897111	1
H	0.387566	-2.407542	0.344651	1
H	-2.032404	-0.556651	0.739371	1
H	-1.766794	1.586879	0.336641	1
H	2.902496	0.475419	-1.029259	1
H	1.471886	1.603059	-1.417299	1
Es	2.547439	0.553048	-0.972195	99
Es	-1.690648	-0.616640	0.659094	99
Es	-0.737720	-1.439754	0.794729	99
Es	-0.197620	0.244669	0.096305	99
Es	1.601616	1.306626	-1.229025	99
Es	-1.005516	-0.810900	0.490248	99
Es	-0.542028	-0.205940	0.281589	99
Es	-0.390998	0.815351	0.086260	99
Es	-0.257676	2.328295	-0.129349	99
Es	1.127194	-0.066147	-0.140583	99
Es	1.838735	0.717574	-0.876524	99
Es	-0.088839	2.606185	-0.116007	99
Es	1.476722	0.437768	-0.242446	99
Es	-0.623916	-2.092372	0.579720	99
Es	0.435104	0.122186	-0.069817	99
Es	0.007079	2.475164	-0.137246	99
Es	-1.102698	-2.610381	0.798900	99
Es	-1.420961	1.553959	0.268115	99
Es	-0.254689	0.312939	0.091196	99
Es	-0.328685	2.171031	0.065678	99
Es	-0.879578	-1.492276	0.272628	99
Es	1.333181	0.147311	-0.656380	99
Es	1.239429	-0.401294	-0.000358	99
Es	-0.690198	1.558229	0.095685	99
Es	0.041100	-2.303345	0.415278	99
Es	-0.064576	2.905982	-0.170963	99
39
Properties=species:S:1:pos:R:3:Z:I:1 energy=-338.7655582941981 field_type=dipole dipole="0.000000 0.000000 0.000000" charge=0
C	-0.623904	-2.092331	0.579731	6
C	-1.005584	-0.811191	0.490311	6
N	-0.197774	0.244628	0.096021	7
C	-0.690294	1.558428	0.095681	6
O	-0.088564	2.606478	-0.116089	8
N	1.127456	-0.066732	-0.140289	7
C	1.838716	0.717588	-0.876579	6
H	-1.322804	-2.858032	0.897111	1
H	0.387566	-2.407542	0.344651	1
H	-2.032404	-0.556651	0.739371	1
H	-1.766794	1.586879	0.336641	1
H	2.902496	0.475419	-1.029259	1
H	1.471886	1.603059	-1.417299	1
Es	-0.690198	1.558231	0.095690	99
Es	-0.252989	0.312846	0.095898	99
Es	0.434990	0.122295	-0.070627	99
Es	-1.101753	-2.610406	0.800283	99
Es	1.838735	0.717580	-0.876517	99
Es	-1.005514	-0.810898	0.490247	99
Es	-0.197994	0.244608	0.095145	99
Es	0.003504	2.476024	-0.136211	99
Es	0.041864	-2.302588	0.414071	99
Es	-0.891861	-1.525779	0.283313	99
Es	-0.258549	2.327588	-0.131870	99
Es	-1.420781	1.554068	0.268421	99
Es	-0.062733	2.904184	-0.176815	99
Es	-0.623910	-2.092372	0.579740	99
Es	-0.393114	0.814465	0.079495	99
Es	-0.727749	-1.407194	0.784619	99
Es	-0.540737	-0.204952	0.285396	99
Es	-0.326304	2.172525	0.072341	99
Es	2.547121	0.552610	-0.972400	99
Es	-1.689969	-0.616338	0.658859	99
Es	1.239971	-0.401005	0.001812	99
Es	-0.088883	2.606193	-0.115997	99
Es	1.475018	0.437347	-0.246566	99
Es	1.601735	1.306631	-1.229803	99
Es	1.127167	-0.066170	-0.140569	99
Es	1.334188	0.147776	-0.653424	99
39
Properties=species:S:1:pos:R:3:Z:I:1 energy=-338.7655582941981 field_type=dipole dipole="0.000000 0.000000 0.000000" charge=0
C	-0.623904	-2.092331	0.579731	6
C	-1.005584	-0.811191	0.490311	6
N	-0.197774	0.244628	0.096021	7
C	-0.690294	1.558428	0.095681	6
O	-0.088564	2.606478	-0.116089	8
N	1.127456	-0.066732	-0.140289	7
C	1.838716	0.717588	-0.876579	6
H	-1.322804	-2.858032	0.897111	1
H	0.387566	-2.407542	0.344651	1
H	-2.032404	-0.556651	0.739371	1
H	-1.766794	1.586879	0.336641	1
H	2.902496	0.475419	-1.029259	1
H	1.471886	1.603059	-1.417299	1
Es	0.434584	0.122056	-0.070805	99
Es	-1.102618	-2.610444	0.798968	99
Es	-0.391125	0.815303	0.085896	99
Es	1.838737	0.717575	-0.876519	99
Es	-0.197669	0.244625	0.096069	99
Es	-0.690198	1.558229	0.095689	99
Es	-1.420912	1.553976	0.268120	99
Es	-0.740442	-1.442385	0.787304	99
Es	1.332386	0.146927	-0.660147	99
Es	-0.623911	-2.092372	0.579737	99
Es	-0.089144	2.606179	-0.115931	99
Es	1.239477	-0.401409	-0.000423	99
Es	-0.876704	-1.489594	0.279755	99
Es	1.601635	1.306708	-1.228988	99
Es	-0.061224	2.905240	-0.171738	99
Es	-0.541953	-0.205801	0.282015	99
Es	0.004088	2.475626	-0.136951	99
Es	1.127191	-0.066165	-0.140571	99
Es	-0.257119	2.328803	-0.127624	99
Es	-0.329329	2.170814	0.064294	99
Es	-1.690587	-0.616711	0.659127	99
Es	2.547328	0.553007	-0.972251	99
Es	-1.005512	-0.810893	0.490264	99
Es	-0.254100	0.312966	0.092225	99
Es	1.477483	0.438354	-0.238424	99
Es	0.040893	-2.303344	0.415442	99
39
Properties=species:S:1:pos:R:3:Z:I:1 energy=-338.7655582941981 field_type=dipole dipole="0.000000 0.000000 0.000000" charge=0
C	-0.623904	-2.092331	0.579731	6
C	-1.005584	-0.811191	0.490311	6
N	-0.197774	0.244628	0.096021	7
C	-0.690294	1.558428	0.095681	6
O	-0.088564	2.606478	-0.116089	8
N	1.127456	-0.066732	-0.140289	7
C	1.838716	0.717588	-0.876579	6
H	-1.322804	-2.858032	0.897111	1
H	0.387566	-2.407542	0.344651	1
H	-2.032404	-0.556651	0.739371	1
H	-1.766794	1.586879	0.336641	1
H	2.902496	0.475419	-1.029259	1
H	1.471886	1.603059	-1.417299	1
Es	2.547070	0.553067	-0.971976	99
Es	1.127193	-0.066160	-0.140574	99
Es	-1.690524	-0.616718	0.659225	99
Es	-0.063077	2.905603	-0.171403	99
Es	-0.259014	2.327214	-0.133557	99
Es	-0.690198	1.558229	0.095687	99
Es	-0.327331	2.171807	0.069255	99
Es	-1.420955	1.553927	0.268067	99
Es	-0.391066	0.815288	0.085911	99
Es	-1.005513	-0.810897	0.490256	99
Es	1.239269	-0.401057	-0.000190	99
Es	-0.089332	2.606034	-0.115872	99
Es	-0.623911	-2.092373	0.579737	99
Es	-0.542122	-0.206016	0.281368	99
Es	1.477629	0.438422	-0.238103	99
Es	0.434482	0.122058	-0.070650	99
Es	-0.874550	-1.487658	0.285307	99
Es	0.040530	-2.303380	0.415307	99
Es	-0.742314	-1.444199	0.781932	99
Es	0.006170	2.476019	-0.136283	99
Es	-0.253803	0.313121	0.093217	99
Es	-1.102641	-2.610515	0.798844	99
Es	1.838735	0.717575	-0.876523	99
Es	-0.197784	0.244588	0.095674	99
Es	1.601902	1.306741	-1.229203	99
Es	1.332409	0.146546	-0.660922	99
39
Properties=species:S:1:pos:R:3:Z:I:1 energy=-338.7655582941981 field_type=dipole dipole="0.000000 0.000000 0.000000" charge=0
C	-0.623904	-2.092331	0.579731	6
C	-1.005584	-0.811191	0.490311	6
N	-0.197774	0.244628	0.096021	7
C	-0.690294	1.558428	0.095681	6
O	-0.088564	2.606478	-0.116089	8
N	1.127456	-0.066732	-0.140289	7
C	1.838716	0.717588	-0.876579	6
H	-1.322804	-2.858032	0.897111	1
H	0.387566	-2.407542	0.344651	1
H	-2.032404	-0.556651	0.739371	1
H	-1.766794	1.586879	0.336641	1
H	2.902496	0.475419	-1.029259	1
H	1.471886	1.603059	-1.417299	1
Es	-0.542070	-0.205826	0.281766	99
Es	-0.327985	2.170738	0.066135	99
Es	-0.257819	2.327785	-0.130465	99
Es	1.838735	0.717577	-0.876519	99
Es	-0.059567	2.904659	-0.173065	99
Es	-0.690198	1.558231	0.095690	99
Es	1.332770	0.147327	-0.657328	99
Es	-0.875764	-1.488639	0.282840	99
Es	1.601858	1.306794	-1.229049	99
Es	-0.197937	0.244599	0.095262	99
Es	1.239595	-0.401385	-0.000709	99
Es	-0.391090	0.815288	0.086111	99
Es	-1.690406	-0.616725	0.659473	99
Es	-1.102578	-2.610496	0.798940	99
Es	0.434606	0.121929	-0.070701	99
Es	1.476856	0.438057	-0.241312	99
Es	1.127174	-0.066160	-0.140574	99
Es	2.547130	0.552935	-0.972126	99
Es	-0.623911	-2.092373	0.579736	99
Es	0.040679	-2.303322	0.415084	99
Es	-0.088816	2.606171	-0.116013	99
Es	-1.420912	1.553961	0.268155	99
Es	-1.005514	-0.810897	0.490250	99
Es	0.001510	2.477319	-0.134547	99
Es	-0.741368	-1.443320	0.784272	99
Es	-0.253724	0.313042	0.093228	99
39
Properties=species:S:1:pos:R:3:Z:I:1 energy=-338.7655582941981 field_type=dipole dipole="0.000000 0.000000 0.000000" charge=0
C	-0.623904	-2.092331	0.579731	6
C	-1.005584	-0.811191	0.490311	6
N	-0.197774	0.244628	0.096021	7
C	-0.690294	1.558428	0.095681	6
O	-0.088564	2.606478	-0.116089	8
N	1.127456	-0.066732	-0.140289	7
C	1.838716	0.717588	-0.876579	6
H	-1.322804	-2.858032	0.897111	1
H	0.387566	-2.407542	0.344651	1
H	-2.032404	-0.556651	0.739371	1
H	-1.766794	1.586879	0.336641	1
H	2.902496	0.475419	-1.029259	1
H	1.471886	1.603059	-1.417299	1
Es	-0.541991	-0.205925	0.281673	99
Es	-0.326497	2.171412	0.069718	99
Es	2.547113	0.552948	-0.972043	99
Es	-0.690197	1.558230	0.095691	99
Es	1.601863	1.306846	-1.229013	99
Es	0.040699	-2.303387	0.415159	99
Es	-0.197926	0.244594	0.095320	99
Es	1.477007	0.438026	-0.241010	99
Es	-0.742647	-1.444530	0.780999	99
Es	-1.102621	-2.610461	0.798902	99
Es	-1.005516	-0.810898	0.490245	99
Es	1.127183	-0.066154	-0.140578	99
Es	0.434382	0.122076	-0.071199	99
Es	-0.088968	2.606208	-0.115978	99
Es	1.838735	0.717576	-0.876523	99
Es	1.332780	0.147249	-0.657611	99
Es	-0.874442	-1.487453	0.286307	99
Es	-0.390737	0.815428	0.087335	99
Es	-0.623910	-2.092372	0.579739	99
Es	-0.253910	0.312990	0.092308	99
Es	1.239398	-0.401549	-0.000648	99
Es	-1.690432	-0.616645	0.659247	99
Es	-0.056923	2.904100	-0.173455	99
Es	-0.001140	2.477754	-0.134476	99
Es	-0.259164	2.327208	-0.133699	99
Es	-1.420884	1.553999	0.268123	99
