42
Properties=species:S:1:pos:R:3:Z:I:1 energy=-339.90055098998045 field_type=dipole dipole="0.000000 0.000000 0.000000" charge=0
C	-1.343921	-0.128187	-0.406601	6
C	0.146629	-0.279457	-0.254711	6
N	0.799659	-1.402657	-0.195321	7
N	0.048639	-2.526987	-0.238361	7
C	0.954599	0.960193	-0.195671	6
C	0.577429	2.120933	0.692409	6
O	1.592578	1.192153	1.076159	8
H	-1.612251	0.907963	-0.628561	1
H	-1.834731	-0.430117	0.522909	1
H	-1.705171	-0.755387	-1.226471	1
H	0.666379	-3.330257	-0.384771	1
H	-0.375801	-2.701837	0.676589	1
H	1.543348	1.167183	-1.081061	1
H	-0.352241	2.093183	1.245719	1
H	0.894859	3.113282	0.397749	1
Es	-0.054665	2.100202	1.073290	99
Es	0.795983	2.797964	0.497668	99
Es	0.049105	-2.526954	-0.237919	99
Es	1.352513	1.094813	-0.793592	99
Es	0.146607	-0.279399	-0.254671	99
Es	0.577639	2.120710	0.692458	99
Es	1.218488	1.606782	1.023000	99
Es	0.954698	0.960241	-0.195385	99
Es	0.430973	-3.005469	-0.310806	99
Es	1.176263	-1.432873	-0.187878	99
Es	-1.662709	-0.332454	0.220705	99
Es	1.415884	1.021999	0.572817	99
Es	-0.193981	-2.610193	0.317339	99
Es	1.466656	0.996210	1.275702	99
Es	0.411352	-1.964927	-0.198731	99
Es	0.586440	1.605505	0.084535	99
Es	1.870735	1.320445	1.035836	99
Es	-1.577158	-0.546387	-0.950743	99
Es	-0.195080	-2.492454	-0.492258	99
Es	1.592377	1.192250	1.075968	99
Es	-1.517441	0.576717	-0.552974	99
Es	0.511065	-0.907381	-0.508305	99
Es	-1.343856	-0.128187	-0.406578	99
Es	-0.599244	-0.202982	-0.325936	99
Es	0.799018	-1.402648	-0.195350	99
Es	0.540254	0.349864	-0.223413	99
Es	0.481432	-0.916760	0.073195	99
42
Properties=species:S:1:pos:R:3:Z:I:1 energy=-339.90055098998045 field_type=dipole dipole="0.000000 0.000000 0.000000" charge=0
C	-1.343921	-0.128187	-0.406601	6
C	0.146629	-0.279457	-0.254711	6
N	0.799659	-1.402657	-0.195321	7
N	0.048639	-2.526987	-0.238361	7
C	0.954599	0.960193	-0.195671	6
C	0.577429	2.120933	0.692409	6
O	1.592578	1.192153	1.076159	8
H	-1.612251	0.907963	-0.628561	1
H	-1.834731	-0.430117	0.522909	1
H	-1.705171	-0.755387	-1.226471	1
H	0.666379	-3.330257	-0.384771	1
H	-0.375801	-2.701837	0.676589	1
H	1.543348	1.167183	-1.081061	1
H	-0.352241	2.093183	1.245719	1
H	0.894859	3.113282	0.397749	1
Es	0.795713	2.799168	0.497858	99
Es	0.146606	-0.279396	-0.254667	99
Es	-1.576636	-0.548093	-0.949342	99
Es	-0.195896	-2.491178	-0.485050	99
Es	-0.190459	-2.608112	0.314650	99
Es	0.412949	-1.966145	-0.200269	99
Es	-1.659432	-0.332839	0.217580	99
Es	0.049109	-2.526962	-0.237912	99
Es	-0.600251	-0.203803	-0.324396	99
Es	0.799121	-1.402589	-0.195353	99
Es	1.421942	1.016918	0.572008	99
Es	1.853023	1.315496	1.028800	99
Es	1.478420	0.994825	1.281057	99
Es	1.172456	-1.431040	-0.189753	99
Es	-0.053122	2.099839	1.073033	99
Es	0.431541	-3.010533	-0.314679	99
Es	-1.343858	-0.128187	-0.406578	99
Es	0.510319	-0.907745	-0.510778	99
Es	0.480917	-0.916587	0.077167	99
Es	1.352208	1.093104	-0.791084	99
Es	-1.519068	0.580754	-0.552428	99
Es	1.592656	1.192218	1.076114	99
Es	0.541906	0.349141	-0.222799	99
Es	0.582825	1.608803	0.084437	99
Es	0.577636	2.120716	0.692458	99
Es	0.954699	0.960243	-0.195378	99
Es	1.218020	1.616616	1.023276	99
42
Properties=species:S:1:pos:R:3:Z:I:1 energy=-339.90055098998045 field_type=dipole dipole="0.000000 0.000000 0.000000" charge=0
C	-1.343921	-0.128187	-0.406601	6
C	0.146629	-0.279457	-0.254711	6
N	0.799659	-1.402657	-0.195321	7
N	0.048639	-2.526987	-0.238361	7
C	0.954599	0.960193	-0.195671	6
C	0.577429	2.120933	0.692409	6
O	1.592578	1.192153	1.076159	8
H	-1.612251	0.907963	-0.628561	1
H	-1.834731	-0.430117	0.522909	1
H	-1.705171	-0.755387	-1.226471	1
H	0.666379	-3.330257	-0.384771	1
H	-0.375801	-2.701837	0.676589	1
H	1.543348	1.167183	-1.081061	1
H	-0.352241	2.093183	1.245719	1
H	0.894859	3.113282	0.397749	1
Es	0.431635	-3.013233	-0.315877	99
Es	-0.600774	-0.204164	-0.323234	99
Es	1.592412	1.192225	1.076017	99
Es	1.837231	1.313722	1.023539	99
Es	-0.187977	-2.606623	0.312288	99
Es	0.509202	-0.908009	-0.511355	99
Es	-0.052044	2.099358	1.072641	99
Es	0.580928	1.611000	0.084029	99
Es	0.414457	-1.967112	-0.201602	99
Es	-1.343857	-0.128187	-0.406578	99
Es	0.049127	-2.526960	-0.237904	99
Es	-1.520475	0.582717	-0.551360	99
Es	-1.576328	-0.548989	-0.948547	99
Es	0.577638	2.120716	0.692464	99
Es	1.351909	1.092006	-0.789047	99
Es	-1.657199	-0.332883	0.214806	99
Es	0.146604	-0.279394	-0.254670	99
Es	1.489276	0.993600	1.285828	99
Es	0.480595	-0.916825	0.079093	99
Es	0.542882	0.348618	-0.222620	99
Es	1.218394	1.621118	1.023057	99
Es	1.426618	1.014365	0.571513	99
Es	-0.196247	-2.490977	-0.480956	99
Es	1.170339	-1.429111	-0.191006	99
Es	0.954706	0.960242	-0.195377	99
Es	0.799004	-1.402636	-0.195349	99
Es	0.795291	2.800051	0.498178	99
42
Properties=species:S:1:pos:R:3:Z:I:1 energy=-339.90055098998045 field_type=dipole dipole="0.000000 0.000000 0.000000" charge=0
C	-1.343921	-0.128187	-0.406601	6
C	0.146629	-0.279457	-0.254711	6
N	0.799659	-1.402657	-0.195321	7
N	0.048639	-2.526987	-0.238361	7
C	0.954599	0.960193	-0.195671	6
C	0.577429	2.120933	0.692409	6
O	1.592578	1.192153	1.076159	8
H	-1.612251	0.907963	-0.628561	1
H	-1.834731	-0.430117	0.522909	1
H	-1.705171	-0.755387	-1.226471	1
H	0.666379	-3.330257	-0.384771	1
H	-0.375801	-2.701837	0.676589	1
H	1.543348	1.167183	-1.081061	1
H	-0.352241	2.093183	1.245719	1
H	0.894859	3.113282	0.397749	1
Es	-1.655646	-0.332630	0.212355	99
Es	-1.576233	-0.549561	-0.947895	99
Es	1.428781	1.011978	0.571171	99
Es	-0.051580	2.099040	1.072357	99
Es	0.049111	-2.526961	-0.237906	99
Es	1.592339	1.192261	1.075940	99
Es	-0.600971	-0.204473	-0.322216	99
Es	0.795012	2.800548	0.498215	99
Es	0.580052	1.612457	0.084067	99
Es	0.415796	-1.968044	-0.201898	99
Es	1.819684	1.313130	1.016315	99
Es	-1.521612	0.583797	-0.550391	99
Es	0.431538	-3.014853	-0.316394	99
Es	-0.186140	-2.605719	0.310377	99
Es	0.798999	-1.402629	-0.195349	99
Es	0.508413	-0.908208	-0.511574	99
Es	1.219050	1.623593	1.023526	99
Es	-0.196523	-2.490703	-0.478612	99
Es	0.954705	0.960241	-0.195377	99
Es	0.577635	2.120719	0.692457	99
Es	1.351522	1.091366	-0.787574	99
Es	1.504033	0.993399	1.291888	99
Es	0.146605	-0.279389	-0.254671	99
Es	1.168371	-1.427802	-0.192075	99
Es	0.543577	0.348167	-0.222435	99
Es	0.480685	-0.916903	0.080250	99
Es	-1.343857	-0.128186	-0.406578	99
42
Properties=species:S:1:pos:R:3:Z:I:1 energy=-339.90055098998045 field_type=dipole dipole="0.000000 0.000000 0.000000" charge=0
C	-1.343921	-0.128187	-0.406601	6
C	0.146629	-0.279457	-0.254711	6
N	0.799659	-1.402657	-0.195321	7
N	0.048639	-2.526987	-0.238361	7
C	0.954599	0.960193	-0.195671	6
C	0.577429	2.120933	0.692409	6
O	1.592578	1.192153	1.076159	8
H	-1.612251	0.907963	-0.628561	1
H	-1.834731	-0.430117	0.522909	1
H	-1.705171	-0.755387	-1.226471	1
H	0.666379	-3.330257	-0.384771	1
H	-0.375801	-2.701837	0.676589	1
H	1.543348	1.167183	-1.081061	1
H	-0.352241	2.093183	1.245719	1
H	0.894859	3.113282	0.397749	1
Es	0.146604	-0.279394	-0.254665	99
Es	1.218354	1.624129	1.024144	99
Es	1.166781	-1.426004	-0.192459	99
Es	-1.654722	-0.332330	0.210075	99
Es	0.431283	-3.016091	-0.316799	99
Es	-0.185121	-2.605073	0.308803	99
Es	0.798999	-1.402623	-0.195351	99
Es	0.417318	-1.968525	-0.203192	99
Es	0.480038	-0.917107	0.080300	99
Es	0.579366	1.613581	0.083906	99
Es	1.516318	0.992985	1.295286	99
Es	-1.576121	-0.549804	-0.947262	99
Es	0.577627	2.120717	0.692455	99
Es	-1.343856	-0.128187	-0.406576	99
Es	1.351174	1.090923	-0.786386	99
Es	0.954704	0.960241	-0.195378	99
Es	1.431314	1.011583	0.570542	99
Es	0.049136	-2.526955	-0.237902	99
Es	0.507699	-0.908556	-0.511429	99
Es	1.592205	1.192210	1.075935	99
Es	1.805634	1.312894	1.012018	99
Es	-0.051052	2.098639	1.072011	99
Es	0.544333	0.347707	-0.222242	99
Es	-1.522567	0.584458	-0.549669	99
Es	-0.195895	-2.491124	-0.475813	99
Es	0.794679	2.801068	0.498581	99
Es	-0.600886	-0.204728	-0.320959	99
42
Properties=species:S:1:pos:R:3:Z:I:1 energy=-339.90055098998045 field_type=dipole dipole="0.000000 0.000000 0.000000" charge=0
C	-1.343921	-0.128187	-0.406601	6
C	0.146629	-0.279457	-0.254711	6
N	0.799659	-1.402657	-0.195321	7
N	0.048639	-2.526987	-0.238361	7
C	0.954599	0.960193	-0.195671	6
C	0.577429	2.120933	0.692409	6
O	1.592578	1.192153	1.076159	8
H	-1.612251	0.907963	-0.628561	1
H	-1.834731	-0.430117	0.522909	1
H	-1.705171	-0.755387	-1.226471	1
H	0.666379	-3.330257	-0.384771	1
H	-0.375801	-2.701837	0.676589	1
H	1.543348	1.167183	-1.081061	1
H	-0.352241	2.093183	1.245719	1
H	0.894859	3.113282	0.397749	1
Es	-0.600794	-0.205006	-0.320574	99
Es	0.794521	2.801354	0.498591	99
Es	0.431263	-3.016774	-0.316820	99
Es	0.579136	1.614542	0.084057	99
Es	1.592510	1.192235	1.076044	99
Es	-1.343858	-0.128186	-0.406578	99
Es	0.544751	0.347234	-0.222267	99
Es	-1.523480	0.584879	-0.548772	99
Es	0.577634	2.120717	0.692459	99
Es	-0.184639	-2.604670	0.307710	99
Es	1.526265	0.994121	1.298354	99
Es	0.954694	0.960251	-0.195377	99
Es	-0.050917	2.098408	1.071882	99
Es	-1.576397	-0.550034	-0.946682	99
Es	1.792111	1.311028	1.008868	99
Es	1.166396	-1.425431	-0.193179	99
Es	0.507098	-0.908814	-0.511172	99
Es	0.798995	-1.402627	-0.195349	99
Es	0.049126	-2.526960	-0.237901	99
Es	0.479858	-0.917180	0.080550	99
Es	1.219443	1.625578	1.023506	99
Es	0.417473	-1.968214	-0.204011	99
Es	-0.195207	-2.491485	-0.474105	99
Es	1.350875	1.090722	-0.785277	99
Es	1.433388	1.010399	0.570260	99
Es	0.146604	-0.279393	-0.254662	99
Es	-1.653503	-0.332058	0.208423	99
42
Properties=species:S:1:pos:R:3:Z:I:1 energy=-339.90055098998045 field_type=dipole dipole="0.000000 0.000000 0.000000" charge=0
C	-1.343921	-0.128187	-0.406601	6
C	0.146629	-0.279457	-0.254711	6
N	0.799659	-1.402657	-0.195321	7
N	0.048639	-2.526987	-0.238361	7
C	0.954599	0.960193	-0.195671	6
C	0.577429	2.120933	0.692409	6
O	1.592578	1.192153	1.076159	8
H	-1.612251	0.907963	-0.628561	1
H	-1.834731	-0.430117	0.522909	1
H	-1.705171	-0.755387	-1.226471	1
H	0.666379	-3.330257	-0.384771	1
H	-0.375801	-2.701837	0.676589	1
H	1.543348	1.167183	-1.081061	1
H	-0.352241	2.093183	1.245719	1
H	0.894859	3.113282	0.397749	1
Es	0.578860	1.615207	0.084219	99
Es	1.592327	1.192214	1.075993	99
Es	0.954701	0.960245	-0.195377	99
Es	0.794272	2.801723	0.498711	99
Es	1.781991	1.309927	1.006165	99
Es	-0.600721	-0.205302	-0.319836	99
Es	0.798991	-1.402625	-0.195349	99
Es	1.434043	1.009659	0.570303	99
Es	0.146602	-0.279393	-0.254657	99
Es	0.545194	0.346874	-0.222364	99
Es	1.219270	1.625878	1.023739	99
Es	1.535829	0.995309	1.300152	99
Es	1.350750	1.090528	-0.784465	99
Es	-1.653121	-0.331923	0.207167	99
Es	1.165579	-1.424413	-0.193758	99
Es	-1.576353	-0.549917	-0.946260	99
Es	-1.523906	0.585190	-0.548355	99
Es	-0.194364	-2.491339	-0.472632	99
Es	0.049137	-2.526961	-0.237894	99
Es	0.418567	-1.968633	-0.204287	99
Es	0.430858	-3.017582	-0.317169	99
Es	0.506374	-0.909091	-0.510861	99
Es	-0.184431	-2.604329	0.306703	99
Es	0.577634	2.120716	0.692458	99
Es	0.479712	-0.917273	0.080551	99
Es	-1.343859	-0.128186	-0.406578	99
Es	-0.050591	2.098130	1.071657	99
42
Properties=species:S:1:pos:R:3:Z:I:1 energy=-339.90055098998045 field_type=dipole dipole="0.000000 0.000000 0.000000" charge=0
C	-1.343921	-0.128187	-0.406601	6
C	0.146629	-0.279457	-0.254711	6
N	0.799659	-1.402657	-0.195321	7
N	0.048639	-2.526987	-0.238361	7
C	0.954599	0.960193	-0.195671	6
C	0.577429	2.120933	0.692409	6
O	1.592578	1.192153	1.076159	8
H	-1.612251	0.907963	-0.628561	1
H	-1.834731	-0.430117	0.522909	1
H	-1.705171	-0.755387	-1.226471	1
H	0.666379	-3.330257	-0.384771	1
H	-0.375801	-2.701837	0.676589	1
H	1.543348	1.167183	-1.081061	1
H	-0.352241	2.093183	1.245719	1
H	0.894859	3.113282	0.397749	1
Es	1.219786	1.626223	1.023734	99
Es	1.774715	1.308571	1.005449	99
Es	1.592140	1.192162	1.075961	99
Es	0.479590	-0.917325	0.080747	99
Es	1.435456	1.010082	0.569632	99
Es	0.506065	-0.909243	-0.510558	99
Es	0.794048	2.801949	0.498909	99
Es	1.164756	-1.423800	-0.194171	99
Es	0.798996	-1.402618	-0.195350	99
Es	0.430710	-3.017980	-0.317653	99
Es	-1.652289	-0.331574	0.205780	99
Es	0.545562	0.346636	-0.222348	99
Es	-0.050527	2.097843	1.071444	99
Es	1.541261	0.995631	1.300877	99
Es	-1.576484	-0.550162	-0.945813	99
Es	-0.183609	-2.604099	0.306174	99
Es	-0.600650	-0.205513	-0.319336	99
Es	0.954701	0.960247	-0.195376	99
Es	0.578760	1.615946	0.084360	99
Es	0.418743	-1.968275	-0.205756	99
Es	-1.524639	0.585375	-0.547768	99
Es	1.350612	1.090383	-0.783829	99
Es	-0.193801	-2.491984	-0.470465	99
Es	0.049063	-2.526976	-0.237893	99
Es	-1.343857	-0.128187	-0.406578	99
Es	0.577635	2.120718	0.692462	99
Es	0.146604	-0.279394	-0.254661	99
42
Properties=species:S:1:pos:R:3:Z:I:1 energy=-339.90055098998045 field_type=dipole dipole="0.000000 0.000000 0.000000" charge=0
C	-1.343921	-0.128187	-0.406601	6
C	0.146629	-0.279457	-0.254711	6
N	0.799659	-1.402657	-0.195321	7
N	0.048639	-2.526987	-0.238361	7
C	0.954599	0.960193	-0.195671	6
C	0.577429	2.120933	0.692409	6
O	1.592578	1.192153	1.076159	8
H	-1.612251	0.907963	-0.628561	1
H	-1.834731	-0.430117	0.522909	1
H	-1.705171	-0.755387	-1.226471	1
H	0.666379	-3.330257	-0.384771	1
H	-0.375801	-2.701837	0.676589	1
H	1.543348	1.167183	-1.081061	1
H	-0.352241	2.093183	1.245719	1
H	0.894859	3.113282	0.397749	1
Es	1.163617	-1.422942	-0.194117	99
Es	-1.651885	-0.331441	0.204670	99
Es	0.479312	-0.917509	0.080648	99
Es	0.419770	-1.968383	-0.206433	99
Es	0.430561	-3.018388	-0.317565	99
Es	0.793919	2.802172	0.499095	99
Es	1.219492	1.626092	1.023018	99
Es	1.350533	1.090230	-0.783316	99
Es	-0.600567	-0.205695	-0.318899	99
Es	1.436834	1.009444	0.569610	99
Es	0.146603	-0.279393	-0.254660	99
Es	-1.576621	-0.549985	-0.945523	99
Es	0.545996	0.346234	-0.222205	99
Es	-0.183228	-2.603909	0.305330	99
Es	1.769018	1.307741	1.004796	99
Es	0.577639	2.120720	0.692461	99
Es	1.545555	0.996834	1.301625	99
Es	0.954696	0.960246	-0.195373	99
Es	0.798993	-1.402620	-0.195350	99
Es	-1.343857	-0.128187	-0.406578	99
Es	0.578561	1.616549	0.084466	99
Es	1.592278	1.192222	1.075958	99
Es	-1.524990	0.585565	-0.547185	99
Es	-0.050397	2.097638	1.071329	99
Es	0.505792	-0.909304	-0.510669	99
Es	0.049096	-2.526972	-0.237901	99
Es	-0.193370	-2.492324	-0.469257	99
42
Properties=species:S:1:pos:R:3:Z:I:1 energy=-339.90055098998045 field_type=dipole dipole="0.000000 0.000000 0.000000" charge=0
C	-1.343921	-0.128187	-0.406601	6
C	0.146629	-0.279457	-0.254711	6
N	0.799659	-1.402657	-0.195321	7
N	0.048639	-2.526987	-0.238361	7
C	0.954599	0.960193	-0.195671	6
C	0.577429	2.120933	0.692409	6
O	1.592578	1.192153	1.076159	8
H	-1.612251	0.907963	-0.628561	1
H	-1.834731	-0.430117	0.522909	1
H	-1.705171	-0.755387	-1.226471	1
H	0.666379	-3.330257	-0.384771	1
H	-0.375801	-2.701837	0.676589	1
H	1.543348	1.167183	-1.081061	1
H	-0.352241	2.093183	1.245719	1
H	0.894859	3.113282	0.397749	1
Es	0.420289	-1.968503	-0.206716	99
Es	0.430519	-3.018616	-0.317787	99
Es	-1.576707	-0.550034	-0.945116	99
Es	1.219284	1.626083	1.023096	99
Es	0.049132	-2.526961	-0.237898	99
Es	0.505363	-0.909554	-0.510188	99
Es	0.546203	0.346083	-0.222294	99
Es	1.350354	1.090184	-0.782879	99
Es	0.479205	-0.917504	0.080620	99
Es	-0.050281	2.097418	1.071113	99
Es	-1.525480	0.585660	-0.546853	99
Es	0.793690	2.802375	0.499139	99
Es	0.578645	1.616956	0.084744	99
Es	-1.343857	-0.128186	-0.406578	99
Es	0.146603	-0.279393	-0.254658	99
Es	1.762236	1.306709	1.003771	99
Es	1.162978	-1.422236	-0.194621	99
Es	-1.651378	-0.331239	0.203814	99
Es	-0.183665	-2.603968	0.304771	99
Es	0.798982	-1.402643	-0.195347	99
Es	0.577640	2.120718	0.692465	99
Es	-0.600434	-0.205913	-0.318566	99
Es	1.592503	1.192228	1.076042	99
Es	1.437755	1.009388	0.569278	99
Es	0.954700	0.960242	-0.195382	99
Es	-0.192259	-2.492417	-0.468341	99
Es	1.551328	0.997757	1.302345	99
42
Properties=species:S:1:pos:R:3:Z:I:1 energy=-339.90055098998045 field_type=dipole dipole="0.000000 0.000000 0.000000" charge=0
C	-1.343921	-0.128187	-0.406601	6
C	0.146629	-0.279457	-0.254711	6
N	0.799659	-1.402657	-0.195321	7
N	0.048639	-2.526987	-0.238361	7
C	0.954599	0.960193	-0.195671	6
C	0.577429	2.120933	0.692409	6
O	1.592578	1.192153	1.076159	8
H	-1.612251	0.907963	-0.628561	1
H	-1.834731	-0.430117	0.522909	1
H	-1.705171	-0.755387	-1.226471	1
H	0.666379	-3.330257	-0.384771	1
H	-0.375801	-2.701837	0.676589	1
H	1.543348	1.167183	-1.081061	1
H	-0.352241	2.093183	1.245719	1
H	0.894859	3.113282	0.397749	1
Es	1.350308	1.090135	-0.782486	99
Es	-1.576695	-0.549793	-0.944821	99
Es	0.798983	-1.402623	-0.195350	99
Es	0.578456	1.617267	0.084880	99
Es	1.592297	1.192224	1.075958	99
Es	-1.343856	-0.128186	-0.406577	99
Es	0.430316	-3.018932	-0.317915	99
Es	0.420219	-1.968233	-0.206970	99
Es	1.219980	1.626523	1.023003	99
Es	-0.183588	-2.603865	0.304222	99
Es	0.505143	-0.909667	-0.510082	99
Es	-1.651147	-0.331189	0.202965	99
Es	0.146598	-0.279392	-0.254659	99
Es	-1.525843	0.585759	-0.546486	99
Es	1.162789	-1.422079	-0.194924	99
Es	0.546537	0.345638	-0.222271	99
Es	-0.191544	-2.492558	-0.467359	99
Es	1.554232	0.998676	1.302475	99
Es	0.479233	-0.917471	0.080629	99
Es	-0.050103	2.097283	1.071038	99
Es	0.954695	0.960242	-0.195384	99
Es	0.793559	2.802556	0.499196	99
Es	1.757994	1.305472	1.003573	99
Es	-0.600352	-0.206059	-0.318313	99
Es	0.049087	-2.526975	-0.237897	99
Es	1.438417	1.009163	0.569069	99
Es	0.577630	2.120720	0.692459	99
42
Properties=species:S:1:pos:R:3:Z:I:1 energy=-339.90055098998045 field_type=dipole dipole="0.000000 0.000000 0.000000" charge=0
C	-1.343921	-0.128187	-0.406601	6
C	0.146629	-0.279457	-0.254711	6
N	0.799659	-1.402657	-0.195321	7
N	0.048639	-2.526987	-0.238361	7
C	0.954599	0.960193	-0.195671	6
C	0.577429	2.120933	0.692409	6
O	1.592578	1.192153	1.076159	8
H	-1.612251	0.907963	-0.628561	1
H	-1.834731	-0.430117	0.522909	1
H	-1.705171	-0.755387	-1.226471	1
H	0.666379	-3.330257	-0.384771	1
H	-0.375801	-2.701837	0.676589	1
H	1.543348	1.167183	-1.081061	1
H	-0.352241	2.093183	1.245719	1
H	0.894859	3.113282	0.397749	1
Es	0.146602	-0.279393	-0.254652	99
Es	1.162834	-1.421823	-0.195237	99
Es	-0.050169	2.097184	1.071035	99
Es	0.430196	-3.019148	-0.317890	99
Es	1.438422	1.009327	0.568769	99
Es	-0.600281	-0.206170	-0.318194	99
Es	-0.184131	-2.603839	0.303853	99
Es	-1.343856	-0.128185	-0.406579	99
Es	1.220004	1.626486	1.023144	99
Es	1.350285	1.090024	-0.782126	99
Es	0.793523	2.802633	0.499170	99
Es	0.479036	-0.917576	0.080480	99
Es	1.561308	0.999666	1.303340	99
Es	-1.650702	-0.331008	0.202393	99
Es	0.577632	2.120720	0.692460	99
Es	0.504757	-0.909852	-0.509632	99
Es	-0.190291	-2.492963	-0.466287	99
Es	1.750634	1.304103	1.002302	99
Es	1.592397	1.192244	1.075989	99
Es	0.546667	0.345612	-0.222275	99
Es	0.799037	-1.402592	-0.195350	99
Es	-1.576829	-0.549889	-0.944562	99
Es	0.420017	-1.967719	-0.207855	99
Es	0.954692	0.960253	-0.195374	99
Es	-1.526153	0.585809	-0.546169	99
Es	0.049094	-2.526966	-0.237917	99
Es	0.578622	1.617697	0.085137	99
42
Properties=species:S:1:pos:R:3:Z:I:1 energy=-339.90055098998045 field_type=dipole dipole="0.000000 0.000000 0.000000" charge=0
C	-1.343921	-0.128187	-0.406601	6
C	0.146629	-0.279457	-0.254711	6
N	0.799659	-1.402657	-0.195321	7
N	0.048639	-2.526987	-0.238361	7
C	0.954599	0.960193	-0.195671	6
C	0.577429	2.120933	0.692409	6
O	1.592578	1.192153	1.076159	8
H	-1.612251	0.907963	-0.628561	1
H	-1.834731	-0.430117	0.522909	1
H	-1.705171	-0.755387	-1.226471	1
H	0.666379	-3.330257	-0.384771	1
H	-0.375801	-2.701837	0.676589	1
H	1.543348	1.167183	-1.081061	1
H	-0.352241	2.093183	1.245719	1
H	0.894859	3.113282	0.397749	1
Es	0.478958	-0.917529	0.080384	99
Es	0.578570	1.617986	0.085276	99
Es	0.793433	2.802740	0.499225	99
Es	0.954700	0.960247	-0.195376	99
Es	1.747330	1.303498	1.002132	99
Es	0.577636	2.120725	0.692457	99
Es	-1.343857	-0.128186	-0.406577	99
Es	-1.526503	0.585840	-0.545873	99
Es	-0.600191	-0.206297	-0.317798	99
Es	-0.050124	2.097074	1.070907	99
Es	1.592208	1.192179	1.075982	99
Es	0.049091	-2.526975	-0.237895	99
Es	1.219663	1.626240	1.023441	99
Es	0.798980	-1.402618	-0.195351	99
Es	1.350218	1.089972	-0.781850	99
Es	0.504763	-0.909915	-0.509732	99
Es	1.564397	0.999490	1.303149	99
Es	-0.189506	-2.492988	-0.465691	99
Es	-1.650317	-0.330760	0.201626	99
Es	0.430077	-3.019317	-0.318045	99
Es	-1.576949	-0.549975	-0.944302	99
Es	0.546938	0.345312	-0.222136	99
Es	1.438964	1.010404	0.568423	99
Es	0.146603	-0.279394	-0.254657	99
Es	1.162024	-1.421333	-0.195237	99
Es	-0.184405	-2.603882	0.303444	99
Es	0.420645	-1.967906	-0.207950	99
42
Properties=species:S:1:pos:R:3:Z:I:1 energy=-339.90055098998045 field_type=dipole dipole="0.000000 0.000000 0.000000" charge=0
C	-1.343921	-0.128187	-0.406601	6
C	0.146629	-0.279457	-0.254711	6
N	0.799659	-1.402657	-0.195321	7
N	0.048639	-2.526987	-0.238361	7
C	0.954599	0.960193	-0.195671	6
C	0.577429	2.120933	0.692409	6
O	1.592578	1.192153	1.076159	8
H	-1.612251	0.907963	-0.628561	1
H	-1.834731	-0.430117	0.522909	1
H	-1.705171	-0.755387	-1.226471	1
H	0.666379	-3.330257	-0.384771	1
H	-0.375801	-2.701837	0.676589	1
H	1.543348	1.167183	-1.081061	1
H	-0.352241	2.093183	1.245719	1
H	0.894859	3.113282	0.397749	1
Es	0.146602	-0.279393	-0.254656	99
Es	1.439638	1.008413	0.568871	99
Es	0.430031	-3.019476	-0.318059	99
Es	-1.343857	-0.128186	-0.406578	99
Es	-0.188593	-2.493494	-0.464315	99
Es	-1.577035	-0.549992	-0.944148	99
Es	-0.050157	2.097026	1.070887	99
Es	0.793423	2.802788	0.499222	99
Es	-1.526597	0.585908	-0.545699	99
Es	0.049108	-2.526952	-0.237920	99
Es	1.219668	1.626167	1.022378	99
Es	0.504469	-0.909991	-0.509455	99
Es	0.798994	-1.402649	-0.195347	99
Es	0.547048	0.345347	-0.222331	99
Es	-1.650077	-0.330647	0.201283	99
Es	1.743458	1.302606	1.001641	99
Es	-0.184447	-2.603778	0.303167	99
Es	1.592334	1.192210	1.075995	99
Es	0.954699	0.960246	-0.195379	99
Es	1.350050	1.090002	-0.781538	99
Es	0.577635	2.120718	0.692463	99
Es	0.478970	-0.917606	0.080479	99
Es	-0.600226	-0.206481	-0.317742	99
Es	1.161946	-1.421113	-0.195522	99
Es	1.567563	1.001994	1.303839	99
Es	0.420202	-1.967414	-0.209128	99
Es	0.578501	1.618384	0.085565	99
42
Properties=species:S:1:pos:R:3:Z:I:1 energy=-339.90055098998045 field_type=dipole dipole="0.000000 0.000000 0.000000" charge=0
C	-1.343921	-0.128187	-0.406601	6
C	0.146629	-0.279457	-0.254711	6
N	0.799659	-1.402657	-0.195321	7
N	0.048639	-2.526987	-0.238361	7
C	0.954599	0.960193	-0.195671	6
C	0.577429	2.120933	0.692409	6
O	1.592578	1.192153	1.076159	8
H	-1.612251	0.907963	-0.628561	1
H	-1.834731	-0.430117	0.522909	1
H	-1.705171	-0.755387	-1.226471	1
H	0.666379	-3.330257	-0.384771	1
H	-0.375801	-2.701837	0.676589	1
H	1.543348	1.167183	-1.081061	1
H	-0.352241	2.093183	1.245719	1
H	0.894859	3.113282	0.397749	1
Es	1.161354	-1.420775	-0.195557	99
Es	0.420576	-1.967420	-0.209798	99
Es	0.547342	0.344920	-0.222250	99
Es	0.146603	-0.279394	-0.254656	99
Es	1.441083	1.009692	0.568098	99
Es	0.049136	-2.526949	-0.237922	99
Es	-0.049892	2.096814	1.070686	99
Es	0.578453	1.618615	0.085533	99
Es	-1.343857	-0.128187	-0.406577	99
Es	-1.649835	-0.330493	0.200516	99
Es	-1.577096	-0.549911	-0.943945	99
Es	0.429897	-3.019580	-0.318262	99
Es	-0.600177	-0.206401	-0.317394	99
Es	0.577638	2.120723	0.692463	99
Es	-0.188966	-2.493810	-0.463386	99
Es	-1.526914	0.585919	-0.545375	99
Es	0.793171	2.802997	0.499465	99
Es	1.741846	1.302210	1.002354	99
Es	1.592191	1.192176	1.075946	99
Es	0.954696	0.960246	-0.195379	99
Es	1.219538	1.625979	1.022743	99
Es	0.798988	-1.402622	-0.195351	99
Es	0.504421	-0.910075	-0.509384	99
Es	1.567840	1.001297	1.303334	99
Es	1.350051	1.089929	-0.781312	99
Es	-0.183597	-2.603671	0.303017	99
Es	0.478857	-0.917595	0.080367	99
42
Properties=species:S:1:pos:R:3:Z:I:1 energy=-339.90055098998045 field_type=dipole dipole="0.000000 0.000000 0.000000" charge=0
C	-1.343921	-0.128187	-0.406601	6
C	0.146629	-0.279457	-0.254711	6
N	0.799659	-1.402657	-0.195321	7
N	0.048639	-2.526987	-0.238361	7
C	0.954599	0.960193	-0.195671	6
C	0.577429	2.120933	0.692409	6
O	1.592578	1.192153	1.076159	8
H	-1.612251	0.907963	-0.628561	1
H	-1.834731	-0.430117	0.522909	1
H	-1.705171	-0.755387	-1.226471	1
H	0.666379	-3.330257	-0.384771	1
H	-0.375801	-2.701837	0.676589	1
H	1.543348	1.167183	-1.081061	1
H	-0.352241	2.093183	1.245719	1
H	0.894859	3.113282	0.397749	1
Es	1.350118	1.089943	-0.781041	99
Es	0.577637	2.120719	0.692465	99
Es	1.439715	1.009299	0.568538	99
Es	-0.187570	-2.493779	-0.462999	99
Es	0.799004	-1.402601	-0.195351	99
Es	-1.649604	-0.330422	0.200089	99
Es	1.219958	1.626299	1.022558	99
Es	0.420985	-1.967452	-0.210057	99
Es	-1.577224	-0.549771	-0.943673	99
Es	-0.184603	-2.603660	0.302988	99
Es	-1.343857	-0.128186	-0.406578	99
Es	0.793198	2.803016	0.499383	99
Es	1.592976	1.192874	1.075430	99
Es	0.146603	-0.279394	-0.254655	99
Es	0.954702	0.960250	-0.195374	99
Es	0.504190	-0.910196	-0.509265	99
Es	0.547476	0.344885	-0.222382	99
Es	0.049132	-2.526963	-0.237894	99
Es	1.572003	1.002342	1.303808	99
Es	0.429764	-3.019747	-0.318367	99
Es	0.578530	1.618757	0.085714	99
Es	1.737562	1.300541	1.001882	99
Es	-0.050005	2.096783	1.070693	99
Es	1.161008	-1.420479	-0.195745	99
Es	-0.599991	-0.206746	-0.317335	99
Es	0.478796	-0.917614	0.080280	99
Es	-1.527156	0.585937	-0.545137	99
42
Properties=species:S:1:pos:R:3:Z:I:1 energy=-339.90055098998045 field_type=dipole dipole="0.000000 0.000000 0.000000" charge=0
C	-1.343921	-0.128187	-0.406601	6
C	0.146629	-0.279457	-0.254711	6
N	0.799659	-1.402657	-0.195321	7
N	0.048639	-2.526987	-0.238361	7
C	0.954599	0.960193	-0.195671	6
C	0.577429	2.120933	0.692409	6
O	1.592578	1.192153	1.076159	8
H	-1.612251	0.907963	-0.628561	1
H	-1.834731	-0.430117	0.522909	1
H	-1.705171	-0.755387	-1.226471	1
H	0.666379	-3.330257	-0.384771	1
H	-0.375801	-2.701837	0.676589	1
H	1.543348	1.167183	-1.081061	1
H	-0.352241	2.093183	1.245719	1
H	0.894859	3.113282	0.397749	1
Es	-0.599939	-0.206790	-0.317435	99
Es	1.734891	1.300368	1.001672	99
Es	-1.577334	-0.549676	-0.943532	99
Es	-0.049910	2.096745	1.070663	99
Es	0.504230	-0.910168	-0.509116	99
Es	0.577636	2.120719	0.692462	99
Es	1.219783	1.626021	1.022458	99
Es	1.349936	1.089917	-0.780793	99
Es	-0.187104	-2.493936	-0.462572	99
Es	0.478802	-0.917635	0.080352	99
Es	0.954693	0.960249	-0.195382	99
Es	0.799004	-1.402601	-0.195351	99
Es	0.429762	-3.019830	-0.318262	99
Es	1.441303	1.009501	0.567997	99
Es	-0.184670	-2.603785	0.302350	99
Es	0.547652	0.344674	-0.222327	99
Es	1.160832	-1.420456	-0.195846	99
Es	0.049128	-2.526965	-0.237895	99
Es	0.420725	-1.967129	-0.210104	99
Es	0.146603	-0.279393	-0.254657	99
Es	0.578467	1.619092	0.085860	99
Es	-1.527259	0.585951	-0.544972	99
Es	-1.649460	-0.330384	0.199873	99
Es	-1.343857	-0.128187	-0.406576	99
Es	0.793140	2.803074	0.499432	99
Es	1.592305	1.192256	1.075936	99
Es	1.573988	1.003003	1.303739	99
42
Properties=species:S:1:pos:R:3:Z:I:1 energy=-339.90055098998045 field_type=dipole dipole="0.000000 0.000000 0.000000" charge=0
C	-1.343921	-0.128187	-0.406601	6
C	0.146629	-0.279457	-0.254711	6
N	0.799659	-1.402657	-0.195321	7
N	0.048639	-2.526987	-0.238361	7
C	0.954599	0.960193	-0.195671	6
C	0.577429	2.120933	0.692409	6
O	1.592578	1.192153	1.076159	8
H	-1.612251	0.907963	-0.628561	1
H	-1.834731	-0.430117	0.522909	1
H	-1.705171	-0.755387	-1.226471	1
H	0.666379	-3.330257	-0.384771	1
H	-0.375801	-2.701837	0.676589	1
H	1.543348	1.167183	-1.081061	1
H	-0.352241	2.093183	1.245719	1
H	0.894859	3.113282	0.397749	1
Es	1.440569	1.009204	0.568262	99
Es	-0.599974	-0.206729	-0.317081	99
Es	0.792997	2.803225	0.499553	99
Es	1.160505	-1.420145	-0.195860	99
Es	0.798981	-1.402619	-0.195350	99
Es	1.575916	1.003593	1.303850	99
Es	-1.527468	0.585977	-0.544723	99
Es	0.146603	-0.279393	-0.254656	99
Es	0.420914	-1.967007	-0.210484	99
Es	0.504044	-0.910298	-0.509125	99
Es	0.049028	-2.526967	-0.237957	99
Es	1.733297	1.299725	1.001498	99
Es	0.429786	-3.019875	-0.318184	99
Es	0.954697	0.960249	-0.195377	99
Es	-0.049838	2.096577	1.070488	99
Es	1.219688	1.626002	1.022389	99
Es	-0.185305	-2.603820	0.302154	99
Es	-0.185902	-2.494140	-0.462012	99
Es	-1.343858	-0.128186	-0.406578	99
Es	1.592665	1.192621	1.075625	99
Es	-1.649349	-0.330346	0.199343	99
Es	0.578537	1.619172	0.086016	99
Es	0.577636	2.120720	0.692462	99
Es	1.349935	1.089902	-0.780770	99
Es	-1.577189	-0.549645	-0.943510	99
Es	0.478636	-0.917660	0.080270	99
Es	0.547794	0.344496	-0.222269	99
42
Properties=species:S:1:pos:R:3:Z:I:1 energy=-339.90055098998045 field_type=dipole dipole="0.000000 0.000000 0.000000" charge=0
C	-1.343921	-0.128187	-0.406601	6
C	0.146629	-0.279457	-0.254711	6
N	0.799659	-1.402657	-0.195321	7
N	0.048639	-2.526987	-0.238361	7
C	0.954599	0.960193	-0.195671	6
C	0.577429	2.120933	0.692409	6
O	1.592578	1.192153	1.076159	8
H	-1.612251	0.907963	-0.628561	1
H	-1.834731	-0.430117	0.522909	1
H	-1.705171	-0.755387	-1.226471	1
H	0.666379	-3.330257	-0.384771	1
H	-0.375801	-2.701837	0.676589	1
H	1.543348	1.167183	-1.081061	1
H	-0.352241	2.093183	1.245719	1
H	0.894859	3.113282	0.397749	1
Es	-0.599873	-0.206946	-0.317131	99
Es	1.160473	-1.420009	-0.195989	99
Es	0.798990	-1.402643	-0.195347	99
Es	-1.343857	-0.128186	-0.406578	99
Es	0.478735	-0.917679	0.080198	99
Es	0.577635	2.120720	0.692461	99
Es	1.578145	1.003746	1.303617	99
Es	-0.184873	-2.603787	0.301966	99
Es	-1.649068	-0.330210	0.199126	99
Es	1.349906	1.089790	-0.780562	99
Es	1.729870	1.298240	1.002368	99
Es	0.793114	2.803161	0.499454	99
Es	0.146603	-0.279394	-0.254652	99
Es	0.049151	-2.526960	-0.237884	99
Es	1.219692	1.625989	1.022506	99
Es	0.954698	0.960252	-0.195373	99
Es	0.578631	1.619408	0.086043	99
Es	0.503850	-0.910330	-0.509015	99
Es	0.420802	-1.966873	-0.210766	99
Es	0.429594	-3.020023	-0.318443	99
Es	-1.577416	-0.549672	-0.943294	99
Es	-1.527598	0.585977	-0.544564	99
Es	1.592813	1.193120	1.075079	99
Es	1.441454	1.010027	0.567712	99
Es	-0.186022	-2.494230	-0.461351	99
Es	-0.049956	2.096647	1.070584	99
Es	0.547854	0.344499	-0.222192	99
