42
Properties=species:S:1:pos:R:3:Z:I:1 energy=-339.9892982315954 field_type=dipole dipole="0.000000 0.000000 0.000000" charge=0
C	-2.622223	-0.008117	0.865512	6
C	-1.364113	-0.719217	0.475112	6
N	-0.319933	-0.052297	0.105672	7
N	0.759166	-0.814047	-0.221478	7
C	1.951567	-0.269317	-0.633438	6
C	2.020247	1.232473	-0.708398	6
O	2.902897	-0.990167	-0.931848	8
H	-2.872793	-0.273997	1.895462	1
H	-3.432593	-0.339187	0.211412	1
H	-2.502423	1.074843	0.783922	1
H	-1.383503	-1.822597	0.522532	1
H	0.718257	-1.826447	-0.176518	1
H	1.354467	1.596223	-1.495018	1
H	3.044507	1.536743	-0.945978	1
H	1.746467	1.675103	0.253052	1
Es	2.507401	-0.753328	-1.068121	99
Es	-1.370617	-1.473094	0.505134	99
Es	2.659305	-0.740650	-0.595229	99
Es	-1.986533	-0.365248	0.667729	99
Es	1.833476	1.516137	-0.065480	99
Es	2.020226	1.232402	-0.708392	99
Es	1.571443	1.460251	-1.231355	99
Es	2.705900	1.431855	-0.868639	99
Es	-0.680284	-0.348104	0.542940	99
Es	-0.862514	-0.368085	-0.010677	99
Es	2.902579	-0.989957	-0.931760	99
Es	1.968959	0.481078	-0.663201	99
Es	2.826463	-1.299151	-0.899078	99
Es	-1.364121	-0.719213	0.475109	99
Es	3.151955	-0.827524	-1.017111	99
Es	0.216348	-0.463142	-0.075291	99
Es	1.951394	-0.269355	-0.633379	99
Es	0.758986	-0.813926	-0.222037	99
Es	-0.277230	0.309322	0.078037	99
Es	1.150352	-0.592634	-0.536416	99
Es	-2.540678	0.715689	0.810422	99
Es	-2.622174	-0.008173	0.865497	99
Es	-3.159152	-0.238315	0.423332	99
Es	0.710776	-1.414035	-0.214423	99
Es	0.948980	-0.724870	-0.059219	99
Es	-0.319924	-0.052949	0.105693	99
Es	-2.782453	-0.194513	1.555769	99
42
Properties=species:S:1:pos:R:3:Z:I:1 energy=-339.9892982315954 field_type=dipole dipole="0.000000 0.000000 0.000000" charge=0
C	-2.622223	-0.008117	0.865512	6
C	-1.364113	-0.719217	0.475112	6
N	-0.319933	-0.052297	0.105672	7
N	0.759166	-0.814047	-0.221478	7
C	1.951567	-0.269317	-0.633438	6
C	2.020247	1.232473	-0.708398	6
O	2.902897	-0.990167	-0.931848	8
H	-2.872793	-0.273997	1.895462	1
H	-3.432593	-0.339187	0.211412	1
H	-2.502423	1.074843	0.783922	1
H	-1.383503	-1.822597	0.522532	1
H	0.718257	-1.826447	-0.176518	1
H	1.354467	1.596223	-1.495018	1
H	3.044507	1.536743	-0.945978	1
H	1.746467	1.675103	0.253052	1
Es	-0.863697	-0.366955	-0.012951	99
Es	-1.364124	-0.719216	0.475118	99
Es	1.951394	-0.269355	-0.633388	99
Es	1.967247	0.483116	-0.662911	99
Es	0.720053	-1.416970	-0.192682	99
Es	1.261422	-0.562651	-0.405412	99
Es	0.826442	-0.755040	-0.228982	99
Es	-0.319913	-0.052956	0.105691	99
Es	-2.783544	-0.192641	1.555527	99
Es	-1.369896	-1.471257	0.504895	99
Es	1.571118	1.457999	-1.229229	99
Es	-2.622175	-0.008173	0.865499	99
Es	2.902704	-0.990044	-0.931778	99
Es	2.658819	-0.746937	-0.594966	99
Es	2.709654	1.432648	-0.870045	99
Es	2.810208	-1.274166	-0.894549	99
Es	-2.542016	0.712697	0.810852	99
Es	0.222805	-0.457065	-0.059895	99
Es	-0.680119	-0.346457	0.545101	99
Es	3.174954	-0.841496	-1.025508	99
Es	0.758947	-0.813944	-0.221963	99
Es	-1.984995	-0.365874	0.667542	99
Es	-3.159844	-0.236695	0.423967	99
Es	-0.279906	0.301786	0.079321	99
Es	1.831611	1.514823	-0.066041	99
Es	2.501489	-0.757109	-1.064966	99
Es	2.020225	1.232400	-0.708392	99
42
Properties=species:S:1:pos:R:3:Z:I:1 energy=-339.9892982315954 field_type=dipole dipole="0.000000 0.000000 0.000000" charge=0
C	-2.622223	-0.008117	0.865512	6
C	-1.364113	-0.719217	0.475112	6
N	-0.319933	-0.052297	0.105672	7
N	0.759166	-0.814047	-0.221478	7
C	1.951567	-0.269317	-0.633438	6
C	2.020247	1.232473	-0.708398	6
O	2.902897	-0.990167	-0.931848	8
H	-2.872793	-0.273997	1.895462	1
H	-3.432593	-0.339187	0.211412	1
H	-2.502423	1.074843	0.783922	1
H	-1.383503	-1.822597	0.522532	1
H	0.718257	-1.826447	-0.176518	1
H	1.354467	1.596223	-1.495018	1
H	3.044507	1.536743	-0.945978	1
H	1.746467	1.675103	0.253052	1
Es	0.720827	-1.415520	-0.190070	99
Es	-2.543181	0.711285	0.811473	99
Es	2.656413	-0.748213	-0.596306	99
Es	2.020224	1.232400	-0.708392	99
Es	-0.281788	0.297357	0.080265	99
Es	0.823407	-0.755144	-0.237853	99
Es	-0.680146	-0.345961	0.545564	99
Es	-3.159948	-0.235794	0.424793	99
Es	-1.369356	-1.470211	0.504729	99
Es	1.571535	1.456416	-1.227626	99
Es	-2.622173	-0.008172	0.865499	99
Es	0.759090	-0.813956	-0.221410	99
Es	2.500673	-0.760897	-1.063726	99
Es	-0.319921	-0.052957	0.105692	99
Es	-1.984026	-0.366211	0.667167	99
Es	1.966421	0.484070	-0.663019	99
Es	1.951394	-0.269354	-0.633374	99
Es	2.803472	-1.258286	-0.891195	99
Es	1.263476	-0.563090	-0.401072	99
Es	1.830308	1.514476	-0.066666	99
Es	-2.784123	-0.192037	1.554754	99
Es	3.185328	-0.851953	-1.028851	99
Es	-1.364125	-0.719215	0.475114	99
Es	0.225106	-0.455218	-0.059387	99
Es	-0.864038	-0.366366	-0.013501	99
Es	2.711481	1.433056	-0.871004	99
Es	2.902535	-0.990035	-0.931740	99
42
Properties=species:S:1:pos:R:3:Z:I:1 energy=-339.9892982315954 field_type=dipole dipole="0.000000 0.000000 0.000000" charge=0
C	-2.622223	-0.008117	0.865512	6
C	-1.364113	-0.719217	0.475112	6
N	-0.319933	-0.052297	0.105672	7
N	0.759166	-0.814047	-0.221478	7
C	1.951567	-0.269317	-0.633438	6
C	2.020247	1.232473	-0.708398	6
O	2.902897	-0.990167	-0.931848	8
H	-2.872793	-0.273997	1.895462	1
H	-3.432593	-0.339187	0.211412	1
H	-2.502423	1.074843	0.783922	1
H	-1.383503	-1.822597	0.522532	1
H	0.718257	-1.826447	-0.176518	1
H	1.354467	1.596223	-1.495018	1
H	3.044507	1.536743	-0.945978	1
H	1.746467	1.675103	0.253052	1
Es	1.829077	1.514543	-0.067330	99
Es	-0.283178	0.295529	0.080755	99
Es	2.902657	-0.989940	-0.931771	99
Es	1.264884	-0.563412	-0.397929	99
Es	3.190739	-0.858577	-1.031297	99
Es	0.721417	-1.414315	-0.188181	99
Es	1.951393	-0.269354	-0.633378	99
Es	1.965702	0.484394	-0.663241	99
Es	1.572481	1.455189	-1.226122	99
Es	-3.159882	-0.235233	0.425466	99
Es	-2.543955	0.710334	0.811796	99
Es	2.799077	-1.248348	-0.890975	99
Es	2.499588	-0.761400	-1.060453	99
Es	-2.622174	-0.008172	0.865498	99
Es	-1.368912	-1.469604	0.504785	99
Es	2.656531	-0.750859	-0.597290	99
Es	-0.680236	-0.346002	0.545104	99
Es	0.758973	-0.813955	-0.221818	99
Es	-0.863897	-0.366585	-0.013168	99
Es	-1.364124	-0.719215	0.475122	99
Es	2.020224	1.232399	-0.708392	99
Es	0.821839	-0.755215	-0.242351	99
Es	-1.983442	-0.366439	0.666889	99
Es	-0.319909	-0.052983	0.105688	99
Es	0.225954	-0.454157	-0.060041	99
Es	2.712564	1.433471	-0.871705	99
Es	-2.784528	-0.191623	1.554195	99
42
Properties=species:S:1:pos:R:3:Z:I:1 energy=-339.9892982315954 field_type=dipole dipole="0.000000 0.000000 0.000000" charge=0
C	-2.622223	-0.008117	0.865512	6
C	-1.364113	-0.719217	0.475112	6
N	-0.319933	-0.052297	0.105672	7
N	0.759166	-0.814047	-0.221478	7
C	1.951567	-0.269317	-0.633438	6
C	2.020247	1.232473	-0.708398	6
O	2.902897	-0.990167	-0.931848	8
H	-2.872793	-0.273997	1.895462	1
H	-3.432593	-0.339187	0.211412	1
H	-2.502423	1.074843	0.783922	1
H	-1.383503	-1.822597	0.522532	1
H	0.718257	-1.826447	-0.176518	1
H	1.354467	1.596223	-1.495018	1
H	3.044507	1.536743	-0.945978	1
H	1.746467	1.675103	0.253052	1
Es	2.656833	-0.752864	-0.599046	99
Es	0.226640	-0.453392	-0.060189	99
Es	1.951393	-0.269354	-0.633381	99
Es	-2.784888	-0.191542	1.553465	99
Es	0.721405	-1.413425	-0.188213	99
Es	-1.983060	-0.366710	0.666756	99
Es	0.758919	-0.813650	-0.223261	99
Es	2.902655	-0.989916	-0.931774	99
Es	1.964892	0.484366	-0.663571	99
Es	-0.284211	0.293819	0.080587	99
Es	1.264803	-0.563817	-0.398849	99
Es	-0.319943	-0.052961	0.105699	99
Es	-1.368589	-1.469067	0.504639	99
Es	1.827976	1.514768	-0.068040	99
Es	1.573686	1.454285	-1.224654	99
Es	3.194172	-0.863020	-1.031645	99
Es	-3.159605	-0.234924	0.426124	99
Es	-0.863619	-0.366666	-0.012713	99
Es	2.713298	1.433822	-0.872224	99
Es	-0.680365	-0.345766	0.545133	99
Es	2.797503	-1.240841	-0.890023	99
Es	-2.544682	0.709960	0.812133	99
Es	0.822159	-0.755415	-0.240049	99
Es	-1.364127	-0.719216	0.475115	99
Es	2.020226	1.232400	-0.708392	99
Es	2.497570	-0.762233	-1.059268	99
Es	-2.622174	-0.008172	0.865498	99
42
Properties=species:S:1:pos:R:3:Z:I:1 energy=-339.9892982315954 field_type=dipole dipole="0.000000 0.000000 0.000000" charge=0
C	-2.622223	-0.008117	0.865512	6
C	-1.364113	-0.719217	0.475112	6
N	-0.319933	-0.052297	0.105672	7
N	0.759166	-0.814047	-0.221478	7
C	1.951567	-0.269317	-0.633438	6
C	2.020247	1.232473	-0.708398	6
O	2.902897	-0.990167	-0.931848	8
H	-2.872793	-0.273997	1.895462	1
H	-3.432593	-0.339187	0.211412	1
H	-2.502423	1.074843	0.783922	1
H	-1.383503	-1.822597	0.522532	1
H	0.718257	-1.826447	-0.176518	1
H	1.354467	1.596223	-1.495018	1
H	3.044507	1.536743	-0.945978	1
H	1.746467	1.675103	0.253052	1
Es	0.721845	-1.412621	-0.186910	99
Es	3.196129	-0.865696	-1.032760	99
Es	2.713704	1.434229	-0.872882	99
Es	2.798267	-1.233812	-0.887942	99
Es	0.227327	-0.452409	-0.060347	99
Es	1.964249	0.484173	-0.663707	99
Es	-1.368303	-1.468699	0.504565	99
Es	-2.785204	-0.191315	1.552886	99
Es	-3.159296	-0.234816	0.426712	99
Es	-1.982694	-0.366888	0.666753	99
Es	2.020225	1.232401	-0.708393	99
Es	-0.863477	-0.366939	-0.012264	99
Es	-0.285196	0.292901	0.081288	99
Es	2.496065	-0.766064	-1.059032	99
Es	-1.364127	-0.719216	0.475115	99
Es	0.759081	-0.813958	-0.221439	99
Es	2.655868	-0.753116	-0.600277	99
Es	-2.545356	0.709590	0.812215	99
Es	1.265410	-0.564047	-0.397569	99
Es	2.902480	-0.990066	-0.931723	99
Es	1.575094	1.453234	-1.223172	99
Es	1.951390	-0.269354	-0.633379	99
Es	-0.319918	-0.052984	0.105692	99
Es	0.821086	-0.755158	-0.244548	99
Es	1.826863	1.515372	-0.068759	99
Es	-0.680471	-0.346101	0.544237	99
Es	-2.622174	-0.008172	0.865497	99
42
Properties=species:S:1:pos:R:3:Z:I:1 energy=-339.9892982315954 field_type=dipole dipole="0.000000 0.000000 0.000000" charge=0
C	-2.622223	-0.008117	0.865512	6
C	-1.364113	-0.719217	0.475112	6
N	-0.319933	-0.052297	0.105672	7
N	0.759166	-0.814047	-0.221478	7
C	1.951567	-0.269317	-0.633438	6
C	2.020247	1.232473	-0.708398	6
O	2.902897	-0.990167	-0.931848	8
H	-2.872793	-0.273997	1.895462	1
H	-3.432593	-0.339187	0.211412	1
H	-2.502423	1.074843	0.783922	1
H	-1.383503	-1.822597	0.522532	1
H	0.718257	-1.826447	-0.176518	1
H	1.354467	1.596223	-1.495018	1
H	3.044507	1.536743	-0.945978	1
H	1.746467	1.675103	0.253052	1
Es	2.795156	-1.231026	-0.887634	99
Es	0.758951	-0.813948	-0.221921	99
Es	3.198055	-0.869652	-1.033121	99
Es	-3.159402	-0.234681	0.427131	99
Es	-0.863172	-0.367187	-0.011750	99
Es	2.020226	1.232401	-0.708393	99
Es	1.951391	-0.269354	-0.633378	99
Es	-2.622174	-0.008172	0.865498	99
Es	2.902663	-0.989959	-0.931770	99
Es	1.963615	0.484143	-0.664002	99
Es	-0.286227	0.291916	0.081568	99
Es	-1.364127	-0.719216	0.475118	99
Es	-1.368083	-1.468331	0.504534	99
Es	-0.319918	-0.052990	0.105689	99
Es	1.825286	1.516310	-0.069387	99
Es	0.227832	-0.451444	-0.060869	99
Es	2.492536	-0.762262	-1.055310	99
Es	-2.785130	-0.191186	1.552438	99
Es	0.721979	-1.411864	-0.186528	99
Es	1.576961	1.451914	-1.221891	99
Es	-0.680560	-0.346425	0.543734	99
Es	-1.982438	-0.366877	0.666652	99
Es	0.821670	-0.755075	-0.242637	99
Es	1.265024	-0.564360	-0.399234	99
Es	2.660503	-0.755688	-0.603830	99
Es	-2.545808	0.709104	0.812491	99
Es	2.714053	1.434378	-0.873341	99
42
Properties=species:S:1:pos:R:3:Z:I:1 energy=-339.9892982315954 field_type=dipole dipole="0.000000 0.000000 0.000000" charge=0
C	-2.622223	-0.008117	0.865512	6
C	-1.364113	-0.719217	0.475112	6
N	-0.319933	-0.052297	0.105672	7
N	0.759166	-0.814047	-0.221478	7
C	1.951567	-0.269317	-0.633438	6
C	2.020247	1.232473	-0.708398	6
O	2.902897	-0.990167	-0.931848	8
H	-2.872793	-0.273997	1.895462	1
H	-3.432593	-0.339187	0.211412	1
H	-2.502423	1.074843	0.783922	1
H	-1.383503	-1.822597	0.522532	1
H	0.718257	-1.826447	-0.176518	1
H	1.354467	1.596223	-1.495018	1
H	3.044507	1.536743	-0.945978	1
H	1.746467	1.675103	0.253052	1
Es	-2.622173	-0.008172	0.865498	99
Es	-1.364127	-0.719216	0.475116	99
Es	2.714093	1.434545	-0.874020	99
Es	0.822098	-0.754950	-0.241373	99
Es	2.902655	-0.989980	-0.931766	99
Es	-1.982227	-0.366725	0.666555	99
Es	1.951391	-0.269354	-0.633375	99
Es	-0.680388	-0.346176	0.544089	99
Es	-0.863223	-0.367394	-0.011644	99
Es	1.264758	-0.564594	-0.400227	99
Es	-2.546192	0.708523	0.812499	99
Es	0.721487	-1.411518	-0.188105	99
Es	1.578760	1.450489	-1.220688	99
Es	2.680383	-0.768298	-0.617634	99
Es	-1.367981	-1.467986	0.504413	99
Es	-0.286718	0.290764	0.081366	99
Es	-2.786102	-0.191487	1.552779	99
Es	2.020227	1.232401	-0.708393	99
Es	3.196752	-0.869663	-1.038526	99
Es	2.796310	-1.227647	-0.888162	99
Es	1.963478	0.484473	-0.664653	99
Es	0.758957	-0.813948	-0.221910	99
Es	1.823648	1.517171	-0.069348	99
Es	-3.158383	-0.234169	0.427095	99
Es	2.472806	-0.752959	-1.035544	99
Es	0.228503	-0.450680	-0.059881	99
Es	-0.319926	-0.052982	0.105696	99
42
Properties=species:S:1:pos:R:3:Z:I:1 energy=-339.9892982315954 field_type=dipole dipole="0.000000 0.000000 0.000000" charge=0
C	-2.622223	-0.008117	0.865512	6
C	-1.364113	-0.719217	0.475112	6
N	-0.319933	-0.052297	0.105672	7
N	0.759166	-0.814047	-0.221478	7
C	1.951567	-0.269317	-0.633438	6
C	2.020247	1.232473	-0.708398	6
O	2.902897	-0.990167	-0.931848	8
H	-2.872793	-0.273997	1.895462	1
H	-3.432593	-0.339187	0.211412	1
H	-2.502423	1.074843	0.783922	1
H	-1.383503	-1.822597	0.522532	1
H	0.718257	-1.826447	-0.176518	1
H	1.354467	1.596223	-1.495018	1
H	3.044507	1.536743	-0.945978	1
H	1.746467	1.675103	0.253052	1
Es	1.951391	-0.269355	-0.633379	99
Es	1.264091	-0.564799	-0.402430	99
Es	2.902640	-0.989947	-0.931769	99
Es	-1.982156	-0.366535	0.666522	99
Es	2.020228	1.232398	-0.708390	99
Es	2.798547	-1.223744	-0.889427	99
Es	1.579550	1.449876	-1.220340	99
Es	-1.367979	-1.467743	0.504603	99
Es	-2.786303	-0.191397	1.553379	99
Es	-0.863453	-0.367118	-0.012503	99
Es	0.823232	-0.754910	-0.237533	99
Es	2.714124	1.434486	-0.874170	99
Es	1.822840	1.517553	-0.069245	99
Es	2.458223	-0.746401	-1.009667	99
Es	-0.319910	-0.053000	0.105690	99
Es	2.693917	-0.779810	-0.638686	99
Es	-2.622174	-0.008172	0.865498	99
Es	-0.286825	0.289525	0.081383	99
Es	1.963499	0.484724	-0.665058	99
Es	-3.158183	-0.233990	0.427001	99
Es	0.758886	-0.813834	-0.222630	99
Es	-0.680357	-0.346115	0.544761	99
Es	-1.364129	-0.719217	0.475111	99
Es	0.229063	-0.450078	-0.058894	99
Es	3.195574	-0.868624	-1.042017	99
Es	-2.546205	0.707954	0.812276	99
Es	0.720735	-1.411261	-0.190231	99
42
Properties=species:S:1:pos:R:3:Z:I:1 energy=-339.9892982315954 field_type=dipole dipole="0.000000 0.000000 0.000000" charge=0
C	-2.622223	-0.008117	0.865512	6
C	-1.364113	-0.719217	0.475112	6
N	-0.319933	-0.052297	0.105672	7
N	0.759166	-0.814047	-0.221478	7
C	1.951567	-0.269317	-0.633438	6
C	2.020247	1.232473	-0.708398	6
O	2.902897	-0.990167	-0.931848	8
H	-2.872793	-0.273997	1.895462	1
H	-3.432593	-0.339187	0.211412	1
H	-2.502423	1.074843	0.783922	1
H	-1.383503	-1.822597	0.522532	1
H	0.718257	-1.826447	-0.176518	1
H	1.354467	1.596223	-1.495018	1
H	3.044507	1.536743	-0.945978	1
H	1.746467	1.675103	0.253052	1
Es	-3.161718	-0.235142	0.427217	99
Es	1.828354	1.513143	-0.070741	99
Es	-2.546040	0.707469	0.813096	99
Es	3.202975	-0.866582	-1.019202	99
Es	1.963954	0.485011	-0.662988	99
Es	0.759196	-0.813931	-0.221135	99
Es	2.568625	-0.731585	-0.631446	99
Es	2.902608	-0.989952	-0.931742	99
Es	1.572985	1.454167	-1.222839	99
Es	-1.364128	-0.719216	0.475115	99
Es	-0.863735	-0.366921	-0.013084	99
Es	2.714785	1.434334	-0.872312	99
Es	2.800056	-1.221101	-0.889630	99
Es	-0.319908	-0.052998	0.105688	99
Es	2.020225	1.232402	-0.708390	99
Es	-2.783509	-0.190003	1.551300	99
Es	0.818750	-0.755569	-0.251080	99
Es	-0.286572	0.288757	0.082556	99
Es	-1.367800	-1.467498	0.504731	99
Es	-0.680503	-0.346001	0.544416	99
Es	0.724144	-1.410228	-0.180325	99
Es	2.574660	-0.799333	-1.039314	99
Es	-2.622174	-0.008173	0.865497	99
Es	-1.982109	-0.366531	0.666394	99
Es	1.267027	-0.564564	-0.393671	99
Es	1.951390	-0.269355	-0.633380	99
Es	0.227326	-0.450133	-0.064876	99
42
Properties=species:S:1:pos:R:3:Z:I:1 energy=-339.9892982315954 field_type=dipole dipole="0.000000 0.000000 0.000000" charge=0
C	-2.622223	-0.008117	0.865512	6
C	-1.364113	-0.719217	0.475112	6
N	-0.319933	-0.052297	0.105672	7
N	0.759166	-0.814047	-0.221478	7
C	1.951567	-0.269317	-0.633438	6
C	2.020247	1.232473	-0.708398	6
O	2.902897	-0.990167	-0.931848	8
H	-2.872793	-0.273997	1.895462	1
H	-3.432593	-0.339187	0.211412	1
H	-2.502423	1.074843	0.783922	1
H	-1.383503	-1.822597	0.522532	1
H	0.718257	-1.826447	-0.176518	1
H	1.354467	1.596223	-1.495018	1
H	3.044507	1.536743	-0.945978	1
H	1.746467	1.675103	0.253052	1
Es	2.714238	1.434358	-0.874405	99
Es	2.701699	-0.788807	-0.666379	99
Es	1.580329	1.449357	-1.219766	99
Es	2.020222	1.232401	-0.708398	99
Es	1.951390	-0.269355	-0.633381	99
Es	2.801487	-1.218847	-0.889540	99
Es	-1.982045	-0.366304	0.666540	99
Es	0.229536	-0.449391	-0.058374	99
Es	-0.287091	0.287782	0.081446	99
Es	-0.863671	-0.366796	-0.013012	99
Es	2.902661	-0.989873	-0.931776	99
Es	-3.157646	-0.233590	0.426603	99
Es	-1.364127	-0.719216	0.475117	99
Es	0.822876	-0.755022	-0.238012	99
Es	3.194926	-0.866984	-1.044190	99
Es	0.758922	-0.813698	-0.223076	99
Es	-2.546341	0.707001	0.812236	99
Es	1.264154	-0.564919	-0.402425	99
Es	0.720896	-1.410810	-0.189993	99
Es	-2.786995	-0.191443	1.553937	99
Es	-1.367852	-1.467301	0.504470	99
Es	1.963437	0.485272	-0.665755	99
Es	-0.319866	-0.052904	0.105666	99
Es	-0.680283	-0.345892	0.545435	99
Es	1.822063	1.517616	-0.069015	99
Es	2.448116	-0.743991	-0.979599	99
Es	-2.622173	-0.008175	0.865503	99
42
Properties=species:S:1:pos:R:3:Z:I:1 energy=-339.9892982315954 field_type=dipole dipole="0.000000 0.000000 0.000000" charge=0
C	-2.622223	-0.008117	0.865512	6
C	-1.364113	-0.719217	0.475112	6
N	-0.319933	-0.052297	0.105672	7
N	0.759166	-0.814047	-0.221478	7
C	1.951567	-0.269317	-0.633438	6
C	2.020247	1.232473	-0.708398	6
O	2.902897	-0.990167	-0.931848	8
H	-2.872793	-0.273997	1.895462	1
H	-3.432593	-0.339187	0.211412	1
H	-2.502423	1.074843	0.783922	1
H	-1.383503	-1.822597	0.522532	1
H	0.718257	-1.826447	-0.176518	1
H	1.354467	1.596223	-1.495018	1
H	3.044507	1.536743	-0.945978	1
H	1.746467	1.675103	0.253052	1
Es	0.229599	-0.448912	-0.058897	99
Es	2.902679	-0.990009	-0.931792	99
Es	-1.367780	-1.467122	0.504478	99
Es	-0.863661	-0.367034	-0.012921	99
Es	2.714338	1.434427	-0.874459	99
Es	-0.287398	0.287386	0.081540	99
Es	-0.319914	-0.053003	0.105692	99
Es	-1.981979	-0.366245	0.666429	99
Es	1.821667	1.517743	-0.069282	99
Es	1.263891	-0.565057	-0.403349	99
Es	2.702558	-0.790617	-0.672484	99
Es	-2.786939	-0.191479	1.553825	99
Es	2.447072	-0.742680	-0.973414	99
Es	-2.622175	-0.008172	0.865498	99
Es	1.580787	1.449080	-1.219381	99
Es	-2.546475	0.706762	0.812408	99
Es	1.963286	0.485280	-0.665707	99
Es	-0.680213	-0.345912	0.545342	99
Es	0.720939	-1.410541	-0.189945	99
Es	0.823250	-0.754698	-0.238035	99
Es	0.758982	-0.813956	-0.221794	99
Es	-1.364127	-0.719216	0.475117	99
Es	-3.157721	-0.233519	0.426674	99
Es	3.195556	-0.868440	-1.044150	99
Es	2.801025	-1.216642	-0.889765	99
Es	2.020227	1.232400	-0.708389	99
Es	1.951389	-0.269356	-0.633382	99
42
Properties=species:S:1:pos:R:3:Z:I:1 energy=-339.9892982315954 field_type=dipole dipole="0.000000 0.000000 0.000000" charge=0
C	-2.622223	-0.008117	0.865512	6
C	-1.364113	-0.719217	0.475112	6
N	-0.319933	-0.052297	0.105672	7
N	0.759166	-0.814047	-0.221478	7
C	1.951567	-0.269317	-0.633438	6
C	2.020247	1.232473	-0.708398	6
O	2.902897	-0.990167	-0.931848	8
H	-2.872793	-0.273997	1.895462	1
H	-3.432593	-0.339187	0.211412	1
H	-2.502423	1.074843	0.783922	1
H	-1.383503	-1.822597	0.522532	1
H	0.718257	-1.826447	-0.176518	1
H	1.354467	1.596223	-1.495018	1
H	3.044507	1.536743	-0.945978	1
H	1.746467	1.675103	0.253052	1
Es	-0.863773	-0.366811	-0.013476	99
Es	2.902653	-0.989948	-0.931774	99
Es	2.704455	-0.794829	-0.686993	99
Es	0.229843	-0.448589	-0.058646	99
Es	1.963517	0.485654	-0.665668	99
Es	-1.367771	-1.466941	0.504618	99
Es	-2.622175	-0.008170	0.865498	99
Es	2.802371	-1.215513	-0.891109	99
Es	-1.981987	-0.366190	0.666429	99
Es	2.020227	1.232401	-0.708393	99
Es	2.714338	1.434212	-0.874560	99
Es	-3.157746	-0.233340	0.426401	99
Es	-2.546342	0.706408	0.812446	99
Es	1.951390	-0.269355	-0.633380	99
Es	-2.787050	-0.191466	1.554071	99
Es	3.194980	-0.866589	-1.044699	99
Es	0.822757	-0.754748	-0.239411	99
Es	-0.287437	0.286401	0.081400	99
Es	2.444403	-0.741546	-0.956953	99
Es	1.821963	1.517546	-0.068984	99
Es	0.758978	-0.813955	-0.221813	99
Es	0.720848	-1.410456	-0.190071	99
Es	1.580311	1.449144	-1.219709	99
Es	-0.319883	-0.052948	0.105677	99
Es	-1.364127	-0.719216	0.475119	99
Es	1.264355	-0.565038	-0.402112	99
Es	-0.680232	-0.345651	0.545947	99
42
Properties=species:S:1:pos:R:3:Z:I:1 energy=-339.9892982315954 field_type=dipole dipole="0.000000 0.000000 0.000000" charge=0
C	-2.622223	-0.008117	0.865512	6
C	-1.364113	-0.719217	0.475112	6
N	-0.319933	-0.052297	0.105672	7
N	0.759166	-0.814047	-0.221478	7
C	1.951567	-0.269317	-0.633438	6
C	2.020247	1.232473	-0.708398	6
O	2.902897	-0.990167	-0.931848	8
H	-2.872793	-0.273997	1.895462	1
H	-3.432593	-0.339187	0.211412	1
H	-2.502423	1.074843	0.783922	1
H	-1.383503	-1.822597	0.522532	1
H	0.718257	-1.826447	-0.176518	1
H	1.354467	1.596223	-1.495018	1
H	3.044507	1.536743	-0.945978	1
H	1.746467	1.675103	0.253052	1
Es	-0.319905	-0.052984	0.105686	99
Es	1.267468	-0.564747	-0.392656	99
Es	0.724479	-1.409495	-0.179405	99
Es	0.759134	-0.813955	-0.221303	99
Es	-0.286937	0.285881	0.082736	99
Es	-3.161886	-0.234838	0.426391	99
Es	2.714970	1.434000	-0.872317	99
Es	-0.680122	-0.345546	0.545740	99
Es	-1.982015	-0.366099	0.666515	99
Es	1.951390	-0.269355	-0.633379	99
Es	-2.783705	-0.189764	1.552178	99
Es	0.227957	-0.448599	-0.064763	99
Es	3.203300	-0.864299	-1.018373	99
Es	2.804008	-1.213619	-0.890214	99
Es	-2.545940	0.706009	0.813055	99
Es	2.525029	-0.730580	-0.676314	99
Es	-1.367785	-1.466727	0.504712	99
Es	2.020224	1.232399	-0.708392	99
Es	1.828471	1.512442	-0.070157	99
Es	-0.864340	-0.366813	-0.014492	99
Es	2.613754	-0.810180	-0.994682	99
Es	-1.364128	-0.719216	0.475114	99
Es	0.818094	-0.755679	-0.253132	99
Es	2.902650	-0.989926	-0.931773	99
Es	1.572269	1.454021	-1.223212	99
Es	-2.622173	-0.008172	0.865498	99
Es	1.964604	0.486311	-0.663206	99
