39
Properties=species:S:1:pos:R:3:Z:I:1 energy=-338.75825939107335 field_type=dipole dipole="0.000000 0.000000 0.000000" charge=0
C	-2.152756	1.444638	0.687969	6
C	-1.312026	0.351748	0.108949	6
N	-0.024806	0.370608	0.228469	7
O	0.502444	-0.767062	-0.406321	8
C	1.929824	-0.738332	-0.291511	6
C	2.509654	-1.922722	-0.936371	6
N	2.986363	-2.853842	-1.442061	7
H	-2.868836	1.006908	1.388069	1
H	-2.705646	1.930718	-0.119861	1
H	-1.535066	2.181918	1.206379	1
H	-1.840306	-0.459282	-0.422971	1
H	2.203344	-0.717312	0.769389	1
H	2.307814	0.172018	-0.770131	1
Es	-0.552391	0.511185	-0.072627	99
Es	-1.312036	0.351775	0.108967	99
Es	-0.025158	0.370191	0.228190	99
Es	2.225087	-1.371181	-0.637089	99
Es	2.126830	-0.742847	0.407927	99
Es	-2.152726	1.444570	0.687930	99
Es	0.289267	-0.272576	-0.129744	99
Es	3.044400	-2.313645	-1.121269	99
Es	0.433848	-0.730772	-0.705107	99
Es	-2.627135	1.140002	1.151634	99
Es	2.649908	-2.345550	-1.483637	99
Es	-1.738895	1.936576	1.034015	99
Es	1.059657	-0.740762	-0.352006	99
Es	-1.718690	0.894091	0.397852	99
Es	1.929653	-0.738525	-0.291631	99
Es	2.986179	-2.853476	-1.441862	99
Es	2.196942	-0.148109	-0.621317	99
Es	-1.666855	-0.189702	-0.246146	99
Es	0.400905	-1.005757	-0.239131	99
Es	2.509508	-1.922425	-0.936192	99
Es	-0.594232	0.212269	0.427460	99
Es	2.611636	-2.615174	-1.021858	99
Es	0.222721	0.607925	0.390713	99
Es	0.502676	-0.766797	-0.406139	99
Es	-2.517397	1.759324	0.139949	99
Es	3.138653	-3.146613	-1.600872	99
39
Properties=species:S:1:pos:R:3:Z:I:1 energy=-338.75825939107335 field_type=dipole dipole="0.000000 0.000000 0.000000" charge=0
C	-2.152756	1.444638	0.687969	6
C	-1.312026	0.351748	0.108949	6
N	-0.024806	0.370608	0.228469	7
O	0.502444	-0.767062	-0.406321	8
C	1.929824	-0.738332	-0.291511	6
C	2.509654	-1.922722	-0.936371	6
N	2.986363	-2.853842	-1.442061	7
H	-2.868836	1.006908	1.388069	1
H	-2.705646	1.930718	-0.119861	1
H	-1.535066	2.181918	1.206379	1
H	-1.840306	-0.459282	-0.422971	1
H	2.203344	-0.717312	0.769389	1
H	2.307814	0.172018	-0.770131	1
Es	2.722054	-2.317958	-1.478802	99
Es	-2.626828	1.142683	1.150000	99
Es	0.286395	-0.270691	-0.129769	99
Es	3.028332	-2.353484	-1.059933	99
Es	1.929650	-0.738524	-0.291638	99
Es	2.551595	-2.601625	-1.086919	99
Es	-0.594256	0.212877	0.424389	99
Es	-2.517551	1.759008	0.143218	99
Es	2.509487	-1.922424	-0.936209	99
Es	-0.025131	0.370162	0.228175	99
Es	3.146829	-3.147458	-1.600622	99
Es	-1.717660	0.892255	0.396677	99
Es	-0.552633	0.508901	-0.070810	99
Es	2.986191	-2.853495	-1.441868	99
Es	1.063693	-0.744596	-0.354280	99
Es	-1.312051	0.351778	0.108965	99
Es	-2.152726	1.444570	0.687931	99
Es	2.223747	-1.373538	-0.639283	99
Es	2.125970	-0.740807	0.405240	99
Es	0.430906	-0.738342	-0.696731	99
Es	-1.665376	-0.189359	-0.245751	99
Es	0.502595	-0.766900	-0.406184	99
Es	0.404022	-0.995746	-0.244713	99
Es	-1.741309	1.937384	1.034169	99
Es	2.195733	-0.149281	-0.618333	99
Es	0.220678	0.608610	0.391091	99
39
Properties=species:S:1:pos:R:3:Z:I:1 energy=-338.75825939107335 field_type=dipole dipole="0.000000 0.000000 0.000000" charge=0
C	-2.152756	1.444638	0.687969	6
C	-1.312026	0.351748	0.108949	6
N	-0.024806	0.370608	0.228469	7
O	0.502444	-0.767062	-0.406321	8
C	1.929824	-0.738332	-0.291511	6
C	2.509654	-1.922722	-0.936371	6
N	2.986363	-2.853842	-1.442061	7
H	-2.868836	1.006908	1.388069	1
H	-2.705646	1.930718	-0.119861	1
H	-1.535066	2.181918	1.206379	1
H	-1.840306	-0.459282	-0.422971	1
H	2.203344	-0.717312	0.769389	1
H	2.307814	0.172018	-0.770131	1
Es	0.502683	-0.766758	-0.406191	99
Es	-1.742607	1.938026	1.034201	99
Es	2.986304	-2.248823	-1.312444	99
Es	2.224713	-1.374854	-0.638789	99
Es	2.817543	-2.546671	-0.968084	99
Es	-0.025147	0.370158	0.228168	99
Es	-1.664465	-0.189133	-0.245586	99
Es	2.986177	-2.853472	-1.441860	99
Es	0.405452	-0.990544	-0.250170	99
Es	0.430706	-0.740425	-0.690404	99
Es	-1.717424	0.891299	0.396188	99
Es	2.194699	-0.150604	-0.616178	99
Es	-2.517104	1.758355	0.145135	99
Es	-2.152722	1.444571	0.687932	99
Es	3.151962	-3.147176	-1.599747	99
Es	2.493910	-2.477210	-1.347248	99
Es	0.283918	-0.270908	-0.129026	99
Es	-0.594243	0.213280	0.421809	99
Es	1.065439	-0.746999	-0.355692	99
Es	-2.626858	1.144100	1.148896	99
Es	2.125466	-0.739676	0.403442	99
Es	2.509490	-1.922416	-0.936203	99
Es	-0.552808	0.507989	-0.069778	99
Es	-1.312050	0.351776	0.108968	99
Es	1.929655	-0.738524	-0.291634	99
Es	0.219668	0.608639	0.392303	99
39
Properties=species:S:1:pos:R:3:Z:I:1 energy=-338.75825939107335 field_type=dipole dipole="0.000000 0.000000 0.000000" charge=0
C	-2.152756	1.444638	0.687969	6
C	-1.312026	0.351748	0.108949	6
N	-0.024806	0.370608	0.228469	7
O	0.502444	-0.767062	-0.406321	8
C	1.929824	-0.738332	-0.291511	6
C	2.509654	-1.922722	-0.936371	6
N	2.986363	-2.853842	-1.442061	7
H	-2.868836	1.006908	1.388069	1
H	-2.705646	1.930718	-0.119861	1
H	-1.535066	2.181918	1.206379	1
H	-1.840306	-0.459282	-0.422971	1
H	2.203344	-0.717312	0.769389	1
H	2.307814	0.172018	-0.770131	1
Es	-1.663689	-0.188751	-0.245421	99
Es	-1.717247	0.890717	0.395856	99
Es	-1.743765	1.938151	1.034169	99
Es	-0.025151	0.370142	0.228159	99
Es	2.224477	-1.375861	-0.639147	99
Es	2.986178	-2.853472	-1.441861	99
Es	1.066124	-0.750193	-0.355666	99
Es	2.788558	-2.553963	-0.990667	99
Es	-2.152726	1.444570	0.687931	99
Es	0.405282	-0.986865	-0.254777	99
Es	-1.312053	0.351776	0.108967	99
Es	0.502690	-0.766764	-0.406171	99
Es	0.218730	0.608493	0.391669	99
Es	0.282939	-0.270808	-0.129000	99
Es	0.431740	-0.740466	-0.685602	99
Es	2.500810	-2.465250	-1.363655	99
Es	-0.552857	0.507558	-0.069271	99
Es	3.154655	-3.146773	-1.599419	99
Es	1.929652	-0.738526	-0.291633	99
Es	2.125102	-0.738593	0.402014	99
Es	-2.516827	1.758066	0.146409	99
Es	-2.626728	1.145025	1.148123	99
Es	2.509474	-1.922416	-0.936205	99
Es	3.007264	-2.253307	-1.273473	99
Es	2.193948	-0.151878	-0.614961	99
Es	-0.594223	0.213386	0.421641	99
