49
Properties=species:S:1:pos:R:3:Z:I:1 energy=-326.3176136475543 field_type=dipole dipole="0.000000 0.000000 0.000000" charge=0
C	-2.542522	0.563538	-1.944252	6
C	-1.689902	-0.584582	-1.442402	6
O	-0.568712	-0.046162	-0.744452	8
C	0.257558	-1.085382	-0.204652	6
C	1.450798	-0.457852	0.528138	6
N	0.996618	0.302968	1.701168	7
C	2.102748	1.009618	2.328598	6
H	-3.408242	0.192118	-2.499662	1
H	-1.959572	1.221978	-2.596272	1
H	-2.895902	1.174468	-1.107332	1
H	-1.340512	-1.186692	-2.288762	1
H	-2.278622	-1.217872	-0.769632	1
H	0.626538	-1.712212	-1.024102	1
H	-0.328732	-1.707282	0.481128	1
H	1.978688	0.210188	-0.163562	1
H	2.136468	-1.251492	0.844668	1
H	0.295238	0.974268	1.377018	1
H	2.572018	1.719878	1.640458	1
H	2.861708	0.308898	2.691688	1
H	1.734338	1.571608	3.192218	1
Es	0.596360	0.720155	1.496382	99
Es	0.848645	-0.769729	0.162676	99
Es	-0.146104	-1.516411	0.264004	99
Es	0.996894	0.303345	1.700755	99
Es	1.450715	-0.457816	0.528228	99
Es	1.819043	-0.002219	0.046225	99
Es	0.849164	0.078279	1.934396	99
Es	1.919708	-1.004066	0.743638	99
Es	-1.448882	-1.006532	-2.026588	99
Es	1.851242	1.397212	2.916305	99
Es	-2.785565	0.972545	-1.373511	99
Es	-2.118702	-0.008870	-1.695345	99
Es	-2.145864	1.004410	-2.391205	99
Es	-0.568818	-0.046525	-0.744448	99
Es	-0.276356	-0.460987	-0.551531	99
Es	-0.397645	0.092991	-0.957635	99
Es	1.490423	0.623931	1.949346	99
Es	0.257459	-1.085196	-0.204735	99
Es	1.208646	-0.008680	1.178920	99
Es	-1.689740	-0.584469	-1.442301	99
Es	-0.982387	-0.281066	-0.999921	99
Es	-3.129965	0.301949	-2.321422	99
Es	2.623265	0.527110	2.569223	99
Es	-0.683709	0.108754	-0.500856	99
Es	2.102653	1.009556	2.328542	99
Es	-2.542518	0.563507	-1.944250	99
Es	2.432808	1.499245	1.849940	99
Es	-2.095439	-1.027159	-0.978611	99
Es	0.512881	-1.522275	-0.771777	99
49
Properties=species:S:1:pos:R:3:Z:I:1 energy=-326.3176136475543 field_type=dipole dipole="0.000000 0.000000 0.000000" charge=0
C	-2.542522	0.563538	-1.944252	6
C	-1.689902	-0.584582	-1.442402	6
O	-0.568712	-0.046162	-0.744452	8
C	0.257558	-1.085382	-0.204652	6
C	1.450798	-0.457852	0.528138	6
N	0.996618	0.302968	1.701168	7
C	2.102748	1.009618	2.328598	6
H	-3.408242	0.192118	-2.499662	1
H	-1.959572	1.221978	-2.596272	1
H	-2.895902	1.174468	-1.107332	1
H	-1.340512	-1.186692	-2.288762	1
H	-2.278622	-1.217872	-0.769632	1
H	0.626538	-1.712212	-1.024102	1
H	-0.328732	-1.707282	0.481128	1
H	1.978688	0.210188	-0.163562	1
H	2.136468	-1.251492	0.844668	1
H	0.295238	0.974268	1.377018	1
H	2.572018	1.719878	1.640458	1
H	2.861708	0.308898	2.691688	1
H	1.734338	1.571608	3.192218	1
Es	-1.448863	-1.006670	-2.026476	99
Es	-2.146098	1.004378	-2.390904	99
Es	-0.275133	-0.461019	-0.552672	99
Es	-3.130160	0.302205	-2.321580	99
Es	-2.785390	0.972539	-1.373585	99
Es	2.102656	1.009557	2.328546	99
Es	-2.095246	-1.027089	-0.978703	99
Es	1.818904	-0.002343	0.046438	99
Es	-0.683554	0.105534	-0.500818	99
Es	0.257458	-1.085193	-0.204735	99
Es	0.849868	0.079092	1.933713	99
Es	-2.542517	0.563507	-1.944249	99
Es	-2.118656	-0.008993	-1.695449	99
Es	-0.146056	-1.516415	0.263872	99
Es	1.851302	1.397300	2.916004	99
Es	-0.568798	-0.046508	-0.744464	99
Es	0.512782	-1.522272	-0.771721	99
Es	2.432693	1.499198	1.849996	99
Es	1.919916	-1.004143	0.743694	99
Es	2.623457	0.527036	2.569437	99
Es	1.450713	-0.457813	0.528228	99
Es	0.848667	-0.769698	0.162593	99
Es	-1.689743	-0.584470	-1.442303	99
Es	0.996893	0.303356	1.700746	99
Es	-0.398377	0.096098	-0.956938	99
Es	-0.983123	-0.280897	-0.999475	99
Es	1.490351	0.623895	1.949728	99
Es	0.595572	0.720163	1.496221	99
Es	1.208692	-0.009349	1.179302	99
49
Properties=species:S:1:pos:R:3:Z:I:1 energy=-326.3176136475543 field_type=dipole dipole="0.000000 0.000000 0.000000" charge=0
C	-2.542522	0.563538	-1.944252	6
C	-1.689902	-0.584582	-1.442402	6
O	-0.568712	-0.046162	-0.744452	8
C	0.257558	-1.085382	-0.204652	6
C	1.450798	-0.457852	0.528138	6
N	0.996618	0.302968	1.701168	7
C	2.102748	1.009618	2.328598	6
H	-3.408242	0.192118	-2.499662	1
H	-1.959572	1.221978	-2.596272	1
H	-2.895902	1.174468	-1.107332	1
H	-1.340512	-1.186692	-2.288762	1
H	-2.278622	-1.217872	-0.769632	1
H	0.626538	-1.712212	-1.024102	1
H	-0.328732	-1.707282	0.481128	1
H	1.978688	0.210188	-0.163562	1
H	2.136468	-1.251492	0.844668	1
H	0.295238	0.974268	1.377018	1
H	2.572018	1.719878	1.640458	1
H	2.861708	0.308898	2.691688	1
H	1.734338	1.571608	3.192218	1
Es	-2.146083	1.004514	-2.390930	99
Es	0.594017	0.719706	1.497107	99
Es	1.490492	0.624366	1.948640	99
Es	-0.275372	-0.461126	-0.552322	99
Es	-0.568669	-0.046564	-0.744664	99
Es	-2.095171	-1.027138	-0.978743	99
Es	1.208314	-0.009621	1.179259	99
Es	2.432585	1.499222	1.850083	99
Es	-1.448882	-1.006660	-2.026364	99
Es	2.102655	1.009557	2.328545	99
Es	1.450713	-0.457815	0.528228	99
Es	-1.689739	-0.584467	-1.442301	99
Es	-2.542517	0.563506	-1.944250	99
Es	1.920023	-1.004188	0.743690	99
Es	1.851305	1.397298	2.915900	99
Es	2.623608	0.527017	2.569479	99
Es	-3.130239	0.302192	-2.321512	99
Es	0.512762	-1.522206	-0.771635	99
Es	0.851644	0.079304	1.933921	99
Es	-0.983561	-0.280855	-0.998614	99
Es	-0.399045	0.092484	-0.957801	99
Es	-2.118726	-0.008923	-1.695441	99
Es	-2.785344	0.972420	-1.373698	99
Es	0.257457	-1.085195	-0.204735	99
Es	-0.146100	-1.516479	0.263811	99
Es	0.848689	-0.769653	0.162696	99
Es	0.996926	0.303392	1.700713	99
Es	-0.682309	0.109217	-0.501034	99
Es	1.818776	-0.002316	0.046417	99
49
Properties=species:S:1:pos:R:3:Z:I:1 energy=-326.3176136475543 field_type=dipole dipole="0.000000 0.000000 0.000000" charge=0
C	-2.542522	0.563538	-1.944252	6
C	-1.689902	-0.584582	-1.442402	6
O	-0.568712	-0.046162	-0.744452	8
C	0.257558	-1.085382	-0.204652	6
C	1.450798	-0.457852	0.528138	6
N	0.996618	0.302968	1.701168	7
C	2.102748	1.009618	2.328598	6
H	-3.408242	0.192118	-2.499662	1
H	-1.959572	1.221978	-2.596272	1
H	-2.895902	1.174468	-1.107332	1
H	-1.340512	-1.186692	-2.288762	1
H	-2.278622	-1.217872	-0.769632	1
H	0.626538	-1.712212	-1.024102	1
H	-0.328732	-1.707282	0.481128	1
H	1.978688	0.210188	-0.163562	1
H	2.136468	-1.251492	0.844668	1
H	0.295238	0.974268	1.377018	1
H	2.572018	1.719878	1.640458	1
H	2.861708	0.308898	2.691688	1
H	1.734338	1.571608	3.192218	1
Es	-2.095085	-1.027134	-0.978740	99
Es	1.208457	-0.010271	1.179582	99
Es	2.623675	0.527028	2.569458	99
Es	-0.399384	0.095864	-0.956651	99
Es	2.432517	1.499204	1.850109	99
Es	1.818819	-0.002348	0.046400	99
Es	-0.983594	-0.280725	-0.999179	99
Es	0.594716	0.719972	1.496346	99
Es	-3.130154	0.302263	-2.321646	99
Es	-2.542517	0.563509	-1.944249	99
Es	-0.274234	-0.461115	-0.553361	99
Es	0.257459	-1.085196	-0.204735	99
Es	2.102654	1.009558	2.328547	99
Es	1.851266	1.397329	2.915907	99
Es	1.490577	0.624005	1.949663	99
Es	1.450715	-0.457814	0.528225	99
Es	0.848680	-0.769696	0.162770	99
Es	-0.146133	-1.516552	0.263723	99
Es	-0.568776	-0.046529	-0.744485	99
Es	-2.785448	0.972527	-1.373778	99
Es	-0.682958	0.105732	-0.500788	99
Es	-1.689741	-0.584469	-1.442299	99
Es	0.512810	-1.522129	-0.771625	99
Es	-2.146036	1.004416	-2.390831	99
Es	-1.448896	-1.006684	-2.026389	99
Es	-2.118833	-0.009023	-1.695262	99
Es	0.996913	0.303360	1.700749	99
Es	1.919995	-1.004197	0.743760	99
Es	0.850746	0.080103	1.933227	99
49
Properties=species:S:1:pos:R:3:Z:I:1 energy=-326.3176136475543 field_type=dipole dipole="0.000000 0.000000 0.000000" charge=0
C	-2.542522	0.563538	-1.944252	6
C	-1.689902	-0.584582	-1.442402	6
O	-0.568712	-0.046162	-0.744452	8
C	0.257558	-1.085382	-0.204652	6
C	1.450798	-0.457852	0.528138	6
N	0.996618	0.302968	1.701168	7
C	2.102748	1.009618	2.328598	6
H	-3.408242	0.192118	-2.499662	1
H	-1.959572	1.221978	-2.596272	1
H	-2.895902	1.174468	-1.107332	1
H	-1.340512	-1.186692	-2.288762	1
H	-2.278622	-1.217872	-0.769632	1
H	0.626538	-1.712212	-1.024102	1
H	-0.328732	-1.707282	0.481128	1
H	1.978688	0.210188	-0.163562	1
H	2.136468	-1.251492	0.844668	1
H	0.295238	0.974268	1.377018	1
H	2.572018	1.719878	1.640458	1
H	2.861708	0.308898	2.691688	1
H	1.734338	1.571608	3.192218	1
Es	-1.689742	-0.584469	-1.442302	99
Es	0.996898	0.303343	1.700761	99
Es	0.257456	-1.085193	-0.204736	99
Es	1.818730	-0.002340	0.046500	99
Es	1.450714	-0.457816	0.528229	99
Es	-0.146095	-1.516449	0.263732	99
Es	1.490522	0.624285	1.948905	99
Es	2.102650	1.009558	2.328546	99
Es	-0.683554	0.104561	-0.500087	99
Es	1.851323	1.397280	2.915872	99
Es	1.208240	-0.010528	1.179506	99
Es	0.512684	-1.522243	-0.771639	99
Es	-2.118701	-0.009118	-1.695436	99
Es	1.920127	-1.004149	0.743770	99
Es	0.851043	0.080201	1.933841	99
Es	2.432362	1.499260	1.850207	99
Es	-2.785270	0.972527	-1.373754	99
Es	-2.095065	-1.027043	-0.978729	99
Es	-0.568747	-0.046480	-0.744507	99
Es	-0.399248	0.096991	-0.956251	99
Es	-1.448899	-1.006784	-2.026333	99
Es	-2.542517	0.563507	-1.944249	99
Es	0.594627	0.719845	1.496506	99
Es	-3.130298	0.302377	-2.321606	99
Es	-0.274194	-0.461154	-0.554018	99
Es	2.623847	0.527035	2.569403	99
Es	0.848744	-0.769735	0.162676	99
Es	-2.146222	1.004400	-2.390772	99
Es	-0.983206	-0.280678	-0.999585	99
49
Properties=species:S:1:pos:R:3:Z:I:1 energy=-326.3176136475543 field_type=dipole dipole="0.000000 0.000000 0.000000" charge=0
C	-2.542522	0.563538	-1.944252	6
C	-1.689902	-0.584582	-1.442402	6
O	-0.568712	-0.046162	-0.744452	8
C	0.257558	-1.085382	-0.204652	6
C	1.450798	-0.457852	0.528138	6
N	0.996618	0.302968	1.701168	7
C	2.102748	1.009618	2.328598	6
H	-3.408242	0.192118	-2.499662	1
H	-1.959572	1.221978	-2.596272	1
H	-2.895902	1.174468	-1.107332	1
H	-1.340512	-1.186692	-2.288762	1
H	-2.278622	-1.217872	-0.769632	1
H	0.626538	-1.712212	-1.024102	1
H	-0.328732	-1.707282	0.481128	1
H	1.978688	0.210188	-0.163562	1
H	2.136468	-1.251492	0.844668	1
H	0.295238	0.974268	1.377018	1
H	2.572018	1.719878	1.640458	1
H	2.861708	0.308898	2.691688	1
H	1.734338	1.571608	3.192218	1
Es	1.851337	1.397319	2.915750	99
Es	2.623825	0.527006	2.569532	99
Es	0.512623	-1.522151	-0.771636	99
Es	-0.568769	-0.046501	-0.744486	99
Es	2.432412	1.499239	1.850143	99
Es	-2.118784	-0.009054	-1.695319	99
Es	-1.689740	-0.584469	-1.442301	99
Es	0.257454	-1.085197	-0.204731	99
Es	-1.448873	-1.006707	-2.026307	99
Es	1.208100	-0.011006	1.179696	99
Es	1.450715	-0.457815	0.528226	99
Es	1.818811	-0.002331	0.046478	99
Es	-2.146137	1.004462	-2.390860	99
Es	1.920043	-1.004172	0.743815	99
Es	0.851146	0.080783	1.933485	99
Es	-2.542518	0.563508	-1.944250	99
Es	0.848808	-0.769738	0.162612	99
Es	-2.785339	0.972495	-1.373851	99
Es	2.102653	1.009557	2.328545	99
Es	0.594537	0.719905	1.496387	99
Es	-0.681570	0.109718	-0.501669	99
Es	-0.984186	-0.280590	-0.998077	99
Es	0.996866	0.303274	1.700813	99
Es	-0.399252	0.091816	-0.958244	99
Es	-0.275192	-0.461186	-0.551931	99
Es	1.490640	0.624203	1.949157	99
Es	-3.130258	0.302301	-2.321547	99
Es	-2.095050	-1.027143	-0.978740	99
Es	-0.146092	-1.516538	0.263756	99
49
Properties=species:S:1:pos:R:3:Z:I:1 energy=-326.3176136475543 field_type=dipole dipole="0.000000 0.000000 0.000000" charge=0
C	-2.542522	0.563538	-1.944252	6
C	-1.689902	-0.584582	-1.442402	6
O	-0.568712	-0.046162	-0.744452	8
C	0.257558	-1.085382	-0.204652	6
C	1.450798	-0.457852	0.528138	6
N	0.996618	0.302968	1.701168	7
C	2.102748	1.009618	2.328598	6
H	-3.408242	0.192118	-2.499662	1
H	-1.959572	1.221978	-2.596272	1
H	-2.895902	1.174468	-1.107332	1
H	-1.340512	-1.186692	-2.288762	1
H	-2.278622	-1.217872	-0.769632	1
H	0.626538	-1.712212	-1.024102	1
H	-0.328732	-1.707282	0.481128	1
H	1.978688	0.210188	-0.163562	1
H	2.136468	-1.251492	0.844668	1
H	0.295238	0.974268	1.377018	1
H	2.572018	1.719878	1.640458	1
H	2.861708	0.308898	2.691688	1
H	1.734338	1.571608	3.192218	1
Es	1.920116	-1.004188	0.743836	99
Es	2.432275	1.499229	1.850203	99
Es	-2.094973	-1.026991	-0.978751	99
Es	1.818760	-0.002353	0.046536	99
Es	1.450716	-0.457816	0.528226	99
Es	-2.146227	1.004395	-2.390728	99
Es	-2.785289	0.972538	-1.373804	99
Es	-0.682751	0.106634	-0.500896	99
Es	-2.542518	0.563506	-1.944252	99
Es	1.490803	0.624518	1.948703	99
Es	0.996907	0.303367	1.700736	99
Es	1.207878	-0.011273	1.179838	99
Es	-0.275508	-0.461324	-0.552695	99
Es	0.851582	0.080920	1.933719	99
Es	2.623974	0.526974	2.569497	99
Es	-0.983598	-0.280468	-0.999054	99
Es	-0.146107	-1.516529	0.263687	99
Es	-3.130303	0.302366	-2.321648	99
Es	2.102656	1.009557	2.328546	99
Es	0.594144	0.719666	1.496489	99
Es	-2.118771	-0.009037	-1.695469	99
Es	0.257458	-1.085195	-0.204735	99
Es	1.851309	1.397344	2.915730	99
Es	0.512699	-1.522165	-0.771621	99
Es	-1.448890	-1.006898	-2.026202	99
Es	0.848723	-0.769705	0.162664	99
Es	-0.398341	0.094889	-0.957331	99
Es	-1.689741	-0.584469	-1.442302	99
Es	-0.568771	-0.046508	-0.744476	99
49
Properties=species:S:1:pos:R:3:Z:I:1 energy=-326.3176136475543 field_type=dipole dipole="0.000000 0.000000 0.000000" charge=0
C	-2.542522	0.563538	-1.944252	6
C	-1.689902	-0.584582	-1.442402	6
O	-0.568712	-0.046162	-0.744452	8
C	0.257558	-1.085382	-0.204652	6
C	1.450798	-0.457852	0.528138	6
N	0.996618	0.302968	1.701168	7
C	2.102748	1.009618	2.328598	6
H	-3.408242	0.192118	-2.499662	1
H	-1.959572	1.221978	-2.596272	1
H	-2.895902	1.174468	-1.107332	1
H	-1.340512	-1.186692	-2.288762	1
H	-2.278622	-1.217872	-0.769632	1
H	0.626538	-1.712212	-1.024102	1
H	-0.328732	-1.707282	0.481128	1
H	1.978688	0.210188	-0.163562	1
H	2.136468	-1.251492	0.844668	1
H	0.295238	0.974268	1.377018	1
H	2.572018	1.719878	1.640458	1
H	2.861708	0.308898	2.691688	1
H	1.734338	1.571608	3.192218	1
Es	1.851307	1.397324	2.915696	99
Es	0.512609	-1.522160	-0.771615	99
Es	-0.984271	-0.280548	-0.997700	99
Es	2.102653	1.009556	2.328543	99
Es	-2.118850	-0.009074	-1.695384	99
Es	1.490781	0.624626	1.948372	99
Es	0.851671	0.081050	1.933962	99
Es	-0.146126	-1.516521	0.263642	99
Es	-0.568775	-0.046528	-0.744428	99
Es	-0.274498	-0.461265	-0.553602	99
Es	-2.146239	1.004575	-2.390820	99
Es	-1.448913	-1.006824	-2.026260	99
Es	2.623897	0.526976	2.569558	99
Es	0.848804	-0.769753	0.162716	99
Es	1.920160	-1.004167	0.743836	99
Es	-1.689740	-0.584468	-1.442301	99
Es	-2.542517	0.563507	-1.944249	99
Es	-0.399734	0.093648	-0.958090	99
Es	-2.785327	0.972396	-1.373823	99
Es	1.450715	-0.457816	0.528227	99
Es	0.257455	-1.085191	-0.204737	99
Es	-3.130267	0.302359	-2.321523	99
Es	1.818698	-0.002364	0.046522	99
Es	-0.681640	0.107937	-0.500613	99
Es	2.432377	1.499249	1.850206	99
Es	-2.094884	-1.027077	-0.978794	99
Es	0.996902	0.303353	1.700760	99
Es	0.594120	0.719665	1.496421	99
Es	1.207842	-0.011474	1.179925	99
