46
Properties=species:S:1:pos:R:3:Z:I:1 energy=-325.1220050948879 field_type=dipole dipole="0.000000 0.000000 0.000000" charge=0
C	-0.251299	-2.539641	-0.477911	6
N	-0.592679	-1.279772	0.169949	7
C	0.539891	-0.339952	0.182019	6
C	0.736121	0.589149	-0.985321	6
C	0.312261	1.146308	0.343379	6
C	-1.059149	1.713618	0.516799	6
O	1.330701	1.846268	1.077079	8
H	-1.124059	-3.199421	-0.478441	1
H	0.561321	-3.050662	0.048189	1
H	0.044821	-2.379542	-1.519421	1
H	-0.891569	-1.468412	1.127669	1
H	1.439921	-0.724862	0.659289	1
H	0.010041	0.558378	-1.788971	1
H	1.751861	0.765288	-1.316231	1
H	-1.798749	1.226948	-0.128611	1
H	-1.060369	2.781708	0.272959	1
H	-1.386839	1.601788	1.555709	1
H	1.437771	2.752809	0.741869	1
Es	1.594401	1.703422	1.014573	99
Es	-0.592162	-1.280039	0.170257	99
Es	1.156770	-0.601564	0.501977	99
Es	0.312485	1.146296	0.343425	99
Es	-0.846834	-2.990483	-0.472975	99
Es	-1.048299	2.442933	0.349476	99
Es	0.684866	-0.017531	-0.515824	99
Es	1.363524	2.329085	0.876266	99
Es	0.736084	0.589104	-0.985173	99
Es	0.944137	1.605129	0.780255	99
Es	1.330565	1.846345	1.076889	99
Es	-0.045697	-2.426649	-1.185728	99
Es	-1.277961	1.637061	1.222928	99
Es	-0.746568	-1.403909	0.755482	99
Es	-0.251331	-2.539526	-0.477848	99
Es	-0.858873	-1.129270	-0.002575	99
Es	0.539741	-0.339877	0.181929	99
Es	-1.059116	1.713618	0.516795	99
Es	0.523221	1.037178	-0.416168	99
Es	-0.377069	1.421669	0.423583	99
Es	1.423902	0.711966	-1.203692	99
Es	-0.415308	-1.828275	-0.096083	99
Es	1.224203	1.872245	1.362597	99
Es	0.240530	0.567222	-1.524464	99
Es	-0.083680	-0.881353	0.186679	99
Es	-1.549443	1.385510	0.078593	99
Es	0.314498	-2.894002	-0.116261	99
Es	0.369383	0.371036	0.455609	99
46
Properties=species:S:1:pos:R:3:Z:I:1 energy=-325.1220050948879 field_type=dipole dipole="0.000000 0.000000 0.000000" charge=0
C	-0.251299	-2.539641	-0.477911	6
N	-0.592679	-1.279772	0.169949	7
C	0.539891	-0.339952	0.182019	6
C	0.736121	0.589149	-0.985321	6
C	0.312261	1.146308	0.343379	6
C	-1.059149	1.713618	0.516799	6
O	1.330701	1.846268	1.077079	8
H	-1.124059	-3.199421	-0.478441	1
H	0.561321	-3.050662	0.048189	1
H	0.044821	-2.379542	-1.519421	1
H	-0.891569	-1.468412	1.127669	1
H	1.439921	-0.724862	0.659289	1
H	0.010041	0.558378	-1.788971	1
H	1.751861	0.765288	-1.316231	1
H	-1.798749	1.226948	-0.128611	1
H	-1.060369	2.781708	0.272959	1
H	-1.386839	1.601788	1.555709	1
H	1.437771	2.752809	0.741869	1
Es	1.224141	1.870555	1.366163	99
Es	1.366731	2.330427	0.873028	99
Es	-0.251331	-2.539522	-0.477844	99
Es	-0.415612	-1.828674	-0.097560	99
Es	-0.377576	1.421589	0.423340	99
Es	-1.048058	2.444597	0.348597	99
Es	-0.855510	-1.132797	0.000624	99
Es	-0.592170	-1.280041	0.170264	99
Es	-1.548039	1.385154	0.079139	99
Es	0.312485	1.146303	0.343406	99
Es	0.313656	-2.893816	-0.116377	99
Es	0.539740	-0.339871	0.181932	99
Es	0.736085	0.589098	-0.985168	99
Es	-0.045322	-2.427176	-1.186372	99
Es	-0.085497	-0.878009	0.184421	99
Es	-0.846330	-2.990510	-0.472491	99
Es	-0.747612	-1.403123	0.756442	99
Es	1.588034	1.705279	1.015168	99
Es	1.422485	0.712221	-1.203764	99
Es	0.522630	1.040088	-0.417172	99
Es	0.369236	0.370149	0.456525	99
Es	0.241753	0.567314	-1.524041	99
Es	1.330520	1.846393	1.076773	99
Es	0.947096	1.603722	0.779272	99
Es	0.685616	-0.020133	-0.515441	99
Es	-1.278014	1.635859	1.223240	99
Es	-1.059116	1.713619	0.516795	99
Es	1.155950	-0.601352	0.501622	99
46
Properties=species:S:1:pos:R:3:Z:I:1 energy=-325.1220050948879 field_type=dipole dipole="0.000000 0.000000 0.000000" charge=0
C	-0.251299	-2.539641	-0.477911	6
N	-0.592679	-1.279772	0.169949	7
C	0.539891	-0.339952	0.182019	6
C	0.736121	0.589149	-0.985321	6
C	0.312261	1.146308	0.343379	6
C	-1.059149	1.713618	0.516799	6
O	1.330701	1.846268	1.077079	8
H	-1.124059	-3.199421	-0.478441	1
H	0.561321	-3.050662	0.048189	1
H	0.044821	-2.379542	-1.519421	1
H	-0.891569	-1.468412	1.127669	1
H	1.439921	-0.724862	0.659289	1
H	0.010041	0.558378	-1.788971	1
H	1.751861	0.765288	-1.316231	1
H	-1.798749	1.226948	-0.128611	1
H	-1.060369	2.781708	0.272959	1
H	-1.386839	1.601788	1.555709	1
H	1.437771	2.752809	0.741869	1
Es	1.330505	1.846432	1.076796	99
Es	0.313108	-2.893787	-0.116398	99
Es	-0.251331	-2.539526	-0.477847	99
Es	1.155501	-0.601084	0.501460	99
Es	-0.747525	-1.402737	0.756766	99
Es	-0.845920	-2.990429	-0.472304	99
Es	-0.045074	-2.427460	-1.186773	99
Es	0.539743	-0.339875	0.181928	99
Es	1.364691	2.332748	0.874249	99
Es	0.736083	0.589106	-0.985166	99
Es	-1.059116	1.713619	0.516795	99
Es	-0.592164	-1.280042	0.170264	99
Es	0.948990	1.602341	0.778764	99
Es	1.583825	1.709937	1.010468	99
Es	0.312486	1.146303	0.343411	99
Es	-0.086833	-0.875574	0.182552	99
Es	0.242480	0.567758	-1.523557	99
Es	-1.278160	1.635120	1.223369	99
Es	-0.415947	-1.829060	-0.098442	99
Es	0.686160	-0.021732	-0.515716	99
Es	1.228351	1.865070	1.369914	99
Es	0.368912	0.369674	0.457353	99
Es	-1.547014	1.384995	0.079601	99
Es	1.421561	0.712599	-1.203849	99
Es	0.522383	1.041056	-0.417395	99
Es	-1.048044	2.445549	0.347964	99
Es	-0.377873	1.421659	0.423080	99
Es	-0.853805	-1.135321	0.003236	99
46
Properties=species:S:1:pos:R:3:Z:I:1 energy=-325.1220050948879 field_type=dipole dipole="0.000000 0.000000 0.000000" charge=0
C	-0.251299	-2.539641	-0.477911	6
N	-0.592679	-1.279772	0.169949	7
C	0.539891	-0.339952	0.182019	6
C	0.736121	0.589149	-0.985321	6
C	0.312261	1.146308	0.343379	6
C	-1.059149	1.713618	0.516799	6
O	1.330701	1.846268	1.077079	8
H	-1.124059	-3.199421	-0.478441	1
H	0.561321	-3.050662	0.048189	1
H	0.044821	-2.379542	-1.519421	1
H	-0.891569	-1.468412	1.127669	1
H	1.439921	-0.724862	0.659289	1
H	0.010041	0.558378	-1.788971	1
H	1.751861	0.765288	-1.316231	1
H	-1.798749	1.226948	-0.128611	1
H	-1.060369	2.781708	0.272959	1
H	-1.386839	1.601788	1.555709	1
H	1.437771	2.752809	0.741869	1
Es	-1.059116	1.713619	0.516795	99
Es	1.420737	0.712742	-1.203754	99
Es	-0.045049	-2.427696	-1.187121	99
Es	-1.047913	2.446185	0.347566	99
Es	-0.378201	1.421709	0.422839	99
Es	1.584425	1.709246	1.016344	99
Es	1.155209	-0.600916	0.501339	99
Es	0.952260	1.601246	0.776590	99
Es	0.312488	1.146307	0.343399	99
Es	1.222918	1.866654	1.367321	99
Es	-0.416012	-1.829140	-0.098990	99
Es	-0.087701	-0.874295	0.181498	99
Es	0.368761	0.369210	0.457694	99
Es	0.736084	0.589093	-0.985170	99
Es	-1.277994	1.634571	1.223552	99
Es	1.366108	2.333051	0.873034	99
Es	1.330482	1.846427	1.076828	99
Es	-1.546451	1.384817	0.079882	99
Es	0.242956	0.568034	-1.523386	99
Es	-0.592161	-1.280047	0.170269	99
Es	0.312822	-2.893664	-0.116500	99
Es	-0.747902	-1.402452	0.757190	99
Es	-0.251331	-2.539528	-0.477849	99
Es	-0.852321	-1.136842	0.004561	99
Es	0.686520	-0.022900	-0.515613	99
Es	-0.845654	-2.990418	-0.471966	99
Es	0.539739	-0.339880	0.181932	99
Es	0.522268	1.042208	-0.417762	99
46
Properties=species:S:1:pos:R:3:Z:I:1 energy=-325.1220050948879 field_type=dipole dipole="0.000000 0.000000 0.000000" charge=0
C	-0.251299	-2.539641	-0.477911	6
N	-0.592679	-1.279772	0.169949	7
C	0.539891	-0.339952	0.182019	6
C	0.736121	0.589149	-0.985321	6
C	0.312261	1.146308	0.343379	6
C	-1.059149	1.713618	0.516799	6
O	1.330701	1.846268	1.077079	8
H	-1.124059	-3.199421	-0.478441	1
H	0.561321	-3.050662	0.048189	1
H	0.044821	-2.379542	-1.519421	1
H	-0.891569	-1.468412	1.127669	1
H	1.439921	-0.724862	0.659289	1
H	0.010041	0.558378	-1.788971	1
H	1.751861	0.765288	-1.316231	1
H	-1.798749	1.226948	-0.128611	1
H	-1.060369	2.781708	0.272959	1
H	-1.386839	1.601788	1.555709	1
H	1.437771	2.752809	0.741869	1
Es	0.736083	0.589097	-0.985173	99
Es	1.330477	1.846397	1.076815	99
Es	-0.088733	-0.872443	0.180046	99
Es	-0.592158	-1.280050	0.170266	99
Es	1.228905	1.862104	1.371597	99
Es	1.155074	-0.600845	0.501247	99
Es	0.312485	1.146298	0.343410	99
Es	0.539741	-0.339886	0.181926	99
Es	-1.048051	2.446683	0.347260	99
Es	-1.278064	1.634222	1.223436	99
Es	-0.747842	-1.402093	0.757341	99
Es	1.365158	2.334337	0.873761	99
Es	0.522261	1.043030	-0.417677	99
Es	-0.851177	-1.138800	0.006170	99
Es	-0.378206	1.421697	0.422603	99
Es	-1.059115	1.713619	0.516796	99
Es	0.243319	0.568216	-1.523314	99
Es	-0.044965	-2.427850	-1.187165	99
Es	0.951241	1.602083	0.778141	99
Es	-0.251333	-2.539524	-0.477846	99
Es	-0.416175	-1.829328	-0.099214	99
Es	1.420159	0.712699	-1.203625	99
Es	0.368652	0.369028	0.457792	99
Es	-1.545945	1.384789	0.080288	99
Es	-0.845441	-2.990160	-0.472137	99
Es	0.312611	-2.893921	-0.116391	99
Es	0.686749	-0.023794	-0.515561	99
Es	1.580261	1.711736	1.009729	99
46
Properties=species:S:1:pos:R:3:Z:I:1 energy=-325.1220050948879 field_type=dipole dipole="0.000000 0.000000 0.000000" charge=0
C	-0.251299	-2.539641	-0.477911	6
N	-0.592679	-1.279772	0.169949	7
C	0.539891	-0.339952	0.182019	6
C	0.736121	0.589149	-0.985321	6
C	0.312261	1.146308	0.343379	6
C	-1.059149	1.713618	0.516799	6
O	1.330701	1.846268	1.077079	8
H	-1.124059	-3.199421	-0.478441	1
H	0.561321	-3.050662	0.048189	1
H	0.044821	-2.379542	-1.519421	1
H	-0.891569	-1.468412	1.127669	1
H	1.439921	-0.724862	0.659289	1
H	0.010041	0.558378	-1.788971	1
H	1.751861	0.765288	-1.316231	1
H	-1.798749	1.226948	-0.128611	1
H	-1.060369	2.781708	0.272959	1
H	-1.386839	1.601788	1.555709	1
H	1.437771	2.752809	0.741869	1
Es	1.578142	1.713951	1.009253	99
Es	1.330507	1.846397	1.076833	99
Es	-0.592144	-1.280054	0.170282	99
Es	-0.251334	-2.539523	-0.477845	99
Es	1.155035	-0.600902	0.501053	99
Es	0.243819	0.568183	-1.523062	99
Es	0.539739	-0.339879	0.181933	99
Es	0.686690	-0.024194	-0.515514	99
Es	-0.089567	-0.871212	0.179171	99
Es	-0.378375	1.421621	0.422556	99
Es	0.736083	0.589104	-0.985168	99
Es	0.312526	-2.894019	-0.116297	99
Es	0.952848	1.601096	0.776947	99
Es	0.368703	0.368708	0.458100	99
Es	-1.059116	1.713618	0.516795	99
Es	1.419754	0.712640	-1.203622	99
Es	1.229572	1.860161	1.372676	99
Es	-0.851034	-1.139983	0.006930	99
Es	-0.415876	-1.829395	-0.099175	99
Es	-1.047989	2.446940	0.346982	99
Es	-1.278149	1.633978	1.223528	99
Es	1.364938	2.335105	0.874186	99
Es	0.312486	1.146301	0.343408	99
Es	-0.747432	-1.402006	0.757366	99
Es	0.521994	1.043832	-0.417932	99
Es	-0.845278	-2.989977	-0.472056	99
Es	-1.545566	1.384858	0.080509	99
Es	-0.045006	-2.428007	-1.187317	99
46
Properties=species:S:1:pos:R:3:Z:I:1 energy=-325.1220050948879 field_type=dipole dipole="0.000000 0.000000 0.000000" charge=0
C	-0.251299	-2.539641	-0.477911	6
N	-0.592679	-1.279772	0.169949	7
C	0.539891	-0.339952	0.182019	6
C	0.736121	0.589149	-0.985321	6
C	0.312261	1.146308	0.343379	6
C	-1.059149	1.713618	0.516799	6
O	1.330701	1.846268	1.077079	8
H	-1.124059	-3.199421	-0.478441	1
H	0.561321	-3.050662	0.048189	1
H	0.044821	-2.379542	-1.519421	1
H	-0.891569	-1.468412	1.127669	1
H	1.439921	-0.724862	0.659289	1
H	0.010041	0.558378	-1.788971	1
H	1.751861	0.765288	-1.316231	1
H	-1.798749	1.226948	-0.128611	1
H	-1.060369	2.781708	0.272959	1
H	-1.386839	1.601788	1.555709	1
H	1.437771	2.752809	0.741869	1
Es	0.312398	-2.893974	-0.116319	99
Es	-0.748027	-1.401781	0.757526	99
Es	1.226744	1.861344	1.371153	99
Es	-0.378398	1.421752	0.422393	99
Es	-0.845102	-2.989956	-0.471945	99
Es	0.312486	1.146304	0.343410	99
Es	-0.044991	-2.428132	-1.187462	99
Es	0.686927	-0.024872	-0.515379	99
Es	0.736090	0.589100	-0.985168	99
Es	-0.416022	-1.829447	-0.099518	99
Es	1.578571	1.713552	1.012283	99
Es	0.539737	-0.339882	0.181937	99
Es	-1.059116	1.713619	0.516795	99
Es	0.243983	0.568338	-1.523037	99
Es	-0.089892	-0.870866	0.178948	99
Es	-0.592147	-1.280076	0.170266	99
Es	0.954487	1.600188	0.776280	99
Es	1.419281	0.712696	-1.203512	99
Es	-1.278038	1.633658	1.223518	99
Es	1.365477	2.335180	0.873253	99
Es	0.368553	0.368586	0.458163	99
Es	-0.849936	-1.140486	0.007460	99
Es	1.154888	-0.600793	0.501030	99
Es	-0.251332	-2.539524	-0.477846	99
Es	-1.048066	2.447264	0.346854	99
Es	-1.545273	1.384756	0.080679	99
Es	1.330627	1.846413	1.076916	99
Es	0.522062	1.044379	-0.418155	99
46
Properties=species:S:1:pos:R:3:Z:I:1 energy=-325.1220050948879 field_type=dipole dipole="0.000000 0.000000 0.000000" charge=0
C	-0.251299	-2.539641	-0.477911	6
N	-0.592679	-1.279772	0.169949	7
C	0.539891	-0.339952	0.182019	6
C	0.736121	0.589149	-0.985321	6
C	0.312261	1.146308	0.343379	6
C	-1.059149	1.713618	0.516799	6
O	1.330701	1.846268	1.077079	8
H	-1.124059	-3.199421	-0.478441	1
H	0.561321	-3.050662	0.048189	1
H	0.044821	-2.379542	-1.519421	1
H	-0.891569	-1.468412	1.127669	1
H	1.439921	-0.724862	0.659289	1
H	0.010041	0.558378	-1.788971	1
H	1.751861	0.765288	-1.316231	1
H	-1.798749	1.226948	-0.128611	1
H	-1.060369	2.781708	0.272959	1
H	-1.386839	1.601788	1.555709	1
H	1.437771	2.752809	0.741869	1
Es	1.364482	2.335999	0.874085	99
Es	-1.059117	1.713619	0.516795	99
Es	0.312331	-2.894011	-0.116318	99
Es	1.418966	0.712882	-1.203495	99
Es	-0.415917	-1.829505	-0.099591	99
Es	1.229758	1.858876	1.372741	99
Es	-0.844964	-2.989890	-0.471930	99
Es	-0.849551	-1.141805	0.008495	99
Es	0.368413	0.368444	0.458318	99
Es	1.330509	1.846430	1.076859	99
Es	-0.090820	-0.869535	0.177871	99
Es	0.522005	1.044569	-0.418066	99
Es	-1.545157	1.384889	0.080976	99
Es	-0.378346	1.421647	0.422035	99
Es	-0.045006	-2.428215	-1.187523	99
Es	0.687146	-0.025307	-0.515532	99
Es	0.312484	1.146298	0.343416	99
Es	-0.747591	-1.401719	0.757627	99
Es	-1.048110	2.447407	0.346703	99
Es	-0.592149	-1.280059	0.170272	99
Es	0.539737	-0.339877	0.181941	99
Es	-1.277982	1.633545	1.223547	99
Es	-0.251331	-2.539528	-0.477849	99
Es	1.577043	1.714841	1.009211	99
Es	0.736084	0.589102	-0.985170	99
Es	0.244166	0.568466	-1.522884	99
Es	1.154837	-0.600786	0.501011	99
Es	0.954054	1.600563	0.776975	99
46
Properties=species:S:1:pos:R:3:Z:I:1 energy=-325.1220050948879 field_type=dipole dipole="0.000000 0.000000 0.000000" charge=0
C	-0.251299	-2.539641	-0.477911	6
N	-0.592679	-1.279772	0.169949	7
C	0.539891	-0.339952	0.182019	6
C	0.736121	0.589149	-0.985321	6
C	0.312261	1.146308	0.343379	6
C	-1.059149	1.713618	0.516799	6
O	1.330701	1.846268	1.077079	8
H	-1.124059	-3.199421	-0.478441	1
H	0.561321	-3.050662	0.048189	1
H	0.044821	-2.379542	-1.519421	1
H	-0.891569	-1.468412	1.127669	1
H	1.439921	-0.724862	0.659289	1
H	0.010041	0.558378	-1.788971	1
H	1.751861	0.765288	-1.316231	1
H	-1.798749	1.226948	-0.128611	1
H	-1.060369	2.781708	0.272959	1
H	-1.386839	1.601788	1.555709	1
H	1.437771	2.752809	0.741869	1
Es	1.154864	-0.600806	0.500870	99
Es	1.575968	1.716816	1.009309	99
Es	1.330533	1.846419	1.076795	99
Es	0.522117	1.044968	-0.418206	99
Es	0.312294	-2.893911	-0.116409	99
Es	-1.048259	2.447655	0.346529	99
Es	1.418740	0.712712	-1.203608	99
Es	-0.251331	-2.539523	-0.477847	99
Es	-1.059116	1.713619	0.516795	99
Es	0.368524	0.368294	0.458440	99
Es	-0.592162	-1.280051	0.170265	99
Es	0.687020	-0.025421	-0.515394	99
Es	0.955640	1.599406	0.775826	99
Es	-0.844943	-2.989994	-0.471864	99
Es	1.363724	2.336408	0.874473	99
Es	0.312486	1.146306	0.343411	99
Es	0.539740	-0.339878	0.181933	99
Es	-0.090965	-0.869409	0.177847	99
Es	0.244274	0.568502	-1.522691	99
Es	1.229926	1.857659	1.373362	99
Es	-1.544690	1.384858	0.081117	99
Es	-1.278152	1.633272	1.223488	99
Es	-0.415789	-1.829404	-0.099656	99
Es	0.736087	0.589105	-0.985173	99
Es	-0.849629	-1.141898	0.008614	99
Es	-0.747419	-1.401821	0.757649	99
Es	-0.378513	1.421738	0.422159	99
Es	-0.044997	-2.428277	-1.187515	99
46
Properties=species:S:1:pos:R:3:Z:I:1 energy=-325.1220050948879 field_type=dipole dipole="0.000000 0.000000 0.000000" charge=0
C	-0.251299	-2.539641	-0.477911	6
N	-0.592679	-1.279772	0.169949	7
C	0.539891	-0.339952	0.182019	6
C	0.736121	0.589149	-0.985321	6
C	0.312261	1.146308	0.343379	6
C	-1.059149	1.713618	0.516799	6
O	1.330701	1.846268	1.077079	8
H	-1.124059	-3.199421	-0.478441	1
H	0.561321	-3.050662	0.048189	1
H	0.044821	-2.379542	-1.519421	1
H	-0.891569	-1.468412	1.127669	1
H	1.439921	-0.724862	0.659289	1
H	0.010041	0.558378	-1.788971	1
H	1.751861	0.765288	-1.316231	1
H	-1.798749	1.226948	-0.128611	1
H	-1.060369	2.781708	0.272959	1
H	-1.386839	1.601788	1.555709	1
H	1.437771	2.752809	0.741869	1
Es	-1.544629	1.384896	0.081147	99
Es	-0.378617	1.421721	0.422027	99
Es	1.576465	1.715379	1.011543	99
Es	-0.091881	-0.867979	0.176685	99
Es	-0.045016	-2.428325	-1.187601	99
Es	1.365094	2.336219	0.873639	99
Es	-1.278088	1.633137	1.223572	99
Es	1.227692	1.858977	1.372193	99
Es	-1.048103	2.447757	0.346475	99
Es	0.539739	-0.339880	0.181934	99
Es	-1.059116	1.713619	0.516795	99
Es	0.244503	0.568515	-1.522853	99
Es	0.955975	1.599725	0.775673	99
Es	-0.746950	-1.401671	0.757729	99
Es	-0.415812	-1.829560	-0.099687	99
Es	0.521994	1.045332	-0.418221	99
Es	1.418478	0.712696	-1.203347	99
Es	0.312234	-2.894174	-0.116237	99
Es	0.368457	0.368234	0.458444	99
Es	-0.849151	-1.143271	0.009748	99
Es	-0.251333	-2.539523	-0.477846	99
Es	0.312486	1.146300	0.343409	99
Es	1.154824	-0.600814	0.500900	99
Es	-0.844843	-2.989691	-0.471958	99
Es	0.736086	0.589098	-0.985169	99
Es	0.687121	-0.025738	-0.515457	99
Es	1.330515	1.846418	1.076715	99
Es	-0.592156	-1.280053	0.170270	99
46
Properties=species:S:1:pos:R:3:Z:I:1 energy=-325.1220050948879 field_type=dipole dipole="0.000000 0.000000 0.000000" charge=0
C	-0.251299	-2.539641	-0.477911	6
N	-0.592679	-1.279772	0.169949	7
C	0.539891	-0.339952	0.182019	6
C	0.736121	0.589149	-0.985321	6
C	0.312261	1.146308	0.343379	6
C	-1.059149	1.713618	0.516799	6
O	1.330701	1.846268	1.077079	8
H	-1.124059	-3.199421	-0.478441	1
H	0.561321	-3.050662	0.048189	1
H	0.044821	-2.379542	-1.519421	1
H	-0.891569	-1.468412	1.127669	1
H	1.439921	-0.724862	0.659289	1
H	0.010041	0.558378	-1.788971	1
H	1.751861	0.765288	-1.316231	1
H	-1.798749	1.226948	-0.128611	1
H	-1.060369	2.781708	0.272959	1
H	-1.386839	1.601788	1.555709	1
H	1.437771	2.752809	0.741869	1
Es	1.418330	0.712716	-1.203324	99
Es	-0.378540	1.421592	0.421894	99
Es	0.244642	0.568755	-1.522735	99
Es	1.575001	1.717387	1.009033	99
Es	0.312264	-2.894243	-0.116203	99
Es	-0.251331	-2.539524	-0.477849	99
Es	0.539738	-0.339876	0.181931	99
Es	-0.045118	-2.428427	-1.187629	99
Es	-0.747144	-1.401608	0.757650	99
Es	-0.848808	-1.143421	0.009963	99
Es	0.522027	1.045482	-0.418263	99
Es	1.154803	-0.600832	0.500814	99
Es	1.330511	1.846394	1.076827	99
Es	1.363890	2.336701	0.874509	99
Es	-1.048256	2.447903	0.346430	99
Es	-1.544455	1.385053	0.081384	99
Es	-0.844736	-2.989589	-0.471937	99
Es	-1.278136	1.632969	1.223504	99
Es	0.368538	0.368165	0.458442	99
Es	0.312486	1.146300	0.343411	99
Es	-1.059116	1.713619	0.516795	99
Es	1.230194	1.856880	1.373794	99
Es	0.956123	1.599358	0.775566	99
Es	-0.592146	-1.280060	0.170280	99
Es	0.687043	-0.026065	-0.515453	99
Es	0.736083	0.589103	-0.985167	99
Es	-0.092056	-0.867799	0.176712	99
Es	-0.415859	-1.829590	-0.099858	99
46
Properties=species:S:1:pos:R:3:Z:I:1 energy=-325.1220050948879 field_type=dipole dipole="0.000000 0.000000 0.000000" charge=0
C	-0.251299	-2.539641	-0.477911	6
N	-0.592679	-1.279772	0.169949	7
C	0.539891	-0.339952	0.182019	6
C	0.736121	0.589149	-0.985321	6
C	0.312261	1.146308	0.343379	6
C	-1.059149	1.713618	0.516799	6
O	1.330701	1.846268	1.077079	8
H	-1.124059	-3.199421	-0.478441	1
H	0.561321	-3.050662	0.048189	1
H	0.044821	-2.379542	-1.519421	1
H	-0.891569	-1.468412	1.127669	1
H	1.439921	-0.724862	0.659289	1
H	0.010041	0.558378	-1.788971	1
H	1.751861	0.765288	-1.316231	1
H	-1.798749	1.226948	-0.128611	1
H	-1.060369	2.781708	0.272959	1
H	-1.386839	1.601788	1.555709	1
H	1.437771	2.752809	0.741869	1
Es	-0.251331	-2.539528	-0.477849	99
Es	-1.544262	1.384912	0.081404	99
Es	0.687362	-0.026308	-0.515530	99
Es	0.312141	-2.894061	-0.116280	99
Es	0.521962	1.045773	-0.418234	99
Es	0.539735	-0.339878	0.181942	99
Es	-0.746861	-1.401514	0.757745	99
Es	-0.415548	-1.829571	-0.099588	99
Es	0.956148	1.599507	0.775959	99
Es	-0.844719	-2.989736	-0.471818	99
Es	-0.592140	-1.280058	0.170289	99
Es	-0.092417	-0.867465	0.176188	99
Es	-0.045012	-2.428503	-1.187673	99
Es	1.229995	1.857111	1.373582	99
Es	-0.378615	1.421757	0.421898	99
Es	1.363998	2.336701	0.874069	99
Es	1.154691	-0.600681	0.500916	99
Es	-0.848928	-1.143930	0.010064	99
Es	1.330463	1.846470	1.076879	99
Es	1.418053	0.712735	-1.203274	99
Es	-1.048273	2.448009	0.346299	99
Es	0.312486	1.146308	0.343404	99
Es	1.575071	1.716942	1.009212	99
Es	-1.278114	1.632871	1.223530	99
Es	0.368361	0.368104	0.458473	99
Es	0.244762	0.568657	-1.522715	99
Es	-1.059117	1.713619	0.516795	99
Es	0.736083	0.589100	-0.985166	99
46
Properties=species:S:1:pos:R:3:Z:I:1 energy=-325.1220050948879 field_type=dipole dipole="0.000000 0.000000 0.000000" charge=0
C	-0.251299	-2.539641	-0.477911	6
N	-0.592679	-1.279772	0.169949	7
C	0.539891	-0.339952	0.182019	6
C	0.736121	0.589149	-0.985321	6
C	0.312261	1.146308	0.343379	6
C	-1.059149	1.713618	0.516799	6
O	1.330701	1.846268	1.077079	8
H	-1.124059	-3.199421	-0.478441	1
H	0.561321	-3.050662	0.048189	1
H	0.044821	-2.379542	-1.519421	1
H	-0.891569	-1.468412	1.127669	1
H	1.439921	-0.724862	0.659289	1
H	0.010041	0.558378	-1.788971	1
H	1.751861	0.765288	-1.316231	1
H	-1.798749	1.226948	-0.128611	1
H	-1.060369	2.781708	0.272959	1
H	-1.386839	1.601788	1.555709	1
H	1.437771	2.752809	0.741869	1
Es	1.154728	-0.600758	0.500883	99
Es	0.687223	-0.026612	-0.515397	99
Es	-0.592143	-1.280058	0.170281	99
Es	1.330622	1.846326	1.076623	99
Es	0.244926	0.568743	-1.522729	99
Es	-0.415707	-1.829608	-0.099827	99
Es	1.574513	1.717843	1.009306	99
Es	0.539738	-0.339880	0.181934	99
Es	-1.544148	1.384940	0.081556	99
Es	-1.278128	1.632822	1.223524	99
Es	-0.848474	-1.144037	0.010335	99
Es	-0.844626	-2.989668	-0.471683	99
Es	-1.059117	1.713619	0.516795	99
Es	-0.092515	-0.867299	0.176169	99
Es	0.521883	1.045915	-0.418330	99
Es	0.736084	0.589099	-0.985168	99
Es	-0.045123	-2.428593	-1.187791	99
Es	0.312141	-2.894068	-0.116293	99
Es	1.363587	2.337118	0.874632	99
Es	-0.251332	-2.539525	-0.477847	99
Es	1.230086	1.856213	1.373746	99
Es	1.418025	0.712767	-1.203152	99
Es	0.956839	1.599205	0.775352	99
Es	0.368387	0.368131	0.458402	99
Es	-0.747062	-1.401431	0.757788	99
Es	-1.048250	2.448111	0.346161	99
Es	0.312486	1.146301	0.343409	99
Es	-0.378670	1.421727	0.421841	99
46
Properties=species:S:1:pos:R:3:Z:I:1 energy=-325.1220050948879 field_type=dipole dipole="0.000000 0.000000 0.000000" charge=0
C	-0.251299	-2.539641	-0.477911	6
N	-0.592679	-1.279772	0.169949	7
C	0.539891	-0.339952	0.182019	6
C	0.736121	0.589149	-0.985321	6
C	0.312261	1.146308	0.343379	6
C	-1.059149	1.713618	0.516799	6
O	1.330701	1.846268	1.077079	8
H	-1.124059	-3.199421	-0.478441	1
H	0.561321	-3.050662	0.048189	1
H	0.044821	-2.379542	-1.519421	1
H	-0.891569	-1.468412	1.127669	1
H	1.439921	-0.724862	0.659289	1
H	0.010041	0.558378	-1.788971	1
H	1.751861	0.765288	-1.316231	1
H	-1.798749	1.226948	-0.128611	1
H	-1.060369	2.781708	0.272959	1
H	-1.386839	1.601788	1.555709	1
H	1.437771	2.752809	0.741869	1
Es	0.312089	-2.894248	-0.116256	99
Es	-1.544031	1.385045	0.081643	99
Es	-0.844633	-2.989520	-0.471813	99
Es	-0.378653	1.421673	0.421717	99
Es	1.154669	-0.600692	0.500881	99
Es	1.229087	1.856398	1.373305	99
Es	1.574615	1.718320	1.010289	99
Es	0.539739	-0.339883	0.181930	99
Es	-0.045108	-2.428602	-1.187741	99
Es	1.330506	1.846430	1.076799	99
Es	-1.278140	1.632687	1.223563	99
Es	0.957940	1.598363	0.774749	99
Es	-0.251336	-2.539526	-0.477847	99
Es	0.368327	0.367995	0.458423	99
Es	1.363460	2.337204	0.874499	99
Es	0.736083	0.589098	-0.985167	99
Es	-0.848507	-1.144073	0.010406	99
Es	1.417948	0.712737	-1.203254	99
Es	0.244893	0.568819	-1.522616	99
Es	-1.059115	1.713618	0.516795	99
Es	0.687242	-0.026741	-0.515365	99
Es	0.312486	1.146302	0.343408	99
Es	0.521940	1.046125	-0.418345	99
Es	-0.092535	-0.867318	0.176041	99
Es	-0.415666	-1.829504	-0.099836	99
Es	-0.592140	-1.280064	0.170289	99
Es	-0.746927	-1.401474	0.757896	99
Es	-1.048262	2.448176	0.346128	99
46
Properties=species:S:1:pos:R:3:Z:I:1 energy=-325.1220050948879 field_type=dipole dipole="0.000000 0.000000 0.000000" charge=0
C	-0.251299	-2.539641	-0.477911	6
N	-0.592679	-1.279772	0.169949	7
C	0.539891	-0.339952	0.182019	6
C	0.736121	0.589149	-0.985321	6
C	0.312261	1.146308	0.343379	6
C	-1.059149	1.713618	0.516799	6
O	1.330701	1.846268	1.077079	8
H	-1.124059	-3.199421	-0.478441	1
H	0.561321	-3.050662	0.048189	1
H	0.044821	-2.379542	-1.519421	1
H	-0.891569	-1.468412	1.127669	1
H	1.439921	-0.724862	0.659289	1
H	0.010041	0.558378	-1.788971	1
H	1.751861	0.765288	-1.316231	1
H	-1.798749	1.226948	-0.128611	1
H	-1.060369	2.781708	0.272959	1
H	-1.386839	1.601788	1.555709	1
H	1.437771	2.752809	0.741869	1
Es	0.312487	1.146306	0.343407	99
Es	1.228631	1.856004	1.373156	99
Es	-0.746746	-1.401473	0.757890	99
Es	-0.378623	1.421572	0.421673	99
Es	-0.093171	-0.866533	0.175504	99
Es	0.539741	-0.339885	0.181937	99
Es	-0.415281	-1.829489	-0.099466	99
Es	1.154678	-0.600682	0.500896	99
Es	0.959014	1.597629	0.773770	99
Es	0.522006	1.046223	-0.418398	99
Es	-1.059116	1.713619	0.516795	99
Es	-0.844585	-2.989563	-0.471837	99
Es	0.736083	0.589094	-0.985165	99
Es	-0.045094	-2.428583	-1.187733	99
Es	1.330438	1.846478	1.076842	99
Es	0.312117	-2.894212	-0.116236	99
Es	-0.592138	-1.280060	0.170272	99
Es	-0.251331	-2.539524	-0.477845	99
Es	-1.048384	2.448218	0.346095	99
Es	-1.278148	1.632628	1.223552	99
Es	-0.848547	-1.144912	0.010585	99
Es	0.687381	-0.026865	-0.515327	99
Es	1.417763	0.712747	-1.203396	99
Es	-1.543962	1.385128	0.081787	99
Es	1.363517	2.337407	0.874739	99
Es	1.573990	1.719213	1.011087	99
Es	0.244845	0.568815	-1.522455	99
Es	0.368408	0.368041	0.458395	99
46
Properties=species:S:1:pos:R:3:Z:I:1 energy=-325.1220050948879 field_type=dipole dipole="0.000000 0.000000 0.000000" charge=0
C	-0.251299	-2.539641	-0.477911	6
N	-0.592679	-1.279772	0.169949	7
C	0.539891	-0.339952	0.182019	6
C	0.736121	0.589149	-0.985321	6
C	0.312261	1.146308	0.343379	6
C	-1.059149	1.713618	0.516799	6
O	1.330701	1.846268	1.077079	8
H	-1.124059	-3.199421	-0.478441	1
H	0.561321	-3.050662	0.048189	1
H	0.044821	-2.379542	-1.519421	1
H	-0.891569	-1.468412	1.127669	1
H	1.439921	-0.724862	0.659289	1
H	0.010041	0.558378	-1.788971	1
H	1.751861	0.765288	-1.316231	1
H	-1.798749	1.226948	-0.128611	1
H	-1.060369	2.781708	0.272959	1
H	-1.386839	1.601788	1.555709	1
H	1.437771	2.752809	0.741869	1
Es	0.368421	0.368113	0.458424	99
Es	0.956469	1.599826	0.776009	99
Es	0.245142	0.568707	-1.522330	99
Es	-0.848376	-1.145424	0.011149	99
Es	0.521842	1.046434	-0.418194	99
Es	1.362379	2.337914	0.875598	99
Es	-0.592158	-1.280040	0.170254	99
Es	1.330484	1.846407	1.076788	99
Es	-0.093604	-0.865975	0.174987	99
Es	0.539738	-0.339881	0.181933	99
Es	-1.278195	1.632636	1.223413	99
Es	-1.543939	1.385071	0.081770	99
Es	0.312141	-2.894182	-0.116244	99
Es	-0.415301	-1.829550	-0.099579	99
Es	-0.378656	1.421621	0.421678	99
Es	0.312486	1.146303	0.343407	99
Es	-0.746462	-1.401411	0.757863	99
Es	1.154727	-0.600770	0.500795	99
Es	-0.844585	-2.989611	-0.471862	99
Es	1.234774	1.852330	1.376803	99
Es	0.687327	-0.027042	-0.515419	99
Es	-0.251332	-2.539521	-0.477844	99
Es	-1.048376	2.448296	0.346122	99
Es	-0.045089	-2.428623	-1.187668	99
Es	1.417704	0.712716	-1.203358	99
Es	1.571442	1.720277	1.004397	99
Es	0.736083	0.589101	-0.985167	99
Es	-1.059116	1.713618	0.516794	99
46
Properties=species:S:1:pos:R:3:Z:I:1 energy=-325.1220050948879 field_type=dipole dipole="0.000000 0.000000 0.000000" charge=0
C	-0.251299	-2.539641	-0.477911	6
N	-0.592679	-1.279772	0.169949	7
C	0.539891	-0.339952	0.182019	6
C	0.736121	0.589149	-0.985321	6
C	0.312261	1.146308	0.343379	6
C	-1.059149	1.713618	0.516799	6
O	1.330701	1.846268	1.077079	8
H	-1.124059	-3.199421	-0.478441	1
H	0.561321	-3.050662	0.048189	1
H	0.044821	-2.379542	-1.519421	1
H	-0.891569	-1.468412	1.127669	1
H	1.439921	-0.724862	0.659289	1
H	0.010041	0.558378	-1.788971	1
H	1.751861	0.765288	-1.316231	1
H	-1.798749	1.226948	-0.128611	1
H	-1.060369	2.781708	0.272959	1
H	-1.386839	1.601788	1.555709	1
H	1.437771	2.752809	0.741869	1
Es	1.573023	1.719502	1.009316	99
Es	0.245042	0.568810	-1.522366	99
Es	0.312103	-2.894363	-0.116149	99
Es	-1.543855	1.385200	0.081947	99
Es	-0.848035	-1.145578	0.011531	99
Es	-0.844480	-2.989389	-0.471892	99
Es	1.330530	1.846436	1.076877	99
Es	-0.093766	-0.865715	0.174862	99
Es	1.230292	1.855101	1.374202	99
Es	-1.059116	1.713619	0.516795	99
Es	0.958279	1.598132	0.774387	99
Es	-0.045144	-2.428642	-1.187769	99
Es	1.154746	-0.600761	0.500855	99
Es	-1.048379	2.448313	0.345988	99
Es	-0.378652	1.421567	0.421526	99
Es	0.736085	0.589097	-0.985173	99
Es	1.363424	2.337534	0.874773	99
Es	0.522025	1.046512	-0.418437	99
Es	-1.278160	1.632565	1.223537	99
Es	1.417512	0.712699	-1.203353	99
Es	0.368368	0.367881	0.458531	99
Es	0.539738	-0.339882	0.181934	99
Es	-0.592157	-1.280065	0.170284	99
Es	-0.251333	-2.539520	-0.477845	99
Es	0.687361	-0.026963	-0.515315	99
Es	-0.746448	-1.401409	0.757846	99
Es	0.312485	1.146295	0.343403	99
Es	-0.415518	-1.829633	-0.099774	99
46
Properties=species:S:1:pos:R:3:Z:I:1 energy=-325.1220050948879 field_type=dipole dipole="0.000000 0.000000 0.000000" charge=0
C	-0.251299	-2.539641	-0.477911	6
N	-0.592679	-1.279772	0.169949	7
C	0.539891	-0.339952	0.182019	6
C	0.736121	0.589149	-0.985321	6
C	0.312261	1.146308	0.343379	6
C	-1.059149	1.713618	0.516799	6
O	1.330701	1.846268	1.077079	8
H	-1.124059	-3.199421	-0.478441	1
H	0.561321	-3.050662	0.048189	1
H	0.044821	-2.379542	-1.519421	1
H	-0.891569	-1.468412	1.127669	1
H	1.439921	-0.724862	0.659289	1
H	0.010041	0.558378	-1.788971	1
H	1.751861	0.765288	-1.316231	1
H	-1.798749	1.226948	-0.128611	1
H	-1.060369	2.781708	0.272959	1
H	-1.386839	1.601788	1.555709	1
H	1.437771	2.752809	0.741869	1
Es	0.312486	1.146302	0.343409	99
Es	1.571358	1.720636	1.004277	99
Es	1.330497	1.846452	1.076872	99
Es	-0.378682	1.421576	0.421620	99
Es	0.368406	0.367985	0.458452	99
Es	1.235218	1.852097	1.376475	99
Es	-0.844484	-2.989408	-0.471884	99
Es	-1.059117	1.713619	0.516795	99
Es	1.417433	0.712698	-1.203255	99
Es	1.361876	2.338203	0.875771	99
Es	-0.251334	-2.539523	-0.477845	99
Es	-0.592151	-1.280057	0.170275	99
Es	0.521827	1.046749	-0.418337	99
Es	0.539738	-0.339881	0.181933	99
Es	-1.543724	1.385123	0.081944	99
Es	-1.278179	1.632449	1.223443	99
Es	-1.048463	2.448438	0.346010	99
Es	0.956597	1.599345	0.776193	99
Es	-0.045043	-2.428658	-1.187795	99
Es	1.154721	-0.600744	0.500711	99
Es	-0.847791	-1.145597	0.011395	99
Es	-0.093665	-0.865874	0.174905	99
Es	0.736085	0.589099	-0.985162	99
Es	0.312024	-2.894324	-0.116123	99
Es	-0.415506	-1.829675	-0.099734	99
Es	-0.746789	-1.401268	0.757889	99
Es	0.687371	-0.027193	-0.515371	99
Es	0.245263	0.568775	-1.522341	99
