46
Properties=species:S:1:pos:R:3:Z:I:1 energy=-325.11137603068676 field_type=dipole dipole="0.000000 0.000000 0.000000" charge=0
C	-1.751403	-1.530092	-0.139709	6
N	-0.357403	-1.183322	0.108101	7
C	-0.089973	0.257808	-0.018179	6
C	-0.879514	1.108258	0.981891	6
C	1.387587	0.436998	0.221461	6
C	2.364926	0.540478	-0.923089	6
O	1.915077	1.701658	-0.212129	8
H	-1.855833	-2.619582	-0.145909	1
H	-2.096573	-1.155692	-1.109059	1
H	-2.409113	-1.155042	0.650691	1
H	0.220507	-1.680472	-0.569199	1
H	-0.338813	0.585678	-1.036959	1
H	-0.704803	0.778708	2.010461	1
H	-1.954003	1.071818	0.783091	1
H	-0.573533	2.157088	0.917561	1
H	1.728677	0.053548	1.174130	1
H	2.009247	0.412388	-1.936639	1
H	3.384947	0.219768	-0.756509	1
Es	-0.757630	0.878147	1.678509	99
Es	1.665591	1.276805	0.031248	99
Es	-0.879500	1.108233	0.981861	99
Es	-1.819235	-2.273782	-0.149378	99
Es	-0.017761	-1.470029	-0.323810	99
Es	2.138600	1.794812	-0.020975	99
Es	1.622138	0.185004	0.871160	99
Es	-1.992047	-1.265161	-0.810460	99
Es	-0.967775	-1.314458	-0.023328	99
Es	1.387719	0.437276	0.221322	99
Es	-1.751275	-1.530063	-0.139691	99
Es	-0.258941	0.488521	-0.723608	99
Es	3.063102	0.330047	-0.813402	99
Es	2.123054	0.458629	-1.616294	99
Es	1.867070	0.240167	-0.390798	99
Es	-0.261863	-0.555476	0.030333	99
Es	1.915019	1.701343	-0.212201	99
Es	-0.669922	1.812814	0.931592	99
Es	2.364812	0.540706	-0.922925	99
Es	-0.264158	-1.286421	0.434038	99
Es	-0.357566	-1.183131	0.107540	99
Es	-0.089981	0.257686	-0.018115	99
Es	0.656992	0.350363	0.094337	99
Es	-2.197658	-1.266511	0.395587	99
Es	-1.609908	1.076365	0.842380	99
Es	1.696901	1.842071	-0.380268	99
Es	2.148601	1.322161	-0.550014	99
Es	-0.488406	0.674324	0.488135	99
46
Properties=species:S:1:pos:R:3:Z:I:1 energy=-325.11137603068676 field_type=dipole dipole="0.000000 0.000000 0.000000" charge=0
C	-1.751403	-1.530092	-0.139709	6
N	-0.357403	-1.183322	0.108101	7
C	-0.089973	0.257808	-0.018179	6
C	-0.879514	1.108258	0.981891	6
C	1.387587	0.436998	0.221461	6
C	2.364926	0.540478	-0.923089	6
O	1.915077	1.701658	-0.212129	8
H	-1.855833	-2.619582	-0.145909	1
H	-2.096573	-1.155692	-1.109059	1
H	-2.409113	-1.155042	0.650691	1
H	0.220507	-1.680472	-0.569199	1
H	-0.338813	0.585678	-1.036959	1
H	-0.704803	0.778708	2.010461	1
H	-1.954003	1.071818	0.783091	1
H	-0.573533	2.157088	0.917561	1
H	1.728677	0.053548	1.174130	1
H	2.009247	0.412388	-1.936639	1
H	3.384947	0.219768	-0.756509	1
Es	2.364816	0.540708	-0.922927	99
Es	-1.608134	1.076414	0.843250	99
Es	1.699520	1.840172	-0.377998	99
Es	1.621458	0.185575	0.871083	99
Es	1.866834	0.237572	-0.391227	99
Es	-2.198384	-1.265718	0.396429	99
Es	-1.818654	-2.273995	-0.150114	99
Es	-0.758729	0.878191	1.678291	99
Es	2.134870	1.795594	-0.025866	99
Es	-0.262401	-0.554987	0.030041	99
Es	-0.089981	0.257685	-0.018115	99
Es	-0.016699	-1.472296	-0.324254	99
Es	-0.357566	-1.183133	0.107565	99
Es	3.062693	0.330828	-0.814019	99
Es	2.151264	1.322210	-0.553067	99
Es	-0.967720	-1.315365	-0.020912	99
Es	2.123824	0.459243	-1.615913	99
Es	1.915112	1.701321	-0.212126	99
Es	-0.488643	0.674224	0.487764	99
Es	-1.751278	-1.530064	-0.139691	99
Es	0.656663	0.350703	0.094350	99
Es	-0.258064	0.488142	-0.723346	99
Es	1.663878	1.277910	0.036837	99
Es	-0.265003	-1.284316	0.431558	99
Es	-1.991224	-1.265560	-0.809952	99
Es	1.387718	0.437278	0.221321	99
Es	-0.879501	1.108234	0.981866	99
Es	-0.670696	1.813876	0.931951	99
46
Properties=species:S:1:pos:R:3:Z:I:1 energy=-325.11137603068676 field_type=dipole dipole="0.000000 0.000000 0.000000" charge=0
C	-1.751403	-1.530092	-0.139709	6
N	-0.357403	-1.183322	0.108101	7
C	-0.089973	0.257808	-0.018179	6
C	-0.879514	1.108258	0.981891	6
C	1.387587	0.436998	0.221461	6
C	2.364926	0.540478	-0.923089	6
O	1.915077	1.701658	-0.212129	8
H	-1.855833	-2.619582	-0.145909	1
H	-2.096573	-1.155692	-1.109059	1
H	-2.409113	-1.155042	0.650691	1
H	0.220507	-1.680472	-0.569199	1
H	-0.338813	0.585678	-1.036959	1
H	-0.704803	0.778708	2.010461	1
H	-1.954003	1.071818	0.783091	1
H	-0.573533	2.157088	0.917561	1
H	1.728677	0.053548	1.174130	1
H	2.009247	0.412388	-1.936639	1
H	3.384947	0.219768	-0.756509	1
Es	2.155029	1.323685	-0.554592	99
Es	1.866595	0.235798	-0.391357	99
Es	3.062322	0.331474	-0.814473	99
Es	-2.198907	-1.265307	0.396876	99
Es	-0.089975	0.257685	-0.018114	99
Es	-1.990657	-1.265818	-0.809582	99
Es	2.124437	0.459766	-1.615627	99
Es	1.621110	0.185914	0.870911	99
Es	-0.879503	1.108230	0.981860	99
Es	-0.264996	-1.283560	0.429173	99
Es	-0.488628	0.674341	0.487691	99
Es	-1.606722	1.076389	0.843363	99
Es	-0.671234	1.814605	0.932216	99
Es	-0.257521	0.487981	-0.723265	99
Es	1.662696	1.277979	0.040861	99
Es	-0.016503	-1.473089	-0.325109	99
Es	1.701646	1.841068	-0.376488	99
Es	2.364816	0.540717	-0.922924	99
Es	1.915068	1.701299	-0.212157	99
Es	-0.759701	0.877964	1.678364	99
Es	-0.967993	-1.315999	-0.018780	99
Es	-0.262516	-0.554625	0.030843	99
Es	-0.357560	-1.183136	0.107511	99
Es	-1.818257	-2.274088	-0.150636	99
Es	0.656289	0.350809	0.094448	99
Es	2.130195	1.793150	-0.029866	99
Es	1.387715	0.437274	0.221320	99
Es	-1.751273	-1.530061	-0.139691	99
46
Properties=species:S:1:pos:R:3:Z:I:1 energy=-325.11137603068676 field_type=dipole dipole="0.000000 0.000000 0.000000" charge=0
C	-1.751403	-1.530092	-0.139709	6
N	-0.357403	-1.183322	0.108101	7
C	-0.089973	0.257808	-0.018179	6
C	-0.879514	1.108258	0.981891	6
C	1.387587	0.436998	0.221461	6
C	2.364926	0.540478	-0.923089	6
O	1.915077	1.701658	-0.212129	8
H	-1.855833	-2.619582	-0.145909	1
H	-2.096573	-1.155692	-1.109059	1
H	-2.409113	-1.155042	0.650691	1
H	0.220507	-1.680472	-0.569199	1
H	-0.338813	0.585678	-1.036959	1
H	-0.704803	0.778708	2.010461	1
H	-1.954003	1.071818	0.783091	1
H	-0.573533	2.157088	0.917561	1
H	1.728677	0.053548	1.174130	1
H	2.009247	0.412388	-1.936639	1
H	3.384947	0.219768	-0.756509	1
Es	1.620860	0.186209	0.870840	99
Es	-0.968689	-1.317627	-0.015344	99
Es	-0.257189	0.487886	-0.723241	99
Es	-0.263241	-0.554429	0.030494	99
Es	-0.089981	0.257685	-0.018115	99
Es	-1.751276	-1.530061	-0.139690	99
Es	2.128432	1.785907	-0.031443	99
Es	-0.488773	0.674352	0.487593	99
Es	-0.263701	-1.281697	0.426339	99
Es	1.660643	1.278502	0.041450	99
Es	2.124959	0.460130	-1.615526	99
Es	1.915099	1.701285	-0.212150	99
Es	-0.879500	1.108232	0.981861	99
Es	-0.357554	-1.183114	0.107518	99
Es	1.387717	0.437274	0.221322	99
Es	0.656078	0.350895	0.094550	99
Es	-1.990381	-1.265974	-0.809240	99
Es	1.866297	0.234357	-0.391330	99
Es	-0.671625	1.814986	0.932241	99
Es	-0.760286	0.877826	1.678577	99
Es	2.364819	0.540698	-0.922930	99
Es	3.061903	0.332047	-0.814719	99
Es	-0.016501	-1.473706	-0.325780	99
Es	-1.817984	-2.274155	-0.151012	99
Es	-2.199138	-1.265030	0.397271	99
Es	-1.605612	1.076518	0.843546	99
Es	1.704630	1.847003	-0.373811	99
Es	2.155967	1.324443	-0.556496	99
46
Properties=species:S:1:pos:R:3:Z:I:1 energy=-325.11137603068676 field_type=dipole dipole="0.000000 0.000000 0.000000" charge=0
C	-1.751403	-1.530092	-0.139709	6
N	-0.357403	-1.183322	0.108101	7
C	-0.089973	0.257808	-0.018179	6
C	-0.879514	1.108258	0.981891	6
C	1.387587	0.436998	0.221461	6
C	2.364926	0.540478	-0.923089	6
O	1.915077	1.701658	-0.212129	8
H	-1.855833	-2.619582	-0.145909	1
H	-2.096573	-1.155692	-1.109059	1
H	-2.409113	-1.155042	0.650691	1
H	0.220507	-1.680472	-0.569199	1
H	-0.338813	0.585678	-1.036959	1
H	-0.704803	0.778708	2.010461	1
H	-1.954003	1.071818	0.783091	1
H	-0.573533	2.157088	0.917561	1
H	1.728677	0.053548	1.174130	1
H	2.009247	0.412388	-1.936639	1
H	3.384947	0.219768	-0.756509	1
Es	3.061731	0.332427	-0.815037	99
Es	1.387719	0.437276	0.221323	99
Es	-2.199399	-1.264808	0.397455	99
Es	-0.089981	0.257686	-0.018114	99
Es	-0.263370	-0.554315	0.030292	99
Es	-1.604613	1.076590	0.843543	99
Es	-1.817731	-2.274227	-0.151245	99
Es	0.655751	0.350952	0.094667	99
Es	1.915133	1.701246	-0.212121	99
Es	-1.751274	-1.530063	-0.139690	99
Es	1.659158	1.278408	0.042542	99
Es	-0.671962	1.815344	0.932373	99
Es	-0.760953	0.877632	1.678721	99
Es	1.866089	0.233426	-0.391254	99
Es	-1.990100	-1.266156	-0.809014	99
Es	-0.357568	-1.183094	0.107500	99
Es	1.706503	1.846967	-0.373542	99
Es	-0.968873	-1.318056	-0.014145	99
Es	-0.263758	-1.280757	0.425090	99
Es	2.158540	1.325628	-0.556564	99
Es	-0.256783	0.487858	-0.723327	99
Es	-0.016212	-1.474445	-0.325702	99
Es	-0.879506	1.108231	0.981860	99
Es	1.620647	0.186372	0.870845	99
Es	-0.488812	0.674379	0.487473	99
Es	2.364818	0.540707	-0.922930	99
Es	2.125547	1.784765	-0.032909	99
Es	2.125234	0.460471	-1.615311	99
46
Properties=species:S:1:pos:R:3:Z:I:1 energy=-325.11137603068676 field_type=dipole dipole="0.000000 0.000000 0.000000" charge=0
C	-1.751403	-1.530092	-0.139709	6
N	-0.357403	-1.183322	0.108101	7
C	-0.089973	0.257808	-0.018179	6
C	-0.879514	1.108258	0.981891	6
C	1.387587	0.436998	0.221461	6
C	2.364926	0.540478	-0.923089	6
O	1.915077	1.701658	-0.212129	8
H	-1.855833	-2.619582	-0.145909	1
H	-2.096573	-1.155692	-1.109059	1
H	-2.409113	-1.155042	0.650691	1
H	0.220507	-1.680472	-0.569199	1
H	-0.338813	0.585678	-1.036959	1
H	-0.704803	0.778708	2.010461	1
H	-1.954003	1.071818	0.783091	1
H	-0.573533	2.157088	0.917561	1
H	1.728677	0.053548	1.174130	1
H	2.009247	0.412388	-1.936639	1
H	3.384947	0.219768	-0.756509	1
Es	-0.016337	-1.474835	-0.325959	99
Es	1.620447	0.186449	0.870853	99
Es	2.125533	0.460600	-1.615293	99
Es	1.915082	1.701327	-0.212150	99
Es	-0.488922	0.674368	0.487428	99
Es	2.158934	1.326085	-0.557932	99
Es	1.865977	0.232924	-0.391224	99
Es	-0.879501	1.108233	0.981862	99
Es	1.707046	1.847009	-0.372295	99
Es	0.655645	0.350962	0.094616	99
Es	-1.603906	1.076498	0.843753	99
Es	-0.969593	-1.319440	-0.011138	99
Es	-1.751268	-1.530064	-0.139689	99
Es	3.061456	0.332652	-0.815075	99
Es	-0.263830	-0.554465	0.029570	99
Es	1.387717	0.437274	0.221323	99
Es	-0.761235	0.877560	1.678724	99
Es	-1.817589	-2.274177	-0.151366	99
Es	-0.256535	0.487839	-0.723302	99
Es	-2.199529	-1.264681	0.397640	99
Es	-0.357544	-1.183111	0.107487	99
Es	2.124264	1.783557	-0.035716	99
Es	-1.989972	-1.266289	-0.808916	99
Es	-0.672259	1.815732	0.932354	99
Es	1.659587	1.279003	0.045398	99
Es	-0.089981	0.257685	-0.018114	99
Es	2.364816	0.540719	-0.922924	99
Es	-0.262531	-1.278970	0.422861	99
46
Properties=species:S:1:pos:R:3:Z:I:1 energy=-325.11137603068676 field_type=dipole dipole="0.000000 0.000000 0.000000" charge=0
C	-1.751403	-1.530092	-0.139709	6
N	-0.357403	-1.183322	0.108101	7
C	-0.089973	0.257808	-0.018179	6
C	-0.879514	1.108258	0.981891	6
C	1.387587	0.436998	0.221461	6
C	2.364926	0.540478	-0.923089	6
O	1.915077	1.701658	-0.212129	8
H	-1.855833	-2.619582	-0.145909	1
H	-2.096573	-1.155692	-1.109059	1
H	-2.409113	-1.155042	0.650691	1
H	0.220507	-1.680472	-0.569199	1
H	-0.338813	0.585678	-1.036959	1
H	-0.704803	0.778708	2.010461	1
H	-1.954003	1.071818	0.783091	1
H	-0.573533	2.157088	0.917561	1
H	1.728677	0.053548	1.174130	1
H	2.009247	0.412388	-1.936639	1
H	3.384947	0.219768	-0.756509	1
Es	-0.879507	1.108232	0.981860	99
Es	-1.751275	-1.530063	-0.139691	99
Es	1.658128	1.278591	0.045050	99
Es	-1.603073	1.076578	0.843562	99
Es	-0.016290	-1.475066	-0.326206	99
Es	1.915072	1.701330	-0.212161	99
Es	0.655343	0.351020	0.094746	99
Es	2.159904	1.327315	-0.558634	99
Es	1.708951	1.848835	-0.371009	99
Es	-1.989782	-1.266338	-0.808741	99
Es	-0.761821	0.877334	1.679023	99
Es	1.620352	0.186626	0.870895	99
Es	-0.263649	-0.554182	0.030289	99
Es	-0.488847	0.674483	0.487385	99
Es	1.387717	0.437276	0.221322	99
Es	-0.672549	1.815902	0.932402	99
Es	3.061285	0.332972	-0.815274	99
Es	-0.256301	0.487833	-0.723414	99
Es	-1.817458	-2.274211	-0.151578	99
Es	2.125735	0.460820	-1.615186	99
Es	1.865879	0.232258	-0.391166	99
Es	2.122947	1.780718	-0.036106	99
Es	2.364814	0.540716	-0.922924	99
Es	-0.089981	0.257686	-0.018114	99
Es	-2.199686	-1.264581	0.397768	99
Es	-0.262509	-1.278699	0.421160	99
Es	-0.357558	-1.183116	0.107500	99
Es	-0.969867	-1.319827	-0.009980	99
46
Properties=species:S:1:pos:R:3:Z:I:1 energy=-325.11137603068676 field_type=dipole dipole="0.000000 0.000000 0.000000" charge=0
C	-1.751403	-1.530092	-0.139709	6
N	-0.357403	-1.183322	0.108101	7
C	-0.089973	0.257808	-0.018179	6
C	-0.879514	1.108258	0.981891	6
C	1.387587	0.436998	0.221461	6
C	2.364926	0.540478	-0.923089	6
O	1.915077	1.701658	-0.212129	8
H	-1.855833	-2.619582	-0.145909	1
H	-2.096573	-1.155692	-1.109059	1
H	-2.409113	-1.155042	0.650691	1
H	0.220507	-1.680472	-0.569199	1
H	-0.338813	0.585678	-1.036959	1
H	-0.704803	0.778708	2.010461	1
H	-1.954003	1.071818	0.783091	1
H	-0.573533	2.157088	0.917561	1
H	1.728677	0.053548	1.174130	1
H	2.009247	0.412388	-1.936639	1
H	3.384947	0.219768	-0.756509	1
Es	1.712020	1.856460	-0.367097	99
Es	-0.672508	1.816045	0.932518	99
Es	-0.089982	0.257684	-0.018114	99
Es	1.656940	1.278999	0.045368	99
Es	-0.970226	-1.320497	-0.008193	99
Es	-0.879501	1.108233	0.981862	99
Es	-0.016799	-1.474780	-0.326828	99
Es	2.158586	1.327914	-0.560979	99
Es	-1.751274	-1.530063	-0.139691	99
Es	-0.488994	0.674471	0.487277	99
Es	3.061042	0.333214	-0.815327	99
Es	-1.817401	-2.274096	-0.151727	99
Es	1.620265	0.186716	0.870836	99
Es	-0.263749	-0.554105	0.030532	99
Es	2.122469	1.771859	-0.038044	99
Es	0.655365	0.350960	0.094765	99
Es	-0.261576	-1.278404	0.419598	99
Es	-0.762200	0.877152	1.679051	99
Es	1.387715	0.437267	0.221321	99
Es	-1.989664	-1.266480	-0.808611	99
Es	-0.256160	0.487793	-0.723336	99
Es	-2.199876	-1.264544	0.397866	99
Es	-1.602631	1.076739	0.843521	99
Es	1.915064	1.701484	-0.212152	99
Es	-0.357567	-1.183122	0.107536	99
Es	1.865926	0.231984	-0.391005	99
Es	2.125876	0.460845	-1.615243	99
Es	2.364815	0.540717	-0.922924	99
46
Properties=species:S:1:pos:R:3:Z:I:1 energy=-325.11137603068676 field_type=dipole dipole="0.000000 0.000000 0.000000" charge=0
C	-1.751403	-1.530092	-0.139709	6
N	-0.357403	-1.183322	0.108101	7
C	-0.089973	0.257808	-0.018179	6
C	-0.879514	1.108258	0.981891	6
C	1.387587	0.436998	0.221461	6
C	2.364926	0.540478	-0.923089	6
O	1.915077	1.701658	-0.212129	8
H	-1.855833	-2.619582	-0.145909	1
H	-2.096573	-1.155692	-1.109059	1
H	-2.409113	-1.155042	0.650691	1
H	0.220507	-1.680472	-0.569199	1
H	-0.338813	0.585678	-1.036959	1
H	-0.704803	0.778708	2.010461	1
H	-1.954003	1.071818	0.783091	1
H	-0.573533	2.157088	0.917561	1
H	1.728677	0.053548	1.174130	1
H	2.009247	0.412388	-1.936639	1
H	3.384947	0.219768	-0.756509	1
Es	-0.672840	1.816230	0.932449	99
Es	-1.989527	-1.266441	-0.808686	99
Es	-0.357570	-1.183100	0.107504	99
Es	1.915130	1.701313	-0.212112	99
Es	-1.817213	-2.274130	-0.151761	99
Es	1.620158	0.186739	0.870881	99
Es	1.657295	1.278725	0.046667	99
Es	2.161198	1.328588	-0.559718	99
Es	-1.601923	1.076738	0.843571	99
Es	-0.762513	0.877067	1.679251	99
Es	-1.751275	-1.530063	-0.139691	99
Es	1.387717	0.437272	0.221323	99
Es	2.364810	0.540717	-0.922922	99
Es	1.865627	0.231583	-0.391144	99
Es	1.710779	1.849868	-0.369542	99
Es	3.060912	0.333268	-0.815302	99
Es	-0.879501	1.108233	0.981862	99
Es	-0.263982	-0.554120	0.030223	99
Es	-0.089980	0.257686	-0.018115	99
Es	-2.199895	-1.264483	0.397998	99
Es	-0.970722	-1.321482	-0.006262	99
Es	-0.016663	-1.475028	-0.326847	99
Es	-0.261099	-1.277317	0.417992	99
Es	0.655037	0.351043	0.094852	99
Es	-0.489097	0.674510	0.487210	99
Es	-0.255869	0.487798	-0.723457	99
Es	2.120768	1.778104	-0.038309	99
Es	2.126214	0.461127	-1.615136	99
46
Properties=species:S:1:pos:R:3:Z:I:1 energy=-325.11137603068676 field_type=dipole dipole="0.000000 0.000000 0.000000" charge=0
C	-1.751403	-1.530092	-0.139709	6
N	-0.357403	-1.183322	0.108101	7
C	-0.089973	0.257808	-0.018179	6
C	-0.879514	1.108258	0.981891	6
C	1.387587	0.436998	0.221461	6
C	2.364926	0.540478	-0.923089	6
O	1.915077	1.701658	-0.212129	8
H	-1.855833	-2.619582	-0.145909	1
H	-2.096573	-1.155692	-1.109059	1
H	-2.409113	-1.155042	0.650691	1
H	0.220507	-1.680472	-0.569199	1
H	-0.338813	0.585678	-1.036959	1
H	-0.704803	0.778708	2.010461	1
H	-1.954003	1.071818	0.783091	1
H	-0.573533	2.157088	0.917561	1
H	1.728677	0.053548	1.174130	1
H	2.009247	0.412388	-1.936639	1
H	3.384947	0.219768	-0.756509	1
Es	0.655079	0.350972	0.094756	99
Es	3.060946	0.333446	-0.815571	99
Es	2.364816	0.540717	-0.922927	99
Es	-1.989501	-1.266344	-0.808627	99
Es	-2.199884	-1.264522	0.398076	99
Es	-0.261141	-1.276600	0.416941	99
Es	2.119589	1.778222	-0.039414	99
Es	1.914633	1.701173	-0.212545	99
Es	1.657567	1.279142	0.047795	99
Es	2.126166	0.461267	-1.614940	99
Es	-1.751273	-1.530062	-0.139690	99
Es	-0.016511	-1.475474	-0.326658	99
Es	1.711380	1.849029	-0.368496	99
Es	-1.601603	1.076647	0.843505	99
Es	-0.264166	-0.553938	0.030113	99
Es	-1.817193	-2.274145	-0.151878	99
Es	-0.488907	0.674616	0.487248	99
Es	1.620066	0.186773	0.870939	99
Es	-0.879501	1.108232	0.981861	99
Es	-0.673051	1.816345	0.932433	99
Es	1.865653	0.231271	-0.391100	99
Es	-0.762704	0.877011	1.679349	99
Es	2.161919	1.329012	-0.560353	99
Es	-0.255861	0.487786	-0.723515	99
Es	1.387716	0.437269	0.221321	99
Es	-0.357562	-1.183104	0.107472	99
Es	-0.970719	-1.321983	-0.005202	99
Es	-0.089981	0.257684	-0.018114	99
46
Properties=species:S:1:pos:R:3:Z:I:1 energy=-325.11137603068676 field_type=dipole dipole="0.000000 0.000000 0.000000" charge=0
C	-1.751403	-1.530092	-0.139709	6
N	-0.357403	-1.183322	0.108101	7
C	-0.089973	0.257808	-0.018179	6
C	-0.879514	1.108258	0.981891	6
C	1.387587	0.436998	0.221461	6
C	2.364926	0.540478	-0.923089	6
O	1.915077	1.701658	-0.212129	8
H	-1.855833	-2.619582	-0.145909	1
H	-2.096573	-1.155692	-1.109059	1
H	-2.409113	-1.155042	0.650691	1
H	0.220507	-1.680472	-0.569199	1
H	-0.338813	0.585678	-1.036959	1
H	-0.704803	0.778708	2.010461	1
H	-1.954003	1.071818	0.783091	1
H	-0.573533	2.157088	0.917561	1
H	1.728677	0.053548	1.174130	1
H	2.009247	0.412388	-1.936639	1
H	3.384947	0.219768	-0.756509	1
Es	-1.751275	-1.530063	-0.139691	99
Es	2.364814	0.540716	-0.922925	99
Es	-0.255685	0.487794	-0.723536	99
Es	1.657472	1.279558	0.048589	99
Es	-1.817087	-2.274036	-0.151862	99
Es	1.711797	1.851003	-0.367835	99
Es	-0.489016	0.674566	0.487242	99
Es	2.119453	1.775748	-0.040570	99
Es	-0.016478	-1.475501	-0.326850	99
Es	2.126369	0.461272	-1.615046	99
Es	-1.989400	-1.266541	-0.808638	99
Es	1.387716	0.437274	0.221323	99
Es	-0.762945	0.876959	1.679409	99
Es	1.620036	0.186775	0.870915	99
Es	-0.879502	1.108233	0.981862	99
Es	-0.357572	-1.183107	0.107480	99
Es	-0.260853	-1.276081	0.415624	99
Es	-0.089981	0.257685	-0.018115	99
Es	3.060714	0.333653	-0.815510	99
Es	1.915130	1.701248	-0.212124	99
Es	-1.601230	1.076674	0.843497	99
Es	-0.673104	1.816484	0.932388	99
Es	2.161352	1.328907	-0.561182	99
Es	-0.264183	-0.553991	0.030300	99
Es	0.654918	0.350988	0.094839	99
Es	-0.971031	-1.322453	-0.003972	99
Es	1.865588	0.231118	-0.390966	99
Es	-2.200043	-1.264438	0.398129	99
46
Properties=species:S:1:pos:R:3:Z:I:1 energy=-325.11137603068676 field_type=dipole dipole="0.000000 0.000000 0.000000" charge=0
C	-1.751403	-1.530092	-0.139709	6
N	-0.357403	-1.183322	0.108101	7
C	-0.089973	0.257808	-0.018179	6
C	-0.879514	1.108258	0.981891	6
C	1.387587	0.436998	0.221461	6
C	2.364926	0.540478	-0.923089	6
O	1.915077	1.701658	-0.212129	8
H	-1.855833	-2.619582	-0.145909	1
H	-2.096573	-1.155692	-1.109059	1
H	-2.409113	-1.155042	0.650691	1
H	0.220507	-1.680472	-0.569199	1
H	-0.338813	0.585678	-1.036959	1
H	-0.704803	0.778708	2.010461	1
H	-1.954003	1.071818	0.783091	1
H	-0.573533	2.157088	0.917561	1
H	1.728677	0.053548	1.174130	1
H	2.009247	0.412388	-1.936639	1
H	3.384947	0.219768	-0.756509	1
Es	0.654873	0.351001	0.094871	99
Es	-0.260196	-1.275828	0.414816	99
Es	2.126433	0.461270	-1.615219	99
Es	1.656060	1.279475	0.047794	99
Es	1.914927	1.701283	-0.212281	99
Es	1.714700	1.857383	-0.364752	99
Es	2.364813	0.540711	-0.922925	99
Es	-0.879501	1.108233	0.981862	99
Es	-0.763060	0.876858	1.679419	99
Es	1.620030	0.186872	0.870856	99
Es	-2.200092	-1.264482	0.398214	99
Es	-0.089980	0.257685	-0.018115	99
Es	2.119053	1.768619	-0.041360	99
Es	-0.673023	1.816463	0.932480	99
Es	3.060485	0.333820	-0.815507	99
Es	-1.989448	-1.266573	-0.808393	99
Es	1.387717	0.437271	0.221321	99
Es	-1.751274	-1.530063	-0.139690	99
Es	2.160563	1.329599	-0.562570	99
Es	-0.264358	-0.554108	0.030299	99
Es	-0.255687	0.487797	-0.723497	99
Es	-0.357563	-1.183134	0.107570	99
Es	-0.488983	0.674616	0.487231	99
Es	-1.601152	1.076791	0.843467	99
Es	-0.971112	-1.322871	-0.002965	99
Es	1.865658	0.230929	-0.390807	99
Es	-1.817121	-2.274003	-0.152067	99
Es	-0.016790	-1.475171	-0.327274	99
46
Properties=species:S:1:pos:R:3:Z:I:1 energy=-325.11137603068676 field_type=dipole dipole="0.000000 0.000000 0.000000" charge=0
C	-1.751403	-1.530092	-0.139709	6
N	-0.357403	-1.183322	0.108101	7
C	-0.089973	0.257808	-0.018179	6
C	-0.879514	1.108258	0.981891	6
C	1.387587	0.436998	0.221461	6
C	2.364926	0.540478	-0.923089	6
O	1.915077	1.701658	-0.212129	8
H	-1.855833	-2.619582	-0.145909	1
H	-2.096573	-1.155692	-1.109059	1
H	-2.409113	-1.155042	0.650691	1
H	0.220507	-1.680472	-0.569199	1
H	-0.338813	0.585678	-1.036959	1
H	-0.704803	0.778708	2.010461	1
H	-1.954003	1.071818	0.783091	1
H	-0.573533	2.157088	0.917561	1
H	1.728677	0.053548	1.174130	1
H	2.009247	0.412388	-1.936639	1
H	3.384947	0.219768	-0.756509	1
Es	-0.673263	1.816529	0.932443	99
Es	-0.264356	-0.554033	0.030388	99
Es	-0.879500	1.108232	0.981862	99
Es	2.117754	1.770478	-0.040369	99
Es	-0.357566	-1.183112	0.107503	99
Es	-0.259922	-1.275226	0.413306	99
Es	1.915064	1.701457	-0.212155	99
Es	-0.971520	-1.323577	-0.001247	99
Es	-0.016830	-1.475279	-0.327387	99
Es	1.655465	1.278943	0.046842	99
Es	-1.751271	-1.530061	-0.139690	99
Es	-1.989306	-1.266426	-0.808570	99
Es	-0.489033	0.674577	0.487118	99
Es	-0.089981	0.257684	-0.018113	99
Es	2.162720	1.330361	-0.561730	99
Es	-2.200108	-1.264538	0.398265	99
Es	2.364815	0.540715	-0.922924	99
Es	-0.763510	0.876743	1.679691	99
Es	2.126529	0.461407	-1.615185	99
Es	-1.600431	1.076916	0.843397	99
Es	1.619951	0.186872	0.870970	99
Es	0.654707	0.350983	0.094902	99
Es	1.865524	0.230772	-0.390784	99
Es	3.060500	0.333905	-0.815537	99
Es	-1.817004	-2.274007	-0.152087	99
Es	1.387717	0.437274	0.221323	99
Es	-0.255478	0.487855	-0.723605	99
Es	1.714308	1.854997	-0.365848	99
46
Properties=species:S:1:pos:R:3:Z:I:1 energy=-325.11137603068676 field_type=dipole dipole="0.000000 0.000000 0.000000" charge=0
C	-1.751403	-1.530092	-0.139709	6
N	-0.357403	-1.183322	0.108101	7
C	-0.089973	0.257808	-0.018179	6
C	-0.879514	1.108258	0.981891	6
C	1.387587	0.436998	0.221461	6
C	2.364926	0.540478	-0.923089	6
O	1.915077	1.701658	-0.212129	8
H	-1.855833	-2.619582	-0.145909	1
H	-2.096573	-1.155692	-1.109059	1
H	-2.409113	-1.155042	0.650691	1
H	0.220507	-1.680472	-0.569199	1
H	-0.338813	0.585678	-1.036959	1
H	-0.704803	0.778708	2.010461	1
H	-1.954003	1.071818	0.783091	1
H	-0.573533	2.157088	0.917561	1
H	1.728677	0.053548	1.174130	1
H	2.009247	0.412388	-1.936639	1
H	3.384947	0.219768	-0.756509	1
Es	1.656432	1.279833	0.049022	99
Es	-0.971790	-1.324256	0.000441	99
Es	-1.600331	1.076904	0.843315	99
Es	3.060341	0.333968	-0.815512	99
Es	-2.200234	-1.264586	0.398323	99
Es	2.161396	1.329744	-0.562401	99
Es	0.654713	0.350952	0.094935	99
Es	-1.989276	-1.266511	-0.808592	99
Es	2.126646	0.461398	-1.615195	99
Es	1.915139	1.701591	-0.212071	99
Es	1.865549	0.230598	-0.390796	99
Es	1.619895	0.186881	0.870937	99
Es	-0.089980	0.257684	-0.018115	99
Es	2.118193	1.770543	-0.042198	99
Es	2.364817	0.540719	-0.922922	99
Es	-0.259513	-1.274295	0.411841	99
Es	1.387717	0.437271	0.221321	99
Es	-0.357557	-1.183137	0.107582	99
Es	-0.264520	-0.554115	0.030052	99
Es	-0.879501	1.108233	0.981862	99
Es	-0.255422	0.487874	-0.723639	99
Es	-0.488989	0.674618	0.487203	99
Es	-0.016810	-1.475415	-0.327360	99
Es	-0.673249	1.816593	0.932461	99
Es	1.714142	1.854621	-0.365616	99
Es	-1.816921	-2.273875	-0.152111	99
Es	-0.763639	0.876671	1.679698	99
Es	-1.751274	-1.530062	-0.139690	99
46
Properties=species:S:1:pos:R:3:Z:I:1 energy=-325.11137603068676 field_type=dipole dipole="0.000000 0.000000 0.000000" charge=0
C	-1.751403	-1.530092	-0.139709	6
N	-0.357403	-1.183322	0.108101	7
C	-0.089973	0.257808	-0.018179	6
C	-0.879514	1.108258	0.981891	6
C	1.387587	0.436998	0.221461	6
C	2.364926	0.540478	-0.923089	6
O	1.915077	1.701658	-0.212129	8
H	-1.855833	-2.619582	-0.145909	1
H	-2.096573	-1.155692	-1.109059	1
H	-2.409113	-1.155042	0.650691	1
H	0.220507	-1.680472	-0.569199	1
H	-0.338813	0.585678	-1.036959	1
H	-0.704803	0.778708	2.010461	1
H	-1.954003	1.071818	0.783091	1
H	-0.573533	2.157088	0.917561	1
H	1.728677	0.053548	1.174130	1
H	2.009247	0.412388	-1.936639	1
H	3.384947	0.219768	-0.756509	1
Es	1.865631	0.230510	-0.390794	99
Es	-0.259707	-1.274488	0.411836	99
Es	-0.357548	-1.183100	0.107472	99
Es	-0.488946	0.674675	0.487158	99
Es	-0.763829	0.876577	1.679841	99
Es	-1.989236	-1.266501	-0.808450	99
Es	-0.879501	1.108233	0.981862	99
Es	-1.600043	1.076990	0.843260	99
Es	1.619884	0.186950	0.870942	99
Es	-0.673315	1.816589	0.932459	99
Es	1.714513	1.854241	-0.365032	99
Es	-0.255356	0.487911	-0.723658	99
Es	2.162804	1.331175	-0.562520	99
Es	1.387717	0.437272	0.221323	99
Es	2.126544	0.461408	-1.615113	99
Es	0.654515	0.350952	0.094941	99
Es	-0.971784	-1.324249	0.000211	99
Es	1.656033	1.279054	0.048373	99
Es	-2.200171	-1.264464	0.398365	99
Es	2.364817	0.540720	-0.922924	99
Es	-1.751274	-1.530063	-0.139690	99
Es	1.915183	1.701504	-0.212044	99
Es	2.116773	1.770303	-0.042039	99
Es	-0.089981	0.257686	-0.018115	99
Es	-0.016780	-1.475381	-0.327362	99
Es	-1.816961	-2.273971	-0.152182	99
Es	-0.264398	-0.554109	0.030302	99
Es	3.060390	0.334021	-0.815646	99
46
Properties=species:S:1:pos:R:3:Z:I:1 energy=-325.11137603068676 field_type=dipole dipole="0.000000 0.000000 0.000000" charge=0
C	-1.751403	-1.530092	-0.139709	6
N	-0.357403	-1.183322	0.108101	7
C	-0.089973	0.257808	-0.018179	6
C	-0.879514	1.108258	0.981891	6
C	1.387587	0.436998	0.221461	6
C	2.364926	0.540478	-0.923089	6
O	1.915077	1.701658	-0.212129	8
H	-1.855833	-2.619582	-0.145909	1
H	-2.096573	-1.155692	-1.109059	1
H	-2.409113	-1.155042	0.650691	1
H	0.220507	-1.680472	-0.569199	1
H	-0.338813	0.585678	-1.036959	1
H	-0.704803	0.778708	2.010461	1
H	-1.954003	1.071818	0.783091	1
H	-0.573533	2.157088	0.917561	1
H	1.728677	0.053548	1.174130	1
H	2.009247	0.412388	-1.936639	1
H	3.384947	0.219768	-0.756509	1
Es	0.654476	0.350936	0.095008	99
Es	2.364815	0.540719	-0.922923	99
Es	1.915044	1.701410	-0.212164	99
Es	1.387716	0.437274	0.221323	99
Es	-0.255184	0.487917	-0.723769	99
Es	2.116359	1.773757	-0.042375	99
Es	1.713296	1.850757	-0.366576	99
Es	-0.357553	-1.183102	0.107469	99
Es	-0.089981	0.257686	-0.018115	99
Es	-1.599451	1.077125	0.843027	99
Es	-0.879501	1.108233	0.981862	99
Es	2.126708	0.461580	-1.615015	99
Es	-0.489007	0.674607	0.487222	99
Es	3.060376	0.334065	-0.815659	99
Es	2.163783	1.330878	-0.561850	99
Es	-2.200146	-1.264517	0.398429	99
Es	-1.816971	-2.273960	-0.152266	99
Es	-0.971822	-1.324751	0.001425	99
Es	1.619746	0.186965	0.870937	99
Es	-0.259340	-1.274138	0.410847	99
Es	-0.017013	-1.475381	-0.327544	99
Es	-1.751274	-1.530063	-0.139690	99
Es	1.865540	0.230281	-0.390797	99
Es	-0.673310	1.816729	0.932562	99
Es	-1.989234	-1.266411	-0.808417	99
Es	-0.264460	-0.553934	0.030216	99
Es	1.656829	1.279412	0.049676	99
Es	-0.764465	0.876371	1.679935	99
46
Properties=species:S:1:pos:R:3:Z:I:1 energy=-325.11137603068676 field_type=dipole dipole="0.000000 0.000000 0.000000" charge=0
C	-1.751403	-1.530092	-0.139709	6
N	-0.357403	-1.183322	0.108101	7
C	-0.089973	0.257808	-0.018179	6
C	-0.879514	1.108258	0.981891	6
C	1.387587	0.436998	0.221461	6
C	2.364926	0.540478	-0.923089	6
O	1.915077	1.701658	-0.212129	8
H	-1.855833	-2.619582	-0.145909	1
H	-2.096573	-1.155692	-1.109059	1
H	-2.409113	-1.155042	0.650691	1
H	0.220507	-1.680472	-0.569199	1
H	-0.338813	0.585678	-1.036959	1
H	-0.704803	0.778708	2.010461	1
H	-1.954003	1.071818	0.783091	1
H	-0.573533	2.157088	0.917561	1
H	1.728677	0.053548	1.174130	1
H	2.009247	0.412388	-1.936639	1
H	3.384947	0.219768	-0.756509	1
Es	3.060267	0.334209	-0.815623	99
Es	-0.673304	1.816720	0.932518	99
Es	1.619920	0.186937	0.870930	99
Es	1.915127	1.701324	-0.212113	99
Es	1.865444	0.230398	-0.390686	99
Es	-1.751273	-1.530062	-0.139690	99
Es	1.387717	0.437275	0.221322	99
Es	0.654458	0.350926	0.095000	99
Es	-0.489186	0.674619	0.487024	99
Es	2.364815	0.540717	-0.922925	99
Es	2.126776	0.461501	-1.615093	99
Es	-0.017020	-1.475433	-0.327729	99
Es	-1.989272	-1.266649	-0.808495	99
Es	-0.264437	-0.553893	0.030620	99
Es	-1.816807	-2.273844	-0.152147	99
Es	-0.357558	-1.183124	0.107546	99
Es	1.715581	1.855318	-0.364343	99
Es	2.116655	1.768824	-0.043317	99
Es	-0.089981	0.257687	-0.018114	99
Es	-1.599575	1.077129	0.843272	99
Es	-0.971806	-1.324696	0.001860	99
Es	-0.879500	1.108232	0.981862	99
Es	-0.255265	0.487838	-0.723702	99
Es	-0.764152	0.876403	1.679881	99
Es	1.655773	1.279906	0.049552	99
Es	-0.259361	-1.274049	0.410143	99
Es	2.162225	1.330761	-0.563205	99
Es	-2.200287	-1.264529	0.398431	99
46
Properties=species:S:1:pos:R:3:Z:I:1 energy=-325.11137603068676 field_type=dipole dipole="0.000000 0.000000 0.000000" charge=0
C	-1.751403	-1.530092	-0.139709	6
N	-0.357403	-1.183322	0.108101	7
C	-0.089973	0.257808	-0.018179	6
C	-0.879514	1.108258	0.981891	6
C	1.387587	0.436998	0.221461	6
C	2.364926	0.540478	-0.923089	6
O	1.915077	1.701658	-0.212129	8
H	-1.855833	-2.619582	-0.145909	1
H	-2.096573	-1.155692	-1.109059	1
H	-2.409113	-1.155042	0.650691	1
H	0.220507	-1.680472	-0.569199	1
H	-0.338813	0.585678	-1.036959	1
H	-0.704803	0.778708	2.010461	1
H	-1.954003	1.071818	0.783091	1
H	-0.573533	2.157088	0.917561	1
H	1.728677	0.053548	1.174130	1
H	2.009247	0.412388	-1.936639	1
H	3.384947	0.219768	-0.756509	1
Es	-0.017339	-1.475102	-0.328124	99
Es	2.364816	0.540714	-0.922924	99
Es	-1.751275	-1.530063	-0.139690	99
Es	-0.673379	1.816590	0.932423	99
Es	-0.763866	0.876559	1.679920	99
Es	2.116113	1.762179	-0.043362	99
Es	3.060078	0.334266	-0.815587	99
Es	1.387717	0.437272	0.221321	99
Es	-0.264440	-0.553877	0.030783	99
Es	0.654540	0.350939	0.094987	99
Es	-0.255291	0.487891	-0.723771	99
Es	1.718732	1.861499	-0.360886	99
Es	-0.089981	0.257685	-0.018115	99
Es	1.865590	0.230304	-0.390548	99
Es	-1.816851	-2.273811	-0.152041	99
Es	2.126733	0.461441	-1.615331	99
Es	-0.879500	1.108232	0.981862	99
Es	-2.200241	-1.264539	0.398393	99
Es	-1.989315	-1.266637	-0.808613	99
Es	1.914690	1.701247	-0.212491	99
Es	1.654230	1.279294	0.047645	99
Es	2.161700	1.331872	-0.564333	99
Es	1.619817	0.187009	0.871031	99
Es	-1.599872	1.077029	0.843310	99
Es	-0.357553	-1.183133	0.107574	99
Es	-0.258835	-1.273840	0.409009	99
Es	-0.971987	-1.325208	0.003202	99
Es	-0.489057	0.674629	0.487135	99
46
Properties=species:S:1:pos:R:3:Z:I:1 energy=-325.11137603068676 field_type=dipole dipole="0.000000 0.000000 0.000000" charge=0
C	-1.751403	-1.530092	-0.139709	6
N	-0.357403	-1.183322	0.108101	7
C	-0.089973	0.257808	-0.018179	6
C	-0.879514	1.108258	0.981891	6
C	1.387587	0.436998	0.221461	6
C	2.364926	0.540478	-0.923089	6
O	1.915077	1.701658	-0.212129	8
H	-1.855833	-2.619582	-0.145909	1
H	-2.096573	-1.155692	-1.109059	1
H	-2.409113	-1.155042	0.650691	1
H	0.220507	-1.680472	-0.569199	1
H	-0.338813	0.585678	-1.036959	1
H	-0.704803	0.778708	2.010461	1
H	-1.954003	1.071818	0.783091	1
H	-0.573533	2.157088	0.917561	1
H	1.728677	0.053548	1.174130	1
H	2.009247	0.412388	-1.936639	1
H	3.384947	0.219768	-0.756509	1
Es	2.115367	1.767998	-0.043441	99
Es	-1.989223	-1.266683	-0.808504	99
Es	-0.264541	-0.554056	0.030475	99
Es	-0.673407	1.816720	0.932477	99
Es	2.126869	0.461616	-1.615180	99
Es	-2.200262	-1.264426	0.398383	99
Es	-1.751273	-1.530063	-0.139690	99
Es	1.387717	0.437274	0.221326	99
Es	-0.489012	0.674668	0.487122	99
Es	1.716199	1.855689	-0.363993	99
Es	2.163377	1.331467	-0.563038	99
Es	1.865542	0.230175	-0.390771	99
Es	2.364814	0.540716	-0.922923	99
Es	-0.764414	0.876371	1.680035	99
Es	-0.255112	0.487920	-0.723817	99
Es	-0.972080	-1.325338	0.003236	99
Es	-0.259083	-1.273374	0.409002	99
Es	-1.599295	1.077145	0.843132	99
Es	3.060087	0.334319	-0.815649	99
Es	1.915271	1.701205	-0.212015	99
Es	-0.879501	1.108232	0.981862	99
Es	-0.357559	-1.183100	0.107463	99
Es	-0.089981	0.257684	-0.018116	99
Es	-1.816811	-2.273910	-0.152072	99
Es	1.655104	1.279697	0.049204	99
Es	1.619819	0.186930	0.870985	99
Es	-0.016949	-1.475380	-0.327750	99
Es	0.654314	0.350946	0.095034	99
46
Properties=species:S:1:pos:R:3:Z:I:1 energy=-325.11137603068676 field_type=dipole dipole="0.000000 0.000000 0.000000" charge=0
C	-1.751403	-1.530092	-0.139709	6
N	-0.357403	-1.183322	0.108101	7
C	-0.089973	0.257808	-0.018179	6
C	-0.879514	1.108258	0.981891	6
C	1.387587	0.436998	0.221461	6
C	2.364926	0.540478	-0.923089	6
O	1.915077	1.701658	-0.212129	8
H	-1.855833	-2.619582	-0.145909	1
H	-2.096573	-1.155692	-1.109059	1
H	-2.409113	-1.155042	0.650691	1
H	0.220507	-1.680472	-0.569199	1
H	-0.338813	0.585678	-1.036959	1
H	-0.704803	0.778708	2.010461	1
H	-1.954003	1.071818	0.783091	1
H	-0.573533	2.157088	0.917561	1
H	1.728677	0.053548	1.174130	1
H	2.009247	0.412388	-1.936639	1
H	3.384947	0.219768	-0.756509	1
Es	-0.357531	-1.183116	0.107506	99
Es	1.865552	0.230120	-0.390585	99
Es	1.387716	0.437267	0.221323	99
Es	-0.972071	-1.325557	0.003785	99
Es	-0.258910	-1.273149	0.408612	99
Es	1.716948	1.857150	-0.363342	99
Es	-1.989170	-1.266703	-0.808435	99
Es	2.364810	0.540714	-0.922919	99
Es	-0.255070	0.487883	-0.723741	99
Es	3.059940	0.334393	-0.815598	99
Es	2.162776	1.330828	-0.563392	99
Es	-0.264575	-0.554003	0.030232	99
Es	-1.751275	-1.530063	-0.139690	99
Es	2.126980	0.461593	-1.615231	99
Es	-0.017087	-1.475404	-0.327766	99
Es	1.619762	0.187049	0.870990	99
Es	1.914979	1.701221	-0.212251	99
Es	0.654400	0.350916	0.095046	99
Es	-1.816810	-2.273775	-0.152227	99
Es	1.655179	1.280202	0.049734	99
Es	-0.489102	0.674718	0.487109	99
Es	-0.879500	1.108232	0.981861	99
Es	2.115540	1.766574	-0.044210	99
Es	-0.089981	0.257685	-0.018114	99
Es	-0.673489	1.816806	0.932479	99
Es	-0.764596	0.876266	1.680106	99
Es	-1.599048	1.077114	0.843045	99
Es	-2.200395	-1.264517	0.398453	99
46
Properties=species:S:1:pos:R:3:Z:I:1 energy=-325.11137603068676 field_type=dipole dipole="0.000000 0.000000 0.000000" charge=0
C	-1.751403	-1.530092	-0.139709	6
N	-0.357403	-1.183322	0.108101	7
C	-0.089973	0.257808	-0.018179	6
C	-0.879514	1.108258	0.981891	6
C	1.387587	0.436998	0.221461	6
C	2.364926	0.540478	-0.923089	6
O	1.915077	1.701658	-0.212129	8
H	-1.855833	-2.619582	-0.145909	1
H	-2.096573	-1.155692	-1.109059	1
H	-2.409113	-1.155042	0.650691	1
H	0.220507	-1.680472	-0.569199	1
H	-0.338813	0.585678	-1.036959	1
H	-0.704803	0.778708	2.010461	1
H	-1.954003	1.071818	0.783091	1
H	-0.573533	2.157088	0.917561	1
H	1.728677	0.053548	1.174130	1
H	2.009247	0.412388	-1.936639	1
H	3.384947	0.219768	-0.756509	1
Es	-0.017134	-1.475263	-0.327915	99
Es	-0.255108	0.487909	-0.723768	99
Es	1.914640	1.701191	-0.212538	99
Es	1.387716	0.437278	0.221325	99
Es	-1.751275	-1.530063	-0.139690	99
Es	-0.673363	1.816709	0.932480	99
Es	-0.764546	0.876276	1.680123	99
Es	2.364816	0.540712	-0.922928	99
Es	-0.879501	1.108232	0.981862	99
Es	-2.200372	-1.264627	0.398538	99
Es	-0.258797	-1.273139	0.407982	99
Es	1.654608	1.279609	0.048711	99
Es	-0.264525	-0.553978	0.030559	99
Es	2.126987	0.461661	-1.615303	99
Es	1.718348	1.859702	-0.361306	99
Es	-0.489081	0.674700	0.487125	99
Es	1.619813	0.187040	0.870996	99
Es	2.115442	1.763570	-0.044019	99
Es	-1.816787	-2.273736	-0.152315	99
Es	-1.599107	1.077263	0.843104	99
Es	-1.989204	-1.266593	-0.808447	99
Es	0.654340	0.350862	0.095031	99
Es	1.865462	0.230036	-0.390614	99
Es	3.059903	0.334399	-0.815592	99
Es	2.162458	1.331878	-0.564281	99
Es	-0.357567	-1.183102	0.107470	99
Es	-0.089981	0.257684	-0.018115	99
Es	-0.972212	-1.325766	0.004302	99
46
Properties=species:S:1:pos:R:3:Z:I:1 energy=-325.11137603068676 field_type=dipole dipole="0.000000 0.000000 0.000000" charge=0
C	-1.751403	-1.530092	-0.139709	6
N	-0.357403	-1.183322	0.108101	7
C	-0.089973	0.257808	-0.018179	6
C	-0.879514	1.108258	0.981891	6
C	1.387587	0.436998	0.221461	6
C	2.364926	0.540478	-0.923089	6
O	1.915077	1.701658	-0.212129	8
H	-1.855833	-2.619582	-0.145909	1
H	-2.096573	-1.155692	-1.109059	1
H	-2.409113	-1.155042	0.650691	1
H	0.220507	-1.680472	-0.569199	1
H	-0.338813	0.585678	-1.036959	1
H	-0.704803	0.778708	2.010461	1
H	-1.954003	1.071818	0.783091	1
H	-0.573533	2.157088	0.917561	1
H	1.728677	0.053548	1.174130	1
H	2.009247	0.412388	-1.936639	1
H	3.384947	0.219768	-0.756509	1
Es	1.387716	0.437276	0.221323	99
Es	-0.255045	0.487914	-0.723873	99
Es	-0.764562	0.876323	1.680196	99
Es	-0.357565	-1.183108	0.107484	99
Es	3.059921	0.334429	-0.815626	99
Es	-1.598981	1.077126	0.843093	99
Es	-0.673557	1.816767	0.932385	99
Es	2.364814	0.540719	-0.922923	99
Es	-1.751273	-1.530063	-0.139690	99
Es	2.126974	0.461620	-1.615249	99
Es	1.619737	0.187039	0.871030	99
Es	-2.200355	-1.264617	0.398588	99
Es	-0.879501	1.108232	0.981862	99
Es	1.915071	1.701258	-0.212170	99
Es	1.655221	1.279946	0.049801	99
Es	1.865482	0.230013	-0.390588	99
Es	-1.816705	-2.273722	-0.152272	99
Es	2.115629	1.765453	-0.044456	99
Es	-0.017080	-1.475346	-0.327881	99
Es	-0.264555	-0.554017	0.030464	99
Es	-0.258607	-1.272436	0.406660	99
Es	0.654301	0.350981	0.095103	99
Es	-0.089981	0.257686	-0.018115	99
Es	-1.989178	-1.266587	-0.808528	99
Es	1.717182	1.857827	-0.362562	99
Es	-0.489050	0.674692	0.487109	99
Es	-0.972447	-1.326405	0.005724	99
Es	2.162368	1.331443	-0.564112	99
