45
Properties=species:S:1:pos:R:3:Z:I:1 energy=-341.149658730037 field_type=dipole dipole="0.000000 0.000000 0.000000" charge=0
C	-1.529767	-0.807826	-0.166508	6
N	-0.126777	-0.641296	0.205582	7
C	0.626703	-1.884416	0.325852	6
C	0.505603	0.586064	0.054652	6
N	1.789063	0.769974	0.098602	7
C	-0.325497	1.871744	-0.171508	6
O	0.516843	3.005774	-0.321568	8
H	-2.152357	-0.021136	0.270242	1
H	-1.934697	-1.759936	0.193062	1
H	-1.636167	-0.781736	-1.255638	1
H	-0.018987	-2.730126	0.585872	1
H	1.375043	-1.809386	1.121492	1
H	1.129993	-2.117806	-0.618108	1
H	2.269123	-0.115786	0.253572	1
H	-0.978147	2.033164	0.691342	1
H	-0.929207	1.765594	-1.076998	1
H	1.419233	2.637134	-0.189938	1
Es	0.487142	3.089378	-0.613620	99
Es	-0.096700	-0.471127	0.459693	99
Es	-1.529593	-0.807808	-0.166455	99
Es	0.205394	-1.167114	0.230362	99
Es	-0.126561	-0.641182	0.204875	99
Es	1.281055	0.717786	0.357868	99
Es	1.952777	1.107898	0.067693	99
Es	0.626607	-1.884263	0.325841	99
Es	2.071262	0.230511	0.190899	99
Es	0.972458	-2.042736	-0.317956	99
Es	1.321362	0.646800	-0.196597	99
Es	0.176981	-2.445509	0.497726	99
Es	-1.789826	-1.456755	0.079726	99
Es	0.505450	0.585954	0.054669	99
Es	0.203813	2.546038	-0.259408	99
Es	-0.722194	-0.707426	0.027130	99
Es	0.516915	3.005421	-0.321437	99
Es	0.141159	-0.171331	0.001975	99
Es	1.788797	0.769586	0.098644	99
Es	-1.944858	-0.267523	0.125716	99
Es	-0.325300	1.871801	-0.171513	99
Es	-0.772417	1.959058	0.416581	99
Es	0.446922	3.187637	-0.087299	99
Es	1.138696	-1.825725	0.859882	99
Es	-1.603684	-0.789642	-0.912356	99
Es	-0.738243	1.778233	-0.783446	99
Es	0.076022	1.199039	-0.058184	99
Es	0.970267	2.812775	-0.251538	99
45
Properties=species:S:1:pos:R:3:Z:I:1 energy=-341.149658730037 field_type=dipole dipole="0.000000 0.000000 0.000000" charge=0
C	-1.529767	-0.807826	-0.166508	6
N	-0.126777	-0.641296	0.205582	7
C	0.626703	-1.884416	0.325852	6
C	0.505603	0.586064	0.054652	6
N	1.789063	0.769974	0.098602	7
C	-0.325497	1.871744	-0.171508	6
O	0.516843	3.005774	-0.321568	8
H	-2.152357	-0.021136	0.270242	1
H	-1.934697	-1.759936	0.193062	1
H	-1.636167	-0.781736	-1.255638	1
H	-0.018987	-2.730126	0.585872	1
H	1.375043	-1.809386	1.121492	1
H	1.129993	-2.117806	-0.618108	1
H	2.269123	-0.115786	0.253572	1
H	-0.978147	2.033164	0.691342	1
H	-0.929207	1.765594	-1.076998	1
H	1.419233	2.637134	-0.189938	1
Es	1.954028	1.111817	0.068116	99
Es	-1.944994	-0.267650	0.124616	99
Es	0.971870	-2.041393	-0.316499	99
Es	0.146653	-0.151800	0.023191	99
Es	-0.772302	1.958895	0.416013	99
Es	1.280596	0.714946	0.356031	99
Es	1.788787	0.769585	0.098642	99
Es	-1.790766	-1.457566	0.079122	99
Es	0.505448	0.585953	0.054661	99
Es	0.206820	-1.166817	0.230605	99
Es	0.446048	3.189430	-0.094611	99
Es	-0.097624	-0.491544	0.430792	99
Es	0.075695	1.198576	-0.057866	99
Es	0.975968	2.815435	-0.252840	99
Es	-1.603694	-0.789230	-0.910549	99
Es	0.516932	3.005447	-0.321510	99
Es	1.139570	-1.825002	0.859105	99
Es	-0.126536	-0.641171	0.204786	99
Es	-0.738400	1.778167	-0.783060	99
Es	-1.529596	-0.807806	-0.166459	99
Es	0.626611	-1.884267	0.325841	99
Es	0.199250	2.545746	-0.259998	99
Es	-0.727148	-0.706339	0.034160	99
Es	1.322479	0.645506	-0.194490	99
Es	0.176145	-2.447260	0.497342	99
Es	0.487284	3.085489	-0.604333	99
Es	2.069876	0.230820	0.190180	99
Es	-0.325298	1.871803	-0.171515	99
45
Properties=species:S:1:pos:R:3:Z:I:1 energy=-341.149658730037 field_type=dipole dipole="0.000000 0.000000 0.000000" charge=0
C	-1.529767	-0.807826	-0.166508	6
N	-0.126777	-0.641296	0.205582	7
C	0.626703	-1.884416	0.325852	6
C	0.505603	0.586064	0.054652	6
N	1.789063	0.769974	0.098602	7
C	-0.325497	1.871744	-0.171508	6
O	0.516843	3.005774	-0.321568	8
H	-2.152357	-0.021136	0.270242	1
H	-1.934697	-1.759936	0.193062	1
H	-1.636167	-0.781736	-1.255638	1
H	-0.018987	-2.730126	0.585872	1
H	1.375043	-1.809386	1.121492	1
H	1.129993	-2.117806	-0.618108	1
H	2.269123	-0.115786	0.253572	1
H	-0.978147	2.033164	0.691342	1
H	-0.929207	1.765594	-1.076998	1
H	1.419233	2.637134	-0.189938	1
Es	1.954857	1.113216	0.067774	99
Es	-0.772192	1.958656	0.416090	99
Es	0.207614	-1.166487	0.230942	99
Es	1.140262	-1.824600	0.858876	99
Es	-1.603752	-0.789089	-0.909656	99
Es	0.075568	1.198492	-0.058082	99
Es	0.971271	-2.040878	-0.315974	99
Es	0.505445	0.585953	0.054672	99
Es	-1.529596	-0.807807	-0.166457	99
Es	0.148731	-0.142486	0.035630	99
Es	1.788784	0.769590	0.098647	99
Es	1.281021	0.714060	0.355841	99
Es	-1.791205	-1.457801	0.078797	99
Es	0.626611	-1.884268	0.325843	99
Es	0.445466	3.189722	-0.099133	99
Es	0.175743	-2.447779	0.497143	99
Es	-0.126645	-0.641286	0.205012	99
Es	-1.945080	-0.267874	0.124058	99
Es	0.196373	2.545970	-0.261170	99
Es	-0.738524	1.778179	-0.782891	99
Es	-0.098029	-0.500994	0.413979	99
Es	0.979317	2.817240	-0.253605	99
Es	-0.729064	-0.706166	0.037803	99
Es	2.069021	0.231388	0.190081	99
Es	0.516921	3.005437	-0.321383	99
Es	0.487615	3.083214	-0.597991	99
Es	-0.325299	1.871800	-0.171513	99
Es	1.322471	0.644369	-0.193859	99
45
Properties=species:S:1:pos:R:3:Z:I:1 energy=-341.149658730037 field_type=dipole dipole="0.000000 0.000000 0.000000" charge=0
C	-1.529767	-0.807826	-0.166508	6
N	-0.126777	-0.641296	0.205582	7
C	0.626703	-1.884416	0.325852	6
C	0.505603	0.586064	0.054652	6
N	1.789063	0.769974	0.098602	7
C	-0.325497	1.871744	-0.171508	6
O	0.516843	3.005774	-0.321568	8
H	-2.152357	-0.021136	0.270242	1
H	-1.934697	-1.759936	0.193062	1
H	-1.636167	-0.781736	-1.255638	1
H	-0.018987	-2.730126	0.585872	1
H	1.375043	-1.809386	1.121492	1
H	1.129993	-2.117806	-0.618108	1
H	2.269123	-0.115786	0.253572	1
H	-0.978147	2.033164	0.691342	1
H	-0.929207	1.765594	-1.076998	1
H	1.419233	2.637134	-0.189938	1
Es	0.194256	2.546323	-0.261367	99
Es	0.970887	-2.040524	-0.315734	99
Es	0.175457	-2.448008	0.496957	99
Es	0.075451	1.198540	-0.057964	99
Es	0.445714	3.188575	-0.102289	99
Es	-1.603844	-0.788902	-0.909116	99
Es	-0.772225	1.958511	0.416125	99
Es	2.068484	0.231697	0.189543	99
Es	0.626608	-1.884265	0.325841	99
Es	0.516922	3.005422	-0.321484	99
Es	0.487724	3.082658	-0.594474	99
Es	1.140704	-1.824313	0.858845	99
Es	1.279438	0.712639	0.355351	99
Es	-0.325300	1.871801	-0.171512	99
Es	1.324402	0.644770	-0.194397	99
Es	-0.730504	-0.705456	0.040803	99
Es	1.788783	0.769577	0.098643	99
Es	0.207912	-1.166648	0.231148	99
Es	-1.791454	-1.457969	0.078562	99
Es	-1.529595	-0.807804	-0.166454	99
Es	-0.126507	-0.641160	0.204686	99
Es	0.150086	-0.136693	0.045094	99
Es	0.981208	2.818548	-0.253567	99
Es	-1.945090	-0.268131	0.123784	99
Es	1.955352	1.113921	0.069178	99
Es	-0.098119	-0.507388	0.401557	99
Es	0.505445	0.585953	0.054668	99
Es	-0.738492	1.778101	-0.782954	99
45
Properties=species:S:1:pos:R:3:Z:I:1 energy=-341.149658730037 field_type=dipole dipole="0.000000 0.000000 0.000000" charge=0
C	-1.529767	-0.807826	-0.166508	6
N	-0.126777	-0.641296	0.205582	7
C	0.626703	-1.884416	0.325852	6
C	0.505603	0.586064	0.054652	6
N	1.789063	0.769974	0.098602	7
C	-0.325497	1.871744	-0.171508	6
O	0.516843	3.005774	-0.321568	8
H	-2.152357	-0.021136	0.270242	1
H	-1.934697	-1.759936	0.193062	1
H	-1.636167	-0.781736	-1.255638	1
H	-0.018987	-2.730126	0.585872	1
H	1.375043	-1.809386	1.121492	1
H	1.129993	-2.117806	-0.618108	1
H	2.269123	-0.115786	0.253572	1
H	-0.978147	2.033164	0.691342	1
H	-0.929207	1.765594	-1.076998	1
H	1.419233	2.637134	-0.189938	1
Es	1.281320	0.713786	0.356898	99
Es	1.788783	0.769579	0.098647	99
Es	0.150457	-0.134451	0.048954	99
Es	-0.772156	1.958479	0.416104	99
Es	1.141144	-1.824100	0.858808	99
Es	0.208246	-1.166273	0.231166	99
Es	0.486397	3.081669	-0.590401	99
Es	0.192771	2.547044	-0.260537	99
Es	-0.731207	-0.705637	0.042509	99
Es	1.322519	0.643501	-0.193436	99
Es	0.970513	-2.040134	-0.315238	99
Es	0.983181	2.819183	-0.256489	99
Es	2.068258	0.232035	0.189588	99
Es	-1.603894	-0.789091	-0.908647	99
Es	1.955802	1.113704	0.066778	99
Es	0.516920	3.005397	-0.321538	99
Es	0.075336	1.198445	-0.058019	99
Es	0.626608	-1.884262	0.325841	99
Es	-1.529595	-0.807806	-0.166463	99
Es	-1.791690	-1.457883	0.078541	99
Es	-0.325300	1.871802	-0.171509	99
Es	0.505445	0.585953	0.054670	99
Es	0.175173	-2.448337	0.496607	99
Es	-0.098022	-0.510008	0.395993	99
Es	0.446728	3.188154	-0.104220	99
Es	-0.738576	1.778094	-0.782920	99
Es	-0.126341	-0.640959	0.204387	99
Es	-1.945118	-0.268109	0.123400	99
45
Properties=species:S:1:pos:R:3:Z:I:1 energy=-341.149658730037 field_type=dipole dipole="0.000000 0.000000 0.000000" charge=0
C	-1.529767	-0.807826	-0.166508	6
N	-0.126777	-0.641296	0.205582	7
C	0.626703	-1.884416	0.325852	6
C	0.505603	0.586064	0.054652	6
N	1.789063	0.769974	0.098602	7
C	-0.325497	1.871744	-0.171508	6
O	0.516843	3.005774	-0.321568	8
H	-2.152357	-0.021136	0.270242	1
H	-1.934697	-1.759936	0.193062	1
H	-1.636167	-0.781736	-1.255638	1
H	-0.018987	-2.730126	0.585872	1
H	1.375043	-1.809386	1.121492	1
H	1.129993	-2.117806	-0.618108	1
H	2.269123	-0.115786	0.253572	1
H	-0.978147	2.033164	0.691342	1
H	-0.929207	1.765594	-1.076998	1
H	1.419233	2.637134	-0.189938	1
Es	0.445760	3.187552	-0.107325	99
Es	0.075295	1.198510	-0.057864	99
Es	-0.325301	1.871800	-0.171512	99
Es	0.191285	2.547281	-0.262189	99
Es	0.175038	-2.448531	0.496600	99
Es	-1.945159	-0.268126	0.123173	99
Es	0.970224	-2.039925	-0.315067	99
Es	0.516924	3.005417	-0.321287	99
Es	0.487753	3.080473	-0.587890	99
Es	-1.529596	-0.807809	-0.166456	99
Es	0.505444	0.585952	0.054670	99
Es	-0.126588	-0.641243	0.204854	99
Es	0.150748	-0.133355	0.050703	99
Es	0.208255	-1.166303	0.231344	99
Es	-1.603863	-0.789042	-0.908192	99
Es	0.626607	-1.884263	0.325841	99
Es	1.280379	0.712935	0.356391	99
Es	1.323708	0.643549	-0.194336	99
Es	-0.097247	-0.510913	0.391232	99
Es	1.141435	-1.823931	0.858611	99
Es	2.068244	0.232480	0.189707	99
Es	1.788800	0.769589	0.098655	99
Es	0.984367	2.820597	-0.254526	99
Es	-0.772090	1.958488	0.416163	99
Es	1.955746	1.113998	0.067914	99
Es	-1.791909	-1.457928	0.078319	99
Es	-0.738651	1.778024	-0.782971	99
Es	-0.731907	-0.705504	0.044911	99
45
Properties=species:S:1:pos:R:3:Z:I:1 energy=-341.149658730037 field_type=dipole dipole="0.000000 0.000000 0.000000" charge=0
C	-1.529767	-0.807826	-0.166508	6
N	-0.126777	-0.641296	0.205582	7
C	0.626703	-1.884416	0.325852	6
C	0.505603	0.586064	0.054652	6
N	1.789063	0.769974	0.098602	7
C	-0.325497	1.871744	-0.171508	6
O	0.516843	3.005774	-0.321568	8
H	-2.152357	-0.021136	0.270242	1
H	-1.934697	-1.759936	0.193062	1
H	-1.636167	-0.781736	-1.255638	1
H	-0.018987	-2.730126	0.585872	1
H	1.375043	-1.809386	1.121492	1
H	1.129993	-2.117806	-0.618108	1
H	2.269123	-0.115786	0.253572	1
H	-0.978147	2.033164	0.691342	1
H	-0.929207	1.765594	-1.076998	1
H	1.419233	2.637134	-0.189938	1
Es	1.955915	1.114131	0.067615	99
Es	1.324144	0.643450	-0.194078	99
Es	-1.603926	-0.788948	-0.907834	99
Es	0.505445	0.585953	0.054672	99
Es	-1.529593	-0.807806	-0.166456	99
Es	0.486407	3.082303	-0.585710	99
Es	2.068129	0.232628	0.189390	99
Es	1.788793	0.769585	0.098641	99
Es	0.516900	3.005539	-0.321514	99
Es	0.151092	-0.131988	0.053416	99
Es	0.985399	2.821154	-0.256443	99
Es	-1.945264	-0.268251	0.123139	99
Es	0.075218	1.198479	-0.057906	99
Es	0.208427	-1.166060	0.231234	99
Es	0.174813	-2.448558	0.496294	99
Es	0.970055	-2.039794	-0.314762	99
Es	0.626609	-1.884265	0.325840	99
Es	1.280046	0.712674	0.356807	99
Es	0.190632	2.547521	-0.262570	99
Es	1.141644	-1.823865	0.858753	99
Es	-0.738633	1.778030	-0.782984	99
Es	-0.325301	1.871800	-0.171512	99
Es	-0.732305	-0.705386	0.045642	99
Es	-0.097234	-0.512521	0.387644	99
Es	-0.126554	-0.641189	0.204825	99
Es	-1.791917	-1.458027	0.078091	99
Es	0.446871	3.184790	-0.106874	99
Es	-0.772111	1.958393	0.416113	99
45
Properties=species:S:1:pos:R:3:Z:I:1 energy=-341.149658730037 field_type=dipole dipole="0.000000 0.000000 0.000000" charge=0
C	-1.529767	-0.807826	-0.166508	6
N	-0.126777	-0.641296	0.205582	7
C	0.626703	-1.884416	0.325852	6
C	0.505603	0.586064	0.054652	6
N	1.789063	0.769974	0.098602	7
C	-0.325497	1.871744	-0.171508	6
O	0.516843	3.005774	-0.321568	8
H	-2.152357	-0.021136	0.270242	1
H	-1.934697	-1.759936	0.193062	1
H	-1.636167	-0.781736	-1.255638	1
H	-0.018987	-2.730126	0.585872	1
H	1.375043	-1.809386	1.121492	1
H	1.129993	-2.117806	-0.618108	1
H	2.269123	-0.115786	0.253572	1
H	-0.978147	2.033164	0.691342	1
H	-0.929207	1.765594	-1.076998	1
H	1.419233	2.637134	-0.189938	1
Es	1.323711	0.643182	-0.194213	99
Es	0.174739	-2.448551	0.496336	99
Es	0.969743	-2.039707	-0.314782	99
Es	0.986206	2.822202	-0.254487	99
Es	-1.529593	-0.807811	-0.166455	99
Es	0.516924	3.005458	-0.321502	99
Es	2.068052	0.232898	0.189324	99
Es	-0.738722	1.777991	-0.782971	99
Es	1.956034	1.114166	0.067616	99
Es	1.788801	0.769574	0.098636	99
Es	-0.732801	-0.705228	0.047487	99
Es	-1.945114	-0.268276	0.122898	99
Es	0.445226	3.188046	-0.111258	99
Es	-0.126601	-0.641255	0.204880	99
Es	-1.604004	-0.789069	-0.907724	99
Es	1.280561	0.712674	0.357110	99
Es	-1.792123	-1.457900	0.078268	99
Es	-0.772028	1.958383	0.416075	99
Es	-0.096691	-0.512783	0.384854	99
Es	-0.325303	1.871799	-0.171511	99
Es	0.505444	0.585952	0.054669	99
Es	0.189446	2.548237	-0.262164	99
Es	0.626609	-1.884265	0.325841	99
Es	0.208458	-1.166264	0.231707	99
Es	0.151141	-0.131748	0.053842	99
Es	0.488443	3.077322	-0.583740	99
Es	1.141948	-1.823708	0.858667	99
Es	0.075197	1.198452	-0.057928	99
45
Properties=species:S:1:pos:R:3:Z:I:1 energy=-341.149658730037 field_type=dipole dipole="0.000000 0.000000 0.000000" charge=0
C	-1.529767	-0.807826	-0.166508	6
N	-0.126777	-0.641296	0.205582	7
C	0.626703	-1.884416	0.325852	6
C	0.505603	0.586064	0.054652	6
N	1.789063	0.769974	0.098602	7
C	-0.325497	1.871744	-0.171508	6
O	0.516843	3.005774	-0.321568	8
H	-2.152357	-0.021136	0.270242	1
H	-1.934697	-1.759936	0.193062	1
H	-1.636167	-0.781736	-1.255638	1
H	-0.018987	-2.730126	0.585872	1
H	1.375043	-1.809386	1.121492	1
H	1.129993	-2.117806	-0.618108	1
H	2.269123	-0.115786	0.253572	1
H	-0.978147	2.033164	0.691342	1
H	-0.929207	1.765594	-1.076998	1
H	1.419233	2.637134	-0.189938	1
Es	-0.096799	-0.512728	0.383839	99
Es	1.788787	0.769576	0.098633	99
Es	0.208423	-1.166236	0.232513	99
Es	-0.732882	-0.705275	0.047756	99
Es	1.142339	-1.823638	0.858588	99
Es	0.489262	3.075176	-0.582109	99
Es	0.986756	2.822930	-0.253931	99
Es	1.956265	1.114363	0.067738	99
Es	0.174635	-2.448658	0.496165	99
Es	0.075126	1.198508	-0.057913	99
Es	1.279593	0.712113	0.357048	99
Es	0.444553	3.189169	-0.113338	99
Es	-0.325300	1.871800	-0.171512	99
Es	-0.126511	-0.641154	0.204773	99
Es	0.516932	3.005425	-0.321464	99
Es	-1.603921	-0.789168	-0.907403	99
Es	-1.792053	-1.457917	0.078029	99
Es	-0.738854	1.778017	-0.782940	99
Es	0.969364	-2.039532	-0.314513	99
Es	-1.945378	-0.268286	0.122772	99
Es	1.324822	0.643135	-0.194233	99
Es	0.626609	-1.884264	0.325841	99
Es	0.505444	0.585952	0.054671	99
Es	0.151330	-0.131698	0.053913	99
Es	0.188821	2.548507	-0.262310	99
Es	2.067839	0.233129	0.189222	99
Es	-0.771908	1.958333	0.416101	99
Es	-1.529591	-0.807807	-0.166460	99
45
Properties=species:S:1:pos:R:3:Z:I:1 energy=-341.149658730037 field_type=dipole dipole="0.000000 0.000000 0.000000" charge=0
C	-1.529767	-0.807826	-0.166508	6
N	-0.126777	-0.641296	0.205582	7
C	0.626703	-1.884416	0.325852	6
C	0.505603	0.586064	0.054652	6
N	1.789063	0.769974	0.098602	7
C	-0.325497	1.871744	-0.171508	6
O	0.516843	3.005774	-0.321568	8
H	-2.152357	-0.021136	0.270242	1
H	-1.934697	-1.759936	0.193062	1
H	-1.636167	-0.781736	-1.255638	1
H	-0.018987	-2.730126	0.585872	1
H	1.375043	-1.809386	1.121492	1
H	1.129993	-2.117806	-0.618108	1
H	2.269123	-0.115786	0.253572	1
H	-0.978147	2.033164	0.691342	1
H	-0.929207	1.765594	-1.076998	1
H	1.419233	2.637134	-0.189938	1
Es	0.987236	2.823581	-0.253335	99
Es	0.075105	1.198591	-0.057937	99
Es	0.969293	-2.039434	-0.314434	99
Es	-1.945219	-0.268451	0.122864	99
Es	1.142422	-1.823516	0.858631	99
Es	-1.604057	-0.789003	-0.907491	99
Es	1.788803	0.769583	0.098642	99
Es	0.505445	0.585953	0.054669	99
Es	1.279811	0.712720	0.357467	99
Es	0.490658	3.070282	-0.580463	99
Es	0.187782	2.549260	-0.260647	99
Es	0.626608	-1.884264	0.325841	99
Es	-1.792135	-1.457876	0.078053	99
Es	-0.126136	-0.640615	0.204282	99
Es	-0.733150	-0.705289	0.048417	99
Es	1.956460	1.114051	0.067067	99
Es	-0.738864	1.777891	-0.783040	99
Es	2.067707	0.233158	0.189571	99
Es	0.151594	-0.130576	0.056244	99
Es	0.174565	-2.448697	0.496078	99
Es	1.324624	0.642788	-0.194267	99
Es	-1.529598	-0.807807	-0.166458	99
Es	-0.097166	-0.514396	0.380676	99
Es	-0.771886	1.958281	0.416162	99
Es	0.443763	3.192544	-0.117251	99
Es	0.208422	-1.166289	0.233103	99
Es	0.516915	3.005504	-0.321458	99
Es	-0.325300	1.871801	-0.171513	99
45
Properties=species:S:1:pos:R:3:Z:I:1 energy=-341.149658730037 field_type=dipole dipole="0.000000 0.000000 0.000000" charge=0
C	-1.529767	-0.807826	-0.166508	6
N	-0.126777	-0.641296	0.205582	7
C	0.626703	-1.884416	0.325852	6
C	0.505603	0.586064	0.054652	6
N	1.789063	0.769974	0.098602	7
C	-0.325497	1.871744	-0.171508	6
O	0.516843	3.005774	-0.321568	8
H	-2.152357	-0.021136	0.270242	1
H	-1.934697	-1.759936	0.193062	1
H	-1.636167	-0.781736	-1.255638	1
H	-0.018987	-2.730126	0.585872	1
H	1.375043	-1.809386	1.121492	1
H	1.129993	-2.117806	-0.618108	1
H	2.269123	-0.115786	0.253572	1
H	-0.978147	2.033164	0.691342	1
H	-0.929207	1.765594	-1.076998	1
H	1.419233	2.637134	-0.189938	1
Es	-1.792259	-1.457851	0.077915	99
Es	-0.738690	1.777907	-0.783026	99
Es	2.068034	0.233358	0.189534	99
Es	1.326173	0.643123	-0.194662	99
Es	0.987853	2.823901	-0.255578	99
Es	1.788791	0.769582	0.098644	99
Es	-0.126389	-0.641013	0.204496	99
Es	-1.945255	-0.268454	0.122710	99
Es	-1.604000	-0.789007	-0.907272	99
Es	-0.096952	-0.515096	0.378235	99
Es	0.516905	3.005513	-0.321475	99
Es	-1.529594	-0.807807	-0.166457	99
Es	0.208544	-1.166223	0.232812	99
Es	0.174486	-2.448669	0.496014	99
Es	-0.733275	-0.705206	0.048992	99
Es	0.626609	-1.884265	0.325842	99
Es	-0.325302	1.871799	-0.171511	99
Es	0.488372	3.076008	-0.579310	99
Es	0.445803	3.186605	-0.114403	99
Es	0.151750	-0.129598	0.058184	99
Es	1.956091	1.114319	0.067922	99
Es	0.505447	0.585955	0.054672	99
Es	0.969154	-2.039423	-0.314323	99
Es	0.075028	1.198566	-0.057868	99
Es	1.278405	0.711889	0.356942	99
Es	0.187471	2.549071	-0.262346	99
Es	1.142570	-1.823518	0.858615	99
Es	-0.772067	1.958307	0.416174	99
45
Properties=species:S:1:pos:R:3:Z:I:1 energy=-341.149658730037 field_type=dipole dipole="0.000000 0.000000 0.000000" charge=0
C	-1.529767	-0.807826	-0.166508	6
N	-0.126777	-0.641296	0.205582	7
C	0.626703	-1.884416	0.325852	6
C	0.505603	0.586064	0.054652	6
N	1.789063	0.769974	0.098602	7
C	-0.325497	1.871744	-0.171508	6
O	0.516843	3.005774	-0.321568	8
H	-2.152357	-0.021136	0.270242	1
H	-1.934697	-1.759936	0.193062	1
H	-1.636167	-0.781736	-1.255638	1
H	-0.018987	-2.730126	0.585872	1
H	1.375043	-1.809386	1.121492	1
H	1.129993	-2.117806	-0.618108	1
H	2.269123	-0.115786	0.253572	1
H	-0.978147	2.033164	0.691342	1
H	-0.929207	1.765594	-1.076998	1
H	1.419233	2.637134	-0.189938	1
Es	0.988137	2.823969	-0.255237	99
Es	1.956011	1.114060	0.066834	99
Es	-0.772075	1.958338	0.416197	99
Es	0.488127	3.076522	-0.579414	99
Es	-1.792265	-1.457815	0.077887	99
Es	0.186881	2.549672	-0.261821	99
Es	0.505442	0.585951	0.054672	99
Es	-0.096852	-0.516409	0.376453	99
Es	0.151828	-0.128819	0.060016	99
Es	0.208704	-1.166047	0.231848	99
Es	0.516897	3.005535	-0.321525	99
Es	0.626612	-1.884268	0.325840	99
Es	1.788773	0.769569	0.098640	99
Es	-1.945297	-0.268368	0.122700	99
Es	0.075002	1.198552	-0.057925	99
Es	0.968931	-2.039264	-0.314150	99
Es	0.446389	3.185365	-0.115199	99
Es	1.142800	-1.823379	0.858484	99
Es	1.323979	0.642496	-0.194338	99
Es	-1.529595	-0.807809	-0.166456	99
Es	-0.325301	1.871801	-0.171511	99
Es	-0.738685	1.777845	-0.782981	99
Es	2.068250	0.233523	0.189287	99
Es	-0.126283	-0.640852	0.204394	99
Es	-0.733544	-0.705171	0.049827	99
Es	1.280529	0.712666	0.358022	99
Es	0.174374	-2.448803	0.495968	99
Es	-1.604067	-0.789087	-0.907038	99
45
Properties=species:S:1:pos:R:3:Z:I:1 energy=-341.149658730037 field_type=dipole dipole="0.000000 0.000000 0.000000" charge=0
C	-1.529767	-0.807826	-0.166508	6
N	-0.126777	-0.641296	0.205582	7
C	0.626703	-1.884416	0.325852	6
C	0.505603	0.586064	0.054652	6
N	1.789063	0.769974	0.098602	7
C	-0.325497	1.871744	-0.171508	6
O	0.516843	3.005774	-0.321568	8
H	-2.152357	-0.021136	0.270242	1
H	-1.934697	-1.759936	0.193062	1
H	-1.636167	-0.781736	-1.255638	1
H	-0.018987	-2.730126	0.585872	1
H	1.375043	-1.809386	1.121492	1
H	1.129993	-2.117806	-0.618108	1
H	2.269123	-0.115786	0.253572	1
H	-0.978147	2.033164	0.691342	1
H	-0.929207	1.765594	-1.076998	1
H	1.419233	2.637134	-0.189938	1
Es	1.956235	1.114202	0.067130	99
Es	0.988319	2.823858	-0.256230	99
Es	-0.733724	-0.705206	0.050279	99
Es	0.151969	-0.129014	0.059531	99
Es	-1.792101	-1.457768	0.077884	99
Es	0.446794	3.183968	-0.113958	99
Es	-1.529594	-0.807806	-0.166454	99
Es	-0.771958	1.958303	0.416118	99
Es	0.505441	0.585949	0.054672	99
Es	-0.126499	-0.641160	0.204641	99
Es	-1.604091	-0.789208	-0.907045	99
Es	0.174246	-2.448749	0.495768	99
Es	0.186394	2.549628	-0.263996	99
Es	1.325531	0.642695	-0.194396	99
Es	-0.738820	1.777957	-0.783001	99
Es	-1.945450	-0.268411	0.122733	99
Es	1.279097	0.712274	0.357403	99
Es	1.142962	-1.823380	0.858590	99
Es	0.968782	-2.039189	-0.314030	99
Es	0.488056	3.078062	-0.577393	99
Es	0.208660	-1.166041	0.232618	99
Es	2.067999	0.233435	0.189537	99
Es	-0.325301	1.871800	-0.171512	99
Es	-0.096536	-0.515774	0.375424	99
Es	0.516911	3.005488	-0.321519	99
Es	1.788781	0.769576	0.098640	99
Es	0.626610	-1.884264	0.325841	99
Es	0.074988	1.198551	-0.057799	99
45
Properties=species:S:1:pos:R:3:Z:I:1 energy=-341.149658730037 field_type=dipole dipole="0.000000 0.000000 0.000000" charge=0
C	-1.529767	-0.807826	-0.166508	6
N	-0.126777	-0.641296	0.205582	7
C	0.626703	-1.884416	0.325852	6
C	0.505603	0.586064	0.054652	6
N	1.789063	0.769974	0.098602	7
C	-0.325497	1.871744	-0.171508	6
O	0.516843	3.005774	-0.321568	8
H	-2.152357	-0.021136	0.270242	1
H	-1.934697	-1.759936	0.193062	1
H	-1.636167	-0.781736	-1.255638	1
H	-0.018987	-2.730126	0.585872	1
H	1.375043	-1.809386	1.121492	1
H	1.129993	-2.117806	-0.618108	1
H	2.269123	-0.115786	0.253572	1
H	-0.978147	2.033164	0.691342	1
H	-0.929207	1.765594	-1.076998	1
H	1.419233	2.637134	-0.189938	1
Es	-1.945358	-0.268468	0.122643	99
Es	-0.738875	1.777960	-0.783046	99
Es	1.280126	0.712646	0.358122	99
Es	0.447265	3.183223	-0.115886	99
Es	-1.604098	-0.789127	-0.906951	99
Es	0.626608	-1.884261	0.325840	99
Es	0.208953	-1.166124	0.231981	99
Es	0.185898	2.550246	-0.262023	99
Es	-0.126362	-0.640979	0.204451	99
Es	1.142936	-1.823290	0.858504	99
Es	2.067795	0.233506	0.189269	99
Es	0.516941	3.005456	-0.321548	99
Es	-0.771897	1.958181	0.416329	99
Es	0.074930	1.198649	-0.058064	99
Es	-0.733837	-0.705015	0.050841	99
Es	-0.325302	1.871798	-0.171514	99
Es	0.152031	-0.127354	0.063183	99
Es	0.988832	2.824447	-0.256070	99
Es	0.968789	-2.039296	-0.314245	99
Es	0.174219	-2.448651	0.496035	99
Es	1.788783	0.769581	0.098644	99
Es	-1.792269	-1.457720	0.077815	99
Es	0.487534	3.077594	-0.577560	99
Es	0.505444	0.585951	0.054670	99
Es	-1.529591	-0.807811	-0.166455	99
Es	-0.096766	-0.517838	0.372119	99
Es	1.324448	0.642509	-0.194354	99
Es	1.956524	1.113962	0.066743	99
45
Properties=species:S:1:pos:R:3:Z:I:1 energy=-341.149658730037 field_type=dipole dipole="0.000000 0.000000 0.000000" charge=0
C	-1.529767	-0.807826	-0.166508	6
N	-0.126777	-0.641296	0.205582	7
C	0.626703	-1.884416	0.325852	6
C	0.505603	0.586064	0.054652	6
N	1.789063	0.769974	0.098602	7
C	-0.325497	1.871744	-0.171508	6
O	0.516843	3.005774	-0.321568	8
H	-2.152357	-0.021136	0.270242	1
H	-1.934697	-1.759936	0.193062	1
H	-1.636167	-0.781736	-1.255638	1
H	-0.018987	-2.730126	0.585872	1
H	1.375043	-1.809386	1.121492	1
H	1.129993	-2.117806	-0.618108	1
H	2.269123	-0.115786	0.253572	1
H	-0.978147	2.033164	0.691342	1
H	-0.929207	1.765594	-1.076998	1
H	1.419233	2.637134	-0.189938	1
Es	1.277957	0.711985	0.357464	99
Es	-1.529593	-0.807807	-0.166455	99
Es	-1.792192	-1.457790	0.077763	99
Es	-0.771962	1.958306	0.416188	99
Es	-0.738819	1.777893	-0.783099	99
Es	2.068066	0.233761	0.189715	99
Es	0.626609	-1.884265	0.325841	99
Es	1.143125	-1.823330	0.858564	99
Es	-1.945435	-0.268519	0.122660	99
Es	-1.604109	-0.789115	-0.906867	99
Es	0.446128	3.185011	-0.117589	99
Es	-0.126492	-0.641150	0.204638	99
Es	-0.325301	1.871800	-0.171512	99
Es	0.208802	-1.166195	0.233233	99
Es	1.326757	0.642749	-0.194882	99
Es	0.074928	1.198633	-0.057787	99
Es	0.516926	3.005453	-0.321389	99
Es	0.989152	2.825390	-0.255480	99
Es	0.185750	2.550044	-0.262588	99
Es	0.968616	-2.039103	-0.314084	99
Es	0.505444	0.585953	0.054670	99
Es	1.788778	0.769592	0.098638	99
Es	-0.096512	-0.516795	0.371866	99
Es	0.174195	-2.448717	0.495753	99
Es	0.152068	-0.128012	0.061698	99
Es	0.488570	3.074988	-0.576046	99
Es	-0.733945	-0.705031	0.051089	99
Es	1.956193	1.114044	0.067470	99
45
Properties=species:S:1:pos:R:3:Z:I:1 energy=-341.149658730037 field_type=dipole dipole="0.000000 0.000000 0.000000" charge=0
C	-1.529767	-0.807826	-0.166508	6
N	-0.126777	-0.641296	0.205582	7
C	0.626703	-1.884416	0.325852	6
C	0.505603	0.586064	0.054652	6
N	1.789063	0.769974	0.098602	7
C	-0.325497	1.871744	-0.171508	6
O	0.516843	3.005774	-0.321568	8
H	-2.152357	-0.021136	0.270242	1
H	-1.934697	-1.759936	0.193062	1
H	-1.636167	-0.781736	-1.255638	1
H	-0.018987	-2.730126	0.585872	1
H	1.375043	-1.809386	1.121492	1
H	1.129993	-2.117806	-0.618108	1
H	2.269123	-0.115786	0.253572	1
H	-0.978147	2.033164	0.691342	1
H	-0.929207	1.765594	-1.076998	1
H	1.419233	2.637134	-0.189938	1
Es	0.968541	-2.039173	-0.314111	99
Es	0.208610	-1.166252	0.233308	99
Es	0.174259	-2.448669	0.495837	99
Es	0.505444	0.585952	0.054670	99
Es	0.152248	-0.127800	0.062099	99
Es	1.956480	1.113973	0.067772	99
Es	-0.096292	-0.516890	0.370493	99
Es	1.279024	0.712024	0.357863	99
Es	-0.126646	-0.641295	0.204988	99
Es	0.626613	-1.884270	0.325842	99
Es	-1.529597	-0.807807	-0.166458	99
Es	1.788781	0.769575	0.098639	99
Es	-0.734058	-0.705007	0.051697	99
Es	0.516923	3.005382	-0.321583	99
Es	-1.945459	-0.268458	0.122588	99
Es	-0.738753	1.777876	-0.783061	99
Es	-0.772020	1.958208	0.416232	99
Es	0.074901	1.198632	-0.057956	99
Es	0.989417	2.825704	-0.254935	99
Es	0.489100	3.072998	-0.575480	99
Es	-1.792234	-1.457688	0.077751	99
Es	-1.604076	-0.789202	-0.906839	99
Es	2.067812	0.233739	0.189261	99
Es	-0.325301	1.871799	-0.171513	99
Es	1.143188	-1.823251	0.858548	99
Es	1.325698	0.642832	-0.195120	99
Es	0.445880	3.186158	-0.119663	99
Es	0.185221	2.550683	-0.261397	99
45
Properties=species:S:1:pos:R:3:Z:I:1 energy=-341.149658730037 field_type=dipole dipole="0.000000 0.000000 0.000000" charge=0
C	-1.529767	-0.807826	-0.166508	6
N	-0.126777	-0.641296	0.205582	7
C	0.626703	-1.884416	0.325852	6
C	0.505603	0.586064	0.054652	6
N	1.789063	0.769974	0.098602	7
C	-0.325497	1.871744	-0.171508	6
O	0.516843	3.005774	-0.321568	8
H	-2.152357	-0.021136	0.270242	1
H	-1.934697	-1.759936	0.193062	1
H	-1.636167	-0.781736	-1.255638	1
H	-0.018987	-2.730126	0.585872	1
H	1.375043	-1.809386	1.121492	1
H	1.129993	-2.117806	-0.618108	1
H	2.269123	-0.115786	0.253572	1
H	-0.978147	2.033164	0.691342	1
H	-0.929207	1.765594	-1.076998	1
H	1.419233	2.637134	-0.189938	1
Es	1.956235	1.113932	0.066768	99
Es	0.626609	-1.884264	0.325841	99
Es	0.989554	2.825180	-0.257356	99
Es	-0.734194	-0.704959	0.052164	99
Es	0.152092	-0.127140	0.063693	99
Es	-1.604046	-0.789415	-0.906689	99
Es	-0.096460	-0.517952	0.369331	99
Es	0.505444	0.585952	0.054669	99
Es	1.280157	0.712498	0.358327	99
Es	-0.325301	1.871801	-0.171513	99
Es	-0.738717	1.777757	-0.783203	99
Es	-1.529596	-0.807807	-0.166455	99
Es	0.968573	-2.039064	-0.313876	99
Es	-0.126407	-0.641042	0.204505	99
Es	-0.772052	1.958245	0.416258	99
Es	2.068120	0.233942	0.189446	99
Es	-1.792356	-1.457605	0.077905	99
Es	1.324554	0.642134	-0.194740	99
Es	0.487392	3.077394	-0.574778	99
Es	0.516929	3.005442	-0.321478	99
Es	0.447914	3.182077	-0.116864	99
Es	0.208981	-1.166036	0.232759	99
Es	1.143172	-1.823332	0.858540	99
Es	-1.945426	-0.268339	0.122332	99
Es	0.184843	2.550723	-0.262579	99
Es	0.074781	1.198846	-0.057837	99
Es	1.788770	0.769579	0.098644	99
Es	0.174136	-2.448773	0.495657	99
45
Properties=species:S:1:pos:R:3:Z:I:1 energy=-341.149658730037 field_type=dipole dipole="0.000000 0.000000 0.000000" charge=0
C	-1.529767	-0.807826	-0.166508	6
N	-0.126777	-0.641296	0.205582	7
C	0.626703	-1.884416	0.325852	6
C	0.505603	0.586064	0.054652	6
N	1.789063	0.769974	0.098602	7
C	-0.325497	1.871744	-0.171508	6
O	0.516843	3.005774	-0.321568	8
H	-2.152357	-0.021136	0.270242	1
H	-1.934697	-1.759936	0.193062	1
H	-1.636167	-0.781736	-1.255638	1
H	-0.018987	-2.730126	0.585872	1
H	1.375043	-1.809386	1.121492	1
H	1.129993	-2.117806	-0.618108	1
H	2.269123	-0.115786	0.253572	1
H	-0.978147	2.033164	0.691342	1
H	-0.929207	1.765594	-1.076998	1
H	1.419233	2.637134	-0.189938	1
Es	0.989652	2.825900	-0.255290	99
Es	0.074959	1.198509	-0.057785	99
Es	0.184452	2.550907	-0.263789	99
Es	1.143533	-1.823156	0.858452	99
Es	-1.603931	-0.789163	-0.906334	99
Es	1.956657	1.113818	0.066821	99
Es	2.067721	0.233683	0.189395	99
Es	-0.734174	-0.705039	0.052270	99
Es	1.788784	0.769566	0.098639	99
Es	0.505444	0.585952	0.054675	99
Es	-0.325302	1.871800	-0.171513	99
Es	-1.529593	-0.807807	-0.166455	99
Es	0.626609	-1.884265	0.325841	99
Es	0.489469	3.073717	-0.573459	99
Es	-0.738593	1.777840	-0.783009	99
Es	0.174034	-2.448746	0.495690	99
Es	-0.096056	-0.515886	0.371778	99
Es	0.152061	-0.128863	0.059995	99
Es	-0.772202	1.958359	0.416029	99
Es	0.446125	3.184763	-0.119003	99
Es	0.208778	-1.166249	0.233503	99
Es	1.324828	0.642403	-0.194702	99
Es	-1.945576	-0.268355	0.122378	99
Es	-1.792362	-1.457838	0.077467	99
Es	-0.126600	-0.641254	0.204874	99
Es	0.516887	3.005593	-0.321531	99
Es	0.968215	-2.039042	-0.313786	99
Es	1.279881	0.712625	0.358323	99
45
Properties=species:S:1:pos:R:3:Z:I:1 energy=-341.149658730037 field_type=dipole dipole="0.000000 0.000000 0.000000" charge=0
C	-1.529767	-0.807826	-0.166508	6
N	-0.126777	-0.641296	0.205582	7
C	0.626703	-1.884416	0.325852	6
C	0.505603	0.586064	0.054652	6
N	1.789063	0.769974	0.098602	7
C	-0.325497	1.871744	-0.171508	6
O	0.516843	3.005774	-0.321568	8
H	-2.152357	-0.021136	0.270242	1
H	-1.934697	-1.759936	0.193062	1
H	-1.636167	-0.781736	-1.255638	1
H	-0.018987	-2.730126	0.585872	1
H	1.375043	-1.809386	1.121492	1
H	1.129993	-2.117806	-0.618108	1
H	2.269123	-0.115786	0.253572	1
H	-0.978147	2.033164	0.691342	1
H	-0.929207	1.765594	-1.076998	1
H	1.419233	2.637134	-0.189938	1
Es	-0.734249	-0.704954	0.052290	99
Es	0.208928	-1.165959	0.232015	99
Es	-0.772017	1.958228	0.416285	99
Es	0.516916	3.005474	-0.321412	99
Es	-0.738773	1.777872	-0.783033	99
Es	-1.604054	-0.789221	-0.906498	99
Es	0.626610	-1.884266	0.325841	99
Es	0.505444	0.585952	0.054673	99
Es	1.278444	0.712015	0.357989	99
Es	0.184192	2.551108	-0.262622	99
Es	2.068304	0.233796	0.189284	99
Es	-1.945531	-0.268407	0.122473	99
Es	-0.096410	-0.518377	0.369267	99
Es	-1.792318	-1.457675	0.077583	99
Es	0.152241	-0.126967	0.064302	99
Es	0.989752	2.825985	-0.255564	99
Es	1.788783	0.769576	0.098644	99
Es	0.074793	1.198689	-0.057982	99
Es	1.143600	-1.823163	0.858391	99
Es	0.488124	3.076623	-0.574540	99
Es	-0.325301	1.871800	-0.171512	99
Es	-1.529593	-0.807807	-0.166456	99
Es	1.956032	1.114079	0.067043	99
Es	0.447663	3.181606	-0.118959	99
Es	-0.126422	-0.641058	0.204542	99
Es	1.326338	0.642614	-0.194515	99
Es	0.174072	-2.448746	0.495741	99
Es	0.968137	-2.039045	-0.313795	99
