42
Properties=species:S:1:pos:R:3:Z:I:1 energy=-339.9710525551836 field_type=dipole dipole="0.000000 0.000000 0.000000" charge=0
C	-1.711480	0.100047	-0.322274	6
N	-0.272609	0.345847	-0.410774	7
C	0.561400	-0.861743	-0.441344	6
C	0.904591	-1.313513	0.960816	6
O	0.567370	-2.400603	1.424566	8
C	0.223460	1.553387	0.005306	6
N	1.446701	1.938477	0.065716	7
H	-2.274420	0.981817	-0.646464	1
H	-1.996840	-0.138003	0.707656	1
H	-2.011029	-0.729473	-0.971094	1
H	1.493011	-0.680623	-0.988934	1
H	0.046170	-1.679793	-0.958274	1
H	1.507821	-0.608133	1.557616	1
H	-0.562180	2.259757	0.327096	1
H	2.078030	1.232547	-0.309614	1
Es	-0.882108	0.237693	-0.346159	99
Es	0.734363	-1.081141	0.259629	99
Es	0.904571	-1.313515	0.960792	99
Es	0.949916	1.874517	-0.222619	99
Es	0.904424	-2.104582	1.165228	99
Es	-0.069127	0.786180	-0.114304	99
Es	-1.901897	-0.463916	-0.760898	99
Es	0.400939	-2.570489	1.219727	99
Es	0.567459	-2.400305	1.424433	99
Es	1.195132	-0.732513	-0.792181	99
Es	-0.205203	0.533666	-0.638407	99
Es	-2.083265	0.703556	-0.537093	99
Es	0.988305	1.659915	0.302182	99
Es	-0.321122	2.018561	0.217402	99
Es	0.206379	-1.401692	-0.784955	99
Es	1.561442	2.254457	0.182045	99
Es	0.664381	-2.443897	1.718401	99
Es	-1.905593	-0.062390	0.380787	99
Es	0.561333	-0.861576	-0.441288	99
Es	1.446496	1.938009	0.065552	99
Es	-0.272572	0.345851	-0.410145	99
Es	0.476735	-1.896204	1.338308	99
Es	0.223331	1.553237	0.005253	99
Es	0.096178	-0.171932	-0.393533	99
Es	-1.711301	0.100082	-0.322290	99
Es	1.310716	-0.823884	1.355764	99
Es	1.815002	1.489383	-0.158120	99
42
Properties=species:S:1:pos:R:3:Z:I:1 energy=-339.9710525551836 field_type=dipole dipole="0.000000 0.000000 0.000000" charge=0
C	-1.711480	0.100047	-0.322274	6
N	-0.272609	0.345847	-0.410774	7
C	0.561400	-0.861743	-0.441344	6
C	0.904591	-1.313513	0.960816	6
O	0.567370	-2.400603	1.424566	8
C	0.223460	1.553387	0.005306	6
N	1.446701	1.938477	0.065716	7
H	-2.274420	0.981817	-0.646464	1
H	-1.996840	-0.138003	0.707656	1
H	-2.011029	-0.729473	-0.971094	1
H	1.493011	-0.680623	-0.988934	1
H	0.046170	-1.679793	-0.958274	1
H	1.507821	-0.608133	1.557616	1
H	-0.562180	2.259757	0.327096	1
H	2.078030	1.232547	-0.309614	1
Es	1.446488	1.938006	0.065549	99
Es	1.563476	2.263973	0.173461	99
Es	-0.272504	0.345943	-0.409732	99
Es	1.312001	-0.824177	1.355236	99
Es	0.478200	-1.897068	1.341603	99
Es	0.223331	1.553238	0.005251	99
Es	0.988448	1.658857	0.305740	99
Es	-0.216021	0.496305	-0.613988	99
Es	-1.905313	-0.062590	0.379777	99
Es	1.810330	1.490400	-0.158192	99
Es	-0.320840	2.018060	0.217109	99
Es	0.907538	-2.103815	1.165530	99
Es	0.205249	-1.402544	-0.784375	99
Es	-2.083991	0.703492	-0.536498	99
Es	1.196554	-0.732086	-0.791908	99
Es	-0.057314	0.820931	-0.146862	99
Es	-1.902092	-0.464054	-0.760596	99
Es	-1.711297	0.100082	-0.322290	99
Es	0.904577	-1.313519	0.960789	99
Es	0.664917	-2.432525	1.709790	99
Es	0.097543	-0.170975	-0.386478	99
Es	0.952338	1.866096	-0.218308	99
Es	-0.883415	0.238542	-0.343793	99
Es	0.561330	-0.861576	-0.441287	99
Es	0.394044	-2.581194	1.224820	99
Es	0.567446	-2.400347	1.424470	99
Es	0.733889	-1.080383	0.258697	99
42
Properties=species:S:1:pos:R:3:Z:I:1 energy=-339.9710525551836 field_type=dipole dipole="0.000000 0.000000 0.000000" charge=0
C	-1.711480	0.100047	-0.322274	6
N	-0.272609	0.345847	-0.410774	7
C	0.561400	-0.861743	-0.441344	6
C	0.904591	-1.313513	0.960816	6
O	0.567370	-2.400603	1.424566	8
C	0.223460	1.553387	0.005306	6
N	1.446701	1.938477	0.065716	7
H	-2.274420	0.981817	-0.646464	1
H	-1.996840	-0.138003	0.707656	1
H	-2.011029	-0.729473	-0.971094	1
H	1.493011	-0.680623	-0.988934	1
H	0.046170	-1.679793	-0.958274	1
H	1.507821	-0.608133	1.557616	1
H	-0.562180	2.259757	0.327096	1
H	2.078030	1.232547	-0.309614	1
Es	-2.084369	0.703211	-0.536565	99
Es	0.223330	1.553235	0.005257	99
Es	0.666014	-2.424655	1.705443	99
Es	0.567514	-2.400249	1.424501	99
Es	-0.221512	0.472222	-0.589263	99
Es	-0.884217	0.239046	-0.343359	99
Es	0.561330	-0.861577	-0.441287	99
Es	0.733636	-1.079964	0.258245	99
Es	-1.901918	-0.463823	-0.760344	99
Es	0.954249	1.863432	-0.217415	99
Es	0.908382	-2.104171	1.164349	99
Es	1.197206	-0.731747	-0.791899	99
Es	0.987888	1.657768	0.307856	99
Es	1.806907	1.491412	-0.157547	99
Es	-0.050731	0.842916	-0.177950	99
Es	1.565511	2.267311	0.169368	99
Es	1.446495	1.938022	0.065556	99
Es	-0.320531	2.017594	0.216882	99
Es	0.904580	-1.313518	0.960787	99
Es	-1.711296	0.100081	-0.322290	99
Es	0.204634	-1.402899	-0.783938	99
Es	0.389963	-2.587548	1.230375	99
Es	0.097712	-0.169668	-0.379731	99
Es	1.312640	-0.824364	1.354961	99
Es	0.479423	-1.897977	1.341729	99
Es	-0.272545	0.345827	-0.409853	99
Es	-1.905382	-0.062847	0.379646	99
42
Properties=species:S:1:pos:R:3:Z:I:1 energy=-339.9710525551836 field_type=dipole dipole="0.000000 0.000000 0.000000" charge=0
C	-1.711480	0.100047	-0.322274	6
N	-0.272609	0.345847	-0.410774	7
C	0.561400	-0.861743	-0.441344	6
C	0.904591	-1.313513	0.960816	6
O	0.567370	-2.400603	1.424566	8
C	0.223460	1.553387	0.005306	6
N	1.446701	1.938477	0.065716	7
H	-2.274420	0.981817	-0.646464	1
H	-1.996840	-0.138003	0.707656	1
H	-2.011029	-0.729473	-0.971094	1
H	1.493011	-0.680623	-0.988934	1
H	0.046170	-1.679793	-0.958274	1
H	1.507821	-0.608133	1.557616	1
H	-0.562180	2.259757	0.327096	1
H	2.078030	1.232547	-0.309614	1
Es	0.987765	1.656500	0.309056	99
Es	1.313011	-0.824548	1.354850	99
Es	-1.711293	0.100081	-0.322291	99
Es	-2.084607	0.703014	-0.536577	99
Es	0.908287	-2.104424	1.163559	99
Es	-0.884699	0.239499	-0.343780	99
Es	1.567065	2.269228	0.167178	99
Es	0.097838	-0.169089	-0.375907	99
Es	-0.047764	0.854032	-0.200010	99
Es	1.446487	1.938017	0.065554	99
Es	0.480246	-1.898897	1.340581	99
Es	0.223329	1.553235	0.005262	99
Es	-0.223907	0.459625	-0.570599	99
Es	1.197429	-0.731423	-0.792001	99
Es	0.387278	-2.594824	1.236703	99
Es	0.667600	-2.415904	1.701211	99
Es	0.561329	-0.861576	-0.441287	99
Es	0.204202	-1.403040	-0.783737	99
Es	0.904575	-1.313515	0.960789	99
Es	0.955434	1.861857	-0.217101	99
Es	-0.272467	0.345972	-0.409533	99
Es	0.733558	-1.079670	0.258112	99
Es	-1.905480	-0.063275	0.379678	99
Es	0.567443	-2.400347	1.424443	99
Es	-1.901732	-0.463415	-0.760282	99
Es	-0.320324	2.017296	0.216637	99
Es	1.804311	1.492659	-0.156995	99
42
Properties=species:S:1:pos:R:3:Z:I:1 energy=-339.9710525551836 field_type=dipole dipole="0.000000 0.000000 0.000000" charge=0
C	-1.711480	0.100047	-0.322274	6
N	-0.272609	0.345847	-0.410774	7
C	0.561400	-0.861743	-0.441344	6
C	0.904591	-1.313513	0.960816	6
O	0.567370	-2.400603	1.424566	8
C	0.223460	1.553387	0.005306	6
N	1.446701	1.938477	0.065716	7
H	-2.274420	0.981817	-0.646464	1
H	-1.996840	-0.138003	0.707656	1
H	-2.011029	-0.729473	-0.971094	1
H	1.493011	-0.680623	-0.988934	1
H	0.046170	-1.679793	-0.958274	1
H	1.507821	-0.608133	1.557616	1
H	-0.562180	2.259757	0.327096	1
H	2.078030	1.232547	-0.309614	1
Es	-2.084695	0.702801	-0.536672	99
Es	0.203991	-1.403047	-0.783741	99
Es	-0.885347	0.239623	-0.345331	99
Es	-1.711296	0.100080	-0.322290	99
Es	0.480987	-1.899826	1.340100	99
Es	0.385218	-2.598173	1.241070	99
Es	0.223330	1.553234	0.005256	99
Es	-1.905567	-0.063369	0.379744	99
Es	1.313317	-0.824692	1.354767	99
Es	1.568568	2.270216	0.165918	99
Es	0.567454	-2.400311	1.424415	99
Es	0.987547	1.656011	0.309785	99
Es	0.904581	-1.313515	0.960786	99
Es	-0.046125	0.860653	-0.216572	99
Es	0.668904	-2.411302	1.698949	99
Es	-0.272550	0.345819	-0.409780	99
Es	1.446480	1.938012	0.065553	99
Es	-0.320095	2.017023	0.216370	99
Es	0.561330	-0.861579	-0.441287	99
Es	-0.224755	0.452425	-0.553904	99
Es	0.907844	-2.104571	1.162055	99
Es	0.733488	-1.079633	0.258081	99
Es	1.802259	1.493276	-0.156206	99
Es	0.956164	1.861037	-0.217297	99
Es	0.097917	-0.168748	-0.374052	99
Es	-1.901636	-0.463273	-0.760195	99
Es	1.197599	-0.731103	-0.792007	99
42
Properties=species:S:1:pos:R:3:Z:I:1 energy=-339.9710525551836 field_type=dipole dipole="0.000000 0.000000 0.000000" charge=0
C	-1.711480	0.100047	-0.322274	6
N	-0.272609	0.345847	-0.410774	7
C	0.561400	-0.861743	-0.441344	6
C	0.904591	-1.313513	0.960816	6
O	0.567370	-2.400603	1.424566	8
C	0.223460	1.553387	0.005306	6
N	1.446701	1.938477	0.065716	7
H	-2.274420	0.981817	-0.646464	1
H	-1.996840	-0.138003	0.707656	1
H	-2.011029	-0.729473	-0.971094	1
H	1.493011	-0.680623	-0.988934	1
H	0.046170	-1.679793	-0.958274	1
H	1.507821	-0.608133	1.557616	1
H	-0.562180	2.259757	0.327096	1
H	2.078030	1.232547	-0.309614	1
Es	-1.711294	0.100080	-0.322290	99
Es	-0.225244	0.447043	-0.540067	99
Es	1.446489	1.938021	0.065555	99
Es	-0.319919	2.016850	0.216275	99
Es	-0.045096	0.865241	-0.231008	99
Es	1.197553	-0.730856	-0.791989	99
Es	0.567445	-2.400282	1.424364	99
Es	0.481267	-1.901807	1.339964	99
Es	0.203884	-1.403051	-0.783854	99
Es	0.733569	-1.079715	0.258141	99
Es	1.313476	-0.824727	1.354700	99
Es	1.569670	2.271046	0.165072	99
Es	0.223331	1.553232	0.005265	99
Es	-1.901624	-0.463190	-0.760237	99
Es	0.384712	-2.600033	1.242109	99
Es	0.988307	1.655306	0.310392	99
Es	-0.272461	0.345956	-0.409512	99
Es	0.561333	-0.861581	-0.441288	99
Es	-2.084665	0.702755	-0.536676	99
Es	0.904577	-1.313519	0.960790	99
Es	1.800543	1.494049	-0.156261	99
Es	0.955996	1.860297	-0.217005	99
Es	-0.885858	0.239694	-0.346650	99
Es	0.908533	-2.102845	1.162524	99
Es	-1.905615	-0.063441	0.379802	99
Es	0.097807	-0.168379	-0.372314	99
Es	0.668201	-2.409074	1.697714	99
42
Properties=species:S:1:pos:R:3:Z:I:1 energy=-339.9710525551836 field_type=dipole dipole="0.000000 0.000000 0.000000" charge=0
C	-1.711480	0.100047	-0.322274	6
N	-0.272609	0.345847	-0.410774	7
C	0.561400	-0.861743	-0.441344	6
C	0.904591	-1.313513	0.960816	6
O	0.567370	-2.400603	1.424566	8
C	0.223460	1.553387	0.005306	6
N	1.446701	1.938477	0.065716	7
H	-2.274420	0.981817	-0.646464	1
H	-1.996840	-0.138003	0.707656	1
H	-2.011029	-0.729473	-0.971094	1
H	1.493011	-0.680623	-0.988934	1
H	0.046170	-1.679793	-0.958274	1
H	1.507821	-0.608133	1.557616	1
H	-0.562180	2.259757	0.327096	1
H	2.078030	1.232547	-0.309614	1
Es	0.904583	-1.313522	0.960787	99
Es	0.567450	-2.400317	1.424415	99
Es	-2.083754	0.702002	-0.536280	99
Es	1.798329	1.495037	-0.156782	99
Es	-1.905852	-0.063013	0.380463	99
Es	-1.711293	0.100078	-0.322294	99
Es	1.446481	1.938017	0.065555	99
Es	-1.902096	-0.463314	-0.761100	99
Es	0.483794	-1.903666	1.339966	99
Es	-0.319540	2.016356	0.216285	99
Es	0.100209	-0.170796	-0.382330	99
Es	1.571845	2.270546	0.166216	99
Es	-0.253460	0.385812	-0.449288	99
Es	0.733973	-1.079888	0.258421	99
Es	1.197192	-0.730395	-0.791996	99
Es	0.667221	-2.416109	1.704731	99
Es	0.223330	1.553234	0.005258	99
Es	0.203650	-1.403022	-0.784347	99
Es	-0.888117	0.239821	-0.355616	99
Es	1.313475	-0.824723	1.354904	99
Es	0.384325	-2.592464	1.234478	99
Es	0.561330	-0.861577	-0.441287	99
Es	-0.043913	0.874129	-0.277588	99
Es	-0.245486	0.400518	-0.435211	99
Es	0.988577	1.653817	0.310472	99
Es	0.907030	-2.101256	1.163229	99
Es	0.955629	1.861763	-0.217544	99
42
Properties=species:S:1:pos:R:3:Z:I:1 energy=-339.9710525551836 field_type=dipole dipole="0.000000 0.000000 0.000000" charge=0
C	-1.711480	0.100047	-0.322274	6
N	-0.272609	0.345847	-0.410774	7
C	0.561400	-0.861743	-0.441344	6
C	0.904591	-1.313513	0.960816	6
O	0.567370	-2.400603	1.424566	8
C	0.223460	1.553387	0.005306	6
N	1.446701	1.938477	0.065716	7
H	-2.274420	0.981817	-0.646464	1
H	-1.996840	-0.138003	0.707656	1
H	-2.011029	-0.729473	-0.971094	1
H	1.493011	-0.680623	-0.988934	1
H	0.046170	-1.679793	-0.958274	1
H	1.507821	-0.608133	1.557616	1
H	-0.562180	2.259757	0.327096	1
H	2.078030	1.232547	-0.309614	1
Es	-1.711296	0.100081	-0.322290	99
Es	-0.044192	0.869403	-0.247517	99
Es	1.798073	1.494733	-0.155217	99
Es	0.668874	-2.408312	1.696295	99
Es	-0.319561	2.016437	0.216016	99
Es	-1.905566	-0.063310	0.379739	99
Es	0.733604	-1.079457	0.257959	99
Es	1.446486	1.938023	0.065557	99
Es	1.197652	-0.730478	-0.791934	99
Es	1.313798	-0.824892	1.354631	99
Es	0.957075	1.859761	-0.217276	99
Es	-1.901691	-0.463320	-0.760179	99
Es	0.097808	-0.168040	-0.371299	99
Es	0.907929	-2.101295	1.162226	99
Es	-2.084722	0.702523	-0.536610	99
Es	0.384255	-2.601152	1.242860	99
Es	1.571601	2.271833	0.163883	99
Es	0.203512	-1.403285	-0.783795	99
Es	-0.225516	0.442536	-0.522883	99
Es	0.481200	-1.902725	1.341008	99
Es	-0.272495	0.345895	-0.409531	99
Es	0.561330	-0.861577	-0.441287	99
Es	0.904580	-1.313519	0.960787	99
Es	0.567444	-2.400310	1.424400	99
Es	0.987684	1.654777	0.310872	99
Es	0.223333	1.553234	0.005264	99
Es	-0.886286	0.239506	-0.348167	99
42
Properties=species:S:1:pos:R:3:Z:I:1 energy=-339.9710525551836 field_type=dipole dipole="0.000000 0.000000 0.000000" charge=0
C	-1.711480	0.100047	-0.322274	6
N	-0.272609	0.345847	-0.410774	7
C	0.561400	-0.861743	-0.441344	6
C	0.904591	-1.313513	0.960816	6
O	0.567370	-2.400603	1.424566	8
C	0.223460	1.553387	0.005306	6
N	1.446701	1.938477	0.065716	7
H	-2.274420	0.981817	-0.646464	1
H	-1.996840	-0.138003	0.707656	1
H	-2.011029	-0.729473	-0.971094	1
H	1.493011	-0.680623	-0.988934	1
H	0.046170	-1.679793	-0.958274	1
H	1.507821	-0.608133	1.557616	1
H	-0.562180	2.259757	0.327096	1
H	2.078030	1.232547	-0.309614	1
Es	1.572149	2.272465	0.162900	99
Es	0.561331	-0.861578	-0.441287	99
Es	-1.901620	-0.463061	-0.760236	99
Es	-1.905631	-0.063593	0.379733	99
Es	-0.886408	0.239774	-0.348967	99
Es	0.203415	-1.403342	-0.783672	99
Es	-0.224900	0.441690	-0.521662	99
Es	0.986823	1.654276	0.310915	99
Es	1.446521	1.938017	0.065548	99
Es	1.797022	1.495192	-0.154817	99
Es	1.313769	-0.824817	1.354615	99
Es	0.097521	-0.167707	-0.369435	99
Es	0.381854	-2.601453	1.244272	99
Es	-2.084785	0.702490	-0.536543	99
Es	-0.319448	2.016402	0.215926	99
Es	0.958384	1.859247	-0.216800	99
Es	0.908571	-2.103571	1.162313	99
Es	0.668704	-2.406965	1.694692	99
Es	-1.711297	0.100082	-0.322286	99
Es	0.733445	-1.079298	0.258003	99
Es	1.197687	-0.730466	-0.791951	99
Es	-0.272590	0.345767	-0.410066	99
Es	0.904577	-1.313517	0.960788	99
Es	0.567450	-2.400303	1.424403	99
Es	0.483286	-1.901618	1.341025	99
Es	-0.044246	0.869725	-0.249156	99
Es	0.223329	1.553232	0.005260	99
42
Properties=species:S:1:pos:R:3:Z:I:1 energy=-339.9710525551836 field_type=dipole dipole="0.000000 0.000000 0.000000" charge=0
C	-1.711480	0.100047	-0.322274	6
N	-0.272609	0.345847	-0.410774	7
C	0.561400	-0.861743	-0.441344	6
C	0.904591	-1.313513	0.960816	6
O	0.567370	-2.400603	1.424566	8
C	0.223460	1.553387	0.005306	6
N	1.446701	1.938477	0.065716	7
H	-2.274420	0.981817	-0.646464	1
H	-1.996840	-0.138003	0.707656	1
H	-2.011029	-0.729473	-0.971094	1
H	1.493011	-0.680623	-0.988934	1
H	0.046170	-1.679793	-0.958274	1
H	1.507821	-0.608133	1.557616	1
H	-0.562180	2.259757	0.327096	1
H	2.078030	1.232547	-0.309614	1
Es	0.561331	-0.861579	-0.441288	99
Es	1.197767	-0.730338	-0.791975	99
Es	-1.711296	0.100081	-0.322290	99
Es	0.733448	-1.079304	0.257933	99
Es	0.987899	1.653468	0.311373	99
Es	0.567542	-2.400219	1.424538	99
Es	-0.272541	0.345814	-0.409791	99
Es	-0.225088	0.440654	-0.516851	99
Es	0.669175	-2.403216	1.692929	99
Es	-0.044341	0.870765	-0.254152	99
Es	1.446512	1.938025	0.065555	99
Es	0.957448	1.859624	-0.217145	99
Es	-0.319339	2.016304	0.215816	99
Es	-1.901612	-0.463135	-0.760252	99
Es	-0.886495	0.239731	-0.349129	99
Es	0.203283	-1.403295	-0.783686	99
Es	0.908270	-2.103381	1.161936	99
Es	0.904582	-1.313519	0.960787	99
Es	0.382094	-2.604833	1.247591	99
Es	-2.084802	0.702496	-0.536516	99
Es	1.573779	2.272143	0.163345	99
Es	-1.905615	-0.063565	0.379666	99
Es	0.223332	1.553233	0.005264	99
Es	0.097803	-0.167773	-0.369173	99
Es	1.313790	-0.824861	1.354618	99
Es	1.795285	1.495963	-0.155332	99
Es	0.482700	-1.902211	1.339741	99
42
Properties=species:S:1:pos:R:3:Z:I:1 energy=-339.9710525551836 field_type=dipole dipole="0.000000 0.000000 0.000000" charge=0
C	-1.711480	0.100047	-0.322274	6
N	-0.272609	0.345847	-0.410774	7
C	0.561400	-0.861743	-0.441344	6
C	0.904591	-1.313513	0.960816	6
O	0.567370	-2.400603	1.424566	8
C	0.223460	1.553387	0.005306	6
N	1.446701	1.938477	0.065716	7
H	-2.274420	0.981817	-0.646464	1
H	-1.996840	-0.138003	0.707656	1
H	-2.011029	-0.729473	-0.971094	1
H	1.493011	-0.680623	-0.988934	1
H	0.046170	-1.679793	-0.958274	1
H	1.507821	-0.608133	1.557616	1
H	-0.562180	2.259757	0.327096	1
H	2.078030	1.232547	-0.309614	1
Es	0.904577	-1.313517	0.960789	99
Es	0.957754	1.858971	-0.216774	99
Es	0.223322	1.553235	0.005261	99
Es	1.197754	-0.730306	-0.791975	99
Es	0.567481	-2.400295	1.424466	99
Es	0.908697	-2.102638	1.162055	99
Es	-1.901651	-0.463196	-0.760192	99
Es	-1.711293	0.100082	-0.322289	99
Es	0.382024	-2.605344	1.248045	99
Es	1.795301	1.496024	-0.155075	99
Es	-0.319288	2.016272	0.215694	99
Es	-2.084798	0.702342	-0.536549	99
Es	-1.905624	-0.063452	0.379694	99
Es	0.097394	-0.167113	-0.367072	99
Es	0.561334	-0.861581	-0.441287	99
Es	0.482598	-1.902912	1.339980	99
Es	-0.044439	0.871317	-0.256709	99
Es	-0.886498	0.239736	-0.349830	99
Es	1.313868	-0.824825	1.354594	99
Es	0.733553	-1.079136	0.257798	99
Es	-0.224565	0.439382	-0.515920	99
Es	1.446487	1.938018	0.065550	99
Es	0.203219	-1.403531	-0.783483	99
Es	0.987854	1.653552	0.311401	99
Es	0.668858	-2.402627	1.692179	99
Es	-0.272500	0.345878	-0.409618	99
Es	1.573493	2.272732	0.162781	99
42
Properties=species:S:1:pos:R:3:Z:I:1 energy=-339.9710525551836 field_type=dipole dipole="0.000000 0.000000 0.000000" charge=0
C	-1.711480	0.100047	-0.322274	6
N	-0.272609	0.345847	-0.410774	7
C	0.561400	-0.861743	-0.441344	6
C	0.904591	-1.313513	0.960816	6
O	0.567370	-2.400603	1.424566	8
C	0.223460	1.553387	0.005306	6
N	1.446701	1.938477	0.065716	7
H	-2.274420	0.981817	-0.646464	1
H	-1.996840	-0.138003	0.707656	1
H	-2.011029	-0.729473	-0.971094	1
H	1.493011	-0.680623	-0.988934	1
H	0.046170	-1.679793	-0.958274	1
H	1.507821	-0.608133	1.557616	1
H	-0.562180	2.259757	0.327096	1
H	2.078030	1.232547	-0.309614	1
Es	1.574302	2.272780	0.162672	99
Es	0.733502	-1.079219	0.257879	99
Es	0.908748	-2.102556	1.162603	99
Es	-1.901724	-0.463240	-0.760320	99
Es	1.313967	-0.824873	1.354543	99
Es	0.097625	-0.167424	-0.367982	99
Es	-0.272494	0.345872	-0.409713	99
Es	0.381535	-2.604122	1.246397	99
Es	0.957641	1.858976	-0.216822	99
Es	0.483374	-1.902907	1.340418	99
Es	-1.711295	0.100077	-0.322290	99
Es	-0.044114	0.872302	-0.263165	99
Es	0.668510	-2.403850	1.692928	99
Es	0.203131	-1.403487	-0.783727	99
Es	1.197703	-0.730144	-0.791888	99
Es	-2.084739	0.702354	-0.536399	99
Es	1.446505	1.938022	0.065554	99
Es	-0.224890	0.438637	-0.508083	99
Es	0.988046	1.653332	0.311545	99
Es	0.223331	1.553235	0.005257	99
Es	-0.886660	0.239733	-0.350086	99
Es	0.561333	-0.861579	-0.441287	99
Es	-1.905602	-0.063450	0.379633	99
Es	1.794362	1.496282	-0.155027	99
Es	0.567439	-2.400333	1.424409	99
Es	0.904580	-1.313519	0.960788	99
Es	-0.319202	2.016171	0.215677	99
42
Properties=species:S:1:pos:R:3:Z:I:1 energy=-339.9710525551836 field_type=dipole dipole="0.000000 0.000000 0.000000" charge=0
C	-1.711480	0.100047	-0.322274	6
N	-0.272609	0.345847	-0.410774	7
C	0.561400	-0.861743	-0.441344	6
C	0.904591	-1.313513	0.960816	6
O	0.567370	-2.400603	1.424566	8
C	0.223460	1.553387	0.005306	6
N	1.446701	1.938477	0.065716	7
H	-2.274420	0.981817	-0.646464	1
H	-1.996840	-0.138003	0.707656	1
H	-2.011029	-0.729473	-0.971094	1
H	1.493011	-0.680623	-0.988934	1
H	0.046170	-1.679793	-0.958274	1
H	1.507821	-0.608133	1.557616	1
H	-0.562180	2.259757	0.327096	1
H	2.078030	1.232547	-0.309614	1
Es	-1.711296	0.100082	-0.322290	99
Es	0.908842	-2.103225	1.162808	99
Es	0.567451	-2.400280	1.424384	99
Es	0.957400	1.858855	-0.217108	99
Es	0.223330	1.553234	0.005257	99
Es	0.483644	-1.902674	1.339678	99
Es	-0.319118	2.016051	0.215599	99
Es	1.446488	1.938019	0.065554	99
Es	0.203147	-1.403510	-0.783688	99
Es	-0.272531	0.345797	-0.409841	99
Es	0.097460	-0.167455	-0.367776	99
Es	0.733381	-1.079159	0.257871	99
Es	0.904573	-1.313518	0.960791	99
Es	0.381189	-2.606011	1.248367	99
Es	1.197784	-0.730073	-0.791857	99
Es	0.668541	-2.401618	1.691499	99
Es	1.793750	1.496422	-0.154735	99
Es	-2.084771	0.702235	-0.536451	99
Es	0.561330	-0.861578	-0.441286	99
Es	1.574862	2.272721	0.162101	99
Es	-0.886715	0.239845	-0.350628	99
Es	-0.224713	0.438351	-0.506106	99
Es	-0.044012	0.872529	-0.264693	99
Es	1.313922	-0.824826	1.354576	99
Es	-1.905720	-0.063665	0.379725	99
Es	0.988297	1.653523	0.312110	99
Es	-1.901602	-0.463003	-0.760349	99
42
Properties=species:S:1:pos:R:3:Z:I:1 energy=-339.9710525551836 field_type=dipole dipole="0.000000 0.000000 0.000000" charge=0
C	-1.711480	0.100047	-0.322274	6
N	-0.272609	0.345847	-0.410774	7
C	0.561400	-0.861743	-0.441344	6
C	0.904591	-1.313513	0.960816	6
O	0.567370	-2.400603	1.424566	8
C	0.223460	1.553387	0.005306	6
N	1.446701	1.938477	0.065716	7
H	-2.274420	0.981817	-0.646464	1
H	-1.996840	-0.138003	0.707656	1
H	-2.011029	-0.729473	-0.971094	1
H	1.493011	-0.680623	-0.988934	1
H	0.046170	-1.679793	-0.958274	1
H	1.507821	-0.608133	1.557616	1
H	-0.562180	2.259757	0.327096	1
H	2.078030	1.232547	-0.309614	1
Es	-0.319099	2.016071	0.215586	99
Es	0.987498	1.652922	0.311327	99
Es	1.574889	2.272828	0.162702	99
Es	1.197732	-0.730034	-0.791854	99
Es	0.097380	-0.166990	-0.366308	99
Es	1.313965	-0.824864	1.354562	99
Es	0.482910	-1.903506	1.338904	99
Es	0.203073	-1.403506	-0.783710	99
Es	0.567462	-2.400316	1.424447	99
Es	0.904585	-1.313522	0.960785	99
Es	1.446501	1.938023	0.065552	99
Es	1.793627	1.496773	-0.154336	99
Es	-1.901544	-0.463109	-0.760225	99
Es	-0.224369	0.437861	-0.507593	99
Es	-0.886832	0.239823	-0.350784	99
Es	-1.905621	-0.063621	0.379693	99
Es	0.908270	-2.102776	1.161587	99
Es	0.223327	1.553234	0.005256	99
Es	-0.272527	0.345836	-0.409708	99
Es	0.733473	-1.079177	0.257851	99
Es	-1.711301	0.100081	-0.322290	99
Es	0.669636	-2.397704	1.689186	99
Es	-0.044177	0.872530	-0.264595	99
Es	0.958325	1.858935	-0.217370	99
Es	-2.084879	0.702301	-0.536519	99
Es	0.381280	-2.609447	1.252653	99
Es	0.561331	-0.861578	-0.441288	99
42
Properties=species:S:1:pos:R:3:Z:I:1 energy=-339.9710525551836 field_type=dipole dipole="0.000000 0.000000 0.000000" charge=0
C	-1.711480	0.100047	-0.322274	6
N	-0.272609	0.345847	-0.410774	7
C	0.561400	-0.861743	-0.441344	6
C	0.904591	-1.313513	0.960816	6
O	0.567370	-2.400603	1.424566	8
C	0.223460	1.553387	0.005306	6
N	1.446701	1.938477	0.065716	7
H	-2.274420	0.981817	-0.646464	1
H	-1.996840	-0.138003	0.707656	1
H	-2.011029	-0.729473	-0.971094	1
H	1.493011	-0.680623	-0.988934	1
H	0.046170	-1.679793	-0.958274	1
H	1.507821	-0.608133	1.557616	1
H	-0.562180	2.259757	0.327096	1
H	2.078030	1.232547	-0.309614	1
Es	-0.886887	0.239649	-0.351063	99
Es	-0.319024	2.016012	0.215519	99
Es	-0.272593	0.345757	-0.410160	99
Es	0.483072	-1.903275	1.339479	99
Es	0.561331	-0.861578	-0.441287	99
Es	1.576197	2.272643	0.162470	99
Es	-0.224414	0.437704	-0.503422	99
Es	0.669582	-2.398705	1.689221	99
Es	0.987641	1.652906	0.311600	99
Es	0.567503	-2.400259	1.424485	99
Es	0.203000	-1.403525	-0.783578	99
Es	0.958121	1.859180	-0.217183	99
Es	1.792384	1.496825	-0.154507	99
Es	1.314028	-0.824903	1.354581	99
Es	1.197668	-0.730070	-0.791999	99
Es	-2.084845	0.702338	-0.536508	99
Es	-0.044065	0.872939	-0.267429	99
Es	0.904578	-1.313518	0.960788	99
Es	0.908276	-2.102783	1.161592	99
Es	1.446475	1.937992	0.065550	99
Es	-1.901574	-0.463123	-0.760246	99
Es	0.733608	-1.079120	0.257844	99
Es	0.381048	-2.608686	1.251997	99
Es	0.097407	-0.167046	-0.366860	99
Es	-1.905635	-0.063600	0.379659	99
Es	-1.711297	0.100081	-0.322288	99
Es	0.223330	1.553234	0.005257	99
42
Properties=species:S:1:pos:R:3:Z:I:1 energy=-339.9710525551836 field_type=dipole dipole="0.000000 0.000000 0.000000" charge=0
C	-1.711480	0.100047	-0.322274	6
N	-0.272609	0.345847	-0.410774	7
C	0.561400	-0.861743	-0.441344	6
C	0.904591	-1.313513	0.960816	6
O	0.567370	-2.400603	1.424566	8
C	0.223460	1.553387	0.005306	6
N	1.446701	1.938477	0.065716	7
H	-2.274420	0.981817	-0.646464	1
H	-1.996840	-0.138003	0.707656	1
H	-2.011029	-0.729473	-0.971094	1
H	1.493011	-0.680623	-0.988934	1
H	0.046170	-1.679793	-0.958274	1
H	1.507821	-0.608133	1.557616	1
H	-0.562180	2.259757	0.327096	1
H	2.078030	1.232547	-0.309614	1
Es	1.313999	-0.824849	1.354575	99
Es	-1.711296	0.100082	-0.322290	99
Es	0.987866	1.652492	0.311605	99
Es	1.575734	2.273119	0.162225	99
Es	0.561330	-0.861578	-0.441287	99
Es	-0.887043	0.239913	-0.351712	99
Es	0.733480	-1.078977	0.257739	99
Es	0.908315	-2.103967	1.161910	99
Es	0.567419	-2.400320	1.424357	99
Es	0.223330	1.553230	0.005265	99
Es	0.380375	-2.607522	1.251010	99
Es	1.446512	1.938038	0.065560	99
Es	1.197742	-0.730051	-0.791788	99
Es	-0.272564	0.345783	-0.409906	99
Es	-0.044002	0.873372	-0.271509	99
Es	0.097584	-0.167092	-0.366792	99
Es	1.792401	1.497292	-0.154475	99
Es	0.484109	-1.902861	1.338695	99
Es	-0.319018	2.015942	0.215547	99
Es	0.958261	1.858709	-0.216983	99
Es	-1.901733	-0.463295	-0.760333	99
Es	0.669313	-2.399090	1.690753	99
Es	-0.224355	0.437147	-0.499113	99
Es	-2.084746	0.702156	-0.536367	99
Es	0.904581	-1.313519	0.960787	99
Es	-1.905598	-0.063399	0.379655	99
Es	0.202917	-1.403685	-0.783614	99
42
Properties=species:S:1:pos:R:3:Z:I:1 energy=-339.9710525551836 field_type=dipole dipole="0.000000 0.000000 0.000000" charge=0
C	-1.711480	0.100047	-0.322274	6
N	-0.272609	0.345847	-0.410774	7
C	0.561400	-0.861743	-0.441344	6
C	0.904591	-1.313513	0.960816	6
O	0.567370	-2.400603	1.424566	8
C	0.223460	1.553387	0.005306	6
N	1.446701	1.938477	0.065716	7
H	-2.274420	0.981817	-0.646464	1
H	-1.996840	-0.138003	0.707656	1
H	-2.011029	-0.729473	-0.971094	1
H	1.493011	-0.680623	-0.988934	1
H	0.046170	-1.679793	-0.958274	1
H	1.507821	-0.608133	1.557616	1
H	-0.562180	2.259757	0.327096	1
H	2.078030	1.232547	-0.309614	1
Es	0.561331	-0.861578	-0.441287	99
Es	-0.271978	0.346685	-0.408567	99
Es	0.958996	1.858335	-0.216844	99
Es	-1.711297	0.100080	-0.322290	99
Es	1.446490	1.938016	0.065553	99
Es	-1.901595	-0.463211	-0.760203	99
Es	1.314020	-0.824857	1.354571	99
Es	0.987264	1.652624	0.311563	99
Es	-0.318850	2.015882	0.215546	99
Es	0.669716	-2.400478	1.689156	99
Es	0.202938	-1.403512	-0.783623	99
Es	0.567421	-2.400327	1.424369	99
Es	-2.084853	0.702248	-0.536526	99
Es	0.908364	-2.102512	1.161658	99
Es	-0.887157	0.239756	-0.352327	99
Es	-1.905607	-0.063500	0.379679	99
Es	0.097439	-0.166968	-0.366601	99
Es	0.223329	1.553233	0.005257	99
Es	0.379815	-2.607084	1.250505	99
Es	0.904587	-1.313522	0.960785	99
Es	1.575900	2.273467	0.161542	99
Es	-0.224746	0.436194	-0.500217	99
Es	0.484177	-1.903348	1.341027	99
Es	1.197732	-0.730064	-0.791899	99
Es	1.792095	1.497263	-0.153951	99
Es	0.733473	-1.079101	0.257897	99
Es	-0.044088	0.873346	-0.271260	99
42
Properties=species:S:1:pos:R:3:Z:I:1 energy=-339.9710525551836 field_type=dipole dipole="0.000000 0.000000 0.000000" charge=0
C	-1.711480	0.100047	-0.322274	6
N	-0.272609	0.345847	-0.410774	7
C	0.561400	-0.861743	-0.441344	6
C	0.904591	-1.313513	0.960816	6
O	0.567370	-2.400603	1.424566	8
C	0.223460	1.553387	0.005306	6
N	1.446701	1.938477	0.065716	7
H	-2.274420	0.981817	-0.646464	1
H	-1.996840	-0.138003	0.707656	1
H	-2.011029	-0.729473	-0.971094	1
H	1.493011	-0.680623	-0.988934	1
H	0.046170	-1.679793	-0.958274	1
H	1.507821	-0.608133	1.557616	1
H	-0.562180	2.259757	0.327096	1
H	2.078030	1.232547	-0.309614	1
Es	0.957981	1.858322	-0.217409	99
Es	-1.901637	-0.463094	-0.760335	99
Es	0.483597	-1.903442	1.338959	99
Es	-0.887114	0.239835	-0.351912	99
Es	1.314026	-0.824857	1.354571	99
Es	-1.711297	0.100080	-0.322290	99
Es	0.908669	-2.103076	1.162069	99
Es	0.733524	-1.079142	0.257811	99
Es	0.904586	-1.313523	0.960785	99
Es	-2.084795	0.702236	-0.536402	99
Es	-0.044048	0.873469	-0.272388	99
Es	0.669223	-2.396797	1.687838	99
Es	-1.905643	-0.063617	0.379686	99
Es	0.097448	-0.166868	-0.366074	99
Es	-0.318906	2.015854	0.215455	99
Es	1.576691	2.273116	0.161438	99
Es	1.197717	-0.729994	-0.791840	99
Es	0.561328	-0.861575	-0.441286	99
Es	1.446482	1.938017	0.065554	99
Es	0.380498	-2.610135	1.253430	99
Es	0.988214	1.652788	0.312288	99
Es	1.791368	1.497477	-0.153865	99
Es	0.223329	1.553234	0.005256	99
Es	-0.272446	0.345920	-0.409454	99
Es	0.567478	-2.400278	1.424444	99
Es	0.202928	-1.403544	-0.783695	99
Es	-0.224287	0.436664	-0.499119	99
42
Properties=species:S:1:pos:R:3:Z:I:1 energy=-339.9710525551836 field_type=dipole dipole="0.000000 0.000000 0.000000" charge=0
C	-1.711480	0.100047	-0.322274	6
N	-0.272609	0.345847	-0.410774	7
C	0.561400	-0.861743	-0.441344	6
C	0.904591	-1.313513	0.960816	6
O	0.567370	-2.400603	1.424566	8
C	0.223460	1.553387	0.005306	6
N	1.446701	1.938477	0.065716	7
H	-2.274420	0.981817	-0.646464	1
H	-1.996840	-0.138003	0.707656	1
H	-2.011029	-0.729473	-0.971094	1
H	1.493011	-0.680623	-0.988934	1
H	0.046170	-1.679793	-0.958274	1
H	1.507821	-0.608133	1.557616	1
H	-0.562180	2.259757	0.327096	1
H	2.078030	1.232547	-0.309614	1
Es	0.483750	-1.903568	1.339160	99
Es	1.791226	1.497629	-0.153804	99
Es	-1.905581	-0.063447	0.379640	99
Es	0.223329	1.553234	0.005257	99
Es	-0.887106	0.239693	-0.352075	99
Es	0.567468	-2.400271	1.424411	99
Es	-0.044075	0.873742	-0.273936	99
Es	0.380476	-2.609981	1.253013	99
Es	-0.318903	2.015942	0.215500	99
Es	-0.224222	0.436493	-0.497311	99
Es	0.988435	1.652644	0.312155	99
Es	0.561328	-0.861575	-0.441286	99
Es	0.908550	-2.102802	1.162214	99
Es	-1.901643	-0.463264	-0.760205	99
Es	0.957961	1.858023	-0.217367	99
Es	1.197778	-0.729851	-0.791880	99
Es	1.314053	-0.824833	1.354548	99
Es	1.576705	2.273287	0.161380	99
Es	0.904577	-1.313516	0.960789	99
Es	-0.272483	0.345888	-0.409542	99
Es	-1.711296	0.100079	-0.322291	99
Es	0.733409	-1.079116	0.257849	99
Es	0.202853	-1.403535	-0.783670	99
Es	-2.084843	0.702243	-0.536487	99
Es	0.097443	-0.166977	-0.366063	99
Es	1.446482	1.938013	0.065554	99
Es	0.669245	-2.397104	1.687960	99
42
Properties=species:S:1:pos:R:3:Z:I:1 energy=-339.9710525551836 field_type=dipole dipole="0.000000 0.000000 0.000000" charge=0
C	-1.711480	0.100047	-0.322274	6
N	-0.272609	0.345847	-0.410774	7
C	0.561400	-0.861743	-0.441344	6
C	0.904591	-1.313513	0.960816	6
O	0.567370	-2.400603	1.424566	8
C	0.223460	1.553387	0.005306	6
N	1.446701	1.938477	0.065716	7
H	-2.274420	0.981817	-0.646464	1
H	-1.996840	-0.138003	0.707656	1
H	-2.011029	-0.729473	-0.971094	1
H	1.493011	-0.680623	-0.988934	1
H	0.046170	-1.679793	-0.958274	1
H	1.507821	-0.608133	1.557616	1
H	-0.562180	2.259757	0.327096	1
H	2.078030	1.232547	-0.309614	1
Es	0.561330	-0.861578	-0.441287	99
Es	-1.901694	-0.463158	-0.760411	99
Es	-0.224211	0.436519	-0.491515	99
Es	1.446500	1.938030	0.065557	99
Es	-0.044050	0.874034	-0.277085	99
Es	0.670531	-2.395706	1.687722	99
Es	1.791191	1.497785	-0.153885	99
Es	0.097628	-0.167415	-0.366910	99
Es	0.958752	1.859242	-0.217755	99
Es	-1.905656	-0.063530	0.379747	99
Es	0.733472	-1.079023	0.257843	99
Es	1.197698	-0.729797	-0.791840	99
Es	0.907541	-2.102836	1.161059	99
Es	0.202862	-1.403599	-0.783728	99
Es	-2.084711	0.702107	-0.536357	99
Es	1.577022	2.272698	0.162661	99
Es	0.223331	1.553233	0.005261	99
Es	0.987263	1.652015	0.311395	99
Es	0.379994	-2.610909	1.254884	99
Es	-0.272602	0.345821	-0.410841	99
Es	1.314029	-0.824883	1.354594	99
Es	-0.887224	0.239933	-0.352683	99
Es	0.904582	-1.313519	0.960787	99
Es	0.567381	-2.400293	1.424241	99
Es	0.484041	-1.903972	1.338866	99
Es	-0.318792	2.015788	0.215483	99
Es	-1.711293	0.100082	-0.322290	99
42
Properties=species:S:1:pos:R:3:Z:I:1 energy=-339.9710525551836 field_type=dipole dipole="0.000000 0.000000 0.000000" charge=0
C	-1.711480	0.100047	-0.322274	6
N	-0.272609	0.345847	-0.410774	7
C	0.561400	-0.861743	-0.441344	6
C	0.904591	-1.313513	0.960816	6
O	0.567370	-2.400603	1.424566	8
C	0.223460	1.553387	0.005306	6
N	1.446701	1.938477	0.065716	7
H	-2.274420	0.981817	-0.646464	1
H	-1.996840	-0.138003	0.707656	1
H	-2.011029	-0.729473	-0.971094	1
H	1.493011	-0.680623	-0.988934	1
H	0.046170	-1.679793	-0.958274	1
H	1.507821	-0.608133	1.557616	1
H	-0.562180	2.259757	0.327096	1
H	2.078030	1.232547	-0.309614	1
Es	1.314142	-0.824895	1.354538	99
Es	1.791131	1.497858	-0.153646	99
Es	-2.084879	0.702178	-0.536371	99
Es	0.904583	-1.313520	0.960786	99
Es	-0.224260	0.436373	-0.491840	99
Es	-0.318796	2.015871	0.215375	99
Es	-0.044069	0.874127	-0.277768	99
Es	0.561329	-0.861578	-0.441287	99
Es	-0.272500	0.345862	-0.409594	99
Es	-1.901713	-0.463464	-0.760203	99
Es	1.576386	2.273926	0.161038	99
Es	0.202805	-1.403700	-0.783572	99
Es	0.908654	-2.099669	1.162719	99
Es	0.483828	-1.905575	1.341167	99
Es	-1.711297	0.100081	-0.322290	99
Es	0.668610	-2.401454	1.690217	99
Es	0.959010	1.857621	-0.216758	99
Es	0.097556	-0.167094	-0.366780	99
Es	-1.905515	-0.063307	0.379463	99
Es	0.733496	-1.078991	0.257654	99
Es	1.446511	1.938025	0.065553	99
Es	1.197790	-0.729908	-0.791800	99
Es	0.987724	1.652273	0.311768	99
Es	0.567415	-2.400306	1.424322	99
Es	0.380838	-2.606656	1.248329	99
Es	-0.887193	0.239758	-0.352769	99
Es	0.223330	1.553233	0.005259	99
42
Properties=species:S:1:pos:R:3:Z:I:1 energy=-339.9710525551836 field_type=dipole dipole="0.000000 0.000000 0.000000" charge=0
C	-1.711480	0.100047	-0.322274	6
N	-0.272609	0.345847	-0.410774	7
C	0.561400	-0.861743	-0.441344	6
C	0.904591	-1.313513	0.960816	6
O	0.567370	-2.400603	1.424566	8
C	0.223460	1.553387	0.005306	6
N	1.446701	1.938477	0.065716	7
H	-2.274420	0.981817	-0.646464	1
H	-1.996840	-0.138003	0.707656	1
H	-2.011029	-0.729473	-0.971094	1
H	1.493011	-0.680623	-0.988934	1
H	0.046170	-1.679793	-0.958274	1
H	1.507821	-0.608133	1.557616	1
H	-0.562180	2.259757	0.327096	1
H	2.078030	1.232547	-0.309614	1
Es	1.577544	2.273258	0.161444	99
Es	0.567422	-2.400309	1.424348	99
Es	1.790300	1.497918	-0.153537	99
Es	0.959014	1.858387	-0.217219	99
Es	0.380230	-2.609953	1.253180	99
Es	1.314106	-0.824904	1.354575	99
Es	-0.272545	0.345803	-0.409801	99
Es	-1.901698	-0.463282	-0.760283	99
Es	0.223331	1.553234	0.005258	99
Es	0.733383	-1.078937	0.257745	99
Es	0.669426	-2.397057	1.687822	99
Es	0.904582	-1.313519	0.960787	99
Es	-0.044097	0.874068	-0.277450	99
Es	1.197817	-0.729769	-0.791781	99
Es	-0.318792	2.015792	0.215344	99
Es	-2.084801	0.702113	-0.536388	99
Es	0.202798	-1.403665	-0.783654	99
Es	-1.905628	-0.063420	0.379579	99
Es	0.908389	-2.103348	1.162218	99
Es	1.446490	1.938018	0.065547	99
Es	0.561331	-0.861579	-0.441288	99
Es	-1.711296	0.100080	-0.322290	99
Es	0.483937	-1.903019	1.339181	99
Es	0.097506	-0.166934	-0.365910	99
Es	-0.224094	0.436170	-0.493339	99
Es	0.987383	1.652205	0.311834	99
Es	-0.887121	0.239721	-0.352410	99
42
Properties=species:S:1:pos:R:3:Z:I:1 energy=-339.9710525551836 field_type=dipole dipole="0.000000 0.000000 0.000000" charge=0
C	-1.711480	0.100047	-0.322274	6
N	-0.272609	0.345847	-0.410774	7
C	0.561400	-0.861743	-0.441344	6
C	0.904591	-1.313513	0.960816	6
O	0.567370	-2.400603	1.424566	8
C	0.223460	1.553387	0.005306	6
N	1.446701	1.938477	0.065716	7
H	-2.274420	0.981817	-0.646464	1
H	-1.996840	-0.138003	0.707656	1
H	-2.011029	-0.729473	-0.971094	1
H	1.493011	-0.680623	-0.988934	1
H	0.046170	-1.679793	-0.958274	1
H	1.507821	-0.608133	1.557616	1
H	-0.562180	2.259757	0.327096	1
H	2.078030	1.232547	-0.309614	1
Es	0.561330	-0.861578	-0.441287	99
Es	-1.711295	0.100080	-0.322290	99
Es	-1.905547	-0.063347	0.379487	99
Es	-0.044122	0.874232	-0.279134	99
Es	0.202841	-1.403731	-0.783678	99
Es	0.733378	-1.078973	0.257725	99
Es	-0.887204	0.239705	-0.352644	99
Es	0.904577	-1.313518	0.960790	99
Es	0.668607	-2.399394	1.688472	99
Es	1.577074	2.273775	0.160959	99
Es	1.314063	-0.824809	1.354548	99
Es	-0.224139	0.435706	-0.492012	99
Es	0.223330	1.553234	0.005258	99
Es	0.380091	-2.608044	1.250625	99
Es	0.909149	-2.101771	1.162666	99
Es	-1.901665	-0.463435	-0.760219	99
Es	1.446483	1.938012	0.065549	99
Es	1.790438	1.498063	-0.153955	99
Es	-0.272389	0.346015	-0.409309	99
Es	0.958113	1.857687	-0.216776	99
Es	-0.318717	2.015775	0.215302	99
Es	1.197794	-0.729709	-0.791719	99
Es	0.567430	-2.400341	1.424421	99
Es	0.484209	-1.904216	1.340498	99
Es	-2.084885	0.702151	-0.536397	99
Es	0.097363	-0.166779	-0.365635	99
Es	0.988606	1.652280	0.312268	99
