43
Properties=species:S:1:pos:R:3:Z:I:1 energy=-324.0060863206764 field_type=dipole dipole="0.000000 0.000000 0.000000" charge=0
C	-2.155619	1.356349	0.814848	6
N	-0.808929	0.995419	0.459768	7
C	-0.546289	-0.178311	-0.201982	6
O	-1.409839	-0.977031	-0.545782	8
C	0.905781	-0.475621	-0.406692	6
C	1.270691	-1.929651	-0.385332	6
C	1.799621	0.496909	-0.652082	6
H	-2.162949	2.395029	1.152898	1
H	-2.498939	0.700239	1.619068	1
H	-2.812189	1.241529	-0.052392	1
H	-0.043179	1.500769	0.885698	1
H	0.747671	-2.470731	-1.180512	1
H	1.001351	-2.376521	0.577118	1
H	2.344991	-2.082671	-0.533202	1
H	1.520821	1.542549	-0.725922	1
H	2.847001	0.261739	-0.825502	1
Es	1.085393	-1.190656	-0.392169	99
Es	-2.595631	1.285829	0.232611	99
Es	0.190513	-0.313836	-0.296183	99
Es	-2.155422	1.356323	0.814813	99
Es	1.270688	-1.929579	-0.385321	99
Es	-0.546262	-0.178163	-0.201922	99
Es	-1.131413	-0.587878	-0.645548	99
Es	1.276661	-0.006160	-0.836243	99
Es	0.905674	-0.475689	-0.406666	99
Es	-0.709221	0.470447	0.381720	99
Es	2.508466	0.342072	-0.769366	99
Es	-1.378794	1.142073	0.620477	99
Es	0.923015	-2.278176	-0.916387	99
Es	-1.107053	-0.829030	-0.212047	99
Es	-0.750090	0.954264	0.110904	99
Es	1.799679	0.496984	-0.652084	99
Es	-0.808921	0.995067	0.460060	99
Es	1.087042	-2.218386	0.265642	99
Es	-0.358545	1.287591	0.725267	99
Es	-1.698124	-0.876013	-0.473480	99
Es	2.004248	-2.021288	-0.484690	99
Es	1.405600	0.056955	-0.199462	99
Es	-2.153280	2.063986	1.047460	99
Es	-1.285799	-1.222764	-0.689435	99
Es	-2.392380	0.914284	1.364408	99
Es	-1.409611	-0.976806	-0.545684	99
Es	1.613064	1.206321	-0.695091	99
43
Properties=species:S:1:pos:R:3:Z:I:1 energy=-324.0060863206764 field_type=dipole dipole="0.000000 0.000000 0.000000" charge=0
C	-2.155619	1.356349	0.814848	6
N	-0.808929	0.995419	0.459768	7
C	-0.546289	-0.178311	-0.201982	6
O	-1.409839	-0.977031	-0.545782	8
C	0.905781	-0.475621	-0.406692	6
C	1.270691	-1.929651	-0.385332	6
C	1.799621	0.496909	-0.652082	6
H	-2.162949	2.395029	1.152898	1
H	-2.498939	0.700239	1.619068	1
H	-2.812189	1.241529	-0.052392	1
H	-0.043179	1.500769	0.885698	1
H	0.747671	-2.470731	-1.180512	1
H	1.001351	-2.376521	0.577118	1
H	2.344991	-2.082671	-0.533202	1
H	1.520821	1.542549	-0.725922	1
H	2.847001	0.261739	-0.825502	1
Es	1.406519	0.056806	-0.197917	99
Es	-1.377295	1.133989	0.627045	99
Es	-0.546263	-0.178159	-0.201929	99
Es	0.921694	-2.279977	-0.917750	99
Es	-1.292259	-1.230180	-0.687012	99
Es	2.003306	-2.020730	-0.483633	99
Es	1.084992	-1.190543	-0.392599	99
Es	0.905673	-0.475691	-0.406665	99
Es	-1.690427	-0.874233	-0.465863	99
Es	-0.808930	0.995132	0.460023	99
Es	2.507648	0.342883	-0.767130	99
Es	1.799679	0.496984	-0.652089	99
Es	1.275699	-0.006170	-0.840144	99
Es	-2.155425	1.356325	0.814814	99
Es	-0.353440	1.299391	0.715137	99
Es	-1.409632	-0.976847	-0.545706	99
Es	-2.392199	0.913073	1.363713	99
Es	-2.153349	2.065784	1.047802	99
Es	-0.762579	0.962088	0.149936	99
Es	-1.129257	-0.580825	-0.648322	99
Es	0.191023	-0.313606	-0.298509	99
Es	-2.594357	1.284950	0.232843	99
Es	1.270688	-1.929577	-0.385321	99
Es	1.614389	1.206531	-0.692166	99
Es	1.088428	-2.217078	0.264884	99
Es	-0.703533	0.458737	0.345956	99
Es	-1.111297	-0.831286	-0.217812	99
43
Properties=species:S:1:pos:R:3:Z:I:1 energy=-324.0060863206764 field_type=dipole dipole="0.000000 0.000000 0.000000" charge=0
C	-2.155619	1.356349	0.814848	6
N	-0.808929	0.995419	0.459768	7
C	-0.546289	-0.178311	-0.201982	6
O	-1.409839	-0.977031	-0.545782	8
C	0.905781	-0.475621	-0.406692	6
C	1.270691	-1.929651	-0.385332	6
C	1.799621	0.496909	-0.652082	6
H	-2.162949	2.395029	1.152898	1
H	-2.498939	0.700239	1.619068	1
H	-2.812189	1.241529	-0.052392	1
H	-0.043179	1.500769	0.885698	1
H	0.747671	-2.470731	-1.180512	1
H	1.001351	-2.376521	0.577118	1
H	2.344991	-2.082671	-0.533202	1
H	1.520821	1.542549	-0.725922	1
H	2.847001	0.261739	-0.825502	1
Es	-2.392209	0.912388	1.363676	99
Es	1.799679	0.496983	-0.652091	99
Es	-0.351104	1.307616	0.705498	99
Es	1.084633	-1.190905	-0.392549	99
Es	1.614953	1.206090	-0.690552	99
Es	-1.121700	-0.574984	-0.644642	99
Es	0.905671	-0.475694	-0.406673	99
Es	2.003216	-2.020251	-0.482876	99
Es	2.507420	0.343533	-0.766191	99
Es	0.191193	-0.313400	-0.299789	99
Es	-2.155425	1.356324	0.814814	99
Es	-1.306025	-1.236895	-0.689399	99
Es	-0.768843	0.961742	0.171474	99
Es	1.089100	-2.215617	0.264339	99
Es	-1.409485	-0.976845	-0.545719	99
Es	1.275381	-0.005990	-0.842553	99
Es	1.407016	0.056736	-0.196919	99
Es	-2.152725	2.066487	1.047796	99
Es	1.270688	-1.929579	-0.385321	99
Es	-1.116550	-0.838989	-0.225006	99
Es	-0.701539	0.455989	0.329484	99
Es	-0.546263	-0.178158	-0.201932	99
Es	-0.808935	0.995166	0.459997	99
Es	0.920522	-2.281154	-0.918421	99
Es	-1.679812	-0.866015	-0.459034	99
Es	-2.593586	1.284649	0.232415	99
Es	-1.375773	1.128543	0.631759	99
43
Properties=species:S:1:pos:R:3:Z:I:1 energy=-324.0060863206764 field_type=dipole dipole="0.000000 0.000000 0.000000" charge=0
C	-2.155619	1.356349	0.814848	6
N	-0.808929	0.995419	0.459768	7
C	-0.546289	-0.178311	-0.201982	6
O	-1.409839	-0.977031	-0.545782	8
C	0.905781	-0.475621	-0.406692	6
C	1.270691	-1.929651	-0.385332	6
C	1.799621	0.496909	-0.652082	6
H	-2.162949	2.395029	1.152898	1
H	-2.498939	0.700239	1.619068	1
H	-2.812189	1.241529	-0.052392	1
H	-0.043179	1.500769	0.885698	1
H	0.747671	-2.470731	-1.180512	1
H	1.001351	-2.376521	0.577118	1
H	2.344991	-2.082671	-0.533202	1
H	1.520821	1.542549	-0.725922	1
H	2.847001	0.261739	-0.825502	1
Es	1.084148	-1.191097	-0.392399	99
Es	-1.116342	-0.842238	-0.230764	99
Es	1.614907	1.205185	-0.690016	99
Es	2.004401	-2.019655	-0.483029	99
Es	-1.111089	-0.581222	-0.649665	99
Es	1.407062	0.056866	-0.196877	99
Es	-0.700000	0.455699	0.315709	99
Es	-1.409677	-0.976849	-0.545705	99
Es	0.190648	-0.313420	-0.300160	99
Es	2.508206	0.343899	-0.765799	99
Es	0.919425	-2.281460	-0.918052	99
Es	-2.392870	0.911747	1.363735	99
Es	1.270689	-1.929578	-0.385322	99
Es	-1.369944	-1.258957	-0.687676	99
Es	1.275502	-0.005907	-0.843232	99
Es	-0.808916	0.995025	0.460104	99
Es	1.089389	-2.214651	0.263790	99
Es	0.905676	-0.475698	-0.406670	99
Es	-0.349943	1.311858	0.698627	99
Es	-0.546263	-0.178156	-0.201934	99
Es	-1.375608	1.125105	0.634466	99
Es	-2.155422	1.356322	0.814813	99
Es	-1.627074	-0.834434	-0.449344	99
Es	1.799678	0.496985	-0.652096	99
Es	-0.771529	0.960836	0.188932	99
Es	-2.592810	1.285044	0.232625	99
Es	-2.152743	2.066523	1.047523	99
43
Properties=species:S:1:pos:R:3:Z:I:1 energy=-324.0060863206764 field_type=dipole dipole="0.000000 0.000000 0.000000" charge=0
C	-2.155619	1.356349	0.814848	6
N	-0.808929	0.995419	0.459768	7
C	-0.546289	-0.178311	-0.201982	6
O	-1.409839	-0.977031	-0.545782	8
C	0.905781	-0.475621	-0.406692	6
C	1.270691	-1.929651	-0.385332	6
C	1.799621	0.496909	-0.652082	6
H	-2.162949	2.395029	1.152898	1
H	-2.498939	0.700239	1.619068	1
H	-2.812189	1.241529	-0.052392	1
H	-0.043179	1.500769	0.885698	1
H	0.747671	-2.470731	-1.180512	1
H	1.001351	-2.376521	0.577118	1
H	2.344991	-2.082671	-0.533202	1
H	1.520821	1.542549	-0.725922	1
H	2.847001	0.261739	-0.825502	1
Es	1.089275	-2.214142	0.263377	99
Es	0.190276	-0.313264	-0.300424	99
Es	-2.155423	1.356322	0.814813	99
Es	-1.100856	-0.582279	-0.646874	99
Es	-1.119620	-0.849015	-0.238724	99
Es	-1.375600	1.123000	0.635995	99
Es	-0.808917	0.995050	0.460038	99
Es	-1.409402	-0.976868	-0.545744	99
Es	2.005319	-2.019612	-0.483169	99
Es	-2.393353	0.911436	1.363624	99
Es	-2.153105	2.066567	1.047362	99
Es	-0.773051	0.959647	0.206567	99
Es	1.270687	-1.929576	-0.385321	99
Es	0.918925	-2.281455	-0.917526	99
Es	1.799680	0.496984	-0.652089	99
Es	-2.592388	1.285371	0.233220	99
Es	0.905669	-0.475695	-0.406674	99
Es	-1.434927	-1.259659	-0.681749	99
Es	-0.546264	-0.178158	-0.201935	99
Es	1.614497	1.204588	-0.689684	99
Es	1.084022	-1.191224	-0.392517	99
Es	-0.349441	1.314847	0.692669	99
Es	1.275527	-0.005813	-0.842815	99
Es	1.407135	0.056758	-0.197388	99
Es	2.508929	0.344191	-0.766061	99
Es	-0.698716	0.455687	0.302172	99
Es	-1.569381	-0.825916	-0.449560	99
43
Properties=species:S:1:pos:R:3:Z:I:1 energy=-324.0060863206764 field_type=dipole dipole="0.000000 0.000000 0.000000" charge=0
C	-2.155619	1.356349	0.814848	6
N	-0.808929	0.995419	0.459768	7
C	-0.546289	-0.178311	-0.201982	6
O	-1.409839	-0.977031	-0.545782	8
C	0.905781	-0.475621	-0.406692	6
C	1.270691	-1.929651	-0.385332	6
C	1.799621	0.496909	-0.652082	6
H	-2.162949	2.395029	1.152898	1
H	-2.498939	0.700239	1.619068	1
H	-2.812189	1.241529	-0.052392	1
H	-0.043179	1.500769	0.885698	1
H	0.747671	-2.470731	-1.180512	1
H	1.001351	-2.376521	0.577118	1
H	2.344991	-2.082671	-0.533202	1
H	1.520821	1.542549	-0.725922	1
H	2.847001	0.261739	-0.825502	1
Es	1.616206	1.208137	-0.688733	99
Es	-0.697307	0.455122	0.260432	99
Es	-0.546263	-0.178156	-0.201935	99
Es	0.920047	-2.283518	-0.918244	99
Es	-1.137560	-0.825940	-0.225347	99
Es	-1.373947	1.119955	0.638466	99
Es	1.090990	-2.214673	0.262829	99
Es	-1.238212	-1.070081	-0.602691	99
Es	-1.707788	-1.065176	-0.547745	99
Es	2.000869	-2.021088	-0.482176	99
Es	-2.155425	1.356322	0.814814	99
Es	1.407964	0.055864	-0.197482	99
Es	-2.590909	1.284463	0.233965	99
Es	2.505011	0.342726	-0.765960	99
Es	1.270688	-1.929577	-0.385322	99
Es	0.905671	-0.475693	-0.406676	99
Es	-0.808882	0.994763	0.460199	99
Es	1.274361	-0.005378	-0.842723	99
Es	-0.777071	0.959954	0.251476	99
Es	-2.393124	0.910623	1.362184	99
Es	-1.139841	-0.556792	-0.641286	99
Es	1.085025	-1.189906	-0.393399	99
Es	-0.350955	1.319031	0.687917	99
Es	1.799680	0.496986	-0.652087	99
Es	-1.409693	-0.976546	-0.545540	99
Es	0.192432	-0.312518	-0.301291	99
Es	-2.152469	2.068868	1.047940	99
43
Properties=species:S:1:pos:R:3:Z:I:1 energy=-324.0060863206764 field_type=dipole dipole="0.000000 0.000000 0.000000" charge=0
C	-2.155619	1.356349	0.814848	6
N	-0.808929	0.995419	0.459768	7
C	-0.546289	-0.178311	-0.201982	6
O	-1.409839	-0.977031	-0.545782	8
C	0.905781	-0.475621	-0.406692	6
C	1.270691	-1.929651	-0.385332	6
C	1.799621	0.496909	-0.652082	6
H	-2.162949	2.395029	1.152898	1
H	-2.498939	0.700239	1.619068	1
H	-2.812189	1.241529	-0.052392	1
H	-0.043179	1.500769	0.885698	1
H	0.747671	-2.470731	-1.180512	1
H	1.001351	-2.376521	0.577118	1
H	2.344991	-2.082671	-0.533202	1
H	1.520821	1.542549	-0.725922	1
H	2.847001	0.261739	-0.825502	1
Es	-0.349556	1.318811	0.684751	99
Es	-0.774094	0.956400	0.239530	99
Es	-0.697272	0.456148	0.276244	99
Es	-1.125073	-0.847362	-0.242157	99
Es	2.005639	-2.019866	-0.483064	99
Es	-2.155423	1.356322	0.814813	99
Es	-1.409233	-0.976920	-0.545771	99
Es	-0.546262	-0.178157	-0.201935	99
Es	0.918757	-2.281813	-0.917072	99
Es	1.275166	-0.005444	-0.842142	99
Es	0.905667	-0.475691	-0.406670	99
Es	-1.093664	-0.585297	-0.648769	99
Es	-2.394095	0.910873	1.363063	99
Es	2.509048	0.343973	-0.766353	99
Es	1.270687	-1.929577	-0.385321	99
Es	-0.808943	0.995079	0.460100	99
Es	1.407403	0.056349	-0.198270	99
Es	0.190118	-0.313080	-0.300564	99
Es	-1.497514	-0.838667	-0.467339	99
Es	-2.591388	1.285631	0.234273	99
Es	-2.153455	2.067232	1.047268	99
Es	1.083965	-1.190813	-0.392694	99
Es	1.089496	-2.213953	0.262491	99
Es	-1.508462	-1.245683	-0.658171	99
Es	1.614385	1.204799	-0.689156	99
Es	1.799680	0.496985	-0.652092	99
Es	-1.376078	1.121493	0.636592	99
43
Properties=species:S:1:pos:R:3:Z:I:1 energy=-324.0060863206764 field_type=dipole dipole="0.000000 0.000000 0.000000" charge=0
C	-2.155619	1.356349	0.814848	6
N	-0.808929	0.995419	0.459768	7
C	-0.546289	-0.178311	-0.201982	6
O	-1.409839	-0.977031	-0.545782	8
C	0.905781	-0.475621	-0.406692	6
C	1.270691	-1.929651	-0.385332	6
C	1.799621	0.496909	-0.652082	6
H	-2.162949	2.395029	1.152898	1
H	-2.498939	0.700239	1.619068	1
H	-2.812189	1.241529	-0.052392	1
H	-0.043179	1.500769	0.885698	1
H	0.747671	-2.470731	-1.180512	1
H	1.001351	-2.376521	0.577118	1
H	2.344991	-2.082671	-0.533202	1
H	1.520821	1.542549	-0.725922	1
H	2.847001	0.261739	-0.825502	1
Es	0.918562	-2.282055	-0.916934	99
Es	-0.349622	1.319967	0.682341	99
Es	-1.483174	-0.844887	-0.473490	99
Es	1.275195	-0.005465	-0.842106	99
Es	-2.590866	1.285893	0.234476	99
Es	1.614417	1.204855	-0.689064	99
Es	-2.153561	2.067334	1.047383	99
Es	1.799680	0.496984	-0.652094	99
Es	1.083787	-1.190908	-0.392606	99
Es	-0.774639	0.955962	0.246985	99
Es	1.407407	0.056364	-0.198362	99
Es	-2.394480	0.910473	1.362742	99
Es	2.509009	0.343943	-0.766317	99
Es	-2.155421	1.356321	0.814812	99
Es	0.190232	-0.312846	-0.300714	99
Es	-1.409636	-0.976723	-0.545647	99
Es	0.905672	-0.475690	-0.406665	99
Es	1.270687	-1.929578	-0.385321	99
Es	1.089714	-2.213761	0.262206	99
Es	-1.520596	-1.241517	-0.654453	99
Es	-0.546263	-0.178155	-0.201936	99
Es	-1.130258	-0.846698	-0.244120	99
Es	-1.090309	-0.584187	-0.644258	99
Es	-0.697160	0.456790	0.270097	99
Es	-0.808864	0.994679	0.460168	99
Es	2.005681	-2.019842	-0.483045	99
Es	-1.375696	1.120516	0.637504	99
43
Properties=species:S:1:pos:R:3:Z:I:1 energy=-324.0060863206764 field_type=dipole dipole="0.000000 0.000000 0.000000" charge=0
C	-2.155619	1.356349	0.814848	6
N	-0.808929	0.995419	0.459768	7
C	-0.546289	-0.178311	-0.201982	6
O	-1.409839	-0.977031	-0.545782	8
C	0.905781	-0.475621	-0.406692	6
C	1.270691	-1.929651	-0.385332	6
C	1.799621	0.496909	-0.652082	6
H	-2.162949	2.395029	1.152898	1
H	-2.498939	0.700239	1.619068	1
H	-2.812189	1.241529	-0.052392	1
H	-0.043179	1.500769	0.885698	1
H	0.747671	-2.470731	-1.180512	1
H	1.001351	-2.376521	0.577118	1
H	2.344991	-2.082671	-0.533202	1
H	1.520821	1.542549	-0.725922	1
H	2.847001	0.261739	-0.825502	1
Es	1.275029	-0.005309	-0.841691	99
Es	-1.409373	-0.976895	-0.545751	99
Es	-2.590421	1.285989	0.234875	99
Es	-1.133244	-0.843839	-0.242889	99
Es	0.905670	-0.475693	-0.406676	99
Es	1.614326	1.205159	-0.688711	99
Es	-2.153549	2.067672	1.047335	99
Es	0.190245	-0.312707	-0.300754	99
Es	0.918404	-2.282530	-0.916654	99
Es	-0.546264	-0.178156	-0.201935	99
Es	2.508957	0.343773	-0.766437	99
Es	1.799680	0.496985	-0.652093	99
Es	-1.090708	-0.583167	-0.644999	99
Es	1.407547	0.056142	-0.198929	99
Es	1.090098	-2.213509	0.261875	99
Es	-0.774353	0.953370	0.258477	99
Es	-2.155426	1.356322	0.814814	99
Es	-0.696734	0.457592	0.261696	99
Es	-1.541755	-1.233049	-0.644812	99
Es	1.270687	-1.929575	-0.385321	99
Es	1.083803	-1.190749	-0.392785	99
Es	2.005550	-2.019992	-0.483050	99
Es	-2.394798	0.910262	1.362496	99
Es	-0.350029	1.321419	0.679631	99
Es	-0.808940	0.995083	0.460055	99
Es	-1.376117	1.120304	0.637249	99
Es	-1.458785	-0.857132	-0.483430	99
43
Properties=species:S:1:pos:R:3:Z:I:1 energy=-324.0060863206764 field_type=dipole dipole="0.000000 0.000000 0.000000" charge=0
C	-2.155619	1.356349	0.814848	6
N	-0.808929	0.995419	0.459768	7
C	-0.546289	-0.178311	-0.201982	6
O	-1.409839	-0.977031	-0.545782	8
C	0.905781	-0.475621	-0.406692	6
C	1.270691	-1.929651	-0.385332	6
C	1.799621	0.496909	-0.652082	6
H	-2.162949	2.395029	1.152898	1
H	-2.498939	0.700239	1.619068	1
H	-2.812189	1.241529	-0.052392	1
H	-0.043179	1.500769	0.885698	1
H	0.747671	-2.470731	-1.180512	1
H	1.001351	-2.376521	0.577118	1
H	2.344991	-2.082671	-0.533202	1
H	1.520821	1.542549	-0.725922	1
H	2.847001	0.261739	-0.825502	1
Es	-1.135289	-0.840980	-0.241891	99
Es	-1.553013	-1.228209	-0.638679	99
Es	-0.696781	0.458100	0.257772	99
Es	-1.443757	-0.866184	-0.490119	99
Es	-0.774447	0.952760	0.264075	99
Es	1.270689	-1.929578	-0.385321	99
Es	1.614385	1.205316	-0.688391	99
Es	1.274932	-0.005240	-0.841530	99
Es	-1.409874	-0.976388	-0.545450	99
Es	-2.155424	1.356323	0.814813	99
Es	-0.546264	-0.178155	-0.201936	99
Es	-2.590120	1.285915	0.235178	99
Es	-0.808769	0.994364	0.460252	99
Es	1.407664	0.056033	-0.199119	99
Es	0.918206	-2.282793	-0.916453	99
Es	1.090299	-2.213279	0.261508	99
Es	2.508852	0.343689	-0.766399	99
Es	0.190285	-0.312556	-0.300962	99
Es	2.005543	-2.020172	-0.483004	99
Es	-0.350214	1.322399	0.677701	99
Es	1.799681	0.496984	-0.652093	99
Es	-2.153781	2.067925	1.047373	99
Es	-1.375964	1.120103	0.637252	99
Es	-2.394860	0.910104	1.362235	99
Es	1.083785	-1.190657	-0.392923	99
Es	-1.091938	-0.582356	-0.645633	99
Es	0.905671	-0.475697	-0.406672	99
43
Properties=species:S:1:pos:R:3:Z:I:1 energy=-324.0060863206764 field_type=dipole dipole="0.000000 0.000000 0.000000" charge=0
C	-2.155619	1.356349	0.814848	6
N	-0.808929	0.995419	0.459768	7
C	-0.546289	-0.178311	-0.201982	6
O	-1.409839	-0.977031	-0.545782	8
C	0.905781	-0.475621	-0.406692	6
C	1.270691	-1.929651	-0.385332	6
C	1.799621	0.496909	-0.652082	6
H	-2.162949	2.395029	1.152898	1
H	-2.498939	0.700239	1.619068	1
H	-2.812189	1.241529	-0.052392	1
H	-0.043179	1.500769	0.885698	1
H	0.747671	-2.470731	-1.180512	1
H	1.001351	-2.376521	0.577118	1
H	2.344991	-2.082671	-0.533202	1
H	1.520821	1.542549	-0.725922	1
H	2.847001	0.261739	-0.825502	1
Es	-0.696669	0.458547	0.254346	99
Es	1.270688	-1.929578	-0.385321	99
Es	-0.774687	0.951692	0.268169	99
Es	0.905669	-0.475693	-0.406673	99
Es	1.274901	-0.005227	-0.841733	99
Es	-1.090721	-0.579189	-0.640295	99
Es	-1.409418	-0.976905	-0.545704	99
Es	1.407711	0.056012	-0.198946	99
Es	-0.546264	-0.178155	-0.201936	99
Es	1.614494	1.205424	-0.688390	99
Es	1.090442	-2.213215	0.261422	99
Es	-2.155421	1.356321	0.814809	99
Es	-1.375650	1.119335	0.638028	99
Es	-0.350431	1.323030	0.676541	99
Es	0.190362	-0.312547	-0.301068	99
Es	-1.136971	-0.843140	-0.247381	99
Es	0.918132	-2.282935	-0.916530	99
Es	-0.808937	0.995118	0.460060	99
Es	2.508680	0.343641	-0.766432	99
Es	2.005374	-2.020182	-0.482948	99
Es	-1.434638	-0.871863	-0.492115	99
Es	1.083788	-1.190581	-0.392815	99
Es	-2.153680	2.068076	1.047414	99
Es	-2.589916	1.285952	0.235253	99
Es	-2.394944	0.909940	1.362111	99
Es	1.799680	0.496985	-0.652092	99
Es	-1.562078	-1.223093	-0.636191	99
43
Properties=species:S:1:pos:R:3:Z:I:1 energy=-324.0060863206764 field_type=dipole dipole="0.000000 0.000000 0.000000" charge=0
C	-2.155619	1.356349	0.814848	6
N	-0.808929	0.995419	0.459768	7
C	-0.546289	-0.178311	-0.201982	6
O	-1.409839	-0.977031	-0.545782	8
C	0.905781	-0.475621	-0.406692	6
C	1.270691	-1.929651	-0.385332	6
C	1.799621	0.496909	-0.652082	6
H	-2.162949	2.395029	1.152898	1
H	-2.498939	0.700239	1.619068	1
H	-2.812189	1.241529	-0.052392	1
H	-0.043179	1.500769	0.885698	1
H	0.747671	-2.470731	-1.180512	1
H	1.001351	-2.376521	0.577118	1
H	2.344991	-2.082671	-0.533202	1
H	1.520821	1.542549	-0.725922	1
H	2.847001	0.261739	-0.825502	1
Es	1.274880	-0.005210	-0.841663	99
Es	-2.155421	1.356321	0.814813	99
Es	0.190408	-0.312402	-0.301199	99
Es	0.918076	-2.283250	-0.916454	99
Es	1.083843	-1.190475	-0.392759	99
Es	-2.589504	1.286057	0.235491	99
Es	-2.395194	0.909663	1.361999	99
Es	-0.696556	0.459518	0.249212	99
Es	-1.424706	-0.878186	-0.496333	99
Es	0.905670	-0.475694	-0.406675	99
Es	-2.153739	2.068229	1.047313	99
Es	-0.350671	1.323825	0.675042	99
Es	1.270688	-1.929577	-0.385322	99
Es	1.799679	0.496987	-0.652094	99
Es	-0.546264	-0.178154	-0.201938	99
Es	-0.774894	0.950862	0.274092	99
Es	2.508520	0.343468	-0.766296	99
Es	-0.808929	0.995029	0.460108	99
Es	-1.138622	-0.842272	-0.247996	99
Es	1.614641	1.205632	-0.688323	99
Es	-1.375401	1.118553	0.638615	99
Es	1.407653	0.056046	-0.199124	99
Es	2.005211	-2.020370	-0.482761	99
Es	-1.090604	-0.578437	-0.639184	99
Es	1.090598	-2.213023	0.261126	99
Es	-1.409465	-0.976847	-0.545725	99
Es	-1.570397	-1.218521	-0.632380	99
43
Properties=species:S:1:pos:R:3:Z:I:1 energy=-324.0060863206764 field_type=dipole dipole="0.000000 0.000000 0.000000" charge=0
C	-2.155619	1.356349	0.814848	6
N	-0.808929	0.995419	0.459768	7
C	-0.546289	-0.178311	-0.201982	6
O	-1.409839	-0.977031	-0.545782	8
C	0.905781	-0.475621	-0.406692	6
C	1.270691	-1.929651	-0.385332	6
C	1.799621	0.496909	-0.652082	6
H	-2.162949	2.395029	1.152898	1
H	-2.498939	0.700239	1.619068	1
H	-2.812189	1.241529	-0.052392	1
H	-0.043179	1.500769	0.885698	1
H	0.747671	-2.470731	-1.180512	1
H	1.001351	-2.376521	0.577118	1
H	2.344991	-2.082671	-0.533202	1
H	1.520821	1.542549	-0.725922	1
H	2.847001	0.261739	-0.825502	1
Es	-2.589165	1.286018	0.235888	99
Es	1.091099	-2.212953	0.260741	99
Es	-1.401977	-0.942972	-0.529525	99
Es	1.274647	-0.005092	-0.841187	99
Es	-1.375723	1.119255	0.637889	99
Es	1.614742	1.206242	-0.687960	99
Es	-1.144888	-0.836520	-0.244617	99
Es	-1.601975	-1.197642	-0.617508	99
Es	2.004754	-2.020711	-0.482835	99
Es	0.905670	-0.475694	-0.406674	99
Es	-0.351056	1.324389	0.674205	99
Es	1.270688	-1.929578	-0.385321	99
Es	2.508090	0.343146	-0.766442	99
Es	-2.395234	0.909461	1.361514	99
Es	0.190629	-0.312135	-0.301438	99
Es	1.083837	-1.190262	-0.392979	99
Es	1.799681	0.496985	-0.652090	99
Es	-0.696629	0.460480	0.241848	99
Es	-2.153774	2.068671	1.047546	99
Es	-2.155423	1.356322	0.814813	99
Es	1.407908	0.055750	-0.199490	99
Es	-0.546263	-0.178156	-0.201937	99
Es	-1.099088	-0.570212	-0.637148	99
Es	-0.774523	0.947990	0.284289	99
Es	-0.808872	0.995729	0.458926	99
Es	-1.385622	-0.947063	-0.532714	99
Es	0.917964	-2.283679	-0.916208	99
43
Properties=species:S:1:pos:R:3:Z:I:1 energy=-324.0060863206764 field_type=dipole dipole="0.000000 0.000000 0.000000" charge=0
C	-2.155619	1.356349	0.814848	6
N	-0.808929	0.995419	0.459768	7
C	-0.546289	-0.178311	-0.201982	6
O	-1.409839	-0.977031	-0.545782	8
C	0.905781	-0.475621	-0.406692	6
C	1.270691	-1.929651	-0.385332	6
C	1.799621	0.496909	-0.652082	6
H	-2.162949	2.395029	1.152898	1
H	-2.498939	0.700239	1.619068	1
H	-2.812189	1.241529	-0.052392	1
H	-0.043179	1.500769	0.885698	1
H	0.747671	-2.470731	-1.180512	1
H	1.001351	-2.376521	0.577118	1
H	2.344991	-2.082671	-0.533202	1
H	1.520821	1.542549	-0.725922	1
H	2.847001	0.261739	-0.825502	1
Es	0.190398	-0.312396	-0.301559	99
Es	-0.696704	0.459924	0.247737	99
Es	1.614588	1.205456	-0.688112	99
Es	1.083752	-1.190680	-0.392785	99
Es	-2.153489	2.068382	1.047368	99
Es	-1.408612	-0.976810	-0.545769	99
Es	0.917416	-2.283693	-0.916194	99
Es	2.508580	0.343696	-0.766137	99
Es	-1.421820	-0.881304	-0.497798	99
Es	-2.589322	1.286097	0.235517	99
Es	-2.395263	0.909474	1.361892	99
Es	-0.350790	1.324706	0.673207	99
Es	-1.375110	1.117520	0.639338	99
Es	-0.808937	0.995116	0.460072	99
Es	0.905674	-0.475691	-0.406663	99
Es	-0.546264	-0.178155	-0.201937	99
Es	-1.089841	-0.576276	-0.635091	99
Es	-0.775129	0.950275	0.276772	99
Es	-2.155420	1.356320	0.814810	99
Es	2.005338	-2.020113	-0.482941	99
Es	1.091111	-2.212438	0.260912	99
Es	1.274865	-0.005197	-0.842016	99
Es	-1.572356	-1.217806	-0.630320	99
Es	1.799680	0.496985	-0.652092	99
Es	1.407743	0.056045	-0.198866	99
Es	-1.141278	-0.842088	-0.252439	99
Es	1.270688	-1.929578	-0.385322	99
43
Properties=species:S:1:pos:R:3:Z:I:1 energy=-324.0060863206764 field_type=dipole dipole="0.000000 0.000000 0.000000" charge=0
C	-2.155619	1.356349	0.814848	6
N	-0.808929	0.995419	0.459768	7
C	-0.546289	-0.178311	-0.201982	6
O	-1.409839	-0.977031	-0.545782	8
C	0.905781	-0.475621	-0.406692	6
C	1.270691	-1.929651	-0.385332	6
C	1.799621	0.496909	-0.652082	6
H	-2.162949	2.395029	1.152898	1
H	-2.498939	0.700239	1.619068	1
H	-2.812189	1.241529	-0.052392	1
H	-0.043179	1.500769	0.885698	1
H	0.747671	-2.470731	-1.180512	1
H	1.001351	-2.376521	0.577118	1
H	2.344991	-2.082671	-0.533202	1
H	1.520821	1.542549	-0.725922	1
H	2.847001	0.261739	-0.825502	1
Es	0.190472	-0.312294	-0.301603	99
Es	-2.589038	1.286134	0.235589	99
Es	1.274812	-0.005155	-0.842069	99
Es	-0.808944	0.995528	0.459558	99
Es	-2.153456	2.068489	1.047321	99
Es	-0.696694	0.459780	0.247844	99
Es	-1.412840	-0.886576	-0.501685	99
Es	1.799680	0.496985	-0.652094	99
Es	1.091164	-2.212423	0.260800	99
Es	2.508438	0.343659	-0.766172	99
Es	0.917486	-2.283831	-0.916175	99
Es	-1.409562	-0.976795	-0.545666	99
Es	0.905670	-0.475694	-0.406670	99
Es	2.005213	-2.020185	-0.482860	99
Es	-1.374998	1.117432	0.639525	99
Es	-1.144555	-0.841102	-0.254118	99
Es	-2.155422	1.356322	0.814812	99
Es	1.614671	1.205563	-0.687802	99
Es	1.083677	-1.190630	-0.392848	99
Es	-2.395437	0.909353	1.361802	99
Es	1.270688	-1.929578	-0.385321	99
Es	-1.088126	-0.575953	-0.632311	99
Es	-0.350898	1.324780	0.673289	99
Es	-0.546263	-0.178156	-0.201935	99
Es	-0.775240	0.950032	0.277012	99
Es	-1.578802	-1.213909	-0.627595	99
Es	1.407804	0.055994	-0.199044	99
43
Properties=species:S:1:pos:R:3:Z:I:1 energy=-324.0060863206764 field_type=dipole dipole="0.000000 0.000000 0.000000" charge=0
C	-2.155619	1.356349	0.814848	6
N	-0.808929	0.995419	0.459768	7
C	-0.546289	-0.178311	-0.201982	6
O	-1.409839	-0.977031	-0.545782	8
C	0.905781	-0.475621	-0.406692	6
C	1.270691	-1.929651	-0.385332	6
C	1.799621	0.496909	-0.652082	6
H	-2.162949	2.395029	1.152898	1
H	-2.498939	0.700239	1.619068	1
H	-2.812189	1.241529	-0.052392	1
H	-0.043179	1.500769	0.885698	1
H	0.747671	-2.470731	-1.180512	1
H	1.001351	-2.376521	0.577118	1
H	2.344991	-2.082671	-0.533202	1
H	1.520821	1.542549	-0.725922	1
H	2.847001	0.261739	-0.825502	1
Es	-0.775248	0.949637	0.280531	99
Es	-2.588880	1.286224	0.235705	99
Es	-1.146411	-0.839388	-0.253810	99
Es	1.799680	0.496985	-0.652093	99
Es	-0.546264	-0.178155	-0.201938	99
Es	1.614739	1.205788	-0.687839	99
Es	-0.808933	0.995120	0.460068	99
Es	-2.153433	2.068575	1.047403	99
Es	2.005093	-2.020257	-0.482713	99
Es	1.407828	0.055967	-0.199041	99
Es	-2.395535	0.909222	1.361633	99
Es	0.917448	-2.284118	-0.916120	99
Es	-1.585559	-1.209788	-0.623617	99
Es	2.508296	0.343520	-0.766049	99
Es	-1.374864	1.117141	0.639688	99
Es	-1.088932	-0.575109	-0.632269	99
Es	1.274813	-0.005175	-0.841930	99
Es	-0.696686	0.460365	0.244681	99
Es	-1.409480	-0.976857	-0.545720	99
Es	-2.155421	1.356321	0.814813	99
Es	-1.403504	-0.893217	-0.505928	99
Es	1.091322	-2.212267	0.260548	99
Es	1.270688	-1.929578	-0.385321	99
Es	0.190505	-0.312290	-0.301747	99
Es	1.083659	-1.190518	-0.392893	99
Es	0.905670	-0.475694	-0.406674	99
Es	-0.351092	1.325315	0.672216	99
43
Properties=species:S:1:pos:R:3:Z:I:1 energy=-324.0060863206764 field_type=dipole dipole="0.000000 0.000000 0.000000" charge=0
C	-2.155619	1.356349	0.814848	6
N	-0.808929	0.995419	0.459768	7
C	-0.546289	-0.178311	-0.201982	6
O	-1.409839	-0.977031	-0.545782	8
C	0.905781	-0.475621	-0.406692	6
C	1.270691	-1.929651	-0.385332	6
C	1.799621	0.496909	-0.652082	6
H	-2.162949	2.395029	1.152898	1
H	-2.498939	0.700239	1.619068	1
H	-2.812189	1.241529	-0.052392	1
H	-0.043179	1.500769	0.885698	1
H	0.747671	-2.470731	-1.180512	1
H	1.001351	-2.376521	0.577118	1
H	2.344991	-2.082671	-0.533202	1
H	1.520821	1.542549	-0.725922	1
H	2.847001	0.261739	-0.825502	1
Es	1.083695	-1.190502	-0.392951	99
Es	-2.153286	2.068613	1.047451	99
Es	1.407890	0.055946	-0.198855	99
Es	0.917177	-2.284423	-0.915995	99
Es	-0.696639	0.460641	0.243574	99
Es	-1.400520	-0.896037	-0.506604	99
Es	-2.155424	1.356322	0.814814	99
Es	-1.587984	-1.208225	-0.622451	99
Es	-1.374565	1.116407	0.640168	99
Es	-2.395704	0.909115	1.361522	99
Es	1.614875	1.205845	-0.687829	99
Es	2.508182	0.343420	-0.766166	99
Es	1.270688	-1.929578	-0.385322	99
Es	1.091567	-2.211946	0.260364	99
Es	0.190476	-0.312337	-0.301871	99
Es	1.274721	-0.005079	-0.841965	99
Es	-0.775538	0.949582	0.281701	99
Es	-1.090373	-0.572848	-0.630316	99
Es	-2.588729	1.286374	0.235817	99
Es	1.799681	0.496985	-0.652090	99
Es	0.905670	-0.475694	-0.406673	99
Es	-0.351189	1.325579	0.671842	99
Es	2.005078	-2.020210	-0.482701	99
Es	-0.546264	-0.178154	-0.201939	99
Es	-0.808941	0.995209	0.459988	99
Es	-1.145273	-0.840728	-0.256395	99
Es	-1.409773	-0.976507	-0.545534	99
