46
Properties=species:S:1:pos:R:3:Z:I:1 energy=-325.1114453157055 field_type=dipole dipole="0.000000 0.000000 0.000000" charge=0
C	-1.207580	-2.674438	-0.986077	6
O	-1.355980	-1.371318	-0.441217	8
C	-0.096050	-0.715958	-0.197527	6
C	0.239930	0.421772	-1.122007	6
C	-0.215340	0.706832	0.286173	6
C	0.733320	1.216392	1.318263	6
N	0.650480	2.667652	1.336283	7
H	-2.202020	-3.080348	-1.189367	1
H	-0.701940	-3.326548	-0.267597	1
H	-0.642880	-2.635538	-1.922257	1
H	0.723570	-1.306288	0.201873	1
H	-0.450790	0.644272	-1.927237	1
H	1.281720	0.575232	-1.375327	1
H	-1.221820	1.084492	0.435033	1
H	1.763450	0.906472	1.109653	1
H	0.455640	0.820832	2.300743	1
H	0.929890	3.032222	0.427583	1
H	1.316400	3.034262	2.013003	1
Es	0.458916	-1.127788	0.070858	99
Es	-1.261569	-1.862230	-0.652165	99
Es	-0.226183	0.566776	-1.662862	99
Es	0.544640	0.946495	1.991722	99
Es	-1.490391	-1.199635	-0.655733	99
Es	1.447063	0.988753	1.167390	99
Es	0.239903	0.421745	-1.121835	99
Es	-1.207597	-2.674236	-0.985991	99
Es	-0.852286	-3.125955	-0.495452	99
Es	-1.883918	-2.951084	-1.124506	99
Es	0.130122	-0.269501	-0.808940	99
Es	0.323779	2.774294	1.413812	99
Es	0.038744	0.755931	-0.454692	99
Es	-0.854113	-1.154596	-0.360923	99
Es	0.733305	1.216527	1.318243	99
Es	0.839957	2.873814	0.786899	99
Es	0.713861	2.039660	1.323555	99
Es	-0.203267	-0.069854	0.212449	99
Es	-0.890478	0.956217	0.375691	99
Es	0.272628	0.948762	0.787579	99
Es	0.952103	0.530064	-1.285722	99
Es	-0.813882	-2.652674	-1.629024	99
Es	-0.215256	0.706705	0.286049	99
Es	0.651033	2.667465	1.336156	99
Es	1.071625	2.879096	1.737763	99
Es	-0.096252	-0.715905	-0.197622	99
Es	-1.481218	-1.414560	-0.165111	99
Es	-1.355639	-1.371492	-0.441274	99
46
Properties=species:S:1:pos:R:3:Z:I:1 energy=-325.1114453157055 field_type=dipole dipole="0.000000 0.000000 0.000000" charge=0
C	-1.207580	-2.674438	-0.986077	6
O	-1.355980	-1.371318	-0.441217	8
C	-0.096050	-0.715958	-0.197527	6
C	0.239930	0.421772	-1.122007	6
C	-0.215340	0.706832	0.286173	6
C	0.733320	1.216392	1.318263	6
N	0.650480	2.667652	1.336283	7
H	-2.202020	-3.080348	-1.189367	1
H	-0.701940	-3.326548	-0.267597	1
H	-0.642880	-2.635538	-1.922257	1
H	0.723570	-1.306288	0.201873	1
H	-0.450790	0.644272	-1.927237	1
H	1.281720	0.575232	-1.375327	1
H	-1.221820	1.084492	0.435033	1
H	1.763450	0.906472	1.109653	1
H	0.455640	0.820832	2.300743	1
H	0.929890	3.032222	0.427583	1
H	1.316400	3.034262	2.013003	1
Es	0.272683	0.948915	0.787407	99
Es	0.839518	2.875227	0.785975	99
Es	1.446360	0.988837	1.167178	99
Es	-0.889671	0.956007	0.375927	99
Es	-0.096249	-0.715898	-0.197620	99
Es	-0.852861	-3.126109	-0.495368	99
Es	0.239896	0.421721	-1.121850	99
Es	-0.813779	-2.652975	-1.629621	99
Es	-0.225408	0.566801	-1.662509	99
Es	-0.215251	0.706705	0.286032	99
Es	-1.485964	-1.201911	-0.655353	99
Es	1.069662	2.880021	1.738946	99
Es	0.651029	2.667474	1.336153	99
Es	-1.883321	-2.950819	-1.124127	99
Es	-0.854864	-1.154263	-0.362419	99
Es	0.458490	-1.127575	0.070564	99
Es	0.327307	2.773216	1.412787	99
Es	-1.355648	-1.371488	-0.441255	99
Es	0.038539	0.757872	-0.454756	99
Es	0.544619	0.945927	1.992084	99
Es	-0.203542	-0.070476	0.213261	99
Es	0.733305	1.216527	1.318242	99
Es	-1.207598	-2.674231	-0.985991	99
Es	-1.484712	-1.411770	-0.163222	99
Es	0.712880	2.038811	1.324146	99
Es	0.951359	0.530161	-1.285816	99
Es	0.130430	-0.270885	-0.809638	99
Es	-1.261585	-1.863028	-0.652844	99
46
Properties=species:S:1:pos:R:3:Z:I:1 energy=-325.1114453157055 field_type=dipole dipole="0.000000 0.000000 0.000000" charge=0
C	-1.207580	-2.674438	-0.986077	6
O	-1.355980	-1.371318	-0.441217	8
C	-0.096050	-0.715958	-0.197527	6
C	0.239930	0.421772	-1.122007	6
C	-0.215340	0.706832	0.286173	6
C	0.733320	1.216392	1.318263	6
N	0.650480	2.667652	1.336283	7
H	-2.202020	-3.080348	-1.189367	1
H	-0.701940	-3.326548	-0.267597	1
H	-0.642880	-2.635538	-1.922257	1
H	0.723570	-1.306288	0.201873	1
H	-0.450790	0.644272	-1.927237	1
H	1.281720	0.575232	-1.375327	1
H	-1.221820	1.084492	0.435033	1
H	1.763450	0.906472	1.109653	1
H	0.455640	0.820832	2.300743	1
H	0.929890	3.032222	0.427583	1
H	1.316400	3.034262	2.013003	1
Es	0.130560	-0.271707	-0.809814	99
Es	-0.203775	-0.070795	0.213942	99
Es	0.272694	0.949006	0.787271	99
Es	-0.889157	0.956103	0.375947	99
Es	0.839390	2.875944	0.785652	99
Es	0.038536	0.758890	-0.454972	99
Es	-1.486410	-1.409587	-0.162362	99
Es	0.733305	1.216528	1.318240	99
Es	0.651025	2.667474	1.336149	99
Es	0.329490	2.772630	1.411836	99
Es	-0.096253	-0.715903	-0.197620	99
Es	-1.483495	-1.203562	-0.655149	99
Es	0.458238	-1.127449	0.070355	99
Es	-1.355753	-1.371444	-0.441307	99
Es	1.445911	0.988914	1.166988	99
Es	0.239896	0.421731	-1.121848	99
Es	-1.207599	-2.674234	-0.985990	99
Es	-0.813905	-2.653146	-1.629994	99
Es	1.068386	2.880691	1.739787	99
Es	-0.215253	0.706710	0.286045	99
Es	-0.224935	0.566696	-1.662278	99
Es	-0.853085	-3.126281	-0.495300	99
Es	-1.882870	-2.950623	-1.123880	99
Es	-1.261560	-1.863907	-0.652676	99
Es	0.950915	0.530147	-1.285924	99
Es	-0.855527	-1.153885	-0.363555	99
Es	0.712144	2.038291	1.324503	99
Es	0.544714	0.945561	1.992266	99
46
Properties=species:S:1:pos:R:3:Z:I:1 energy=-325.1114453157055 field_type=dipole dipole="0.000000 0.000000 0.000000" charge=0
C	-1.207580	-2.674438	-0.986077	6
O	-1.355980	-1.371318	-0.441217	8
C	-0.096050	-0.715958	-0.197527	6
C	0.239930	0.421772	-1.122007	6
C	-0.215340	0.706832	0.286173	6
C	0.733320	1.216392	1.318263	6
N	0.650480	2.667652	1.336283	7
H	-2.202020	-3.080348	-1.189367	1
H	-0.701940	-3.326548	-0.267597	1
H	-0.642880	-2.635538	-1.922257	1
H	0.723570	-1.306288	0.201873	1
H	-0.450790	0.644272	-1.927237	1
H	1.281720	0.575232	-1.375327	1
H	-1.221820	1.084492	0.435033	1
H	1.763450	0.906472	1.109653	1
H	0.455640	0.820832	2.300743	1
H	0.929890	3.032222	0.427583	1
H	1.316400	3.034262	2.013003	1
Es	0.950491	0.530149	-1.285980	99
Es	0.239899	0.421731	-1.121852	99
Es	-1.882495	-2.950448	-1.123725	99
Es	0.038485	0.759633	-0.454834	99
Es	-0.215254	0.706707	0.286040	99
Es	0.458027	-1.127376	0.070249	99
Es	-0.096252	-0.715910	-0.197629	99
Es	-0.888739	0.956038	0.375865	99
Es	1.445592	0.989036	1.166959	99
Es	-0.813914	-2.653310	-1.630264	99
Es	0.839297	2.876560	0.785497	99
Es	-1.207596	-2.674235	-0.985992	99
Es	-0.203948	-0.070841	0.214295	99
Es	-1.261448	-1.863802	-0.653899	99
Es	-1.484704	-1.410258	-0.161043	99
Es	0.733306	1.216527	1.318241	99
Es	0.130739	-0.272637	-0.810296	99
Es	-1.484833	-1.203807	-0.653179	99
Es	-1.355679	-1.371486	-0.441236	99
Es	-0.224552	0.566768	-1.662044	99
Es	0.651020	2.667471	1.336151	99
Es	1.067561	2.880959	1.740085	99
Es	-0.856041	-1.152914	-0.365591	99
Es	0.544717	0.945275	1.992383	99
Es	0.330591	2.772244	1.411510	99
Es	0.711980	2.037962	1.324648	99
Es	0.272749	0.949159	0.787189	99
Es	-0.853370	-3.126404	-0.495234	99
46
Properties=species:S:1:pos:R:3:Z:I:1 energy=-325.1114453157055 field_type=dipole dipole="0.000000 0.000000 0.000000" charge=0
C	-1.207580	-2.674438	-0.986077	6
O	-1.355980	-1.371318	-0.441217	8
C	-0.096050	-0.715958	-0.197527	6
C	0.239930	0.421772	-1.122007	6
C	-0.215340	0.706832	0.286173	6
C	0.733320	1.216392	1.318263	6
N	0.650480	2.667652	1.336283	7
H	-2.202020	-3.080348	-1.189367	1
H	-0.701940	-3.326548	-0.267597	1
H	-0.642880	-2.635538	-1.922257	1
H	0.723570	-1.306288	0.201873	1
H	-0.450790	0.644272	-1.927237	1
H	1.281720	0.575232	-1.375327	1
H	-1.221820	1.084492	0.435033	1
H	1.763450	0.906472	1.109653	1
H	0.455640	0.820832	2.300743	1
H	0.929890	3.032222	0.427583	1
H	1.316400	3.034262	2.013003	1
Es	0.544669	0.945061	1.992515	99
Es	0.272870	0.949272	0.787044	99
Es	0.650996	2.667466	1.336155	99
Es	0.457881	-1.127273	0.070052	99
Es	-0.224300	0.566534	-1.661807	99
Es	-0.853592	-3.126405	-0.495262	99
Es	-0.856181	-1.153444	-0.364576	99
Es	0.950251	0.530146	-1.286177	99
Es	-0.096248	-0.715903	-0.197626	99
Es	-0.888540	0.956075	0.375959	99
Es	-1.487201	-1.408793	-0.161328	99
Es	-0.215253	0.706706	0.286040	99
Es	-1.482425	-1.204468	-0.654656	99
Es	0.239898	0.421733	-1.121845	99
Es	0.711291	2.037631	1.324890	99
Es	0.733303	1.216528	1.318243	99
Es	0.839757	2.876778	0.785435	99
Es	-1.207596	-2.674230	-0.985989	99
Es	-1.261183	-1.864096	-0.653054	99
Es	1.066443	2.881491	1.741019	99
Es	0.331912	2.771904	1.410312	99
Es	-0.813874	-2.653440	-1.630513	99
Es	0.038405	0.760296	-0.454909	99
Es	1.445447	0.989107	1.166839	99
Es	-1.882240	-2.950395	-1.123527	99
Es	0.130825	-0.272867	-0.810409	99
Es	-1.355666	-1.371476	-0.441284	99
Es	-0.204022	-0.071146	0.214770	99
46
Properties=species:S:1:pos:R:3:Z:I:1 energy=-325.1114453157055 field_type=dipole dipole="0.000000 0.000000 0.000000" charge=0
C	-1.207580	-2.674438	-0.986077	6
O	-1.355980	-1.371318	-0.441217	8
C	-0.096050	-0.715958	-0.197527	6
C	0.239930	0.421772	-1.122007	6
C	-0.215340	0.706832	0.286173	6
C	0.733320	1.216392	1.318263	6
N	0.650480	2.667652	1.336283	7
H	-2.202020	-3.080348	-1.189367	1
H	-0.701940	-3.326548	-0.267597	1
H	-0.642880	-2.635538	-1.922257	1
H	0.723570	-1.306288	0.201873	1
H	-0.450790	0.644272	-1.927237	1
H	1.281720	0.575232	-1.375327	1
H	-1.221820	1.084492	0.435033	1
H	1.763450	0.906472	1.109653	1
H	0.455640	0.820832	2.300743	1
H	0.929890	3.032222	0.427583	1
H	1.316400	3.034262	2.013003	1
Es	-0.215256	0.706701	0.286043	99
Es	-1.355808	-1.371431	-0.441278	99
Es	0.839130	2.877178	0.785215	99
Es	0.130897	-0.273128	-0.810588	99
Es	0.038372	0.760644	-0.454826	99
Es	-1.261392	-1.864743	-0.653205	99
Es	-0.096253	-0.715904	-0.197620	99
Es	-0.813988	-2.653478	-1.630694	99
Es	0.457844	-1.127281	0.070009	99
Es	0.544684	0.944930	1.992528	99
Es	1.445237	0.989057	1.166789	99
Es	-0.888329	0.956047	0.375909	99
Es	-0.204116	-0.071309	0.214923	99
Es	0.733306	1.216527	1.318242	99
Es	-1.882055	-2.950326	-1.123386	99
Es	0.711308	2.037478	1.325036	99
Es	-1.207598	-2.674230	-0.985990	99
Es	-1.480840	-1.205752	-0.654047	99
Es	-0.856655	-1.152949	-0.365748	99
Es	1.066267	2.881728	1.740905	99
Es	-1.487952	-1.407358	-0.160636	99
Es	0.272812	0.949345	0.787077	99
Es	-0.224122	0.566563	-1.661780	99
Es	0.950077	0.530170	-1.286121	99
Es	0.651033	2.667476	1.336151	99
Es	0.332738	2.771568	1.410480	99
Es	0.239897	0.421727	-1.121852	99
Es	-0.853609	-3.126457	-0.495225	99
46
Properties=species:S:1:pos:R:3:Z:I:1 energy=-325.1114453157055 field_type=dipole dipole="0.000000 0.000000 0.000000" charge=0
C	-1.207580	-2.674438	-0.986077	6
O	-1.355980	-1.371318	-0.441217	8
C	-0.096050	-0.715958	-0.197527	6
C	0.239930	0.421772	-1.122007	6
C	-0.215340	0.706832	0.286173	6
C	0.733320	1.216392	1.318263	6
N	0.650480	2.667652	1.336283	7
H	-2.202020	-3.080348	-1.189367	1
H	-0.701940	-3.326548	-0.267597	1
H	-0.642880	-2.635538	-1.922257	1
H	0.723570	-1.306288	0.201873	1
H	-0.450790	0.644272	-1.927237	1
H	1.281720	0.575232	-1.375327	1
H	-1.221820	1.084492	0.435033	1
H	1.763450	0.906472	1.109653	1
H	0.455640	0.820832	2.300743	1
H	0.929890	3.032222	0.427583	1
H	1.316400	3.034262	2.013003	1
Es	-0.888122	0.955988	0.375920	99
Es	-1.487415	-1.407220	-0.160186	99
Es	-0.853815	-3.126508	-0.495219	99
Es	0.272806	0.949338	0.787032	99
Es	0.651019	2.667473	1.336151	99
Es	0.239896	0.421727	-1.121848	99
Es	0.333240	2.771302	1.410296	99
Es	0.839036	2.877359	0.785071	99
Es	-1.355657	-1.371474	-0.441294	99
Es	-1.881859	-2.950229	-1.123297	99
Es	-1.207597	-2.674232	-0.985989	99
Es	0.038333	0.761113	-0.454830	99
Es	-0.204161	-0.071353	0.215264	99
Es	-1.261175	-1.864911	-0.653062	99
Es	0.949837	0.530197	-1.286202	99
Es	-0.215252	0.706705	0.286038	99
Es	1.445048	0.989126	1.166787	99
Es	0.130965	-0.273486	-0.810737	99
Es	1.065916	2.881939	1.741092	99
Es	-0.856885	-1.152587	-0.366713	99
Es	-1.481497	-1.206020	-0.653582	99
Es	0.733305	1.216527	1.318242	99
Es	0.711315	2.037419	1.325168	99
Es	0.457740	-1.127249	0.069708	99
Es	0.544736	0.944820	1.992593	99
Es	-0.223935	0.566497	-1.661621	99
Es	-0.813942	-2.653564	-1.630851	99
Es	-0.096253	-0.715903	-0.197619	99
46
Properties=species:S:1:pos:R:3:Z:I:1 energy=-325.1114453157055 field_type=dipole dipole="0.000000 0.000000 0.000000" charge=0
C	-1.207580	-2.674438	-0.986077	6
O	-1.355980	-1.371318	-0.441217	8
C	-0.096050	-0.715958	-0.197527	6
C	0.239930	0.421772	-1.122007	6
C	-0.215340	0.706832	0.286173	6
C	0.733320	1.216392	1.318263	6
N	0.650480	2.667652	1.336283	7
H	-2.202020	-3.080348	-1.189367	1
H	-0.701940	-3.326548	-0.267597	1
H	-0.642880	-2.635538	-1.922257	1
H	0.723570	-1.306288	0.201873	1
H	-0.450790	0.644272	-1.927237	1
H	1.281720	0.575232	-1.375327	1
H	-1.221820	1.084492	0.435033	1
H	1.763450	0.906472	1.109653	1
H	0.455640	0.820832	2.300743	1
H	0.929890	3.032222	0.427583	1
H	1.316400	3.034262	2.013003	1
Es	0.239897	0.421727	-1.121848	99
Es	0.131025	-0.273724	-0.810697	99
Es	0.038364	0.761407	-0.454758	99
Es	-0.204172	-0.071569	0.215240	99
Es	0.839186	2.877422	0.785023	99
Es	0.651009	2.667464	1.336159	99
Es	-0.853906	-3.126607	-0.495197	99
Es	0.457674	-1.127186	0.069749	99
Es	1.445023	0.989141	1.166764	99
Es	-0.223860	0.566530	-1.661649	99
Es	-1.355728	-1.371450	-0.441261	99
Es	-0.856794	-1.153647	-0.365946	99
Es	0.733304	1.216526	1.318244	99
Es	-0.096251	-0.715902	-0.197620	99
Es	1.065631	2.882010	1.741277	99
Es	-0.215252	0.706703	0.286037	99
Es	0.333828	2.771367	1.409973	99
Es	-1.207596	-2.674234	-0.985989	99
Es	0.544665	0.944712	1.992591	99
Es	-1.881652	-2.950133	-1.123246	99
Es	-0.813998	-2.653610	-1.630968	99
Es	-1.261691	-1.865316	-0.652602	99
Es	-1.490041	-1.405189	-0.160331	99
Es	0.949686	0.530196	-1.286146	99
Es	-0.888051	0.956026	0.375868	99
Es	0.710834	2.037272	1.325348	99
Es	-1.478357	-1.206604	-0.654671	99
Es	0.272848	0.949460	0.786969	99
46
Properties=species:S:1:pos:R:3:Z:I:1 energy=-325.1114453157055 field_type=dipole dipole="0.000000 0.000000 0.000000" charge=0
C	-1.207580	-2.674438	-0.986077	6
O	-1.355980	-1.371318	-0.441217	8
C	-0.096050	-0.715958	-0.197527	6
C	0.239930	0.421772	-1.122007	6
C	-0.215340	0.706832	0.286173	6
C	0.733320	1.216392	1.318263	6
N	0.650480	2.667652	1.336283	7
H	-2.202020	-3.080348	-1.189367	1
H	-0.701940	-3.326548	-0.267597	1
H	-0.642880	-2.635538	-1.922257	1
H	0.723570	-1.306288	0.201873	1
H	-0.450790	0.644272	-1.927237	1
H	1.281720	0.575232	-1.375327	1
H	-1.221820	1.084492	0.435033	1
H	1.763450	0.906472	1.109653	1
H	0.455640	0.820832	2.300743	1
H	0.929890	3.032222	0.427583	1
H	1.316400	3.034262	2.013003	1
Es	1.445014	0.989041	1.166706	99
Es	-1.484059	-1.205452	-0.650782	99
Es	0.838926	2.877894	0.785050	99
Es	0.272747	0.949431	0.786989	99
Es	-0.096253	-0.715902	-0.197620	99
Es	0.710919	2.037128	1.325169	99
Es	1.065019	2.882426	1.741902	99
Es	-0.887987	0.956040	0.375955	99
Es	-1.355664	-1.371480	-0.441294	99
Es	-1.484172	-1.409002	-0.159031	99
Es	-0.857077	-1.151752	-0.368733	99
Es	0.733305	1.216527	1.318242	99
Es	-0.854051	-3.126623	-0.495150	99
Es	-1.881541	-2.950037	-1.123144	99
Es	0.239896	0.421726	-1.121848	99
Es	0.334624	2.770671	1.409493	99
Es	-1.261595	-1.864485	-0.654985	99
Es	0.038299	0.761531	-0.454669	99
Es	0.949701	0.530329	-1.286389	99
Es	0.651032	2.667474	1.336153	99
Es	0.544591	0.944674	1.992563	99
Es	-0.204217	-0.071456	0.215456	99
Es	0.457585	-1.127177	0.069746	99
Es	-0.215253	0.706706	0.286039	99
Es	0.131137	-0.273942	-0.811141	99
Es	-0.223724	0.566434	-1.661262	99
Es	-1.207597	-2.674232	-0.985989	99
Es	-0.813978	-2.653698	-1.631111	99
