38
Properties=species:S:1:pos:R:3:Z:I:1 energy=-358.603855999804 field_type=dipole dipole="0.000000 0.000000 0.000000" charge=0
C	-0.010653	-2.143522	0.296027	6
O	-0.877163	-1.049752	0.016777	8
C	-0.298963	0.147458	-0.064433	6
C	-0.799163	1.399567	-0.311843	6
C	0.330057	2.234278	-0.261673	6
N	1.449737	1.554328	-0.002593	7
O	1.049237	0.230188	0.122357	8
H	-0.616092	-3.053482	0.333377	1
H	0.476057	-2.019252	1.269647	1
H	0.735748	-2.264512	-0.496723	1
H	-1.829023	1.661008	-0.499603	1
H	0.390217	3.303698	-0.401313	1
Es	-0.298759	0.147105	-0.064348	99
Es	-0.975052	-1.063552	-0.252188	99
Es	0.944986	1.858160	0.169650	99
Es	-0.271303	1.859531	-0.296420	99
Es	1.449117	1.554132	-0.002664	99
Es	1.048871	0.230517	0.122355	99
Es	-0.876734	-1.049644	0.016898	99
Es	0.318928	-2.053836	0.953193	99
Es	-1.048490	-0.993561	0.239928	99
Es	1.026438	1.780258	-0.386172	99
Es	-0.799157	1.399537	-0.311824	99
Es	-0.606169	-0.598596	-0.007023	99
Es	1.814504	1.619283	0.042477	99
Es	1.167911	0.064414	0.340617	99
Es	-0.010833	-2.143303	0.295970	99
Es	-0.606242	0.962941	0.089501	99
Es	0.330094	2.234285	-0.261670	99
Es	1.175556	0.781238	0.078355	99
Es	0.359320	2.949886	-0.356608	99
Es	-0.526165	-1.419487	0.121096	99
Es	-0.427610	-2.754122	0.319513	99
Es	0.524219	0.217771	0.114159	99
Es	1.010598	0.178049	-0.134471	99
Es	-1.485981	1.579538	-0.437749	99
Es	-0.515444	0.886744	-0.513134	99
Es	0.494353	-2.219557	-0.240314	99
38
Properties=species:S:1:pos:R:3:Z:I:1 energy=-358.603855999804 field_type=dipole dipole="0.000000 0.000000 0.000000" charge=0
C	-0.010653	-2.143522	0.296027	6
O	-0.877163	-1.049752	0.016777	8
C	-0.298963	0.147458	-0.064433	6
C	-0.799163	1.399567	-0.311843	6
C	0.330057	2.234278	-0.261673	6
N	1.449737	1.554328	-0.002593	7
O	1.049237	0.230188	0.122357	8
H	-0.616092	-3.053482	0.333377	1
H	0.476057	-2.019252	1.269647	1
H	0.735748	-2.264512	-0.496723	1
H	-1.829023	1.661008	-0.499603	1
H	0.390217	3.303698	-0.401313	1
Es	-0.608956	-0.588379	-0.011764	99
Es	-0.876697	-1.049546	0.017053	99
Es	-0.515786	0.879762	-0.507527	99
Es	-1.032349	-0.993632	0.228845	99
Es	-0.010834	-2.143302	0.295970	99
Es	0.942238	1.859620	0.163991	99
Es	-1.486267	1.578419	-0.437619	99
Es	-0.267478	1.860057	-0.297511	99
Es	0.935101	0.275584	0.069448	99
Es	-0.529033	-1.428551	0.119264	99
Es	-0.298758	0.147109	-0.064354	99
Es	0.330093	2.234284	-0.261672	99
Es	0.493974	-2.217777	-0.237367	99
Es	-0.985079	-1.064311	-0.234829	99
Es	0.515019	0.197093	0.062259	99
Es	-0.602987	0.964529	0.086693	99
Es	1.449126	1.554105	-0.002651	99
Es	0.359869	2.951892	-0.356777	99
Es	1.815373	1.621820	0.041778	99
Es	1.022680	1.783676	-0.380924	99
Es	1.245443	-0.017178	0.199008	99
Es	-0.799152	1.399528	-0.311832	99
Es	1.048890	0.230488	0.122172	99
Es	0.319261	-2.052929	0.949905	99
Es	-0.427936	-2.757888	0.319987	99
Es	1.181201	0.783259	0.067578	99
38
Properties=species:S:1:pos:R:3:Z:I:1 energy=-358.603855999804 field_type=dipole dipole="0.000000 0.000000 0.000000" charge=0
C	-0.010653	-2.143522	0.296027	6
O	-0.877163	-1.049752	0.016777	8
C	-0.298963	0.147458	-0.064433	6
C	-0.799163	1.399567	-0.311843	6
C	0.330057	2.234278	-0.261673	6
N	1.449737	1.554328	-0.002593	7
O	1.049237	0.230188	0.122357	8
H	-0.616092	-3.053482	0.333377	1
H	0.476057	-2.019252	1.269647	1
H	0.735748	-2.264512	-0.496723	1
H	-1.829023	1.661008	-0.499603	1
H	0.390217	3.303698	-0.401313	1
Es	0.494202	-2.217329	-0.236411	99
Es	0.516091	0.197854	0.063099	99
Es	1.181465	0.782931	0.064089	99
Es	-0.427857	-2.759085	0.320928	99
Es	-0.878002	-0.967811	0.167079	99
Es	-0.010833	-2.143305	0.295971	99
Es	-1.131657	-1.085881	-0.139101	99
Es	-0.601770	0.958275	0.087371	99
Es	0.330092	2.234285	-0.261667	99
Es	-0.613518	-0.585113	-0.037791	99
Es	-0.298761	0.147104	-0.064356	99
Es	0.359770	2.952673	-0.356799	99
Es	1.814445	1.621425	0.038450	99
Es	-0.531726	-1.435715	0.111874	99
Es	-1.485552	1.578508	-0.436510	99
Es	1.020062	1.785177	-0.380409	99
Es	0.318795	-2.052719	0.947939	99
Es	0.931746	0.276195	0.087640	99
Es	0.940422	1.862936	0.164239	99
Es	-0.513027	0.883254	-0.507955	99
Es	1.247266	-0.021370	0.182950	99
Es	1.048381	0.230768	0.122712	99
Es	-0.799159	1.399542	-0.311834	99
Es	-0.266312	1.860681	-0.296468	99
Es	-0.876717	-1.049666	0.016739	99
Es	1.449111	1.554115	-0.002653	99
38
Properties=species:S:1:pos:R:3:Z:I:1 energy=-358.603855999804 field_type=dipole dipole="0.000000 0.000000 0.000000" charge=0
C	-0.010653	-2.143522	0.296027	6
O	-0.877163	-1.049752	0.016777	8
C	-0.298963	0.147458	-0.064433	6
C	-0.799163	1.399567	-0.311843	6
C	0.330057	2.234278	-0.261673	6
N	1.449737	1.554328	-0.002593	7
O	1.049237	0.230188	0.122357	8
H	-0.616092	-3.053482	0.333377	1
H	0.476057	-2.019252	1.269647	1
H	0.735748	-2.264512	-0.496723	1
H	-1.829023	1.661008	-0.499603	1
H	0.390217	3.303698	-0.401313	1
Es	1.048890	0.230532	0.122330	99
Es	0.519112	0.196568	0.048247	99
Es	-0.010841	-2.143299	0.295971	99
Es	0.492972	-2.216883	-0.235268	99
Es	1.245216	-0.021413	0.192956	99
Es	-0.598106	0.968858	0.087658	99
Es	-0.427589	-2.759843	0.319895	99
Es	-0.513750	0.871150	-0.505430	99
Es	0.330091	2.234287	-0.261668	99
Es	-0.799156	1.399538	-0.311835	99
Es	0.930396	0.275582	0.092217	99
Es	-0.265347	1.860891	-0.298598	99
Es	1.812585	1.621704	0.042993	99
Es	0.359809	2.953023	-0.357327	99
Es	-0.876714	-1.049585	0.017090	99
Es	0.319590	-2.052685	0.947995	99
Es	1.019030	1.788349	-0.383046	99
Es	-0.815714	-0.993243	-0.041083	99
Es	1.449116	1.554136	-0.002660	99
Es	0.938948	1.862638	0.163341	99
Es	-0.298759	0.147105	-0.064354	99
Es	-1.484668	1.578199	-0.438232	99
Es	-1.180447	-1.069883	0.017619	99
Es	1.180627	0.783394	0.065325	99
Es	-0.623123	-0.574483	0.000260	99
Es	-0.535213	-1.436906	0.124729	99
38
Properties=species:S:1:pos:R:3:Z:I:1 energy=-358.603855999804 field_type=dipole dipole="0.000000 0.000000 0.000000" charge=0
C	-0.010653	-2.143522	0.296027	6
O	-0.877163	-1.049752	0.016777	8
C	-0.298963	0.147458	-0.064433	6
C	-0.799163	1.399567	-0.311843	6
C	0.330057	2.234278	-0.261673	6
N	1.449737	1.554328	-0.002593	7
O	1.049237	0.230188	0.122357	8
H	-0.616092	-3.053482	0.333377	1
H	0.476057	-2.019252	1.269647	1
H	0.735748	-2.264512	-0.496723	1
H	-1.829023	1.661008	-0.499603	1
H	0.390217	3.303698	-0.401313	1
Es	-0.622701	-0.574667	-0.010521	99
Es	0.319396	-2.052499	0.946561	99
Es	0.492850	-2.216487	-0.234505	99
Es	-0.876314	-1.048920	0.017759	99
Es	-0.602375	0.941046	0.086643	99
Es	1.180354	0.783371	0.064766	99
Es	-0.010836	-2.143299	0.295968	99
Es	-0.799157	1.399542	-0.311833	99
Es	1.246953	-0.024211	0.178126	99
Es	0.330094	2.234283	-0.261670	99
Es	1.813033	1.621957	0.040867	99
Es	-0.822948	-0.983809	0.029968	99
Es	-0.535571	-1.438588	0.119913	99
Es	-0.298760	0.147103	-0.064357	99
Es	-0.265144	1.861360	-0.294697	99
Es	-0.506821	0.897666	-0.508360	99
Es	1.018114	1.787926	-0.381505	99
Es	-0.427400	-2.760735	0.320454	99
Es	0.927037	0.277152	0.111134	99
Es	-1.485015	1.578267	-0.436554	99
Es	0.359708	2.953377	-0.356836	99
Es	-1.173443	-1.077904	-0.038393	99
Es	0.937376	1.864532	0.162137	99
Es	1.449107	1.554112	-0.002652	99
Es	1.048929	0.230506	0.122029	99
Es	0.520490	0.196649	0.044686	99
38
Properties=species:S:1:pos:R:3:Z:I:1 energy=-358.603855999804 field_type=dipole dipole="0.000000 0.000000 0.000000" charge=0
C	-0.010653	-2.143522	0.296027	6
O	-0.877163	-1.049752	0.016777	8
C	-0.298963	0.147458	-0.064433	6
C	-0.799163	1.399567	-0.311843	6
C	0.330057	2.234278	-0.261673	6
N	1.449737	1.554328	-0.002593	7
O	1.049237	0.230188	0.122357	8
H	-0.616092	-3.053482	0.333377	1
H	0.476057	-2.019252	1.269647	1
H	0.735748	-2.264512	-0.496723	1
H	-1.829023	1.661008	-0.499603	1
H	0.390217	3.303698	-0.401313	1
Es	0.493691	-2.216378	-0.234292	99
Es	1.449107	1.554111	-0.002657	99
Es	-0.298759	0.147103	-0.064358	99
Es	0.318455	-2.052388	0.945337	99
Es	0.520987	0.197371	0.046786	99
Es	1.015969	1.789867	-0.380893	99
Es	1.180520	0.782948	0.060703	99
Es	-0.536903	-1.438344	0.125129	99
Es	-0.526177	0.825948	-0.484101	99
Es	-0.427387	-2.761056	0.321562	99
Es	-0.583828	1.015431	0.075603	99
Es	-0.262925	1.859472	-0.306446	99
Es	0.330093	2.234285	-0.261668	99
Es	-0.010836	-2.143307	0.295970	99
Es	1.813003	1.622263	0.041125	99
Es	1.048922	0.230521	0.122151	99
Es	-0.622195	-0.575736	-0.020583	99
Es	-1.176564	-1.073222	-0.006596	99
Es	1.244320	-0.022777	0.193911	99
Es	0.928120	0.274474	0.097960	99
Es	0.938539	1.863013	0.162607	99
Es	-1.484708	1.577768	-0.439230	99
Es	-0.876672	-1.049527	0.017191	99
Es	-0.818522	-0.986987	0.003842	99
Es	0.359865	2.953337	-0.358092	99
Es	-0.799157	1.399540	-0.311835	99
38
Properties=species:S:1:pos:R:3:Z:I:1 energy=-358.603855999804 field_type=dipole dipole="0.000000 0.000000 0.000000" charge=0
C	-0.010653	-2.143522	0.296027	6
O	-0.877163	-1.049752	0.016777	8
C	-0.298963	0.147458	-0.064433	6
C	-0.799163	1.399567	-0.311843	6
C	0.330057	2.234278	-0.261673	6
N	1.449737	1.554328	-0.002593	7
O	1.049237	0.230188	0.122357	8
H	-0.616092	-3.053482	0.333377	1
H	0.476057	-2.019252	1.269647	1
H	0.735748	-2.264512	-0.496723	1
H	-1.829023	1.661008	-0.499603	1
H	0.390217	3.303698	-0.401313	1
Es	0.931396	0.268289	0.067259	99
Es	-0.298762	0.147103	-0.064350	99
Es	-0.537652	-1.438854	0.125819	99
Es	-0.799158	1.399541	-0.311847	99
Es	1.180493	0.782958	0.061211	99
Es	1.015081	1.790472	-0.380568	99
Es	0.318351	-2.052363	0.944957	99
Es	1.048905	0.230503	0.122283	99
Es	-1.484599	1.577592	-0.440018	99
Es	-0.427280	-2.761313	0.321649	99
Es	-0.876625	-1.049419	0.017393	99
Es	-0.818565	-0.987055	0.004039	99
Es	-0.010833	-2.143305	0.295972	99
Es	-0.622366	-0.575865	-0.022047	99
Es	-0.577191	1.035751	0.064036	99
Es	1.242222	-0.020749	0.205583	99
Es	0.938877	1.862433	0.162727	99
Es	0.330093	2.234285	-0.261667	99
Es	0.359942	2.953381	-0.358452	99
Es	-0.262149	1.859001	-0.309108	99
Es	-1.175561	-1.072562	-0.006147	99
Es	1.812905	1.622395	0.041097	99
Es	0.493639	-2.216242	-0.233958	99
Es	0.519254	0.200711	0.065530	99
Es	-0.532573	0.806911	-0.469600	99
Es	1.449110	1.554135	-0.002665	99
38
Properties=species:S:1:pos:R:3:Z:I:1 energy=-358.603855999804 field_type=dipole dipole="0.000000 0.000000 0.000000" charge=0
C	-0.010653	-2.143522	0.296027	6
O	-0.877163	-1.049752	0.016777	8
C	-0.298963	0.147458	-0.064433	6
C	-0.799163	1.399567	-0.311843	6
C	0.330057	2.234278	-0.261673	6
N	1.449737	1.554328	-0.002593	7
O	1.049237	0.230188	0.122357	8
H	-0.616092	-3.053482	0.333377	1
H	0.476057	-2.019252	1.269647	1
H	0.735748	-2.264512	-0.496723	1
H	-1.829023	1.661008	-0.499603	1
H	0.390217	3.303698	-0.401313	1
Es	0.918877	0.276370	0.146325	99
Es	-0.622338	-0.575182	-0.012879	99
Es	0.330093	2.234285	-0.261668	99
Es	-0.616853	0.824383	0.023272	99
Es	1.048912	0.230501	0.122226	99
Es	-0.799158	1.399541	-0.311767	99
Es	1.179723	0.783926	0.067407	99
Es	-1.485644	1.578521	-0.432682	99
Es	-0.010836	-2.143301	0.295970	99
Es	1.021427	1.784076	-0.382089	99
Es	-0.490035	1.018420	-0.463788	99
Es	-0.298762	0.147101	-0.064353	99
Es	0.492822	-2.216403	-0.234513	99
Es	1.812090	1.620942	0.038328	99
Es	1.449105	1.554106	-0.002657	99
Es	-0.876395	-1.049415	0.016407	99
Es	-1.143513	-1.082324	-0.111180	99
Es	0.937469	1.866476	0.162775	99
Es	0.524922	0.196613	0.031486	99
Es	-0.853974	-0.977195	0.115848	99
Es	-0.534686	-1.439897	0.110373	99
Es	1.248744	-0.027108	0.152045	99
Es	-0.266346	1.862990	-0.277320	99
Es	0.359230	2.953641	-0.355303	99
Es	-0.427339	-2.760668	0.320031	99
Es	0.319421	-2.052668	0.946829	99
38
Properties=species:S:1:pos:R:3:Z:I:1 energy=-358.603855999804 field_type=dipole dipole="0.000000 0.000000 0.000000" charge=0
C	-0.010653	-2.143522	0.296027	6
O	-0.877163	-1.049752	0.016777	8
C	-0.298963	0.147458	-0.064433	6
C	-0.799163	1.399567	-0.311843	6
C	0.330057	2.234278	-0.261673	6
N	1.449737	1.554328	-0.002593	7
O	1.049237	0.230188	0.122357	8
H	-0.616092	-3.053482	0.333377	1
H	0.476057	-2.019252	1.269647	1
H	0.735748	-2.264512	-0.496723	1
H	-1.829023	1.661008	-0.499603	1
H	0.390217	3.303698	-0.401313	1
Es	-0.610237	0.749049	-0.105935	99
Es	-0.504649	1.103384	-0.328871	99
Es	0.941250	1.861302	0.162451	99
Es	-0.427575	-2.760094	0.319956	99
Es	0.319463	-2.052645	0.947668	99
Es	1.025237	1.781340	-0.380790	99
Es	-1.012508	-0.994408	0.216026	99
Es	-0.614392	-0.581274	-0.008284	99
Es	-0.263330	1.862140	-0.284466	99
Es	-0.298761	0.147103	-0.064355	99
Es	-0.799161	1.399544	-0.311752	99
Es	-0.533111	-1.435947	0.116768	99
Es	1.249540	-0.025019	0.154214	99
Es	-1.486839	1.577725	-0.435154	99
Es	-0.876691	-1.049645	0.016797	99
Es	-0.010836	-2.143299	0.295966	99
Es	1.812977	1.621750	0.041570	99
Es	0.913935	0.275901	0.156540	99
Es	0.330092	2.234286	-0.261661	99
Es	0.526102	0.194862	0.022582	99
Es	0.359665	2.953241	-0.356203	99
Es	1.449112	1.554116	-0.002654	99
Es	-0.994801	-1.062924	-0.222785	99
Es	1.048752	0.230525	0.121922	99
Es	1.180638	0.783399	0.064720	99
Es	0.493086	-2.216680	-0.235144	99
38
Properties=species:S:1:pos:R:3:Z:I:1 energy=-358.603855999804 field_type=dipole dipole="0.000000 0.000000 0.000000" charge=0
C	-0.010653	-2.143522	0.296027	6
O	-0.877163	-1.049752	0.016777	8
C	-0.298963	0.147458	-0.064433	6
C	-0.799163	1.399567	-0.311843	6
C	0.330057	2.234278	-0.261673	6
N	1.449737	1.554328	-0.002593	7
O	1.049237	0.230188	0.122357	8
H	-0.616092	-3.053482	0.333377	1
H	0.476057	-2.019252	1.269647	1
H	0.735748	-2.264512	-0.496723	1
H	-1.829023	1.661008	-0.499603	1
H	0.390217	3.303698	-0.401313	1
Es	-0.876612	-1.049609	0.016584	99
Es	1.022366	1.785430	-0.381522	99
Es	1.180682	0.783464	0.064837	99
Es	-0.614444	-0.581160	-0.008204	99
Es	-0.010835	-2.143304	0.295970	99
Es	1.812328	1.621544	0.042657	99
Es	-0.587980	0.724924	-0.261318	99
Es	-1.060044	-1.004871	0.206323	99
Es	-0.534132	-1.434798	0.124305	99
Es	1.241263	-0.017809	0.212237	99
Es	-1.486046	1.577212	-0.439849	99
Es	0.929164	0.262144	0.052345	99
Es	-0.946240	-1.053745	-0.220226	99
Es	-0.427726	-2.759841	0.320522	99
Es	-0.530397	1.130872	-0.148285	99
Es	-0.259655	1.859046	-0.308039	99
Es	1.449121	1.554106	-0.002652	99
Es	0.518420	0.201310	0.069965	99
Es	0.944056	1.857918	0.165133	99
Es	0.359929	2.953034	-0.357921	99
Es	1.048903	0.230502	0.122074	99
Es	0.319150	-2.052601	0.947548	99
Es	0.493497	-2.216953	-0.235439	99
Es	0.330092	2.234285	-0.261665	99
Es	-0.298762	0.147104	-0.064345	99
Es	-0.799142	1.399527	-0.311909	99
38
Properties=species:S:1:pos:R:3:Z:I:1 energy=-358.603855999804 field_type=dipole dipole="0.000000 0.000000 0.000000" charge=0
C	-0.010653	-2.143522	0.296027	6
O	-0.877163	-1.049752	0.016777	8
C	-0.298963	0.147458	-0.064433	6
C	-0.799163	1.399567	-0.311843	6
C	0.330057	2.234278	-0.261673	6
N	1.449737	1.554328	-0.002593	7
O	1.049237	0.230188	0.122357	8
H	-0.616092	-3.053482	0.333377	1
H	0.476057	-2.019252	1.269647	1
H	0.735748	-2.264512	-0.496723	1
H	-1.829023	1.661008	-0.499603	1
H	0.390217	3.303698	-0.401313	1
Es	0.493464	-2.216894	-0.235350	99
Es	-0.799152	1.399534	-0.311877	99
Es	0.944164	1.858223	0.165246	99
Es	1.180850	0.783343	0.064225	99
Es	-1.046739	-1.000652	0.211726	99
Es	0.359843	2.953064	-0.357845	99
Es	1.021890	1.785302	-0.380776	99
Es	-0.876812	-1.049630	0.016851	99
Es	-0.533932	-1.435458	0.121807	99
Es	0.518418	0.201502	0.071149	99
Es	-0.427715	-2.759981	0.320624	99
Es	1.812584	1.621557	0.041449	99
Es	-0.589695	0.724826	-0.251086	99
Es	-0.298762	0.147102	-0.064354	99
Es	-0.959856	-1.056894	-0.220491	99
Es	0.929259	0.261985	0.052960	99
Es	1.449110	1.554125	-0.002659	99
Es	1.241659	-0.018181	0.210553	99
Es	-0.614088	-0.581521	-0.011084	99
Es	1.048220	0.230704	0.122510	99
Es	-1.486165	1.577153	-0.439547	99
Es	0.319154	-2.052570	0.947312	99
Es	-0.528221	1.130819	-0.159982	99
Es	-0.259779	1.859284	-0.306526	99
Es	-0.010834	-2.143296	0.295966	99
Es	0.330091	2.234285	-0.261675	99
38
Properties=species:S:1:pos:R:3:Z:I:1 energy=-358.603855999804 field_type=dipole dipole="0.000000 0.000000 0.000000" charge=0
C	-0.010653	-2.143522	0.296027	6
O	-0.877163	-1.049752	0.016777	8
C	-0.298963	0.147458	-0.064433	6
C	-0.799163	1.399567	-0.311843	6
C	0.330057	2.234278	-0.261673	6
N	1.449737	1.554328	-0.002593	7
O	1.049237	0.230188	0.122357	8
H	-0.616092	-3.053482	0.333377	1
H	0.476057	-2.019252	1.269647	1
H	0.735748	-2.264512	-0.496723	1
H	-1.829023	1.661008	-0.499603	1
H	0.390217	3.303698	-0.401313	1
Es	0.917801	0.273484	0.130633	99
Es	1.048720	0.230622	0.122628	99
Es	1.812177	1.621092	0.040604	99
Es	1.024612	1.782357	-0.381478	99
Es	1.449115	1.554111	-0.002655	99
Es	0.493208	-2.216802	-0.235283	99
Es	-0.298761	0.147101	-0.064357	99
Es	-0.507495	1.111962	-0.298475	99
Es	-0.262358	1.862068	-0.287848	99
Es	0.330095	2.234283	-0.261671	99
Es	1.248476	-0.024866	0.166343	99
Es	-0.607229	0.740560	-0.132891	99
Es	1.180262	0.783678	0.065725	99
Es	0.319370	-2.052699	0.947624	99
Es	-1.486602	1.577751	-0.435391	99
Es	0.359559	2.953302	-0.356387	99
Es	-0.799163	1.399545	-0.311793	99
Es	-0.876777	-1.049608	0.017070	99
Es	0.523180	0.196101	0.034839	99
Es	-0.614259	-0.581411	-0.011452	99
Es	-0.427633	-2.759965	0.320123	99
Es	-0.996215	-1.064115	-0.220900	99
Es	-1.010805	-0.992991	0.216131	99
Es	-0.010834	-2.143298	0.295967	99
Es	-0.533389	-1.436063	0.117795	99
Es	0.941901	1.861532	0.164226	99
38
Properties=species:S:1:pos:R:3:Z:I:1 energy=-358.603855999804 field_type=dipole dipole="0.000000 0.000000 0.000000" charge=0
C	-0.010653	-2.143522	0.296027	6
O	-0.877163	-1.049752	0.016777	8
C	-0.298963	0.147458	-0.064433	6
C	-0.799163	1.399567	-0.311843	6
C	0.330057	2.234278	-0.261673	6
N	1.449737	1.554328	-0.002593	7
O	1.049237	0.230188	0.122357	8
H	-0.616092	-3.053482	0.333377	1
H	0.476057	-2.019252	1.269647	1
H	0.735748	-2.264512	-0.496723	1
H	-1.829023	1.661008	-0.499603	1
H	0.390217	3.303698	-0.401313	1
Es	0.519125	0.199682	0.060721	99
Es	0.943426	1.859781	0.165882	99
Es	-0.594818	0.725684	-0.221074	99
Es	-0.965367	-1.058116	-0.221606	99
Es	-0.613852	-0.581697	-0.010949	99
Es	-0.522101	1.129004	-0.195224	99
Es	0.493333	-2.217064	-0.235558	99
Es	-0.260132	1.860344	-0.301854	99
Es	-1.486232	1.577392	-0.438298	99
Es	1.811813	1.620937	0.041119	99
Es	0.359734	2.953146	-0.357473	99
Es	0.330091	2.234286	-0.261671	99
Es	0.926155	0.265437	0.071017	99
Es	1.449127	1.554104	-0.002653	99
Es	-0.298762	0.147101	-0.064354	99
Es	1.180572	0.783651	0.065515	99
Es	-1.041539	-0.999305	0.212964	99
Es	1.243312	-0.020280	0.201602	99
Es	-0.427735	-2.759784	0.320639	99
Es	1.023214	1.784361	-0.381875	99
Es	-0.876684	-1.049648	0.016748	99
Es	-0.799156	1.399539	-0.311860	99
Es	1.048900	0.230508	0.122288	99
Es	-0.010832	-2.143309	0.295973	99
Es	-0.533965	-1.435453	0.121608	99
Es	0.319327	-2.052570	0.947500	99
