38
Properties=species:S:1:pos:R:3:Z:I:1 energy=-358.5966855983616 field_type=dipole dipole="0.000000 0.000000 0.000000" charge=0
C	-0.607677	-1.902232	0.291227	6
O	-1.333787	-0.718122	0.001917	8
C	-0.562457	0.382688	-0.125533	6
N	-1.210837	1.515338	-0.397533	7
O	-0.223767	2.486938	-0.480103	8
C	0.986364	1.914808	-0.256503	6
C	0.828173	0.572948	-0.024753	6
H	-1.324027	-2.725472	0.372927	1
H	-0.081537	-1.820892	1.248787	1
H	0.091123	-2.146322	-0.516523	1
H	1.832623	2.584528	-0.297213	1
H	1.605803	-0.144212	0.183307	1
Es	1.340161	0.086579	0.114781	99
Es	-0.122759	-2.060449	-0.257294	99
Es	-1.210192	1.515201	-0.397450	99
Es	0.986173	1.914982	-0.256553	99
Es	0.901229	1.081798	-0.424884	99
Es	-0.106071	2.444325	-0.212061	99
Es	0.217795	2.243518	-0.522419	99
Es	-1.559457	1.620989	-0.451361	99
Es	-1.333382	-0.718083	0.001959	99
Es	-1.092394	-2.456206	0.346028	99
Es	-0.607798	-1.902013	0.291175	99
Es	-0.943545	1.130307	-0.009357	99
Es	0.838330	1.189600	0.178128	99
Es	-0.890349	1.027585	-0.565946	99
Es	-1.440179	-0.736741	-0.266822	99
Es	-1.491063	-0.644097	0.234131	99
Es	0.828147	0.572921	-0.024753	99
Es	1.553661	2.354766	-0.282933	99
Es	-0.990211	-0.313873	-0.038994	99
Es	-0.608662	2.058398	-0.452395	99
Es	0.142767	0.401172	-0.061509	99
Es	-0.223586	2.486464	-0.480095	99
Es	-1.027164	-1.140308	0.110257	99
Es	-0.562618	0.382465	-0.125526	99
Es	-0.272493	2.745289	-0.637986	99
Es	-0.239765	-1.839534	0.940675	99
38
Properties=species:S:1:pos:R:3:Z:I:1 energy=-358.5966855983616 field_type=dipole dipole="0.000000 0.000000 0.000000" charge=0
C	-0.607677	-1.902232	0.291227	6
O	-1.333787	-0.718122	0.001917	8
C	-0.562457	0.382688	-0.125533	6
N	-1.210837	1.515338	-0.397533	7
O	-0.223767	2.486938	-0.480103	8
C	0.986364	1.914808	-0.256503	6
C	0.828173	0.572948	-0.024753	6
H	-1.324027	-2.725472	0.372927	1
H	-0.081537	-1.820892	1.248787	1
H	0.091123	-2.146322	-0.516523	1
H	1.832623	2.584528	-0.297213	1
H	1.605803	-0.144212	0.183307	1
Es	-0.991138	-0.303935	-0.042388	99
Es	-0.887914	1.024675	-0.561326	99
Es	-0.223648	2.486474	-0.480048	99
Es	-0.239481	-1.838600	0.937273	99
Es	-1.445702	-0.736265	-0.252104	99
Es	-0.941226	1.125398	-0.013686	99
Es	-0.282840	2.798737	-0.549559	99
Es	0.839552	1.192772	0.173380	99
Es	1.554705	2.355792	-0.282292	99
Es	-1.480456	-0.647402	0.222549	99
Es	-0.562621	0.382469	-0.125496	99
Es	1.340933	0.086958	0.114772	99
Es	-0.607796	-1.902011	0.291176	99
Es	0.140183	0.402037	-0.061135	99
Es	-0.612140	2.057527	-0.440398	99
Es	0.986170	1.914988	-0.256543	99
Es	-0.127949	2.384103	-0.430220	99
Es	-1.093400	-2.460189	0.346540	99
Es	-0.122748	-2.058250	-0.254262	99
Es	-1.030842	-1.147056	0.110453	99
Es	-1.333599	-0.718088	0.001925	99
Es	-1.561728	1.619022	-0.450755	99
Es	-1.210186	1.515221	-0.397440	99
Es	0.898990	1.084051	-0.422440	99
Es	0.253309	2.253714	-0.404433	99
Es	0.828147	0.572912	-0.024749	99
38
Properties=species:S:1:pos:R:3:Z:I:1 energy=-358.5966855983616 field_type=dipole dipole="0.000000 0.000000 0.000000" charge=0
C	-0.607677	-1.902232	0.291227	6
O	-1.333787	-0.718122	0.001917	8
C	-0.562457	0.382688	-0.125533	6
N	-1.210837	1.515338	-0.397533	7
O	-0.223767	2.486938	-0.480103	8
C	0.986364	1.914808	-0.256503	6
C	0.828173	0.572948	-0.024753	6
H	-1.324027	-2.725472	0.372927	1
H	-0.081537	-1.820892	1.248787	1
H	0.091123	-2.146322	-0.516523	1
H	1.832623	2.584528	-0.297213	1
H	1.605803	-0.144212	0.183307	1
Es	0.894902	1.081817	-0.421675	99
Es	-0.562623	0.382462	-0.125501	99
Es	-0.886501	1.023409	-0.559097	99
Es	-0.238588	-1.838268	0.935961	99
Es	-0.282355	2.800854	-0.544279	99
Es	-0.122031	2.378721	-0.468571	99
Es	-1.093359	-2.462193	0.345957	99
Es	0.248201	2.259937	-0.371254	99
Es	-0.223658	2.486492	-0.479886	99
Es	-0.124036	-2.056983	-0.252208	99
Es	0.840836	1.196850	0.171401	99
Es	0.139408	0.402710	-0.060726	99
Es	0.828147	0.572915	-0.024749	99
Es	-1.035315	-1.150386	0.117898	99
Es	-1.593032	-0.672567	0.141565	99
Es	-1.333290	-0.717936	0.002496	99
Es	-0.997034	-0.294773	-0.022179	99
Es	1.340779	0.086897	0.115399	99
Es	-0.940871	1.123235	-0.013897	99
Es	-0.611700	2.057084	-0.441161	99
Es	-1.561692	1.617450	-0.452873	99
Es	1.554850	2.356166	-0.281543	99
Es	0.986173	1.914986	-0.256558	99
Es	-0.607795	-1.902015	0.291175	99
Es	-1.210179	1.515213	-0.397450	99
Es	-1.322663	-0.717021	-0.199450	99
38
Properties=species:S:1:pos:R:3:Z:I:1 energy=-358.5966855983616 field_type=dipole dipole="0.000000 0.000000 0.000000" charge=0
C	-0.607677	-1.902232	0.291227	6
O	-1.333787	-0.718122	0.001917	8
C	-0.562457	0.382688	-0.125533	6
N	-1.210837	1.515338	-0.397533	7
O	-0.223767	2.486938	-0.480103	8
C	0.986364	1.914808	-0.256503	6
C	0.828173	0.572948	-0.024753	6
H	-1.324027	-2.725472	0.372927	1
H	-0.081537	-1.820892	1.248787	1
H	0.091123	-2.146322	-0.516523	1
H	1.832623	2.584528	-0.297213	1
H	1.605803	-0.144212	0.183307	1
Es	0.986175	1.914985	-0.256554	99
Es	0.841623	1.199643	0.171454	99
Es	-0.120287	2.379228	-0.474787	99
Es	1.340032	0.086716	0.115469	99
Es	-1.636114	-0.695855	0.028258	99
Es	-0.886540	1.021156	-0.561797	99
Es	-0.223564	2.486389	-0.480165	99
Es	-1.210179	1.515212	-0.397446	99
Es	-0.281734	2.802994	-0.539814	99
Es	-0.999163	-0.291261	-0.033362	99
Es	0.891893	1.080481	-0.423438	99
Es	0.828148	0.572918	-0.024752	99
Es	-1.093402	-2.462503	0.346543	99
Es	-1.559494	1.617634	-0.451337	99
Es	0.139170	0.402779	-0.059856	99
Es	-0.123758	-2.056944	-0.251992	99
Es	-1.037978	-1.154133	0.116187	99
Es	0.246528	2.259218	-0.371839	99
Es	-0.562621	0.382465	-0.125508	99
Es	-0.607798	-1.902013	0.291175	99
Es	1.554610	2.356394	-0.281968	99
Es	-0.611477	2.057276	-0.438643	99
Es	-0.238989	-1.838226	0.935117	99
Es	-0.940857	1.121963	-0.011548	99
Es	-1.333318	-0.718073	0.002128	99
Es	-1.274332	-0.693388	-0.072727	99
38
Properties=species:S:1:pos:R:3:Z:I:1 energy=-358.5966855983616 field_type=dipole dipole="0.000000 0.000000 0.000000" charge=0
C	-0.607677	-1.902232	0.291227	6
O	-1.333787	-0.718122	0.001917	8
C	-0.562457	0.382688	-0.125533	6
N	-1.210837	1.515338	-0.397533	7
O	-0.223767	2.486938	-0.480103	8
C	0.986364	1.914808	-0.256503	6
C	0.828173	0.572948	-0.024753	6
H	-1.324027	-2.725472	0.372927	1
H	-0.081537	-1.820892	1.248787	1
H	0.091123	-2.146322	-0.516523	1
H	1.832623	2.584528	-0.297213	1
H	1.605803	-0.144212	0.183307	1
Es	-0.239358	-1.838130	0.933879	99
Es	-1.636591	-0.702402	-0.003997	99
Es	0.839475	1.198577	0.171230	99
Es	-1.559588	1.616965	-0.451740	99
Es	-0.123734	-2.056477	-0.251082	99
Es	0.247869	2.256080	-0.386594	99
Es	-0.280571	2.802652	-0.545329	99
Es	0.138849	0.403055	-0.060533	99
Es	0.986174	1.914986	-0.256554	99
Es	-1.093305	-2.463380	0.346875	99
Es	-0.940318	1.121577	-0.011599	99
Es	-0.885994	1.019960	-0.560410	99
Es	-0.223631	2.486446	-0.480072	99
Es	-0.122296	2.384069	-0.453928	99
Es	-1.210181	1.515231	-0.397448	99
Es	-1.038370	-1.155400	0.113053	99
Es	1.554741	2.356468	-0.282175	99
Es	-0.607796	-1.902009	0.291175	99
Es	-0.611131	2.056966	-0.439409	99
Es	1.340095	0.086510	0.115217	99
Es	0.892341	1.082706	-0.422945	99
Es	-0.999752	-0.290881	-0.039251	99
Es	-0.562620	0.382462	-0.125514	99
Es	-1.333329	-0.718100	0.001991	99
Es	-1.272550	-0.685791	-0.031293	99
Es	0.828147	0.572913	-0.024750	99
38
Properties=species:S:1:pos:R:3:Z:I:1 energy=-358.5966855983616 field_type=dipole dipole="0.000000 0.000000 0.000000" charge=0
C	-0.607677	-1.902232	0.291227	6
O	-1.333787	-0.718122	0.001917	8
C	-0.562457	0.382688	-0.125533	6
N	-1.210837	1.515338	-0.397533	7
O	-0.223767	2.486938	-0.480103	8
C	0.986364	1.914808	-0.256503	6
C	0.828173	0.572948	-0.024753	6
H	-1.324027	-2.725472	0.372927	1
H	-0.081537	-1.820892	1.248787	1
H	0.091123	-2.146322	-0.516523	1
H	1.832623	2.584528	-0.297213	1
H	1.605803	-0.144212	0.183307	1
Es	-1.093121	-2.464182	0.347637	99
Es	-0.223642	2.486480	-0.480044	99
Es	-1.274169	-0.680269	-0.000734	99
Es	0.893876	1.086022	-0.422390	99
Es	-0.939022	1.120751	-0.013256	99
Es	-0.123909	-2.056143	-0.250343	99
Es	-0.885873	1.019301	-0.559734	99
Es	0.138618	0.403351	-0.061136	99
Es	-1.634220	-0.707175	-0.028948	99
Es	-0.121724	2.384858	-0.453054	99
Es	-0.562621	0.382461	-0.125510	99
Es	0.986171	1.914987	-0.256554	99
Es	-1.210163	1.515224	-0.397446	99
Es	0.828147	0.572914	-0.024767	99
Es	0.247281	2.255589	-0.389061	99
Es	-0.607798	-1.902012	0.291174	99
Es	0.836519	1.196088	0.170935	99
Es	-0.239581	-1.837955	0.932352	99
Es	-0.610888	2.056842	-0.438739	99
Es	1.340373	0.086286	0.114889	99
Es	-1.038936	-1.155824	0.112103	99
Es	-1.560404	1.616791	-0.449886	99
Es	1.554828	2.356505	-0.282381	99
Es	-0.999770	-0.291128	-0.044259	99
Es	-0.280130	2.803258	-0.544417	99
Es	-1.333265	-0.717966	0.002365	99
38
Properties=species:S:1:pos:R:3:Z:I:1 energy=-358.5966855983616 field_type=dipole dipole="0.000000 0.000000 0.000000" charge=0
C	-0.607677	-1.902232	0.291227	6
O	-1.333787	-0.718122	0.001917	8
C	-0.562457	0.382688	-0.125533	6
N	-1.210837	1.515338	-0.397533	7
O	-0.223767	2.486938	-0.480103	8
C	0.986364	1.914808	-0.256503	6
C	0.828173	0.572948	-0.024753	6
H	-1.324027	-2.725472	0.372927	1
H	-0.081537	-1.820892	1.248787	1
H	0.091123	-2.146322	-0.516523	1
H	1.832623	2.584528	-0.297213	1
H	1.605803	-0.144212	0.183307	1
Es	0.246943	2.255081	-0.390675	99
Es	1.340674	0.086238	0.114924	99
Es	0.828147	0.572912	-0.024752	99
Es	-0.279684	2.803355	-0.545396	99
Es	-1.092803	-2.465078	0.347620	99
Es	-0.239592	-1.837848	0.931305	99
Es	-1.560678	1.616443	-0.450199	99
Es	0.986172	1.914986	-0.256555	99
Es	-0.885526	1.019425	-0.558812	99
Es	-1.275025	-0.681654	-0.004119	99
Es	-0.223648	2.486488	-0.480003	99
Es	-1.039554	-1.156621	0.111299	99
Es	-1.632874	-0.706479	-0.027060	99
Es	-1.210182	1.515206	-0.397449	99
Es	0.894270	1.087595	-0.421632	99
Es	-1.000621	-0.290408	-0.042883	99
Es	1.554962	2.356538	-0.282230	99
Es	-0.938740	1.119695	-0.013813	99
Es	-1.332161	-0.717021	0.003322	99
Es	-0.121351	2.385759	-0.450451	99
Es	-0.610727	2.056839	-0.438902	99
Es	-0.607793	-1.902019	0.291180	99
Es	0.835009	1.195018	0.169976	99
Es	-0.562622	0.382461	-0.125509	99
Es	-0.124400	-2.055556	-0.249311	99
Es	0.138379	0.403699	-0.061077	99
38
Properties=species:S:1:pos:R:3:Z:I:1 energy=-358.5966855983616 field_type=dipole dipole="0.000000 0.000000 0.000000" charge=0
C	-0.607677	-1.902232	0.291227	6
O	-1.333787	-0.718122	0.001917	8
C	-0.562457	0.382688	-0.125533	6
N	-1.210837	1.515338	-0.397533	7
O	-0.223767	2.486938	-0.480103	8
C	0.986364	1.914808	-0.256503	6
C	0.828173	0.572948	-0.024753	6
H	-1.324027	-2.725472	0.372927	1
H	-0.081537	-1.820892	1.248787	1
H	0.091123	-2.146322	-0.516523	1
H	1.832623	2.584528	-0.297213	1
H	1.605803	-0.144212	0.183307	1
Es	-0.223636	2.486485	-0.479879	99
Es	-1.210175	1.515226	-0.397443	99
Es	-0.239975	-1.837861	0.930294	99
Es	-0.607798	-1.902006	0.291174	99
Es	-0.562621	0.382461	-0.125515	99
Es	-1.631293	-0.707636	-0.034858	99
Es	-0.937885	1.118509	-0.014936	99
Es	0.892625	1.086720	-0.421101	99
Es	-0.279642	2.804093	-0.542810	99
Es	0.986171	1.914987	-0.256554	99
Es	0.828147	0.572913	-0.024739	99
Es	-0.124527	-2.055149	-0.248464	99
Es	-1.040018	-1.156727	0.111930	99
Es	-1.333247	-0.717956	0.002397	99
Es	0.138186	0.404198	-0.061007	99
Es	-0.884993	1.020233	-0.557152	99
Es	1.340827	0.086060	0.114984	99
Es	0.835766	1.196205	0.168997	99
Es	-1.000462	-0.290773	-0.045187	99
Es	-0.610695	2.056813	-0.438705	99
Es	-0.120777	2.386044	-0.450891	99
Es	1.555038	2.356599	-0.282466	99
Es	-1.561643	1.615687	-0.450249	99
Es	-1.092535	-2.465720	0.347769	99
Es	-1.274877	-0.678964	0.006326	99
Es	0.246613	2.254613	-0.393117	99
38
Properties=species:S:1:pos:R:3:Z:I:1 energy=-358.5966855983616 field_type=dipole dipole="0.000000 0.000000 0.000000" charge=0
C	-0.607677	-1.902232	0.291227	6
O	-1.333787	-0.718122	0.001917	8
C	-0.562457	0.382688	-0.125533	6
N	-1.210837	1.515338	-0.397533	7
O	-0.223767	2.486938	-0.480103	8
C	0.986364	1.914808	-0.256503	6
C	0.828173	0.572948	-0.024753	6
H	-1.324027	-2.725472	0.372927	1
H	-0.081537	-1.820892	1.248787	1
H	0.091123	-2.146322	-0.516523	1
H	1.832623	2.584528	-0.297213	1
H	1.605803	-0.144212	0.183307	1
Es	-0.884802	1.016760	-0.555920	99
Es	-1.210181	1.515246	-0.397456	99
Es	-0.607797	-1.902015	0.291175	99
Es	-1.331190	-0.715912	0.005107	99
Es	1.341034	0.085922	0.114564	99
Es	-0.239682	-1.837790	0.929881	99
Es	-1.001035	-0.290164	-0.043327	99
Es	0.822353	1.181523	0.168579	99
Es	-1.040084	-1.157030	0.111040	99
Es	0.986172	1.914986	-0.256556	99
Es	-0.125325	-2.054699	-0.247490	99
Es	-1.092187	-2.466358	0.347308	99
Es	-0.562623	0.382460	-0.125511	99
Es	0.828148	0.572911	-0.024755	99
Es	-0.279573	2.804687	-0.540607	99
Es	0.138260	0.404001	-0.063473	99
Es	1.555069	2.356702	-0.282050	99
Es	-0.223622	2.486454	-0.480099	99
Es	-0.119804	2.385448	-0.455763	99
Es	-1.629893	-0.708594	-0.040137	99
Es	-0.937569	1.121517	-0.016295	99
Es	0.905028	1.102011	-0.418418	99
Es	-0.610484	2.056621	-0.439636	99
Es	-1.561911	1.615477	-0.449827	99
Es	-1.277519	-0.680288	0.007751	99
Es	0.245791	2.255178	-0.389288	99
38
Properties=species:S:1:pos:R:3:Z:I:1 energy=-358.5966855983616 field_type=dipole dipole="0.000000 0.000000 0.000000" charge=0
C	-0.607677	-1.902232	0.291227	6
O	-1.333787	-0.718122	0.001917	8
C	-0.562457	0.382688	-0.125533	6
N	-1.210837	1.515338	-0.397533	7
O	-0.223767	2.486938	-0.480103	8
C	0.986364	1.914808	-0.256503	6
C	0.828173	0.572948	-0.024753	6
H	-1.324027	-2.725472	0.372927	1
H	-0.081537	-1.820892	1.248787	1
H	0.091123	-2.146322	-0.516523	1
H	1.832623	2.584528	-0.297213	1
H	1.605803	-0.144212	0.183307	1
Es	-1.629516	-0.707886	-0.037159	99
Es	-0.607792	-1.902010	0.291166	99
Es	0.828147	0.572911	-0.024753	99
Es	-0.937373	1.122523	-0.017133	99
Es	-0.884365	1.015666	-0.554462	99
Es	-1.562279	1.615021	-0.450326	99
Es	1.555122	2.356712	-0.281989	99
Es	-1.275229	-0.679041	0.007028	99
Es	-0.610199	2.056384	-0.439353	99
Es	-1.210170	1.515228	-0.397447	99
Es	-0.119112	2.385277	-0.457894	99
Es	1.341206	0.085851	0.114509	99
Es	-0.562624	0.382461	-0.125508	99
Es	0.906321	1.104316	-0.417435	99
Es	0.820346	1.179307	0.167510	99
Es	-0.279866	2.804668	-0.540747	99
Es	-0.223628	2.486507	-0.479949	99
Es	0.986172	1.914987	-0.256554	99
Es	-0.125997	-2.054442	-0.246768	99
Es	0.245450	2.255953	-0.387292	99
Es	-1.091896	-2.466848	0.347368	99
Es	-1.040504	-1.157176	0.111506	99
Es	0.138150	0.404161	-0.063644	99
Es	-0.239511	-1.837727	0.929124	99
Es	-1.001442	-0.289729	-0.042107	99
Es	-1.332837	-0.718018	0.001102	99
38
Properties=species:S:1:pos:R:3:Z:I:1 energy=-358.5966855983616 field_type=dipole dipole="0.000000 0.000000 0.000000" charge=0
C	-0.607677	-1.902232	0.291227	6
O	-1.333787	-0.718122	0.001917	8
C	-0.562457	0.382688	-0.125533	6
N	-1.210837	1.515338	-0.397533	7
O	-0.223767	2.486938	-0.480103	8
C	0.986364	1.914808	-0.256503	6
C	0.828173	0.572948	-0.024753	6
H	-1.324027	-2.725472	0.372927	1
H	-0.081537	-1.820892	1.248787	1
H	0.091123	-2.146322	-0.516523	1
H	1.832623	2.584528	-0.297213	1
H	1.605803	-0.144212	0.183307	1
Es	-0.610065	2.056100	-0.441324	99
Es	-0.279417	2.805208	-0.539190	99
Es	-1.040747	-1.157795	0.109866	99
Es	0.244736	2.255781	-0.386447	99
Es	0.807735	1.163647	0.161762	99
Es	1.341147	0.085718	0.114278	99
Es	-1.091817	-2.466992	0.346821	99
Es	-0.118618	2.385391	-0.458280	99
Es	0.986172	1.914986	-0.256555	99
Es	-0.127333	-2.054382	-0.246423	99
Es	-1.562067	1.615099	-0.450122	99
Es	-0.607797	-1.902011	0.291175	99
Es	-1.628124	-0.708509	-0.040561	99
Es	-1.210164	1.515216	-0.397417	99
Es	0.828148	0.572910	-0.024756	99
Es	-0.223606	2.486502	-0.479922	99
Es	-0.562624	0.382460	-0.125508	99
Es	-0.937444	1.123648	-0.017214	99
Es	0.918325	1.120014	-0.409652	99
Es	0.138346	0.403884	-0.065991	99
Es	-1.333119	-0.718119	0.001454	99
Es	1.555070	2.356803	-0.281612	99
Es	-0.238297	-1.837651	0.929373	99
Es	-1.275218	-0.678566	0.008778	99
Es	-0.884406	1.014606	-0.554451	99
Es	-1.002240	-0.288894	-0.039285	99
38
Properties=species:S:1:pos:R:3:Z:I:1 energy=-358.5966855983616 field_type=dipole dipole="0.000000 0.000000 0.000000" charge=0
C	-0.607677	-1.902232	0.291227	6
O	-1.333787	-0.718122	0.001917	8
C	-0.562457	0.382688	-0.125533	6
N	-1.210837	1.515338	-0.397533	7
O	-0.223767	2.486938	-0.480103	8
C	0.986364	1.914808	-0.256503	6
C	0.828173	0.572948	-0.024753	6
H	-1.324027	-2.725472	0.372927	1
H	-0.081537	-1.820892	1.248787	1
H	0.091123	-2.146322	-0.516523	1
H	1.832623	2.584528	-0.297213	1
H	1.605803	-0.144212	0.183307	1
Es	0.138496	0.403718	-0.067442	99
Es	-0.223610	2.486510	-0.479979	99
Es	-0.279201	2.805546	-0.537795	99
Es	1.555033	2.356874	-0.281457	99
Es	0.986171	1.914987	-0.256554	99
Es	-1.002229	-0.288775	-0.038422	99
Es	-0.937777	1.126718	-0.017527	99
Es	-0.562623	0.382460	-0.125511	99
Es	-1.274830	-0.678869	0.006705	99
Es	-0.127796	-2.054330	-0.246214	99
Es	0.800627	1.154140	0.156325	99
Es	0.244025	2.256210	-0.383661	99
Es	-0.237877	-1.837651	0.929612	99
Es	-1.333248	-0.718133	0.001721	99
Es	0.828150	0.572909	-0.024790	99
Es	-1.210163	1.515218	-0.397449	99
Es	-1.091771	-2.467041	0.346440	99
Es	-1.040981	-1.157906	0.109706	99
Es	-0.610039	2.055964	-0.442345	99
Es	-1.628089	-0.708255	-0.039573	99
Es	-0.884320	1.011815	-0.553090	99
Es	-1.561637	1.614963	-0.450941	99
Es	-0.607798	-1.902006	0.291179	99
Es	1.341036	0.085580	0.114063	99
Es	0.924789	1.129387	-0.402841	99
Es	-0.117763	2.385022	-0.461364	99
38
Properties=species:S:1:pos:R:3:Z:I:1 energy=-358.5966855983616 field_type=dipole dipole="0.000000 0.000000 0.000000" charge=0
C	-0.607677	-1.902232	0.291227	6
O	-1.333787	-0.718122	0.001917	8
C	-0.562457	0.382688	-0.125533	6
N	-1.210837	1.515338	-0.397533	7
O	-0.223767	2.486938	-0.480103	8
C	0.986364	1.914808	-0.256503	6
C	0.828173	0.572948	-0.024753	6
H	-1.324027	-2.725472	0.372927	1
H	-0.081537	-1.820892	1.248787	1
H	0.091123	-2.146322	-0.516523	1
H	1.832623	2.584528	-0.297213	1
H	1.605803	-0.144212	0.183307	1
Es	0.794183	1.144972	0.149035	99
Es	-1.626615	-0.709703	-0.048147	99
Es	-1.002457	-0.288495	-0.036820	99
Es	0.930839	1.138622	-0.394622	99
Es	-1.041156	-1.157970	0.109872	99
Es	0.138509	0.403624	-0.068435	99
Es	-1.295056	-0.692966	0.002779	99
Es	-0.607790	-1.902008	0.291161	99
Es	-0.128063	-2.054283	-0.246107	99
Es	-1.210158	1.515223	-0.397448	99
Es	1.340971	0.085469	0.113717	99
Es	-0.279099	2.805598	-0.538103	99
Es	-1.091758	-2.467068	0.346125	99
Es	-0.117723	2.385609	-0.458894	99
Es	-0.237606	-1.837650	0.929802	99
Es	0.986171	1.914987	-0.256548	99
Es	0.244023	2.255993	-0.385561	99
Es	-0.609700	2.055587	-0.442686	99
Es	-1.314110	-0.702853	0.012421	99
Es	-0.937754	1.127011	-0.017451	99
Es	-0.562623	0.382460	-0.125511	99
Es	-0.884627	1.011190	-0.553905	99
Es	1.554963	2.356975	-0.281295	99
Es	0.828148	0.572910	-0.024763	99
Es	-1.561299	1.615329	-0.450002	99
Es	-0.223640	2.486493	-0.479818	99
38
Properties=species:S:1:pos:R:3:Z:I:1 energy=-358.5966855983616 field_type=dipole dipole="0.000000 0.000000 0.000000" charge=0
C	-0.607677	-1.902232	0.291227	6
O	-1.333787	-0.718122	0.001917	8
C	-0.562457	0.382688	-0.125533	6
N	-1.210837	1.515338	-0.397533	7
O	-0.223767	2.486938	-0.480103	8
C	0.986364	1.914808	-0.256503	6
C	0.828173	0.572948	-0.024753	6
H	-1.324027	-2.725472	0.372927	1
H	-0.081537	-1.820892	1.248787	1
H	0.091123	-2.146322	-0.516523	1
H	1.832623	2.584528	-0.297213	1
H	1.605803	-0.144212	0.183307	1
Es	-1.560964	1.615175	-0.450209	99
Es	-0.885038	1.028134	-0.558015	99
Es	-0.118455	2.387176	-0.450527	99
Es	-1.092067	-2.466448	0.349891	99
Es	0.828145	0.572914	-0.024733	99
Es	-0.122012	-2.054613	-0.247349	99
Es	-0.243350	-1.838009	0.927021	99
Es	-1.333249	-0.718126	0.001724	99
Es	1.555157	2.356566	-0.283549	99
Es	0.844401	1.043225	-0.389318	99
Es	-0.607797	-1.902013	0.291174	99
Es	1.340786	0.085971	0.116294	99
Es	-0.610652	2.057287	-0.434070	99
Es	-0.562625	0.382464	-0.125498	99
Es	0.137008	0.406357	-0.053369	99
Es	0.986172	1.914986	-0.256558	99
Es	-0.937267	1.109942	-0.015025	99
Es	-1.273410	-0.682343	-0.011740	99
Es	-0.223651	2.486507	-0.479973	99
Es	-1.629496	-0.702614	-0.010004	99
Es	-1.041850	-1.157591	0.113706	99
Es	0.244827	2.254412	-0.394282	99
Es	0.881627	1.237614	0.130458	99
Es	-0.278114	2.803999	-0.547190	99
Es	-1.001377	-0.291132	-0.052613	99
Es	-1.210174	1.515216	-0.397450	99
38
Properties=species:S:1:pos:R:3:Z:I:1 energy=-358.5966855983616 field_type=dipole dipole="0.000000 0.000000 0.000000" charge=0
C	-0.607677	-1.902232	0.291227	6
O	-1.333787	-0.718122	0.001917	8
C	-0.562457	0.382688	-0.125533	6
N	-1.210837	1.515338	-0.397533	7
O	-0.223767	2.486938	-0.480103	8
C	0.986364	1.914808	-0.256503	6
C	0.828173	0.572948	-0.024753	6
H	-1.324027	-2.725472	0.372927	1
H	-0.081537	-1.820892	1.248787	1
H	0.091123	-2.146322	-0.516523	1
H	1.832623	2.584528	-0.297213	1
H	1.605803	-0.144212	0.183307	1
Es	-1.002910	-0.288171	-0.036137	99
Es	-1.041486	-1.158299	0.109898	99
Es	0.788692	1.136568	0.141469	99
Es	-0.237256	-1.837684	0.929900	99
Es	-1.333013	-0.717655	0.002978	99
Es	-0.223641	2.486487	-0.480060	99
Es	-0.884602	1.011630	-0.554629	99
Es	0.935706	1.146492	-0.386184	99
Es	-0.937918	1.126907	-0.016841	99
Es	-0.607798	-1.902004	0.291172	99
Es	-1.210168	1.515219	-0.397431	99
Es	-0.117675	2.386680	-0.454292	99
Es	-0.278887	2.805860	-0.537823	99
Es	0.986172	1.914987	-0.256553	99
Es	1.554881	2.357081	-0.281086	99
Es	-0.128521	-2.054207	-0.245853	99
Es	-1.624803	-0.710548	-0.053762	99
Es	-1.277001	-0.677344	0.017059	99
Es	1.340922	0.085355	0.113494	99
Es	-0.562623	0.382461	-0.125511	99
Es	0.244161	2.254991	-0.390115	99
Es	-0.609757	2.055714	-0.442758	99
Es	-1.560811	1.615200	-0.449917	99
Es	-1.091702	-2.467149	0.345781	99
Es	0.828148	0.572909	-0.024766	99
Es	0.138464	0.403575	-0.069236	99
38
Properties=species:S:1:pos:R:3:Z:I:1 energy=-358.5966855983616 field_type=dipole dipole="0.000000 0.000000 0.000000" charge=0
C	-0.607677	-1.902232	0.291227	6
O	-1.333787	-0.718122	0.001917	8
C	-0.562457	0.382688	-0.125533	6
N	-1.210837	1.515338	-0.397533	7
O	-0.223767	2.486938	-0.480103	8
C	0.986364	1.914808	-0.256503	6
C	0.828173	0.572948	-0.024753	6
H	-1.324027	-2.725472	0.372927	1
H	-0.081537	-1.820892	1.248787	1
H	0.091123	-2.146322	-0.516523	1
H	1.832623	2.584528	-0.297213	1
H	1.605803	-0.144212	0.183307	1
Es	0.138448	0.403539	-0.069504	99
Es	-1.210228	1.515190	-0.397446	99
Es	-0.607798	-1.902010	0.291174	99
Es	-0.223649	2.486491	-0.479975	99
Es	-0.237294	-1.837671	0.929586	99
Es	0.986171	1.914986	-0.256558	99
Es	-1.560719	1.615105	-0.450240	99
Es	1.340925	0.085341	0.113540	99
Es	-1.002943	-0.288096	-0.036269	99
Es	0.787697	1.135127	0.139903	99
Es	-0.278900	2.805942	-0.537354	99
Es	0.936442	1.147971	-0.384493	99
Es	-0.117060	2.385994	-0.458371	99
Es	-1.276479	-0.678168	0.013169	99
Es	0.243572	2.255828	-0.385450	99
Es	-0.937923	1.127221	-0.016883	99
Es	-0.884497	1.011348	-0.554238	99
Es	-0.128671	-2.054058	-0.245580	99
Es	-0.562624	0.382462	-0.125511	99
Es	1.554910	2.357068	-0.281090	99
Es	-1.091545	-2.467362	0.345768	99
Es	-1.625088	-0.709556	-0.048883	99
Es	-1.332791	-0.717484	0.003085	99
Es	0.828148	0.572910	-0.024762	99
Es	-1.041887	-1.158665	0.108985	99
Es	-0.609644	2.055603	-0.443810	99
38
Properties=species:S:1:pos:R:3:Z:I:1 energy=-358.5966855983616 field_type=dipole dipole="0.000000 0.000000 0.000000" charge=0
C	-0.607677	-1.902232	0.291227	6
O	-1.333787	-0.718122	0.001917	8
C	-0.562457	0.382688	-0.125533	6
N	-1.210837	1.515338	-0.397533	7
O	-0.223767	2.486938	-0.480103	8
C	0.986364	1.914808	-0.256503	6
C	0.828173	0.572948	-0.024753	6
H	-1.324027	-2.725472	0.372927	1
H	-0.081537	-1.820892	1.248787	1
H	0.091123	-2.146322	-0.516523	1
H	1.832623	2.584528	-0.297213	1
H	1.605803	-0.144212	0.183307	1
Es	-0.237078	-1.837687	0.929890	99
Es	1.340793	0.085310	0.113626	99
Es	-0.562623	0.382460	-0.125507	99
Es	0.243386	2.255884	-0.386408	99
Es	0.939142	1.152503	-0.379226	99
Es	-1.091627	-2.467230	0.345611	99
Es	-0.279041	2.806266	-0.535651	99
Es	-0.607797	-1.902005	0.291170	99
Es	-0.884763	1.010358	-0.554366	99
Es	-1.560297	1.615265	-0.450082	99
Es	0.138614	0.403450	-0.069955	99
Es	-1.042233	-1.158817	0.109294	99
Es	-0.128767	-2.054140	-0.245695	99
Es	0.986172	1.914987	-0.256553	99
Es	0.784823	1.130360	0.134910	99
Es	-0.938095	1.128314	-0.016748	99
Es	-0.116721	2.385890	-0.459704	99
Es	-0.223652	2.486505	-0.479959	99
Es	-1.002924	-0.288080	-0.036114	99
Es	1.554887	2.357077	-0.281023	99
Es	-1.276575	-0.677106	0.017098	99
Es	0.828148	0.572910	-0.024759	99
Es	-1.333386	-0.717986	0.002431	99
Es	-1.210176	1.515198	-0.397447	99
Es	-0.609534	2.055387	-0.443415	99
Es	-1.624101	-0.710014	-0.052622	99
