46
Properties=species:S:1:pos:R:3:Z:I:1 energy=-325.0981524929998 field_type=dipole dipole="0.000000 0.000000 0.000000" charge=0
C	-1.111041	-2.325208	-1.141275	6
O	-0.849181	-1.737898	0.125065	8
C	0.019919	-0.580578	0.110785	6
C	-0.575351	0.755312	-0.391695	6
N	0.005679	1.458202	0.772255	7
C	1.297199	2.052162	0.426715	6
C	0.196029	0.158632	1.456145	6
H	-1.760471	-3.191748	-0.995045	1
H	-0.176541	-2.655738	-1.602785	1
H	-1.617611	-1.608428	-1.793005	1
H	0.984509	-0.825848	-0.355015	1
H	-1.671701	0.775672	-0.397765	1
H	-0.229681	1.079872	-1.379255	1
H	1.793629	2.415431	1.333505	1
H	1.144489	2.918772	-0.225815	1
H	1.982739	1.363512	-0.081065	1
H	1.160709	0.006602	1.952435	1
H	-0.593321	-0.058718	2.185815	1
Es	-0.343842	0.010947	1.944030	99
Es	-0.575278	0.755350	-0.391599	99
Es	-0.849074	-1.737766	0.124765	99
Es	1.297096	2.052105	0.426739	99
Es	-1.320915	0.762001	-0.390753	99
Es	1.767046	1.566620	0.074187	99
Es	1.638370	2.293050	1.046957	99
Es	-1.110994	-2.325107	-1.141079	99
Es	0.127029	-0.299063	0.822827	99
Es	-1.552130	-2.913395	-1.042520	99
Es	-0.242988	1.194709	0.230154	99
Es	1.192262	2.639073	-0.024856	99
Es	0.019767	-0.580735	0.110796	99
Es	0.196024	0.158714	1.456044	99
Es	-0.306466	0.046200	-0.228828	99
Es	-0.922575	-1.931024	-0.376473	99
Es	-1.119556	-1.630153	0.223060	99
Es	-1.455304	-1.831022	-1.596426	99
Es	-0.330645	0.986584	-1.067594	99
Es	-0.205822	1.698821	0.937990	99
Es	-0.518167	-1.308388	0.073381	99
Es	0.006080	1.457757	0.771946	99
Es	-0.695069	-1.950616	0.283823	99
Es	-0.466637	-2.548903	-1.466231	99
Es	0.683207	-0.746069	-0.215931	99
Es	0.582642	1.684511	0.604871	99
Es	0.863531	0.063895	1.791820	99
Es	0.123237	0.911874	1.106588	99
46
Properties=species:S:1:pos:R:3:Z:I:1 energy=-325.0981524929998 field_type=dipole dipole="0.000000 0.000000 0.000000" charge=0
C	-1.111041	-2.325208	-1.141275	6
O	-0.849181	-1.737898	0.125065	8
C	0.019919	-0.580578	0.110785	6
C	-0.575351	0.755312	-0.391695	6
N	0.005679	1.458202	0.772255	7
C	1.297199	2.052162	0.426715	6
C	0.196029	0.158632	1.456145	6
H	-1.760471	-3.191748	-0.995045	1
H	-0.176541	-2.655738	-1.602785	1
H	-1.617611	-1.608428	-1.793005	1
H	0.984509	-0.825848	-0.355015	1
H	-1.671701	0.775672	-0.397765	1
H	-0.229681	1.079872	-1.379255	1
H	1.793629	2.415431	1.333505	1
H	1.144489	2.918772	-0.225815	1
H	1.982739	1.363512	-0.081065	1
H	1.160709	0.006602	1.952435	1
H	-0.593321	-0.058718	2.185815	1
Es	0.863701	0.064036	1.792078	99
Es	-1.320981	0.761654	-0.390647	99
Es	-1.552372	-2.913804	-1.042678	99
Es	-0.306492	0.046673	-0.228912	99
Es	-1.454948	-1.831029	-1.596346	99
Es	0.127322	-0.298971	0.823009	99
Es	1.766309	1.567121	0.074227	99
Es	-0.849062	-1.737796	0.124855	99
Es	0.583047	1.686491	0.605327	99
Es	-0.343965	0.011063	1.943853	99
Es	-0.203579	1.695850	0.936328	99
Es	1.297097	2.052106	0.426739	99
Es	-0.923281	-1.931630	-0.376674	99
Es	-0.701505	-1.952129	0.288524	99
Es	-0.244691	1.195112	0.230041	99
Es	1.192518	2.638689	-0.025108	99
Es	-1.110995	-2.325108	-1.141079	99
Es	-0.466916	-2.548537	-1.466192	99
Es	-0.575279	0.755351	-0.391600	99
Es	0.006084	1.457758	0.771940	99
Es	0.122150	0.912115	1.107897	99
Es	-0.330492	0.986312	-1.067936	99
Es	0.682821	-0.745983	-0.215971	99
Es	1.639122	2.293051	1.047357	99
Es	-1.116036	-1.626521	0.217249	99
Es	-0.514543	-1.309892	0.074561	99
Es	0.196025	0.158721	1.456046	99
Es	0.019771	-0.580729	0.110795	99
46
Properties=species:S:1:pos:R:3:Z:I:1 energy=-325.0981524929998 field_type=dipole dipole="0.000000 0.000000 0.000000" charge=0
C	-1.111041	-2.325208	-1.141275	6
O	-0.849181	-1.737898	0.125065	8
C	0.019919	-0.580578	0.110785	6
C	-0.575351	0.755312	-0.391695	6
N	0.005679	1.458202	0.772255	7
C	1.297199	2.052162	0.426715	6
C	0.196029	0.158632	1.456145	6
H	-1.760471	-3.191748	-0.995045	1
H	-0.176541	-2.655738	-1.602785	1
H	-1.617611	-1.608428	-1.793005	1
H	0.984509	-0.825848	-0.355015	1
H	-1.671701	0.775672	-0.397765	1
H	-0.229681	1.079872	-1.379255	1
H	1.793629	2.415431	1.333505	1
H	1.144489	2.918772	-0.225815	1
H	1.982739	1.363512	-0.081065	1
H	1.160709	0.006602	1.952435	1
H	-0.593321	-0.058718	2.185815	1
Es	-0.344090	0.011188	1.943608	99
Es	1.765874	1.567467	0.074351	99
Es	-0.698691	-1.951725	0.284056	99
Es	0.019767	-0.580736	0.110799	99
Es	-1.552506	-2.914078	-1.042779	99
Es	-0.467058	-2.548243	-1.466234	99
Es	0.583291	1.687766	0.605792	99
Es	-1.110992	-2.325108	-1.141082	99
Es	-0.926286	-1.930124	-0.377220	99
Es	-0.246301	1.195584	0.229757	99
Es	0.121342	0.912293	1.109098	99
Es	-0.849075	-1.737715	0.124716	99
Es	1.192619	2.638415	-0.025359	99
Es	0.006088	1.457750	0.771937	99
Es	-0.515212	-1.308836	0.074618	99
Es	-1.115126	-1.629597	0.222317	99
Es	0.682578	-0.745948	-0.215930	99
Es	0.196027	0.158725	1.456042	99
Es	0.863863	0.063998	1.792341	99
Es	-0.201389	1.693579	0.934960	99
Es	1.639562	2.293114	1.047595	99
Es	-1.321083	0.761430	-0.390545	99
Es	1.297094	2.052103	0.426739	99
Es	-0.306393	0.046934	-0.229059	99
Es	-1.454769	-1.831060	-1.596220	99
Es	-0.575280	0.755351	-0.391601	99
Es	-0.330374	0.986189	-1.068138	99
Es	0.127352	-0.298744	0.823126	99
46
Properties=species:S:1:pos:R:3:Z:I:1 energy=-325.0981524929998 field_type=dipole dipole="0.000000 0.000000 0.000000" charge=0
C	-1.111041	-2.325208	-1.141275	6
O	-0.849181	-1.737898	0.125065	8
C	0.019919	-0.580578	0.110785	6
C	-0.575351	0.755312	-0.391695	6
N	0.005679	1.458202	0.772255	7
C	1.297199	2.052162	0.426715	6
C	0.196029	0.158632	1.456145	6
H	-1.760471	-3.191748	-0.995045	1
H	-0.176541	-2.655738	-1.602785	1
H	-1.617611	-1.608428	-1.793005	1
H	0.984509	-0.825848	-0.355015	1
H	-1.671701	0.775672	-0.397765	1
H	-0.229681	1.079872	-1.379255	1
H	1.793629	2.415431	1.333505	1
H	1.144489	2.918772	-0.225815	1
H	1.982739	1.363512	-0.081065	1
H	1.160709	0.006602	1.952435	1
H	-0.593321	-0.058718	2.185815	1
Es	-0.926078	-1.930447	-0.377485	99
Es	1.192765	2.638253	-0.025560	99
Es	-0.246760	1.195540	0.229728	99
Es	-0.575278	0.755350	-0.391600	99
Es	0.583447	1.688192	0.606010	99
Es	0.127480	-0.298748	0.823179	99
Es	-1.552673	-2.914233	-1.042854	99
Es	0.682405	-0.745924	-0.215991	99
Es	-0.467205	-2.548155	-1.466117	99
Es	1.297099	2.052107	0.426736	99
Es	-1.110995	-2.325108	-1.141081	99
Es	1.639876	2.293095	1.047759	99
Es	0.120780	0.912525	1.109684	99
Es	0.863991	0.064030	1.792299	99
Es	-0.344141	0.011267	1.943669	99
Es	-1.113895	-1.629147	0.220112	99
Es	-1.321215	0.761231	-0.390560	99
Es	-0.701018	-1.951916	0.285577	99
Es	1.765532	1.567776	0.074510	99
Es	-1.454513	-1.831003	-1.596258	99
Es	0.006067	1.457767	0.771948	99
Es	-0.849009	-1.737764	0.124715	99
Es	-0.306438	0.047329	-0.229057	99
Es	0.019768	-0.580735	0.110798	99
Es	0.196027	0.158725	1.456044	99
Es	-0.330212	0.986062	-1.068222	99
Es	-0.200552	1.692630	0.934131	99
Es	-0.514424	-1.308729	0.075569	99
46
Properties=species:S:1:pos:R:3:Z:I:1 energy=-325.0981524929998 field_type=dipole dipole="0.000000 0.000000 0.000000" charge=0
C	-1.111041	-2.325208	-1.141275	6
O	-0.849181	-1.737898	0.125065	8
C	0.019919	-0.580578	0.110785	6
C	-0.575351	0.755312	-0.391695	6
N	0.005679	1.458202	0.772255	7
C	1.297199	2.052162	0.426715	6
C	0.196029	0.158632	1.456145	6
H	-1.760471	-3.191748	-0.995045	1
H	-0.176541	-2.655738	-1.602785	1
H	-1.617611	-1.608428	-1.793005	1
H	0.984509	-0.825848	-0.355015	1
H	-1.671701	0.775672	-0.397765	1
H	-0.229681	1.079872	-1.379255	1
H	1.793629	2.415431	1.333505	1
H	1.144489	2.918772	-0.225815	1
H	1.982739	1.363512	-0.081065	1
H	1.160709	0.006602	1.952435	1
H	-0.593321	-0.058718	2.185815	1
Es	-0.699621	-1.951779	0.282999	99
Es	0.127608	-0.298645	0.823378	99
Es	-0.849056	-1.737767	0.124770	99
Es	-1.113811	-1.629717	0.223018	99
Es	-1.552772	-2.914344	-1.042931	99
Es	-0.513991	-1.309046	0.075080	99
Es	-0.927990	-1.929629	-0.377427	99
Es	-1.321208	0.761099	-0.390498	99
Es	1.192835	2.638096	-0.025822	99
Es	1.765172	1.567936	0.074656	99
Es	-0.344193	0.011203	1.943639	99
Es	0.120555	0.912504	1.109721	99
Es	0.864065	0.064052	1.792308	99
Es	0.019768	-0.580732	0.110795	99
Es	-0.198905	1.691364	0.934082	99
Es	1.640210	2.293107	1.047861	99
Es	0.583552	1.688689	0.606154	99
Es	0.006099	1.457727	0.771921	99
Es	-0.467292	-2.548083	-1.466017	99
Es	-1.110995	-2.325105	-1.141078	99
Es	0.682245	-0.745917	-0.216046	99
Es	1.297095	2.052101	0.426742	99
Es	-0.248370	1.196330	0.229674	99
Es	0.196027	0.158725	1.456045	99
Es	-1.454325	-1.830999	-1.596304	99
Es	-0.330223	0.986034	-1.068317	99
Es	-0.575278	0.755351	-0.391598	99
Es	-0.306369	0.047414	-0.229119	99
46
Properties=species:S:1:pos:R:3:Z:I:1 energy=-325.0981524929998 field_type=dipole dipole="0.000000 0.000000 0.000000" charge=0
C	-1.111041	-2.325208	-1.141275	6
O	-0.849181	-1.737898	0.125065	8
C	0.019919	-0.580578	0.110785	6
C	-0.575351	0.755312	-0.391695	6
N	0.005679	1.458202	0.772255	7
C	1.297199	2.052162	0.426715	6
C	0.196029	0.158632	1.456145	6
H	-1.760471	-3.191748	-0.995045	1
H	-0.176541	-2.655738	-1.602785	1
H	-1.617611	-1.608428	-1.793005	1
H	0.984509	-0.825848	-0.355015	1
H	-1.671701	0.775672	-0.397765	1
H	-0.229681	1.079872	-1.379255	1
H	1.793629	2.415431	1.333505	1
H	1.144489	2.918772	-0.225815	1
H	1.982739	1.363512	-0.081065	1
H	1.160709	0.006602	1.952435	1
H	-0.593321	-0.058718	2.185815	1
Es	-1.454319	-1.831036	-1.596175	99
Es	-0.344284	0.011347	1.943600	99
Es	-0.248265	1.196161	0.229719	99
Es	1.297095	2.052104	0.426738	99
Es	-0.330103	0.985945	-1.068415	99
Es	0.006077	1.457760	0.771941	99
Es	-0.306311	0.047769	-0.229206	99
Es	-0.514254	-1.308752	0.075272	99
Es	0.196025	0.158724	1.456045	99
Es	0.127541	-0.298537	0.823408	99
Es	-1.110994	-2.325107	-1.141079	99
Es	-0.467345	-2.547866	-1.466112	99
Es	1.192882	2.638078	-0.025806	99
Es	-0.928638	-1.929362	-0.377707	99
Es	-1.552790	-2.914514	-1.042963	99
Es	-0.198672	1.690679	0.933277	99
Es	1.640368	2.293008	1.047983	99
Es	0.864221	0.064032	1.792363	99
Es	-0.848828	-1.737872	0.124728	99
Es	0.583566	1.689195	0.606268	99
Es	1.765009	1.568167	0.074642	99
Es	-1.321362	0.760843	-0.390446	99
Es	0.019767	-0.580733	0.110796	99
Es	0.120285	0.912471	1.110304	99
Es	-1.113273	-1.630407	0.223761	99
Es	0.682156	-0.745921	-0.216036	99
Es	-0.575280	0.755350	-0.391599	99
Es	-0.699444	-1.951555	0.282385	99
46
Properties=species:S:1:pos:R:3:Z:I:1 energy=-325.0981524929998 field_type=dipole dipole="0.000000 0.000000 0.000000" charge=0
C	-1.111041	-2.325208	-1.141275	6
O	-0.849181	-1.737898	0.125065	8
C	0.019919	-0.580578	0.110785	6
C	-0.575351	0.755312	-0.391695	6
N	0.005679	1.458202	0.772255	7
C	1.297199	2.052162	0.426715	6
C	0.196029	0.158632	1.456145	6
H	-1.760471	-3.191748	-0.995045	1
H	-0.176541	-2.655738	-1.602785	1
H	-1.617611	-1.608428	-1.793005	1
H	0.984509	-0.825848	-0.355015	1
H	-1.671701	0.775672	-0.397765	1
H	-0.229681	1.079872	-1.379255	1
H	1.793629	2.415431	1.333505	1
H	1.144489	2.918772	-0.225815	1
H	1.982739	1.363512	-0.081065	1
H	1.160709	0.006602	1.952435	1
H	-0.593321	-0.058718	2.185815	1
Es	-1.321444	0.760826	-0.390454	99
Es	-0.344337	0.011310	1.943617	99
Es	-0.702635	-1.952191	0.285556	99
Es	-0.512730	-1.309540	0.075789	99
Es	0.127686	-0.298531	0.823436	99
Es	0.583712	1.689445	0.606366	99
Es	-0.248733	1.196196	0.229706	99
Es	0.119782	0.912683	1.110834	99
Es	-1.552794	-2.914448	-1.042950	99
Es	1.192914	2.637832	-0.025938	99
Es	0.006081	1.457760	0.771950	99
Es	-1.454339	-1.831079	-1.596171	99
Es	-1.110995	-2.325106	-1.141079	99
Es	-0.329958	0.985795	-1.068475	99
Es	1.297097	2.052103	0.426738	99
Es	-0.927356	-1.930224	-0.377482	99
Es	-1.112641	-1.628254	0.219833	99
Es	0.682108	-0.745901	-0.216136	99
Es	1.640443	2.293215	1.048050	99
Es	-0.197865	1.690030	0.932617	99
Es	0.019768	-0.580731	0.110795	99
Es	1.764949	1.568241	0.074755	99
Es	-0.467342	-2.547924	-1.466139	99
Es	0.864268	0.064114	1.792355	99
Es	-0.306460	0.047966	-0.229087	99
Es	-0.849095	-1.737692	0.124752	99
Es	0.196026	0.158724	1.456045	99
Es	-0.575278	0.755350	-0.391599	99
46
Properties=species:S:1:pos:R:3:Z:I:1 energy=-325.0981524929998 field_type=dipole dipole="0.000000 0.000000 0.000000" charge=0
C	-1.111041	-2.325208	-1.141275	6
O	-0.849181	-1.737898	0.125065	8
C	0.019919	-0.580578	0.110785	6
C	-0.575351	0.755312	-0.391695	6
N	0.005679	1.458202	0.772255	7
C	1.297199	2.052162	0.426715	6
C	0.196029	0.158632	1.456145	6
H	-1.760471	-3.191748	-0.995045	1
H	-0.176541	-2.655738	-1.602785	1
H	-1.617611	-1.608428	-1.793005	1
H	0.984509	-0.825848	-0.355015	1
H	-1.671701	0.775672	-0.397765	1
H	-0.229681	1.079872	-1.379255	1
H	1.793629	2.415431	1.333505	1
H	1.144489	2.918772	-0.225815	1
H	1.982739	1.363512	-0.081065	1
H	1.160709	0.006602	1.952435	1
H	-0.593321	-0.058718	2.185815	1
Es	-0.512327	-1.310060	0.075348	99
Es	-1.321409	0.760752	-0.390352	99
Es	-1.111094	-1.628775	0.222983	99
Es	-0.330016	0.985926	-1.068551	99
Es	1.192946	2.637852	-0.025961	99
Es	-0.849032	-1.737777	0.124754	99
Es	0.019766	-0.580726	0.110790	99
Es	-0.197592	1.689558	0.932634	99
Es	0.006086	1.457743	0.771935	99
Es	-0.306399	0.047928	-0.229096	99
Es	0.127838	-0.298435	0.823449	99
Es	-0.344445	0.011280	1.943516	99
Es	1.764872	1.568287	0.074772	99
Es	-0.930654	-1.929324	-0.377909	99
Es	0.119834	0.912679	1.110753	99
Es	-1.454301	-1.831107	-1.596126	99
Es	-1.110995	-2.325107	-1.141080	99
Es	0.583726	1.689756	0.606482	99
Es	0.682021	-0.745844	-0.216205	99
Es	-1.552843	-2.914474	-1.042972	99
Es	-0.467340	-2.547878	-1.466164	99
Es	-0.249105	1.196286	0.229722	99
Es	0.196025	0.158724	1.456045	99
Es	-0.701330	-1.951994	0.283292	99
Es	1.297097	2.052105	0.426739	99
Es	-0.575279	0.755350	-0.391598	99
Es	0.864257	0.064083	1.792457	99
Es	1.640524	2.293162	1.048027	99
46
Properties=species:S:1:pos:R:3:Z:I:1 energy=-325.0981524929998 field_type=dipole dipole="0.000000 0.000000 0.000000" charge=0
C	-1.111041	-2.325208	-1.141275	6
O	-0.849181	-1.737898	0.125065	8
C	0.019919	-0.580578	0.110785	6
C	-0.575351	0.755312	-0.391695	6
N	0.005679	1.458202	0.772255	7
C	1.297199	2.052162	0.426715	6
C	0.196029	0.158632	1.456145	6
H	-1.760471	-3.191748	-0.995045	1
H	-0.176541	-2.655738	-1.602785	1
H	-1.617611	-1.608428	-1.793005	1
H	0.984509	-0.825848	-0.355015	1
H	-1.671701	0.775672	-0.397765	1
H	-0.229681	1.079872	-1.379255	1
H	1.793629	2.415431	1.333505	1
H	1.144489	2.918772	-0.225815	1
H	1.982739	1.363512	-0.081065	1
H	1.160709	0.006602	1.952435	1
H	-0.593321	-0.058718	2.185815	1
Es	-0.575279	0.755350	-0.391600	99
Es	-0.249539	1.196408	0.229782	99
Es	-0.467304	-2.547885	-1.466231	99
Es	1.192931	2.637692	-0.026023	99
Es	0.196026	0.158726	1.456046	99
Es	-0.196862	1.688738	0.931966	99
Es	0.006088	1.457751	0.771934	99
Es	0.127722	-0.298509	0.823447	99
Es	1.640713	2.293231	1.048129	99
Es	1.764688	1.568363	0.074754	99
Es	-1.321434	0.760750	-0.390421	99
Es	-0.329923	0.985900	-1.068532	99
Es	0.583816	1.690295	0.606640	99
Es	0.019768	-0.580731	0.110796	99
Es	-0.344392	0.011341	1.943644	99
Es	0.682039	-0.745848	-0.216181	99
Es	-1.552866	-2.914424	-1.042998	99
Es	-1.454317	-1.831118	-1.596050	99
Es	0.864309	0.064114	1.792340	99
Es	1.297098	2.052106	0.426741	99
Es	-1.110995	-2.325107	-1.141080	99
Es	-0.701986	-1.952230	0.283954	99
Es	-0.512305	-1.309934	0.075720	99
Es	-1.111878	-1.628649	0.221848	99
Es	-0.849066	-1.737749	0.124716	99
Es	-0.306474	0.048031	-0.229109	99
Es	0.119467	0.912737	1.111256	99
Es	-0.929213	-1.929378	-0.377801	99
46
Properties=species:S:1:pos:R:3:Z:I:1 energy=-325.0981524929998 field_type=dipole dipole="0.000000 0.000000 0.000000" charge=0
C	-1.111041	-2.325208	-1.141275	6
O	-0.849181	-1.737898	0.125065	8
C	0.019919	-0.580578	0.110785	6
C	-0.575351	0.755312	-0.391695	6
N	0.005679	1.458202	0.772255	7
C	1.297199	2.052162	0.426715	6
C	0.196029	0.158632	1.456145	6
H	-1.760471	-3.191748	-0.995045	1
H	-0.176541	-2.655738	-1.602785	1
H	-1.617611	-1.608428	-1.793005	1
H	0.984509	-0.825848	-0.355015	1
H	-1.671701	0.775672	-0.397765	1
H	-0.229681	1.079872	-1.379255	1
H	1.793629	2.415431	1.333505	1
H	1.144489	2.918772	-0.225815	1
H	1.982739	1.363512	-0.081065	1
H	1.160709	0.006602	1.952435	1
H	-0.593321	-0.058718	2.185815	1
Es	-1.454228	-1.831081	-1.596102	99
Es	0.196026	0.158724	1.456044	99
Es	0.127802	-0.298298	0.823461	99
Es	0.681980	-0.745846	-0.216191	99
Es	0.119249	0.912772	1.111358	99
Es	-0.306435	0.048278	-0.229066	99
Es	-0.929446	-1.929931	-0.377800	99
Es	-0.196799	1.688641	0.931828	99
Es	0.583850	1.690258	0.606784	99
Es	-1.552868	-2.914526	-1.043064	99
Es	-0.249501	1.196341	0.229649	99
Es	1.764554	1.568491	0.074865	99
Es	0.006096	1.457742	0.771928	99
Es	-0.344530	0.011306	1.943490	99
Es	-1.321573	0.760612	-0.390367	99
Es	1.640824	2.293172	1.048143	99
Es	-0.513054	-1.309566	0.075351	99
Es	-0.849032	-1.737764	0.124747	99
Es	-0.329800	0.985761	-1.068620	99
Es	-0.467445	-2.547816	-1.466159	99
Es	0.019768	-0.580730	0.110796	99
Es	0.864460	0.064099	1.792456	99
Es	-1.110995	-2.325108	-1.141081	99
Es	-0.701318	-1.951715	0.284056	99
Es	-1.111593	-1.628982	0.222162	99
Es	1.193020	2.637682	-0.026124	99
Es	-0.575279	0.755352	-0.391598	99
Es	1.297096	2.052105	0.426739	99
46
Properties=species:S:1:pos:R:3:Z:I:1 energy=-325.0981524929998 field_type=dipole dipole="0.000000 0.000000 0.000000" charge=0
C	-1.111041	-2.325208	-1.141275	6
O	-0.849181	-1.737898	0.125065	8
C	0.019919	-0.580578	0.110785	6
C	-0.575351	0.755312	-0.391695	6
N	0.005679	1.458202	0.772255	7
C	1.297199	2.052162	0.426715	6
C	0.196029	0.158632	1.456145	6
H	-1.760471	-3.191748	-0.995045	1
H	-0.176541	-2.655738	-1.602785	1
H	-1.617611	-1.608428	-1.793005	1
H	0.984509	-0.825848	-0.355015	1
H	-1.671701	0.775672	-0.397765	1
H	-0.229681	1.079872	-1.379255	1
H	1.793629	2.415431	1.333505	1
H	1.144489	2.918772	-0.225815	1
H	1.982739	1.363512	-0.081065	1
H	1.160709	0.006602	1.952435	1
H	-0.593321	-0.058718	2.185815	1
Es	-0.196338	1.688366	0.931759	99
Es	0.119264	0.912768	1.111338	99
Es	-0.705447	-1.952749	0.288257	99
Es	0.127731	-0.298367	0.823520	99
Es	-1.110214	-1.625894	0.217284	99
Es	-0.849099	-1.737842	0.124833	99
Es	-1.552982	-2.914483	-1.043028	99
Es	-0.511117	-1.310940	0.075889	99
Es	-1.110994	-2.325107	-1.141081	99
Es	0.196024	0.158724	1.456045	99
Es	-0.329833	0.985677	-1.068595	99
Es	1.640795	2.293284	1.048155	99
Es	-0.344525	0.011369	1.943704	99
Es	-0.306391	0.048379	-0.229063	99
Es	0.682044	-0.745826	-0.216233	99
Es	1.192985	2.637582	-0.026011	99
Es	-0.575279	0.755350	-0.391600	99
Es	-0.249904	1.196540	0.229778	99
Es	1.297096	2.052105	0.426739	99
Es	1.764643	1.568503	0.074771	99
Es	-1.321666	0.760491	-0.390347	99
Es	-1.454208	-1.831144	-1.595983	99
Es	-0.928577	-1.930497	-0.377831	99
Es	-0.467334	-2.547817	-1.466264	99
Es	0.583901	1.690277	0.606610	99
Es	0.864419	0.064183	1.792290	99
Es	0.019768	-0.580732	0.110797	99
Es	0.006067	1.457770	0.771953	99
