49
Properties=species:S:1:pos:R:3:Z:I:1 energy=-326.31925027177226 field_type=dipole dipole="0.000000 0.000000 0.000000" charge=0
C	-2.608536	-1.232334	1.047104	6
O	-1.413206	-0.462814	1.029834	8
C	-0.516676	-0.905904	0.011334	6
C	0.749114	-0.035774	0.026024	6
C	1.762884	-0.589944	-0.979396	6
C	0.393284	1.434356	-0.261376	6
N	1.566604	2.305616	-0.219236	7
H	-3.251526	-0.852264	1.845704	1
H	-2.384866	-2.284484	1.248994	1
H	-3.139766	-1.135424	0.095224	1
H	-1.011896	-0.843434	-0.965286	1
H	-0.251986	-1.952484	0.202674	1
H	1.188564	-0.088764	1.031644	1
H	1.378174	-0.529454	-2.002936	1
H	1.986475	-1.640284	-0.764206	1
H	2.708884	-0.041074	-0.938196	1
H	-0.332436	1.800086	0.474254	1
H	-0.072876	1.522296	-1.249366	1
H	1.982394	2.260056	0.712094	1
H	1.267394	3.272026	-0.344886	1
Es	-1.858512	-0.777006	1.010559	99
Es	-2.455583	-1.960336	1.179122	99
Es	-3.048037	-0.975030	1.590413	99
Es	1.798249	2.279826	0.355804	99
Es	1.054916	1.936507	-0.221472	99
Es	0.393425	1.434407	-0.261378	99
Es	1.253150	-0.313048	-0.483746	99
Es	1.566238	2.305749	-0.218864	99
Es	1.492158	-0.548657	-1.676870	99
Es	-2.973017	-1.172736	0.388023	99
Es	0.074087	1.490532	-0.944324	99
Es	-1.270589	-0.519303	1.295982	99
Es	-1.413265	-0.463076	1.029607	99
Es	1.368665	2.887878	-0.279665	99
Es	1.762849	-0.589948	-0.979376	99
Es	-1.498546	-0.180632	0.947620	99
Es	-0.858905	-0.863702	-0.667429	99
Es	-2.608351	-1.232219	1.047097	99
Es	-0.108630	1.679480	0.243540	99
Es	1.810321	2.220716	-0.464220	99
Es	1.050914	-0.071627	0.714819	99
Es	2.399576	-0.222503	-0.948645	99
Es	0.749089	-0.035786	0.025981	99
Es	0.574945	0.697879	-0.123445	99
Es	0.107659	-0.468646	0.017748	99
Es	-1.098651	-0.654989	0.634833	99
Es	1.908015	-1.311144	-0.828531	99
Es	-0.516806	-0.905817	0.011496	99
Es	-0.334082	-1.632996	0.139316	99
49
Properties=species:S:1:pos:R:3:Z:I:1 energy=-326.31925027177226 field_type=dipole dipole="0.000000 0.000000 0.000000" charge=0
C	-2.608536	-1.232334	1.047104	6
O	-1.413206	-0.462814	1.029834	8
C	-0.516676	-0.905904	0.011334	6
C	0.749114	-0.035774	0.026024	6
C	1.762884	-0.589944	-0.979396	6
C	0.393284	1.434356	-0.261376	6
N	1.566604	2.305616	-0.219236	7
H	-3.251526	-0.852264	1.845704	1
H	-2.384866	-2.284484	1.248994	1
H	-3.139766	-1.135424	0.095224	1
H	-1.011896	-0.843434	-0.965286	1
H	-0.251986	-1.952484	0.202674	1
H	1.188564	-0.088764	1.031644	1
H	1.378174	-0.529454	-2.002936	1
H	1.986475	-1.640284	-0.764206	1
H	2.708884	-0.041074	-0.938196	1
H	-0.332436	1.800086	0.474254	1
H	-0.072876	1.522296	-1.249366	1
H	1.982394	2.260056	0.712094	1
H	1.267394	3.272026	-0.344886	1
Es	-1.413193	-0.463306	1.029713	99
Es	1.762847	-0.589948	-0.979375	99
Es	-1.098415	-0.655278	0.635206	99
Es	1.253034	-0.313054	-0.483681	99
Es	1.055206	1.936268	-0.221960	99
Es	1.368632	2.887890	-0.279894	99
Es	0.749089	-0.035785	0.025981	99
Es	1.051048	-0.071722	0.715272	99
Es	-0.859045	-0.863729	-0.667709	99
Es	1.809964	2.220968	-0.463899	99
Es	-2.455518	-1.960192	1.179028	99
Es	1.566198	2.305775	-0.218793	99
Es	1.798382	2.279598	0.356233	99
Es	0.574847	0.698068	-0.123381	99
Es	1.908205	-1.310972	-0.828316	99
Es	-3.047901	-0.975204	1.590598	99
Es	-1.270269	-0.516171	1.299825	99
Es	0.393429	1.434408	-0.261379	99
Es	-0.108494	1.679510	0.243586	99
Es	-1.857871	-0.776541	1.009575	99
Es	0.073988	1.490391	-0.944731	99
Es	-2.608348	-1.232218	1.047097	99
Es	1.492068	-0.548707	-1.677270	99
Es	-2.973152	-1.172632	0.387810	99
Es	-1.499754	-0.183758	0.944455	99
Es	-0.516806	-0.905817	0.011496	99
Es	0.107735	-0.468564	0.017606	99
Es	2.399323	-0.222647	-0.948557	99
Es	-0.333947	-1.632856	0.139463	99
49
Properties=species:S:1:pos:R:3:Z:I:1 energy=-326.31925027177226 field_type=dipole dipole="0.000000 0.000000 0.000000" charge=0
C	-2.608536	-1.232334	1.047104	6
O	-1.413206	-0.462814	1.029834	8
C	-0.516676	-0.905904	0.011334	6
C	0.749114	-0.035774	0.026024	6
C	1.762884	-0.589944	-0.979396	6
C	0.393284	1.434356	-0.261376	6
N	1.566604	2.305616	-0.219236	7
H	-3.251526	-0.852264	1.845704	1
H	-2.384866	-2.284484	1.248994	1
H	-3.139766	-1.135424	0.095224	1
H	-1.011896	-0.843434	-0.965286	1
H	-0.251986	-1.952484	0.202674	1
H	1.188564	-0.088764	1.031644	1
H	1.378174	-0.529454	-2.002936	1
H	1.986475	-1.640284	-0.764206	1
H	2.708884	-0.041074	-0.938196	1
H	-0.332436	1.800086	0.474254	1
H	-0.072876	1.522296	-1.249366	1
H	1.982394	2.260056	0.712094	1
H	1.267394	3.272026	-0.344886	1
Es	0.749089	-0.035786	0.025982	99
Es	-1.269552	-0.518999	1.299564	99
Es	-1.099495	-0.654709	0.634290	99
Es	1.908215	-1.310831	-0.828198	99
Es	0.107802	-0.468564	0.017632	99
Es	-2.973254	-1.172674	0.387659	99
Es	1.055334	1.936296	-0.221878	99
Es	0.574678	0.697950	-0.123276	99
Es	1.492010	-0.548682	-1.677587	99
Es	0.393429	1.434407	-0.261377	99
Es	1.051145	-0.071709	0.715422	99
Es	1.798719	2.279422	0.356402	99
Es	2.399254	-0.222722	-0.948337	99
Es	1.762848	-0.589948	-0.979375	99
Es	-1.499180	-0.182446	0.946236	99
Es	-0.108436	1.679489	0.243414	99
Es	-0.859147	-0.863812	-0.667881	99
Es	-0.333897	-1.632735	0.139577	99
Es	-0.516806	-0.905817	0.011496	99
Es	-1.857961	-0.775773	1.009103	99
Es	1.566206	2.305770	-0.218817	99
Es	0.074011	1.490456	-0.944891	99
Es	1.368466	2.887793	-0.279792	99
Es	1.809654	2.221189	-0.464022	99
Es	-3.047778	-0.975221	1.590526	99
Es	-2.455497	-1.960126	1.179213	99
Es	-1.413282	-0.463124	1.029613	99
Es	-2.608352	-1.232220	1.047096	99
Es	1.253056	-0.313098	-0.483799	99
49
Properties=species:S:1:pos:R:3:Z:I:1 energy=-326.31925027177226 field_type=dipole dipole="0.000000 0.000000 0.000000" charge=0
C	-2.608536	-1.232334	1.047104	6
O	-1.413206	-0.462814	1.029834	8
C	-0.516676	-0.905904	0.011334	6
C	0.749114	-0.035774	0.026024	6
C	1.762884	-0.589944	-0.979396	6
C	0.393284	1.434356	-0.261376	6
N	1.566604	2.305616	-0.219236	7
H	-3.251526	-0.852264	1.845704	1
H	-2.384866	-2.284484	1.248994	1
H	-3.139766	-1.135424	0.095224	1
H	-1.011896	-0.843434	-0.965286	1
H	-0.251986	-1.952484	0.202674	1
H	1.188564	-0.088764	1.031644	1
H	1.378174	-0.529454	-2.002936	1
H	1.986475	-1.640284	-0.764206	1
H	2.708884	-0.041074	-0.938196	1
H	-0.332436	1.800086	0.474254	1
H	-0.072876	1.522296	-1.249366	1
H	1.982394	2.260056	0.712094	1
H	1.267394	3.272026	-0.344886	1
Es	-0.108389	1.679413	0.243575	99
Es	0.574771	0.698055	-0.123300	99
Es	-3.047792	-0.975228	1.590634	99
Es	-0.859107	-0.863735	-0.668049	99
Es	1.051135	-0.071785	0.715580	99
Es	-2.455446	-1.960034	1.179177	99
Es	1.055550	1.935636	-0.222740	99
Es	-1.499192	-0.183890	0.944004	99
Es	1.253072	-0.312980	-0.483760	99
Es	-0.333997	-1.632689	0.139605	99
Es	1.566222	2.305751	-0.218836	99
Es	0.107955	-0.468641	0.017689	99
Es	1.799127	2.279262	0.356666	99
Es	1.762848	-0.589949	-0.979376	99
Es	-1.413243	-0.463105	1.029638	99
Es	-1.098974	-0.655597	0.635347	99
Es	1.809103	2.222054	-0.463294	99
Es	0.073921	1.490415	-0.944994	99
Es	1.492013	-0.548721	-1.677748	99
Es	-1.858078	-0.775301	1.008383	99
Es	0.749088	-0.035785	0.025979	99
Es	1.908142	-1.310699	-0.828131	99
Es	2.399261	-0.222954	-0.948338	99
Es	0.393431	1.434408	-0.261382	99
Es	-0.516805	-0.905818	0.011493	99
Es	-2.608352	-1.232220	1.047096	99
Es	1.368267	2.887757	-0.279938	99
Es	-1.270009	-0.517138	1.301456	99
Es	-2.973241	-1.172708	0.387560	99
49
Properties=species:S:1:pos:R:3:Z:I:1 energy=-326.31925027177226 field_type=dipole dipole="0.000000 0.000000 0.000000" charge=0
C	-2.608536	-1.232334	1.047104	6
O	-1.413206	-0.462814	1.029834	8
C	-0.516676	-0.905904	0.011334	6
C	0.749114	-0.035774	0.026024	6
C	1.762884	-0.589944	-0.979396	6
C	0.393284	1.434356	-0.261376	6
N	1.566604	2.305616	-0.219236	7
H	-3.251526	-0.852264	1.845704	1
H	-2.384866	-2.284484	1.248994	1
H	-3.139766	-1.135424	0.095224	1
H	-1.011896	-0.843434	-0.965286	1
H	-0.251986	-1.952484	0.202674	1
H	1.188564	-0.088764	1.031644	1
H	1.378174	-0.529454	-2.002936	1
H	1.986475	-1.640284	-0.764206	1
H	2.708884	-0.041074	-0.938196	1
H	-0.332436	1.800086	0.474254	1
H	-0.072876	1.522296	-1.249366	1
H	1.982394	2.260056	0.712094	1
H	1.267394	3.272026	-0.344886	1
Es	-0.333868	-1.632656	0.139656	99
Es	1.491962	-0.548734	-1.677971	99
Es	-2.455381	-1.959939	1.179120	99
Es	1.809139	2.222624	-0.463117	99
Es	0.393430	1.434407	-0.261377	99
Es	-3.047776	-0.975283	1.590753	99
Es	-0.516806	-0.905817	0.011497	99
Es	1.762848	-0.589949	-0.979375	99
Es	-0.859155	-0.863735	-0.668149	99
Es	1.566242	2.305745	-0.218868	99
Es	0.574684	0.697842	-0.123465	99
Es	1.055590	1.935317	-0.223144	99
Es	-1.413260	-0.463089	1.029627	99
Es	1.368192	2.887599	-0.279651	99
Es	0.107907	-0.468539	0.017630	99
Es	2.399146	-0.223051	-0.948273	99
Es	-1.858798	-0.774261	1.007929	99
Es	0.749090	-0.035786	0.025982	99
Es	1.799122	2.279163	0.356747	99
Es	-1.099685	-0.655093	0.634333	99
Es	-1.270083	-0.521291	1.299551	99
Es	-1.497704	-0.181386	0.947419	99
Es	-2.973260	-1.172710	0.387463	99
Es	1.253129	-0.313011	-0.483671	99
Es	1.908237	-1.310567	-0.828076	99
Es	0.073825	1.490498	-0.945087	99
Es	-2.608352	-1.232221	1.047096	99
Es	-0.108267	1.679321	0.243547	99
Es	1.051133	-0.071625	0.715868	99
49
Properties=species:S:1:pos:R:3:Z:I:1 energy=-326.31925027177226 field_type=dipole dipole="0.000000 0.000000 0.000000" charge=0
C	-2.608536	-1.232334	1.047104	6
O	-1.413206	-0.462814	1.029834	8
C	-0.516676	-0.905904	0.011334	6
C	0.749114	-0.035774	0.026024	6
C	1.762884	-0.589944	-0.979396	6
C	0.393284	1.434356	-0.261376	6
N	1.566604	2.305616	-0.219236	7
H	-3.251526	-0.852264	1.845704	1
H	-2.384866	-2.284484	1.248994	1
H	-3.139766	-1.135424	0.095224	1
H	-1.011896	-0.843434	-0.965286	1
H	-0.251986	-1.952484	0.202674	1
H	1.188564	-0.088764	1.031644	1
H	1.378174	-0.529454	-2.002936	1
H	1.986475	-1.640284	-0.764206	1
H	2.708884	-0.041074	-0.938196	1
H	-0.332436	1.800086	0.474254	1
H	-0.072876	1.522296	-1.249366	1
H	1.982394	2.260056	0.712094	1
H	1.267394	3.272026	-0.344886	1
Es	-1.857841	-0.774353	1.006978	99
Es	1.491906	-0.548835	-1.678001	99
Es	-0.108290	1.679325	0.243634	99
Es	0.574741	0.697900	-0.123467	99
Es	-0.333927	-1.632541	0.139742	99
Es	1.051189	-0.071725	0.715889	99
Es	1.253034	-0.313089	-0.483731	99
Es	-1.270729	-0.519831	1.301637	99
Es	-1.098979	-0.655629	0.635473	99
Es	-1.413200	-0.462945	1.029705	99
Es	-2.455378	-1.959919	1.179124	99
Es	-1.498746	-0.182305	0.945095	99
Es	-2.973199	-1.172743	0.387427	99
Es	1.367924	2.887445	-0.279857	99
Es	1.798728	2.279540	0.356907	99
Es	-3.047830	-0.975241	1.590758	99
Es	1.762848	-0.589949	-0.979376	99
Es	-0.516805	-0.905818	0.011494	99
Es	1.908271	-1.310465	-0.828045	99
Es	-2.608353	-1.232221	1.047096	99
Es	1.809522	2.222951	-0.462678	99
Es	0.073838	1.490513	-0.945092	99
Es	0.749089	-0.035785	0.025981	99
Es	2.399171	-0.223005	-0.948288	99
Es	0.393429	1.434407	-0.261380	99
Es	1.566229	2.305768	-0.218829	99
Es	0.107969	-0.468521	0.017616	99
Es	-0.859209	-0.863849	-0.668232	99
Es	1.055879	1.934693	-0.223584	99
49
Properties=species:S:1:pos:R:3:Z:I:1 energy=-326.31925027177226 field_type=dipole dipole="0.000000 0.000000 0.000000" charge=0
C	-2.608536	-1.232334	1.047104	6
O	-1.413206	-0.462814	1.029834	8
C	-0.516676	-0.905904	0.011334	6
C	0.749114	-0.035774	0.026024	6
C	1.762884	-0.589944	-0.979396	6
C	0.393284	1.434356	-0.261376	6
N	1.566604	2.305616	-0.219236	7
H	-3.251526	-0.852264	1.845704	1
H	-2.384866	-2.284484	1.248994	1
H	-3.139766	-1.135424	0.095224	1
H	-1.011896	-0.843434	-0.965286	1
H	-0.251986	-1.952484	0.202674	1
H	1.188564	-0.088764	1.031644	1
H	1.378174	-0.529454	-2.002936	1
H	1.986475	-1.640284	-0.764206	1
H	2.708884	-0.041074	-0.938196	1
H	-0.332436	1.800086	0.474254	1
H	-0.072876	1.522296	-1.249366	1
H	1.982394	2.260056	0.712094	1
H	1.267394	3.272026	-0.344886	1
Es	1.253026	-0.312975	-0.483681	99
Es	-1.270989	-0.519086	1.303634	99
Es	1.056120	1.934540	-0.223803	99
Es	-2.973213	-1.172684	0.387455	99
Es	0.393429	1.434407	-0.261380	99
Es	2.399179	-0.223016	-0.948335	99
Es	0.574680	0.697885	-0.123431	99
Es	1.566170	2.305778	-0.218786	99
Es	-3.047803	-0.975239	1.590725	99
Es	1.799345	2.279004	0.356729	99
Es	-1.413259	-0.463072	1.029607	99
Es	-1.098941	-0.656290	0.635875	99
Es	-2.455383	-1.959982	1.179117	99
Es	0.073846	1.490530	-0.945064	99
Es	-0.859230	-0.863914	-0.668196	99
Es	1.908270	-1.310485	-0.828074	99
Es	-0.516807	-0.905816	0.011497	99
Es	-1.857458	-0.773465	1.006025	99
Es	-2.608354	-1.232222	1.047096	99
Es	1.491913	-0.548836	-1.677953	99
Es	-0.108286	1.679342	0.243607	99
Es	1.809271	2.223801	-0.463324	99
Es	1.051220	-0.071722	0.715825	99
Es	-1.498853	-0.183127	0.943753	99
Es	1.762848	-0.589949	-0.979376	99
Es	-0.333923	-1.632533	0.139754	99
Es	0.107977	-0.468589	0.017568	99
Es	1.367395	2.887277	-0.278850	99
Es	0.749089	-0.035786	0.025981	99
49
Properties=species:S:1:pos:R:3:Z:I:1 energy=-326.31925027177226 field_type=dipole dipole="0.000000 0.000000 0.000000" charge=0
C	-2.608536	-1.232334	1.047104	6
O	-1.413206	-0.462814	1.029834	8
C	-0.516676	-0.905904	0.011334	6
C	0.749114	-0.035774	0.026024	6
C	1.762884	-0.589944	-0.979396	6
C	0.393284	1.434356	-0.261376	6
N	1.566604	2.305616	-0.219236	7
H	-3.251526	-0.852264	1.845704	1
H	-2.384866	-2.284484	1.248994	1
H	-3.139766	-1.135424	0.095224	1
H	-1.011896	-0.843434	-0.965286	1
H	-0.251986	-1.952484	0.202674	1
H	1.188564	-0.088764	1.031644	1
H	1.378174	-0.529454	-2.002936	1
H	1.986475	-1.640284	-0.764206	1
H	2.708884	-0.041074	-0.938196	1
H	-0.332436	1.800086	0.474254	1
H	-0.072876	1.522296	-1.249366	1
H	1.982394	2.260056	0.712094	1
H	1.267394	3.272026	-0.344886	1
Es	-0.108322	1.679350	0.243664	99
Es	0.574698	0.697927	-0.123429	99
Es	1.051188	-0.071773	0.715901	99
Es	1.762847	-0.589949	-0.979376	99
Es	1.367460	2.887426	-0.279261	99
Es	0.073885	1.490521	-0.945119	99
Es	0.749089	-0.035785	0.025981	99
Es	-1.858397	-0.773713	1.006913	99
Es	-2.455329	-1.959925	1.179062	99
Es	-3.047901	-0.975220	1.590798	99
Es	1.908297	-1.310543	-0.828058	99
Es	-0.516807	-0.905816	0.011498	99
Es	-0.333951	-1.632554	0.139763	99
Es	0.393429	1.434407	-0.261380	99
Es	1.056189	1.934455	-0.224023	99
Es	-1.413232	-0.463123	1.029638	99
Es	1.566300	2.305718	-0.218931	99
Es	1.808688	2.223876	-0.462756	99
Es	-2.973116	-1.172730	0.387411	99
Es	-1.099315	-0.656299	0.635758	99
Es	-1.270292	-0.518325	1.302923	99
Es	1.491888	-0.548783	-1.677972	99
Es	-1.498283	-0.183602	0.943662	99
Es	1.253100	-0.312904	-0.483661	99
Es	0.108074	-0.468517	0.017621	99
Es	-0.859236	-0.863858	-0.668249	99
Es	2.399088	-0.223149	-0.948428	99
Es	1.799597	2.278886	0.356948	99
Es	-2.608356	-1.232223	1.047097	99
49
Properties=species:S:1:pos:R:3:Z:I:1 energy=-326.31925027177226 field_type=dipole dipole="0.000000 0.000000 0.000000" charge=0
C	-2.608536	-1.232334	1.047104	6
O	-1.413206	-0.462814	1.029834	8
C	-0.516676	-0.905904	0.011334	6
C	0.749114	-0.035774	0.026024	6
C	1.762884	-0.589944	-0.979396	6
C	0.393284	1.434356	-0.261376	6
N	1.566604	2.305616	-0.219236	7
H	-3.251526	-0.852264	1.845704	1
H	-2.384866	-2.284484	1.248994	1
H	-3.139766	-1.135424	0.095224	1
H	-1.011896	-0.843434	-0.965286	1
H	-0.251986	-1.952484	0.202674	1
H	1.188564	-0.088764	1.031644	1
H	1.378174	-0.529454	-2.002936	1
H	1.986475	-1.640284	-0.764206	1
H	2.708884	-0.041074	-0.938196	1
H	-0.332436	1.800086	0.474254	1
H	-0.072876	1.522296	-1.249366	1
H	1.982394	2.260056	0.712094	1
H	1.267394	3.272026	-0.344886	1
Es	-0.516807	-0.905817	0.011497	99
Es	-1.858051	-0.773855	1.007115	99
Es	-2.608351	-1.232220	1.047096	99
Es	0.073892	1.490512	-0.945170	99
Es	1.055868	1.934685	-0.223859	99
Es	-1.413245	-0.463040	1.029648	99
Es	1.799574	2.278948	0.356983	99
Es	0.749090	-0.035786	0.025982	99
Es	-1.498581	-0.183266	0.943025	99
Es	-1.099808	-0.656453	0.636023	99
Es	-0.333924	-1.632502	0.139800	99
Es	0.108095	-0.468563	0.017595	99
Es	1.367585	2.887073	-0.278910	99
Es	1.908421	-1.310504	-0.827970	99
Es	1.253001	-0.312980	-0.483714	99
Es	2.398974	-0.223067	-0.948367	99
Es	-3.047925	-0.975193	1.590749	99
Es	1.491944	-0.548859	-1.678059	99
Es	1.762848	-0.589949	-0.979376	99
Es	0.574649	0.697895	-0.123450	99
Es	1.808939	2.223919	-0.463294	99
Es	-2.973078	-1.172730	0.387407	99
Es	0.393429	1.434407	-0.261379	99
Es	1.051209	-0.071708	0.715966	99
Es	-1.269858	-0.518362	1.303138	99
Es	-0.108307	1.679354	0.243610	99
Es	-2.455316	-1.959980	1.179085	99
Es	-0.859251	-0.863917	-0.668284	99
Es	1.566264	2.305731	-0.218890	99
49
Properties=species:S:1:pos:R:3:Z:I:1 energy=-326.31925027177226 field_type=dipole dipole="0.000000 0.000000 0.000000" charge=0
C	-2.608536	-1.232334	1.047104	6
O	-1.413206	-0.462814	1.029834	8
C	-0.516676	-0.905904	0.011334	6
C	0.749114	-0.035774	0.026024	6
C	1.762884	-0.589944	-0.979396	6
C	0.393284	1.434356	-0.261376	6
N	1.566604	2.305616	-0.219236	7
H	-3.251526	-0.852264	1.845704	1
H	-2.384866	-2.284484	1.248994	1
H	-3.139766	-1.135424	0.095224	1
H	-1.011896	-0.843434	-0.965286	1
H	-0.251986	-1.952484	0.202674	1
H	1.188564	-0.088764	1.031644	1
H	1.378174	-0.529454	-2.002936	1
H	1.986475	-1.640284	-0.764206	1
H	2.708884	-0.041074	-0.938196	1
H	-0.332436	1.800086	0.474254	1
H	-0.072876	1.522296	-1.249366	1
H	1.982394	2.260056	0.712094	1
H	1.267394	3.272026	-0.344886	1
Es	1.491958	-0.548815	-1.678095	99
Es	1.252996	-0.312932	-0.483711	99
Es	1.367171	2.887252	-0.278668	99
Es	-2.973073	-1.172762	0.387359	99
Es	1.762848	-0.589949	-0.979376	99
Es	1.051231	-0.071771	0.715937	99
Es	-0.516807	-0.905817	0.011498	99
Es	-0.108400	1.679305	0.243535	99
Es	-0.859261	-0.863858	-0.668263	99
Es	0.749089	-0.035786	0.025982	99
Es	0.073987	1.490506	-0.945163	99
Es	1.566213	2.305768	-0.218820	99
Es	-1.413203	-0.463084	1.029608	99
Es	1.799265	2.278751	0.356986	99
Es	-2.608350	-1.232220	1.047094	99
Es	0.574649	0.697954	-0.123454	99
Es	1.056372	1.934146	-0.224502	99
Es	-1.858122	-0.773448	1.006559	99
Es	0.108159	-0.468532	0.017655	99
Es	1.809207	2.224499	-0.462870	99
Es	-1.099140	-0.657073	0.636552	99
Es	0.393430	1.434407	-0.261378	99
Es	-2.455285	-1.959921	1.179067	99
Es	2.399058	-0.223200	-0.948338	99
Es	1.908285	-1.310485	-0.827981	99
Es	-3.047938	-0.975192	1.590808	99
Es	-1.270592	-0.517400	1.304050	99
Es	-1.498487	-0.184036	0.942175	99
Es	-0.333979	-1.632534	0.139750	99
49
Properties=species:S:1:pos:R:3:Z:I:1 energy=-326.31925027177226 field_type=dipole dipole="0.000000 0.000000 0.000000" charge=0
C	-2.608536	-1.232334	1.047104	6
O	-1.413206	-0.462814	1.029834	8
C	-0.516676	-0.905904	0.011334	6
C	0.749114	-0.035774	0.026024	6
C	1.762884	-0.589944	-0.979396	6
C	0.393284	1.434356	-0.261376	6
N	1.566604	2.305616	-0.219236	7
H	-3.251526	-0.852264	1.845704	1
H	-2.384866	-2.284484	1.248994	1
H	-3.139766	-1.135424	0.095224	1
H	-1.011896	-0.843434	-0.965286	1
H	-0.251986	-1.952484	0.202674	1
H	1.188564	-0.088764	1.031644	1
H	1.378174	-0.529454	-2.002936	1
H	1.986475	-1.640284	-0.764206	1
H	2.708884	-0.041074	-0.938196	1
H	-0.332436	1.800086	0.474254	1
H	-0.072876	1.522296	-1.249366	1
H	1.982394	2.260056	0.712094	1
H	1.267394	3.272026	-0.344886	1
Es	1.367031	2.887002	-0.278583	99
Es	1.762848	-0.589949	-0.979374	99
Es	-1.413291	-0.463146	1.029606	99
Es	0.108121	-0.468447	0.017574	99
Es	-1.099055	-0.656483	0.636183	99
Es	1.056508	1.933573	-0.225000	99
Es	-3.047921	-0.975173	1.590878	99
Es	1.252957	-0.312980	-0.483730	99
Es	-0.108293	1.679270	0.243666	99
Es	0.749089	-0.035786	0.025982	99
Es	1.908344	-1.310563	-0.828012	99
Es	1.491986	-0.548736	-1.678088	99
Es	0.574619	0.697892	-0.123628	99
Es	-1.270591	-0.518003	1.303869	99
Es	1.799408	2.278877	0.357044	99
Es	-1.498749	-0.183749	0.942907	99
Es	1.566204	2.305779	-0.218813	99
Es	2.398971	-0.223195	-0.948321	99
Es	-0.516807	-0.905816	0.011497	99
Es	-0.859292	-0.863945	-0.668335	99
Es	-2.455257	-1.959903	1.179037	99
Es	-2.973077	-1.172742	0.387349	99
Es	0.393428	1.434407	-0.261379	99
Es	0.073861	1.490616	-0.945103	99
Es	1.051226	-0.071781	0.716047	99
Es	-2.608353	-1.232221	1.047096	99
Es	-1.857882	-0.773676	1.006365	99
Es	1.809138	2.225126	-0.462574	99
Es	-0.333891	-1.632476	0.139836	99
49
Properties=species:S:1:pos:R:3:Z:I:1 energy=-326.31925027177226 field_type=dipole dipole="0.000000 0.000000 0.000000" charge=0
C	-2.608536	-1.232334	1.047104	6
O	-1.413206	-0.462814	1.029834	8
C	-0.516676	-0.905904	0.011334	6
C	0.749114	-0.035774	0.026024	6
C	1.762884	-0.589944	-0.979396	6
C	0.393284	1.434356	-0.261376	6
N	1.566604	2.305616	-0.219236	7
H	-3.251526	-0.852264	1.845704	1
H	-2.384866	-2.284484	1.248994	1
H	-3.139766	-1.135424	0.095224	1
H	-1.011896	-0.843434	-0.965286	1
H	-0.251986	-1.952484	0.202674	1
H	1.188564	-0.088764	1.031644	1
H	1.378174	-0.529454	-2.002936	1
H	1.986475	-1.640284	-0.764206	1
H	2.708884	-0.041074	-0.938196	1
H	-0.332436	1.800086	0.474254	1
H	-0.072876	1.522296	-1.249366	1
H	1.982394	2.260056	0.712094	1
H	1.267394	3.272026	-0.344886	1
Es	-2.608349	-1.232216	1.047095	99
Es	1.808974	2.225132	-0.462601	99
Es	0.574630	0.697861	-0.123572	99
Es	0.073894	1.490637	-0.945117	99
Es	-1.858010	-0.773262	1.006661	99
Es	-1.413256	-0.463139	1.029602	99
Es	1.056400	1.933564	-0.224926	99
Es	1.566248	2.305750	-0.218858	99
Es	-2.973009	-1.172669	0.387404	99
Es	-1.099057	-0.657988	0.637177	99
Es	1.367046	2.887089	-0.278519	99
Es	-0.108309	1.679313	0.243718	99
Es	1.051223	-0.071740	0.715961	99
Es	1.762848	-0.589949	-0.979376	99
Es	-2.455255	-1.960034	1.179009	99
Es	0.393429	1.434408	-0.261379	99
Es	1.491872	-0.548914	-1.678093	99
Es	0.108115	-0.468548	0.017649	99
Es	-1.270615	-0.515410	1.305271	99
Es	1.908408	-1.310443	-0.827931	99
Es	-1.498667	-0.185208	0.940220	99
Es	1.253063	-0.312871	-0.483675	99
Es	-0.516807	-0.905817	0.011497	99
Es	-0.859249	-0.863892	-0.668317	99
Es	0.749089	-0.035786	0.025981	99
Es	-3.047966	-0.975139	1.590795	99
Es	1.799556	2.278776	0.356958	99
Es	-0.333944	-1.632545	0.139835	99
Es	2.398977	-0.223184	-0.948472	99
49
Properties=species:S:1:pos:R:3:Z:I:1 energy=-326.31925027177226 field_type=dipole dipole="0.000000 0.000000 0.000000" charge=0
C	-2.608536	-1.232334	1.047104	6
O	-1.413206	-0.462814	1.029834	8
C	-0.516676	-0.905904	0.011334	6
C	0.749114	-0.035774	0.026024	6
C	1.762884	-0.589944	-0.979396	6
C	0.393284	1.434356	-0.261376	6
N	1.566604	2.305616	-0.219236	7
H	-3.251526	-0.852264	1.845704	1
H	-2.384866	-2.284484	1.248994	1
H	-3.139766	-1.135424	0.095224	1
H	-1.011896	-0.843434	-0.965286	1
H	-0.251986	-1.952484	0.202674	1
H	1.188564	-0.088764	1.031644	1
H	1.378174	-0.529454	-2.002936	1
H	1.986475	-1.640284	-0.764206	1
H	2.708884	-0.041074	-0.938196	1
H	-0.332436	1.800086	0.474254	1
H	-0.072876	1.522296	-1.249366	1
H	1.982394	2.260056	0.712094	1
H	1.267394	3.272026	-0.344886	1
Es	-2.972969	-1.172723	0.387395	99
Es	1.366676	2.886998	-0.278132	99
Es	1.762848	-0.589949	-0.979376	99
Es	1.908332	-1.310401	-0.827929	99
Es	-0.333943	-1.632471	0.139854	99
Es	-0.859268	-0.863936	-0.668357	99
Es	1.808907	2.225691	-0.462610	99
Es	-0.516806	-0.905817	0.011496	99
Es	-1.858133	-0.772840	1.006244	99
Es	1.056689	1.933292	-0.225247	99
Es	-3.048045	-0.975205	1.590825	99
Es	0.749089	-0.035786	0.025981	99
Es	1.491862	-0.548941	-1.678099	99
Es	1.566209	2.305799	-0.218819	99
Es	-2.455183	-1.959992	1.178948	99
Es	-2.608352	-1.232220	1.047096	99
Es	2.399045	-0.223254	-0.948496	99
Es	-1.498376	-0.183904	0.942860	99
Es	-1.413207	-0.463114	1.029597	99
Es	-1.099800	-0.656612	0.635887	99
Es	1.799744	2.278598	0.356933	99
Es	0.393430	1.434409	-0.261379	99
Es	0.073977	1.490592	-0.945112	99
Es	0.108113	-0.468563	0.017586	99
Es	-0.108391	1.679290	0.243615	99
Es	0.574652	0.697849	-0.123513	99
Es	-1.270113	-0.518451	1.304398	99
Es	1.051209	-0.071773	0.715998	99
Es	1.253085	-0.312793	-0.483648	99
49
Properties=species:S:1:pos:R:3:Z:I:1 energy=-326.31925027177226 field_type=dipole dipole="0.000000 0.000000 0.000000" charge=0
C	-2.608536	-1.232334	1.047104	6
O	-1.413206	-0.462814	1.029834	8
C	-0.516676	-0.905904	0.011334	6
C	0.749114	-0.035774	0.026024	6
C	1.762884	-0.589944	-0.979396	6
C	0.393284	1.434356	-0.261376	6
N	1.566604	2.305616	-0.219236	7
H	-3.251526	-0.852264	1.845704	1
H	-2.384866	-2.284484	1.248994	1
H	-3.139766	-1.135424	0.095224	1
H	-1.011896	-0.843434	-0.965286	1
H	-0.251986	-1.952484	0.202674	1
H	1.188564	-0.088764	1.031644	1
H	1.378174	-0.529454	-2.002936	1
H	1.986475	-1.640284	-0.764206	1
H	2.708884	-0.041074	-0.938196	1
H	-0.332436	1.800086	0.474254	1
H	-0.072876	1.522296	-1.249366	1
H	1.982394	2.260056	0.712094	1
H	1.267394	3.272026	-0.344886	1
Es	-0.108294	1.679182	0.243740	99
Es	-0.516807	-0.905816	0.011496	99
Es	1.566219	2.305760	-0.218839	99
Es	-2.973069	-1.172675	0.387269	99
Es	-1.271305	-0.522936	1.302426	99
Es	-1.099558	-0.656291	0.635715	99
Es	-0.859349	-0.864034	-0.668458	99
Es	0.108299	-0.468492	0.017621	99
Es	0.073850	1.490585	-0.945232	99
Es	1.051211	-0.071748	0.716148	99
Es	-3.047929	-0.975261	1.590935	99
Es	1.799637	2.278531	0.357112	99
Es	-0.334049	-1.632278	0.139833	99
Es	-2.455221	-1.959860	1.178929	99
Es	1.908408	-1.310360	-0.827999	99
Es	-1.858883	-0.771764	1.004950	99
Es	1.808919	2.226078	-0.462329	99
Es	2.398972	-0.223151	-0.948197	99
Es	1.492005	-0.548853	-1.678241	99
Es	1.252879	-0.313121	-0.483807	99
Es	0.393430	1.434407	-0.261379	99
Es	1.762848	-0.589949	-0.979376	99
Es	1.056883	1.933029	-0.225681	99
Es	0.749089	-0.035786	0.025981	99
Es	-1.413310	-0.463105	1.029621	99
Es	1.366562	2.886953	-0.278111	99
Es	-1.496510	-0.180949	0.946372	99
Es	0.574708	0.697900	-0.123600	99
Es	-2.608352	-1.232221	1.047096	99
