45
Properties=species:S:1:pos:R:3:Z:I:1 energy=-341.1089840555504 field_type=dipole dipole="0.000000 0.000000 0.000000" charge=0
C	-0.917610	-2.021281	-0.675857	6
O	-1.218360	-1.127041	0.390173	8
C	-0.770460	0.200469	0.131233	6
C	-1.327661	1.098349	1.226583	6
C	0.745669	0.292289	0.157413	6
N	1.400079	0.728639	-0.872997	7
N	2.738949	0.733299	-0.689397	7
H	-1.397810	-2.980541	-0.461897	1
H	0.161549	-2.187571	-0.746857	1
H	-1.306311	-1.642501	-1.626327	1
H	-1.149151	0.541919	-0.839467	1
H	-1.010431	0.753709	2.217993	1
H	-2.422730	1.076569	1.219693	1
H	-0.995701	2.134369	1.102863	1
H	1.247300	-0.039321	1.086193	1
H	3.201149	0.962009	-1.573577	1
H	3.021529	1.476639	-0.045767	1
Es	3.008067	0.888938	-1.223376	99
Es	1.400359	0.728503	-0.872489	99
Es	2.827753	0.421161	-0.568286	99
Es	-1.327639	1.098340	1.226560	99
Es	2.884613	1.187592	-0.305415	99
Es	-2.067168	1.085107	1.214649	99
Es	1.130408	0.269389	-0.500695	99
Es	-1.025952	-0.634663	0.259449	99
Es	-1.245241	-2.674182	-0.530077	99
Es	-1.521547	-1.102347	0.394670	99
Es	-1.085639	-1.440053	-0.032400	99
Es	-1.180713	-1.756770	-1.330085	99
Es	1.095892	0.817726	-0.311309	99
Es	1.256984	0.825395	-1.205971	99
Es	-0.177943	-2.131855	-0.730103	99
Es	0.745639	0.292330	0.157429	99
Es	-1.056967	-1.222857	0.636555	99
Es	2.738700	0.733847	-0.689618	99
Es	-1.218172	-1.126948	0.389872	99
Es	-1.023961	0.430940	-0.535190	99
Es	-1.095911	1.799570	1.134156	99
Es	-1.101797	0.862825	1.895243	99
Es	0.004510	0.243181	0.141057	99
Es	-0.770459	0.200270	0.131335	99
Es	-1.040296	0.651057	0.682445	99
Es	2.073192	0.753909	-0.767166	99
Es	-0.917662	-2.021135	-0.675686	99
Es	1.082403	0.073779	0.790015	99
45
Properties=species:S:1:pos:R:3:Z:I:1 energy=-341.1089840555504 field_type=dipole dipole="0.000000 0.000000 0.000000" charge=0
C	-0.917610	-2.021281	-0.675857	6
O	-1.218360	-1.127041	0.390173	8
C	-0.770460	0.200469	0.131233	6
C	-1.327661	1.098349	1.226583	6
C	0.745669	0.292289	0.157413	6
N	1.400079	0.728639	-0.872997	7
N	2.738949	0.733299	-0.689397	7
H	-1.397810	-2.980541	-0.461897	1
H	0.161549	-2.187571	-0.746857	1
H	-1.306311	-1.642501	-1.626327	1
H	-1.149151	0.541919	-0.839467	1
H	-1.010431	0.753709	2.217993	1
H	-2.422730	1.076569	1.219693	1
H	-0.995701	2.134369	1.102863	1
H	1.247300	-0.039321	1.086193	1
H	3.201149	0.962009	-1.573577	1
H	3.021529	1.476639	-0.045767	1
Es	1.096302	0.818079	-0.310470	99
Es	-1.050593	-1.221057	0.621436	99
Es	-1.024066	0.430700	-0.534826	99
Es	0.004699	0.242554	0.140799	99
Es	1.082224	0.073716	0.789464	99
Es	-0.770459	0.200270	0.131337	99
Es	1.400346	0.728483	-0.872452	99
Es	2.883472	1.185022	-0.305123	99
Es	-1.529478	-1.105777	0.408532	99
Es	-1.245923	-2.675487	-0.530235	99
Es	-0.178114	-2.130831	-0.730417	99
Es	2.738698	0.733842	-0.689607	99
Es	0.745637	0.292322	0.157432	99
Es	1.256402	0.825762	-1.204485	99
Es	2.826066	0.428088	-0.568069	99
Es	-2.067271	1.084734	1.214808	99
Es	1.130722	0.268414	-0.500285	99
Es	-1.179960	-1.756272	-1.329246	99
Es	-1.327639	1.098339	1.226560	99
Es	-0.917661	-2.021139	-0.675692	99
Es	-1.218210	-1.126949	0.389857	99
Es	-1.087597	-1.438869	-0.032831	99
Es	-1.022526	-0.634384	0.261137	99
Es	3.011476	0.887903	-1.226469	99
Es	-1.040412	0.651096	0.682497	99
Es	-1.101871	0.862677	1.894784	99
Es	-1.095604	1.800085	1.134134	99
Es	2.072792	0.751731	-0.767000	99
45
Properties=species:S:1:pos:R:3:Z:I:1 energy=-341.1089840555504 field_type=dipole dipole="0.000000 0.000000 0.000000" charge=0
C	-0.917610	-2.021281	-0.675857	6
O	-1.218360	-1.127041	0.390173	8
C	-0.770460	0.200469	0.131233	6
C	-1.327661	1.098349	1.226583	6
C	0.745669	0.292289	0.157413	6
N	1.400079	0.728639	-0.872997	7
N	2.738949	0.733299	-0.689397	7
H	-1.397810	-2.980541	-0.461897	1
H	0.161549	-2.187571	-0.746857	1
H	-1.306311	-1.642501	-1.626327	1
H	-1.149151	0.541919	-0.839467	1
H	-1.010431	0.753709	2.217993	1
H	-2.422730	1.076569	1.219693	1
H	-0.995701	2.134369	1.102863	1
H	1.247300	-0.039321	1.086193	1
H	3.201149	0.962009	-1.573577	1
H	3.021529	1.476639	-0.045767	1
Es	-1.023768	0.430548	-0.535066	99
Es	-1.534981	-1.112311	0.425139	99
Es	-2.067096	1.084477	1.214762	99
Es	-1.218180	-1.126939	0.389848	99
Es	-0.917661	-2.021135	-0.675689	99
Es	0.745640	0.292317	0.157425	99
Es	1.131401	0.268024	-0.499392	99
Es	3.013539	0.888138	-1.228035	99
Es	-1.179572	-1.755858	-1.328994	99
Es	-1.246124	-2.676257	-0.530223	99
Es	2.825224	0.432493	-0.568305	99
Es	-1.095583	1.800413	1.133930	99
Es	-1.022666	-0.633389	0.260753	99
Es	-1.327640	1.098341	1.226561	99
Es	-0.770458	0.200271	0.131336	99
Es	2.072736	0.750466	-0.767788	99
Es	2.882386	1.182757	-0.305277	99
Es	-1.042976	-1.217441	0.605337	99
Es	1.082225	0.073841	0.789238	99
Es	-1.040546	0.651495	0.682480	99
Es	-1.089750	-1.437159	-0.032783	99
Es	-1.101758	0.862366	1.894862	99
Es	0.004479	0.241950	0.141018	99
Es	1.400361	0.728491	-0.872466	99
Es	1.097066	0.817573	-0.309837	99
Es	-0.178424	-2.130210	-0.730462	99
Es	2.738696	0.733866	-0.689610	99
Es	1.254884	0.825919	-1.203194	99
45
Properties=species:S:1:pos:R:3:Z:I:1 energy=-341.1089840555504 field_type=dipole dipole="0.000000 0.000000 0.000000" charge=0
C	-0.917610	-2.021281	-0.675857	6
O	-1.218360	-1.127041	0.390173	8
C	-0.770460	0.200469	0.131233	6
C	-1.327661	1.098349	1.226583	6
C	0.745669	0.292289	0.157413	6
N	1.400079	0.728639	-0.872997	7
N	2.738949	0.733299	-0.689397	7
H	-1.397810	-2.980541	-0.461897	1
H	0.161549	-2.187571	-0.746857	1
H	-1.306311	-1.642501	-1.626327	1
H	-1.149151	0.541919	-0.839467	1
H	-1.010431	0.753709	2.217993	1
H	-2.422730	1.076569	1.219693	1
H	-0.995701	2.134369	1.102863	1
H	1.247300	-0.039321	1.086193	1
H	3.201149	0.962009	-1.573577	1
H	3.021529	1.476639	-0.045767	1
Es	-1.095575	1.800443	1.133477	99
Es	1.400364	0.728488	-0.872457	99
Es	1.082237	0.073617	0.789345	99
Es	2.738676	0.733856	-0.689616	99
Es	1.253965	0.826158	-1.204009	99
Es	-1.095435	-1.435373	-0.034529	99
Es	-0.917661	-2.021135	-0.675688	99
Es	-0.178820	-2.130024	-0.730173	99
Es	0.745636	0.292318	0.157432	99
Es	1.097787	0.816774	-0.309234	99
Es	-1.327640	1.098341	1.226561	99
Es	-1.536481	-1.125499	0.460727	99
Es	1.131898	0.268670	-0.498631	99
Es	-1.101910	0.862017	1.895651	99
Es	-2.066642	1.084584	1.214154	99
Es	-1.246131	-2.676583	-0.530042	99
Es	2.825031	0.436303	-0.569297	99
Es	-1.179319	-1.755482	-1.329271	99
Es	-1.026424	-0.631991	0.258495	99
Es	-0.770457	0.200271	0.131335	99
Es	0.004503	0.241769	0.141020	99
Es	-1.040407	0.651459	0.682592	99
Es	3.014665	0.889222	-1.228758	99
Es	-1.023920	0.430710	-0.535384	99
Es	-1.218207	-1.126939	0.389829	99
Es	2.072060	0.747962	-0.766808	99
Es	-1.031997	-1.207584	0.573983	99
Es	2.881657	1.180701	-0.305135	99
45
Properties=species:S:1:pos:R:3:Z:I:1 energy=-341.1089840555504 field_type=dipole dipole="0.000000 0.000000 0.000000" charge=0
C	-0.917610	-2.021281	-0.675857	6
O	-1.218360	-1.127041	0.390173	8
C	-0.770460	0.200469	0.131233	6
C	-1.327661	1.098349	1.226583	6
C	0.745669	0.292289	0.157413	6
N	1.400079	0.728639	-0.872997	7
N	2.738949	0.733299	-0.689397	7
H	-1.397810	-2.980541	-0.461897	1
H	0.161549	-2.187571	-0.746857	1
H	-1.306311	-1.642501	-1.626327	1
H	-1.149151	0.541919	-0.839467	1
H	-1.010431	0.753709	2.217993	1
H	-2.422730	1.076569	1.219693	1
H	-0.995701	2.134369	1.102863	1
H	1.247300	-0.039321	1.086193	1
H	3.201149	0.962009	-1.573577	1
H	3.021529	1.476639	-0.045767	1
Es	1.132307	0.269144	-0.497891	99
Es	2.824812	0.438788	-0.570510	99
Es	-1.533449	-1.135500	0.486613	99
Es	-1.099122	-1.433941	-0.035195	99
Es	-0.770457	0.200272	0.131336	99
Es	1.400366	0.728491	-0.872450	99
Es	-1.179186	-1.755176	-1.329531	99
Es	-0.179037	-2.129833	-0.729863	99
Es	1.098484	0.815632	-0.309155	99
Es	-1.024050	0.430852	-0.535605	99
Es	-2.066383	1.084672	1.213719	99
Es	-1.095523	1.800387	1.133019	99
Es	-1.101797	0.861612	1.896264	99
Es	0.004560	0.241657	0.141043	99
Es	-1.218262	-1.126917	0.389816	99
Es	-1.327639	1.098340	1.226561	99
Es	-1.246119	-2.676779	-0.529812	99
Es	2.738706	0.733856	-0.689610	99
Es	1.252785	0.826588	-1.204029	99
Es	-0.917660	-2.021137	-0.675690	99
Es	3.015201	0.890250	-1.229010	99
Es	0.745635	0.292327	0.157435	99
Es	1.082353	0.073610	0.789557	99
Es	2.881409	1.179199	-0.304696	99
Es	-1.027781	-0.631301	0.257301	99
Es	2.071852	0.746280	-0.766708	99
Es	-1.029991	-1.199894	0.549964	99
Es	-1.040564	0.651569	0.682694	99
45
Properties=species:S:1:pos:R:3:Z:I:1 energy=-341.1089840555504 field_type=dipole dipole="0.000000 0.000000 0.000000" charge=0
C	-0.917610	-2.021281	-0.675857	6
O	-1.218360	-1.127041	0.390173	8
C	-0.770460	0.200469	0.131233	6
C	-1.327661	1.098349	1.226583	6
C	0.745669	0.292289	0.157413	6
N	1.400079	0.728639	-0.872997	7
N	2.738949	0.733299	-0.689397	7
H	-1.397810	-2.980541	-0.461897	1
H	0.161549	-2.187571	-0.746857	1
H	-1.306311	-1.642501	-1.626327	1
H	-1.149151	0.541919	-0.839467	1
H	-1.010431	0.753709	2.217993	1
H	-2.422730	1.076569	1.219693	1
H	-0.995701	2.134369	1.102863	1
H	1.247300	-0.039321	1.086193	1
H	3.201149	0.962009	-1.573577	1
H	3.021529	1.476639	-0.045767	1
Es	1.252246	0.827092	-1.204872	99
Es	-0.917661	-2.021136	-0.675689	99
Es	2.824482	0.440230	-0.571337	99
Es	-1.179217	-1.755042	-1.329708	99
Es	-1.101564	0.861525	1.896698	99
Es	2.881570	1.177474	-0.304607	99
Es	1.099065	0.814622	-0.309081	99
Es	-1.246188	-2.676683	-0.529609	99
Es	-1.095429	1.800079	1.132575	99
Es	2.738689	0.733877	-0.689620	99
Es	-1.218318	-1.126901	0.389755	99
Es	0.745637	0.292323	0.157433	99
Es	-0.178988	-2.129854	-0.729633	99
Es	-1.526089	-1.146351	0.512613	99
Es	-1.029223	-0.630417	0.256679	99
Es	2.071247	0.745525	-0.765654	99
Es	1.400343	0.728483	-0.872446	99
Es	0.004501	0.241681	0.141449	99
Es	1.132451	0.269817	-0.497497	99
Es	-0.770458	0.200274	0.131335	99
Es	-1.040587	0.651607	0.682743	99
Es	-2.066528	1.084753	1.213348	99
Es	-1.024070	0.430962	-0.535919	99
Es	-1.032255	-1.191868	0.525478	99
Es	3.015781	0.891102	-1.228994	99
Es	-1.102838	-1.432069	-0.035985	99
Es	-1.327639	1.098340	1.226561	99
Es	1.082494	0.073607	0.789557	99
45
Properties=species:S:1:pos:R:3:Z:I:1 energy=-341.1089840555504 field_type=dipole dipole="0.000000 0.000000 0.000000" charge=0
C	-0.917610	-2.021281	-0.675857	6
O	-1.218360	-1.127041	0.390173	8
C	-0.770460	0.200469	0.131233	6
C	-1.327661	1.098349	1.226583	6
C	0.745669	0.292289	0.157413	6
N	1.400079	0.728639	-0.872997	7
N	2.738949	0.733299	-0.689397	7
H	-1.397810	-2.980541	-0.461897	1
H	0.161549	-2.187571	-0.746857	1
H	-1.306311	-1.642501	-1.626327	1
H	-1.149151	0.541919	-0.839467	1
H	-1.010431	0.753709	2.217993	1
H	-2.422730	1.076569	1.219693	1
H	-0.995701	2.134369	1.102863	1
H	1.247300	-0.039321	1.086193	1
H	3.201149	0.962009	-1.573577	1
H	3.021529	1.476639	-0.045767	1
Es	0.745635	0.292326	0.157434	99
Es	1.082287	0.074488	0.787176	99
Es	-1.094457	1.800262	1.134074	99
Es	-1.469554	-1.077147	0.321148	99
Es	-1.000456	-0.640543	0.268986	99
Es	-1.075063	-1.440947	-0.018847	99
Es	3.019775	0.888023	-1.229392	99
Es	-0.770457	0.200275	0.131335	99
Es	-1.217892	-1.127006	0.389959	99
Es	2.879725	1.175811	-0.308341	99
Es	-1.146150	-1.241827	0.686671	99
Es	-1.100722	0.863093	1.892247	99
Es	-1.040714	0.652084	0.682371	99
Es	-1.024171	0.429481	-0.533069	99
Es	-1.247961	-2.677013	-0.530557	99
Es	2.738722	0.733814	-0.689577	99
Es	-0.176668	-2.128504	-0.732262	99
Es	-1.179604	-1.756032	-1.325621	99
Es	-0.917662	-2.021136	-0.675688	99
Es	2.823597	0.451936	-0.570330	99
Es	1.132063	0.267440	-0.498616	99
Es	2.072206	0.741065	-0.771391	99
Es	1.097655	0.818432	-0.308332	99
Es	1.400348	0.728481	-0.872439	99
Es	0.005029	0.241736	0.140838	99
Es	-2.069608	1.083504	1.216252	99
Es	1.253187	0.822612	-1.195022	99
Es	-1.327640	1.098341	1.226560	99
45
Properties=species:S:1:pos:R:3:Z:I:1 energy=-341.1089840555504 field_type=dipole dipole="0.000000 0.000000 0.000000" charge=0
C	-0.917610	-2.021281	-0.675857	6
O	-1.218360	-1.127041	0.390173	8
C	-0.770460	0.200469	0.131233	6
C	-1.327661	1.098349	1.226583	6
C	0.745669	0.292289	0.157413	6
N	1.400079	0.728639	-0.872997	7
N	2.738949	0.733299	-0.689397	7
H	-1.397810	-2.980541	-0.461897	1
H	0.161549	-2.187571	-0.746857	1
H	-1.306311	-1.642501	-1.626327	1
H	-1.149151	0.541919	-0.839467	1
H	-1.010431	0.753709	2.217993	1
H	-2.422730	1.076569	1.219693	1
H	-0.995701	2.134369	1.102863	1
H	1.247300	-0.039321	1.086193	1
H	3.201149	0.962009	-1.573577	1
H	3.021529	1.476639	-0.045767	1
Es	-2.066850	1.084862	1.212805	99
Es	-0.917661	-2.021139	-0.675692	99
Es	2.823611	0.442821	-0.572543	99
Es	-0.178874	-2.129762	-0.729407	99
Es	2.881824	1.174921	-0.304558	99
Es	1.099824	0.813236	-0.309124	99
Es	-1.218384	-1.126871	0.389609	99
Es	1.082709	0.073578	0.789592	99
Es	-1.095395	1.799545	1.132280	99
Es	-1.514749	-1.157805	0.539455	99
Es	2.738677	0.733876	-0.689618	99
Es	1.251021	0.827338	-1.204995	99
Es	-1.024398	0.431165	-0.536106	99
Es	0.004565	0.241706	0.141630	99
Es	-1.327640	1.098340	1.226561	99
Es	-1.028766	-0.629977	0.255744	99
Es	-1.041252	-1.182306	0.499232	99
Es	2.070913	0.744891	-0.765141	99
Es	-1.040298	0.651767	0.682684	99
Es	1.132754	0.270721	-0.496756	99
Es	-1.179407	-1.754847	-1.329890	99
Es	0.745633	0.292338	0.157439	99
Es	1.400344	0.728482	-0.872444	99
Es	-0.770458	0.200272	0.131334	99
Es	-1.101208	0.861313	1.897188	99
Es	-1.105729	-1.430752	-0.035418	99
Es	-1.246202	-2.676562	-0.529296	99
Es	3.016845	0.891899	-1.228995	99
45
Properties=species:S:1:pos:R:3:Z:I:1 energy=-341.1089840555504 field_type=dipole dipole="0.000000 0.000000 0.000000" charge=0
C	-0.917610	-2.021281	-0.675857	6
O	-1.218360	-1.127041	0.390173	8
C	-0.770460	0.200469	0.131233	6
C	-1.327661	1.098349	1.226583	6
C	0.745669	0.292289	0.157413	6
N	1.400079	0.728639	-0.872997	7
N	2.738949	0.733299	-0.689397	7
H	-1.397810	-2.980541	-0.461897	1
H	0.161549	-2.187571	-0.746857	1
H	-1.306311	-1.642501	-1.626327	1
H	-1.149151	0.541919	-0.839467	1
H	-1.010431	0.753709	2.217993	1
H	-2.422730	1.076569	1.219693	1
H	-0.995701	2.134369	1.102863	1
H	1.247300	-0.039321	1.086193	1
H	3.201149	0.962009	-1.573577	1
H	3.021529	1.476639	-0.045767	1
Es	-1.327638	1.098337	1.226561	99
Es	1.132989	0.271311	-0.496297	99
Es	-1.107184	-1.429761	-0.035810	99
Es	-1.045159	-1.179984	0.490805	99
Es	-0.917662	-2.021136	-0.675690	99
Es	1.100087	0.812694	-0.309146	99
Es	0.004661	0.241860	0.141598	99
Es	-0.178744	-2.129749	-0.729347	99
Es	-1.510893	-1.160838	0.547418	99
Es	2.070615	0.743997	-0.764620	99
Es	2.824310	0.443812	-0.571339	99
Es	-1.101163	0.861287	1.897406	99
Es	1.250545	0.827202	-1.205425	99
Es	1.082769	0.073556	0.789648	99
Es	-1.218157	-1.126941	0.389845	99
Es	1.400356	0.728484	-0.872446	99
Es	-1.027500	-0.630232	0.256392	99
Es	-1.024533	0.431118	-0.536094	99
Es	0.745638	0.292316	0.157429	99
Es	2.738680	0.733900	-0.689632	99
Es	-1.095330	1.799405	1.132060	99
Es	-1.040357	0.651749	0.682676	99
Es	-2.066875	1.084915	1.212618	99
Es	-1.246294	-2.676474	-0.529213	99
Es	2.880851	1.174789	-0.306280	99
Es	-0.770457	0.200272	0.131335	99
Es	3.017372	0.891949	-1.229013	99
Es	-1.179474	-1.754788	-1.329872	99
45
Properties=species:S:1:pos:R:3:Z:I:1 energy=-341.1089840555504 field_type=dipole dipole="0.000000 0.000000 0.000000" charge=0
C	-0.917610	-2.021281	-0.675857	6
O	-1.218360	-1.127041	0.390173	8
C	-0.770460	0.200469	0.131233	6
C	-1.327661	1.098349	1.226583	6
C	0.745669	0.292289	0.157413	6
N	1.400079	0.728639	-0.872997	7
N	2.738949	0.733299	-0.689397	7
H	-1.397810	-2.980541	-0.461897	1
H	0.161549	-2.187571	-0.746857	1
H	-1.306311	-1.642501	-1.626327	1
H	-1.149151	0.541919	-0.839467	1
H	-1.010431	0.753709	2.217993	1
H	-2.422730	1.076569	1.219693	1
H	-0.995701	2.134369	1.102863	1
H	1.247300	-0.039321	1.086193	1
H	3.201149	0.962009	-1.573577	1
H	3.021529	1.476639	-0.045767	1
Es	2.071588	0.744853	-0.767987	99
Es	-1.279875	-1.237069	0.694206	99
Es	1.098384	0.814377	-0.310083	99
Es	1.400365	0.728482	-0.872438	99
Es	2.881088	1.172966	-0.307930	99
Es	-2.071609	1.084163	1.215107	99
Es	-1.327639	1.098340	1.226559	99
Es	-1.217783	-1.126905	0.389872	99
Es	-1.248113	-2.675343	-0.529873	99
Es	-1.067506	-1.443693	-0.010846	99
Es	-0.985885	-0.646896	0.279387	99
Es	0.005545	0.242800	0.141193	99
Es	1.082922	0.073912	0.787715	99
Es	-1.180716	-1.755913	-1.326265	99
Es	1.131356	0.270732	-0.498094	99
Es	3.020245	0.889761	-1.228064	99
Es	1.252038	0.824728	-1.198591	99
Es	-0.917662	-2.021137	-0.675690	99
Es	-1.040484	0.651929	0.682461	99
Es	-1.093839	1.798018	1.133201	99
Es	2.738677	0.733897	-0.689633	99
Es	-1.025424	0.430282	-0.533462	99
Es	2.823542	0.447751	-0.570386	99
Es	0.745635	0.292331	0.157438	99
Es	-1.099170	0.863001	1.892941	99
Es	-1.358291	-1.073090	0.295107	99
Es	-0.175481	-2.129500	-0.731608	99
Es	-0.770457	0.200274	0.131335	99
45
Properties=species:S:1:pos:R:3:Z:I:1 energy=-341.1089840555504 field_type=dipole dipole="0.000000 0.000000 0.000000" charge=0
C	-0.917610	-2.021281	-0.675857	6
O	-1.218360	-1.127041	0.390173	8
C	-0.770460	0.200469	0.131233	6
C	-1.327661	1.098349	1.226583	6
C	0.745669	0.292289	0.157413	6
N	1.400079	0.728639	-0.872997	7
N	2.738949	0.733299	-0.689397	7
H	-1.397810	-2.980541	-0.461897	1
H	0.161549	-2.187571	-0.746857	1
H	-1.306311	-1.642501	-1.626327	1
H	-1.149151	0.541919	-0.839467	1
H	-1.010431	0.753709	2.217993	1
H	-2.422730	1.076569	1.219693	1
H	-0.995701	2.134369	1.102863	1
H	1.247300	-0.039321	1.086193	1
H	3.201149	0.962009	-1.573577	1
H	3.021529	1.476639	-0.045767	1
Es	-0.178507	-2.129744	-0.729219	99
Es	-1.218314	-1.126931	0.389746	99
Es	-1.501752	-1.167890	0.562352	99
Es	2.881168	1.172930	-0.306114	99
Es	-0.770458	0.200275	0.131334	99
Es	2.070403	0.742895	-0.763886	99
Es	-1.027411	-0.630064	0.255244	99
Es	-1.040184	0.651748	0.682405	99
Es	-1.179695	-1.754657	-1.329914	99
Es	1.400361	0.728485	-0.872446	99
Es	1.250073	0.827405	-1.205366	99
Es	-0.917661	-2.021138	-0.675691	99
Es	1.082921	0.073597	0.789689	99
Es	0.745635	0.292329	0.157436	99
Es	-1.100892	0.861221	1.897636	99
Es	-1.024777	0.431238	-0.536128	99
Es	-1.054081	-1.173168	0.475998	99
Es	1.100350	0.811958	-0.309434	99
Es	2.738782	0.733540	-0.689492	99
Es	-1.095272	1.798831	1.132031	99
Es	-2.067251	1.085162	1.212331	99
Es	1.132987	0.271788	-0.495931	99
Es	-1.107397	-1.429785	-0.034783	99
Es	-1.327640	1.098341	1.226561	99
Es	3.017877	0.892808	-1.228842	99
Es	2.823792	0.446195	-0.572741	99
Es	-1.246418	-2.676262	-0.528953	99
Es	0.004812	0.241944	0.141747	99
45
Properties=species:S:1:pos:R:3:Z:I:1 energy=-341.1089840555504 field_type=dipole dipole="0.000000 0.000000 0.000000" charge=0
C	-0.917610	-2.021281	-0.675857	6
O	-1.218360	-1.127041	0.390173	8
C	-0.770460	0.200469	0.131233	6
C	-1.327661	1.098349	1.226583	6
C	0.745669	0.292289	0.157413	6
N	1.400079	0.728639	-0.872997	7
N	2.738949	0.733299	-0.689397	7
H	-1.397810	-2.980541	-0.461897	1
H	0.161549	-2.187571	-0.746857	1
H	-1.306311	-1.642501	-1.626327	1
H	-1.149151	0.541919	-0.839467	1
H	-1.010431	0.753709	2.217993	1
H	-2.422730	1.076569	1.219693	1
H	-0.995701	2.134369	1.102863	1
H	1.247300	-0.039321	1.086193	1
H	3.201149	0.962009	-1.573577	1
H	3.021529	1.476639	-0.045767	1
Es	-1.179609	-1.754582	-1.330029	99
Es	3.018396	0.892733	-1.228824	99
Es	-0.178530	-2.129828	-0.729033	99
Es	2.070253	0.742539	-0.763757	99
Es	-1.218261	-1.126929	0.389808	99
Es	-1.327640	1.098340	1.226561	99
Es	-1.246494	-2.676169	-0.528910	99
Es	-0.770457	0.200272	0.131334	99
Es	1.082921	0.073594	0.789684	99
Es	0.004692	0.241938	0.141783	99
Es	1.400372	0.728498	-0.872483	99
Es	-1.055930	-1.172227	0.473275	99
Es	1.133205	0.271998	-0.495611	99
Es	-1.107903	-1.429455	-0.033856	99
Es	-1.040029	0.651822	0.682463	99
Es	-1.100770	0.861263	1.897624	99
Es	-1.026614	-0.630276	0.254514	99
Es	2.823486	0.446995	-0.572808	99
Es	1.100369	0.812022	-0.309367	99
Es	-1.024750	0.431269	-0.536250	99
Es	-1.095302	1.798778	1.131976	99
Es	2.881119	1.172288	-0.306288	99
Es	-2.067372	1.085072	1.212326	99
Es	2.738676	0.733900	-0.689633	99
Es	0.745635	0.292329	0.157435	99
Es	-1.500291	-1.168970	0.564827	99
Es	-0.917661	-2.021137	-0.675691	99
Es	1.249939	0.826973	-1.205500	99
45
Properties=species:S:1:pos:R:3:Z:I:1 energy=-341.1089840555504 field_type=dipole dipole="0.000000 0.000000 0.000000" charge=0
C	-0.917610	-2.021281	-0.675857	6
O	-1.218360	-1.127041	0.390173	8
C	-0.770460	0.200469	0.131233	6
C	-1.327661	1.098349	1.226583	6
C	0.745669	0.292289	0.157413	6
N	1.400079	0.728639	-0.872997	7
N	2.738949	0.733299	-0.689397	7
H	-1.397810	-2.980541	-0.461897	1
H	0.161549	-2.187571	-0.746857	1
H	-1.306311	-1.642501	-1.626327	1
H	-1.149151	0.541919	-0.839467	1
H	-1.010431	0.753709	2.217993	1
H	-2.422730	1.076569	1.219693	1
H	-0.995701	2.134369	1.102863	1
H	1.247300	-0.039321	1.086193	1
H	3.201149	0.962009	-1.573577	1
H	3.021529	1.476639	-0.045767	1
Es	-1.179671	-1.754541	-1.329992	99
Es	1.133233	0.272183	-0.495683	99
Es	-1.040143	0.651835	0.682468	99
Es	1.400364	0.728485	-0.872446	99
Es	2.880172	1.172484	-0.307688	99
Es	-1.100572	0.861283	1.897699	99
Es	-1.246528	-2.676152	-0.528852	99
Es	1.100643	0.811568	-0.309191	99
Es	2.738655	0.733937	-0.689649	99
Es	-1.095256	1.798582	1.131812	99
Es	-1.025948	-0.630383	0.254618	99
Es	-2.067514	1.085142	1.212315	99
Es	-1.497699	-1.170596	0.568519	99
Es	1.082952	0.073695	0.789730	99
Es	2.824134	0.447842	-0.571708	99
Es	2.070323	0.741528	-0.763797	99
Es	-0.770457	0.200268	0.131336	99
Es	-1.108432	-1.429073	-0.033779	99
Es	1.249557	0.826985	-1.205395	99
Es	-0.178463	-2.129757	-0.729019	99
Es	0.745635	0.292330	0.157436	99
Es	-1.327639	1.098340	1.226561	99
Es	-1.058488	-1.170967	0.469654	99
Es	3.018737	0.892725	-1.228815	99
Es	0.004739	0.242064	0.141867	99
Es	-0.917661	-2.021137	-0.675691	99
Es	-1.218403	-1.126837	0.389548	99
Es	-1.024817	0.431220	-0.536289	99
45
Properties=species:S:1:pos:R:3:Z:I:1 energy=-341.1089840555504 field_type=dipole dipole="0.000000 0.000000 0.000000" charge=0
C	-0.917610	-2.021281	-0.675857	6
O	-1.218360	-1.127041	0.390173	8
C	-0.770460	0.200469	0.131233	6
C	-1.327661	1.098349	1.226583	6
C	0.745669	0.292289	0.157413	6
N	1.400079	0.728639	-0.872997	7
N	2.738949	0.733299	-0.689397	7
H	-1.397810	-2.980541	-0.461897	1
H	0.161549	-2.187571	-0.746857	1
H	-1.306311	-1.642501	-1.626327	1
H	-1.149151	0.541919	-0.839467	1
H	-1.010431	0.753709	2.217993	1
H	-2.422730	1.076569	1.219693	1
H	-0.995701	2.134369	1.102863	1
H	1.247300	-0.039321	1.086193	1
H	3.201149	0.962009	-1.573577	1
H	3.021529	1.476639	-0.045767	1
Es	-1.179935	-1.754575	-1.329797	99
Es	-2.067646	1.085200	1.212184	99
Es	-1.109299	-1.428832	-0.033168	99
Es	-0.178186	-2.129690	-0.729168	99
Es	-0.770457	0.200276	0.131335	99
Es	-1.062799	-1.168691	0.463763	99
Es	-1.218311	-1.126846	0.389584	99
Es	2.070304	0.742805	-0.763819	99
Es	-1.493483	-1.173070	0.574254	99
Es	-1.100482	0.861281	1.897789	99
Es	0.745635	0.292324	0.157435	99
Es	3.018855	0.893249	-1.228663	99
Es	-1.246581	-2.676031	-0.528784	99
Es	1.100659	0.811549	-0.309224	99
Es	1.400345	0.728484	-0.872449	99
Es	-0.917661	-2.021139	-0.675692	99
Es	-1.040026	0.651836	0.682376	99
Es	-1.095302	1.798360	1.131848	99
Es	-1.025083	-0.630491	0.254054	99
Es	-1.327638	1.098340	1.226559	99
Es	2.881285	1.170889	-0.306424	99
Es	1.082978	0.073654	0.789729	99
Es	1.133174	0.272281	-0.495618	99
Es	-1.025008	0.431267	-0.536153	99
Es	2.738676	0.733889	-0.689627	99
Es	1.249540	0.826999	-1.205136	99
Es	2.823016	0.447606	-0.573371	99
Es	0.004883	0.242125	0.141753	99
45
Properties=species:S:1:pos:R:3:Z:I:1 energy=-341.1089840555504 field_type=dipole dipole="0.000000 0.000000 0.000000" charge=0
C	-0.917610	-2.021281	-0.675857	6
O	-1.218360	-1.127041	0.390173	8
C	-0.770460	0.200469	0.131233	6
C	-1.327661	1.098349	1.226583	6
C	0.745669	0.292289	0.157413	6
N	1.400079	0.728639	-0.872997	7
N	2.738949	0.733299	-0.689397	7
H	-1.397810	-2.980541	-0.461897	1
H	0.161549	-2.187571	-0.746857	1
H	-1.306311	-1.642501	-1.626327	1
H	-1.149151	0.541919	-0.839467	1
H	-1.010431	0.753709	2.217993	1
H	-2.422730	1.076569	1.219693	1
H	-0.995701	2.134369	1.102863	1
H	1.247300	-0.039321	1.086193	1
H	3.201149	0.962009	-1.573577	1
H	3.021529	1.476639	-0.045767	1
Es	1.100829	0.811144	-0.309274	99
Es	1.133335	0.272630	-0.495358	99
Es	2.823298	0.448818	-0.572842	99
Es	-1.327637	1.098338	1.226562	99
Es	-1.064579	-1.167414	0.461413	99
Es	-1.095282	1.798333	1.131875	99
Es	1.083068	0.073767	0.789653	99
Es	-0.917661	-2.021136	-0.675690	99
Es	2.070200	0.741625	-0.763402	99
Es	0.004848	0.242112	0.141968	99
Es	-1.246685	-2.675953	-0.528623	99
Es	1.400358	0.728483	-0.872440	99
Es	-1.025111	-0.630546	0.253626	99
Es	2.880768	1.171090	-0.307200	99
Es	-1.179908	-1.754564	-1.329864	99
Es	1.249245	0.826948	-1.205520	99
Es	-1.100455	0.861248	1.897762	99
Es	3.019158	0.892976	-1.228696	99
Es	-0.178190	-2.129755	-0.729087	99
Es	-1.109005	-1.428785	-0.032767	99
Es	-0.770457	0.200275	0.131335	99
Es	0.745635	0.292324	0.157436	99
Es	-1.218247	-1.126909	0.389822	99
Es	-1.024975	0.431200	-0.536221	99
Es	-2.067689	1.085215	1.212219	99
Es	-1.040052	0.651826	0.682163	99
Es	-1.492020	-1.174163	0.576369	99
Es	2.738663	0.733924	-0.689647	99
45
Properties=species:S:1:pos:R:3:Z:I:1 energy=-341.1089840555504 field_type=dipole dipole="0.000000 0.000000 0.000000" charge=0
C	-0.917610	-2.021281	-0.675857	6
O	-1.218360	-1.127041	0.390173	8
C	-0.770460	0.200469	0.131233	6
C	-1.327661	1.098349	1.226583	6
C	0.745669	0.292289	0.157413	6
N	1.400079	0.728639	-0.872997	7
N	2.738949	0.733299	-0.689397	7
H	-1.397810	-2.980541	-0.461897	1
H	0.161549	-2.187571	-0.746857	1
H	-1.306311	-1.642501	-1.626327	1
H	-1.149151	0.541919	-0.839467	1
H	-1.010431	0.753709	2.217993	1
H	-2.422730	1.076569	1.219693	1
H	-0.995701	2.134369	1.102863	1
H	1.247300	-0.039321	1.086193	1
H	3.201149	0.962009	-1.573577	1
H	3.021529	1.476639	-0.045767	1
Es	2.070328	0.742193	-0.763742	99
Es	-1.065029	-1.168155	0.459296	99
Es	-1.111131	-1.427194	-0.033573	99
Es	-0.770457	0.200275	0.131333	99
Es	1.100843	0.811247	-0.309105	99
Es	-2.067696	1.085261	1.212083	99
Es	-1.490651	-1.174868	0.578220	99
Es	1.400374	0.728497	-0.872482	99
Es	2.880439	1.170362	-0.308038	99
Es	-0.178209	-2.129709	-0.728970	99
Es	-1.023912	-0.630749	0.254820	99
Es	3.019469	0.893353	-1.228574	99
Es	-1.246725	-2.675985	-0.528693	99
Es	-1.179793	-1.754501	-1.329887	99
Es	0.745635	0.292329	0.157436	99
Es	-1.039956	0.651869	0.682250	99
Es	1.133285	0.272465	-0.495532	99
Es	-1.327639	1.098339	1.226561	99
Es	1.082998	0.073757	0.789693	99
Es	0.004765	0.242215	0.142014	99
Es	1.249131	0.826745	-1.204905	99
Es	-0.917661	-2.021138	-0.675691	99
Es	-1.100449	0.861376	1.897951	99
Es	-1.095335	1.798166	1.131740	99
Es	-1.024870	0.431174	-0.536321	99
Es	2.738639	0.733981	-0.689665	99
Es	-1.218324	-1.126910	0.389744	99
Es	2.823382	0.448653	-0.572392	99
45
Properties=species:S:1:pos:R:3:Z:I:1 energy=-341.1089840555504 field_type=dipole dipole="0.000000 0.000000 0.000000" charge=0
C	-0.917610	-2.021281	-0.675857	6
O	-1.218360	-1.127041	0.390173	8
C	-0.770460	0.200469	0.131233	6
C	-1.327661	1.098349	1.226583	6
C	0.745669	0.292289	0.157413	6
N	1.400079	0.728639	-0.872997	7
N	2.738949	0.733299	-0.689397	7
H	-1.397810	-2.980541	-0.461897	1
H	0.161549	-2.187571	-0.746857	1
H	-1.306311	-1.642501	-1.626327	1
H	-1.149151	0.541919	-0.839467	1
H	-1.010431	0.753709	2.217993	1
H	-2.422730	1.076569	1.219693	1
H	-0.995701	2.134369	1.102863	1
H	1.247300	-0.039321	1.086193	1
H	3.201149	0.962009	-1.573577	1
H	3.021529	1.476639	-0.045767	1
Es	-0.178080	-2.129635	-0.729025	99
Es	2.738651	0.733943	-0.689652	99
Es	1.248930	0.827008	-1.205131	99
Es	2.880992	1.169584	-0.307290	99
Es	-1.246728	-2.675914	-0.528514	99
Es	1.133363	0.272564	-0.495341	99
Es	0.745635	0.292327	0.157436	99
Es	1.083083	0.073767	0.789636	99
Es	-1.039849	0.651970	0.681954	99
Es	-1.100291	0.861271	1.897851	99
Es	-1.109708	-1.428126	-0.032758	99
Es	-1.095367	1.798069	1.131902	99
Es	-0.770457	0.200273	0.131336	99
Es	-2.067846	1.085271	1.212138	99
Es	-1.488480	-1.176360	0.580888	99
Es	-0.917661	-2.021136	-0.675690	99
Es	-1.179983	-1.754532	-1.329829	99
Es	2.822747	0.449586	-0.573520	99
Es	1.400373	0.728496	-0.872475	99
Es	3.019613	0.893481	-1.228540	99
Es	1.101042	0.810855	-0.309221	99
Es	-1.024928	0.431179	-0.536340	99
Es	0.004767	0.242212	0.142097	99
Es	-1.218427	-1.126857	0.389629	99
Es	-1.024027	-0.630737	0.254144	99
Es	-1.327640	1.098341	1.226561	99
Es	2.070178	0.741941	-0.763272	99
Es	-1.068447	-1.165791	0.456595	99
45
Properties=species:S:1:pos:R:3:Z:I:1 energy=-341.1089840555504 field_type=dipole dipole="0.000000 0.000000 0.000000" charge=0
C	-0.917610	-2.021281	-0.675857	6
O	-1.218360	-1.127041	0.390173	8
C	-0.770460	0.200469	0.131233	6
C	-1.327661	1.098349	1.226583	6
C	0.745669	0.292289	0.157413	6
N	1.400079	0.728639	-0.872997	7
N	2.738949	0.733299	-0.689397	7
H	-1.397810	-2.980541	-0.461897	1
H	0.161549	-2.187571	-0.746857	1
H	-1.306311	-1.642501	-1.626327	1
H	-1.149151	0.541919	-0.839467	1
H	-1.010431	0.753709	2.217993	1
H	-2.422730	1.076569	1.219693	1
H	-0.995701	2.134369	1.102863	1
H	1.247300	-0.039321	1.086193	1
H	3.201149	0.962009	-1.573577	1
H	3.021529	1.476639	-0.045767	1
Es	0.745635	0.292329	0.157436	99
Es	-1.327639	1.098340	1.226560	99
Es	2.881006	1.169479	-0.307324	99
Es	2.738718	0.733777	-0.689582	99
Es	-1.218323	-1.126913	0.389745	99
Es	-0.917661	-2.021140	-0.675693	99
Es	-1.023529	-0.630868	0.253113	99
Es	1.100903	0.810882	-0.309310	99
Es	1.400347	0.728482	-0.872438	99
Es	-1.039732	0.651971	0.681928	99
Es	2.822652	0.449932	-0.573620	99
Es	3.019815	0.893404	-1.228422	99
Es	-1.110309	-1.428114	-0.031900	99
Es	-1.484285	-1.178504	0.585866	99
Es	1.133301	0.272937	-0.495272	99
Es	-1.246838	-2.675756	-0.528486	99
Es	-1.100102	0.861369	1.897852	99
Es	-1.072604	-1.163487	0.451608	99
Es	1.249000	0.826682	-1.205165	99
Es	-1.095394	1.797792	1.131915	99
Es	-0.770456	0.200274	0.131334	99
Es	0.004840	0.242329	0.142025	99
Es	-1.025127	0.431212	-0.536200	99
Es	-2.068116	1.085301	1.212086	99
Es	1.083159	0.073760	0.789597	99
Es	-1.180028	-1.754536	-1.329799	99
Es	2.070164	0.741849	-0.763295	99
Es	-0.177942	-2.129728	-0.728990	99
45
Properties=species:S:1:pos:R:3:Z:I:1 energy=-341.1089840555504 field_type=dipole dipole="0.000000 0.000000 0.000000" charge=0
C	-0.917610	-2.021281	-0.675857	6
O	-1.218360	-1.127041	0.390173	8
C	-0.770460	0.200469	0.131233	6
C	-1.327661	1.098349	1.226583	6
C	0.745669	0.292289	0.157413	6
N	1.400079	0.728639	-0.872997	7
N	2.738949	0.733299	-0.689397	7
H	-1.397810	-2.980541	-0.461897	1
H	0.161549	-2.187571	-0.746857	1
H	-1.306311	-1.642501	-1.626327	1
H	-1.149151	0.541919	-0.839467	1
H	-1.010431	0.753709	2.217993	1
H	-2.422730	1.076569	1.219693	1
H	-0.995701	2.134369	1.102863	1
H	1.247300	-0.039321	1.086193	1
H	3.201149	0.962009	-1.573577	1
H	3.021529	1.476639	-0.045767	1
Es	-1.095374	1.797824	1.131846	99
Es	3.019977	0.893717	-1.228362	99
Es	1.100918	0.810915	-0.309207	99
Es	-1.039666	0.651918	0.681877	99
Es	-2.068012	1.085322	1.212023	99
Es	-1.025102	0.431256	-0.536322	99
Es	-1.327639	1.098340	1.226560	99
Es	-1.218365	-1.126827	0.389573	99
Es	0.745634	0.292331	0.157437	99
Es	-0.770457	0.200276	0.131335	99
Es	-1.023719	-0.630831	0.253764	99
Es	0.004871	0.242261	0.142030	99
Es	-1.100164	0.861307	1.897948	99
Es	-0.178000	-2.129684	-0.728976	99
Es	1.083074	0.073820	0.789718	99
Es	-1.246888	-2.675766	-0.528316	99
Es	-0.917661	-2.021137	-0.675690	99
Es	-1.180050	-1.754459	-1.329832	99
Es	1.248893	0.826607	-1.204856	99
Es	-1.109668	-1.428175	-0.032358	99
Es	2.070179	0.741629	-0.763185	99
Es	1.400357	0.728483	-0.872439	99
Es	2.822464	0.450726	-0.573973	99
Es	2.738635	0.733906	-0.689654	99
Es	-1.072707	-1.163491	0.451854	99
Es	1.133366	0.272771	-0.495284	99
Es	2.881110	1.168590	-0.307523	99
Es	-1.484555	-1.178577	0.585582	99
