40
Properties=species:S:1:pos:R:3:Z:I:1 energy=-322.74366703877877 field_type=dipole dipole="0.000000 0.000000 0.000000" charge=0
C	-0.664932	-2.098608	0.546522	6
O	-0.713032	-1.355058	-0.666498	8
N	-0.159222	-0.097218	-0.436928	7
C	-0.869652	1.009022	-0.074538	6
C	0.018698	2.060652	0.013392	6
C	1.300458	1.561792	-0.340018	6
C	1.152588	0.221542	-0.632318	6
H	-1.103902	-3.082338	0.358262	1
H	-1.250052	-1.607208	1.330952	1
H	0.369118	-2.242818	0.876892	1
H	-1.936252	0.954402	0.088602	1
H	-0.229572	3.078882	0.285832	1
H	2.224858	2.122722	-0.390798	1
H	1.860898	-0.525768	-0.959358	1
Es	0.682297	1.863334	-0.154723	99
Es	-0.869633	1.008799	-0.074572	99
Es	-0.436354	1.613827	-0.326618	99
Es	-0.503739	0.354557	-0.396797	99
Es	-1.012269	-1.298953	-0.727702	99
Es	-1.060720	-1.759655	1.081496	99
Es	-1.585823	0.964426	0.036746	99
Es	-0.454399	-0.779803	-0.542336	99
Es	-0.036656	0.041049	-0.181503	99
Es	1.150197	0.995998	-0.764319	99
Es	-0.516645	-1.491310	-0.863622	99
Es	-0.159307	-0.097168	-0.437329	99
Es	-0.963346	-2.762056	0.410988	99
Es	0.040740	-2.192000	0.772712	99
Es	1.152413	0.221387	-0.632301	99
Es	1.624137	-0.286419	-0.849035	99
Es	-0.712924	-1.354970	-0.666216	99
Es	0.363630	0.016806	-0.633854	99
Es	0.018691	2.060670	0.013393	99
Es	1.924138	1.942986	-0.373361	99
Es	1.261667	0.862502	-0.170239	99
Es	-0.323080	1.480068	0.266907	99
Es	-0.664942	-2.098486	0.546315	99
Es	1.300476	1.561799	-0.340014	99
Es	-0.146819	2.749439	0.197585	99
Es	-0.679429	-1.605977	-0.194000	99
40
Properties=species:S:1:pos:R:3:Z:I:1 energy=-322.74366703877877 field_type=dipole dipole="0.000000 0.000000 0.000000" charge=0
C	-0.664932	-2.098608	0.546522	6
O	-0.713032	-1.355058	-0.666498	8
N	-0.159222	-0.097218	-0.436928	7
C	-0.869652	1.009022	-0.074538	6
C	0.018698	2.060652	0.013392	6
C	1.300458	1.561792	-0.340018	6
C	1.152588	0.221542	-0.632318	6
H	-1.103902	-3.082338	0.358262	1
H	-1.250052	-1.607208	1.330952	1
H	0.369118	-2.242818	0.876892	1
H	-1.936252	0.954402	0.088602	1
H	-0.229572	3.078882	0.285832	1
H	2.224858	2.122722	-0.390798	1
H	1.860898	-0.525768	-0.959358	1
Es	-0.508901	0.352677	-0.299323	99
Es	-1.586462	0.964675	0.037921	99
Es	-0.516161	-1.497053	-0.863310	99
Es	0.039684	-2.189828	0.772549	99
Es	1.145583	1.001852	-0.759884	99
Es	-0.869633	1.008796	-0.074581	99
Es	-0.712897	-1.354935	-0.666157	99
Es	0.018693	2.060670	0.013397	99
Es	-0.452347	-0.779494	-0.537246	99
Es	-0.664943	-2.098490	0.546320	99
Es	0.681083	1.859865	-0.154453	99
Es	-0.159311	-0.097385	-0.437035	99
Es	-0.077550	0.057460	-0.359314	99
Es	0.408242	-0.004615	-0.551240	99
Es	-0.679587	-1.600824	-0.198026	99
Es	-0.964547	-2.765061	0.410430	99
Es	-0.428092	1.614492	-0.325700	99
Es	-1.014065	-1.301230	-0.723354	99
Es	1.926028	1.943914	-0.374075	99
Es	1.625250	-0.286789	-0.848249	99
Es	-0.147786	2.751406	0.197692	99
Es	1.260885	0.864247	-0.177175	99
Es	1.152415	0.221387	-0.632303	99
Es	-0.324801	1.482073	0.260321	99
Es	1.300475	1.561804	-0.340019	99
Es	-1.058954	-1.758767	1.080415	99
40
Properties=species:S:1:pos:R:3:Z:I:1 energy=-322.74366703877877 field_type=dipole dipole="0.000000 0.000000 0.000000" charge=0
C	-0.664932	-2.098608	0.546522	6
O	-0.713032	-1.355058	-0.666498	8
N	-0.159222	-0.097218	-0.436928	7
C	-0.869652	1.009022	-0.074538	6
C	0.018698	2.060652	0.013392	6
C	1.300458	1.561792	-0.340018	6
C	1.152588	0.221542	-0.632318	6
H	-1.103902	-3.082338	0.358262	1
H	-1.250052	-1.607208	1.330952	1
H	0.369118	-2.242818	0.876892	1
H	-1.936252	0.954402	0.088602	1
H	-0.229572	3.078882	0.285832	1
H	2.224858	2.122722	-0.390798	1
H	1.860898	-0.525768	-0.959358	1
Es	-0.512212	-1.503663	-0.859884	99
Es	-1.057706	-1.758099	1.079608	99
Es	1.926871	1.944508	-0.374853	99
Es	-0.965380	-2.766534	0.410088	99
Es	0.039079	-2.188549	0.772186	99
Es	-0.421426	1.614621	-0.323678	99
Es	-0.085916	0.061718	-0.395707	99
Es	0.411962	-0.008705	-0.534138	99
Es	1.626054	-0.286700	-0.847495	99
Es	-0.452319	-0.778236	-0.535586	99
Es	-0.676796	-1.591806	-0.206282	99
Es	0.679679	1.857819	-0.156190	99
Es	1.143598	1.005125	-0.755329	99
Es	-0.869633	1.008793	-0.074578	99
Es	-0.326916	1.482331	0.257074	99
Es	-0.159239	-0.097441	-0.436654	99
Es	1.260095	0.864647	-0.180323	99
Es	1.300476	1.561806	-0.340022	99
Es	-0.712909	-1.354934	-0.666144	99
Es	-1.586568	0.965204	0.038919	99
Es	1.152415	0.221387	-0.632302	99
Es	-0.505941	0.348652	-0.280419	99
Es	-0.664942	-2.098491	0.546321	99
Es	-1.020542	-1.305877	-0.717666	99
Es	-0.148175	2.752597	0.197273	99
Es	0.018692	2.060677	0.013383	99
40
Properties=species:S:1:pos:R:3:Z:I:1 energy=-322.74366703877877 field_type=dipole dipole="0.000000 0.000000 0.000000" charge=0
C	-0.664932	-2.098608	0.546522	6
O	-0.713032	-1.355058	-0.666498	8
N	-0.159222	-0.097218	-0.436928	7
C	-0.869652	1.009022	-0.074538	6
C	0.018698	2.060652	0.013392	6
C	1.300458	1.561792	-0.340018	6
C	1.152588	0.221542	-0.632318	6
H	-1.103902	-3.082338	0.358262	1
H	-1.250052	-1.607208	1.330952	1
H	0.369118	-2.242818	0.876892	1
H	-1.936252	0.954402	0.088602	1
H	-0.229572	3.078882	0.285832	1
H	2.224858	2.122722	-0.390798	1
H	1.860898	-0.525768	-0.959358	1
Es	-0.451533	-0.777835	-0.535376	99
Es	-0.414802	1.615145	-0.321863	99
Es	1.261474	0.862401	-0.182964	99
Es	-0.505309	0.348030	-0.278383	99
Es	1.140054	1.009540	-0.750779	99
Es	-0.159322	-0.097376	-0.437054	99
Es	-0.676203	-1.573283	-0.226035	99
Es	0.412364	-0.009536	-0.530666	99
Es	-0.664942	-2.098496	0.546327	99
Es	1.927138	1.945187	-0.375579	99
Es	-0.965702	-2.767544	0.410064	99
Es	1.626376	-0.286596	-0.846925	99
Es	-0.148228	2.753401	0.196584	99
Es	0.018698	2.060677	0.013400	99
Es	-0.869635	1.008793	-0.074576	99
Es	0.678610	1.856595	-0.158706	99
Es	-0.504340	-1.517141	-0.850564	99
Es	-1.056826	-1.757713	1.078963	99
Es	-0.088032	0.060527	-0.401352	99
Es	-1.586413	0.965284	0.039698	99
Es	-0.329894	1.482078	0.255696	99
Es	1.152414	0.221385	-0.632300	99
Es	-1.029547	-1.311960	-0.705911	99
Es	0.038306	-2.187604	0.772010	99
Es	-0.712884	-1.354908	-0.666106	99
Es	1.300480	1.561800	-0.340000	99
40
Properties=species:S:1:pos:R:3:Z:I:1 energy=-322.74366703877877 field_type=dipole dipole="0.000000 0.000000 0.000000" charge=0
C	-0.664932	-2.098608	0.546522	6
O	-0.713032	-1.355058	-0.666498	8
N	-0.159222	-0.097218	-0.436928	7
C	-0.869652	1.009022	-0.074538	6
C	0.018698	2.060652	0.013392	6
C	1.300458	1.561792	-0.340018	6
C	1.152588	0.221542	-0.632318	6
H	-1.103902	-3.082338	0.358262	1
H	-1.250052	-1.607208	1.330952	1
H	0.369118	-2.242818	0.876892	1
H	-1.936252	0.954402	0.088602	1
H	-0.229572	3.078882	0.285832	1
H	2.224858	2.122722	-0.390798	1
H	1.860898	-0.525768	-0.959358	1
Es	1.626345	-0.286538	-0.846314	99
Es	-0.675880	-1.553211	-0.255120	99
Es	1.300478	1.561806	-0.340018	99
Es	0.037778	-2.187071	0.772022	99
Es	-0.147891	2.753920	0.196092	99
Es	-1.036858	-1.319948	-0.688651	99
Es	0.018695	2.060675	0.013398	99
Es	-0.159300	-0.097412	-0.436935	99
Es	1.135026	1.014953	-0.745366	99
Es	-0.712904	-1.354875	-0.666054	99
Es	1.927039	1.945851	-0.376003	99
Es	1.264843	0.858326	-0.187073	99
Es	-1.586149	0.965274	0.039869	99
Es	-0.451634	-0.777344	-0.536063	99
Es	0.411729	-0.009060	-0.532664	99
Es	-0.664942	-2.098493	0.546325	99
Es	-0.505229	0.347941	-0.278765	99
Es	-1.056013	-1.757798	1.078441	99
Es	-0.088431	0.058239	-0.399373	99
Es	1.152412	0.221384	-0.632302	99
Es	-0.403916	1.615180	-0.319832	99
Es	-0.337978	1.482288	0.253902	99
Es	-0.966047	-2.768116	0.410279	99
Es	-0.869635	1.008792	-0.074573	99
Es	0.677926	1.855882	-0.160092	99
Es	-0.497166	-1.529795	-0.837533	99
40
Properties=species:S:1:pos:R:3:Z:I:1 energy=-322.74366703877877 field_type=dipole dipole="0.000000 0.000000 0.000000" charge=0
C	-0.664932	-2.098608	0.546522	6
O	-0.713032	-1.355058	-0.666498	8
N	-0.159222	-0.097218	-0.436928	7
C	-0.869652	1.009022	-0.074538	6
C	0.018698	2.060652	0.013392	6
C	1.300458	1.561792	-0.340018	6
C	1.152588	0.221542	-0.632318	6
H	-1.103902	-3.082338	0.358262	1
H	-1.250052	-1.607208	1.330952	1
H	0.369118	-2.242818	0.876892	1
H	-1.936252	0.954402	0.088602	1
H	-0.229572	3.078882	0.285832	1
H	2.224858	2.122722	-0.390798	1
H	1.860898	-0.525768	-0.959358	1
Es	1.300479	1.561805	-0.340013	99
Es	1.270804	0.852812	-0.196506	99
Es	-0.505157	0.347798	-0.278583	99
Es	-0.147370	2.754290	0.195701	99
Es	-0.966112	-2.768533	0.410562	99
Es	-1.039733	-1.324565	-0.675459	99
Es	1.127866	1.021871	-0.735592	99
Es	-0.451506	-0.777191	-0.536761	99
Es	1.152413	0.221387	-0.632301	99
Es	-1.585899	0.965205	0.039900	99
Es	0.411824	-0.009407	-0.531678	99
Es	-1.055438	-1.757970	1.078229	99
Es	-0.493900	-1.536961	-0.829172	99
Es	0.037213	-2.186785	0.772029	99
Es	0.677690	1.855040	-0.159579	99
Es	-0.676349	-1.541301	-0.275928	99
Es	-0.159331	-0.097338	-0.437144	99
Es	1.626102	-0.286421	-0.846105	99
Es	-0.712907	-1.354944	-0.666203	99
Es	0.018696	2.060674	0.013404	99
Es	-0.664942	-2.098492	0.546322	99
Es	-0.390613	1.613680	-0.315027	99
Es	-0.089057	0.057119	-0.400360	99
Es	-0.349576	1.483753	0.248533	99
Es	1.926739	1.946532	-0.376095	99
Es	-0.869635	1.008791	-0.074573	99
40
Properties=species:S:1:pos:R:3:Z:I:1 energy=-322.74366703877877 field_type=dipole dipole="0.000000 0.000000 0.000000" charge=0
C	-0.664932	-2.098608	0.546522	6
O	-0.713032	-1.355058	-0.666498	8
N	-0.159222	-0.097218	-0.436928	7
C	-0.869652	1.009022	-0.074538	6
C	0.018698	2.060652	0.013392	6
C	1.300458	1.561792	-0.340018	6
C	1.152588	0.221542	-0.632318	6
H	-1.103902	-3.082338	0.358262	1
H	-1.250052	-1.607208	1.330952	1
H	0.369118	-2.242818	0.876892	1
H	-1.936252	0.954402	0.088602	1
H	-0.229572	3.078882	0.285832	1
H	2.224858	2.122722	-0.390798	1
H	1.860898	-0.525768	-0.959358	1
Es	-0.869635	1.008792	-0.074574	99
Es	-0.966032	-2.768873	0.410620	99
Es	1.300476	1.561808	-0.340028	99
Es	-1.039945	-1.326266	-0.669189	99
Es	-0.088380	0.055259	-0.397610	99
Es	-0.385587	1.612609	-0.312529	99
Es	-0.451393	-0.777030	-0.536894	99
Es	-1.055153	-1.757805	1.078138	99
Es	-0.676727	-1.536513	-0.285277	99
Es	-0.159269	-0.097442	-0.436806	99
Es	-1.585625	0.965097	0.040100	99
Es	1.926608	1.946996	-0.376087	99
Es	-0.505340	0.347916	-0.279867	99
Es	1.152414	0.221386	-0.632301	99
Es	0.018695	2.060674	0.013402	99
Es	1.625941	-0.286304	-0.846279	99
Es	1.276887	0.848058	-0.212819	99
Es	1.120791	1.028585	-0.718787	99
Es	-0.146986	2.754483	0.195718	99
Es	0.036700	-2.186551	0.771936	99
Es	-0.353751	1.483991	0.245744	99
Es	-0.664942	-2.098491	0.546320	99
Es	0.677542	1.854514	-0.159422	99
Es	-0.712908	-1.354902	-0.666066	99
Es	0.411229	-0.008778	-0.533971	99
Es	-0.493308	-1.540364	-0.825871	99
40
Properties=species:S:1:pos:R:3:Z:I:1 energy=-322.74366703877877 field_type=dipole dipole="0.000000 0.000000 0.000000" charge=0
C	-0.664932	-2.098608	0.546522	6
O	-0.713032	-1.355058	-0.666498	8
N	-0.159222	-0.097218	-0.436928	7
C	-0.869652	1.009022	-0.074538	6
C	0.018698	2.060652	0.013392	6
C	1.300458	1.561792	-0.340018	6
C	1.152588	0.221542	-0.632318	6
H	-1.103902	-3.082338	0.358262	1
H	-1.250052	-1.607208	1.330952	1
H	0.369118	-2.242818	0.876892	1
H	-1.936252	0.954402	0.088602	1
H	-0.229572	3.078882	0.285832	1
H	2.224858	2.122722	-0.390798	1
H	1.860898	-0.525768	-0.959358	1
Es	-0.146552	2.754715	0.195420	99
Es	-0.089694	0.055442	-0.400301	99
Es	-0.451728	-0.776788	-0.537329	99
Es	1.625755	-0.286311	-0.845787	99
Es	-0.966170	-2.769065	0.410904	99
Es	-1.054668	-1.758396	1.077840	99
Es	1.926411	1.947366	-0.376012	99
Es	-0.505147	0.347597	-0.278571	99
Es	-0.712878	-1.354919	-0.666115	99
Es	1.121413	1.027518	-0.722694	99
Es	-0.664943	-2.098490	0.546318	99
Es	1.152412	0.221388	-0.632306	99
Es	-0.362115	1.485961	0.239013	99
Es	-0.159319	-0.097394	-0.437034	99
Es	-1.585428	0.965083	0.039839	99
Es	0.411533	-0.009329	-0.532235	99
Es	-0.489041	-1.545019	-0.814865	99
Es	-0.375316	1.611616	-0.305697	99
Es	0.036405	-2.186391	0.772149	99
Es	-0.869635	1.008793	-0.074579	99
Es	0.018694	2.060677	0.013396	99
Es	-1.042052	-1.331471	-0.661158	99
Es	1.300479	1.561804	-0.340010	99
Es	0.677265	1.854396	-0.160118	99
Es	-0.678610	-1.526323	-0.303963	99
Es	1.275229	0.848390	-0.208503	99
40
Properties=species:S:1:pos:R:3:Z:I:1 energy=-322.74366703877877 field_type=dipole dipole="0.000000 0.000000 0.000000" charge=0
C	-0.664932	-2.098608	0.546522	6
O	-0.713032	-1.355058	-0.666498	8
N	-0.159222	-0.097218	-0.436928	7
C	-0.869652	1.009022	-0.074538	6
C	0.018698	2.060652	0.013392	6
C	1.300458	1.561792	-0.340018	6
C	1.152588	0.221542	-0.632318	6
H	-1.103902	-3.082338	0.358262	1
H	-1.250052	-1.607208	1.330952	1
H	0.369118	-2.242818	0.876892	1
H	-1.936252	0.954402	0.088602	1
H	-0.229572	3.078882	0.285832	1
H	2.224858	2.122722	-0.390798	1
H	1.860898	-0.525768	-0.959358	1
Es	-0.159292	-0.097429	-0.436859	99
Es	-1.054405	-1.758320	1.077934	99
Es	-0.505021	0.347283	-0.277443	99
Es	1.625550	-0.286151	-0.846057	99
Es	-0.360435	1.484921	0.240530	99
Es	-0.869634	1.008792	-0.074573	99
Es	0.411254	-0.009137	-0.533347	99
Es	-0.146156	2.754843	0.195471	99
Es	1.300478	1.561807	-0.340021	99
Es	-0.712842	-1.354934	-0.666079	99
Es	-0.089272	0.054689	-0.400817	99
Es	-0.376932	1.611408	-0.307459	99
Es	1.926284	1.947730	-0.375974	99
Es	1.152414	0.221385	-0.632299	99
Es	1.116468	1.032311	-0.706318	99
Es	-0.488513	-1.547228	-0.812005	99
Es	-1.585172	0.964953	0.040176	99
Es	0.035796	-2.186421	0.772043	99
Es	-0.679192	-1.523479	-0.309371	99
Es	1.279602	0.845609	-0.224534	99
Es	-1.041778	-1.332075	-0.658514	99
Es	-0.966066	-2.769285	0.410968	99
Es	-0.664942	-2.098490	0.546319	99
Es	-0.451740	-0.776666	-0.537461	99
Es	0.018692	2.060678	0.013388	99
Es	0.677157	1.854056	-0.160096	99
40
Properties=species:S:1:pos:R:3:Z:I:1 energy=-322.74366703877877 field_type=dipole dipole="0.000000 0.000000 0.000000" charge=0
C	-0.664932	-2.098608	0.546522	6
O	-0.713032	-1.355058	-0.666498	8
N	-0.159222	-0.097218	-0.436928	7
C	-0.869652	1.009022	-0.074538	6
C	0.018698	2.060652	0.013392	6
C	1.300458	1.561792	-0.340018	6
C	1.152588	0.221542	-0.632318	6
H	-1.103902	-3.082338	0.358262	1
H	-1.250052	-1.607208	1.330952	1
H	0.369118	-2.242818	0.876892	1
H	-1.936252	0.954402	0.088602	1
H	-0.229572	3.078882	0.285832	1
H	2.224858	2.122722	-0.390798	1
H	1.860898	-0.525768	-0.959358	1
Es	-0.869635	1.008791	-0.074574	99
Es	1.152414	0.221385	-0.632299	99
Es	-0.488246	-1.547414	-0.811256	99
Es	-0.145962	2.754917	0.195429	99
Es	-0.358927	1.607636	-0.290394	99
Es	-0.680403	-1.525691	-0.302918	99
Es	1.116401	1.031161	-0.708658	99
Es	-0.966255	-2.769342	0.411096	99
Es	1.300477	1.561806	-0.340021	99
Es	-0.159291	-0.097425	-0.436880	99
Es	-1.054186	-1.758493	1.077618	99
Es	-1.585135	0.964929	0.039822	99
Es	-0.664945	-2.098494	0.546330	99
Es	-0.090250	0.054115	-0.398049	99
Es	0.035854	-2.186257	0.772139	99
Es	-0.505320	0.347880	-0.280330	99
Es	0.411282	-0.009300	-0.533071	99
Es	0.677321	1.853661	-0.159720	99
Es	0.018694	2.060677	0.013396	99
Es	1.278931	0.845523	-0.222354	99
Es	-0.376550	1.490049	0.223323	99
Es	-0.712892	-1.354919	-0.666051	99
Es	-1.040838	-1.329665	-0.665868	99
Es	-0.451861	-0.776613	-0.537370	99
Es	1.926170	1.948002	-0.375784	99
Es	1.625452	-0.286073	-0.845958	99
40
Properties=species:S:1:pos:R:3:Z:I:1 energy=-322.74366703877877 field_type=dipole dipole="0.000000 0.000000 0.000000" charge=0
C	-0.664932	-2.098608	0.546522	6
O	-0.713032	-1.355058	-0.666498	8
N	-0.159222	-0.097218	-0.436928	7
C	-0.869652	1.009022	-0.074538	6
C	0.018698	2.060652	0.013392	6
C	1.300458	1.561792	-0.340018	6
C	1.152588	0.221542	-0.632318	6
H	-1.103902	-3.082338	0.358262	1
H	-1.250052	-1.607208	1.330952	1
H	0.369118	-2.242818	0.876892	1
H	-1.936252	0.954402	0.088602	1
H	-0.229572	3.078882	0.285832	1
H	2.224858	2.122722	-0.390798	1
H	1.860898	-0.525768	-0.959358	1
Es	1.113007	1.035112	-0.691784	99
Es	1.300474	1.561810	-0.340038	99
Es	-0.088679	0.052982	-0.398348	99
Es	-0.370918	1.610005	-0.302983	99
Es	-0.159155	-0.097450	-0.436376	99
Es	-0.678166	-1.521310	-0.315999	99
Es	0.410840	-0.008840	-0.534725	99
Es	0.035586	-2.186082	0.772015	99
Es	-0.664943	-2.098492	0.546321	99
Es	-1.042231	-1.335741	-0.650887	99
Es	-0.488949	-1.545848	-0.813057	99
Es	-0.869634	1.008791	-0.074573	99
Es	-0.145698	2.755071	0.195349	99
Es	-0.712801	-1.355014	-0.665901	99
Es	-1.584926	0.964962	0.039891	99
Es	1.925981	1.948280	-0.375881	99
Es	-1.054058	-1.758498	1.077646	99
Es	-0.452054	-0.776425	-0.537482	99
Es	-0.365247	1.485943	0.235985	99
Es	0.676833	1.853687	-0.160285	99
Es	-0.966086	-2.769545	0.411160	99
Es	0.018692	2.060678	0.013385	99
Es	-0.505331	0.347549	-0.279337	99
Es	1.282022	0.843902	-0.238287	99
Es	1.152415	0.221386	-0.632300	99
Es	1.625329	-0.286063	-0.845909	99
40
Properties=species:S:1:pos:R:3:Z:I:1 energy=-322.74366703877877 field_type=dipole dipole="0.000000 0.000000 0.000000" charge=0
C	-0.664932	-2.098608	0.546522	6
O	-0.713032	-1.355058	-0.666498	8
N	-0.159222	-0.097218	-0.436928	7
C	-0.869652	1.009022	-0.074538	6
C	0.018698	2.060652	0.013392	6
C	1.300458	1.561792	-0.340018	6
C	1.152588	0.221542	-0.632318	6
H	-1.103902	-3.082338	0.358262	1
H	-1.250052	-1.607208	1.330952	1
H	0.369118	-2.242818	0.876892	1
H	-1.936252	0.954402	0.088602	1
H	-0.229572	3.078882	0.285832	1
H	2.224858	2.122722	-0.390798	1
H	1.860898	-0.525768	-0.959358	1
Es	-0.712946	-1.354871	-0.666070	99
Es	-1.584838	0.964879	0.039814	99
Es	0.018694	2.060677	0.013394	99
Es	1.925892	1.948471	-0.375751	99
Es	-0.505248	0.347365	-0.278913	99
Es	-0.680148	-1.522442	-0.309656	99
Es	-0.664942	-2.098489	0.546318	99
Es	-0.451701	-0.776535	-0.537572	99
Es	0.035226	-2.186192	0.772133	99
Es	-0.869635	1.008792	-0.074578	99
Es	1.152414	0.221386	-0.632300	99
Es	-0.966143	-2.769588	0.411219	99
Es	-1.041054	-1.331605	-0.661008	99
Es	-0.488089	-1.548665	-0.809101	99
Es	1.300481	1.561802	-0.340003	99
Es	-1.053914	-1.758587	1.077575	99
Es	-0.357618	1.606743	-0.289792	99
Es	-0.377453	1.489887	0.222256	99
Es	1.625220	-0.285923	-0.845990	99
Es	-0.159201	-0.097454	-0.436521	99
Es	0.677029	1.853278	-0.159518	99
Es	1.281920	0.843797	-0.237503	99
Es	-0.090012	0.053426	-0.399793	99
Es	0.411157	-0.009206	-0.533346	99
Es	1.112632	1.034778	-0.693060	99
Es	-0.145424	2.755127	0.195367	99
40
Properties=species:S:1:pos:R:3:Z:I:1 energy=-322.74366703877877 field_type=dipole dipole="0.000000 0.000000 0.000000" charge=0
C	-0.664932	-2.098608	0.546522	6
O	-0.713032	-1.355058	-0.666498	8
N	-0.159222	-0.097218	-0.436928	7
C	-0.869652	1.009022	-0.074538	6
C	0.018698	2.060652	0.013392	6
C	1.300458	1.561792	-0.340018	6
C	1.152588	0.221542	-0.632318	6
H	-1.103902	-3.082338	0.358262	1
H	-1.250052	-1.607208	1.330952	1
H	0.369118	-2.242818	0.876892	1
H	-1.936252	0.954402	0.088602	1
H	-0.229572	3.078882	0.285832	1
H	2.224858	2.122722	-0.390798	1
H	1.860898	-0.525768	-0.959358	1
Es	1.625141	-0.285936	-0.845878	99
Es	-0.966212	-2.769663	0.411287	99
Es	-0.353266	1.605557	-0.284593	99
Es	-0.381285	1.491300	0.217170	99
Es	-0.869634	1.008790	-0.074573	99
Es	1.282954	0.843068	-0.245667	99
Es	1.111116	1.035497	-0.684521	99
Es	-0.664943	-2.098494	0.546325	99
Es	-0.090038	0.053022	-0.399728	99
Es	-0.145182	2.755210	0.195343	99
Es	-1.584769	0.964838	0.039681	99
Es	-0.159120	-0.097441	-0.436223	99
Es	-0.505346	0.347620	-0.279935	99
Es	-1.041335	-1.332335	-0.659495	99
Es	0.676860	1.853123	-0.159859	99
Es	0.035369	-2.185982	0.772044	99
Es	-0.712904	-1.354917	-0.666144	99
Es	1.152415	0.221386	-0.632298	99
Es	0.018692	2.060679	0.013388	99
Es	0.411242	-0.009396	-0.532796	99
Es	1.925787	1.948691	-0.375586	99
Es	-1.053786	-1.758559	1.077443	99
Es	-0.677771	-1.526434	-0.303998	99
Es	1.300477	1.561807	-0.340025	99
Es	-0.490386	-1.544070	-0.816287	99
Es	-0.451773	-0.776512	-0.537474	99
40
Properties=species:S:1:pos:R:3:Z:I:1 energy=-322.74366703877877 field_type=dipole dipole="0.000000 0.000000 0.000000" charge=0
C	-0.664932	-2.098608	0.546522	6
O	-0.713032	-1.355058	-0.666498	8
N	-0.159222	-0.097218	-0.436928	7
C	-0.869652	1.009022	-0.074538	6
C	0.018698	2.060652	0.013392	6
C	1.300458	1.561792	-0.340018	6
C	1.152588	0.221542	-0.632318	6
H	-1.103902	-3.082338	0.358262	1
H	-1.250052	-1.607208	1.330952	1
H	0.369118	-2.242818	0.876892	1
H	-1.936252	0.954402	0.088602	1
H	-0.229572	3.078882	0.285832	1
H	2.224858	2.122722	-0.390798	1
H	1.860898	-0.525768	-0.959358	1
Es	1.111197	1.036729	-0.682898	99
Es	-0.869634	1.008792	-0.074575	99
Es	1.152415	0.221385	-0.632297	99
Es	-0.681961	-1.518393	-0.317241	99
Es	-0.159307	-0.097416	-0.436932	99
Es	1.625009	-0.285757	-0.846033	99
Es	-1.584630	0.964817	0.039951	99
Es	-0.451803	-0.776387	-0.538065	99
Es	1.925757	1.948808	-0.375681	99
Es	0.676592	1.853294	-0.160674	99
Es	0.410734	-0.008877	-0.535094	99
Es	-1.040384	-1.331168	-0.659099	99
Es	-0.505264	0.347198	-0.278623	99
Es	-0.966227	-2.769745	0.411386	99
Es	-0.358016	1.606420	-0.290463	99
Es	-0.089437	0.052468	-0.398057	99
Es	-0.487062	-1.552886	-0.803611	99
Es	-1.053550	-1.758654	1.077456	99
Es	1.283035	0.843233	-0.246633	99
Es	0.034869	-2.186125	0.772075	99
Es	-0.376500	1.488980	0.223269	99
Es	-0.145044	2.755252	0.195343	99
Es	-0.712714	-1.355113	-0.665584	99
Es	-0.664942	-2.098493	0.546322	99
Es	0.018692	2.060678	0.013386	99
Es	1.300475	1.561807	-0.340029	99
40
Properties=species:S:1:pos:R:3:Z:I:1 energy=-322.74366703877877 field_type=dipole dipole="0.000000 0.000000 0.000000" charge=0
C	-0.664932	-2.098608	0.546522	6
O	-0.713032	-1.355058	-0.666498	8
N	-0.159222	-0.097218	-0.436928	7
C	-0.869652	1.009022	-0.074538	6
C	0.018698	2.060652	0.013392	6
C	1.300458	1.561792	-0.340018	6
C	1.152588	0.221542	-0.632318	6
H	-1.103902	-3.082338	0.358262	1
H	-1.250052	-1.607208	1.330952	1
H	0.369118	-2.242818	0.876892	1
H	-1.936252	0.954402	0.088602	1
H	-0.229572	3.078882	0.285832	1
H	2.224858	2.122722	-0.390798	1
H	1.860898	-0.525768	-0.959358	1
Es	-0.159294	-0.097423	-0.436900	99
Es	-0.488733	-1.547195	-0.810676	99
Es	-0.451738	-0.776470	-0.537734	99
Es	-0.091324	0.053131	-0.398704	99
Es	-0.505493	0.347648	-0.280626	99
Es	0.676776	1.852891	-0.160107	99
Es	-0.144807	2.755334	0.195223	99
Es	-1.584581	0.964837	0.039704	99
Es	1.111536	1.034094	-0.691120	99
Es	1.300478	1.561806	-0.340020	99
Es	-0.966209	-2.769787	0.411433	99
Es	-0.341767	1.602870	-0.270352	99
Es	-1.053594	-1.758812	1.077238	99
Es	1.281807	0.843176	-0.239193	99
Es	-0.679576	-1.523527	-0.307556	99
Es	0.034969	-2.185951	0.772212	99
Es	1.624943	-0.285766	-0.845806	99
Es	-0.869634	1.008791	-0.074573	99
Es	-1.041071	-1.331743	-0.661413	99
Es	0.018692	2.060680	0.013381	99
Es	-0.712909	-1.354982	-0.666217	99
Es	-0.664941	-2.098497	0.546330	99
Es	-0.390718	1.495095	0.202963	99
Es	0.411422	-0.009747	-0.532052	99
Es	1.152415	0.221385	-0.632297	99
Es	1.925655	1.949010	-0.375537	99
40
Properties=species:S:1:pos:R:3:Z:I:1 energy=-322.74366703877877 field_type=dipole dipole="0.000000 0.000000 0.000000" charge=0
C	-0.664932	-2.098608	0.546522	6
O	-0.713032	-1.355058	-0.666498	8
N	-0.159222	-0.097218	-0.436928	7
C	-0.869652	1.009022	-0.074538	6
C	0.018698	2.060652	0.013392	6
C	1.300458	1.561792	-0.340018	6
C	1.152588	0.221542	-0.632318	6
H	-1.103902	-3.082338	0.358262	1
H	-1.250052	-1.607208	1.330952	1
H	0.369118	-2.242818	0.876892	1
H	-1.936252	0.954402	0.088602	1
H	-0.229572	3.078882	0.285832	1
H	2.224858	2.122722	-0.390798	1
H	1.860898	-0.525768	-0.959358	1
Es	1.624886	-0.285714	-0.845911	99
Es	-0.089038	0.051964	-0.399021	99
Es	-0.451661	-0.776487	-0.537749	99
Es	-0.159297	-0.097415	-0.436939	99
Es	0.676497	1.852948	-0.160293	99
Es	-1.040456	-1.331154	-0.659045	99
Es	1.925565	1.949117	-0.375473	99
Es	-1.053455	-1.758803	1.077327	99
Es	1.284989	0.842699	-0.265454	99
Es	-0.966161	-2.769859	0.411450	99
Es	-0.144705	2.755366	0.195325	99
Es	-0.379293	1.489905	0.219822	99
Es	-0.355211	1.605050	-0.287548	99
Es	-0.712806	-1.354960	-0.666077	99
Es	0.018693	2.060679	0.013385	99
Es	-0.679337	-1.523061	-0.308742	99
Es	-0.869634	1.008791	-0.074572	99
Es	0.410822	-0.009144	-0.534440	99
Es	1.300476	1.561808	-0.340025	99
Es	-1.584472	0.964765	0.039757	99
Es	-0.505235	0.347212	-0.278677	99
Es	1.152415	0.221386	-0.632299	99
Es	0.034647	-2.186025	0.772164	99
Es	-0.489600	-1.548156	-0.811901	99
Es	1.108614	1.038431	-0.663786	99
Es	-0.664942	-2.098493	0.546323	99
40
Properties=species:S:1:pos:R:3:Z:I:1 energy=-322.74366703877877 field_type=dipole dipole="0.000000 0.000000 0.000000" charge=0
C	-0.664932	-2.098608	0.546522	6
O	-0.713032	-1.355058	-0.666498	8
N	-0.159222	-0.097218	-0.436928	7
C	-0.869652	1.009022	-0.074538	6
C	0.018698	2.060652	0.013392	6
C	1.300458	1.561792	-0.340018	6
C	1.152588	0.221542	-0.632318	6
H	-1.103902	-3.082338	0.358262	1
H	-1.250052	-1.607208	1.330952	1
H	0.369118	-2.242818	0.876892	1
H	-1.936252	0.954402	0.088602	1
H	-0.229572	3.078882	0.285832	1
H	2.224858	2.122722	-0.390798	1
H	1.860898	-0.525768	-0.959358	1
Es	-0.505550	0.347451	-0.280207	99
Es	1.300475	1.561809	-0.340033	99
Es	0.676675	1.852677	-0.159774	99
Es	-0.090462	0.052360	-0.398646	99
Es	-0.144522	2.755416	0.195219	99
Es	-0.451382	-0.776531	-0.537768	99
Es	-0.712883	-1.354916	-0.666128	99
Es	1.925515	1.949235	-0.375427	99
Es	-0.966288	-2.769863	0.411535	99
Es	-1.053301	-1.758936	1.077181	99
Es	1.152415	0.221386	-0.632301	99
Es	1.283791	0.842600	-0.253464	99
Es	-1.584368	0.964855	0.039646	99
Es	-0.389419	1.494195	0.205151	99
Es	-0.489814	-1.547340	-0.811970	99
Es	-0.679291	-1.523619	-0.307387	99
Es	-0.869634	1.008791	-0.074571	99
Es	-1.040619	-1.331400	-0.660130	99
Es	-0.343449	1.602558	-0.272891	99
Es	0.411104	-0.009453	-0.533136	99
Es	1.624777	-0.285729	-0.845847	99
Es	-0.664943	-2.098493	0.546321	99
Es	-0.159268	-0.097440	-0.436784	99
Es	0.018694	2.060677	0.013394	99
Es	0.034771	-2.185930	0.772162	99
Es	1.109281	1.036486	-0.676546	99
40
Properties=species:S:1:pos:R:3:Z:I:1 energy=-322.74366703877877 field_type=dipole dipole="0.000000 0.000000 0.000000" charge=0
C	-0.664932	-2.098608	0.546522	6
O	-0.713032	-1.355058	-0.666498	8
N	-0.159222	-0.097218	-0.436928	7
C	-0.869652	1.009022	-0.074538	6
C	0.018698	2.060652	0.013392	6
C	1.300458	1.561792	-0.340018	6
C	1.152588	0.221542	-0.632318	6
H	-1.103902	-3.082338	0.358262	1
H	-1.250052	-1.607208	1.330952	1
H	0.369118	-2.242818	0.876892	1
H	-1.936252	0.954402	0.088602	1
H	-0.229572	3.078882	0.285832	1
H	2.224858	2.122722	-0.390798	1
H	1.860898	-0.525768	-0.959358	1
Es	1.282998	0.842606	-0.248327	99
Es	-0.680456	-1.520536	-0.313025	99
Es	0.018693	2.060677	0.013392	99
Es	1.300476	1.561808	-0.340029	99
Es	1.624740	-0.285622	-0.845784	99
Es	-0.091276	0.052729	-0.399739	99
Es	-0.712855	-1.354903	-0.666025	99
Es	0.034571	-2.185952	0.772155	99
Es	-0.451891	-0.776318	-0.537722	99
Es	-0.505346	0.347246	-0.279178	99
Es	-1.053144	-1.759037	1.077156	99
Es	0.411192	-0.009646	-0.532877	99
Es	-0.664942	-2.098493	0.546323	99
Es	-0.144312	2.755475	0.195195	99
Es	-0.340794	1.602355	-0.269551	99
Es	-0.159273	-0.097440	-0.436804	99
Es	-0.487659	-1.548950	-0.806902	99
Es	-1.584386	0.964818	0.039651	99
Es	-0.966299	-2.769912	0.411618	99
Es	1.925433	1.949392	-0.375399	99
Es	0.676441	1.852617	-0.160619	99
Es	-1.041094	-1.332917	-0.659835	99
Es	-0.391116	1.495003	0.202266	99
Es	-0.869634	1.008791	-0.074573	99
Es	1.152415	0.221385	-0.632295	99
Es	1.109819	1.035675	-0.681472	99
40
Properties=species:S:1:pos:R:3:Z:I:1 energy=-322.74366703877877 field_type=dipole dipole="0.000000 0.000000 0.000000" charge=0
C	-0.664932	-2.098608	0.546522	6
O	-0.713032	-1.355058	-0.666498	8
N	-0.159222	-0.097218	-0.436928	7
C	-0.869652	1.009022	-0.074538	6
C	0.018698	2.060652	0.013392	6
C	1.300458	1.561792	-0.340018	6
C	1.152588	0.221542	-0.632318	6
H	-1.103902	-3.082338	0.358262	1
H	-1.250052	-1.607208	1.330952	1
H	0.369118	-2.242818	0.876892	1
H	-1.936252	0.954402	0.088602	1
H	-0.229572	3.078882	0.285832	1
H	2.224858	2.122722	-0.390798	1
H	1.860898	-0.525768	-0.959358	1
Es	1.284869	0.842505	-0.265450	99
Es	-0.712848	-1.354945	-0.665909	99
Es	-0.089880	0.051981	-0.399630	99
Es	-0.489364	-1.547095	-0.811767	99
Es	-0.144254	2.755525	0.195148	99
Es	0.034411	-2.185955	0.772123	99
Es	-0.159317	-0.097393	-0.437027	99
Es	1.300477	1.561807	-0.340023	99
Es	-0.384886	1.492038	0.211957	99
Es	-0.505465	0.347368	-0.279680	99
Es	-0.966299	-2.769960	0.411590	99
Es	1.925345	1.949500	-0.375483	99
Es	-1.584242	0.964801	0.039698	99
Es	-0.451906	-0.776325	-0.537869	99
Es	1.624699	-0.285652	-0.845855	99
Es	-0.348241	1.603639	-0.279626	99
Es	1.152414	0.221386	-0.632302	99
Es	-0.664944	-2.098492	0.546318	99
Es	-1.053060	-1.759036	1.077138	99
Es	0.411189	-0.009720	-0.532574	99
Es	0.018694	2.060677	0.013395	99
Es	0.676340	1.852613	-0.160398	99
Es	-1.041107	-1.333591	-0.655463	99
Es	-0.678641	-1.521627	-0.312455	99
Es	-0.869634	1.008791	-0.074572	99
Es	1.107952	1.038006	-0.663682	99
40
Properties=species:S:1:pos:R:3:Z:I:1 energy=-322.74366703877877 field_type=dipole dipole="0.000000 0.000000 0.000000" charge=0
C	-0.664932	-2.098608	0.546522	6
O	-0.713032	-1.355058	-0.666498	8
N	-0.159222	-0.097218	-0.436928	7
C	-0.869652	1.009022	-0.074538	6
C	0.018698	2.060652	0.013392	6
C	1.300458	1.561792	-0.340018	6
C	1.152588	0.221542	-0.632318	6
H	-1.103902	-3.082338	0.358262	1
H	-1.250052	-1.607208	1.330952	1
H	0.369118	-2.242818	0.876892	1
H	-1.936252	0.954402	0.088602	1
H	-0.229572	3.078882	0.285832	1
H	2.224858	2.122722	-0.390798	1
H	1.860898	-0.525768	-0.959358	1
Es	-1.053150	-1.758994	1.077047	99
Es	-0.144210	2.755510	0.195223	99
Es	-0.664943	-2.098493	0.546321	99
Es	1.152414	0.221386	-0.632304	99
Es	-0.343228	1.602265	-0.272917	99
Es	-0.505382	0.347236	-0.279305	99
Es	1.108136	1.037561	-0.667463	99
Es	1.300477	1.561807	-0.340023	99
Es	-0.966303	-2.769960	0.411621	99
Es	0.018694	2.060677	0.013392	99
Es	-0.159234	-0.097456	-0.436637	99
Es	1.624625	-0.285607	-0.845818	99
Es	0.411120	-0.009584	-0.533033	99
Es	-0.680061	-1.521293	-0.311279	99
Es	-1.040444	-1.331917	-0.660018	99
Es	1.284499	0.842406	-0.262025	99
Es	-0.712822	-1.354917	-0.666086	99
Es	-0.869634	1.008792	-0.074573	99
Es	1.925276	1.949650	-0.375400	99
Es	-1.584203	0.964728	0.039710	99
Es	-0.488640	-1.549174	-0.808268	99
Es	-0.451727	-0.776317	-0.537925	99
Es	0.034308	-2.185963	0.772274	99
Es	-0.389214	1.493859	0.205316	99
Es	-0.090567	0.052166	-0.399766	99
Es	0.676517	1.852480	-0.160465	99
40
Properties=species:S:1:pos:R:3:Z:I:1 energy=-322.74366703877877 field_type=dipole dipole="0.000000 0.000000 0.000000" charge=0
C	-0.664932	-2.098608	0.546522	6
O	-0.713032	-1.355058	-0.666498	8
N	-0.159222	-0.097218	-0.436928	7
C	-0.869652	1.009022	-0.074538	6
C	0.018698	2.060652	0.013392	6
C	1.300458	1.561792	-0.340018	6
C	1.152588	0.221542	-0.632318	6
H	-1.103902	-3.082338	0.358262	1
H	-1.250052	-1.607208	1.330952	1
H	0.369118	-2.242818	0.876892	1
H	-1.936252	0.954402	0.088602	1
H	-0.229572	3.078882	0.285832	1
H	2.224858	2.122722	-0.390798	1
H	1.860898	-0.525768	-0.959358	1
Es	0.676522	1.852198	-0.160202	99
Es	1.925208	1.949768	-0.375337	99
Es	-1.052980	-1.759156	1.076986	99
Es	-0.869635	1.008791	-0.074576	99
Es	1.283755	0.842365	-0.255215	99
Es	-0.664944	-2.098491	0.546320	99
Es	1.108547	1.036614	-0.674410	99
Es	-0.451710	-0.776327	-0.538059	99
Es	-0.090437	0.051389	-0.395629	99
Es	-1.040894	-1.333873	-0.654235	99
Es	1.152415	0.221386	-0.632298	99
Es	-0.338760	1.601354	-0.266988	99
Es	-0.966314	-2.770014	0.411695	99
Es	-0.489446	-1.547995	-0.810650	99
Es	-0.392950	1.495727	0.199444	99
Es	1.300475	1.561807	-0.340026	99
Es	-1.584178	0.964792	0.039548	99
Es	0.410946	-0.009540	-0.533690	99
Es	-0.505897	0.347984	-0.282879	99
Es	-0.159237	-0.097456	-0.436650	99
Es	0.034306	-2.185891	0.772214	99
Es	-0.144021	2.755583	0.195083	99
Es	1.624644	-0.285551	-0.845703	99
Es	0.018693	2.060677	0.013393	99
Es	-0.712911	-1.354877	-0.665837	99
Es	-0.678898	-1.520415	-0.314700	99
40
Properties=species:S:1:pos:R:3:Z:I:1 energy=-322.74366703877877 field_type=dipole dipole="0.000000 0.000000 0.000000" charge=0
C	-0.664932	-2.098608	0.546522	6
O	-0.713032	-1.355058	-0.666498	8
N	-0.159222	-0.097218	-0.436928	7
C	-0.869652	1.009022	-0.074538	6
C	0.018698	2.060652	0.013392	6
C	1.300458	1.561792	-0.340018	6
C	1.152588	0.221542	-0.632318	6
H	-1.103902	-3.082338	0.358262	1
H	-1.250052	-1.607208	1.330952	1
H	0.369118	-2.242818	0.876892	1
H	-1.936252	0.954402	0.088602	1
H	-0.229572	3.078882	0.285832	1
H	2.224858	2.122722	-0.390798	1
H	1.860898	-0.525768	-0.959358	1
Es	0.676361	1.852321	-0.160731	99
Es	-0.677587	-1.518658	-0.320371	99
Es	1.925163	1.949841	-0.375371	99
Es	1.283836	0.842270	-0.257302	99
Es	-0.144000	2.755640	0.194997	99
Es	1.152415	0.221386	-0.632299	99
Es	1.108246	1.036994	-0.672007	99
Es	-1.052921	-1.759189	1.076979	99
Es	-0.390489	1.494503	0.203193	99
Es	-0.341007	1.602281	-0.270565	99
Es	-0.090965	0.052011	-0.398821	99
Es	-0.490395	-1.546867	-0.813219	99
Es	1.300477	1.561806	-0.340020	99
Es	1.624613	-0.285603	-0.845592	99
Es	0.411742	-0.010463	-0.529953	99
Es	-0.505956	0.348012	-0.283012	99
Es	0.018694	2.060677	0.013393	99
Es	-0.451801	-0.776278	-0.538010	99
Es	0.034274	-2.185802	0.772171	99
Es	-0.712840	-1.354922	-0.666122	99
Es	-1.584098	0.964820	0.039547	99
Es	-0.159335	-0.097375	-0.437096	99
Es	-0.966245	-2.770083	0.411747	99
Es	-0.869634	1.008792	-0.074574	99
Es	-0.664943	-2.098490	0.546319	99
Es	-1.041303	-1.336776	-0.645683	99
40
Properties=species:S:1:pos:R:3:Z:I:1 energy=-322.74366703877877 field_type=dipole dipole="0.000000 0.000000 0.000000" charge=0
C	-0.664932	-2.098608	0.546522	6
O	-0.713032	-1.355058	-0.666498	8
N	-0.159222	-0.097218	-0.436928	7
C	-0.869652	1.009022	-0.074538	6
C	0.018698	2.060652	0.013392	6
C	1.300458	1.561792	-0.340018	6
C	1.152588	0.221542	-0.632318	6
H	-1.103902	-3.082338	0.358262	1
H	-1.250052	-1.607208	1.330952	1
H	0.369118	-2.242818	0.876892	1
H	-1.936252	0.954402	0.088602	1
H	-0.229572	3.078882	0.285832	1
H	2.224858	2.122722	-0.390798	1
H	1.860898	-0.525768	-0.959358	1
Es	1.925162	1.949921	-0.375403	99
Es	-1.584118	0.964758	0.039547	99
Es	0.034356	-2.185796	0.772230	99
Es	-0.159303	-0.097408	-0.436977	99
Es	1.152414	0.221386	-0.632298	99
Es	1.300475	1.561808	-0.340031	99
Es	-1.042030	-1.336058	-0.655254	99
Es	-0.680512	-1.517252	-0.320347	99
Es	0.018696	2.060674	0.013403	99
Es	-0.505762	0.347723	-0.282144	99
Es	-0.486671	-1.548924	-0.803625	99
Es	1.624603	-0.285490	-0.845439	99
Es	-0.451915	-0.776216	-0.538037	99
Es	-0.869634	1.008791	-0.074570	99
Es	-0.092948	0.052496	-0.396638	99
Es	0.676528	1.852210	-0.161122	99
Es	-0.712886	-1.354951	-0.666081	99
Es	-0.966369	-2.770040	0.411780	99
Es	-0.143802	2.755673	0.194846	99
Es	-1.052840	-1.759320	1.076856	99
Es	-0.664942	-2.098494	0.546322	99
Es	1.279419	0.843041	-0.229954	99
Es	0.411288	-0.009880	-0.532544	99
Es	1.111814	1.032053	-0.700026	99
Es	-0.405710	1.502158	0.176003	99
Es	-0.323012	1.597987	-0.242897	99
40
Properties=species:S:1:pos:R:3:Z:I:1 energy=-322.74366703877877 field_type=dipole dipole="0.000000 0.000000 0.000000" charge=0
C	-0.664932	-2.098608	0.546522	6
O	-0.713032	-1.355058	-0.666498	8
N	-0.159222	-0.097218	-0.436928	7
C	-0.869652	1.009022	-0.074538	6
C	0.018698	2.060652	0.013392	6
C	1.300458	1.561792	-0.340018	6
C	1.152588	0.221542	-0.632318	6
H	-1.103902	-3.082338	0.358262	1
H	-1.250052	-1.607208	1.330952	1
H	0.369118	-2.242818	0.876892	1
H	-1.936252	0.954402	0.088602	1
H	-0.229572	3.078882	0.285832	1
H	2.224858	2.122722	-0.390798	1
H	1.860898	-0.525768	-0.959358	1
Es	1.925102	1.949923	-0.375258	99
Es	0.018694	2.060677	0.013394	99
Es	1.300477	1.561807	-0.340022	99
Es	-0.143850	2.755663	0.194998	99
Es	-0.342305	1.602045	-0.272440	99
Es	1.107522	1.038131	-0.664650	99
Es	1.284473	0.842211	-0.264276	99
Es	-0.505927	0.347807	-0.282430	99
Es	-0.966264	-2.770124	0.411800	99
Es	-0.712985	-1.354854	-0.666032	99
Es	-0.664942	-2.098496	0.546328	99
Es	-0.389512	1.493905	0.204703	99
Es	1.624514	-0.285544	-0.845595	99
Es	-1.040943	-1.335806	-0.648147	99
Es	-0.678537	-1.517873	-0.320913	99
Es	-0.489506	-1.548576	-0.810419	99
Es	1.152415	0.221385	-0.632297	99
Es	-0.159294	-0.097425	-0.436898	99
Es	0.676309	1.852340	-0.160644	99
Es	-0.869634	1.008791	-0.074574	99
Es	0.034064	-2.185806	0.772236	99
Es	-0.451772	-0.776297	-0.537908	99
Es	-1.052843	-1.759256	1.076886	99
Es	-1.584012	0.964792	0.039547	99
Es	0.411069	-0.009699	-0.532963	99
Es	-0.090011	0.051127	-0.396827	99
40
Properties=species:S:1:pos:R:3:Z:I:1 energy=-322.74366703877877 field_type=dipole dipole="0.000000 0.000000 0.000000" charge=0
C	-0.664932	-2.098608	0.546522	6
O	-0.713032	-1.355058	-0.666498	8
N	-0.159222	-0.097218	-0.436928	7
C	-0.869652	1.009022	-0.074538	6
C	0.018698	2.060652	0.013392	6
C	1.300458	1.561792	-0.340018	6
C	1.152588	0.221542	-0.632318	6
H	-1.103902	-3.082338	0.358262	1
H	-1.250052	-1.607208	1.330952	1
H	0.369118	-2.242818	0.876892	1
H	-1.936252	0.954402	0.088602	1
H	-0.229572	3.078882	0.285832	1
H	2.224858	2.122722	-0.390798	1
H	1.860898	-0.525768	-0.959358	1
Es	1.281723	0.842414	-0.242574	99
Es	-0.331378	1.599955	-0.256798	99
Es	-1.041502	-1.335994	-0.651401	99
Es	-0.712863	-1.354910	-0.666084	99
Es	-0.451940	-0.776197	-0.538160	99
Es	-0.505619	0.347422	-0.280797	99
Es	-1.052779	-1.759291	1.076836	99
Es	-0.143714	2.755685	0.194956	99
Es	1.624465	-0.285448	-0.845535	99
Es	-0.681045	-1.514378	-0.326331	99
Es	-0.966308	-2.770133	0.411817	99
Es	1.152416	0.221386	-0.632299	99
Es	-0.664944	-2.098488	0.546315	99
Es	-1.584004	0.964738	0.039576	99
Es	0.018694	2.060677	0.013393	99
Es	-0.092210	0.052328	-0.398874	99
Es	0.034035	-2.185790	0.772246	99
Es	-0.869634	1.008792	-0.074575	99
Es	-0.398378	1.498178	0.189752	99
Es	1.925061	1.950051	-0.375360	99
Es	0.411328	-0.009989	-0.532089	99
Es	1.300476	1.561806	-0.340024	99
Es	1.109779	1.035107	-0.686731	99
Es	-0.486471	-1.551880	-0.801432	99
Es	-0.159270	-0.097447	-0.436782	99
Es	0.676383	1.852255	-0.161445	99
40
Properties=species:S:1:pos:R:3:Z:I:1 energy=-322.74366703877877 field_type=dipole dipole="0.000000 0.000000 0.000000" charge=0
C	-0.664932	-2.098608	0.546522	6
O	-0.713032	-1.355058	-0.666498	8
N	-0.159222	-0.097218	-0.436928	7
C	-0.869652	1.009022	-0.074538	6
C	0.018698	2.060652	0.013392	6
C	1.300458	1.561792	-0.340018	6
C	1.152588	0.221542	-0.632318	6
H	-1.103902	-3.082338	0.358262	1
H	-1.250052	-1.607208	1.330952	1
H	0.369118	-2.242818	0.876892	1
H	-1.936252	0.954402	0.088602	1
H	-0.229572	3.078882	0.285832	1
H	2.224858	2.122722	-0.390798	1
H	1.860898	-0.525768	-0.959358	1
Es	-0.354470	1.604446	-0.288271	99
Es	-0.712882	-1.354935	-0.666171	99
Es	0.018696	2.060675	0.013402	99
Es	-0.159210	-0.097455	-0.436546	99
Es	0.676070	1.852243	-0.160614	99
Es	-0.869634	1.008792	-0.074572	99
Es	-0.451797	-0.776260	-0.538035	99
Es	1.624446	-0.285494	-0.845729	99
Es	-0.143705	2.755720	0.195014	99
Es	0.033632	-2.185850	0.772130	99
Es	-0.378874	1.488964	0.220219	99
Es	-1.040422	-1.334643	-0.648635	99
Es	-1.052723	-1.759248	1.077007	99
Es	-0.680031	-1.515465	-0.324575	99
Es	1.106425	1.040438	-0.642353	99
Es	1.924964	1.950120	-0.375429	99
Es	-0.664943	-2.098489	0.546317	99
Es	1.152413	0.221387	-0.632305	99
Es	1.285983	0.842994	-0.285864	99
Es	-1.583830	0.964737	0.039748	99
Es	-0.966115	-2.770240	0.411788	99
Es	-0.505869	0.347532	-0.281485	99
Es	0.410572	-0.009152	-0.535089	99
Es	-0.088435	0.050205	-0.396389	99
Es	-0.488437	-1.551979	-0.805940	99
Es	1.300477	1.561807	-0.340023	99
