39
Properties=species:S:1:pos:R:3:Z:I:1 energy=-338.73650187505035 field_type=dipole dipole="0.000000 0.000000 0.000000" charge=0
C	-0.394259	-2.141734	0.469732	6
O	-0.736219	-1.311594	-0.632258	8
N	-0.153579	-0.067124	-0.437478	7
C	-0.818759	1.072196	-0.110888	6
C	0.134711	2.063676	-0.090718	6
C	1.333261	1.406996	-0.441108	6
N	1.154591	0.100766	-0.660708	7
H	-0.926909	-3.090534	0.356992	1
H	-0.703859	-1.688064	1.417522	1
H	0.679621	-2.355264	0.482602	1
H	-1.882999	1.072616	0.067032	1
H	-0.011319	3.110936	0.129642	1
H	2.325721	1.827126	-0.550368	1
Es	-0.153614	-0.067230	-0.437608	99
Es	-0.251147	0.218148	-0.072730	99
Es	-0.384875	0.350001	-0.590584	99
Es	-0.604405	-1.826222	1.115069	99
Es	-0.590432	-1.593244	-0.205301	99
Es	0.466261	-0.001079	-0.550447	99
Es	1.135976	0.713822	-0.819226	99
Es	-1.041884	-1.252701	-0.613209	99
Es	1.999964	1.699715	-0.511361	99
Es	-0.759676	-2.779667	0.385571	99
Es	-1.527734	1.068707	0.009648	99
Es	0.134700	2.063685	-0.090700	99
Es	-0.394335	-2.141590	0.469543	99
Es	-0.165378	1.561308	0.173652	99
Es	0.756618	1.789372	-0.257920	99
Es	0.038545	2.768691	0.057950	99
Es	-0.595669	-1.422991	-0.880743	99
Es	-0.818743	1.071970	-0.110925	99
Es	1.236995	0.611756	-0.293643	99
Es	0.331795	-2.282519	0.482559	99
Es	-0.268345	1.668481	-0.396866	99
Es	1.333272	1.406921	-0.441123	99
Es	1.154115	0.101167	-0.660539	99
Es	1.367819	-0.189113	-0.752732	99
Es	-0.455309	-0.741752	-0.521091	99
Es	-0.736036	-1.311518	-0.631945	99
39
Properties=species:S:1:pos:R:3:Z:I:1 energy=-338.73650187505035 field_type=dipole dipole="0.000000 0.000000 0.000000" charge=0
C	-0.394259	-2.141734	0.469732	6
O	-0.736219	-1.311594	-0.632258	8
N	-0.153579	-0.067124	-0.437478	7
C	-0.818759	1.072196	-0.110888	6
C	0.134711	2.063676	-0.090718	6
C	1.333261	1.406996	-0.441108	6
N	1.154591	0.100766	-0.660708	7
H	-0.926909	-3.090534	0.356992	1
H	-0.703859	-1.688064	1.417522	1
H	0.679621	-2.355264	0.482602	1
H	-1.882999	1.072616	0.067032	1
H	-0.011319	3.110936	0.129642	1
H	2.325721	1.827126	-0.550368	1
Es	1.372578	-0.186884	-0.754857	99
Es	1.154132	0.101172	-0.660533	99
Es	2.001524	1.700525	-0.512213	99
Es	1.333274	1.406927	-0.441127	99
Es	0.756603	1.785663	-0.262830	99
Es	-0.394334	-2.141594	0.469545	99
Es	-0.452929	-0.740905	-0.522262	99
Es	-0.486343	0.407247	-0.402327	99
Es	0.037985	2.770243	0.058326	99
Es	-0.736054	-1.311552	-0.631966	99
Es	0.134702	2.063692	-0.090711	99
Es	0.464188	0.004262	-0.565582	99
Es	-0.762822	-2.782113	0.386130	99
Es	1.232505	0.627400	-0.295260	99
Es	0.332677	-2.280135	0.483609	99
Es	-0.584934	-1.588972	-0.213729	99
Es	-0.593249	-1.422581	-0.869189	99
Es	1.136466	0.727682	-0.807793	99
Es	-1.529168	1.067542	0.010803	99
Es	-1.054052	-1.259308	-0.613683	99
Es	-0.153626	-0.067238	-0.437763	99
Es	-0.818746	1.071969	-0.110932	99
Es	-0.175158	1.555582	0.172707	99
Es	-0.271765	1.665006	-0.391193	99
Es	-0.132098	0.136403	-0.253270	99
Es	-0.602879	-1.825914	1.111399	99
39
Properties=species:S:1:pos:R:3:Z:I:1 energy=-338.73650187505035 field_type=dipole dipole="0.000000 0.000000 0.000000" charge=0
C	-0.394259	-2.141734	0.469732	6
O	-0.736219	-1.311594	-0.632258	8
N	-0.153579	-0.067124	-0.437478	7
C	-0.818759	1.072196	-0.110888	6
C	0.134711	2.063676	-0.090718	6
C	1.333261	1.406996	-0.441108	6
N	1.154591	0.100766	-0.660708	7
H	-0.926909	-3.090534	0.356992	1
H	-0.703859	-1.688064	1.417522	1
H	0.679621	-2.355264	0.482602	1
H	-1.882999	1.072616	0.067032	1
H	-0.011319	3.110936	0.129642	1
H	2.325721	1.827126	-0.550368	1
Es	-0.764696	-2.783011	0.387010	99
Es	-0.601799	-1.826485	1.108460	99
Es	1.231141	0.628785	-0.299867	99
Es	0.333317	-2.278587	0.484470	99
Es	-1.529682	1.067810	0.009946	99
Es	0.037991	2.771052	0.058583	99
Es	-0.593564	-1.415905	-0.856257	99
Es	-1.061333	-1.266029	-0.618787	99
Es	-0.179880	1.671374	-0.377539	99
Es	1.333274	1.406925	-0.441120	99
Es	-0.153623	-0.067256	-0.437722	99
Es	-0.484221	0.400866	-0.313051	99
Es	0.758448	1.781010	-0.251423	99
Es	2.002167	1.700849	-0.511228	99
Es	0.134708	2.063679	-0.090667	99
Es	1.154126	0.101177	-0.660533	99
Es	-0.258439	1.555354	0.146688	99
Es	-0.736105	-1.311533	-0.632074	99
Es	-0.579083	-1.589777	-0.219523	99
Es	-0.394335	-2.141594	0.469547	99
Es	1.374305	-0.186040	-0.752115	99
Es	-0.818747	1.071969	-0.110928	99
Es	0.469214	-0.000977	-0.545094	99
Es	-0.451095	-0.740622	-0.521694	99
Es	1.131250	0.727723	-0.807921	99
Es	-0.144861	0.143362	-0.361860	99
39
Properties=species:S:1:pos:R:3:Z:I:1 energy=-338.73650187505035 field_type=dipole dipole="0.000000 0.000000 0.000000" charge=0
C	-0.394259	-2.141734	0.469732	6
O	-0.736219	-1.311594	-0.632258	8
N	-0.153579	-0.067124	-0.437478	7
C	-0.818759	1.072196	-0.110888	6
C	0.134711	2.063676	-0.090718	6
C	1.333261	1.406996	-0.441108	6
N	1.154591	0.100766	-0.660708	7
H	-0.926909	-3.090534	0.356992	1
H	-0.703859	-1.688064	1.417522	1
H	0.679621	-2.355264	0.482602	1
H	-1.882999	1.072616	0.067032	1
H	-0.011319	3.110936	0.129642	1
H	2.325721	1.827126	-0.550368	1
Es	-0.580780	-1.589031	-0.218784	99
Es	0.332815	-2.278424	0.484458	99
Es	0.134703	2.063694	-0.090703	99
Es	-0.153614	-0.067272	-0.437673	99
Es	1.226740	0.618691	-0.299288	99
Es	1.127159	0.717385	-0.809467	99
Es	0.467964	-0.000603	-0.551310	99
Es	0.759102	1.778719	-0.252299	99
Es	-0.764525	-2.783398	0.386920	99
Es	-0.818745	1.071968	-0.110926	99
Es	-1.529808	1.067920	0.010323	99
Es	2.002051	1.701360	-0.511494	99
Es	0.038372	2.771339	0.058811	99
Es	-0.486072	0.404987	-0.347851	99
Es	-0.601598	-1.826384	1.108623	99
Es	-0.053642	1.667632	-0.252541	99
Es	-0.451147	-0.740402	-0.521663	99
Es	-1.060246	-1.265479	-0.618837	99
Es	1.373112	-0.184923	-0.752799	99
Es	-0.159974	0.144877	-0.317134	99
Es	1.154121	0.101167	-0.660536	99
Es	-0.736104	-1.311514	-0.632074	99
Es	-0.592947	-1.417264	-0.857273	99
Es	-0.394334	-2.141597	0.469548	99
Es	-0.357400	1.573748	0.020384	99
Es	1.333275	1.406924	-0.441117	99
39
Properties=species:S:1:pos:R:3:Z:I:1 energy=-338.73650187505035 field_type=dipole dipole="0.000000 0.000000 0.000000" charge=0
C	-0.394259	-2.141734	0.469732	6
O	-0.736219	-1.311594	-0.632258	8
N	-0.153579	-0.067124	-0.437478	7
C	-0.818759	1.072196	-0.110888	6
C	0.134711	2.063676	-0.090718	6
C	1.333261	1.406996	-0.441108	6
N	1.154591	0.100766	-0.660708	7
H	-0.926909	-3.090534	0.356992	1
H	-0.703859	-1.688064	1.417522	1
H	0.679621	-2.355264	0.482602	1
H	-1.882999	1.072616	0.067032	1
H	-0.011319	3.110936	0.129642	1
H	2.325721	1.827126	-0.550368	1
Es	-1.529659	1.067640	0.010878	99
Es	1.373228	-0.184254	-0.752187	99
Es	0.468684	-0.001843	-0.547992	99
Es	1.333274	1.406925	-0.441124	99
Es	-0.394334	-2.141597	0.469552	99
Es	-0.591444	-1.417623	-0.854339	99
Es	1.154121	0.101179	-0.660523	99
Es	-0.818746	1.071967	-0.110923	99
Es	-0.167454	0.150340	-0.355474	99
Es	0.134700	2.063698	-0.090728	99
Es	-0.378939	1.584001	-0.039028	99
Es	0.332799	-2.277939	0.484696	99
Es	2.001999	1.701693	-0.512116	99
Es	-1.061648	-1.267251	-0.620793	99
Es	-0.483011	0.400365	-0.311730	99
Es	-0.735956	-1.311443	-0.631858	99
Es	-0.601299	-1.826555	1.107894	99
Es	1.127225	0.716886	-0.809047	99
Es	-0.764863	-2.783707	0.387166	99
Es	-0.581312	-1.587215	-0.219066	99
Es	0.757692	1.779561	-0.260418	99
Es	-0.450771	-0.740369	-0.521406	99
Es	-0.153586	-0.067318	-0.437524	99
Es	1.222952	0.615608	-0.299099	99
Es	0.038617	2.771676	0.057773	99
Es	-0.023791	1.659693	-0.187283	99
39
Properties=species:S:1:pos:R:3:Z:I:1 energy=-338.73650187505035 field_type=dipole dipole="0.000000 0.000000 0.000000" charge=0
C	-0.394259	-2.141734	0.469732	6
O	-0.736219	-1.311594	-0.632258	8
N	-0.153579	-0.067124	-0.437478	7
C	-0.818759	1.072196	-0.110888	6
C	0.134711	2.063676	-0.090718	6
C	1.333261	1.406996	-0.441108	6
N	1.154591	0.100766	-0.660708	7
H	-0.926909	-3.090534	0.356992	1
H	-0.703859	-1.688064	1.417522	1
H	0.679621	-2.355264	0.482602	1
H	-1.882999	1.072616	0.067032	1
H	-0.011319	3.110936	0.129642	1
H	2.325721	1.827126	-0.550368	1
Es	0.332936	-2.277430	0.484848	99
Es	-0.382808	1.586625	-0.053598	99
Es	1.374081	-0.183945	-0.751212	99
Es	-0.015980	1.658015	-0.170688	99
Es	-0.577285	-1.585947	-0.224115	99
Es	-0.449781	-0.740518	-0.521611	99
Es	0.468625	-0.002373	-0.547219	99
Es	-0.818747	1.071965	-0.110922	99
Es	-1.063598	-1.269655	-0.614213	99
Es	0.134701	2.063693	-0.090711	99
Es	-0.481615	0.398746	-0.301648	99
Es	-0.736021	-1.311472	-0.631949	99
Es	1.128384	0.716886	-0.808166	99
Es	-0.394337	-2.141587	0.469540	99
Es	-0.153569	-0.067332	-0.437429	99
Es	-0.765523	-2.783889	0.387501	99
Es	0.756685	1.779764	-0.263102	99
Es	-0.170646	0.152250	-0.366262	99
Es	0.038959	2.771857	0.057405	99
Es	1.219341	0.614334	-0.300341	99
Es	1.333274	1.406925	-0.441122	99
Es	-0.600803	-1.826859	1.106871	99
Es	-1.529574	1.067392	0.010941	99
Es	-0.594408	-1.416441	-0.854642	99
Es	1.154114	0.101185	-0.660523	99
Es	2.002074	1.701931	-0.512333	99
39
Properties=species:S:1:pos:R:3:Z:I:1 energy=-338.73650187505035 field_type=dipole dipole="0.000000 0.000000 0.000000" charge=0
C	-0.394259	-2.141734	0.469732	6
O	-0.736219	-1.311594	-0.632258	8
N	-0.153579	-0.067124	-0.437478	7
C	-0.818759	1.072196	-0.110888	6
C	0.134711	2.063676	-0.090718	6
C	1.333261	1.406996	-0.441108	6
N	1.154591	0.100766	-0.660708	7
H	-0.926909	-3.090534	0.356992	1
H	-0.703859	-1.688064	1.417522	1
H	0.679621	-2.355264	0.482602	1
H	-1.882999	1.072616	0.067032	1
H	-0.011319	3.110936	0.129642	1
H	2.325721	1.827126	-0.550368	1
Es	1.217095	0.614021	-0.301348	99
Es	-0.480503	0.397181	-0.294006	99
Es	-0.600541	-1.827223	1.105837	99
Es	0.039107	2.772032	0.056876	99
Es	1.333275	1.406924	-0.441119	99
Es	-0.013449	1.658379	-0.167893	99
Es	1.154130	0.101182	-0.660530	99
Es	-0.172407	0.153329	-0.374969	99
Es	-0.766019	-2.784008	0.387762	99
Es	-0.594527	-1.414986	-0.851618	99
Es	-1.066136	-1.273809	-0.611845	99
Es	-0.394335	-2.141594	0.469546	99
Es	0.134705	2.063691	-0.090691	99
Es	0.333159	-2.276882	0.485122	99
Es	-0.735993	-1.311472	-0.631811	99
Es	-0.574956	-1.583546	-0.229021	99
Es	1.128291	0.716991	-0.806982	99
Es	-1.529458	1.067341	0.011004	99
Es	1.374984	-0.183701	-0.750972	99
Es	0.756179	1.779820	-0.263927	99
Es	-0.818745	1.071967	-0.110925	99
Es	0.468805	-0.002814	-0.545895	99
Es	2.002155	1.702027	-0.512473	99
Es	-0.153566	-0.067335	-0.437392	99
Es	-0.449475	-0.740334	-0.521653	99
Es	-0.383299	1.586936	-0.055778	99
39
Properties=species:S:1:pos:R:3:Z:I:1 energy=-338.73650187505035 field_type=dipole dipole="0.000000 0.000000 0.000000" charge=0
C	-0.394259	-2.141734	0.469732	6
O	-0.736219	-1.311594	-0.632258	8
N	-0.153579	-0.067124	-0.437478	7
C	-0.818759	1.072196	-0.110888	6
C	0.134711	2.063676	-0.090718	6
C	1.333261	1.406996	-0.441108	6
N	1.154591	0.100766	-0.660708	7
H	-0.926909	-3.090534	0.356992	1
H	-0.703859	-1.688064	1.417522	1
H	0.679621	-2.355264	0.482602	1
H	-1.882999	1.072616	0.067032	1
H	-0.011319	3.110936	0.129642	1
H	2.325721	1.827126	-0.550368	1
Es	1.333275	1.406926	-0.441119	99
Es	-1.067689	-1.277267	-0.607930	99
Es	-1.529338	1.067181	0.011284	99
Es	-0.818746	1.071967	-0.110922	99
Es	-0.572995	-1.581030	-0.233269	99
Es	-0.595069	-1.414280	-0.850390	99
Es	-0.449249	-0.740239	-0.521673	99
Es	-0.736092	-1.311504	-0.632065	99
Es	1.375435	-0.183257	-0.751079	99
Es	0.134703	2.063694	-0.090704	99
Es	-0.007822	1.656382	-0.151992	99
Es	-0.600327	-1.827456	1.105153	99
Es	0.333287	-2.276423	0.485181	99
Es	2.002156	1.702202	-0.512696	99
Es	1.154118	0.101180	-0.660527	99
Es	-0.394335	-2.141596	0.469549	99
Es	0.468386	-0.002873	-0.547701	99
Es	1.134294	0.718236	-0.804281	99
Es	0.039380	2.772140	0.056888	99
Es	-0.153589	-0.067311	-0.437537	99
Es	1.209438	0.611879	-0.302907	99
Es	-0.480916	0.397711	-0.296583	99
Es	0.755387	1.779986	-0.266324	99
Es	-0.172288	0.152323	-0.370777	99
Es	-0.766341	-2.784106	0.387938	99
Es	-0.386586	1.589653	-0.070217	99
39
Properties=species:S:1:pos:R:3:Z:I:1 energy=-338.73650187505035 field_type=dipole dipole="0.000000 0.000000 0.000000" charge=0
C	-0.394259	-2.141734	0.469732	6
O	-0.736219	-1.311594	-0.632258	8
N	-0.153579	-0.067124	-0.437478	7
C	-0.818759	1.072196	-0.110888	6
C	0.134711	2.063676	-0.090718	6
C	1.333261	1.406996	-0.441108	6
N	1.154591	0.100766	-0.660708	7
H	-0.926909	-3.090534	0.356992	1
H	-0.703859	-1.688064	1.417522	1
H	0.679621	-2.355264	0.482602	1
H	-1.882999	1.072616	0.067032	1
H	-0.011319	3.110936	0.129642	1
H	2.325721	1.827126	-0.550368	1
Es	-0.574684	-1.575278	-0.236716	99
Es	0.333402	-2.276056	0.485296	99
Es	1.333274	1.406926	-0.441124	99
Es	-0.172823	0.152355	-0.370957	99
Es	-0.449208	-0.740097	-0.521637	99
Es	-0.600052	-1.827747	1.104390	99
Es	-0.736076	-1.311407	-0.631789	99
Es	1.154115	0.101181	-0.660526	99
Es	1.134205	0.717958	-0.803885	99
Es	-0.591588	-1.416023	-0.847978	99
Es	0.468671	-0.003648	-0.545919	99
Es	-1.529297	1.067207	0.011037	99
Es	-0.007330	1.658536	-0.157877	99
Es	-0.818746	1.071967	-0.110924	99
Es	-0.153574	-0.067328	-0.437454	99
Es	2.002212	1.702256	-0.512660	99
Es	0.039427	2.772245	0.056602	99
Es	-0.385298	1.588531	-0.064504	99
Es	-0.394334	-2.141596	0.469548	99
Es	1.375998	-0.183004	-0.750209	99
Es	-0.766725	-2.784148	0.388178	99
Es	-1.069544	-1.281571	-0.606703	99
Es	-0.481181	0.397948	-0.298012	99
Es	1.207708	0.611359	-0.304227	99
Es	0.134704	2.063697	-0.090715	99
Es	0.755222	1.779857	-0.265934	99
39
Properties=species:S:1:pos:R:3:Z:I:1 energy=-338.73650187505035 field_type=dipole dipole="0.000000 0.000000 0.000000" charge=0
C	-0.394259	-2.141734	0.469732	6
O	-0.736219	-1.311594	-0.632258	8
N	-0.153579	-0.067124	-0.437478	7
C	-0.818759	1.072196	-0.110888	6
C	0.134711	2.063676	-0.090718	6
C	1.333261	1.406996	-0.441108	6
N	1.154591	0.100766	-0.660708	7
H	-0.926909	-3.090534	0.356992	1
H	-0.703859	-1.688064	1.417522	1
H	0.679621	-2.355264	0.482602	1
H	-1.882999	1.072616	0.067032	1
H	-0.011319	3.110936	0.129642	1
H	2.325721	1.827126	-0.550368	1
Es	-0.571120	-1.576211	-0.240338	99
Es	-0.448653	-0.740284	-0.522048	99
Es	-1.529335	1.067151	0.010828	99
Es	0.468677	-0.003691	-0.545625	99
Es	-0.386309	1.589332	-0.068731	99
Es	-0.766931	-2.784153	0.388314	99
Es	2.002255	1.702275	-0.512510	99
Es	-0.394334	-2.141595	0.469548	99
Es	-0.480366	0.397030	-0.293113	99
Es	1.197072	0.609321	-0.310550	99
Es	-0.174524	0.153647	-0.376040	99
Es	-0.599878	-1.828031	1.103925	99
Es	-0.595216	-1.413018	-0.847358	99
Es	1.376067	-0.183017	-0.749704	99
Es	-0.004511	1.658875	-0.154538	99
Es	-0.153576	-0.067326	-0.437468	99
Es	-0.818747	1.071967	-0.110925	99
Es	0.755114	1.779657	-0.265176	99
Es	0.134701	2.063694	-0.090710	99
Es	-0.736097	-1.311484	-0.632000	99
Es	1.143720	0.718713	-0.797744	99
Es	1.333274	1.406926	-0.441119	99
Es	0.333503	-2.275820	0.485368	99
Es	0.039710	2.772292	0.056486	99
Es	1.154107	0.101187	-0.660528	99
Es	-1.070129	-1.283317	-0.602945	99
39
Properties=species:S:1:pos:R:3:Z:I:1 energy=-338.73650187505035 field_type=dipole dipole="0.000000 0.000000 0.000000" charge=0
C	-0.394259	-2.141734	0.469732	6
O	-0.736219	-1.311594	-0.632258	8
N	-0.153579	-0.067124	-0.437478	7
C	-0.818759	1.072196	-0.110888	6
C	0.134711	2.063676	-0.090718	6
C	1.333261	1.406996	-0.441108	6
N	1.154591	0.100766	-0.660708	7
H	-0.926909	-3.090534	0.356992	1
H	-0.703859	-1.688064	1.417522	1
H	0.679621	-2.355264	0.482602	1
H	-1.882999	1.072616	0.067032	1
H	-0.011319	3.110936	0.129642	1
H	2.325721	1.827126	-0.550368	1
Es	-0.594269	-1.413543	-0.846859	99
Es	-0.448863	-0.740131	-0.522083	99
Es	-0.599720	-1.828329	1.103579	99
Es	1.376102	-0.182798	-0.749678	99
Es	0.333580	-2.275695	0.485348	99
Es	1.154112	0.101190	-0.660528	99
Es	-0.153643	-0.067211	-0.437819	99
Es	-0.735990	-1.311443	-0.631855	99
Es	1.333274	1.406926	-0.441126	99
Es	0.039823	2.772290	0.056713	99
Es	-0.001842	1.658521	-0.149315	99
Es	-0.387235	1.590208	-0.073452	99
Es	1.189801	0.608389	-0.316589	99
Es	-1.529301	1.067085	0.010805	99
Es	0.754799	1.779756	-0.266271	99
Es	1.150062	0.718855	-0.791367	99
Es	0.134699	2.063697	-0.090720	99
Es	-0.174335	0.152799	-0.371155	99
Es	-1.070488	-1.284813	-0.602150	99
Es	2.002282	1.702344	-0.512434	99
Es	-0.571725	-1.574235	-0.241446	99
Es	-0.818749	1.071964	-0.110931	99
Es	-0.394336	-2.141595	0.469552	99
Es	-0.481052	0.397789	-0.297113	99
Es	0.468581	-0.003781	-0.546162	99
Es	-0.767091	-2.784120	0.388357	99
39
Properties=species:S:1:pos:R:3:Z:I:1 energy=-338.73650187505035 field_type=dipole dipole="0.000000 0.000000 0.000000" charge=0
C	-0.394259	-2.141734	0.469732	6
O	-0.736219	-1.311594	-0.632258	8
N	-0.153579	-0.067124	-0.437478	7
C	-0.818759	1.072196	-0.110888	6
C	0.134711	2.063676	-0.090718	6
C	1.333261	1.406996	-0.441108	6
N	1.154591	0.100766	-0.660708	7
H	-0.926909	-3.090534	0.356992	1
H	-0.703859	-1.688064	1.417522	1
H	0.679621	-2.355264	0.482602	1
H	-1.882999	1.072616	0.067032	1
H	-0.011319	3.110936	0.129642	1
H	2.325721	1.827126	-0.550368	1
Es	1.333275	1.406926	-0.441124	99
Es	0.134708	2.063688	-0.090683	99
Es	1.376266	-0.182790	-0.748309	99
Es	-0.581799	-1.561641	-0.242258	99
Es	-0.736075	-1.311431	-0.631843	99
Es	-0.174272	0.152357	-0.368351	99
Es	2.002298	1.702361	-0.512395	99
Es	-0.818747	1.071969	-0.110925	99
Es	-0.153573	-0.067332	-0.437452	99
Es	-0.394335	-2.141594	0.469544	99
Es	-0.449023	-0.740015	-0.522016	99
Es	1.151107	0.718690	-0.790613	99
Es	-1.529305	1.067043	0.010507	99
Es	-0.583404	-1.422627	-0.844513	99
Es	-0.000592	1.659504	-0.150007	99
Es	-1.071324	-1.287324	-0.603139	99
Es	-0.599181	-1.829491	1.102663	99
Es	0.468771	-0.004183	-0.545041	99
Es	1.154119	0.101184	-0.660529	99
Es	0.039766	2.772416	0.056156	99
Es	-0.481681	0.398561	-0.301420	99
Es	-0.767253	-2.784134	0.388567	99
Es	0.333539	-2.275698	0.485629	99
Es	-0.387217	1.590172	-0.073331	99
Es	1.187544	0.607890	-0.318408	99
Es	0.754865	1.779618	-0.265409	99
39
Properties=species:S:1:pos:R:3:Z:I:1 energy=-338.73650187505035 field_type=dipole dipole="0.000000 0.000000 0.000000" charge=0
C	-0.394259	-2.141734	0.469732	6
O	-0.736219	-1.311594	-0.632258	8
N	-0.153579	-0.067124	-0.437478	7
C	-0.818759	1.072196	-0.110888	6
C	0.134711	2.063676	-0.090718	6
C	1.333261	1.406996	-0.441108	6
N	1.154591	0.100766	-0.660708	7
H	-0.926909	-3.090534	0.356992	1
H	-0.703859	-1.688064	1.417522	1
H	0.679621	-2.355264	0.482602	1
H	-1.882999	1.072616	0.067032	1
H	-0.011319	3.110936	0.129642	1
H	2.325721	1.827126	-0.550368	1
Es	-0.387197	1.590092	-0.073258	99
Es	-1.070591	-1.285474	-0.599314	99
Es	1.333274	1.406926	-0.441124	99
Es	0.134699	2.063694	-0.090722	99
Es	-0.448283	-0.740329	-0.522838	99
Es	-0.736043	-1.311453	-0.631849	99
Es	-0.153575	-0.067327	-0.437464	99
Es	0.333552	-2.275566	0.485458	99
Es	-1.529325	1.066922	0.010842	99
Es	-0.818747	1.071969	-0.110923	99
Es	1.154111	0.101181	-0.660532	99
Es	2.002348	1.702402	-0.512204	99
Es	1.375416	-0.182408	-0.750305	99
Es	0.468282	-0.003558	-0.547272	99
Es	-0.767137	-2.784163	0.388305	99
Es	-0.599909	-1.827870	1.103602	99
Es	-0.479692	0.396284	-0.289224	99
Es	-0.605962	-1.403499	-0.843168	99
Es	-0.176878	0.154702	-0.378043	99
Es	1.177778	0.607736	-0.330884	99
Es	0.754814	1.779626	-0.265628	99
Es	-0.560301	-1.583895	-0.247627	99
Es	-0.394334	-2.141597	0.469551	99
Es	1.161655	0.718040	-0.776703	99
Es	0.000508	1.659467	-0.150451	99
Es	0.040014	2.772214	0.057074	99
39
Properties=species:S:1:pos:R:3:Z:I:1 energy=-338.73650187505035 field_type=dipole dipole="0.000000 0.000000 0.000000" charge=0
C	-0.394259	-2.141734	0.469732	6
O	-0.736219	-1.311594	-0.632258	8
N	-0.153579	-0.067124	-0.437478	7
C	-0.818759	1.072196	-0.110888	6
C	0.134711	2.063676	-0.090718	6
C	1.333261	1.406996	-0.441108	6
N	1.154591	0.100766	-0.660708	7
H	-0.926909	-3.090534	0.356992	1
H	-0.703859	-1.688064	1.417522	1
H	0.679621	-2.355264	0.482602	1
H	-1.882999	1.072616	0.067032	1
H	-0.011319	3.110936	0.129642	1
H	2.325721	1.827126	-0.550368	1
Es	0.754762	1.779404	-0.265574	99
Es	0.039968	2.772400	0.056356	99
Es	-0.153561	-0.067339	-0.437381	99
Es	-1.529364	1.066976	0.010431	99
Es	-0.818747	1.071968	-0.110923	99
Es	0.002253	1.660089	-0.147690	99
Es	-0.387715	1.590648	-0.075994	99
Es	2.002288	1.702544	-0.512208	99
Es	1.175622	0.607098	-0.332517	99
Es	-0.767327	-2.784194	0.388686	99
Es	1.162027	0.718000	-0.776588	99
Es	-0.599247	-1.829383	1.102469	99
Es	-0.448971	-0.740022	-0.521934	99
Es	0.468881	-0.004607	-0.544405	99
Es	0.333589	-2.275461	0.485749	99
Es	-0.175471	0.153004	-0.369477	99
Es	1.333274	1.406926	-0.441126	99
Es	-0.582165	-1.562329	-0.241973	99
Es	-0.481579	0.398516	-0.300726	99
Es	-0.582723	-1.421707	-0.842130	99
Es	1.375938	-0.182449	-0.748207	99
Es	0.134701	2.063694	-0.090713	99
Es	1.154115	0.101181	-0.660534	99
Es	-1.071706	-1.287802	-0.606171	99
Es	-0.394335	-2.141593	0.469543	99
Es	-0.736028	-1.311444	-0.631664	99
39
Properties=species:S:1:pos:R:3:Z:I:1 energy=-338.73650187505035 field_type=dipole dipole="0.000000 0.000000 0.000000" charge=0
C	-0.394259	-2.141734	0.469732	6
O	-0.736219	-1.311594	-0.632258	8
N	-0.153579	-0.067124	-0.437478	7
C	-0.818759	1.072196	-0.110888	6
C	0.134711	2.063676	-0.090718	6
C	1.333261	1.406996	-0.441108	6
N	1.154591	0.100766	-0.660708	7
H	-0.926909	-3.090534	0.356992	1
H	-0.703859	-1.688064	1.417522	1
H	0.679621	-2.355264	0.482602	1
H	-1.882999	1.072616	0.067032	1
H	-0.011319	3.110936	0.129642	1
H	2.325721	1.827126	-0.550368	1
Es	-0.448900	-0.740049	-0.522166	99
Es	0.468743	-0.004367	-0.544970	99
Es	-0.482149	0.399095	-0.304248	99
Es	-0.767241	-2.784230	0.388668	99
Es	-0.818746	1.071968	-0.110925	99
Es	1.375247	-0.182397	-0.748350	99
Es	-0.388484	1.591335	-0.079822	99
Es	0.134698	2.063697	-0.090729	99
Es	-0.581143	-1.562673	-0.242407	99
Es	1.169305	0.606986	-0.341708	99
Es	-1.529338	1.066940	0.010456	99
Es	1.168493	0.717065	-0.767049	99
Es	-0.735945	-1.311460	-0.631893	99
Es	1.154122	0.101184	-0.660526	99
Es	1.333274	1.406926	-0.441125	99
Es	0.004510	1.659757	-0.143880	99
Es	0.040102	2.772399	0.056379	99
Es	-0.175767	0.152749	-0.365121	99
Es	-0.153576	-0.067322	-0.437485	99
Es	2.002307	1.702522	-0.512275	99
Es	0.333516	-2.275529	0.485854	99
Es	-1.071471	-1.287511	-0.603963	99
Es	0.754644	1.779521	-0.265906	99
Es	-0.394335	-2.141598	0.469552	99
Es	-0.599388	-1.829101	1.102731	99
Es	-0.584002	-1.421790	-0.843791	99
39
Properties=species:S:1:pos:R:3:Z:I:1 energy=-338.73650187505035 field_type=dipole dipole="0.000000 0.000000 0.000000" charge=0
C	-0.394259	-2.141734	0.469732	6
O	-0.736219	-1.311594	-0.632258	8
N	-0.153579	-0.067124	-0.437478	7
C	-0.818759	1.072196	-0.110888	6
C	0.134711	2.063676	-0.090718	6
C	1.333261	1.406996	-0.441108	6
N	1.154591	0.100766	-0.660708	7
H	-0.926909	-3.090534	0.356992	1
H	-0.703859	-1.688064	1.417522	1
H	0.679621	-2.355264	0.482602	1
H	-1.882999	1.072616	0.067032	1
H	-0.011319	3.110936	0.129642	1
H	2.325721	1.827126	-0.550368	1
Es	0.134700	2.063696	-0.090719	99
Es	1.154111	0.101182	-0.660525	99
Es	-0.448965	-0.739981	-0.521992	99
Es	-0.394335	-2.141598	0.469555	99
Es	-0.387798	1.590657	-0.076349	99
Es	-0.767430	-2.784215	0.388964	99
Es	0.040113	2.772494	0.055976	99
Es	1.164594	0.717557	-0.773220	99
Es	-0.735883	-1.311465	-0.631748	99
Es	-0.818747	1.071968	-0.110927	99
Es	0.333622	-2.275364	0.485926	99
Es	2.002292	1.702564	-0.512264	99
Es	0.004341	1.660886	-0.147538	99
Es	-1.529310	1.066959	0.010223	99
Es	-0.598945	-1.829996	1.101775	99
Es	-0.573288	-1.431130	-0.838484	99
Es	1.172040	0.606492	-0.336528	99
Es	0.468977	-0.004936	-0.543837	99
Es	-0.175052	0.151708	-0.360411	99
Es	0.754649	1.779431	-0.265378	99
Es	-0.153639	-0.067228	-0.437794	99
Es	-1.071993	-1.288846	-0.606620	99
Es	1.333275	1.406926	-0.441124	99
Es	-0.591672	-1.551381	-0.244579	99
Es	-0.482907	0.400016	-0.309817	99
Es	1.375727	-0.182277	-0.747268	99
39
Properties=species:S:1:pos:R:3:Z:I:1 energy=-338.73650187505035 field_type=dipole dipole="0.000000 0.000000 0.000000" charge=0
C	-0.394259	-2.141734	0.469732	6
O	-0.736219	-1.311594	-0.632258	8
N	-0.153579	-0.067124	-0.437478	7
C	-0.818759	1.072196	-0.110888	6
C	0.134711	2.063676	-0.090718	6
C	1.333261	1.406996	-0.441108	6
N	1.154591	0.100766	-0.660708	7
H	-0.926909	-3.090534	0.356992	1
H	-0.703859	-1.688064	1.417522	1
H	0.679621	-2.355264	0.482602	1
H	-1.882999	1.072616	0.067032	1
H	-0.011319	3.110936	0.129642	1
H	2.325721	1.827126	-0.550368	1
Es	1.375302	-0.182141	-0.747853	99
Es	-1.071698	-1.288424	-0.603122	99
Es	-0.176468	0.153039	-0.365481	99
Es	1.154111	0.101186	-0.660528	99
Es	-0.583933	-1.421410	-0.842954	99
Es	-0.736073	-1.311471	-0.631945	99
Es	-0.581312	-1.561800	-0.243614	99
Es	-0.818746	1.071968	-0.110924	99
Es	-0.448741	-0.740083	-0.522372	99
Es	2.002322	1.702591	-0.512161	99
Es	0.005777	1.660792	-0.145694	99
Es	-1.529342	1.066968	0.010313	99
Es	-0.482053	0.399012	-0.303777	99
Es	-0.599151	-1.829486	1.102288	99
Es	0.468732	-0.004683	-0.545054	99
Es	0.754675	1.779326	-0.265458	99
Es	-0.394335	-2.141598	0.469554	99
Es	1.333274	1.406926	-0.441125	99
Es	0.333572	-2.275376	0.485774	99
Es	0.040171	2.772408	0.056284	99
Es	-0.388221	1.591080	-0.078414	99
Es	1.164655	0.606835	-0.348625	99
Es	1.172161	0.716345	-0.760639	99
Es	-0.153538	-0.067345	-0.437253	99
Es	0.134700	2.063695	-0.090716	99
Es	-0.767363	-2.784235	0.388792	99
39
Properties=species:S:1:pos:R:3:Z:I:1 energy=-338.73650187505035 field_type=dipole dipole="0.000000 0.000000 0.000000" charge=0
C	-0.394259	-2.141734	0.469732	6
O	-0.736219	-1.311594	-0.632258	8
N	-0.153579	-0.067124	-0.437478	7
C	-0.818759	1.072196	-0.110888	6
C	0.134711	2.063676	-0.090718	6
C	1.333261	1.406996	-0.441108	6
N	1.154591	0.100766	-0.660708	7
H	-0.926909	-3.090534	0.356992	1
H	-0.703859	-1.688064	1.417522	1
H	0.679621	-2.355264	0.482602	1
H	-1.882999	1.072616	0.067032	1
H	-0.011319	3.110936	0.129642	1
H	2.325721	1.827126	-0.550368	1
Es	1.174929	0.715729	-0.755299	99
Es	2.002319	1.702610	-0.512150	99
Es	-0.767324	-2.784253	0.388630	99
Es	0.333664	-2.275146	0.485637	99
Es	-0.595159	-1.410866	-0.842381	99
Es	-0.387659	1.590482	-0.075654	99
Es	-1.529301	1.066928	0.010599	99
Es	-0.448278	-0.740266	-0.522614	99
Es	-0.481203	0.397985	-0.298037	99
Es	-0.736007	-1.311469	-0.631854	99
Es	1.154127	0.101183	-0.660527	99
Es	-0.394334	-2.141597	0.469550	99
Es	0.040207	2.772325	0.056652	99
Es	0.005221	1.661301	-0.148668	99
Es	-0.570182	-1.572089	-0.246407	99
Es	-0.818748	1.071969	-0.110923	99
Es	0.134700	2.063696	-0.090716	99
Es	1.333275	1.406926	-0.441122	99
Es	1.374999	-0.182003	-0.748890	99
Es	0.754667	1.779354	-0.265177	99
Es	-1.071876	-1.289423	-0.600869	99
Es	1.162198	0.607429	-0.353415	99
Es	-0.599519	-1.828775	1.102670	99
Es	-0.153568	-0.067333	-0.437427	99
Es	0.468545	-0.004451	-0.545591	99
Es	-0.177215	0.153873	-0.370719	99
39
Properties=species:S:1:pos:R:3:Z:I:1 energy=-338.73650187505035 field_type=dipole dipole="0.000000 0.000000 0.000000" charge=0
C	-0.394259	-2.141734	0.469732	6
O	-0.736219	-1.311594	-0.632258	8
N	-0.153579	-0.067124	-0.437478	7
C	-0.818759	1.072196	-0.110888	6
C	0.134711	2.063676	-0.090718	6
C	1.333261	1.406996	-0.441108	6
N	1.154591	0.100766	-0.660708	7
H	-0.926909	-3.090534	0.356992	1
H	-0.703859	-1.688064	1.417522	1
H	0.679621	-2.355264	0.482602	1
H	-1.882999	1.072616	0.067032	1
H	-0.011319	3.110936	0.129642	1
H	2.325721	1.827126	-0.550368	1
Es	2.002297	1.702823	-0.512069	99
Es	0.754536	1.779356	-0.266055	99
Es	-0.385266	1.588303	-0.064352	99
Es	-0.478231	0.394714	-0.281231	99
Es	0.333434	-2.275405	0.485246	99
Es	1.333275	1.406925	-0.441119	99
Es	-0.153581	-0.067321	-0.437496	99
Es	0.134702	2.063696	-0.090712	99
Es	-0.394333	-2.141599	0.469553	99
Es	1.374047	-0.181151	-0.751437	99
Es	-0.447382	-0.740597	-0.523947	99
Es	1.167970	0.717359	-0.767532	99
Es	-0.818746	1.071968	-0.110923	99
Es	-1.529226	1.066605	0.011350	99
Es	-0.179700	0.156044	-0.383439	99
Es	0.467781	-0.003749	-0.549808	99
Es	-0.599913	-1.827332	1.103638	99
Es	-0.736033	-1.311446	-0.631877	99
Es	0.040547	2.772136	0.057586	99
Es	-0.629594	-1.386804	-0.825209	99
Es	-0.537555	-1.597867	-0.273373	99
Es	-1.070528	-1.288512	-0.590513	99
Es	0.001994	1.661349	-0.159174	99
Es	-0.767280	-2.784213	0.388232	99
Es	1.171147	0.607653	-0.339512	99
Es	1.154117	0.101183	-0.660529	99
39
Properties=species:S:1:pos:R:3:Z:I:1 energy=-338.73650187505035 field_type=dipole dipole="0.000000 0.000000 0.000000" charge=0
C	-0.394259	-2.141734	0.469732	6
O	-0.736219	-1.311594	-0.632258	8
N	-0.153579	-0.067124	-0.437478	7
C	-0.818759	1.072196	-0.110888	6
C	0.134711	2.063676	-0.090718	6
C	1.333261	1.406996	-0.441108	6
N	1.154591	0.100766	-0.660708	7
H	-0.926909	-3.090534	0.356992	1
H	-0.703859	-1.688064	1.417522	1
H	0.679621	-2.355264	0.482602	1
H	-1.882999	1.072616	0.067032	1
H	-0.011319	3.110936	0.129642	1
H	2.325721	1.827126	-0.550368	1
Es	0.333504	-2.275190	0.485503	99
Es	0.134701	2.063695	-0.090714	99
Es	-0.385983	1.588979	-0.067498	99
Es	-0.447473	-0.740628	-0.523570	99
Es	-0.153576	-0.067329	-0.437463	99
Es	1.154113	0.101182	-0.660530	99
Es	-0.549753	-1.589727	-0.259905	99
Es	2.002306	1.702753	-0.511999	99
Es	0.754639	1.779287	-0.265527	99
Es	-0.767206	-2.784298	0.388310	99
Es	0.003987	1.662094	-0.156645	99
Es	-0.599950	-1.827633	1.103375	99
Es	-0.818745	1.071967	-0.110921	99
Es	-0.394336	-2.141592	0.469544	99
Es	-0.735944	-1.311712	-0.631936	99
Es	-0.479508	0.396055	-0.287912	99
Es	0.468251	-0.004297	-0.547619	99
Es	0.040449	2.772157	0.057440	99
Es	-0.179261	0.155589	-0.378702	99
Es	1.176149	0.715611	-0.752982	99
Es	-0.616756	-1.394531	-0.834399	99
Es	-1.529281	1.066694	0.010906	99
Es	1.161849	0.607826	-0.354741	99
Es	1.333275	1.406925	-0.441119	99
Es	-1.071252	-1.288472	-0.595064	99
Es	1.374278	-0.181289	-0.750530	99
39
Properties=species:S:1:pos:R:3:Z:I:1 energy=-338.73650187505035 field_type=dipole dipole="0.000000 0.000000 0.000000" charge=0
C	-0.394259	-2.141734	0.469732	6
O	-0.736219	-1.311594	-0.632258	8
N	-0.153579	-0.067124	-0.437478	7
C	-0.818759	1.072196	-0.110888	6
C	0.134711	2.063676	-0.090718	6
C	1.333261	1.406996	-0.441108	6
N	1.154591	0.100766	-0.660708	7
H	-0.926909	-3.090534	0.356992	1
H	-0.703859	-1.688064	1.417522	1
H	0.679621	-2.355264	0.482602	1
H	-1.882999	1.072616	0.067032	1
H	-0.011319	3.110936	0.129642	1
H	2.325721	1.827126	-0.550368	1
Es	-0.818747	1.071968	-0.110925	99
Es	-0.590763	-1.551099	-0.245238	99
Es	-0.448934	-0.739967	-0.521927	99
Es	-0.388516	1.591330	-0.080209	99
Es	1.333274	1.406926	-0.441125	99
Es	0.333669	-2.275143	0.486136	99
Es	-0.598635	-1.830556	1.100962	99
Es	2.002291	1.702729	-0.512154	99
Es	1.154109	0.101184	-0.660527	99
Es	-0.394334	-2.141596	0.469550	99
Es	-0.736105	-1.311539	-0.632148	99
Es	0.469020	-0.005307	-0.543317	99
Es	-0.767648	-2.784229	0.389184	99
Es	-0.153581	-0.067320	-0.437501	99
Es	0.754406	1.779262	-0.265534	99
Es	0.040292	2.772523	0.055844	99
Es	0.008416	1.661488	-0.144092	99
Es	-0.573989	-1.429813	-0.837896	99
Es	-1.072196	-1.290036	-0.605702	99
Es	-1.529348	1.066882	0.010126	99
Es	1.174793	0.715736	-0.756401	99
Es	0.134701	2.063696	-0.090712	99
Es	-0.177494	0.153474	-0.366448	99
Es	1.160754	0.606306	-0.353526	99
Es	-0.482131	0.399114	-0.304200	99
Es	1.375172	-0.181893	-0.746923	99
39
Properties=species:S:1:pos:R:3:Z:I:1 energy=-338.73650187505035 field_type=dipole dipole="0.000000 0.000000 0.000000" charge=0
C	-0.394259	-2.141734	0.469732	6
O	-0.736219	-1.311594	-0.632258	8
N	-0.153579	-0.067124	-0.437478	7
C	-0.818759	1.072196	-0.110888	6
C	0.134711	2.063676	-0.090718	6
C	1.333261	1.406996	-0.441108	6
N	1.154591	0.100766	-0.660708	7
H	-0.926909	-3.090534	0.356992	1
H	-0.703859	-1.688064	1.417522	1
H	0.679621	-2.355264	0.482602	1
H	-1.882999	1.072616	0.067032	1
H	-0.011319	3.110936	0.129642	1
H	2.325721	1.827126	-0.550368	1
Es	-0.153608	-0.067282	-0.437650	99
Es	-0.818747	1.071968	-0.110927	99
Es	-0.604519	-1.402756	-0.839230	99
Es	1.182590	0.713811	-0.739958	99
Es	-0.448032	-0.740352	-0.522925	99
Es	-1.071856	-1.289304	-0.600620	99
Es	1.154120	0.101186	-0.660527	99
Es	-0.735953	-1.311469	-0.631910	99
Es	-1.529331	1.066748	0.010696	99
Es	-0.480488	0.397182	-0.293638	99
Es	-0.386740	1.589633	-0.071296	99
Es	0.134701	2.063695	-0.090713	99
Es	0.754551	1.779341	-0.265445	99
Es	1.154237	0.608269	-0.368493	99
Es	-0.560971	-1.580643	-0.249802	99
Es	-0.767331	-2.784240	0.388402	99
Es	-0.394334	-2.141599	0.469558	99
Es	0.006346	1.662529	-0.152931	99
Es	2.002366	1.702667	-0.512032	99
Es	-0.599750	-1.828299	1.102944	99
Es	1.374411	-0.181320	-0.749551	99
Es	1.333275	1.406926	-0.441124	99
Es	0.333611	-2.275151	0.485647	99
Es	-0.178813	0.154905	-0.373461	99
Es	0.040383	2.772254	0.057002	99
Es	0.468358	-0.004580	-0.546717	99
39
Properties=species:S:1:pos:R:3:Z:I:1 energy=-338.73650187505035 field_type=dipole dipole="0.000000 0.000000 0.000000" charge=0
C	-0.394259	-2.141734	0.469732	6
O	-0.736219	-1.311594	-0.632258	8
N	-0.153579	-0.067124	-0.437478	7
C	-0.818759	1.072196	-0.110888	6
C	0.134711	2.063676	-0.090718	6
C	1.333261	1.406996	-0.441108	6
N	1.154591	0.100766	-0.660708	7
H	-0.926909	-3.090534	0.356992	1
H	-0.703859	-1.688064	1.417522	1
H	0.679621	-2.355264	0.482602	1
H	-1.882999	1.072616	0.067032	1
H	-0.011319	3.110936	0.129642	1
H	2.325721	1.827126	-0.550368	1
Es	-0.612083	-1.398016	-0.837652	99
Es	1.181836	0.714139	-0.741987	99
Es	1.333274	1.406927	-0.441128	99
Es	-0.479773	0.396469	-0.289923	99
Es	1.154112	0.101184	-0.660530	99
Es	0.333584	-2.275182	0.485605	99
Es	-0.553905	-1.584772	-0.256389	99
Es	-0.767376	-2.784233	0.388461	99
Es	-0.447778	-0.740441	-0.523357	99
Es	1.155065	0.607846	-0.366269	99
Es	0.754543	1.779301	-0.265851	99
Es	1.374250	-0.181320	-0.749679	99
Es	-0.599789	-1.827996	1.103042	99
Es	-0.394334	-2.141597	0.469551	99
Es	0.134701	2.063695	-0.090711	99
Es	-0.735946	-1.311468	-0.631910	99
Es	0.007040	1.662213	-0.151875	99
Es	2.002337	1.702758	-0.512059	99
Es	-0.179746	0.155657	-0.376564	99
Es	0.468200	-0.004351	-0.547534	99
Es	-0.153580	-0.067323	-0.437488	99
Es	0.040494	2.772188	0.057245	99
Es	-1.529297	1.066670	0.010950	99
Es	-0.818747	1.071967	-0.110923	99
Es	-0.387067	1.589905	-0.072398	99
Es	-1.071538	-1.290100	-0.595326	99
39
Properties=species:S:1:pos:R:3:Z:I:1 energy=-338.73650187505035 field_type=dipole dipole="0.000000 0.000000 0.000000" charge=0
C	-0.394259	-2.141734	0.469732	6
O	-0.736219	-1.311594	-0.632258	8
N	-0.153579	-0.067124	-0.437478	7
C	-0.818759	1.072196	-0.110888	6
C	0.134711	2.063676	-0.090718	6
C	1.333261	1.406996	-0.441108	6
N	1.154591	0.100766	-0.660708	7
H	-0.926909	-3.090534	0.356992	1
H	-0.703859	-1.688064	1.417522	1
H	0.679621	-2.355264	0.482602	1
H	-1.882999	1.072616	0.067032	1
H	-0.011319	3.110936	0.129642	1
H	2.325721	1.827126	-0.550368	1
Es	0.134707	2.063685	-0.090679	99
Es	-0.388441	1.591225	-0.079837	99
Es	-0.736053	-1.311447	-0.631856	99
Es	-0.483319	0.400498	-0.312773	99
Es	-0.598146	-1.831694	1.099533	99
Es	1.375321	-0.181695	-0.745192	99
Es	1.168030	0.605566	-0.339339	99
Es	-1.072470	-1.291825	-0.606647	99
Es	-0.394334	-2.141598	0.469553	99
Es	-0.767642	-2.784370	0.389500	99
Es	0.008808	1.661342	-0.143905	99
Es	1.154112	0.101184	-0.660524	99
Es	2.002193	1.702945	-0.512345	99
Es	1.333274	1.406926	-0.441129	99
Es	0.333556	-2.275026	0.486579	99
Es	-0.176386	0.151617	-0.359270	99
Es	0.754316	1.779275	-0.266165	99
Es	1.166513	0.717455	-0.771501	99
Es	-1.529242	1.066811	0.009984	99
Es	-0.153520	-0.067345	-0.437120	99
Es	-0.818748	1.071969	-0.110934	99
Es	0.469344	-0.006006	-0.542208	99
Es	0.040402	2.772702	0.055085	99
Es	-0.607513	-1.530689	-0.255929	99
Es	-0.556907	-1.447700	-0.825436	99
Es	-0.449377	-0.739687	-0.522149	99
