41
Properties=species:S:1:pos:R:3:Z:I:1 energy=-359.71559471914475 field_type=dipole dipole="0.000000 0.000000 0.000000" charge=0
C	-1.569903	-2.414318	-0.362537	6
O	-0.268143	-1.840148	-0.381577	8
N	-0.397163	-0.444638	-0.315467	7
C	0.782217	0.077802	-0.344857	6
C	0.881896	1.542642	-0.291817	6
C	0.842297	2.259302	1.031093	6
O	2.077256	2.027852	0.342773	8
H	-1.469053	-3.501198	-0.421037	1
H	-2.149893	-2.066998	-1.223057	1
H	-2.083833	-2.156858	0.568553	1
H	1.711806	-0.512828	-0.412617	1
H	0.534457	2.073412	-1.169077	1
H	0.647216	1.683792	1.927663	1
H	0.460846	3.272182	1.051963	1
Es	-0.335850	-1.226114	-0.354038	99
Es	-1.925178	-2.238517	0.272821	99
Es	1.680404	1.809941	0.014176	99
Es	-1.970033	-2.177290	-0.949203	99
Es	-0.268399	-1.840040	-0.381566	99
Es	0.782221	0.077854	-0.344842	99
Es	2.170501	2.289567	0.207863	99
Es	-0.140125	-1.889968	-0.658697	99
Es	2.216413	1.783702	0.470666	99
Es	-0.773004	-2.032731	-0.373384	99
Es	1.399592	-0.309696	-0.389876	99
Es	0.720285	1.871394	1.641246	99
Es	0.136867	-0.226201	-0.037961	99
Es	0.622624	1.855481	0.366643	99
Es	0.836054	0.804009	-0.318938	99
Es	-0.396607	-0.444935	-0.315510	99
Es	0.882165	1.542699	-0.291656	99
Es	0.111845	-0.198634	-0.619152	99
Es	1.664987	2.166119	0.688476	99
Es	0.656184	1.893019	-0.888580	99
Es	0.842547	2.259232	1.030904	99
Es	-0.745755	-0.297014	-0.293677	99
Es	0.591813	2.949954	1.046947	99
Es	-1.495128	-3.152554	-0.402364	99
Es	-1.569683	-2.414235	-0.362541	99
Es	-0.124979	-1.910187	-0.117381	99
Es	2.076890	2.027835	0.342772	99
41
Properties=species:S:1:pos:R:3:Z:I:1 energy=-359.71559471914475 field_type=dipole dipole="0.000000 0.000000 0.000000" charge=0
C	-1.569903	-2.414318	-0.362537	6
O	-0.268143	-1.840148	-0.381577	8
N	-0.397163	-0.444638	-0.315467	7
C	0.782217	0.077802	-0.344857	6
C	0.881896	1.542642	-0.291817	6
C	0.842297	2.259302	1.031093	6
O	2.077256	2.027852	0.342773	8
H	-1.469053	-3.501198	-0.421037	1
H	-2.149893	-2.066998	-1.223057	1
H	-2.083833	-2.156858	0.568553	1
H	1.711806	-0.512828	-0.412617	1
H	0.534457	2.073412	-1.169077	1
H	0.647216	1.683792	1.927663	1
H	0.460846	3.272182	1.051963	1
Es	-0.268424	-1.840014	-0.381560	99
Es	2.076877	2.027827	0.342769	99
Es	0.720938	1.872606	1.639782	99
Es	0.137572	-0.227086	-0.037784	99
Es	0.835498	0.803350	-0.317970	99
Es	-0.334456	-1.225493	-0.349285	99
Es	1.399077	-0.309446	-0.389896	99
Es	1.668629	2.165747	0.690269	99
Es	-0.745539	-0.295970	-0.295121	99
Es	-1.495772	-3.152767	-0.403317	99
Es	2.183258	2.289877	0.208947	99
Es	0.657056	1.892169	-0.886615	99
Es	-1.569684	-2.414235	-0.362540	99
Es	-1.968977	-2.177870	-0.947941	99
Es	-0.134542	-1.905700	-0.124630	99
Es	-0.775351	-2.035908	-0.375826	99
Es	0.782214	0.077852	-0.344855	99
Es	0.842553	2.259228	1.030896	99
Es	-0.396605	-0.444942	-0.315511	99
Es	0.882162	1.542702	-0.291655	99
Es	-0.130573	-1.891335	-0.654732	99
Es	1.679992	1.806193	0.012716	99
Es	0.592518	2.949431	1.048314	99
Es	0.619596	1.855196	0.364434	99
Es	0.112365	-0.199122	-0.618601	99
Es	2.202482	1.788585	0.470230	99
Es	-1.926214	-2.238178	0.272630	99
41
Properties=species:S:1:pos:R:3:Z:I:1 energy=-359.71559471914475 field_type=dipole dipole="0.000000 0.000000 0.000000" charge=0
C	-1.569903	-2.414318	-0.362537	6
O	-0.268143	-1.840148	-0.381577	8
N	-0.397163	-0.444638	-0.315467	7
C	0.782217	0.077802	-0.344857	6
C	0.881896	1.542642	-0.291817	6
C	0.842297	2.259302	1.031093	6
O	2.077256	2.027852	0.342773	8
H	-1.469053	-3.501198	-0.421037	1
H	-2.149893	-2.066998	-1.223057	1
H	-2.083833	-2.156858	0.568553	1
H	1.711806	-0.512828	-0.412617	1
H	0.534457	2.073412	-1.169077	1
H	0.647216	1.683792	1.927663	1
H	0.460846	3.272182	1.051963	1
Es	2.184713	1.793848	0.468268	99
Es	0.112689	-0.199766	-0.618077	99
Es	2.076884	2.027851	0.342759	99
Es	1.398930	-0.309310	-0.389382	99
Es	0.657682	1.891557	-0.885266	99
Es	0.842545	2.259235	1.030903	99
Es	0.835091	0.802928	-0.317413	99
Es	2.200060	2.288449	0.210733	99
Es	-0.268485	-1.839965	-0.381537	99
Es	-1.569681	-2.414233	-0.362542	99
Es	0.592801	2.948947	1.049139	99
Es	0.617448	1.854628	0.363218	99
Es	-0.745470	-0.295130	-0.296691	99
Es	0.721565	1.873663	1.638506	99
Es	-1.968317	-2.178133	-0.947164	99
Es	-1.496232	-3.152905	-0.403854	99
Es	0.882167	1.542705	-0.291659	99
Es	-1.926777	-2.237953	0.272368	99
Es	0.138104	-0.227447	-0.037958	99
Es	1.678796	1.803603	0.012771	99
Es	1.672067	2.165354	0.691208	99
Es	-0.776432	-2.037270	-0.378637	99
Es	-0.122262	-1.893629	-0.651115	99
Es	-0.333216	-1.225351	-0.345701	99
Es	-0.143629	-1.901896	-0.129370	99
Es	0.782216	0.077853	-0.344845	99
Es	-0.396607	-0.444937	-0.315513	99
41
Properties=species:S:1:pos:R:3:Z:I:1 energy=-359.71559471914475 field_type=dipole dipole="0.000000 0.000000 0.000000" charge=0
C	-1.569903	-2.414318	-0.362537	6
O	-0.268143	-1.840148	-0.381577	8
N	-0.397163	-0.444638	-0.315467	7
C	0.782217	0.077802	-0.344857	6
C	0.881896	1.542642	-0.291817	6
C	0.842297	2.259302	1.031093	6
O	2.077256	2.027852	0.342773	8
H	-1.469053	-3.501198	-0.421037	1
H	-2.149893	-2.066998	-1.223057	1
H	-2.083833	-2.156858	0.568553	1
H	1.711806	-0.512828	-0.412617	1
H	0.534457	2.073412	-1.169077	1
H	0.647216	1.683792	1.927663	1
H	0.460846	3.272182	1.051963	1
Es	-1.569676	-2.414234	-0.362539	99
Es	-0.332360	-1.225135	-0.343589	99
Es	2.076885	2.027901	0.342733	99
Es	-0.396604	-0.444929	-0.315510	99
Es	0.842553	2.259232	1.030903	99
Es	0.113499	-0.200619	-0.617019	99
Es	-0.149180	-1.899352	-0.133007	99
Es	2.168914	1.798894	0.467084	99
Es	0.782218	0.077854	-0.344848	99
Es	1.398783	-0.309274	-0.389124	99
Es	-0.776848	-2.038235	-0.380025	99
Es	0.137927	-0.227425	-0.037655	99
Es	2.215513	2.283583	0.213633	99
Es	0.616076	1.854432	0.362251	99
Es	-1.927070	-2.237799	0.272143	99
Es	0.882171	1.542712	-0.291665	99
Es	0.722024	1.874368	1.637418	99
Es	1.674041	2.167144	0.690470	99
Es	-0.117557	-1.895177	-0.648495	99
Es	0.593050	2.948572	1.049829	99
Es	-0.745521	-0.294469	-0.298721	99
Es	0.834592	0.802659	-0.317139	99
Es	-1.967871	-2.178165	-0.946527	99
Es	0.658170	1.891115	-0.884057	99
Es	-1.496588	-3.153111	-0.404300	99
Es	-0.268506	-1.839957	-0.381463	99
Es	1.678017	1.802110	0.012369	99
41
Properties=species:S:1:pos:R:3:Z:I:1 energy=-359.71559471914475 field_type=dipole dipole="0.000000 0.000000 0.000000" charge=0
C	-1.569903	-2.414318	-0.362537	6
O	-0.268143	-1.840148	-0.381577	8
N	-0.397163	-0.444638	-0.315467	7
C	0.782217	0.077802	-0.344857	6
C	0.881896	1.542642	-0.291817	6
C	0.842297	2.259302	1.031093	6
O	2.077256	2.027852	0.342773	8
H	-1.469053	-3.501198	-0.421037	1
H	-2.149893	-2.066998	-1.223057	1
H	-2.083833	-2.156858	0.568553	1
H	1.711806	-0.512828	-0.412617	1
H	0.534457	2.073412	-1.169077	1
H	0.647216	1.683792	1.927663	1
H	0.460846	3.272182	1.051963	1
Es	0.834361	0.802414	-0.317026	99
Es	2.158535	1.804646	0.464502	99
Es	-1.967549	-2.178253	-0.946148	99
Es	2.076858	2.027695	0.342842	99
Es	0.615140	1.853980	0.361735	99
Es	0.722441	1.874977	1.636499	99
Es	0.842557	2.259234	1.030899	99
Es	1.398750	-0.309343	-0.388859	99
Es	0.137938	-0.227379	-0.037626	99
Es	-1.569682	-2.414234	-0.362542	99
Es	0.882163	1.542704	-0.291658	99
Es	-0.112854	-1.896969	-0.645941	99
Es	0.593127	2.948323	1.050302	99
Es	-1.927296	-2.237680	0.271873	99
Es	-0.331445	-1.225140	-0.341602	99
Es	-0.268493	-1.839973	-0.381602	99
Es	1.677691	1.800397	0.012608	99
Es	-0.396603	-0.444920	-0.315511	99
Es	0.658437	1.890911	-0.883337	99
Es	-1.496839	-3.153222	-0.404506	99
Es	0.782218	0.077854	-0.344847	99
Es	-0.777122	-2.038625	-0.381702	99
Es	2.225259	2.280978	0.216537	99
Es	0.113809	-0.201084	-0.616242	99
Es	1.675585	2.166347	0.690319	99
Es	-0.745560	-0.293969	-0.299995	99
Es	-0.154775	-1.896972	-0.135825	99
41
Properties=species:S:1:pos:R:3:Z:I:1 energy=-359.71559471914475 field_type=dipole dipole="0.000000 0.000000 0.000000" charge=0
C	-1.569903	-2.414318	-0.362537	6
O	-0.268143	-1.840148	-0.381577	8
N	-0.397163	-0.444638	-0.315467	7
C	0.782217	0.077802	-0.344857	6
C	0.881896	1.542642	-0.291817	6
C	0.842297	2.259302	1.031093	6
O	2.077256	2.027852	0.342773	8
H	-1.469053	-3.501198	-0.421037	1
H	-2.149893	-2.066998	-1.223057	1
H	-2.083833	-2.156858	0.568553	1
H	1.711806	-0.512828	-0.412617	1
H	0.534457	2.073412	-1.169077	1
H	0.647216	1.683792	1.927663	1
H	0.460846	3.272182	1.051963	1
Es	0.882163	1.542700	-0.291656	99
Es	-0.745543	-0.293693	-0.300295	99
Es	-0.330937	-1.225389	-0.339811	99
Es	-0.268494	-1.839958	-0.381502	99
Es	1.677201	1.799624	0.012817	99
Es	-1.496984	-3.153319	-0.404856	99
Es	0.614509	1.853615	0.361385	99
Es	0.658581	1.890769	-0.882565	99
Es	2.231854	2.278113	0.218426	99
Es	1.676870	2.166463	0.690389	99
Es	-1.927433	-2.237667	0.271831	99
Es	2.076883	2.027925	0.342718	99
Es	0.833873	0.802256	-0.317050	99
Es	0.593169	2.948108	1.050709	99
Es	0.782218	0.077854	-0.344852	99
Es	-1.569678	-2.414229	-0.362541	99
Es	-1.967323	-2.178256	-0.945734	99
Es	1.398815	-0.309270	-0.388615	99
Es	-0.156439	-1.896459	-0.137826	99
Es	0.722848	1.875464	1.635715	99
Es	0.113900	-0.201320	-0.616050	99
Es	-0.777355	-2.039180	-0.383103	99
Es	2.151600	1.808272	0.462676	99
Es	0.138126	-0.227515	-0.037860	99
Es	-0.396605	-0.444920	-0.315510	99
Es	-0.111723	-1.896524	-0.644588	99
Es	0.842555	2.259232	1.030898	99
41
Properties=species:S:1:pos:R:3:Z:I:1 energy=-359.71559471914475 field_type=dipole dipole="0.000000 0.000000 0.000000" charge=0
C	-1.569903	-2.414318	-0.362537	6
O	-0.268143	-1.840148	-0.381577	8
N	-0.397163	-0.444638	-0.315467	7
C	0.782217	0.077802	-0.344857	6
C	0.881896	1.542642	-0.291817	6
C	0.842297	2.259302	1.031093	6
O	2.077256	2.027852	0.342773	8
H	-1.469053	-3.501198	-0.421037	1
H	-2.149893	-2.066998	-1.223057	1
H	-2.083833	-2.156858	0.568553	1
H	1.711806	-0.512828	-0.412617	1
H	0.534457	2.073412	-1.169077	1
H	0.647216	1.683792	1.927663	1
H	0.460846	3.272182	1.051963	1
Es	-0.396607	-0.444938	-0.315511	99
Es	0.614158	1.853498	0.360963	99
Es	1.398713	-0.309289	-0.388484	99
Es	0.833670	0.802086	-0.316916	99
Es	1.677332	2.168008	0.688328	99
Es	0.138059	-0.227435	-0.037856	99
Es	2.076870	2.027925	0.342718	99
Es	0.114085	-0.201582	-0.615719	99
Es	1.677052	1.798412	0.013239	99
Es	-1.967267	-2.178308	-0.945699	99
Es	-0.159087	-1.895331	-0.139367	99
Es	0.882171	1.542707	-0.291658	99
Es	2.142324	1.813041	0.461773	99
Es	-1.497056	-3.153351	-0.404786	99
Es	0.593259	2.947941	1.050907	99
Es	-1.569681	-2.414235	-0.362541	99
Es	-0.330202	-1.225300	-0.338805	99
Es	-0.109725	-1.897619	-0.643316	99
Es	-0.777429	-2.039221	-0.383677	99
Es	0.723019	1.875753	1.635287	99
Es	-0.745634	-0.293481	-0.300974	99
Es	-1.927467	-2.237628	0.271651	99
Es	0.782219	0.077854	-0.344842	99
Es	0.658740	1.890684	-0.882179	99
Es	0.842553	2.259230	1.030899	99
Es	2.241080	2.273229	0.221311	99
Es	-0.268500	-1.839955	-0.381598	99
41
Properties=species:S:1:pos:R:3:Z:I:1 energy=-359.71559471914475 field_type=dipole dipole="0.000000 0.000000 0.000000" charge=0
C	-1.569903	-2.414318	-0.362537	6
O	-0.268143	-1.840148	-0.381577	8
N	-0.397163	-0.444638	-0.315467	7
C	0.782217	0.077802	-0.344857	6
C	0.881896	1.542642	-0.291817	6
C	0.842297	2.259302	1.031093	6
O	2.077256	2.027852	0.342773	8
H	-1.469053	-3.501198	-0.421037	1
H	-2.149893	-2.066998	-1.223057	1
H	-2.083833	-2.156858	0.568553	1
H	1.711806	-0.512828	-0.412617	1
H	0.534457	2.073412	-1.169077	1
H	0.647216	1.683792	1.927663	1
H	0.460846	3.272182	1.051963	1
Es	-1.967208	-2.178396	-0.945696	99
Es	0.658722	1.890636	-0.881924	99
Es	-1.569680	-2.414233	-0.362541	99
Es	-1.497123	-3.153414	-0.404632	99
Es	-0.330409	-1.225054	-0.339801	99
Es	0.593205	2.947979	1.051186	99
Es	0.842558	2.259228	1.030898	99
Es	1.398674	-0.309272	-0.388358	99
Es	-0.161863	-1.893677	-0.139483	99
Es	-1.927501	-2.237482	0.271481	99
Es	2.076886	2.027881	0.342742	99
Es	-0.268551	-1.839936	-0.381814	99
Es	1.676530	1.798009	0.013151	99
Es	-0.107096	-1.899133	-0.640701	99
Es	2.134235	1.818035	0.459129	99
Es	0.137945	-0.227436	-0.037750	99
Es	1.678171	2.168107	0.687847	99
Es	0.782219	0.077854	-0.344846	99
Es	2.248958	2.268751	0.224662	99
Es	-0.777419	-2.039602	-0.385017	99
Es	0.833560	0.802081	-0.316841	99
Es	0.614047	1.853212	0.360822	99
Es	-0.745403	-0.293230	-0.301609	99
Es	0.723206	1.875945	1.634764	99
Es	0.882155	1.542695	-0.291655	99
Es	0.114436	-0.201948	-0.615351	99
Es	-0.396603	-0.444905	-0.315511	99
41
Properties=species:S:1:pos:R:3:Z:I:1 energy=-359.71559471914475 field_type=dipole dipole="0.000000 0.000000 0.000000" charge=0
C	-1.569903	-2.414318	-0.362537	6
O	-0.268143	-1.840148	-0.381577	8
N	-0.397163	-0.444638	-0.315467	7
C	0.782217	0.077802	-0.344857	6
C	0.881896	1.542642	-0.291817	6
C	0.842297	2.259302	1.031093	6
O	2.077256	2.027852	0.342773	8
H	-1.469053	-3.501198	-0.421037	1
H	-2.149893	-2.066998	-1.223057	1
H	-2.083833	-2.156858	0.568553	1
H	1.711806	-0.512828	-0.412617	1
H	0.534457	2.073412	-1.169077	1
H	0.647216	1.683792	1.927663	1
H	0.460846	3.272182	1.051963	1
Es	-0.329459	-1.225075	-0.338247	99
Es	-0.777536	-2.039556	-0.386160	99
Es	2.076832	2.027984	0.342690	99
Es	-1.569678	-2.414231	-0.362543	99
Es	0.658904	1.890521	-0.881580	99
Es	0.593334	2.947745	1.051262	99
Es	-1.927495	-2.237595	0.271494	99
Es	0.882162	1.542699	-0.291655	99
Es	-0.268375	-1.840050	-0.381590	99
Es	0.613509	1.852990	0.360585	99
Es	0.842557	2.259230	1.030896	99
Es	-1.497272	-3.153459	-0.404983	99
Es	-0.396600	-0.444925	-0.315512	99
Es	0.114319	-0.202000	-0.615504	99
Es	1.398629	-0.309272	-0.388093	99
Es	-0.103575	-1.900899	-0.638969	99
Es	-0.166431	-1.891735	-0.141792	99
Es	0.782219	0.077854	-0.344852	99
Es	0.833458	0.801967	-0.316837	99
Es	1.675624	1.798336	0.013621	99
Es	-0.745450	-0.293164	-0.301790	99
Es	0.138148	-0.227447	-0.037853	99
Es	-1.967130	-2.178214	-0.945412	99
Es	0.723388	1.876319	1.634406	99
Es	1.679511	2.166128	0.688790	99
Es	2.134577	1.818428	0.457749	99
Es	2.248483	2.270118	0.225029	99
41
Properties=species:S:1:pos:R:3:Z:I:1 energy=-359.71559471914475 field_type=dipole dipole="0.000000 0.000000 0.000000" charge=0
C	-1.569903	-2.414318	-0.362537	6
O	-0.268143	-1.840148	-0.381577	8
N	-0.397163	-0.444638	-0.315467	7
C	0.782217	0.077802	-0.344857	6
C	0.881896	1.542642	-0.291817	6
C	0.842297	2.259302	1.031093	6
O	2.077256	2.027852	0.342773	8
H	-1.469053	-3.501198	-0.421037	1
H	-2.149893	-2.066998	-1.223057	1
H	-2.083833	-2.156858	0.568553	1
H	1.711806	-0.512828	-0.412617	1
H	0.534457	2.073412	-1.169077	1
H	0.647216	1.683792	1.927663	1
H	0.460846	3.272182	1.051963	1
Es	-1.497407	-3.153691	-0.405073	99
Es	-0.328937	-1.225151	-0.337133	99
Es	2.076866	2.027947	0.342714	99
Es	-0.161498	-1.894304	-0.142300	99
Es	2.128203	1.822822	0.456189	99
Es	0.593239	2.947777	1.051329	99
Es	-0.268486	-1.839979	-0.381611	99
Es	0.659090	1.890423	-0.881252	99
Es	0.782221	0.077854	-0.344839	99
Es	0.723437	1.876446	1.634093	99
Es	0.114740	-0.202337	-0.615067	99
Es	-0.745655	-0.292968	-0.302151	99
Es	-0.396599	-0.444932	-0.315512	99
Es	1.398648	-0.309250	-0.388020	99
Es	-1.569682	-2.414230	-0.362546	99
Es	1.679482	2.166846	0.687775	99
Es	0.882163	1.542699	-0.291656	99
Es	0.613451	1.852983	0.360505	99
Es	2.254660	2.266124	0.227565	99
Es	1.675943	1.797270	0.013759	99
Es	-1.927441	-2.237507	0.271312	99
Es	-0.777602	-2.039766	-0.384680	99
Es	0.842557	2.259225	1.030902	99
Es	-1.967049	-2.178151	-0.945112	99
Es	-0.108745	-1.898043	-0.641076	99
Es	0.137845	-0.227340	-0.038001	99
Es	0.833207	0.801927	-0.316967	99
41
Properties=species:S:1:pos:R:3:Z:I:1 energy=-359.71559471914475 field_type=dipole dipole="0.000000 0.000000 0.000000" charge=0
C	-1.569903	-2.414318	-0.362537	6
O	-0.268143	-1.840148	-0.381577	8
N	-0.397163	-0.444638	-0.315467	7
C	0.782217	0.077802	-0.344857	6
C	0.881896	1.542642	-0.291817	6
C	0.842297	2.259302	1.031093	6
O	2.077256	2.027852	0.342773	8
H	-1.469053	-3.501198	-0.421037	1
H	-2.149893	-2.066998	-1.223057	1
H	-2.083833	-2.156858	0.568553	1
H	1.711806	-0.512828	-0.412617	1
H	0.534457	2.073412	-1.169077	1
H	0.647216	1.683792	1.927663	1
H	0.460846	3.272182	1.051963	1
Es	0.658889	1.890538	-0.881204	99
Es	0.138033	-0.227363	-0.037854	99
Es	0.723644	1.876699	1.633908	99
Es	-1.927369	-2.237559	0.271246	99
Es	-0.777581	-2.039840	-0.385917	99
Es	-0.268506	-1.839960	-0.381476	99
Es	0.613294	1.852675	0.360343	99
Es	-1.497411	-3.153633	-0.404925	99
Es	1.398509	-0.309332	-0.387921	99
Es	-0.745410	-0.292907	-0.302430	99
Es	0.593407	2.947583	1.051443	99
Es	1.676193	1.796630	0.013819	99
Es	-0.166281	-1.891623	-0.142735	99
Es	0.882170	1.542707	-0.291659	99
Es	0.833242	0.801938	-0.316835	99
Es	-1.967152	-2.178166	-0.945215	99
Es	0.782218	0.077853	-0.344836	99
Es	0.842558	2.259228	1.030897	99
Es	-1.569680	-2.414226	-0.362551	99
Es	2.124665	1.825551	0.455293	99
Es	0.114546	-0.202306	-0.615002	99
Es	1.679500	2.167303	0.686949	99
Es	2.258087	2.263649	0.229393	99
Es	2.076806	2.028034	0.342662	99
Es	-0.329114	-1.224955	-0.338376	99
Es	-0.103998	-1.900882	-0.638355	99
Es	-0.396605	-0.444937	-0.315512	99
41
Properties=species:S:1:pos:R:3:Z:I:1 energy=-359.71559471914475 field_type=dipole dipole="0.000000 0.000000 0.000000" charge=0
C	-1.569903	-2.414318	-0.362537	6
O	-0.268143	-1.840148	-0.381577	8
N	-0.397163	-0.444638	-0.315467	7
C	0.782217	0.077802	-0.344857	6
C	0.881896	1.542642	-0.291817	6
C	0.842297	2.259302	1.031093	6
O	2.077256	2.027852	0.342773	8
H	-1.469053	-3.501198	-0.421037	1
H	-2.149893	-2.066998	-1.223057	1
H	-2.083833	-2.156858	0.568553	1
H	1.711806	-0.512828	-0.412617	1
H	0.534457	2.073412	-1.169077	1
H	0.647216	1.683792	1.927663	1
H	0.460846	3.272182	1.051963	1
Es	-0.328255	-1.224990	-0.337078	99
Es	0.114641	-0.202451	-0.614813	99
Es	1.398516	-0.309306	-0.387912	99
Es	1.675053	1.797319	0.013950	99
Es	-0.745668	-0.292846	-0.302556	99
Es	0.613324	1.852728	0.360151	99
Es	-1.569676	-2.414232	-0.362541	99
Es	0.138037	-0.227380	-0.037963	99
Es	-0.165400	-1.892226	-0.144100	99
Es	-1.927391	-2.237554	0.271187	99
Es	-0.777673	-2.039965	-0.385539	99
Es	2.122526	1.827042	0.453547	99
Es	0.659038	1.890420	-0.880963	99
Es	2.076718	2.028188	0.342581	99
Es	-0.396601	-0.444926	-0.315511	99
Es	2.260368	2.262331	0.230751	99
Es	0.782219	0.077854	-0.344842	99
Es	-0.268507	-1.839942	-0.381390	99
Es	0.842560	2.259224	1.030903	99
Es	1.680650	2.166356	0.687368	99
Es	-1.967046	-2.178088	-0.944999	99
Es	-1.497516	-3.153732	-0.405116	99
Es	0.882172	1.542703	-0.291655	99
Es	0.833017	0.801827	-0.316787	99
Es	0.593333	2.947619	1.051459	99
Es	0.723675	1.876773	1.633741	99
Es	-0.105463	-1.900051	-0.638725	99
41
Properties=species:S:1:pos:R:3:Z:I:1 energy=-359.71559471914475 field_type=dipole dipole="0.000000 0.000000 0.000000" charge=0
C	-1.569903	-2.414318	-0.362537	6
O	-0.268143	-1.840148	-0.381577	8
N	-0.397163	-0.444638	-0.315467	7
C	0.782217	0.077802	-0.344857	6
C	0.881896	1.542642	-0.291817	6
C	0.842297	2.259302	1.031093	6
O	2.077256	2.027852	0.342773	8
H	-1.469053	-3.501198	-0.421037	1
H	-2.149893	-2.066998	-1.223057	1
H	-2.083833	-2.156858	0.568553	1
H	1.711806	-0.512828	-0.412617	1
H	0.534457	2.073412	-1.169077	1
H	0.647216	1.683792	1.927663	1
H	0.460846	3.272182	1.051963	1
Es	-0.777585	-2.040307	-0.386073	99
Es	0.782220	0.077854	-0.344842	99
Es	-1.927450	-2.237501	0.271147	99
Es	0.114814	-0.202644	-0.614798	99
Es	-1.569680	-2.414230	-0.362543	99
Es	-0.268483	-1.839984	-0.381618	99
Es	0.613132	1.852643	0.360079	99
Es	-1.497559	-3.153737	-0.405136	99
Es	1.680935	2.166789	0.686911	99
Es	1.398562	-0.309233	-0.387776	99
Es	2.261458	2.261770	0.230870	99
Es	0.842557	2.259226	1.030900	99
Es	0.882171	1.542699	-0.291651	99
Es	0.659160	1.890362	-0.880762	99
Es	0.137999	-0.227392	-0.038053	99
Es	0.723774	1.876917	1.633445	99
Es	0.832858	0.801774	-0.316875	99
Es	0.593312	2.947500	1.051574	99
Es	-0.328891	-1.225351	-0.336372	99
Es	-0.104936	-1.899607	-0.638522	99
Es	2.076868	2.027906	0.342734	99
Es	-0.165777	-1.891986	-0.144210	99
Es	2.121223	1.828236	0.453407	99
Es	1.674957	1.796643	0.014440	99
Es	-0.396608	-0.444904	-0.315509	99
Es	-0.745404	-0.292612	-0.302682	99
Es	-1.966974	-2.178136	-0.944934	99
41
Properties=species:S:1:pos:R:3:Z:I:1 energy=-359.71559471914475 field_type=dipole dipole="0.000000 0.000000 0.000000" charge=0
C	-1.569903	-2.414318	-0.362537	6
O	-0.268143	-1.840148	-0.381577	8
N	-0.397163	-0.444638	-0.315467	7
C	0.782217	0.077802	-0.344857	6
C	0.881896	1.542642	-0.291817	6
C	0.842297	2.259302	1.031093	6
O	2.077256	2.027852	0.342773	8
H	-1.469053	-3.501198	-0.421037	1
H	-2.149893	-2.066998	-1.223057	1
H	-2.083833	-2.156858	0.568553	1
H	1.711806	-0.512828	-0.412617	1
H	0.534457	2.073412	-1.169077	1
H	0.647216	1.683792	1.927663	1
H	0.460846	3.272182	1.051963	1
Es	-0.268314	-1.840103	-0.381569	99
Es	0.138196	-0.227479	-0.038053	99
Es	0.782220	0.077854	-0.344843	99
Es	-0.745452	-0.292617	-0.302684	99
Es	0.723846	1.877023	1.633259	99
Es	-1.497606	-3.153755	-0.405280	99
Es	1.674849	1.796443	0.014781	99
Es	0.593306	2.947407	1.051631	99
Es	-1.966892	-2.178133	-0.944791	99
Es	2.261881	2.262032	0.231363	99
Es	0.832823	0.801751	-0.316880	99
Es	-1.569681	-2.414231	-0.362544	99
Es	2.076947	2.027823	0.342761	99
Es	0.842558	2.259226	1.030896	99
Es	-0.104261	-1.900024	-0.637632	99
Es	-0.777695	-2.039879	-0.387243	99
Es	1.398529	-0.309258	-0.387823	99
Es	0.659247	1.890282	-0.880565	99
Es	1.681395	2.165900	0.687000	99
Es	-0.328145	-1.225363	-0.335635	99
Es	-0.167265	-1.891752	-0.144689	99
Es	0.114655	-0.202562	-0.614829	99
Es	2.120523	1.829283	0.452581	99
Es	-0.396602	-0.444931	-0.315510	99
Es	-1.927496	-2.237522	0.271128	99
Es	0.612917	1.852579	0.359978	99
Es	0.882166	1.542702	-0.291657	99
41
Properties=species:S:1:pos:R:3:Z:I:1 energy=-359.71559471914475 field_type=dipole dipole="0.000000 0.000000 0.000000" charge=0
C	-1.569903	-2.414318	-0.362537	6
O	-0.268143	-1.840148	-0.381577	8
N	-0.397163	-0.444638	-0.315467	7
C	0.782217	0.077802	-0.344857	6
C	0.881896	1.542642	-0.291817	6
C	0.842297	2.259302	1.031093	6
O	2.077256	2.027852	0.342773	8
H	-1.469053	-3.501198	-0.421037	1
H	-2.149893	-2.066998	-1.223057	1
H	-2.083833	-2.156858	0.568553	1
H	1.711806	-0.512828	-0.412617	1
H	0.534457	2.073412	-1.169077	1
H	0.647216	1.683792	1.927663	1
H	0.460846	3.272182	1.051963	1
Es	0.593374	2.947347	1.051618	99
Es	-0.745286	-0.292554	-0.302732	99
Es	0.723804	1.877047	1.633238	99
Es	0.138125	-0.227432	-0.038004	99
Es	-0.328108	-1.225119	-0.335997	99
Es	-1.569680	-2.414232	-0.362543	99
Es	0.613016	1.852519	0.359949	99
Es	-0.777619	-2.040335	-0.386915	99
Es	1.674314	1.796267	0.014875	99
Es	2.264919	2.259078	0.232536	99
Es	1.681867	2.166945	0.686535	99
Es	2.076802	2.028038	0.342664	99
Es	-0.396605	-0.444938	-0.315511	99
Es	0.882167	1.542703	-0.291657	99
Es	0.114735	-0.202623	-0.614787	99
Es	-0.268493	-1.839969	-0.381588	99
Es	0.832868	0.801759	-0.317068	99
Es	-0.167839	-1.891152	-0.145421	99
Es	-0.103778	-1.900631	-0.636784	99
Es	0.842563	2.259229	1.030900	99
Es	-1.966973	-2.178062	-0.944883	99
Es	-1.497663	-3.153821	-0.405100	99
Es	2.117709	1.831170	0.451907	99
Es	1.398458	-0.309284	-0.387777	99
Es	0.782219	0.077854	-0.344846	99
Es	-1.927389	-2.237481	0.270972	99
Es	0.659142	1.890370	-0.880433	99
41
Properties=species:S:1:pos:R:3:Z:I:1 energy=-359.71559471914475 field_type=dipole dipole="0.000000 0.000000 0.000000" charge=0
C	-1.569903	-2.414318	-0.362537	6
O	-0.268143	-1.840148	-0.381577	8
N	-0.397163	-0.444638	-0.315467	7
C	0.782217	0.077802	-0.344857	6
C	0.881896	1.542642	-0.291817	6
C	0.842297	2.259302	1.031093	6
O	2.077256	2.027852	0.342773	8
H	-1.469053	-3.501198	-0.421037	1
H	-2.149893	-2.066998	-1.223057	1
H	-2.083833	-2.156858	0.568553	1
H	1.711806	-0.512828	-0.412617	1
H	0.534457	2.073412	-1.169077	1
H	0.647216	1.683792	1.927663	1
H	0.460846	3.272182	1.051963	1
Es	1.681884	2.165796	0.686670	99
Es	1.674558	1.796131	0.014930	99
Es	-0.745182	-0.292508	-0.303339	99
Es	0.842562	2.259227	1.030896	99
Es	0.882161	1.542699	-0.291655	99
Es	0.612932	1.852329	0.359866	99
Es	0.723964	1.877221	1.632993	99
Es	0.593409	2.947262	1.051735	99
Es	-1.966893	-2.178172	-0.944869	99
Es	0.782220	0.077854	-0.344842	99
Es	-0.396601	-0.444922	-0.315510	99
Es	2.265936	2.259076	0.233616	99
Es	2.116495	1.832569	0.450729	99
Es	-0.268519	-1.839943	-0.381421	99
Es	-1.927467	-2.237396	0.270928	99
Es	-0.169321	-1.890386	-0.145976	99
Es	-1.497635	-3.153852	-0.405055	99
Es	0.114989	-0.202887	-0.614464	99
Es	0.659041	1.890411	-0.880558	99
Es	1.398508	-0.309283	-0.387638	99
Es	2.076818	2.028003	0.342686	99
Es	-1.569681	-2.414232	-0.362543	99
Es	-0.102274	-1.901558	-0.636377	99
Es	-0.777705	-2.040107	-0.386988	99
Es	0.832724	0.801767	-0.316863	99
Es	0.137829	-0.227230	-0.037777	99
Es	-0.328100	-1.225175	-0.336024	99
41
Properties=species:S:1:pos:R:3:Z:I:1 energy=-359.71559471914475 field_type=dipole dipole="0.000000 0.000000 0.000000" charge=0
C	-1.569903	-2.414318	-0.362537	6
O	-0.268143	-1.840148	-0.381577	8
N	-0.397163	-0.444638	-0.315467	7
C	0.782217	0.077802	-0.344857	6
C	0.881896	1.542642	-0.291817	6
C	0.842297	2.259302	1.031093	6
O	2.077256	2.027852	0.342773	8
H	-1.469053	-3.501198	-0.421037	1
H	-2.149893	-2.066998	-1.223057	1
H	-2.083833	-2.156858	0.568553	1
H	1.711806	-0.512828	-0.412617	1
H	0.534457	2.073412	-1.169077	1
H	0.647216	1.683792	1.927663	1
H	0.460846	3.272182	1.051963	1
Es	-1.497725	-3.153915	-0.405335	99
Es	-0.166989	-1.891561	-0.145736	99
Es	0.612810	1.852453	0.359768	99
Es	-0.777696	-2.040352	-0.386596	99
Es	2.076822	2.028013	0.342673	99
Es	0.114846	-0.202758	-0.614637	99
Es	0.138049	-0.227395	-0.037863	99
Es	-1.927546	-2.237409	0.270921	99
Es	1.673958	1.795618	0.015596	99
Es	-1.569679	-2.414231	-0.362544	99
Es	0.593373	2.947232	1.051746	99
Es	-0.745321	-0.292499	-0.303070	99
Es	-0.268500	-1.839965	-0.381512	99
Es	2.267373	2.257538	0.233603	99
Es	0.659233	1.890254	-0.880212	99
Es	0.882162	1.542698	-0.291655	99
Es	2.115092	1.833644	0.450854	99
Es	-1.966733	-2.178121	-0.944621	99
Es	1.398425	-0.309273	-0.387727	99
Es	0.723937	1.877199	1.632931	99
Es	0.832760	0.801702	-0.317001	99
Es	-0.104643	-1.899944	-0.637317	99
Es	-0.396613	-0.444947	-0.315512	99
Es	-0.328022	-1.225259	-0.335567	99
Es	1.682504	2.166892	0.685909	99
Es	0.782220	0.077854	-0.344843	99
Es	0.842553	2.259228	1.030898	99
41
Properties=species:S:1:pos:R:3:Z:I:1 energy=-359.71559471914475 field_type=dipole dipole="0.000000 0.000000 0.000000" charge=0
C	-1.569903	-2.414318	-0.362537	6
O	-0.268143	-1.840148	-0.381577	8
N	-0.397163	-0.444638	-0.315467	7
C	0.782217	0.077802	-0.344857	6
C	0.881896	1.542642	-0.291817	6
C	0.842297	2.259302	1.031093	6
O	2.077256	2.027852	0.342773	8
H	-1.469053	-3.501198	-0.421037	1
H	-2.149893	-2.066998	-1.223057	1
H	-2.083833	-2.156858	0.568553	1
H	1.711806	-0.512828	-0.412617	1
H	0.534457	2.073412	-1.169077	1
H	0.647216	1.683792	1.927663	1
H	0.460846	3.272182	1.051963	1
Es	0.612621	1.852193	0.359707	99
Es	-0.396618	-0.444880	-0.315509	99
Es	-1.569679	-2.414230	-0.362544	99
Es	1.398354	-0.309200	-0.387592	99
Es	2.076952	2.027855	0.342761	99
Es	2.115446	1.833691	0.450259	99
Es	0.882164	1.542699	-0.291655	99
Es	-1.966965	-2.178201	-0.944933	99
Es	-0.268491	-1.839972	-0.381680	99
Es	-1.497606	-3.153793	-0.404982	99
Es	1.673195	1.795825	0.015929	99
Es	0.782220	0.077854	-0.344844	99
Es	-1.927439	-2.237463	0.270911	99
Es	-0.328025	-1.225166	-0.336288	99
Es	-0.745226	-0.292550	-0.303326	99
Es	0.724095	1.877412	1.632911	99
Es	-0.098743	-1.903272	-0.633956	99
Es	2.266794	2.258265	0.233439	99
Es	0.138169	-0.227434	-0.037787	99
Es	-0.172986	-1.888185	-0.146837	99
Es	0.659148	1.890314	-0.880369	99
Es	0.842560	2.259227	1.030896	99
Es	0.114802	-0.202833	-0.614716	99
Es	-0.777713	-2.040446	-0.388010	99
Es	0.593483	2.947039	1.051714	99
Es	1.683334	2.166242	0.686422	99
Es	0.832804	0.801701	-0.316770	99
