42
Properties=species:S:1:pos:R:3:Z:I:1 energy=-339.8735163336439 field_type=dipole dipole="0.000000 0.000000 0.000000" charge=0
C	-2.486228	-1.501564	-0.546853	6
O	-1.853688	-0.264134	-0.849063	8
N	-0.609148	-0.232605	-0.201023	7
C	-0.032698	0.895696	-0.460083	6
N	1.203272	1.366426	-0.042173	7
C	1.646592	0.955056	1.299757	6
C	2.278792	0.369356	0.084497	6
H	-3.440168	-1.541634	-1.079273	1
H	-2.678248	-1.574775	0.528027	1
H	-1.862948	-2.338574	-0.877063	1
H	-0.526058	1.650596	-1.098593	1
H	0.939202	0.364356	1.865567	1
H	2.163742	1.742795	1.828887	1
H	3.238032	0.746546	-0.238653	1
H	2.019552	-0.637534	-0.213953	1
Es	2.107705	-0.306870	-0.113620	99
Es	-1.302672	-0.256387	-0.558497	99
Es	2.278591	0.369545	0.084532	99
Es	0.663475	1.106875	-0.197946	99
Es	1.646551	0.955102	1.299484	99
Es	2.930897	0.619865	-0.132054	99
Es	-2.061809	-2.077307	-0.770332	99
Es	-0.504360	-0.534098	0.005834	99
Es	-1.853655	-0.264299	-0.848960	99
Es	-2.618246	-1.556893	0.189459	99
Es	2.104711	0.539899	0.824877	99
Es	-2.016053	-0.037719	-0.714119	99
Es	1.261184	1.251443	0.569219	99
Es	-0.032549	0.895721	-0.460025	99
Es	-2.070265	-0.741512	-0.718131	99
Es	-2.486135	-1.501358	-0.546909	99
Es	-0.369740	1.397444	-0.889611	99
Es	-0.233298	0.122543	-0.545356	99
Es	1.624006	0.914548	-0.131638	99
Es	-3.134183	-1.522872	-0.911263	99
Es	-1.783355	-0.261374	-1.151367	99
Es	1.175044	0.557925	1.680958	99
Es	-0.609351	-0.232151	-0.201360	99
Es	-0.486753	0.362309	-0.067505	99
Es	1.288414	1.693776	-0.155648	99
Es	1.203147	1.365786	-0.041928	99
Es	1.998153	1.484599	1.662053	99
42
Properties=species:S:1:pos:R:3:Z:I:1 energy=-339.8735163336439 field_type=dipole dipole="0.000000 0.000000 0.000000" charge=0
C	-2.486228	-1.501564	-0.546853	6
O	-1.853688	-0.264134	-0.849063	8
N	-0.609148	-0.232605	-0.201023	7
C	-0.032698	0.895696	-0.460083	6
N	1.203272	1.366426	-0.042173	7
C	1.646592	0.955056	1.299757	6
C	2.278792	0.369356	0.084497	6
H	-3.440168	-1.541634	-1.079273	1
H	-2.678248	-1.574775	0.528027	1
H	-1.862948	-2.338574	-0.877063	1
H	-0.526058	1.650596	-1.098593	1
H	0.939202	0.364356	1.865567	1
H	2.163742	1.742795	1.828887	1
H	3.238032	0.746546	-0.238653	1
H	2.019552	-0.637534	-0.213953	1
Es	1.262702	1.250475	0.566870	99
Es	1.999444	1.484703	1.662356	99
Es	-2.061726	-2.076509	-0.769060	99
Es	1.175231	0.557357	1.680871	99
Es	-0.504057	-0.533002	0.005603	99
Es	-0.486545	0.362232	-0.067932	99
Es	-1.784127	-0.261058	-1.147095	99
Es	-3.135717	-1.523619	-0.911775	99
Es	-0.369780	1.396842	-0.889363	99
Es	0.661513	1.106388	-0.198667	99
Es	1.646553	0.955099	1.299485	99
Es	2.107527	-0.307004	-0.113146	99
Es	-1.853568	-0.264412	-0.848850	99
Es	-0.609343	-0.232136	-0.201365	99
Es	-1.301677	-0.255431	-0.557833	99
Es	-0.032551	0.895729	-0.460018	99
Es	2.102642	0.540335	0.823597	99
Es	-2.014485	-0.038594	-0.718561	99
Es	-2.617203	-1.557017	0.188448	99
Es	1.203156	1.365795	-0.041928	99
Es	1.622907	0.916008	-0.129291	99
Es	2.278592	0.369544	0.084532	99
Es	2.931969	0.620159	-0.131489	99
Es	-2.486135	-1.501358	-0.546910	99
Es	-2.072538	-0.742482	-0.718486	99
Es	1.290179	1.694130	-0.154818	99
Es	-0.233508	0.122367	-0.545025	99
42
Properties=species:S:1:pos:R:3:Z:I:1 energy=-339.8735163336439 field_type=dipole dipole="0.000000 0.000000 0.000000" charge=0
C	-2.486228	-1.501564	-0.546853	6
O	-1.853688	-0.264134	-0.849063	8
N	-0.609148	-0.232605	-0.201023	7
C	-0.032698	0.895696	-0.460083	6
N	1.203272	1.366426	-0.042173	7
C	1.646592	0.955056	1.299757	6
C	2.278792	0.369356	0.084497	6
H	-3.440168	-1.541634	-1.079273	1
H	-2.678248	-1.574775	0.528027	1
H	-1.862948	-2.338574	-0.877063	1
H	-0.526058	1.650596	-1.098593	1
H	0.939202	0.364356	1.865567	1
H	2.163742	1.742795	1.828887	1
H	3.238032	0.746546	-0.238653	1
H	2.019552	-0.637534	-0.213953	1
Es	-2.012796	-0.039719	-0.720714	99
Es	-1.784957	-0.260074	-1.144336	99
Es	-2.486132	-1.501357	-0.546909	99
Es	-2.061914	-2.075975	-0.768361	99
Es	2.932771	0.620434	-0.130887	99
Es	1.290868	1.694105	-0.154313	99
Es	-1.301083	-0.255177	-0.557840	99
Es	2.278602	0.369537	0.084532	99
Es	-0.032549	0.895726	-0.460019	99
Es	1.263046	1.250465	0.564873	99
Es	1.646548	0.955094	1.299475	99
Es	2.107369	-0.307308	-0.112741	99
Es	2.101032	0.540800	0.822566	99
Es	-0.369738	1.396500	-0.889271	99
Es	2.000419	1.484742	1.662544	99
Es	1.203155	1.365789	-0.041926	99
Es	-0.233568	0.122603	-0.544801	99
Es	1.175283	0.556997	1.680789	99
Es	-0.503807	-0.532197	0.005137	99
Es	-3.136672	-1.523992	-0.911973	99
Es	-0.609338	-0.232120	-0.201368	99
Es	1.622990	0.916946	-0.127203	99
Es	-2.616464	-1.557134	0.187810	99
Es	-1.853558	-0.264423	-0.848864	99
Es	-0.486592	0.361941	-0.067841	99
Es	-2.074101	-0.743256	-0.718896	99
Es	0.660638	1.105596	-0.199317	99
42
Properties=species:S:1:pos:R:3:Z:I:1 energy=-339.8735163336439 field_type=dipole dipole="0.000000 0.000000 0.000000" charge=0
C	-2.486228	-1.501564	-0.546853	6
O	-1.853688	-0.264134	-0.849063	8
N	-0.609148	-0.232605	-0.201023	7
C	-0.032698	0.895696	-0.460083	6
N	1.203272	1.366426	-0.042173	7
C	1.646592	0.955056	1.299757	6
C	2.278792	0.369356	0.084497	6
H	-3.440168	-1.541634	-1.079273	1
H	-2.678248	-1.574775	0.528027	1
H	-1.862948	-2.338574	-0.877063	1
H	-0.526058	1.650596	-1.098593	1
H	0.939202	0.364356	1.865567	1
H	2.163742	1.742795	1.828887	1
H	3.238032	0.746546	-0.238653	1
H	2.019552	-0.637534	-0.213953	1
Es	-2.075295	-0.743622	-0.719156	99
Es	-0.369721	1.396282	-0.889131	99
Es	1.264176	1.249612	0.563875	99
Es	0.659621	1.105731	-0.199288	99
Es	2.107269	-0.307347	-0.112580	99
Es	1.621808	0.917482	-0.126428	99
Es	2.001192	1.484790	1.662704	99
Es	-1.853612	-0.264379	-0.848775	99
Es	-2.615851	-1.557253	0.187323	99
Es	2.278590	0.369548	0.084530	99
Es	-2.011536	-0.040714	-0.722409	99
Es	-0.032550	0.895723	-0.460024	99
Es	-2.062017	-2.075465	-0.767851	99
Es	-1.785559	-0.259517	-1.142318	99
Es	-0.609337	-0.232110	-0.201376	99
Es	-1.300586	-0.254881	-0.557886	99
Es	1.175364	0.556729	1.680678	99
Es	-0.233171	0.122322	-0.544914	99
Es	1.203151	1.365797	-0.041932	99
Es	2.099761	0.541008	0.821776	99
Es	-3.137377	-1.524381	-0.912098	99
Es	2.933353	0.620599	-0.130407	99
Es	-2.486132	-1.501359	-0.546910	99
Es	-0.504114	-0.531231	0.005101	99
Es	1.646556	0.955094	1.299481	99
Es	1.292086	1.694276	-0.153965	99
Es	-0.486616	0.361807	-0.067871	99
42
Properties=species:S:1:pos:R:3:Z:I:1 energy=-339.8735163336439 field_type=dipole dipole="0.000000 0.000000 0.000000" charge=0
C	-2.486228	-1.501564	-0.546853	6
O	-1.853688	-0.264134	-0.849063	8
N	-0.609148	-0.232605	-0.201023	7
C	-0.032698	0.895696	-0.460083	6
N	1.203272	1.366426	-0.042173	7
C	1.646592	0.955056	1.299757	6
C	2.278792	0.369356	0.084497	6
H	-3.440168	-1.541634	-1.079273	1
H	-2.678248	-1.574775	0.528027	1
H	-1.862948	-2.338574	-0.877063	1
H	-0.526058	1.650596	-1.098593	1
H	0.939202	0.364356	1.865567	1
H	2.163742	1.742795	1.828887	1
H	3.238032	0.746546	-0.238653	1
H	2.019552	-0.637534	-0.213953	1
Es	-0.504027	-0.530738	0.005132	99
Es	-2.486135	-1.501357	-0.546909	99
Es	1.621651	0.917769	-0.125381	99
Es	2.933873	0.620804	-0.130029	99
Es	0.659130	1.105665	-0.199869	99
Es	-1.786213	-0.258851	-1.140653	99
Es	2.001827	1.484749	1.662726	99
Es	-0.369654	1.396083	-0.889056	99
Es	-1.853549	-0.264429	-0.848880	99
Es	-2.062075	-2.075129	-0.767353	99
Es	1.264239	1.249509	0.563209	99
Es	-0.032547	0.895729	-0.460021	99
Es	-0.609353	-0.232129	-0.201375	99
Es	-2.010591	-0.041506	-0.723237	99
Es	-1.300168	-0.254764	-0.558033	99
Es	-3.137814	-1.524690	-0.912261	99
Es	2.107207	-0.307377	-0.112368	99
Es	1.292762	1.694127	-0.153604	99
Es	1.646548	0.955096	1.299474	99
Es	2.098700	0.541197	0.821020	99
Es	-2.076100	-0.743891	-0.719535	99
Es	1.203136	1.365778	-0.041931	99
Es	-0.233288	0.122008	-0.544852	99
Es	2.278580	0.369555	0.084537	99
Es	-0.486492	0.362038	-0.068154	99
Es	1.175366	0.556576	1.680676	99
Es	-2.615562	-1.557281	0.186873	99
42
Properties=species:S:1:pos:R:3:Z:I:1 energy=-339.8735163336439 field_type=dipole dipole="0.000000 0.000000 0.000000" charge=0
C	-2.486228	-1.501564	-0.546853	6
O	-1.853688	-0.264134	-0.849063	8
N	-0.609148	-0.232605	-0.201023	7
C	-0.032698	0.895696	-0.460083	6
N	1.203272	1.366426	-0.042173	7
C	1.646592	0.955056	1.299757	6
C	2.278792	0.369356	0.084497	6
H	-3.440168	-1.541634	-1.079273	1
H	-2.678248	-1.574775	0.528027	1
H	-1.862948	-2.338574	-0.877063	1
H	-0.526058	1.650596	-1.098593	1
H	0.939202	0.364356	1.865567	1
H	2.163742	1.742795	1.828887	1
H	3.238032	0.746546	-0.238653	1
H	2.019552	-0.637534	-0.213953	1
Es	2.002309	1.484712	1.662746	99
Es	-0.233349	0.122293	-0.544849	99
Es	1.203151	1.365775	-0.041925	99
Es	-1.300398	-0.254280	-0.557279	99
Es	-0.503876	-0.530488	0.004553	99
Es	1.293442	1.693500	-0.154143	99
Es	-0.369698	1.395977	-0.888902	99
Es	-0.032547	0.895728	-0.460021	99
Es	1.646549	0.955101	1.299487	99
Es	-2.009855	-0.042046	-0.724872	99
Es	1.621189	0.917934	-0.124167	99
Es	-1.853570	-0.264412	-0.848804	99
Es	1.264504	1.250204	0.562403	99
Es	-2.076947	-0.744048	-0.719803	99
Es	-0.486466	0.361734	-0.067784	99
Es	-1.785942	-0.258841	-1.139381	99
Es	-3.138274	-1.524930	-0.912246	99
Es	2.107103	-0.307431	-0.112226	99
Es	-2.486135	-1.501359	-0.546910	99
Es	2.934183	0.620844	-0.129729	99
Es	-2.615133	-1.557392	0.186481	99
Es	-2.062169	-2.074800	-0.767076	99
Es	2.098066	0.541400	0.820586	99
Es	2.278590	0.369546	0.084531	99
Es	0.658627	1.105609	-0.199821	99
Es	1.175446	0.556333	1.680672	99
Es	-0.609346	-0.232121	-0.201373	99
42
Properties=species:S:1:pos:R:3:Z:I:1 energy=-339.8735163336439 field_type=dipole dipole="0.000000 0.000000 0.000000" charge=0
C	-2.486228	-1.501564	-0.546853	6
O	-1.853688	-0.264134	-0.849063	8
N	-0.609148	-0.232605	-0.201023	7
C	-0.032698	0.895696	-0.460083	6
N	1.203272	1.366426	-0.042173	7
C	1.646592	0.955056	1.299757	6
C	2.278792	0.369356	0.084497	6
H	-3.440168	-1.541634	-1.079273	1
H	-2.678248	-1.574775	0.528027	1
H	-1.862948	-2.338574	-0.877063	1
H	-0.526058	1.650596	-1.098593	1
H	0.939202	0.364356	1.865567	1
H	2.163742	1.742795	1.828887	1
H	3.238032	0.746546	-0.238653	1
H	2.019552	-0.637534	-0.213953	1
Es	-2.076690	-0.744549	-0.720953	99
Es	-0.609334	-0.232111	-0.201369	99
Es	-2.008134	-0.045998	-0.721325	99
Es	1.646555	0.955097	1.299487	99
Es	-0.032551	0.895731	-0.460013	99
Es	2.097235	0.541417	0.820048	99
Es	-1.299640	-0.254704	-0.558346	99
Es	1.175412	0.556285	1.680547	99
Es	-3.138628	-1.525060	-0.912160	99
Es	0.658321	1.105493	-0.199929	99
Es	-0.503799	-0.530179	0.003997	99
Es	-0.369654	1.395825	-0.888784	99
Es	1.203132	1.365798	-0.041941	99
Es	-0.233344	0.122334	-0.544834	99
Es	-1.853629	-0.264290	-0.848949	99
Es	2.278597	0.369543	0.084536	99
Es	-2.614850	-1.557386	0.186108	99
Es	2.934565	0.621010	-0.129248	99
Es	1.621003	0.918452	-0.123952	99
Es	2.107066	-0.307477	-0.112206	99
Es	1.264985	1.249286	0.561602	99
Es	-2.486135	-1.501358	-0.546911	99
Es	-1.788658	-0.254344	-1.140511	99
Es	-2.062211	-2.074670	-0.766837	99
Es	1.293619	1.693984	-0.153401	99
Es	2.002753	1.484719	1.662850	99
Es	-0.486531	0.361696	-0.067356	99
42
Properties=species:S:1:pos:R:3:Z:I:1 energy=-339.8735163336439 field_type=dipole dipole="0.000000 0.000000 0.000000" charge=0
C	-2.486228	-1.501564	-0.546853	6
O	-1.853688	-0.264134	-0.849063	8
N	-0.609148	-0.232605	-0.201023	7
C	-0.032698	0.895696	-0.460083	6
N	1.203272	1.366426	-0.042173	7
C	1.646592	0.955056	1.299757	6
C	2.278792	0.369356	0.084497	6
H	-3.440168	-1.541634	-1.079273	1
H	-2.678248	-1.574775	0.528027	1
H	-1.862948	-2.338574	-0.877063	1
H	-0.526058	1.650596	-1.098593	1
H	0.939202	0.364356	1.865567	1
H	2.163742	1.742795	1.828887	1
H	3.238032	0.746546	-0.238653	1
H	2.019552	-0.637534	-0.213953	1
Es	-0.369583	1.395661	-0.888879	99
Es	-2.062300	-2.074348	-0.766630	99
Es	1.265613	1.248143	0.561166	99
Es	1.620535	0.919162	-0.124390	99
Es	-1.853568	-0.264406	-0.848865	99
Es	-3.138797	-1.525267	-0.912327	99
Es	2.278589	0.369548	0.084528	99
Es	2.934735	0.621042	-0.129152	99
Es	-2.009089	-0.042184	-0.726490	99
Es	2.003063	1.484686	1.662897	99
Es	-0.232878	0.121883	-0.544988	99
Es	-1.786196	-0.259026	-1.136907	99
Es	1.175481	0.556168	1.680495	99
Es	-0.504232	-0.529374	0.004420	99
Es	-1.300007	-0.254343	-0.557445	99
Es	1.203176	1.365831	-0.041931	99
Es	1.293739	1.694207	-0.152425	99
Es	0.658065	1.105603	-0.200306	99
Es	1.646553	0.955097	1.299486	99
Es	-2.077927	-0.744236	-0.720235	99
Es	-2.486135	-1.501352	-0.546907	99
Es	-0.486565	0.361731	-0.067634	99
Es	2.096732	0.541693	0.820049	99
Es	-0.609355	-0.232136	-0.201368	99
Es	2.107024	-0.307509	-0.112018	99
Es	-0.032546	0.895730	-0.460018	99
Es	-2.614671	-1.557465	0.186019	99
42
Properties=species:S:1:pos:R:3:Z:I:1 energy=-339.8735163336439 field_type=dipole dipole="0.000000 0.000000 0.000000" charge=0
C	-2.486228	-1.501564	-0.546853	6
O	-1.853688	-0.264134	-0.849063	8
N	-0.609148	-0.232605	-0.201023	7
C	-0.032698	0.895696	-0.460083	6
N	1.203272	1.366426	-0.042173	7
C	1.646592	0.955056	1.299757	6
C	2.278792	0.369356	0.084497	6
H	-3.440168	-1.541634	-1.079273	1
H	-2.678248	-1.574775	0.528027	1
H	-1.862948	-2.338574	-0.877063	1
H	-0.526058	1.650596	-1.098593	1
H	0.939202	0.364356	1.865567	1
H	2.163742	1.742795	1.828887	1
H	3.238032	0.746546	-0.238653	1
H	2.019552	-0.637534	-0.213953	1
Es	2.278591	0.369545	0.084533	99
Es	0.657783	1.105565	-0.200268	99
Es	-2.077527	-0.744787	-0.721142	99
Es	-3.139029	-1.525393	-0.912319	99
Es	1.620298	0.919043	-0.123490	99
Es	2.934949	0.621107	-0.128905	99
Es	2.096338	0.541735	0.819585	99
Es	-0.504212	-0.529227	0.003991	99
Es	1.203185	1.365837	-0.041951	99
Es	-2.007857	-0.045291	-0.723776	99
Es	-0.032546	0.895728	-0.460021	99
Es	-0.232881	0.121854	-0.545028	99
Es	-1.299490	-0.254408	-0.558277	99
Es	1.175475	0.556122	1.680480	99
Es	2.003337	1.484684	1.662900	99
Es	1.265559	1.248567	0.560668	99
Es	-2.062321	-2.074254	-0.766358	99
Es	-0.369577	1.395657	-0.888720	99
Es	-2.614536	-1.557420	0.185674	99
Es	1.646560	0.955091	1.299493	99
Es	-0.486540	0.361689	-0.067314	99
Es	-2.486136	-1.501359	-0.546910	99
Es	-1.853579	-0.264400	-0.848795	99
Es	-0.609360	-0.232128	-0.201374	99
Es	-1.788302	-0.255389	-1.137919	99
Es	2.107010	-0.307560	-0.111856	99
Es	1.294261	1.693933	-0.152753	99
42
Properties=species:S:1:pos:R:3:Z:I:1 energy=-339.8735163336439 field_type=dipole dipole="0.000000 0.000000 0.000000" charge=0
C	-2.486228	-1.501564	-0.546853	6
O	-1.853688	-0.264134	-0.849063	8
N	-0.609148	-0.232605	-0.201023	7
C	-0.032698	0.895696	-0.460083	6
N	1.203272	1.366426	-0.042173	7
C	1.646592	0.955056	1.299757	6
C	2.278792	0.369356	0.084497	6
H	-3.440168	-1.541634	-1.079273	1
H	-2.678248	-1.574775	0.528027	1
H	-1.862948	-2.338574	-0.877063	1
H	-0.526058	1.650596	-1.098593	1
H	0.939202	0.364356	1.865567	1
H	2.163742	1.742795	1.828887	1
H	3.238032	0.746546	-0.238653	1
H	2.019552	-0.637534	-0.213953	1
Es	-0.486177	0.362126	-0.067853	99
Es	1.294010	1.693968	-0.152264	99
Es	-1.853642	-0.264268	-0.848948	99
Es	-2.614354	-1.557464	0.185479	99
Es	-2.062361	-2.074151	-0.766274	99
Es	-2.486135	-1.501358	-0.546910	99
Es	-3.139215	-1.525475	-0.912245	99
Es	2.106959	-0.307601	-0.111851	99
Es	-0.504562	-0.528823	0.004413	99
Es	-0.369646	1.395619	-0.888613	99
Es	1.203135	1.365772	-0.041934	99
Es	2.095934	0.541807	0.819092	99
Es	-1.299218	-0.254170	-0.558360	99
Es	-2.077751	-0.745160	-0.722255	99
Es	-0.032545	0.895727	-0.460022	99
Es	-0.609348	-0.232117	-0.201376	99
Es	2.003593	1.484625	1.662891	99
Es	0.657627	1.105593	-0.200235	99
Es	2.278594	0.369544	0.084534	99
Es	-2.006478	-0.048040	-0.722458	99
Es	-0.232789	0.120998	-0.545081	99
Es	1.175518	0.556038	1.680478	99
Es	2.935147	0.621170	-0.128603	99
Es	1.265561	1.248474	0.560480	99
Es	-1.789683	-0.252656	-1.137823	99
Es	1.620725	0.919269	-0.123596	99
Es	1.646557	0.955094	1.299482	99
42
Properties=species:S:1:pos:R:3:Z:I:1 energy=-339.8735163336439 field_type=dipole dipole="0.000000 0.000000 0.000000" charge=0
C	-2.486228	-1.501564	-0.546853	6
O	-1.853688	-0.264134	-0.849063	8
N	-0.609148	-0.232605	-0.201023	7
C	-0.032698	0.895696	-0.460083	6
N	1.203272	1.366426	-0.042173	7
C	1.646592	0.955056	1.299757	6
C	2.278792	0.369356	0.084497	6
H	-3.440168	-1.541634	-1.079273	1
H	-2.678248	-1.574775	0.528027	1
H	-1.862948	-2.338574	-0.877063	1
H	-0.526058	1.650596	-1.098593	1
H	0.939202	0.364356	1.865567	1
H	2.163742	1.742795	1.828887	1
H	3.238032	0.746546	-0.238653	1
H	2.019552	-0.637534	-0.213953	1
Es	1.175501	0.555915	1.680443	99
Es	-0.609355	-0.232123	-0.201373	99
Es	-1.853636	-0.264353	-0.848536	99
Es	-0.032544	0.895728	-0.460022	99
Es	1.266368	1.248438	0.560766	99
Es	2.095462	0.541948	0.819257	99
Es	-2.062441	-2.073873	-0.766062	99
Es	-2.614244	-1.557507	0.185411	99
Es	-0.369460	1.395415	-0.888757	99
Es	-1.786403	-0.259436	-1.134362	99
Es	-2.078910	-0.744297	-0.720461	99
Es	0.657642	1.105273	-0.200174	99
Es	-0.486717	0.361617	-0.067083	99
Es	-2.486135	-1.501356	-0.546911	99
Es	1.294362	1.693768	-0.152950	99
Es	2.003854	1.484613	1.662909	99
Es	1.646560	0.955089	1.299488	99
Es	-3.139320	-1.525667	-0.912425	99
Es	-1.299607	-0.253921	-0.557603	99
Es	2.935246	0.621213	-0.128489	99
Es	-0.504304	-0.528791	0.003747	99
Es	1.203121	1.365782	-0.041941	99
Es	-0.232737	0.121907	-0.544986	99
Es	1.619726	0.919621	-0.123570	99
Es	2.107028	-0.307467	-0.111846	99
Es	-2.008195	-0.042539	-0.728851	99
Es	2.278591	0.369546	0.084531	99
42
Properties=species:S:1:pos:R:3:Z:I:1 energy=-339.8735163336439 field_type=dipole dipole="0.000000 0.000000 0.000000" charge=0
C	-2.486228	-1.501564	-0.546853	6
O	-1.853688	-0.264134	-0.849063	8
N	-0.609148	-0.232605	-0.201023	7
C	-0.032698	0.895696	-0.460083	6
N	1.203272	1.366426	-0.042173	7
C	1.646592	0.955056	1.299757	6
C	2.278792	0.369356	0.084497	6
H	-3.440168	-1.541634	-1.079273	1
H	-2.678248	-1.574775	0.528027	1
H	-1.862948	-2.338574	-0.877063	1
H	-0.526058	1.650596	-1.098593	1
H	0.939202	0.364356	1.865567	1
H	2.163742	1.742795	1.828887	1
H	3.238032	0.746546	-0.238653	1
H	2.019552	-0.637534	-0.213953	1
Es	-3.139491	-1.525737	-0.912359	99
Es	1.646553	0.955097	1.299484	99
Es	-0.504514	-0.528309	0.004255	99
Es	-1.299461	-0.254085	-0.557807	99
Es	2.935426	0.621264	-0.128354	99
Es	-2.078644	-0.744965	-0.721963	99
Es	-2.486137	-1.501360	-0.546910	99
Es	-1.788177	-0.255490	-1.135322	99
Es	-0.232734	0.121078	-0.545127	99
Es	2.106939	-0.307571	-0.111676	99
Es	1.294268	1.693675	-0.152490	99
Es	1.620149	0.919667	-0.123267	99
Es	-0.032547	0.895728	-0.460020	99
Es	2.278592	0.369546	0.084533	99
Es	-2.614142	-1.557452	0.185153	99
Es	0.657445	1.105336	-0.200274	99
Es	-0.609362	-0.232142	-0.201370	99
Es	1.175557	0.555886	1.680439	99
Es	-0.486310	0.362054	-0.067779	99
Es	-1.853634	-0.264221	-0.849047	99
Es	1.266110	1.248532	0.560290	99
Es	1.203137	1.365784	-0.041933	99
Es	-2.006887	-0.045936	-0.725529	99
Es	2.095187	0.542025	0.818784	99
Es	2.004094	1.484544	1.662912	99
Es	-2.062420	-2.073855	-0.765894	99
Es	-0.369546	1.395446	-0.888581	99
42
Properties=species:S:1:pos:R:3:Z:I:1 energy=-339.8735163336439 field_type=dipole dipole="0.000000 0.000000 0.000000" charge=0
C	-2.486228	-1.501564	-0.546853	6
O	-1.853688	-0.264134	-0.849063	8
N	-0.609148	-0.232605	-0.201023	7
C	-0.032698	0.895696	-0.460083	6
N	1.203272	1.366426	-0.042173	7
C	1.646592	0.955056	1.299757	6
C	2.278792	0.369356	0.084497	6
H	-3.440168	-1.541634	-1.079273	1
H	-2.678248	-1.574775	0.528027	1
H	-1.862948	-2.338574	-0.877063	1
H	-0.526058	1.650596	-1.098593	1
H	0.939202	0.364356	1.865567	1
H	2.163742	1.742795	1.828887	1
H	3.238032	0.746546	-0.238653	1
H	2.019552	-0.637534	-0.213953	1
Es	-1.299139	-0.254200	-0.558243	99
Es	-2.486136	-1.501359	-0.546910	99
Es	-0.504301	-0.528527	0.003399	99
Es	2.278590	0.369546	0.084532	99
Es	-0.032545	0.895729	-0.460020	99
Es	-2.614090	-1.557447	0.184964	99
Es	-3.139593	-1.525832	-0.912393	99
Es	2.004297	1.484488	1.662917	99
Es	-2.078943	-0.744829	-0.721789	99
Es	1.620416	0.919492	-0.122669	99
Es	2.935493	0.621301	-0.128176	99
Es	2.094971	0.541969	0.818568	99
Es	1.646551	0.955098	1.299480	99
Es	-2.005527	-0.048179	-0.724126	99
Es	-0.232787	0.121670	-0.545055	99
Es	-1.853664	-0.264215	-0.848964	99
Es	1.203164	1.365811	-0.041936	99
Es	-0.609337	-0.232109	-0.201375	99
Es	1.265715	1.248689	0.559714	99
Es	0.657357	1.105369	-0.200306	99
Es	-0.369518	1.395352	-0.888512	99
Es	-2.062393	-2.073777	-0.765746	99
Es	1.294447	1.693775	-0.152400	99
Es	2.106909	-0.307634	-0.111703	99
Es	-0.486540	0.361699	-0.066968	99
Es	1.175587	0.555942	1.680402	99
Es	-1.789530	-0.253283	-1.136536	99
42
Properties=species:S:1:pos:R:3:Z:I:1 energy=-339.8735163336439 field_type=dipole dipole="0.000000 0.000000 0.000000" charge=0
C	-2.486228	-1.501564	-0.546853	6
O	-1.853688	-0.264134	-0.849063	8
N	-0.609148	-0.232605	-0.201023	7
C	-0.032698	0.895696	-0.460083	6
N	1.203272	1.366426	-0.042173	7
C	1.646592	0.955056	1.299757	6
C	2.278792	0.369356	0.084497	6
H	-3.440168	-1.541634	-1.079273	1
H	-2.678248	-1.574775	0.528027	1
H	-1.862948	-2.338574	-0.877063	1
H	-0.526058	1.650596	-1.098593	1
H	0.939202	0.364356	1.865567	1
H	2.163742	1.742795	1.828887	1
H	3.238032	0.746546	-0.238653	1
H	2.019552	-0.637534	-0.213953	1
Es	1.294731	1.693330	-0.152577	99
Es	-0.486496	0.361807	-0.067407	99
Es	1.619759	0.919756	-0.123011	99
Es	0.657149	1.105522	-0.200403	99
Es	-3.139664	-1.525856	-0.912370	99
Es	-1.787931	-0.256609	-1.134153	99
Es	-0.232431	0.121178	-0.545165	99
Es	-1.299360	-0.253803	-0.557800	99
Es	2.094476	0.542330	0.818397	99
Es	-2.486135	-1.501359	-0.546910	99
Es	-2.006845	-0.045162	-0.727350	99
Es	-0.504662	-0.527976	0.003979	99
Es	1.646553	0.955097	1.299483	99
Es	-0.609364	-0.232135	-0.201375	99
Es	2.278590	0.369547	0.084530	99
Es	2.106922	-0.307628	-0.111560	99
Es	2.935643	0.621331	-0.128014	99
Es	2.004527	1.484462	1.662931	99
Es	-2.062419	-2.073721	-0.765732	99
Es	-0.032544	0.895728	-0.460022	99
Es	1.175642	0.555728	1.680390	99
Es	-1.853488	-0.264496	-0.848901	99
Es	1.266344	1.248585	0.560208	99
Es	-0.369478	1.395292	-0.888603	99
Es	-2.079217	-0.744758	-0.721413	99
Es	1.203159	1.365812	-0.041935	99
Es	-2.614004	-1.557462	0.184930	99
42
Properties=species:S:1:pos:R:3:Z:I:1 energy=-339.8735163336439 field_type=dipole dipole="0.000000 0.000000 0.000000" charge=0
C	-2.486228	-1.501564	-0.546853	6
O	-1.853688	-0.264134	-0.849063	8
N	-0.609148	-0.232605	-0.201023	7
C	-0.032698	0.895696	-0.460083	6
N	1.203272	1.366426	-0.042173	7
C	1.646592	0.955056	1.299757	6
C	2.278792	0.369356	0.084497	6
H	-3.440168	-1.541634	-1.079273	1
H	-2.678248	-1.574775	0.528027	1
H	-1.862948	-2.338574	-0.877063	1
H	-0.526058	1.650596	-1.098593	1
H	0.939202	0.364356	1.865567	1
H	2.163742	1.742795	1.828887	1
H	3.238032	0.746546	-0.238653	1
H	2.019552	-0.637534	-0.213953	1
Es	-1.853568	-0.264424	-0.848762	99
Es	-2.486135	-1.501358	-0.546910	99
Es	1.175607	0.555709	1.680392	99
Es	-3.139690	-1.525995	-0.912497	99
Es	2.094197	0.542268	0.818700	99
Es	0.657229	1.105306	-0.200610	99
Es	-2.613846	-1.557649	0.185041	99
Es	-0.032545	0.895730	-0.460019	99
Es	1.646551	0.955098	1.299481	99
Es	1.295002	1.693411	-0.152731	99
Es	2.004775	1.484396	1.662911	99
Es	1.619271	0.920094	-0.122687	99
Es	1.203137	1.365781	-0.041932	99
Es	2.935686	0.621328	-0.128031	99
Es	-2.080133	-0.743917	-0.719894	99
Es	-1.785199	-0.262374	-1.131064	99
Es	-0.504685	-0.527887	0.003532	99
Es	-0.369353	1.395161	-0.888743	99
Es	-2.008168	-0.040699	-0.732749	99
Es	-2.062668	-2.073375	-0.765726	99
Es	1.266616	1.248372	0.560122	99
Es	-0.232306	0.121485	-0.545108	99
Es	-1.299692	-0.253463	-0.557150	99
Es	2.278591	0.369546	0.084533	99
Es	-0.486741	0.361609	-0.066860	99
Es	-0.609366	-0.232142	-0.201375	99
Es	2.106886	-0.307472	-0.111714	99
