39
Properties=species:S:1:pos:R:3:Z:I:1 energy=-338.7687433164367 field_type=dipole dipole="0.000000 0.000000 0.000000" charge=0
N	-0.436966	-1.743425	-1.015956	7
C	-0.899356	-1.024285	0.174134	6
C	-0.275166	0.329715	0.261754	6
N	-0.990046	1.366065	0.726104	7
O	-0.139466	2.456305	0.698154	8
C	1.073895	2.069315	0.237794	6
C	1.049425	0.730345	-0.045876	6
H	-0.956836	-2.616635	-1.087696	1
H	0.538274	-2.006005	-0.890686	1
H	-0.652476	-1.603105	1.071174	1
H	-1.990556	-0.934025	0.126364	1
H	1.820844	2.845845	0.175314	1
H	1.858425	0.129895	-0.430576	1
Es	-0.745420	-2.274200	-1.035349	99
Es	-0.139279	2.455867	0.697891	99
Es	0.405072	0.471473	0.088520	99
Es	-0.476784	-1.550051	-1.306257	99
Es	1.073690	2.069474	0.237885	99
Es	-0.572231	-0.334987	0.212274	99
Es	1.573923	2.584204	0.194377	99
Es	-0.722656	-1.403616	0.792897	99
Es	-0.436898	-1.743729	-1.015465	99
Es	-1.340390	1.424329	0.848653	99
Es	-0.255410	2.739890	0.673925	99
Es	-0.989429	1.366024	0.725904	99
Es	0.952604	1.368757	-0.204163	99
Es	1.126079	1.239136	0.377747	99
Es	0.150991	-1.908116	-0.918539	99
Es	0.268296	2.321106	0.425124	99
Es	-1.630745	-0.959083	0.142637	99
Es	-0.625640	-1.441487	-0.480939	99
Es	1.588914	0.320242	-0.301542	99
Es	1.049426	0.730323	-0.045881	99
Es	0.042022	2.342405	0.871219	99
Es	-0.750056	1.006961	0.265526	99
Es	-0.899245	-1.024283	0.174013	99
Es	-0.275204	0.329716	0.261767	99
Es	-0.584329	0.885216	0.791852	99
Es	-0.472990	1.986679	0.685602	99
39
Properties=species:S:1:pos:R:3:Z:I:1 energy=-338.7687433164367 field_type=dipole dipole="0.000000 0.000000 0.000000" charge=0
N	-0.436966	-1.743425	-1.015956	7
C	-0.899356	-1.024285	0.174134	6
C	-0.275166	0.329715	0.261754	6
N	-0.990046	1.366065	0.726104	7
O	-0.139466	2.456305	0.698154	8
C	1.073895	2.069315	0.237794	6
C	1.049425	0.730345	-0.045876	6
H	-0.956836	-2.616635	-1.087696	1
H	0.538274	-2.006005	-0.890686	1
H	-0.652476	-1.603105	1.071174	1
H	-1.990556	-0.934025	0.126364	1
H	1.820844	2.845845	0.175314	1
H	1.858425	0.129895	-0.430576	1
Es	-0.749047	-2.278044	-1.039186	99
Es	0.153855	-1.902548	-0.923993	99
Es	1.589686	0.320100	-0.301149	99
Es	-0.472079	1.981379	0.696881	99
Es	0.403211	0.472289	0.091584	99
Es	-0.571498	-0.333976	0.214019	99
Es	-0.040406	2.348284	0.693780	99
Es	-0.275206	0.329717	0.261764	99
Es	1.124667	1.242581	0.373976	99
Es	-0.989421	1.366042	0.725908	99
Es	-0.436907	-1.743736	-1.015475	99
Es	-0.583777	0.883303	0.786315	99
Es	-1.342534	1.422620	0.847246	99
Es	1.574932	2.584894	0.194548	99
Es	0.951677	1.370246	-0.201370	99
Es	-0.235225	2.759667	0.769096	99
Es	-1.630877	-0.961443	0.143822	99
Es	-0.899245	-1.024282	0.174015	99
Es	-0.139329	2.455886	0.697912	99
Es	0.329359	2.302962	0.497268	99
Es	-0.745148	1.003489	0.268257	99
Es	-0.723903	-1.402408	0.789517	99
Es	-0.474783	-1.560528	-1.293114	99
Es	-0.626807	-1.434036	-0.483953	99
Es	1.049431	0.730316	-0.045880	99
Es	1.073690	2.069476	0.237890	99
39
Properties=species:S:1:pos:R:3:Z:I:1 energy=-338.7687433164367 field_type=dipole dipole="0.000000 0.000000 0.000000" charge=0
N	-0.436966	-1.743425	-1.015956	7
C	-0.899356	-1.024285	0.174134	6
C	-0.275166	0.329715	0.261754	6
N	-0.990046	1.366065	0.726104	7
O	-0.139466	2.456305	0.698154	8
C	1.073895	2.069315	0.237794	6
C	1.049425	0.730345	-0.045876	6
H	-0.956836	-2.616635	-1.087696	1
H	0.538274	-2.006005	-0.890686	1
H	-0.652476	-1.603105	1.071174	1
H	-1.990556	-0.934025	0.126364	1
H	1.820844	2.845845	0.175314	1
H	1.858425	0.129895	-0.430576	1
Es	-0.054495	2.358874	0.647742	99
Es	1.073690	2.069477	0.237890	99
Es	-0.724494	-1.400978	0.787044	99
Es	-0.469903	1.980061	0.702219	99
Es	-0.989424	1.366015	0.725915	99
Es	-0.583185	0.881928	0.782327	99
Es	-0.750121	-2.279929	-1.039987	99
Es	-0.139314	2.455846	0.697749	99
Es	-0.436896	-1.743758	-1.015437	99
Es	1.590372	0.319968	-0.300736	99
Es	0.402410	0.472855	0.093942	99
Es	0.155113	-1.899099	-0.927124	99
Es	1.120950	1.240874	0.371125	99
Es	0.336498	2.296947	0.521677	99
Es	0.952520	1.373284	-0.199167	99
Es	-0.742716	1.002717	0.270431	99
Es	-0.275202	0.329711	0.261768	99
Es	-0.571110	-0.333570	0.215166	99
Es	1.049431	0.730310	-0.045870	99
Es	-1.630949	-0.963014	0.144934	99
Es	-0.229380	2.758766	0.785724	99
Es	-0.899248	-1.024279	0.174018	99
Es	1.575193	2.585185	0.193959	99
Es	-0.628612	-1.426292	-0.488577	99
Es	-1.343761	1.421215	0.846995	99
Es	-0.473056	-1.570867	-1.284050	99
39
Properties=species:S:1:pos:R:3:Z:I:1 energy=-338.7687433164367 field_type=dipole dipole="0.000000 0.000000 0.000000" charge=0
N	-0.436966	-1.743425	-1.015956	7
C	-0.899356	-1.024285	0.174134	6
C	-0.275166	0.329715	0.261754	6
N	-0.990046	1.366065	0.726104	7
O	-0.139466	2.456305	0.698154	8
C	1.073895	2.069315	0.237794	6
C	1.049425	0.730345	-0.045876	6
H	-0.956836	-2.616635	-1.087696	1
H	0.538274	-2.006005	-0.890686	1
H	-0.652476	-1.603105	1.071174	1
H	-1.990556	-0.934025	0.126364	1
H	1.820844	2.845845	0.175314	1
H	1.858425	0.129895	-0.430576	1
Es	0.956004	1.378526	-0.196840	99
Es	1.073687	2.069480	0.237888	99
Es	1.590748	0.319875	-0.300491	99
Es	-0.630228	-1.418661	-0.494255	99
Es	-0.899242	-1.024282	0.174014	99
Es	-0.051283	2.358766	0.655039	99
Es	-0.750657	-2.281162	-1.040760	99
Es	-0.139332	2.455841	0.697661	99
Es	-0.570947	-0.333229	0.216108	99
Es	-0.275201	0.329712	0.261775	99
Es	-1.630994	-0.964252	0.145734	99
Es	-0.469729	1.980082	0.702263	99
Es	-0.229726	2.759785	0.783152	99
Es	0.156353	-1.895844	-0.930832	99
Es	-1.344292	1.420533	0.846036	99
Es	-0.989409	1.366043	0.725906	99
Es	1.049427	0.730311	-0.045886	99
Es	0.401991	0.473372	0.094942	99
Es	1.115343	1.236257	0.369183	99
Es	-0.436899	-1.743728	-1.015474	99
Es	-0.582857	0.880357	0.780293	99
Es	1.575376	2.585358	0.193636	99
Es	-0.741288	1.002404	0.272017	99
Es	0.334308	2.297732	0.516893	99
Es	-0.471812	-1.581415	-1.273318	99
Es	-0.725027	-1.399612	0.784994	99
39
Properties=species:S:1:pos:R:3:Z:I:1 energy=-338.7687433164367 field_type=dipole dipole="0.000000 0.000000 0.000000" charge=0
N	-0.436966	-1.743425	-1.015956	7
C	-0.899356	-1.024285	0.174134	6
C	-0.275166	0.329715	0.261754	6
N	-0.990046	1.366065	0.726104	7
O	-0.139466	2.456305	0.698154	8
C	1.073895	2.069315	0.237794	6
C	1.049425	0.730345	-0.045876	6
H	-0.956836	-2.616635	-1.087696	1
H	0.538274	-2.006005	-0.890686	1
H	-0.652476	-1.603105	1.071174	1
H	-1.990556	-0.934025	0.126364	1
H	1.820844	2.845845	0.175314	1
H	1.858425	0.129895	-0.430576	1
Es	-0.570736	-0.333141	0.216761	99
Es	1.590920	0.319682	-0.300236	99
Es	-0.436892	-1.743797	-1.015423	99
Es	-0.899248	-1.024279	0.174014	99
Es	-0.631497	-1.412481	-0.500013	99
Es	-0.740247	1.001809	0.273012	99
Es	-0.725477	-1.398270	0.783368	99
Es	-0.230778	2.760743	0.780241	99
Es	-1.344874	1.420002	0.845848	99
Es	-0.582348	0.879673	0.778587	99
Es	-0.048921	2.358590	0.660160	99
Es	0.401612	0.473746	0.095824	99
Es	0.157312	-1.892955	-0.934505	99
Es	-0.989408	1.366045	0.725908	99
Es	0.957744	1.381452	-0.195374	99
Es	-0.275200	0.329710	0.261778	99
Es	-0.750533	-2.282053	-1.040849	99
Es	-1.631090	-0.965110	0.146328	99
Es	-0.139308	2.455879	0.698036	99
Es	1.575378	2.585533	0.193357	99
Es	0.332678	2.298464	0.513897	99
Es	1.049429	0.730311	-0.045877	99
Es	-0.471250	-1.590422	-1.263214	99
Es	-0.468666	1.979483	0.702557	99
Es	1.112022	1.234161	0.367604	99
Es	1.073690	2.069477	0.237890	99
39
Properties=species:S:1:pos:R:3:Z:I:1 energy=-338.7687433164367 field_type=dipole dipole="0.000000 0.000000 0.000000" charge=0
N	-0.436966	-1.743425	-1.015956	7
C	-0.899356	-1.024285	0.174134	6
C	-0.275166	0.329715	0.261754	6
N	-0.990046	1.366065	0.726104	7
O	-0.139466	2.456305	0.698154	8
C	1.073895	2.069315	0.237794	6
C	1.049425	0.730345	-0.045876	6
H	-0.956836	-2.616635	-1.087696	1
H	0.538274	-2.006005	-0.890686	1
H	-0.652476	-1.603105	1.071174	1
H	-1.990556	-0.934025	0.126364	1
H	1.820844	2.845845	0.175314	1
H	1.858425	0.129895	-0.430576	1
Es	0.157938	-1.890897	-0.937341	99
Es	-0.436890	-1.743803	-1.015387	99
Es	-0.470679	-1.597264	-1.254422	99
Es	1.590980	0.319617	-0.300233	99
Es	-0.570702	-0.332955	0.216866	99
Es	-0.899250	-1.024280	0.174020	99
Es	-0.632539	-1.407789	-0.505294	99
Es	0.332263	2.298068	0.513935	99
Es	-0.582219	0.880115	0.778701	99
Es	-1.345005	1.419783	0.845130	99
Es	0.401046	0.474170	0.095261	99
Es	1.049429	0.730311	-0.045878	99
Es	-0.725699	-1.397346	0.782136	99
Es	-0.739492	1.000550	0.273198	99
Es	-0.275202	0.329711	0.261774	99
Es	1.102135	1.224852	0.363804	99
Es	-0.048483	2.359590	0.659240	99
Es	-1.631043	-0.965785	0.146909	99
Es	-0.230041	2.761023	0.780767	99
Es	0.966659	1.390571	-0.190324	99
Es	-0.989415	1.366029	0.725915	99
Es	-0.468915	1.979712	0.702616	99
Es	1.575462	2.585586	0.193391	99
Es	-0.750551	-2.282537	-1.041186	99
Es	1.073688	2.069478	0.237889	99
Es	-0.139161	2.455740	0.698191	99
39
Properties=species:S:1:pos:R:3:Z:I:1 energy=-338.7687433164367 field_type=dipole dipole="0.000000 0.000000 0.000000" charge=0
N	-0.436966	-1.743425	-1.015956	7
C	-0.899356	-1.024285	0.174134	6
C	-0.275166	0.329715	0.261754	6
N	-0.990046	1.366065	0.726104	7
O	-0.139466	2.456305	0.698154	8
C	1.073895	2.069315	0.237794	6
C	1.049425	0.730345	-0.045876	6
H	-0.956836	-2.616635	-1.087696	1
H	0.538274	-2.006005	-0.890686	1
H	-0.652476	-1.603105	1.071174	1
H	-1.990556	-0.934025	0.126364	1
H	1.820844	2.845845	0.175314	1
H	1.858425	0.129895	-0.430576	1
Es	-0.570774	-0.332870	0.217087	99
Es	0.157903	-1.889655	-0.938946	99
Es	-0.739096	1.000522	0.273569	99
Es	1.590934	0.319513	-0.300188	99
Es	-0.582008	0.879550	0.778256	99
Es	0.400620	0.474544	0.094855	99
Es	-0.048708	2.360542	0.656656	99
Es	1.575525	2.585631	0.193447	99
Es	-0.275202	0.329710	0.261773	99
Es	-0.229620	2.761328	0.781163	99
Es	-1.345007	1.419572	0.844939	99
Es	-0.632872	-1.404908	-0.509010	99
Es	0.974112	1.397227	-0.184911	99
Es	-0.139337	2.455886	0.697877	99
Es	0.332752	2.297231	0.517294	99
Es	-0.989416	1.366032	0.725909	99
Es	1.049428	0.730312	-0.045883	99
Es	-1.630935	-0.966253	0.147334	99
Es	1.073689	2.069478	0.237890	99
Es	1.093992	1.218233	0.358797	99
Es	-0.470065	-1.601504	-1.248334	99
Es	-0.899249	-1.024280	0.174019	99
Es	-0.436882	-1.743796	-1.015418	99
Es	-0.725920	-1.396559	0.781218	99
Es	-0.750564	-2.282969	-1.041672	99
Es	-0.468987	1.979733	0.701960	99
39
Properties=species:S:1:pos:R:3:Z:I:1 energy=-338.7687433164367 field_type=dipole dipole="0.000000 0.000000 0.000000" charge=0
N	-0.436966	-1.743425	-1.015956	7
C	-0.899356	-1.024285	0.174134	6
C	-0.275166	0.329715	0.261754	6
N	-0.990046	1.366065	0.726104	7
O	-0.139466	2.456305	0.698154	8
C	1.073895	2.069315	0.237794	6
C	1.049425	0.730345	-0.045876	6
H	-0.956836	-2.616635	-1.087696	1
H	0.538274	-2.006005	-0.890686	1
H	-0.652476	-1.603105	1.071174	1
H	-1.990556	-0.934025	0.126364	1
H	1.820844	2.845845	0.175314	1
H	1.858425	0.129895	-0.430576	1
Es	-0.570600	-0.332871	0.217210	99
Es	-0.275200	0.329710	0.261779	99
Es	1.590946	0.319433	-0.300224	99
Es	1.575536	2.585677	0.193458	99
Es	1.088974	1.214624	0.355001	99
Es	-0.726202	-1.395716	0.780235	99
Es	0.400579	0.474649	0.095413	99
Es	-0.750517	-2.283207	-1.041810	99
Es	-0.899249	-1.024278	0.174013	99
Es	0.332418	2.296460	0.518360	99
Es	-0.739022	1.000745	0.273582	99
Es	1.049428	0.730310	-0.045884	99
Es	-0.989409	1.366048	0.725906	99
Es	-0.581949	0.879068	0.777710	99
Es	-0.048503	2.361248	0.655175	99
Es	-0.469336	1.980021	0.701553	99
Es	-0.139303	2.455865	0.698040	99
Es	1.073689	2.069479	0.237892	99
Es	-0.436887	-1.743798	-1.015382	99
Es	-0.228704	2.761697	0.781747	99
Es	-0.633033	-1.403370	-0.511283	99
Es	-0.469919	-1.604494	-1.243910	99
Es	0.158051	-1.888598	-0.940568	99
Es	-1.344836	1.419344	0.845045	99
Es	-1.630931	-0.966576	0.147736	99
Es	0.978291	1.400781	-0.181116	99
39
Properties=species:S:1:pos:R:3:Z:I:1 energy=-338.7687433164367 field_type=dipole dipole="0.000000 0.000000 0.000000" charge=0
N	-0.436966	-1.743425	-1.015956	7
C	-0.899356	-1.024285	0.174134	6
C	-0.275166	0.329715	0.261754	6
N	-0.990046	1.366065	0.726104	7
O	-0.139466	2.456305	0.698154	8
C	1.073895	2.069315	0.237794	6
C	1.049425	0.730345	-0.045876	6
H	-0.956836	-2.616635	-1.087696	1
H	0.538274	-2.006005	-0.890686	1
H	-0.652476	-1.603105	1.071174	1
H	-1.990556	-0.934025	0.126364	1
H	1.820844	2.845845	0.175314	1
H	1.858425	0.129895	-0.430576	1
Es	-0.228355	2.761500	0.783087	99
Es	-0.726463	-1.395325	0.779820	99
Es	-0.469416	-1.606817	-1.240212	99
Es	-0.275201	0.329710	0.261777	99
Es	-0.633266	-1.401844	-0.513626	99
Es	-0.750661	-2.283222	-1.042283	99
Es	-0.581954	0.877338	0.776841	99
Es	0.983418	1.404485	-0.176375	99
Es	-0.989426	1.366023	0.725906	99
Es	1.083376	1.210859	0.350772	99
Es	1.049421	0.730319	-0.045901	99
Es	-0.738601	1.002101	0.274429	99
Es	-0.139314	2.455839	0.697637	99
Es	-1.630787	-0.966709	0.147753	99
Es	0.400356	0.474800	0.095209	99
Es	1.590927	0.319340	-0.300200	99
Es	-0.570727	-0.332786	0.217253	99
Es	-0.469327	1.979906	0.700900	99
Es	1.575581	2.585663	0.193604	99
Es	0.158142	-1.888197	-0.941139	99
Es	-0.436900	-1.743761	-1.015436	99
Es	1.073690	2.069478	0.237891	99
Es	0.331652	2.297120	0.516601	99
Es	-1.344820	1.419335	0.844721	99
Es	-0.047785	2.361375	0.656634	99
Es	-0.899247	-1.024280	0.174014	99
39
Properties=species:S:1:pos:R:3:Z:I:1 energy=-338.7687433164367 field_type=dipole dipole="0.000000 0.000000 0.000000" charge=0
N	-0.436966	-1.743425	-1.015956	7
C	-0.899356	-1.024285	0.174134	6
C	-0.275166	0.329715	0.261754	6
N	-0.990046	1.366065	0.726104	7
O	-0.139466	2.456305	0.698154	8
C	1.073895	2.069315	0.237794	6
C	1.049425	0.730345	-0.045876	6
H	-0.956836	-2.616635	-1.087696	1
H	0.538274	-2.006005	-0.890686	1
H	-0.652476	-1.603105	1.071174	1
H	-1.990556	-0.934025	0.126364	1
H	1.820844	2.845845	0.175314	1
H	1.858425	0.129895	-0.430576	1
Es	-0.633186	-1.401302	-0.513942	99
Es	-0.989412	1.366043	0.725907	99
Es	0.399865	0.475182	0.094119	99
Es	1.575594	2.585680	0.193784	99
Es	-0.228577	2.761768	0.782282	99
Es	-0.275200	0.329710	0.261775	99
Es	1.049427	0.730313	-0.045887	99
Es	-0.047378	2.361922	0.655661	99
Es	-0.750655	-2.283342	-1.042625	99
Es	-0.469173	-1.607126	-1.239560	99
Es	-0.738890	1.001316	0.273536	99
Es	-0.581979	0.878093	0.778114	99
Es	-0.570599	-0.332813	0.217158	99
Es	0.332268	2.296465	0.519051	99
Es	1.073501	1.204138	0.341826	99
Es	0.993208	1.410398	-0.166287	99
Es	-0.899250	-1.024280	0.174022	99
Es	-1.344496	1.419558	0.844518	99
Es	-0.726333	-1.395325	0.779650	99
Es	-0.139325	2.455869	0.697793	99
Es	0.157719	-1.888262	-0.941167	99
Es	-0.436913	-1.743680	-1.015527	99
Es	1.073687	2.069480	0.237890	99
Es	1.590739	0.319223	-0.300429	99
Es	-1.630844	-0.966842	0.147960	99
Es	-0.469484	1.980066	0.700056	99
39
Properties=species:S:1:pos:R:3:Z:I:1 energy=-338.7687433164367 field_type=dipole dipole="0.000000 0.000000 0.000000" charge=0
N	-0.436966	-1.743425	-1.015956	7
C	-0.899356	-1.024285	0.174134	6
C	-0.275166	0.329715	0.261754	6
N	-0.990046	1.366065	0.726104	7
O	-0.139466	2.456305	0.698154	8
C	1.073895	2.069315	0.237794	6
C	1.049425	0.730345	-0.045876	6
H	-0.956836	-2.616635	-1.087696	1
H	0.538274	-2.006005	-0.890686	1
H	-0.652476	-1.603105	1.071174	1
H	-1.990556	-0.934025	0.126364	1
H	1.820844	2.845845	0.175314	1
H	1.858425	0.129895	-0.430576	1
Es	-0.581789	0.879760	0.778733	99
Es	1.575576	2.585724	0.193746	99
Es	-0.275204	0.329712	0.261766	99
Es	-1.344640	1.419436	0.844318	99
Es	0.994942	1.411538	-0.164136	99
Es	-1.630755	-0.967030	0.148119	99
Es	-0.633438	-1.399801	-0.516442	99
Es	1.590790	0.319223	-0.300323	99
Es	0.157586	-1.888079	-0.941186	99
Es	1.049427	0.730310	-0.045887	99
Es	1.071313	1.203064	0.339504	99
Es	-0.228474	2.762152	0.781674	99
Es	0.399768	0.475242	0.094198	99
Es	-0.750679	-2.283457	-1.042945	99
Es	0.331809	2.296338	0.518966	99
Es	-0.047088	2.362095	0.655743	99
Es	-0.436880	-1.743833	-1.015331	99
Es	-0.468645	-1.608872	-1.236705	99
Es	1.073688	2.069478	0.237889	99
Es	-0.989405	1.366049	0.725903	99
Es	-0.899242	-1.024283	0.174015	99
Es	-0.570661	-0.332770	0.217233	99
Es	-0.726500	-1.394904	0.779188	99
Es	-0.469187	1.979871	0.700589	99
Es	-0.139333	2.455878	0.697846	99
Es	-0.738668	0.999412	0.273205	99
39
Properties=species:S:1:pos:R:3:Z:I:1 energy=-338.7687433164367 field_type=dipole dipole="0.000000 0.000000 0.000000" charge=0
N	-0.436966	-1.743425	-1.015956	7
C	-0.899356	-1.024285	0.174134	6
C	-0.275166	0.329715	0.261754	6
N	-0.990046	1.366065	0.726104	7
O	-0.139466	2.456305	0.698154	8
C	1.073895	2.069315	0.237794	6
C	1.049425	0.730345	-0.045876	6
H	-0.956836	-2.616635	-1.087696	1
H	0.538274	-2.006005	-0.890686	1
H	-0.652476	-1.603105	1.071174	1
H	-1.990556	-0.934025	0.126364	1
H	1.820844	2.845845	0.175314	1
H	1.858425	0.129895	-0.430576	1
Es	-1.630601	-0.967074	0.148107	99
Es	-0.581736	0.878068	0.778077	99
Es	1.049433	0.730309	-0.045867	99
Es	-1.344523	1.419468	0.844389	99
Es	-0.436885	-1.743833	-1.015357	99
Es	0.332486	2.295963	0.521697	99
Es	-0.570635	-0.332728	0.217328	99
Es	-0.228019	2.761797	0.783621	99
Es	-0.468787	-1.610209	-1.234649	99
Es	1.575590	2.585733	0.193791	99
Es	1.068560	1.201650	0.336631	99
Es	-0.469064	1.979736	0.700296	99
Es	0.157615	-1.887447	-0.942285	99
Es	-0.275202	0.329711	0.261774	99
Es	1.073689	2.069478	0.237888	99
Es	0.997374	1.412961	-0.161154	99
Es	-0.633429	-1.398974	-0.517601	99
Es	-0.899248	-1.024279	0.174014	99
Es	1.590744	0.319157	-0.300389	99
Es	-0.750570	-2.283621	-1.042735	99
Es	-0.139155	2.455749	0.698178	99
Es	-0.048357	2.363267	0.651088	99
Es	-0.738543	1.000978	0.273650	99
Es	-0.726606	-1.394904	0.779094	99
Es	0.399628	0.475278	0.094179	99
Es	-0.989446	1.366015	0.725911	99
39
Properties=species:S:1:pos:R:3:Z:I:1 energy=-338.7687433164367 field_type=dipole dipole="0.000000 0.000000 0.000000" charge=0
N	-0.436966	-1.743425	-1.015956	7
C	-0.899356	-1.024285	0.174134	6
C	-0.275166	0.329715	0.261754	6
N	-0.990046	1.366065	0.726104	7
O	-0.139466	2.456305	0.698154	8
C	1.073895	2.069315	0.237794	6
C	1.049425	0.730345	-0.045876	6
H	-0.956836	-2.616635	-1.087696	1
H	0.538274	-2.006005	-0.890686	1
H	-0.652476	-1.603105	1.071174	1
H	-1.990556	-0.934025	0.126364	1
H	1.820844	2.845845	0.175314	1
H	1.858425	0.129895	-0.430576	1
Es	1.575549	2.585790	0.193862	99
Es	-0.047304	2.362957	0.653006	99
Es	-0.436897	-1.743762	-1.015435	99
Es	-0.899247	-1.024280	0.174014	99
Es	-0.581735	0.878656	0.778406	99
Es	0.331899	2.296082	0.520237	99
Es	-0.275202	0.329711	0.261773	99
Es	0.399575	0.475228	0.094356	99
Es	1.064927	1.199587	0.332686	99
Es	-0.750615	-2.283649	-1.043065	99
Es	-0.726653	-1.394736	0.779053	99
Es	1.590726	0.319196	-0.300360	99
Es	-0.468539	-1.610885	-1.233416	99
Es	-0.139307	2.455878	0.698028	99
Es	-0.570645	-0.332697	0.217136	99
Es	1.000772	1.414733	-0.157079	99
Es	-1.630485	-0.967095	0.148117	99
Es	0.157460	-1.887431	-0.942355	99
Es	-0.469301	1.979841	0.699959	99
Es	-0.989402	1.366049	0.725906	99
Es	-0.738622	1.000512	0.273129	99
Es	1.073688	2.069479	0.237889	99
Es	-1.344509	1.419427	0.844318	99
Es	-0.227803	2.761936	0.783555	99
Es	-0.633448	-1.398588	-0.518163	99
Es	1.049430	0.730311	-0.045877	99
39
Properties=species:S:1:pos:R:3:Z:I:1 energy=-338.7687433164367 field_type=dipole dipole="0.000000 0.000000 0.000000" charge=0
N	-0.436966	-1.743425	-1.015956	7
C	-0.899356	-1.024285	0.174134	6
C	-0.275166	0.329715	0.261754	6
N	-0.990046	1.366065	0.726104	7
O	-0.139466	2.456305	0.698154	8
C	1.073895	2.069315	0.237794	6
C	1.049425	0.730345	-0.045876	6
H	-0.956836	-2.616635	-1.087696	1
H	0.538274	-2.006005	-0.890686	1
H	-0.652476	-1.603105	1.071174	1
H	-1.990556	-0.934025	0.126364	1
H	1.820844	2.845845	0.175314	1
H	1.858425	0.129895	-0.430576	1
Es	1.049422	0.730316	-0.045904	99
Es	-0.227289	2.761650	0.785713	99
Es	-0.750593	-2.283676	-1.042973	99
Es	0.399459	0.475412	0.094055	99
Es	-0.436930	-1.743671	-1.015711	99
Es	1.061564	1.197886	0.329009	99
Es	-0.468334	-1.611236	-1.232823	99
Es	1.003978	1.416258	-0.153074	99
Es	0.157349	-1.887614	-0.941999	99
Es	-0.633524	-1.398086	-0.519002	99
Es	-1.344578	1.419395	0.843725	99
Es	-0.726672	-1.394742	0.778978	99
Es	-0.581793	0.877933	0.778228	99
Es	-1.630451	-0.967133	0.148146	99
Es	-0.989406	1.366048	0.725903	99
Es	-0.139269	2.455827	0.698126	99
Es	-0.570703	-0.332711	0.217212	99
Es	-0.738274	1.001154	0.273842	99
Es	-0.275202	0.329710	0.261775	99
Es	1.073690	2.069478	0.237890	99
Es	0.331642	2.296217	0.519913	99
Es	1.590667	0.319059	-0.300301	99
Es	-0.047681	2.363457	0.651178	99
Es	1.575598	2.585762	0.193945	99
Es	-0.469109	1.979838	0.699809	99
Es	-0.899249	-1.024279	0.174018	99
39
Properties=species:S:1:pos:R:3:Z:I:1 energy=-338.7687433164367 field_type=dipole dipole="0.000000 0.000000 0.000000" charge=0
N	-0.436966	-1.743425	-1.015956	7
C	-0.899356	-1.024285	0.174134	6
C	-0.275166	0.329715	0.261754	6
N	-0.990046	1.366065	0.726104	7
O	-0.139466	2.456305	0.698154	8
C	1.073895	2.069315	0.237794	6
C	1.049425	0.730345	-0.045876	6
H	-0.956836	-2.616635	-1.087696	1
H	0.538274	-2.006005	-0.890686	1
H	-0.652476	-1.603105	1.071174	1
H	-1.990556	-0.934025	0.126364	1
H	1.820844	2.845845	0.175314	1
H	1.858425	0.129895	-0.430576	1
Es	-0.581809	0.877480	0.778127	99
Es	-0.047275	2.363662	0.651096	99
Es	-0.726628	-1.394862	0.779115	99
Es	-0.469421	1.980003	0.699164	99
Es	-1.344112	1.419392	0.844252	99
Es	-0.570692	-0.332728	0.217175	99
Es	-0.899248	-1.024279	0.174015	99
Es	-0.275202	0.329711	0.261774	99
Es	-1.630440	-0.967065	0.148126	99
Es	-0.989406	1.366047	0.725905	99
Es	1.575635	2.585729	0.194058	99
Es	-0.468056	-1.609784	-1.234948	99
Es	1.055605	1.194853	0.321830	99
Es	-0.139335	2.455882	0.698010	99
Es	-0.227475	2.761940	0.784485	99
Es	-0.750699	-2.283613	-1.043525	99
Es	0.156950	-1.888262	-0.940958	99
Es	-0.436887	-1.743821	-1.015371	99
Es	-0.633393	-1.398725	-0.517817	99
Es	1.590625	0.318995	-0.300401	99
Es	1.049426	0.730313	-0.045889	99
Es	1.009879	1.418712	-0.145353	99
Es	0.332083	2.295724	0.522036	99
Es	0.399145	0.475594	0.093235	99
Es	-0.738649	1.001876	0.273643	99
Es	1.073689	2.069478	0.237894	99
39
Properties=species:S:1:pos:R:3:Z:I:1 energy=-338.7687433164367 field_type=dipole dipole="0.000000 0.000000 0.000000" charge=0
N	-0.436966	-1.743425	-1.015956	7
C	-0.899356	-1.024285	0.174134	6
C	-0.275166	0.329715	0.261754	6
N	-0.990046	1.366065	0.726104	7
O	-0.139466	2.456305	0.698154	8
C	1.073895	2.069315	0.237794	6
C	1.049425	0.730345	-0.045876	6
H	-0.956836	-2.616635	-1.087696	1
H	0.538274	-2.006005	-0.890686	1
H	-0.652476	-1.603105	1.071174	1
H	-1.990556	-0.934025	0.126364	1
H	1.820844	2.845845	0.175314	1
H	1.858425	0.129895	-0.430576	1
Es	-0.582116	0.874315	0.774172	99
Es	0.404761	0.472860	0.111090	99
Es	-0.726682	-1.399696	0.785801	99
Es	-0.471786	-1.593423	-1.266467	99
Es	-0.571929	-0.332163	0.217428	99
Es	-0.036680	2.358757	0.679225	99
Es	-1.342876	1.419348	0.846553	99
Es	-1.627141	-0.965300	0.144932	99
Es	1.150629	1.357742	0.242655	99
Es	1.049434	0.730308	-0.045863	99
Es	0.909823	1.253944	-0.082930	99
Es	-0.741390	1.009295	0.275150	99
Es	-0.745538	-2.285964	-1.034009	99
Es	1.073685	2.069478	0.237883	99
Es	-0.232809	2.764183	0.767700	99
Es	-0.464028	1.977441	0.713642	99
Es	-0.436882	-1.743787	-1.015427	99
Es	0.322055	2.301198	0.495092	99
Es	-0.899245	-1.024280	0.174013	99
Es	-0.139283	2.455855	0.698094	99
Es	-0.275201	0.329710	0.261779	99
Es	1.574531	2.586288	0.190181	99
Es	-0.631834	-1.407744	-0.504826	99
Es	0.152675	-1.891146	-0.933340	99
Es	-0.989407	1.366041	0.725907	99
Es	1.591542	0.318991	-0.298756	99
39
Properties=species:S:1:pos:R:3:Z:I:1 energy=-338.7687433164367 field_type=dipole dipole="0.000000 0.000000 0.000000" charge=0
N	-0.436966	-1.743425	-1.015956	7
C	-0.899356	-1.024285	0.174134	6
C	-0.275166	0.329715	0.261754	6
N	-0.990046	1.366065	0.726104	7
O	-0.139466	2.456305	0.698154	8
C	1.073895	2.069315	0.237794	6
C	1.049425	0.730345	-0.045876	6
H	-0.956836	-2.616635	-1.087696	1
H	0.538274	-2.006005	-0.890686	1
H	-0.652476	-1.603105	1.071174	1
H	-1.990556	-0.934025	0.126364	1
H	1.820844	2.845845	0.175314	1
H	1.858425	0.129895	-0.430576	1
Es	0.156709	-1.888230	-0.940811	99
Es	-0.227653	2.762288	0.783409	99
Es	-1.344297	1.419508	0.843662	99
Es	-0.738466	0.999312	0.272766	99
Es	-0.436887	-1.743827	-1.015366	99
Es	-1.630137	-0.966971	0.147837	99
Es	0.398994	0.475811	0.093248	99
Es	1.050363	1.192425	0.314899	99
Es	1.073689	2.069478	0.237889	99
Es	-0.581750	0.879992	0.779707	99
Es	-0.899247	-1.024279	0.174014	99
Es	-0.275202	0.329711	0.261773	99
Es	-0.633361	-1.398809	-0.517717	99
Es	-0.570684	-0.332669	0.217040	99
Es	1.014877	1.420747	-0.138235	99
Es	1.575589	2.585788	0.194043	99
Es	-0.467892	-1.609823	-1.234718	99
Es	-0.047508	2.364386	0.648799	99
Es	1.590518	0.318929	-0.300560	99
Es	-0.750576	-2.283723	-1.043828	99
Es	0.332497	2.295109	0.524529	99
Es	1.049425	0.730313	-0.045897	99
Es	-0.989412	1.366046	0.725909	99
Es	-0.139340	2.455897	0.697981	99
Es	-0.726921	-1.394874	0.779191	99
Es	-0.469016	1.979714	0.700114	99
39
Properties=species:S:1:pos:R:3:Z:I:1 energy=-338.7687433164367 field_type=dipole dipole="0.000000 0.000000 0.000000" charge=0
N	-0.436966	-1.743425	-1.015956	7
C	-0.899356	-1.024285	0.174134	6
C	-0.275166	0.329715	0.261754	6
N	-0.990046	1.366065	0.726104	7
O	-0.139466	2.456305	0.698154	8
C	1.073895	2.069315	0.237794	6
C	1.049425	0.730345	-0.045876	6
H	-0.956836	-2.616635	-1.087696	1
H	0.538274	-2.006005	-0.890686	1
H	-0.652476	-1.603105	1.071174	1
H	-1.990556	-0.934025	0.126364	1
H	1.820844	2.845845	0.175314	1
H	1.858425	0.129895	-0.430576	1
Es	1.575562	2.585797	0.194017	99
Es	-0.581691	0.878348	0.778636	99
Es	-1.630151	-0.967035	0.147974	99
Es	-0.139314	2.455874	0.698026	99
Es	0.399239	0.475642	0.093995	99
Es	-0.570645	-0.332681	0.217185	99
Es	-0.738559	1.000805	0.273053	99
Es	-0.275202	0.329711	0.261773	99
Es	0.332005	2.295317	0.523295	99
Es	1.590542	0.318873	-0.300520	99
Es	-0.989404	1.366046	0.725907	99
Es	-1.344061	1.419311	0.844096	99
Es	-0.468353	-1.612260	-1.231219	99
Es	-0.899245	-1.024280	0.174014	99
Es	-0.469449	1.980039	0.698784	99
Es	-0.750327	-2.283971	-1.043100	99
Es	0.157040	-1.887023	-0.942837	99
Es	-0.633466	-1.397506	-0.519803	99
Es	-0.436893	-1.743770	-1.015414	99
Es	-0.726957	-1.394691	0.778935	99
Es	1.049429	0.730311	-0.045881	99
Es	1.052292	1.193579	0.317465	99
Es	1.073688	2.069479	0.237889	99
Es	-0.227364	2.762299	0.783970	99
Es	-0.046923	2.364047	0.650748	99
Es	1.012521	1.419990	-0.141310	99
39
Properties=species:S:1:pos:R:3:Z:I:1 energy=-338.7687433164367 field_type=dipole dipole="0.000000 0.000000 0.000000" charge=0
N	-0.436966	-1.743425	-1.015956	7
C	-0.899356	-1.024285	0.174134	6
C	-0.275166	0.329715	0.261754	6
N	-0.990046	1.366065	0.726104	7
O	-0.139466	2.456305	0.698154	8
C	1.073895	2.069315	0.237794	6
C	1.049425	0.730345	-0.045876	6
H	-0.956836	-2.616635	-1.087696	1
H	0.538274	-2.006005	-0.890686	1
H	-0.652476	-1.603105	1.071174	1
H	-1.990556	-0.934025	0.126364	1
H	1.820844	2.845845	0.175314	1
H	1.858425	0.129895	-0.430576	1
Es	1.016756	1.421425	-0.135487	99
Es	0.156572	-1.888251	-0.940866	99
Es	-0.227490	2.762272	0.783666	99
Es	1.073686	2.069479	0.237890	99
Es	1.048326	1.191690	0.312384	99
Es	-1.630165	-0.967079	0.148040	99
Es	1.590515	0.318963	-0.300552	99
Es	-0.436889	-1.743818	-1.015369	99
Es	-0.633508	-1.397373	-0.519896	99
Es	1.049417	0.730320	-0.045920	99
Es	-0.726830	-1.394777	0.779033	99
Es	-0.467652	-1.611165	-1.232758	99
Es	-0.738647	1.000146	0.272725	99
Es	1.575561	2.585812	0.194104	99
Es	0.398910	0.475707	0.093137	99
Es	-0.989414	1.366041	0.725902	99
Es	0.331644	2.295660	0.521728	99
Es	-0.581658	0.879010	0.779601	99
Es	-0.570706	-0.332659	0.217079	99
Es	-0.899243	-1.024285	0.174012	99
Es	-0.046518	2.363880	0.651989	99
Es	-0.469340	1.979946	0.699324	99
Es	-1.343921	1.419516	0.843698	99
Es	-0.275202	0.329711	0.261774	99
Es	-0.139302	2.455879	0.698036	99
Es	-0.750591	-2.283802	-1.043596	99
