48
Properties=species:S:1:pos:R:3:Z:I:1 energy=-289.29198518380446 field_type=dipole dipole="0.000000 0.000000 0.000000" charge=0
C	-2.245450	-0.456472	0.063220	6
C	-0.756830	-0.442432	0.305080	6
C	-0.378740	-0.525503	1.761871	6
C	0.132241	-1.139863	-0.703040	6
C	0.094450	0.368208	-0.664009	6
C	1.290980	1.152358	-0.233049	6
N	2.118761	1.376477	-1.410179	7
H	-2.488950	-0.398542	-1.003209	1
H	-2.718930	0.395238	0.562810	1
H	-2.687600	-1.377582	0.457140	1
H	0.689920	-0.707902	1.908900	1
H	-0.916189	-1.346102	2.248620	1
H	-0.640740	0.406078	2.273690	1
H	-0.328630	-1.630352	-1.554039	1
H	1.024160	-1.645562	-0.348720	1
H	-0.431190	0.879318	-1.466760	1
H	1.881270	0.632448	0.527231	1
H	0.973140	2.114177	0.180750	1
H	2.424040	0.474387	-1.774059	1
H	2.964280	1.871627	-1.132249	1
Es	-0.388746	0.131363	-0.094036	99
Es	-2.544999	-1.085884	0.335230	99
Es	-0.364062	-0.969971	-0.144467	99
Es	-2.405244	-0.416514	-0.665834	99
Es	-2.245435	-0.456471	0.063224	99
Es	1.074807	1.813076	0.051138	99
Es	0.351178	-0.647274	1.856134	99
Es	-0.185810	-1.473309	-1.280613	99
Es	0.242696	-0.387133	-0.826053	99
Es	0.743454	-1.477428	-0.456179	99
Es	0.094432	0.368031	-0.663937	99
Es	0.132199	-1.139718	-0.702985	99
Es	1.291043	1.152366	-0.233172	99
Es	2.636930	1.663448	-1.226101	99
Es	1.778900	1.269571	-0.888509	99
Es	1.691220	0.786161	0.300114	99
Es	-1.501267	-0.450343	0.174532	99
Es	-0.553577	-0.481105	1.031464	99
Es	-0.559682	0.111030	2.109978	99
Es	0.691793	0.742945	-0.428080	99
Es	-0.378744	-0.525499	1.761852	99
Es	-0.748690	-1.084855	2.088737	99
Es	-2.565630	0.125066	0.407110	99
Es	-0.756728	-0.442432	0.304970	99
Es	2.310610	0.824109	-1.608323	99
Es	1.944379	1.557131	-1.661146	99
Es	2.119054	1.376183	-1.409775	99
Es	-0.269728	0.707018	-1.207653	99
48
Properties=species:S:1:pos:R:3:Z:I:1 energy=-289.29198518380446 field_type=dipole dipole="0.000000 0.000000 0.000000" charge=0
C	-2.245450	-0.456472	0.063220	6
C	-0.756830	-0.442432	0.305080	6
C	-0.378740	-0.525503	1.761871	6
C	0.132241	-1.139863	-0.703040	6
C	0.094450	0.368208	-0.664009	6
C	1.290980	1.152358	-0.233049	6
N	2.118761	1.376477	-1.410179	7
H	-2.488950	-0.398542	-1.003209	1
H	-2.718930	0.395238	0.562810	1
H	-2.687600	-1.377582	0.457140	1
H	0.689920	-0.707902	1.908900	1
H	-0.916189	-1.346102	2.248620	1
H	-0.640740	0.406078	2.273690	1
H	-0.328630	-1.630352	-1.554039	1
H	1.024160	-1.645562	-0.348720	1
H	-0.431190	0.879318	-1.466760	1
H	1.881270	0.632448	0.527231	1
H	0.973140	2.114177	0.180750	1
H	2.424040	0.474387	-1.774059	1
H	2.964280	1.871627	-1.132249	1
Es	-2.245435	-0.456470	0.063223	99
Es	-1.501531	-0.450186	0.174183	99
Es	2.311294	0.822993	-1.610382	99
Es	1.946919	1.554848	-1.657969	99
Es	-0.748725	-1.086091	2.088581	99
Es	2.119053	1.376177	-1.409766	99
Es	-0.553362	-0.481210	1.031623	99
Es	-2.565788	0.126575	0.407167	99
Es	-0.559530	0.112296	2.110152	99
Es	-2.544946	-1.087212	0.334987	99
Es	-0.378746	-0.525496	1.761853	99
Es	-0.184980	-1.473078	-1.279880	99
Es	-0.389460	0.132934	-0.093118	99
Es	1.074182	1.813729	0.052123	99
Es	0.742686	-1.477483	-0.456641	99
Es	0.350184	-0.647137	1.855230	99
Es	1.291043	1.152367	-0.233171	99
Es	-2.404127	-0.416659	-0.664686	99
Es	-0.756729	-0.442434	0.304972	99
Es	0.094424	0.368041	-0.663930	99
Es	-0.365134	-0.971770	-0.143688	99
Es	-0.268998	0.706953	-1.206677	99
Es	2.635479	1.665266	-1.228285	99
Es	1.690379	0.786030	0.299153	99
Es	0.244417	-0.387262	-0.828267	99
Es	1.777561	1.270810	-0.887907	99
Es	0.692027	0.742736	-0.428279	99
Es	0.132198	-1.139706	-0.702980	99
48
Properties=species:S:1:pos:R:3:Z:I:1 energy=-289.29198518380446 field_type=dipole dipole="0.000000 0.000000 0.000000" charge=0
C	-2.245450	-0.456472	0.063220	6
C	-0.756830	-0.442432	0.305080	6
C	-0.378740	-0.525503	1.761871	6
C	0.132241	-1.139863	-0.703040	6
C	0.094450	0.368208	-0.664009	6
C	1.290980	1.152358	-0.233049	6
N	2.118761	1.376477	-1.410179	7
H	-2.488950	-0.398542	-1.003209	1
H	-2.718930	0.395238	0.562810	1
H	-2.687600	-1.377582	0.457140	1
H	0.689920	-0.707902	1.908900	1
H	-0.916189	-1.346102	2.248620	1
H	-0.640740	0.406078	2.273690	1
H	-0.328630	-1.630352	-1.554039	1
H	1.024160	-1.645562	-0.348720	1
H	-0.431190	0.879318	-1.466760	1
H	1.881270	0.632448	0.527231	1
H	0.973140	2.114177	0.180750	1
H	2.424040	0.474387	-1.774059	1
H	2.964280	1.871627	-1.132249	1
Es	-2.565814	0.127426	0.407190	99
Es	1.073773	1.814042	0.052820	99
Es	0.692004	0.742587	-0.428318	99
Es	2.634288	1.666862	-1.229565	99
Es	1.291043	1.152366	-0.233171	99
Es	-0.365623	-0.972806	-0.143065	99
Es	-0.559337	0.112933	2.110191	99
Es	0.245715	-0.387234	-0.830028	99
Es	2.312000	0.822332	-1.611940	99
Es	1.689839	0.785898	0.298491	99
Es	-0.553365	-0.481038	1.031752	99
Es	-0.390054	0.133765	-0.092336	99
Es	1.948807	1.552910	-1.655444	99
Es	1.776382	1.271633	-0.887935	99
Es	0.132200	-1.139720	-0.702986	99
Es	0.094428	0.368049	-0.663933	99
Es	0.349476	-0.646874	1.854639	99
Es	2.119062	1.376182	-1.409772	99
Es	-0.378745	-0.525500	1.761851	99
Es	-2.245434	-0.456470	0.063223	99
Es	0.742322	-1.477623	-0.457140	99
Es	-0.748765	-1.087027	2.088571	99
Es	-0.184604	-1.472848	-1.278937	99
Es	-2.544861	-1.087920	0.334862	99
Es	-0.268477	0.706966	-1.206197	99
Es	-0.756727	-0.442432	0.304969	99
Es	-2.403452	-0.416760	-0.664109	99
Es	-1.501726	-0.450137	0.173937	99
48
Properties=species:S:1:pos:R:3:Z:I:1 energy=-289.29198518380446 field_type=dipole dipole="0.000000 0.000000 0.000000" charge=0
C	-2.245450	-0.456472	0.063220	6
C	-0.756830	-0.442432	0.305080	6
C	-0.378740	-0.525503	1.761871	6
C	0.132241	-1.139863	-0.703040	6
C	0.094450	0.368208	-0.664009	6
C	1.290980	1.152358	-0.233049	6
N	2.118761	1.376477	-1.410179	7
H	-2.488950	-0.398542	-1.003209	1
H	-2.718930	0.395238	0.562810	1
H	-2.687600	-1.377582	0.457140	1
H	0.689920	-0.707902	1.908900	1
H	-0.916189	-1.346102	2.248620	1
H	-0.640740	0.406078	2.273690	1
H	-0.328630	-1.630352	-1.554039	1
H	1.024160	-1.645562	-0.348720	1
H	-0.431190	0.879318	-1.466760	1
H	1.881270	0.632448	0.527231	1
H	0.973140	2.114177	0.180750	1
H	2.424040	0.474387	-1.774059	1
H	2.964280	1.871627	-1.132249	1
Es	-2.245435	-0.456470	0.063224	99
Es	-2.565740	0.127958	0.407287	99
Es	-0.390397	0.135176	-0.091752	99
Es	0.132197	-1.139710	-0.702980	99
Es	-0.366064	-0.974081	-0.142988	99
Es	-0.184126	-1.472627	-1.278415	99
Es	0.246040	-0.387229	-0.830639	99
Es	0.094427	0.368042	-0.663932	99
Es	-0.559191	0.113622	2.110082	99
Es	-0.268063	0.706874	-1.205922	99
Es	1.689472	0.785821	0.298097	99
Es	-2.544793	-1.088446	0.334737	99
Es	0.742033	-1.477594	-0.457460	99
Es	-0.378746	-0.525499	1.761851	99
Es	-0.756731	-0.442443	0.304974	99
Es	1.291043	1.152366	-0.233171	99
Es	2.312662	0.822141	-1.612486	99
Es	2.119050	1.376181	-1.409771	99
Es	0.348975	-0.646791	1.854114	99
Es	-2.403176	-0.416730	-0.663558	99
Es	1.949700	1.551551	-1.654261	99
Es	-0.553291	-0.481409	1.031923	99
Es	-0.748724	-1.087544	2.088656	99
Es	1.775867	1.271993	-0.887654	99
Es	-1.501695	-0.450097	0.173765	99
Es	2.633401	1.667874	-1.230694	99
Es	0.692255	0.742353	-0.428626	99
Es	1.073403	1.814278	0.053219	99
48
Properties=species:S:1:pos:R:3:Z:I:1 energy=-289.29198518380446 field_type=dipole dipole="0.000000 0.000000 0.000000" charge=0
C	-2.245450	-0.456472	0.063220	6
C	-0.756830	-0.442432	0.305080	6
C	-0.378740	-0.525503	1.761871	6
C	0.132241	-1.139863	-0.703040	6
C	0.094450	0.368208	-0.664009	6
C	1.290980	1.152358	-0.233049	6
N	2.118761	1.376477	-1.410179	7
H	-2.488950	-0.398542	-1.003209	1
H	-2.718930	0.395238	0.562810	1
H	-2.687600	-1.377582	0.457140	1
H	0.689920	-0.707902	1.908900	1
H	-0.916189	-1.346102	2.248620	1
H	-0.640740	0.406078	2.273690	1
H	-0.328630	-1.630352	-1.554039	1
H	1.024160	-1.645562	-0.348720	1
H	-0.431190	0.879318	-1.466760	1
H	1.881270	0.632448	0.527231	1
H	0.973140	2.114177	0.180750	1
H	2.424040	0.474387	-1.774059	1
H	2.964280	1.871627	-1.132249	1
Es	0.132193	-1.139701	-0.702979	99
Es	1.291047	1.152364	-0.233174	99
Es	2.119049	1.376179	-1.409834	99
Es	0.348658	-0.646684	1.853964	99
Es	-0.390585	0.135666	-0.091415	99
Es	1.950804	1.550820	-1.653533	99
Es	0.692255	0.742217	-0.428698	99
Es	0.246648	-0.387071	-0.831370	99
Es	1.073154	1.814403	0.053469	99
Es	-0.183918	-1.472254	-1.277924	99
Es	2.632888	1.668077	-1.231242	99
Es	-0.748758	-1.087923	2.088570	99
Es	0.741902	-1.477803	-0.457791	99
Es	-1.501935	-0.450114	0.173844	99
Es	0.094429	0.368039	-0.663933	99
Es	-2.565746	0.128381	0.407201	99
Es	-2.245435	-0.456471	0.063223	99
Es	-2.544767	-1.088905	0.334673	99
Es	1.775091	1.272610	-0.887615	99
Es	-2.402671	-0.416744	-0.663271	99
Es	-0.756729	-0.442447	0.304971	99
Es	1.689221	0.785741	0.297861	99
Es	-0.559171	0.113894	2.110064	99
Es	2.312935	0.821943	-1.612791	99
Es	-0.553143	-0.481438	1.031900	99
Es	-0.267864	0.706974	-1.205746	99
Es	-0.378744	-0.525500	1.761849	99
Es	-0.366455	-0.974696	-0.142652	99
48
Properties=species:S:1:pos:R:3:Z:I:1 energy=-289.29198518380446 field_type=dipole dipole="0.000000 0.000000 0.000000" charge=0
C	-2.245450	-0.456472	0.063220	6
C	-0.756830	-0.442432	0.305080	6
C	-0.378740	-0.525503	1.761871	6
C	0.132241	-1.139863	-0.703040	6
C	0.094450	0.368208	-0.664009	6
C	1.290980	1.152358	-0.233049	6
N	2.118761	1.376477	-1.410179	7
H	-2.488950	-0.398542	-1.003209	1
H	-2.718930	0.395238	0.562810	1
H	-2.687600	-1.377582	0.457140	1
H	0.689920	-0.707902	1.908900	1
H	-0.916189	-1.346102	2.248620	1
H	-0.640740	0.406078	2.273690	1
H	-0.328630	-1.630352	-1.554039	1
H	1.024160	-1.645562	-0.348720	1
H	-0.431190	0.879318	-1.466760	1
H	1.881270	0.632448	0.527231	1
H	0.973140	2.114177	0.180750	1
H	2.424040	0.474387	-1.774059	1
H	2.964280	1.871627	-1.132249	1
Es	0.247010	-0.386895	-0.831856	99
Es	-0.559109	0.114142	2.110024	99
Es	0.094429	0.368048	-0.663936	99
Es	-0.267699	0.707082	-1.205654	99
Es	-0.748756	-1.088162	2.088574	99
Es	-1.502002	-0.449953	0.173835	99
Es	1.072831	1.814458	0.053630	99
Es	0.692329	0.742064	-0.428803	99
Es	-0.367060	-0.975395	-0.142442	99
Es	2.313529	0.821790	-1.613211	99
Es	-2.245435	-0.456470	0.063223	99
Es	1.291043	1.152366	-0.233171	99
Es	-0.553119	-0.481581	1.031870	99
Es	1.775015	1.272801	-0.887442	99
Es	1.951125	1.549491	-1.652456	99
Es	0.741878	-1.477931	-0.458022	99
Es	1.689033	0.785651	0.297738	99
Es	-0.756730	-0.442432	0.304969	99
Es	-2.565806	0.128732	0.407070	99
Es	2.632139	1.669289	-1.232297	99
Es	-0.378745	-0.525500	1.761851	99
Es	-0.390559	0.136075	-0.091080	99
Es	-2.544680	-1.089191	0.334698	99
Es	0.132200	-1.139722	-0.702986	99
Es	2.119031	1.376187	-1.409780	99
Es	-2.402405	-0.416885	-0.662966	99
Es	-0.183565	-1.471864	-1.277531	99
Es	0.348433	-0.646634	1.853772	99
48
Properties=species:S:1:pos:R:3:Z:I:1 energy=-289.29198518380446 field_type=dipole dipole="0.000000 0.000000 0.000000" charge=0
C	-2.245450	-0.456472	0.063220	6
C	-0.756830	-0.442432	0.305080	6
C	-0.378740	-0.525503	1.761871	6
C	0.132241	-1.139863	-0.703040	6
C	0.094450	0.368208	-0.664009	6
C	1.290980	1.152358	-0.233049	6
N	2.118761	1.376477	-1.410179	7
H	-2.488950	-0.398542	-1.003209	1
H	-2.718930	0.395238	0.562810	1
H	-2.687600	-1.377582	0.457140	1
H	0.689920	-0.707902	1.908900	1
H	-0.916189	-1.346102	2.248620	1
H	-0.640740	0.406078	2.273690	1
H	-0.328630	-1.630352	-1.554039	1
H	1.024160	-1.645562	-0.348720	1
H	-0.431190	0.879318	-1.466760	1
H	1.881270	0.632448	0.527231	1
H	0.973140	2.114177	0.180750	1
H	2.424040	0.474387	-1.774059	1
H	2.964280	1.871627	-1.132249	1
Es	2.119044	1.376178	-1.409770	99
Es	-0.267593	0.707181	-1.205518	99
Es	1.291044	1.152365	-0.233173	99
Es	0.741679	-1.478040	-0.458187	99
Es	-0.559092	0.114351	2.109920	99
Es	1.072696	1.814537	0.053767	99
Es	-2.565795	0.128931	0.407091	99
Es	-2.544641	-1.089408	0.334623	99
Es	-0.183400	-1.471672	-1.277214	99
Es	1.688892	0.785476	0.297639	99
Es	0.094425	0.368040	-0.663931	99
Es	-0.390705	0.136593	-0.090849	99
Es	0.348188	-0.646488	1.853635	99
Es	-0.378744	-0.525499	1.761851	99
Es	1.774221	1.273227	-0.887580	99
Es	-0.748756	-1.088466	2.088597	99
Es	0.247368	-0.387068	-0.832341	99
Es	-2.245435	-0.456470	0.063224	99
Es	-0.553099	-0.481669	1.032047	99
Es	-0.756732	-0.442420	0.304974	99
Es	-2.402256	-0.416868	-0.662741	99
Es	1.951856	1.548274	-1.651998	99
Es	0.692422	0.742045	-0.428925	99
Es	-0.367272	-0.975616	-0.142289	99
Es	2.631810	1.670080	-1.232877	99
Es	-1.501884	-0.450038	0.173688	99
Es	2.313909	0.821726	-1.613057	99
Es	0.132202	-1.139718	-0.702986	99
48
Properties=species:S:1:pos:R:3:Z:I:1 energy=-289.29198518380446 field_type=dipole dipole="0.000000 0.000000 0.000000" charge=0
C	-2.245450	-0.456472	0.063220	6
C	-0.756830	-0.442432	0.305080	6
C	-0.378740	-0.525503	1.761871	6
C	0.132241	-1.139863	-0.703040	6
C	0.094450	0.368208	-0.664009	6
C	1.290980	1.152358	-0.233049	6
N	2.118761	1.376477	-1.410179	7
H	-2.488950	-0.398542	-1.003209	1
H	-2.718930	0.395238	0.562810	1
H	-2.687600	-1.377582	0.457140	1
H	0.689920	-0.707902	1.908900	1
H	-0.916189	-1.346102	2.248620	1
H	-0.640740	0.406078	2.273690	1
H	-0.328630	-1.630352	-1.554039	1
H	1.024160	-1.645562	-0.348720	1
H	-0.431190	0.879318	-1.466760	1
H	1.881270	0.632448	0.527231	1
H	0.973140	2.114177	0.180750	1
H	2.424040	0.474387	-1.774059	1
H	2.964280	1.871627	-1.132249	1
Es	-0.748687	-1.088649	2.088720	99
Es	1.072597	1.814542	0.053907	99
Es	0.347942	-0.646389	1.853480	99
Es	2.119068	1.376155	-1.409751	99
Es	-0.183335	-1.471504	-1.276844	99
Es	1.291043	1.152365	-0.233171	99
Es	0.741642	-1.478231	-0.458262	99
Es	-0.559040	0.114590	2.109805	99
Es	-2.544636	-1.089631	0.334688	99
Es	0.132202	-1.139719	-0.702987	99
Es	1.688776	0.785410	0.297521	99
Es	0.247647	-0.386947	-0.832689	99
Es	-2.565759	0.129221	0.406944	99
Es	2.631403	1.670564	-1.233514	99
Es	1.774493	1.273106	-0.887269	99
Es	-2.402000	-0.416965	-0.662538	99
Es	-2.245438	-0.456469	0.063224	99
Es	1.951779	1.547840	-1.651317	99
Es	0.094418	0.368047	-0.663922	99
Es	-0.756730	-0.442435	0.304969	99
Es	-0.378745	-0.525500	1.761851	99
Es	-0.267358	0.707107	-1.205500	99
Es	-0.390958	0.136873	-0.090608	99
Es	0.692381	0.742010	-0.429007	99
Es	-0.552977	-0.481806	1.032014	99
Es	-1.502124	-0.449970	0.173739	99
Es	2.314136	0.821804	-1.613525	99
Es	-0.367387	-0.975858	-0.142336	99
48
Properties=species:S:1:pos:R:3:Z:I:1 energy=-289.29198518380446 field_type=dipole dipole="0.000000 0.000000 0.000000" charge=0
C	-2.245450	-0.456472	0.063220	6
C	-0.756830	-0.442432	0.305080	6
C	-0.378740	-0.525503	1.761871	6
C	0.132241	-1.139863	-0.703040	6
C	0.094450	0.368208	-0.664009	6
C	1.290980	1.152358	-0.233049	6
N	2.118761	1.376477	-1.410179	7
H	-2.488950	-0.398542	-1.003209	1
H	-2.718930	0.395238	0.562810	1
H	-2.687600	-1.377582	0.457140	1
H	0.689920	-0.707902	1.908900	1
H	-0.916189	-1.346102	2.248620	1
H	-0.640740	0.406078	2.273690	1
H	-0.328630	-1.630352	-1.554039	1
H	1.024160	-1.645562	-0.348720	1
H	-0.431190	0.879318	-1.466760	1
H	1.881270	0.632448	0.527231	1
H	0.973140	2.114177	0.180750	1
H	2.424040	0.474387	-1.774059	1
H	2.964280	1.871627	-1.132249	1
Es	0.741613	-1.478238	-0.458483	99
Es	-2.544610	-1.089888	0.334560	99
Es	0.094425	0.368039	-0.663930	99
Es	-0.756723	-0.442434	0.304964	99
Es	2.314253	0.821750	-1.613591	99
Es	0.247874	-0.386890	-0.833100	99
Es	-0.391119	0.137173	-0.090217	99
Es	0.692423	0.741881	-0.429069	99
Es	1.072396	1.814560	0.054047	99
Es	-0.552926	-0.481722	1.031915	99
Es	-0.558936	0.114655	2.109693	99
Es	1.952043	1.547945	-1.651317	99
Es	-0.367461	-0.976298	-0.142151	99
Es	1.291043	1.152366	-0.233170	99
Es	-2.401822	-0.416839	-0.662371	99
Es	-2.565771	0.129298	0.406978	99
Es	-1.502173	-0.449921	0.173655	99
Es	0.132198	-1.139718	-0.702986	99
Es	1.774443	1.273230	-0.887295	99
Es	-0.378745	-0.525500	1.761851	99
Es	1.688606	0.785397	0.297395	99
Es	0.347711	-0.646285	1.853498	99
Es	2.631219	1.670306	-1.233443	99
Es	-0.267197	0.707163	-1.205360	99
Es	-0.183159	-1.471299	-1.276602	99
Es	-2.245431	-0.456470	0.063222	99
Es	-0.748841	-1.088904	2.088728	99
Es	2.119021	1.376206	-1.409799	99
48
Properties=species:S:1:pos:R:3:Z:I:1 energy=-289.29198518380446 field_type=dipole dipole="0.000000 0.000000 0.000000" charge=0
C	-2.245450	-0.456472	0.063220	6
C	-0.756830	-0.442432	0.305080	6
C	-0.378740	-0.525503	1.761871	6
C	0.132241	-1.139863	-0.703040	6
C	0.094450	0.368208	-0.664009	6
C	1.290980	1.152358	-0.233049	6
N	2.118761	1.376477	-1.410179	7
H	-2.488950	-0.398542	-1.003209	1
H	-2.718930	0.395238	0.562810	1
H	-2.687600	-1.377582	0.457140	1
H	0.689920	-0.707902	1.908900	1
H	-0.916189	-1.346102	2.248620	1
H	-0.640740	0.406078	2.273690	1
H	-0.328630	-1.630352	-1.554039	1
H	1.024160	-1.645562	-0.348720	1
H	-0.431190	0.879318	-1.466760	1
H	1.881270	0.632448	0.527231	1
H	0.973140	2.114177	0.180750	1
H	2.424040	0.474387	-1.774059	1
H	2.964280	1.871627	-1.132249	1
Es	-0.378745	-0.525500	1.761851	99
Es	-0.183065	-1.471057	-1.276214	99
Es	0.741512	-1.478420	-0.458661	99
Es	-2.245432	-0.456470	0.063224	99
Es	-0.391122	0.137314	-0.090269	99
Es	2.631016	1.670050	-1.233471	99
Es	-0.553080	-0.481770	1.032127	99
Es	1.291044	1.152364	-0.233171	99
Es	-2.544617	-1.089989	0.334593	99
Es	-0.756727	-0.442435	0.304969	99
Es	0.094427	0.368041	-0.663932	99
Es	0.692477	0.741935	-0.429052	99
Es	0.248147	-0.386685	-0.833501	99
Es	-2.565703	0.129453	0.406939	99
Es	-1.502123	-0.449956	0.173624	99
Es	-0.267114	0.707243	-1.205284	99
Es	1.688474	0.785274	0.297361	99
Es	1.072253	1.814609	0.054107	99
Es	-0.367755	-0.976625	-0.142023	99
Es	1.774259	1.273293	-0.887224	99
Es	-0.748811	-1.088991	2.088678	99
Es	2.119065	1.376164	-1.409742	99
Es	2.314109	0.821742	-1.614479	99
Es	-2.401764	-0.416873	-0.662234	99
Es	0.132196	-1.139718	-0.702987	99
Es	1.952574	1.548123	-1.650578	99
Es	-0.558904	0.114763	2.109752	99
Es	0.347762	-0.646320	1.853215	99
48
Properties=species:S:1:pos:R:3:Z:I:1 energy=-289.29198518380446 field_type=dipole dipole="0.000000 0.000000 0.000000" charge=0
C	-2.245450	-0.456472	0.063220	6
C	-0.756830	-0.442432	0.305080	6
C	-0.378740	-0.525503	1.761871	6
C	0.132241	-1.139863	-0.703040	6
C	0.094450	0.368208	-0.664009	6
C	1.290980	1.152358	-0.233049	6
N	2.118761	1.376477	-1.410179	7
H	-2.488950	-0.398542	-1.003209	1
H	-2.718930	0.395238	0.562810	1
H	-2.687600	-1.377582	0.457140	1
H	0.689920	-0.707902	1.908900	1
H	-0.916189	-1.346102	2.248620	1
H	-0.640740	0.406078	2.273690	1
H	-0.328630	-1.630352	-1.554039	1
H	1.024160	-1.645562	-0.348720	1
H	-0.431190	0.879318	-1.466760	1
H	1.881270	0.632448	0.527231	1
H	0.973140	2.114177	0.180750	1
H	2.424040	0.474387	-1.774059	1
H	2.964280	1.871627	-1.132249	1
Es	-0.748681	-1.089085	2.088688	99
Es	-0.367894	-0.976911	-0.141823	99
Es	0.692492	0.741886	-0.429136	99
Es	0.094427	0.368040	-0.663930	99
Es	2.314529	0.821737	-1.613992	99
Es	-2.544466	-1.090123	0.334668	99
Es	2.119068	1.376154	-1.409749	99
Es	-0.182849	-1.471135	-1.275969	99
Es	-2.565811	0.129658	0.406805	99
Es	-2.401581	-0.417046	-0.662112	99
Es	1.291043	1.152365	-0.233171	99
Es	-0.559001	0.114868	2.109724	99
Es	0.132200	-1.139720	-0.702984	99
Es	-1.502320	-0.449848	0.173605	99
Es	1.688416	0.785266	0.297270	99
Es	0.248392	-0.386559	-0.833938	99
Es	-0.391154	0.137325	-0.090179	99
Es	-0.756728	-0.442435	0.304970	99
Es	0.741292	-1.478235	-0.458721	99
Es	2.630735	1.670414	-1.233786	99
Es	-0.267100	0.707244	-1.205200	99
Es	1.072195	1.814671	0.054181	99
Es	-2.245435	-0.456470	0.063224	99
Es	1.952738	1.547552	-1.650758	99
Es	1.773955	1.273453	-0.887234	99
Es	-0.553043	-0.481776	1.032159	99
Es	0.347678	-0.646230	1.853160	99
Es	-0.378745	-0.525500	1.761851	99
48
Properties=species:S:1:pos:R:3:Z:I:1 energy=-289.29198518380446 field_type=dipole dipole="0.000000 0.000000 0.000000" charge=0
C	-2.245450	-0.456472	0.063220	6
C	-0.756830	-0.442432	0.305080	6
C	-0.378740	-0.525503	1.761871	6
C	0.132241	-1.139863	-0.703040	6
C	0.094450	0.368208	-0.664009	6
C	1.290980	1.152358	-0.233049	6
N	2.118761	1.376477	-1.410179	7
H	-2.488950	-0.398542	-1.003209	1
H	-2.718930	0.395238	0.562810	1
H	-2.687600	-1.377582	0.457140	1
H	0.689920	-0.707902	1.908900	1
H	-0.916189	-1.346102	2.248620	1
H	-0.640740	0.406078	2.273690	1
H	-0.328630	-1.630352	-1.554039	1
H	1.024160	-1.645562	-0.348720	1
H	-0.431190	0.879318	-1.466760	1
H	1.881270	0.632448	0.527231	1
H	0.973140	2.114177	0.180750	1
H	2.424040	0.474387	-1.774059	1
H	2.964280	1.871627	-1.132249	1
Es	2.118927	1.376301	-1.409914	99
Es	-1.502242	-0.449845	0.173579	99
Es	-0.368180	-0.977021	-0.141918	99
Es	1.291043	1.152365	-0.233172	99
Es	-0.552899	-0.481845	1.032144	99
Es	0.741441	-1.478508	-0.458724	99
Es	0.248459	-0.386548	-0.833895	99
Es	2.630481	1.671140	-1.234324	99
Es	0.132200	-1.139718	-0.702986	99
Es	-2.245435	-0.456470	0.063224	99
Es	-0.378745	-0.525499	1.761851	99
Es	1.072006	1.814621	0.054198	99
Es	-2.565753	0.129728	0.406860	99
Es	-2.401556	-0.417004	-0.662033	99
Es	1.953068	1.546561	-1.650039	99
Es	0.094423	0.368043	-0.663936	99
Es	-0.391143	0.137508	-0.090096	99
Es	-2.544463	-1.090200	0.334623	99
Es	-0.558945	0.114957	2.109648	99
Es	-0.267000	0.707353	-1.205287	99
Es	0.347503	-0.646193	1.853196	99
Es	-0.748779	-1.089221	2.088672	99
Es	-0.756730	-0.442436	0.304971	99
Es	-0.182796	-1.470837	-1.275875	99
Es	1.773831	1.273672	-0.887287	99
Es	0.692506	0.741683	-0.429057	99
Es	2.314751	0.821646	-1.614056	99
Es	1.688379	0.785329	0.297253	99
48
Properties=species:S:1:pos:R:3:Z:I:1 energy=-289.29198518380446 field_type=dipole dipole="0.000000 0.000000 0.000000" charge=0
C	-2.245450	-0.456472	0.063220	6
C	-0.756830	-0.442432	0.305080	6
C	-0.378740	-0.525503	1.761871	6
C	0.132241	-1.139863	-0.703040	6
C	0.094450	0.368208	-0.664009	6
C	1.290980	1.152358	-0.233049	6
N	2.118761	1.376477	-1.410179	7
H	-2.488950	-0.398542	-1.003209	1
H	-2.718930	0.395238	0.562810	1
H	-2.687600	-1.377582	0.457140	1
H	0.689920	-0.707902	1.908900	1
H	-0.916189	-1.346102	2.248620	1
H	-0.640740	0.406078	2.273690	1
H	-0.328630	-1.630352	-1.554039	1
H	1.024160	-1.645562	-0.348720	1
H	-0.431190	0.879318	-1.466760	1
H	1.881270	0.632448	0.527231	1
H	0.973140	2.114177	0.180750	1
H	2.424040	0.474387	-1.774059	1
H	2.964280	1.871627	-1.132249	1
Es	-0.368202	-0.977130	-0.141868	99
Es	-0.558788	0.115032	2.109658	99
Es	-2.565722	0.129765	0.406878	99
Es	1.291043	1.152365	-0.233170	99
Es	1.688295	0.785200	0.297241	99
Es	1.774020	1.273701	-0.887065	99
Es	-2.401521	-0.416992	-0.662019	99
Es	0.741456	-1.478664	-0.458890	99
Es	-0.266921	0.707207	-1.205237	99
Es	2.630090	1.671949	-1.235059	99
Es	1.952779	1.545842	-1.649829	99
Es	-0.182777	-1.470617	-1.275668	99
Es	0.132198	-1.139719	-0.702985	99
Es	-2.544463	-1.090228	0.334610	99
Es	-0.553138	-0.481847	1.032227	99
Es	-2.245434	-0.456470	0.063224	99
Es	0.692536	0.741876	-0.429181	99
Es	0.094428	0.368038	-0.663930	99
Es	0.248617	-0.386631	-0.834022	99
Es	-0.748684	-1.089332	2.088835	99
Es	2.119059	1.376169	-1.409761	99
Es	-1.502235	-0.449855	0.173534	99
Es	-0.756727	-0.442436	0.304969	99
Es	0.347400	-0.646143	1.852916	99
Es	-0.391279	0.137703	-0.089961	99
Es	-0.378745	-0.525499	1.761852	99
Es	2.315136	0.821639	-1.613921	99
Es	1.071937	1.814639	0.054244	99
48
Properties=species:S:1:pos:R:3:Z:I:1 energy=-289.29198518380446 field_type=dipole dipole="0.000000 0.000000 0.000000" charge=0
C	-2.245450	-0.456472	0.063220	6
C	-0.756830	-0.442432	0.305080	6
C	-0.378740	-0.525503	1.761871	6
C	0.132241	-1.139863	-0.703040	6
C	0.094450	0.368208	-0.664009	6
C	1.290980	1.152358	-0.233049	6
N	2.118761	1.376477	-1.410179	7
H	-2.488950	-0.398542	-1.003209	1
H	-2.718930	0.395238	0.562810	1
H	-2.687600	-1.377582	0.457140	1
H	0.689920	-0.707902	1.908900	1
H	-0.916189	-1.346102	2.248620	1
H	-0.640740	0.406078	2.273690	1
H	-0.328630	-1.630352	-1.554039	1
H	1.024160	-1.645562	-0.348720	1
H	-0.431190	0.879318	-1.466760	1
H	1.881270	0.632448	0.527231	1
H	0.973140	2.114177	0.180750	1
H	2.424040	0.474387	-1.774059	1
H	2.964280	1.871627	-1.132249	1
Es	0.741471	-1.478695	-0.458879	99
Es	-0.558888	0.115122	2.109627	99
Es	-0.266761	0.707329	-1.205295	99
Es	-0.368243	-0.977192	-0.142043	99
Es	-2.565648	0.129808	0.406772	99
Es	0.094421	0.368046	-0.663923	99
Es	2.119051	1.376173	-1.409762	99
Es	1.688293	0.785134	0.297218	99
Es	1.952745	1.544651	-1.649403	99
Es	-0.552910	-0.481935	1.032174	99
Es	-0.378745	-0.525500	1.761850	99
Es	-2.245434	-0.456470	0.063224	99
Es	-0.391494	0.137950	-0.089772	99
Es	1.291043	1.152366	-0.233171	99
Es	-1.502264	-0.449913	0.173644	99
Es	2.315494	0.821638	-1.613640	99
Es	1.071800	1.814627	0.054289	99
Es	0.692723	0.741730	-0.429109	99
Es	0.248530	-0.386682	-0.834078	99
Es	2.629805	1.673056	-1.235855	99
Es	-2.544578	-1.090300	0.334649	99
Es	0.347268	-0.646080	1.853011	99
Es	-0.748653	-1.089429	2.088760	99
Es	-2.401419	-0.416961	-0.661977	99
Es	0.132198	-1.139720	-0.702984	99
Es	-0.182648	-1.470519	-1.275570	99
Es	-0.756727	-0.442434	0.304970	99
Es	1.773922	1.273760	-0.887105	99
48
Properties=species:S:1:pos:R:3:Z:I:1 energy=-289.29198518380446 field_type=dipole dipole="0.000000 0.000000 0.000000" charge=0
C	-2.245450	-0.456472	0.063220	6
C	-0.756830	-0.442432	0.305080	6
C	-0.378740	-0.525503	1.761871	6
C	0.132241	-1.139863	-0.703040	6
C	0.094450	0.368208	-0.664009	6
C	1.290980	1.152358	-0.233049	6
N	2.118761	1.376477	-1.410179	7
H	-2.488950	-0.398542	-1.003209	1
H	-2.718930	0.395238	0.562810	1
H	-2.687600	-1.377582	0.457140	1
H	0.689920	-0.707902	1.908900	1
H	-0.916189	-1.346102	2.248620	1
H	-0.640740	0.406078	2.273690	1
H	-0.328630	-1.630352	-1.554039	1
H	1.024160	-1.645562	-0.348720	1
H	-0.431190	0.879318	-1.466760	1
H	1.881270	0.632448	0.527231	1
H	0.973140	2.114177	0.180750	1
H	2.424040	0.474387	-1.774059	1
H	2.964280	1.871627	-1.132249	1
Es	2.315361	0.821579	-1.613996	99
Es	0.132199	-1.139719	-0.702985	99
Es	-0.391311	0.137950	-0.089634	99
Es	-0.368501	-0.977382	-0.141899	99
Es	-2.565657	0.129958	0.406785	99
Es	-0.182536	-1.470441	-1.275407	99
Es	0.094425	0.368039	-0.663930	99
Es	-0.378744	-0.525499	1.761853	99
Es	-0.558861	0.115150	2.109545	99
Es	-0.266826	0.707325	-1.205161	99
Es	2.629783	1.671930	-1.235188	99
Es	1.953203	1.545625	-1.649626	99
Es	1.071803	1.814636	0.054342	99
Es	0.248876	-0.386529	-0.834427	99
Es	0.692538	0.741619	-0.429222	99
Es	-0.756728	-0.442435	0.304971	99
Es	0.347264	-0.646065	1.852984	99
Es	2.119059	1.376176	-1.409776	99
Es	-0.748749	-1.089496	2.088758	99
Es	1.773716	1.273962	-0.887131	99
Es	-1.502315	-0.449831	0.173482	99
Es	-2.245435	-0.456470	0.063225	99
Es	1.688210	0.785260	0.297125	99
Es	-2.401353	-0.416991	-0.661797	99
Es	-0.552929	-0.482008	1.032241	99
Es	0.741309	-1.478709	-0.458946	99
Es	-2.544490	-1.090438	0.334607	99
Es	1.291043	1.152366	-0.233173	99
48
Properties=species:S:1:pos:R:3:Z:I:1 energy=-289.29198518380446 field_type=dipole dipole="0.000000 0.000000 0.000000" charge=0
C	-2.245450	-0.456472	0.063220	6
C	-0.756830	-0.442432	0.305080	6
C	-0.378740	-0.525503	1.761871	6
C	0.132241	-1.139863	-0.703040	6
C	0.094450	0.368208	-0.664009	6
C	1.290980	1.152358	-0.233049	6
N	2.118761	1.376477	-1.410179	7
H	-2.488950	-0.398542	-1.003209	1
H	-2.718930	0.395238	0.562810	1
H	-2.687600	-1.377582	0.457140	1
H	0.689920	-0.707902	1.908900	1
H	-0.916189	-1.346102	2.248620	1
H	-0.640740	0.406078	2.273690	1
H	-0.328630	-1.630352	-1.554039	1
H	1.024160	-1.645562	-0.348720	1
H	-0.431190	0.879318	-1.466760	1
H	1.881270	0.632448	0.527231	1
H	0.973140	2.114177	0.180750	1
H	2.424040	0.474387	-1.774059	1
H	2.964280	1.871627	-1.132249	1
Es	0.248902	-0.386449	-0.834569	99
Es	-2.245435	-0.456470	0.063224	99
Es	-0.558965	0.115275	2.109399	99
Es	-0.748731	-1.089483	2.088789	99
Es	1.291042	1.152365	-0.233172	99
Es	-0.391334	0.138014	-0.089831	99
Es	2.119070	1.376150	-1.409767	99
Es	0.347235	-0.646032	1.853048	99
Es	2.315444	0.821527	-1.614009	99
Es	-2.544480	-1.090446	0.334483	99
Es	-0.756728	-0.442434	0.304970	99
Es	-0.368560	-0.977519	-0.141657	99
Es	-1.502322	-0.449925	0.173546	99
Es	1.773776	1.274086	-0.887033	99
Es	0.741422	-1.478738	-0.459051	99
Es	-0.266665	0.707377	-1.205205	99
Es	-0.552921	-0.482124	1.032319	99
Es	-2.565708	0.129944	0.406873	99
Es	0.094421	0.368046	-0.663925	99
Es	1.071924	1.814646	0.054439	99
Es	0.692336	0.741746	-0.429213	99
Es	1.688092	0.785044	0.297086	99
Es	-0.182548	-1.470386	-1.275188	99
Es	0.132199	-1.139718	-0.702985	99
Es	2.629594	1.672455	-1.235717	99
Es	1.953258	1.545043	-1.649207	99
Es	-2.401219	-0.416930	-0.661875	99
Es	-0.378745	-0.525499	1.761851	99
48
Properties=species:S:1:pos:R:3:Z:I:1 energy=-289.29198518380446 field_type=dipole dipole="0.000000 0.000000 0.000000" charge=0
C	-2.245450	-0.456472	0.063220	6
C	-0.756830	-0.442432	0.305080	6
C	-0.378740	-0.525503	1.761871	6
C	0.132241	-1.139863	-0.703040	6
C	0.094450	0.368208	-0.664009	6
C	1.290980	1.152358	-0.233049	6
N	2.118761	1.376477	-1.410179	7
H	-2.488950	-0.398542	-1.003209	1
H	-2.718930	0.395238	0.562810	1
H	-2.687600	-1.377582	0.457140	1
H	0.689920	-0.707902	1.908900	1
H	-0.916189	-1.346102	2.248620	1
H	-0.640740	0.406078	2.273690	1
H	-0.328630	-1.630352	-1.554039	1
H	1.024160	-1.645562	-0.348720	1
H	-0.431190	0.879318	-1.466760	1
H	1.881270	0.632448	0.527231	1
H	0.973140	2.114177	0.180750	1
H	2.424040	0.474387	-1.774059	1
H	2.964280	1.871627	-1.132249	1
Es	2.119042	1.376181	-1.409758	99
Es	-0.182551	-1.470198	-1.275184	99
Es	-0.558873	0.115193	2.109500	99
Es	0.347234	-0.646024	1.852944	99
Es	1.953380	1.544691	-1.649100	99
Es	-0.756731	-0.442428	0.304974	99
Es	-0.378745	-0.525500	1.761851	99
Es	0.741415	-1.478823	-0.459222	99
Es	-2.565674	0.130119	0.406782	99
Es	1.291043	1.152366	-0.233172	99
Es	1.071735	1.814602	0.054399	99
Es	-0.552971	-0.481922	1.032235	99
Es	2.315603	0.821547	-1.613989	99
Es	-2.245434	-0.456470	0.063218	99
Es	-0.748753	-1.089562	2.088761	99
Es	-0.391277	0.138058	-0.089672	99
Es	-0.368605	-0.977735	-0.141582	99
Es	-2.544430	-1.090634	0.334531	99
Es	1.688093	0.785044	0.297145	99
Es	2.629478	1.672708	-1.235865	99
Es	0.094427	0.368041	-0.663933	99
Es	1.773651	1.274152	-0.887072	99
Es	-0.266717	0.707412	-1.205185	99
Es	0.692527	0.741690	-0.429298	99
Es	-1.502519	-0.449802	0.173513	99
Es	0.248900	-0.386450	-0.834514	99
Es	0.132200	-1.139719	-0.702987	99
Es	-2.401097	-0.416976	-0.661700	99
48
Properties=species:S:1:pos:R:3:Z:I:1 energy=-289.29198518380446 field_type=dipole dipole="0.000000 0.000000 0.000000" charge=0
C	-2.245450	-0.456472	0.063220	6
C	-0.756830	-0.442432	0.305080	6
C	-0.378740	-0.525503	1.761871	6
C	0.132241	-1.139863	-0.703040	6
C	0.094450	0.368208	-0.664009	6
C	1.290980	1.152358	-0.233049	6
N	2.118761	1.376477	-1.410179	7
H	-2.488950	-0.398542	-1.003209	1
H	-2.718930	0.395238	0.562810	1
H	-2.687600	-1.377582	0.457140	1
H	0.689920	-0.707902	1.908900	1
H	-0.916189	-1.346102	2.248620	1
H	-0.640740	0.406078	2.273690	1
H	-0.328630	-1.630352	-1.554039	1
H	1.024160	-1.645562	-0.348720	1
H	-0.431190	0.879318	-1.466760	1
H	1.881270	0.632448	0.527231	1
H	0.973140	2.114177	0.180750	1
H	2.424040	0.474387	-1.774059	1
H	2.964280	1.871627	-1.132249	1
Es	-1.502537	-0.449830	0.173550	99
Es	-2.565629	0.130121	0.406745	99
Es	-0.756729	-0.442439	0.304972	99
Es	2.315695	0.821542	-1.613832	99
Es	-0.368682	-0.977816	-0.141761	99
Es	1.953551	1.544901	-1.649393	99
Es	1.291043	1.152366	-0.233172	99
Es	1.071680	1.814665	0.054493	99
Es	2.119079	1.376150	-1.409729	99
Es	-0.558891	0.115257	2.109468	99
Es	2.629402	1.672399	-1.235706	99
Es	0.132204	-1.139720	-0.702987	99
Es	0.347131	-0.645905	1.852847	99
Es	-0.391480	0.138109	-0.089536	99
Es	0.094428	0.368039	-0.663933	99
Es	-2.401134	-0.417049	-0.661808	99
Es	0.249080	-0.386338	-0.834891	99
Es	-0.378745	-0.525500	1.761851	99
Es	-0.266643	0.707369	-1.205030	99
Es	-0.182361	-1.470163	-1.274985	99
Es	-2.544399	-1.090575	0.334670	99
Es	0.692569	0.741693	-0.429254	99
Es	1.688040	0.785075	0.297018	99
Es	0.741299	-1.478844	-0.459128	99
Es	-0.552975	-0.482028	1.032223	99
Es	-2.245435	-0.456470	0.063224	99
Es	-0.748644	-1.089688	2.088831	99
Es	1.773436	1.274240	-0.887129	99
48
Properties=species:S:1:pos:R:3:Z:I:1 energy=-289.29198518380446 field_type=dipole dipole="0.000000 0.000000 0.000000" charge=0
C	-2.245450	-0.456472	0.063220	6
C	-0.756830	-0.442432	0.305080	6
C	-0.378740	-0.525503	1.761871	6
C	0.132241	-1.139863	-0.703040	6
C	0.094450	0.368208	-0.664009	6
C	1.290980	1.152358	-0.233049	6
N	2.118761	1.376477	-1.410179	7
H	-2.488950	-0.398542	-1.003209	1
H	-2.718930	0.395238	0.562810	1
H	-2.687600	-1.377582	0.457140	1
H	0.689920	-0.707902	1.908900	1
H	-0.916189	-1.346102	2.248620	1
H	-0.640740	0.406078	2.273690	1
H	-0.328630	-1.630352	-1.554039	1
H	1.024160	-1.645562	-0.348720	1
H	-0.431190	0.879318	-1.466760	1
H	1.881270	0.632448	0.527231	1
H	0.973140	2.114177	0.180750	1
H	2.424040	0.474387	-1.774059	1
H	2.964280	1.871627	-1.132249	1
Es	1.773354	1.274197	-0.887092	99
Es	1.291042	1.152365	-0.233171	99
Es	-0.756728	-0.442435	0.304970	99
Es	0.741383	-1.478832	-0.459318	99
Es	-0.552885	-0.482258	1.032305	99
Es	-0.558803	0.115330	2.109397	99
Es	-1.502504	-0.449619	0.173513	99
Es	2.629306	1.672649	-1.235900	99
Es	0.249102	-0.386383	-0.834915	99
Es	-2.245435	-0.456470	0.063224	99
Es	-0.391445	0.138285	-0.089372	99
Es	2.315708	0.821597	-1.614109	99
Es	-2.401138	-0.417066	-0.661687	99
Es	-0.368664	-0.977791	-0.141802	99
Es	1.071679	1.814674	0.054499	99
Es	1.953707	1.544645	-1.648944	99
Es	-0.748719	-1.089715	2.088873	99
Es	0.094426	0.368040	-0.663929	99
Es	2.119087	1.376135	-1.409740	99
Es	-0.378745	-0.525500	1.761851	99
Es	-2.565704	0.130138	0.406700	99
Es	-0.182474	-1.470162	-1.274817	99
Es	-2.544308	-1.090681	0.334677	99
Es	0.132199	-1.139719	-0.702984	99
Es	-0.266604	0.707384	-1.205140	99
Es	0.692427	0.741652	-0.429302	99
Es	0.347064	-0.645934	1.852810	99
Es	1.688024	0.785034	0.297022	99
