46
Properties=species:S:1:pos:R:3:Z:I:1 energy=-325.1273077844109 field_type=dipole dipole="0.000000 0.000000 0.000000" charge=0
N	-2.690254	-1.274961	-0.269964	7
C	-1.239654	-1.161281	-0.351824	6
C	-0.723504	-0.128071	0.647016	6
C	0.794176	-0.039470	0.566406	6
C	1.403456	0.677520	-0.648124	6
C	2.099146	1.552739	0.388976	6
O	1.297256	0.995379	1.456366	8
H	-3.024594	-1.922421	-0.982354	1
H	-3.122024	-0.374210	-0.473624	1
H	-0.954774	-0.882390	-1.372074	1
H	-0.791744	-2.139631	-0.145934	1
H	-1.017354	-0.417630	1.663766	1
H	-1.175114	0.852179	0.448426	1
H	1.282396	-0.994321	0.800976	1
H	0.694056	1.214289	-1.284394	1
H	2.068506	0.067469	-1.263944	1
H	3.162396	1.346649	0.542626	1
H	1.937626	2.628159	0.277676	1
Es	2.099009	1.552635	0.389111	99
Es	-2.791964	-1.383635	0.050442	99
Es	-2.690099	-1.274784	-0.270509	99
Es	1.104092	0.588318	1.144560	99
Es	0.031462	-0.087111	0.598449	99
Es	-0.979526	-0.642454	0.145319	99
Es	2.832476	1.408878	0.487207	99
Es	1.474591	0.877346	1.683790	99
Es	1.856601	0.260675	-1.072808	99
Es	1.993087	2.293598	0.310261	99
Es	1.297311	0.995304	1.456060	99
Es	1.797093	1.150838	-0.204205	99
Es	0.914531	1.042705	-1.076951	99
Es	-2.063453	-1.216760	-0.330758	99
Es	-1.029181	0.541991	0.498636	99
Es	-2.880317	-1.655476	-0.718675	99
Es	1.060915	0.263152	-0.110581	99
Es	-0.723481	-0.128097	0.646973	99
Es	-0.930146	-1.832243	-0.210097	99
Es	1.061453	1.189897	1.494276	99
Es	-2.935058	-0.726324	-0.415386	99
Es	-1.239784	-1.161266	-0.351797	99
Es	1.621152	1.223612	1.072425	99
Es	-0.916529	-0.328373	1.333920	99
Es	1.403464	0.677522	-0.648089	99
Es	0.794243	-0.039290	0.566510	99
Es	1.125313	-0.703030	0.719520	99
Es	-1.030743	-0.962375	-1.058498	99
46
Properties=species:S:1:pos:R:3:Z:I:1 energy=-325.1273077844109 field_type=dipole dipole="0.000000 0.000000 0.000000" charge=0
N	-2.690254	-1.274961	-0.269964	7
C	-1.239654	-1.161281	-0.351824	6
C	-0.723504	-0.128071	0.647016	6
C	0.794176	-0.039470	0.566406	6
C	1.403456	0.677520	-0.648124	6
C	2.099146	1.552739	0.388976	6
O	1.297256	0.995379	1.456366	8
H	-3.024594	-1.922421	-0.982354	1
H	-3.122024	-0.374210	-0.473624	1
H	-0.954774	-0.882390	-1.372074	1
H	-0.791744	-2.139631	-0.145934	1
H	-1.017354	-0.417630	1.663766	1
H	-1.175114	0.852179	0.448426	1
H	1.282396	-0.994321	0.800976	1
H	0.694056	1.214289	-1.284394	1
H	2.068506	0.067469	-1.263944	1
H	3.162396	1.346649	0.542626	1
H	1.937626	2.628159	0.277676	1
Es	-2.690106	-1.274796	-0.270480	99
Es	2.832053	1.408629	0.487230	99
Es	-2.880739	-1.656370	-0.718245	99
Es	0.031458	-0.087208	0.598563	99
Es	2.099007	1.552636	0.389112	99
Es	-1.030964	-0.962350	-1.058316	99
Es	1.480051	0.873168	1.673853	99
Es	-2.936048	-0.725362	-0.414194	99
Es	-1.239785	-1.161266	-0.351797	99
Es	1.617523	1.226556	1.071035	99
Es	-2.063768	-1.216689	-0.331303	99
Es	1.297281	0.995362	1.456224	99
Es	-0.979532	-0.642414	0.145197	99
Es	-0.929986	-1.832584	-0.210097	99
Es	-0.916311	-0.328419	1.333782	99
Es	1.060478	0.263311	-0.110545	99
Es	0.914747	1.042609	-1.076693	99
Es	1.797219	1.150753	-0.204087	99
Es	1.403464	0.677523	-0.648090	99
Es	-0.723480	-0.128096	0.646971	99
Es	-1.029256	0.542329	0.498665	99
Es	1.993248	2.294116	0.310163	99
Es	1.101439	0.589533	1.143711	99
Es	1.856700	0.260627	-1.073069	99
Es	1.125444	-0.703255	0.719511	99
Es	0.794242	-0.039290	0.566511	99
Es	1.062187	1.189884	1.506217	99
Es	-2.790054	-1.383686	0.049273	99
46
Properties=species:S:1:pos:R:3:Z:I:1 energy=-325.1273077844109 field_type=dipole dipole="0.000000 0.000000 0.000000" charge=0
N	-2.690254	-1.274961	-0.269964	7
C	-1.239654	-1.161281	-0.351824	6
C	-0.723504	-0.128071	0.647016	6
C	0.794176	-0.039470	0.566406	6
C	1.403456	0.677520	-0.648124	6
C	2.099146	1.552739	0.388976	6
O	1.297256	0.995379	1.456366	8
H	-3.024594	-1.922421	-0.982354	1
H	-3.122024	-0.374210	-0.473624	1
H	-0.954774	-0.882390	-1.372074	1
H	-0.791744	-2.139631	-0.145934	1
H	-1.017354	-0.417630	1.663766	1
H	-1.175114	0.852179	0.448426	1
H	1.282396	-0.994321	0.800976	1
H	0.694056	1.214289	-1.284394	1
H	2.068506	0.067469	-1.263944	1
H	3.162396	1.346649	0.542626	1
H	1.937626	2.628159	0.277676	1
Es	0.031401	-0.087138	0.598603	99
Es	1.125369	-0.703433	0.719567	99
Es	-2.789552	-1.383780	0.048437	99
Es	1.797333	1.150706	-0.204010	99
Es	-0.979520	-0.642431	0.145187	99
Es	-1.029233	0.542526	0.498679	99
Es	0.914881	1.042594	-1.076573	99
Es	-1.031088	-0.962239	-1.058281	99
Es	-0.929967	-1.832789	-0.210168	99
Es	-0.916196	-0.328490	1.333786	99
Es	-0.723481	-0.128097	0.646972	99
Es	1.478082	0.875015	1.674245	99
Es	0.794243	-0.039287	0.566510	99
Es	2.099010	1.552630	0.389115	99
Es	1.993364	2.294483	0.310097	99
Es	-2.880638	-1.656716	-0.718166	99
Es	1.297329	0.995289	1.456004	99
Es	-2.063758	-1.216751	-0.330977	99
Es	-2.936503	-0.724843	-0.413755	99
Es	1.619039	1.225755	1.071622	99
Es	1.403464	0.677523	-0.648089	99
Es	1.102889	0.588034	1.144287	99
Es	-1.239784	-1.161267	-0.351797	99
Es	1.856696	0.260619	-1.073189	99
Es	2.831735	1.408441	0.487073	99
Es	1.060287	0.263329	-0.110503	99
Es	-2.690087	-1.274773	-0.270499	99
Es	1.061199	1.190341	1.504927	99
46
Properties=species:S:1:pos:R:3:Z:I:1 energy=-325.1273077844109 field_type=dipole dipole="0.000000 0.000000 0.000000" charge=0
N	-2.690254	-1.274961	-0.269964	7
C	-1.239654	-1.161281	-0.351824	6
C	-0.723504	-0.128071	0.647016	6
C	0.794176	-0.039470	0.566406	6
C	1.403456	0.677520	-0.648124	6
C	2.099146	1.552739	0.388976	6
O	1.297256	0.995379	1.456366	8
H	-3.024594	-1.922421	-0.982354	1
H	-3.122024	-0.374210	-0.473624	1
H	-0.954774	-0.882390	-1.372074	1
H	-0.791744	-2.139631	-0.145934	1
H	-1.017354	-0.417630	1.663766	1
H	-1.175114	0.852179	0.448426	1
H	1.282396	-0.994321	0.800976	1
H	0.694056	1.214289	-1.284394	1
H	2.068506	0.067469	-1.263944	1
H	3.162396	1.346649	0.542626	1
H	1.937626	2.628159	0.277676	1
Es	1.797415	1.150567	-0.204021	99
Es	-0.723480	-0.128097	0.646972	99
Es	0.031324	-0.087118	0.598602	99
Es	1.061086	1.189988	1.508951	99
Es	-2.064258	-1.216639	-0.331659	99
Es	1.479537	0.874564	1.670468	99
Es	1.403465	0.677523	-0.648089	99
Es	-2.690111	-1.274811	-0.270395	99
Es	-0.929859	-1.833015	-0.209967	99
Es	1.856734	0.260587	-1.073376	99
Es	-1.029319	0.542777	0.498543	99
Es	0.794242	-0.039291	0.566508	99
Es	2.099008	1.552631	0.389113	99
Es	-1.239785	-1.161267	-0.351796	99
Es	1.297301	0.995313	1.456088	99
Es	-2.936339	-0.724670	-0.414469	99
Es	1.102782	0.587556	1.144604	99
Es	1.993393	2.294660	0.310016	99
Es	-0.979488	-0.642401	0.145077	99
Es	-0.916035	-0.328479	1.333762	99
Es	1.125344	-0.703614	0.719570	99
Es	2.831551	1.408424	0.487156	99
Es	-1.031200	-0.962337	-1.058219	99
Es	0.915001	1.042574	-1.076392	99
Es	1.060090	0.263414	-0.110436	99
Es	-2.789057	-1.383400	0.049212	99
Es	1.617827	1.227030	1.070952	99
Es	-2.880658	-1.657221	-0.717671	99
46
Properties=species:S:1:pos:R:3:Z:I:1 energy=-325.1273077844109 field_type=dipole dipole="0.000000 0.000000 0.000000" charge=0
N	-2.690254	-1.274961	-0.269964	7
C	-1.239654	-1.161281	-0.351824	6
C	-0.723504	-0.128071	0.647016	6
C	0.794176	-0.039470	0.566406	6
C	1.403456	0.677520	-0.648124	6
C	2.099146	1.552739	0.388976	6
O	1.297256	0.995379	1.456366	8
H	-3.024594	-1.922421	-0.982354	1
H	-3.122024	-0.374210	-0.473624	1
H	-0.954774	-0.882390	-1.372074	1
H	-0.791744	-2.139631	-0.145934	1
H	-1.017354	-0.417630	1.663766	1
H	-1.175114	0.852179	0.448426	1
H	1.282396	-0.994321	0.800976	1
H	0.694056	1.214289	-1.284394	1
H	2.068506	0.067469	-1.263944	1
H	3.162396	1.346649	0.542626	1
H	1.937626	2.628159	0.277676	1
Es	-0.915922	-0.328582	1.333750	99
Es	1.797322	1.150671	-0.203890	99
Es	1.125403	-0.703673	0.719617	99
Es	-1.029257	0.543009	0.498601	99
Es	1.403464	0.677523	-0.648089	99
Es	-2.064406	-1.216578	-0.332229	99
Es	-2.936554	-0.724509	-0.414057	99
Es	-2.881071	-1.657656	-0.717424	99
Es	-0.979539	-0.642493	0.145149	99
Es	-0.723481	-0.128097	0.646972	99
Es	-2.690097	-1.274767	-0.270496	99
Es	0.794242	-0.039289	0.566511	99
Es	1.059885	0.263372	-0.110396	99
Es	1.060304	1.190235	1.505590	99
Es	1.297366	0.995261	1.456042	99
Es	-1.031251	-0.962107	-1.058195	99
Es	2.099008	1.552631	0.389114	99
Es	1.477034	0.876186	1.672735	99
Es	-0.929833	-1.833126	-0.210116	99
Es	-1.239787	-1.161266	-0.351796	99
Es	-2.788184	-1.383263	0.049214	99
Es	1.856826	0.260619	-1.073385	99
Es	1.993494	2.294937	0.310025	99
Es	0.915175	1.042489	-1.076385	99
Es	1.103997	0.586773	1.145022	99
Es	1.619863	1.225970	1.071636	99
Es	0.031151	-0.087234	0.598602	99
Es	2.831359	1.408215	0.486981	99
46
Properties=species:S:1:pos:R:3:Z:I:1 energy=-325.1273077844109 field_type=dipole dipole="0.000000 0.000000 0.000000" charge=0
N	-2.690254	-1.274961	-0.269964	7
C	-1.239654	-1.161281	-0.351824	6
C	-0.723504	-0.128071	0.647016	6
C	0.794176	-0.039470	0.566406	6
C	1.403456	0.677520	-0.648124	6
C	2.099146	1.552739	0.388976	6
O	1.297256	0.995379	1.456366	8
H	-3.024594	-1.922421	-0.982354	1
H	-3.122024	-0.374210	-0.473624	1
H	-0.954774	-0.882390	-1.372074	1
H	-0.791744	-2.139631	-0.145934	1
H	-1.017354	-0.417630	1.663766	1
H	-1.175114	0.852179	0.448426	1
H	1.282396	-0.994321	0.800976	1
H	0.694056	1.214289	-1.284394	1
H	2.068506	0.067469	-1.263944	1
H	3.162396	1.346649	0.542626	1
H	1.937626	2.628159	0.277676	1
Es	-0.723480	-0.128097	0.646971	99
Es	-2.936908	-0.724266	-0.413629	99
Es	-0.929808	-1.833254	-0.210079	99
Es	1.620450	1.225312	1.071878	99
Es	-0.915879	-0.328609	1.333681	99
Es	1.475078	0.879385	1.676098	99
Es	1.993409	2.295052	0.309868	99
Es	2.099009	1.552632	0.389113	99
Es	1.403465	0.677524	-0.648090	99
Es	1.059733	1.189760	1.500942	99
Es	-2.064535	-1.216434	-0.332512	99
Es	1.105782	0.584780	1.146077	99
Es	-2.787675	-1.383533	0.049017	99
Es	1.297473	0.995171	1.456035	99
Es	-1.031337	-0.962194	-1.058116	99
Es	-2.690086	-1.274775	-0.270502	99
Es	1.059719	0.263371	-0.110375	99
Es	-0.979447	-0.642404	0.145126	99
Es	-1.239786	-1.161266	-0.351797	99
Es	0.794242	-0.039289	0.566507	99
Es	2.831243	1.408295	0.487071	99
Es	1.797571	1.150463	-0.203883	99
Es	1.856792	0.260647	-1.073430	99
Es	-1.029410	0.543022	0.498583	99
Es	0.031292	-0.087113	0.598654	99
Es	-2.881045	-1.657700	-0.717393	99
Es	0.915307	1.042526	-1.076344	99
Es	1.125342	-0.703754	0.719634	99
46
Properties=species:S:1:pos:R:3:Z:I:1 energy=-325.1273077844109 field_type=dipole dipole="0.000000 0.000000 0.000000" charge=0
N	-2.690254	-1.274961	-0.269964	7
C	-1.239654	-1.161281	-0.351824	6
C	-0.723504	-0.128071	0.647016	6
C	0.794176	-0.039470	0.566406	6
C	1.403456	0.677520	-0.648124	6
C	2.099146	1.552739	0.388976	6
O	1.297256	0.995379	1.456366	8
H	-3.024594	-1.922421	-0.982354	1
H	-3.122024	-0.374210	-0.473624	1
H	-0.954774	-0.882390	-1.372074	1
H	-0.791744	-2.139631	-0.145934	1
H	-1.017354	-0.417630	1.663766	1
H	-1.175114	0.852179	0.448426	1
H	1.282396	-0.994321	0.800976	1
H	0.694056	1.214289	-1.284394	1
H	2.068506	0.067469	-1.263944	1
H	3.162396	1.346649	0.542626	1
H	1.937626	2.628159	0.277676	1
Es	-0.915833	-0.328637	1.333734	99
Es	1.619938	1.226102	1.072119	99
Es	-1.239784	-1.161266	-0.351797	99
Es	1.403464	0.677522	-0.648089	99
Es	1.797620	1.150452	-0.203847	99
Es	1.856769	0.260689	-1.073474	99
Es	-0.929802	-1.833324	-0.209983	99
Es	-2.881066	-1.657729	-0.717242	99
Es	-1.031343	-0.962205	-1.058141	99
Es	2.831034	1.408205	0.487043	99
Es	-1.029342	0.543158	0.498529	99
Es	-2.064457	-1.216321	-0.332633	99
Es	-2.937028	-0.724286	-0.413646	99
Es	0.031220	-0.087170	0.598660	99
Es	-0.723482	-0.128096	0.646974	99
Es	0.794242	-0.039290	0.566510	99
Es	2.099008	1.552635	0.389112	99
Es	1.105161	0.585181	1.145309	99
Es	1.059840	1.189982	1.504697	99
Es	1.059624	0.263358	-0.110426	99
Es	1.476211	0.877911	1.672911	99
Es	-0.979427	-0.642416	0.145032	99
Es	0.915330	1.042499	-1.076301	99
Es	1.125372	-0.703859	0.719680	99
Es	-2.690089	-1.274777	-0.270502	99
Es	1.993571	2.295181	0.309855	99
Es	-2.787574	-1.383520	0.049022	99
Es	1.297337	0.995273	1.455998	99
46
Properties=species:S:1:pos:R:3:Z:I:1 energy=-325.1273077844109 field_type=dipole dipole="0.000000 0.000000 0.000000" charge=0
N	-2.690254	-1.274961	-0.269964	7
C	-1.239654	-1.161281	-0.351824	6
C	-0.723504	-0.128071	0.647016	6
C	0.794176	-0.039470	0.566406	6
C	1.403456	0.677520	-0.648124	6
C	2.099146	1.552739	0.388976	6
O	1.297256	0.995379	1.456366	8
H	-3.024594	-1.922421	-0.982354	1
H	-3.122024	-0.374210	-0.473624	1
H	-0.954774	-0.882390	-1.372074	1
H	-0.791744	-2.139631	-0.145934	1
H	-1.017354	-0.417630	1.663766	1
H	-1.175114	0.852179	0.448426	1
H	1.282396	-0.994321	0.800976	1
H	0.694056	1.214289	-1.284394	1
H	2.068506	0.067469	-1.263944	1
H	3.162396	1.346649	0.542626	1
H	1.937626	2.628159	0.277676	1
Es	0.794242	-0.039289	0.566511	99
Es	-0.915756	-0.328630	1.333659	99
Es	1.993562	2.295248	0.309853	99
Es	1.059510	0.263349	-0.110423	99
Es	0.915445	1.042488	-1.076240	99
Es	1.125353	-0.703869	0.719675	99
Es	1.797605	1.150448	-0.203835	99
Es	1.476894	0.877596	1.671291	99
Es	1.403465	0.677523	-0.648089	99
Es	1.059969	1.189739	1.506501	99
Es	-2.064679	-1.216268	-0.332762	99
Es	1.619392	1.226637	1.071538	99
Es	-2.881009	-1.657887	-0.717325	99
Es	-0.929738	-1.833388	-0.210073	99
Es	2.830994	1.408196	0.487071	99
Es	1.104890	0.585130	1.145617	99
Es	0.031165	-0.087236	0.598699	99
Es	-1.239785	-1.161266	-0.351797	99
Es	-1.029364	0.543295	0.498520	99
Es	-0.723480	-0.128097	0.646972	99
Es	1.297324	0.995307	1.456045	99
Es	-2.690074	-1.274770	-0.270506	99
Es	-2.937146	-0.724150	-0.413448	99
Es	2.099009	1.552635	0.389113	99
Es	-0.979499	-0.642481	0.145154	99
Es	-2.787236	-1.383622	0.049015	99
Es	1.856860	0.260693	-1.073535	99
Es	-1.031402	-0.962076	-1.058096	99
46
Properties=species:S:1:pos:R:3:Z:I:1 energy=-325.1273077844109 field_type=dipole dipole="0.000000 0.000000 0.000000" charge=0
N	-2.690254	-1.274961	-0.269964	7
C	-1.239654	-1.161281	-0.351824	6
C	-0.723504	-0.128071	0.647016	6
C	0.794176	-0.039470	0.566406	6
C	1.403456	0.677520	-0.648124	6
C	2.099146	1.552739	0.388976	6
O	1.297256	0.995379	1.456366	8
H	-3.024594	-1.922421	-0.982354	1
H	-3.122024	-0.374210	-0.473624	1
H	-0.954774	-0.882390	-1.372074	1
H	-0.791744	-2.139631	-0.145934	1
H	-1.017354	-0.417630	1.663766	1
H	-1.175114	0.852179	0.448426	1
H	1.282396	-0.994321	0.800976	1
H	0.694056	1.214289	-1.284394	1
H	2.068506	0.067469	-1.263944	1
H	3.162396	1.346649	0.542626	1
H	1.937626	2.628159	0.277676	1
Es	1.297308	0.995304	1.456008	99
Es	-2.064563	-1.216591	-0.332242	99
Es	0.794242	-0.039290	0.566510	99
Es	-0.723481	-0.128097	0.646972	99
Es	-2.787309	-1.382799	0.048632	99
Es	-2.881189	-1.658521	-0.716861	99
Es	0.915516	1.042285	-1.076162	99
Es	-2.690095	-1.274775	-0.270505	99
Es	1.856860	0.260582	-1.073599	99
Es	-1.031444	-0.962103	-1.058116	99
Es	1.619590	1.226406	1.071326	99
Es	2.830906	1.408214	0.487116	99
Es	-0.915774	-0.328664	1.333674	99
Es	1.105494	0.584872	1.146053	99
Es	1.125340	-0.703911	0.719687	99
Es	1.476459	0.878242	1.672348	99
Es	-2.936930	-0.723966	-0.414019	99
Es	2.099008	1.552633	0.389113	99
Es	1.059447	0.263482	-0.110186	99
Es	-1.239787	-1.161265	-0.351797	99
Es	-0.979388	-0.642461	0.145125	99
Es	1.403465	0.677523	-0.648090	99
Es	1.993568	2.295320	0.309860	99
Es	0.031125	-0.087235	0.598749	99
Es	-1.029343	0.543356	0.498477	99
Es	1.797651	1.150602	-0.204108	99
Es	-0.929774	-1.833440	-0.210071	99
Es	1.059611	1.189547	1.505209	99
46
Properties=species:S:1:pos:R:3:Z:I:1 energy=-325.1273077844109 field_type=dipole dipole="0.000000 0.000000 0.000000" charge=0
N	-2.690254	-1.274961	-0.269964	7
C	-1.239654	-1.161281	-0.351824	6
C	-0.723504	-0.128071	0.647016	6
C	0.794176	-0.039470	0.566406	6
C	1.403456	0.677520	-0.648124	6
C	2.099146	1.552739	0.388976	6
O	1.297256	0.995379	1.456366	8
H	-3.024594	-1.922421	-0.982354	1
H	-3.122024	-0.374210	-0.473624	1
H	-0.954774	-0.882390	-1.372074	1
H	-0.791744	-2.139631	-0.145934	1
H	-1.017354	-0.417630	1.663766	1
H	-1.175114	0.852179	0.448426	1
H	1.282396	-0.994321	0.800976	1
H	0.694056	1.214289	-1.284394	1
H	2.068506	0.067469	-1.263944	1
H	3.162396	1.346649	0.542626	1
H	1.937626	2.628159	0.277676	1
Es	2.830876	1.408183	0.487044	99
Es	1.297288	0.995311	1.456132	99
Es	-0.929782	-1.833486	-0.209999	99
Es	-1.029376	0.543423	0.498514	99
Es	1.856728	0.260687	-1.073565	99
Es	-2.787351	-1.383174	0.048946	99
Es	0.915468	1.042369	-1.076201	99
Es	0.031150	-0.087205	0.598653	99
Es	-0.979447	-0.642442	0.145117	99
Es	1.125321	-0.703998	0.719731	99
Es	-1.239785	-1.161266	-0.351797	99
Es	-1.031394	-0.962115	-1.058096	99
Es	1.104216	0.585553	1.145459	99
Es	1.403464	0.677523	-0.648089	99
Es	1.059465	0.263386	-0.110274	99
Es	-2.936770	-0.723885	-0.413883	99
Es	-0.723481	-0.128097	0.646972	99
Es	0.794242	-0.039290	0.566509	99
Es	-2.690085	-1.274775	-0.270496	99
Es	-2.881086	-1.658211	-0.717176	99
Es	-2.064782	-1.216563	-0.332450	99
Es	1.619385	1.227077	1.071369	99
Es	1.477463	0.876459	1.668273	99
Es	1.993551	2.295379	0.309822	99
Es	1.797788	1.150528	-0.203953	99
Es	-0.915672	-0.328719	1.333677	99
Es	1.060109	1.189965	1.509751	99
Es	2.099009	1.552633	0.389115	99
46
Properties=species:S:1:pos:R:3:Z:I:1 energy=-325.1273077844109 field_type=dipole dipole="0.000000 0.000000 0.000000" charge=0
N	-2.690254	-1.274961	-0.269964	7
C	-1.239654	-1.161281	-0.351824	6
C	-0.723504	-0.128071	0.647016	6
C	0.794176	-0.039470	0.566406	6
C	1.403456	0.677520	-0.648124	6
C	2.099146	1.552739	0.388976	6
O	1.297256	0.995379	1.456366	8
H	-3.024594	-1.922421	-0.982354	1
H	-3.122024	-0.374210	-0.473624	1
H	-0.954774	-0.882390	-1.372074	1
H	-0.791744	-2.139631	-0.145934	1
H	-1.017354	-0.417630	1.663766	1
H	-1.175114	0.852179	0.448426	1
H	1.282396	-0.994321	0.800976	1
H	0.694056	1.214289	-1.284394	1
H	2.068506	0.067469	-1.263944	1
H	3.162396	1.346649	0.542626	1
H	1.937626	2.628159	0.277676	1
Es	2.830913	1.408164	0.487069	99
Es	-1.239785	-1.161265	-0.351797	99
Es	-1.029390	0.543437	0.498483	99
Es	1.478028	0.877388	1.667861	99
Es	1.856777	0.260775	-1.073561	99
Es	-2.936845	-0.724009	-0.414017	99
Es	0.031179	-0.087251	0.598692	99
Es	1.797728	1.150491	-0.203872	99
Es	1.059362	0.263291	-0.110370	99
Es	-0.723480	-0.128097	0.646972	99
Es	1.993587	2.295333	0.309836	99
Es	0.794242	-0.039291	0.566510	99
Es	-2.881472	-1.658690	-0.716707	99
Es	-2.690108	-1.274815	-0.270387	99
Es	2.099005	1.552632	0.389115	99
Es	-2.786707	-1.382714	0.049215	99
Es	-0.979436	-0.642405	0.145148	99
Es	0.915518	1.042462	-1.076219	99
Es	1.105476	0.584585	1.145950	99
Es	-0.929707	-1.833485	-0.210054	99
Es	1.297283	0.995322	1.456164	99
Es	-2.064941	-1.216446	-0.333163	99
Es	1.403464	0.677522	-0.648088	99
Es	1.059408	1.189175	1.509989	99
Es	1.125334	-0.703983	0.719695	99
Es	1.618238	1.227926	1.071032	99
Es	-1.031448	-0.962078	-1.058051	99
Es	-0.915710	-0.328725	1.333662	99
46
Properties=species:S:1:pos:R:3:Z:I:1 energy=-325.1273077844109 field_type=dipole dipole="0.000000 0.000000 0.000000" charge=0
N	-2.690254	-1.274961	-0.269964	7
C	-1.239654	-1.161281	-0.351824	6
C	-0.723504	-0.128071	0.647016	6
C	0.794176	-0.039470	0.566406	6
C	1.403456	0.677520	-0.648124	6
C	2.099146	1.552739	0.388976	6
O	1.297256	0.995379	1.456366	8
H	-3.024594	-1.922421	-0.982354	1
H	-3.122024	-0.374210	-0.473624	1
H	-0.954774	-0.882390	-1.372074	1
H	-0.791744	-2.139631	-0.145934	1
H	-1.017354	-0.417630	1.663766	1
H	-1.175114	0.852179	0.448426	1
H	1.282396	-0.994321	0.800976	1
H	0.694056	1.214289	-1.284394	1
H	2.068506	0.067469	-1.263944	1
H	3.162396	1.346649	0.542626	1
H	1.937626	2.628159	0.277676	1
Es	1.856851	0.260779	-1.073745	99
Es	2.830756	1.408133	0.487000	99
Es	1.106315	0.583908	1.146311	99
Es	-0.723481	-0.128097	0.646972	99
Es	1.403465	0.677523	-0.648089	99
Es	0.794242	-0.039290	0.566510	99
Es	-1.029459	0.543512	0.498555	99
Es	0.915719	1.042255	-1.076023	99
Es	-0.929705	-1.833573	-0.210057	99
Es	0.031138	-0.087226	0.598658	99
Es	-2.881151	-1.658456	-0.716767	99
Es	-2.786656	-1.383207	0.049075	99
Es	1.297310	0.995305	1.455984	99
Es	2.099007	1.552633	0.389113	99
Es	1.620591	1.226322	1.071921	99
Es	1.059241	1.189476	1.504532	99
Es	1.993600	2.295493	0.309847	99
Es	1.125350	-0.704012	0.719679	99
Es	-2.065072	-1.216490	-0.333040	99
Es	1.475078	0.879357	1.672256	99
Es	-2.690091	-1.274778	-0.270489	99
Es	1.797652	1.150622	-0.203966	99
Es	-0.979421	-0.642435	0.145106	99
Es	1.059222	0.263258	-0.110161	99
Es	-2.937091	-0.723664	-0.413836	99
Es	-1.031471	-0.962064	-1.058006	99
Es	-0.915644	-0.328767	1.333563	99
Es	-1.239785	-1.161266	-0.351797	99
46
Properties=species:S:1:pos:R:3:Z:I:1 energy=-325.1273077844109 field_type=dipole dipole="0.000000 0.000000 0.000000" charge=0
N	-2.690254	-1.274961	-0.269964	7
C	-1.239654	-1.161281	-0.351824	6
C	-0.723504	-0.128071	0.647016	6
C	0.794176	-0.039470	0.566406	6
C	1.403456	0.677520	-0.648124	6
C	2.099146	1.552739	0.388976	6
O	1.297256	0.995379	1.456366	8
H	-3.024594	-1.922421	-0.982354	1
H	-3.122024	-0.374210	-0.473624	1
H	-0.954774	-0.882390	-1.372074	1
H	-0.791744	-2.139631	-0.145934	1
H	-1.017354	-0.417630	1.663766	1
H	-1.175114	0.852179	0.448426	1
H	1.282396	-0.994321	0.800976	1
H	0.694056	1.214289	-1.284394	1
H	2.068506	0.067469	-1.263944	1
H	3.162396	1.346649	0.542626	1
H	1.937626	2.628159	0.277676	1
Es	1.993593	2.295513	0.309731	99
Es	-1.031506	-0.962040	-1.057990	99
Es	1.619669	1.226356	1.071387	99
Es	1.125297	-0.704064	0.719729	99
Es	-2.881212	-1.658220	-0.717034	99
Es	1.297327	0.995283	1.456037	99
Es	2.830748	1.408108	0.487005	99
Es	0.794242	-0.039290	0.566510	99
Es	-0.723481	-0.128098	0.646971	99
Es	1.059421	1.189643	1.505454	99
Es	1.475967	0.879700	1.671318	99
Es	2.099009	1.552635	0.389112	99
Es	-0.979421	-0.642413	0.145134	99
Es	-2.690079	-1.274782	-0.270481	99
Es	1.403464	0.677523	-0.648089	99
Es	-1.239784	-1.161266	-0.351797	99
Es	-1.029398	0.543508	0.498433	99
Es	-2.065059	-1.216250	-0.333365	99
Es	-2.786310	-1.383651	0.048970	99
Es	-0.929666	-1.833607	-0.210057	99
Es	0.915656	1.042280	-1.076038	99
Es	0.031192	-0.087226	0.598717	99
Es	-0.915708	-0.328718	1.333633	99
Es	-2.937376	-0.723701	-0.413143	99
Es	1.106098	0.583384	1.146800	99
Es	1.856760	0.260794	-1.073728	99
Es	1.797826	1.150596	-0.203807	99
Es	1.059245	0.263255	-0.110306	99
