42
Properties=species:S:1:pos:R:3:Z:I:1 energy=-339.9195405228792 field_type=dipole dipole="0.000000 0.000000 0.000000" charge=0
N	-2.040271	-1.317162	-0.093511	7
C	-0.607851	-1.023062	-0.012211	6
C	-0.280271	0.439658	0.103789	6
C	-1.150231	1.458748	0.203569	6
C	1.164629	0.795028	0.115369	6
N	2.111649	-0.083872	0.021429	7
O	3.347079	0.573238	0.066059	8
H	-2.161301	-2.328932	-0.091351	1
H	-2.382831	-1.000282	-0.999351	1
H	-0.123641	-1.441362	-0.902341	1
H	-0.203331	-1.547192	0.861319	1
H	-2.221051	1.278318	0.219989	1
H	-0.833821	2.493118	0.288469	1
H	1.401239	1.870558	0.210619	1
H	3.980009	-0.166802	0.008159	1
Es	-1.868875	1.347708	0.210288	99
Es	-2.226217	-1.168059	0.170206	99
Es	1.686341	0.273145	0.351913	99
Es	1.319276	1.518039	0.179432	99
Es	-0.694293	0.977098	-0.174430	99
Es	-1.150275	1.458811	0.203569	99
Es	1.679387	0.326115	-0.227120	99
Es	-2.039996	-1.317361	-0.093878	99
Es	3.354134	0.737315	-0.193232	99
Es	-0.607998	-1.022998	-0.012212	99
Es	-2.095310	-1.930076	-0.107556	99
Es	0.455932	0.598333	0.106501	99
Es	3.356389	0.697459	0.347095	99
Es	-2.231895	-1.133756	-0.651624	99
Es	-0.931542	2.156980	0.259759	99
Es	2.114197	-0.462219	-0.012925	99
Es	1.164582	0.795003	0.115368	99
Es	2.111718	-0.083252	0.021486	99
Es	-0.682647	0.924483	0.470288	99
Es	3.682251	0.173511	0.035219	99
Es	-0.269390	-1.290782	-0.619465	99
Es	-0.457219	-0.273426	0.044171	99
Es	2.806424	0.286764	0.046600	99
Es	-1.416221	-1.190265	-0.075034	99
Es	3.347019	0.572829	0.066019	99
Es	-0.334447	-1.365706	0.579096	99
Es	-0.280128	0.439586	0.103769	99
42
Properties=species:S:1:pos:R:3:Z:I:1 energy=-339.9195405228792 field_type=dipole dipole="0.000000 0.000000 0.000000" charge=0
N	-2.040271	-1.317162	-0.093511	7
C	-0.607851	-1.023062	-0.012211	6
C	-0.280271	0.439658	0.103789	6
C	-1.150231	1.458748	0.203569	6
C	1.164629	0.795028	0.115369	6
N	2.111649	-0.083872	0.021429	7
O	3.347079	0.573238	0.066059	8
H	-2.161301	-2.328932	-0.091351	1
H	-2.382831	-1.000282	-0.999351	1
H	-0.123641	-1.441362	-0.902341	1
H	-0.203331	-1.547192	0.861319	1
H	-2.221051	1.278318	0.219989	1
H	-0.833821	2.493118	0.288469	1
H	1.401239	1.870558	0.210619	1
H	3.980009	-0.166802	0.008159	1
Es	1.687886	0.276941	0.348931	99
Es	2.111697	-0.083245	0.021487	99
Es	-0.455826	-0.271823	0.044698	99
Es	-0.694593	0.977172	-0.174332	99
Es	2.802837	0.290231	0.047301	99
Es	3.350383	0.730653	-0.179599	99
Es	-0.931188	2.154380	0.258986	99
Es	2.111177	-0.464778	-0.011651	99
Es	-1.871032	1.348927	0.209715	99
Es	3.693240	0.170853	0.035681	99
Es	3.353551	0.699574	0.332222	99
Es	1.164576	0.795007	0.115367	99
Es	-0.607995	-1.022997	-0.012214	99
Es	3.347043	0.572882	0.066018	99
Es	-2.094028	-1.928116	-0.114745	99
Es	-2.039954	-1.317402	-0.093935	99
Es	1.319510	1.517263	0.178940	99
Es	-0.334929	-1.364817	0.578133	99
Es	0.456870	0.598400	0.106560	99
Es	-0.682795	0.924354	0.470654	99
Es	-2.226389	-1.170655	0.177473	99
Es	1.680557	0.328739	-0.224443	99
Es	-0.280129	0.439586	0.103782	99
Es	-2.234617	-1.131050	-0.646666	99
Es	-0.268758	-1.291689	-0.618612	99
Es	-1.150277	1.458816	0.203567	99
Es	-1.415621	-1.191928	-0.080013	99
42
Properties=species:S:1:pos:R:3:Z:I:1 energy=-339.9195405228792 field_type=dipole dipole="0.000000 0.000000 0.000000" charge=0
N	-2.040271	-1.317162	-0.093511	7
C	-0.607851	-1.023062	-0.012211	6
C	-0.280271	0.439658	0.103789	6
C	-1.150231	1.458748	0.203569	6
C	1.164629	0.795028	0.115369	6
N	2.111649	-0.083872	0.021429	7
O	3.347079	0.573238	0.066059	8
H	-2.161301	-2.328932	-0.091351	1
H	-2.382831	-1.000282	-0.999351	1
H	-0.123641	-1.441362	-0.902341	1
H	-0.203331	-1.547192	0.861319	1
H	-2.221051	1.278318	0.219989	1
H	-0.833821	2.493118	0.288469	1
H	1.401239	1.870558	0.210619	1
H	3.980009	-0.166802	0.008159	1
Es	-1.415335	-1.192842	-0.084146	99
Es	1.681516	0.330635	-0.222500	99
Es	-1.872541	1.350937	0.209557	99
Es	2.111702	-0.083238	0.021488	99
Es	-0.267546	-1.293543	-0.617868	99
Es	-0.694779	0.977125	-0.174398	99
Es	3.354464	0.702536	0.319722	99
Es	3.697576	0.171015	0.036479	99
Es	-2.222608	-1.174777	0.181420	99
Es	-2.094035	-1.926866	-0.119245	99
Es	0.457437	0.598081	0.106462	99
Es	2.109169	-0.466415	-0.010922	99
Es	1.164574	0.795008	0.115361	99
Es	3.348872	0.720097	-0.170276	99
Es	-0.336297	-1.363170	0.577152	99
Es	-0.280123	0.439581	0.103771	99
Es	3.346999	0.572795	0.066273	99
Es	-0.454955	-0.270614	0.045326	99
Es	-2.239290	-1.126571	-0.641901	99
Es	-2.039919	-1.317430	-0.093981	99
Es	1.319807	1.516683	0.178619	99
Es	2.799124	0.295109	0.049222	99
Es	-0.930435	2.151813	0.258239	99
Es	-0.607997	-1.023001	-0.012212	99
Es	-0.682940	0.924344	0.470946	99
Es	1.689036	0.279169	0.347148	99
Es	-1.150278	1.458815	0.203569	99
42
Properties=species:S:1:pos:R:3:Z:I:1 energy=-339.9195405228792 field_type=dipole dipole="0.000000 0.000000 0.000000" charge=0
N	-2.040271	-1.317162	-0.093511	7
C	-0.607851	-1.023062	-0.012211	6
C	-0.280271	0.439658	0.103789	6
C	-1.150231	1.458748	0.203569	6
C	1.164629	0.795028	0.115369	6
N	2.111649	-0.083872	0.021429	7
O	3.347079	0.573238	0.066059	8
H	-2.161301	-2.328932	-0.091351	1
H	-2.382831	-1.000282	-0.999351	1
H	-0.123641	-1.441362	-0.902341	1
H	-0.203331	-1.547192	0.861319	1
H	-2.221051	1.278318	0.219989	1
H	-0.833821	2.493118	0.288469	1
H	1.401239	1.870558	0.210619	1
H	3.980009	-0.166802	0.008159	1
Es	-0.695409	0.977504	-0.178067	99
Es	-0.336019	-1.362750	0.578653	99
Es	1.689376	0.280170	0.350227	99
Es	-0.682228	0.924188	0.474833	99
Es	-0.267010	-1.293111	-0.619061	99
Es	1.681883	0.331422	-0.225327	99
Es	0.457898	0.596509	0.106345	99
Es	3.701632	0.173791	0.033008	99
Es	-2.237234	-1.128731	-0.644034	99
Es	-0.454902	-0.269634	0.045111	99
Es	-2.226325	-1.173688	0.188237	99
Es	1.319863	1.514774	0.178672	99
Es	3.347006	0.572829	0.065957	99
Es	-1.873827	1.356624	0.209815	99
Es	-0.280123	0.439582	0.103776	99
Es	1.164574	0.795007	0.115366	99
Es	-1.150278	1.458816	0.203569	99
Es	-0.930687	2.144859	0.257896	99
Es	-0.607994	-1.023000	-0.012212	99
Es	3.378617	0.878769	0.053924	99
Es	2.797237	0.300503	0.039584	99
Es	3.322388	0.531843	0.108940	99
Es	2.111672	-0.083248	0.021487	99
Es	-2.039971	-1.317407	-0.093911	99
Es	-2.092399	-1.920672	-0.121688	99
Es	2.109010	-0.464182	-0.011248	99
Es	-1.415554	-1.195491	-0.086549	99
42
Properties=species:S:1:pos:R:3:Z:I:1 energy=-339.9195405228792 field_type=dipole dipole="0.000000 0.000000 0.000000" charge=0
N	-2.040271	-1.317162	-0.093511	7
C	-0.607851	-1.023062	-0.012211	6
C	-0.280271	0.439658	0.103789	6
C	-1.150231	1.458748	0.203569	6
C	1.164629	0.795028	0.115369	6
N	2.111649	-0.083872	0.021429	7
O	3.347079	0.573238	0.066059	8
H	-2.161301	-2.328932	-0.091351	1
H	-2.382831	-1.000282	-0.999351	1
H	-0.123641	-1.441362	-0.902341	1
H	-0.203331	-1.547192	0.861319	1
H	-2.221051	1.278318	0.219989	1
H	-0.833821	2.493118	0.288469	1
H	1.401239	1.870558	0.210619	1
H	3.980009	-0.166802	0.008159	1
Es	-1.874320	1.362228	0.210482	99
Es	-0.930291	2.139220	0.257288	99
Es	-1.150278	1.458816	0.203569	99
Es	-2.210777	-1.187159	0.187054	99
Es	-2.039958	-1.317505	-0.094063	99
Es	-2.093153	-1.919021	-0.124681	99
Es	-2.252328	-1.114364	-0.636281	99
Es	-0.682687	0.924210	0.474968	99
Es	2.796336	0.303277	0.045147	99
Es	2.111690	-0.083223	0.021491	99
Es	1.164574	0.795007	0.115364	99
Es	-0.338514	-1.359774	0.577324	99
Es	-0.607994	-1.023000	-0.012216	99
Es	-0.280123	0.439582	0.103776	99
Es	3.701341	0.172943	0.034985	99
Es	1.682658	0.332964	-0.224142	99
Es	3.321907	0.531996	0.067617	99
Es	-0.264797	-1.296440	-0.617977	99
Es	-1.415467	-1.196525	-0.089850	99
Es	1.690115	0.280995	0.349142	99
Es	-0.454741	-0.267905	0.045638	99
Es	0.458431	0.594601	0.106164	99
Es	2.107793	-0.465073	-0.010965	99
Es	3.379797	0.874857	0.087630	99
Es	3.346977	0.572833	0.065679	99
Es	1.320239	1.514361	0.178469	99
Es	-0.695231	0.977376	-0.178308	99
42
Properties=species:S:1:pos:R:3:Z:I:1 energy=-339.9195405228792 field_type=dipole dipole="0.000000 0.000000 0.000000" charge=0
N	-2.040271	-1.317162	-0.093511	7
C	-0.607851	-1.023062	-0.012211	6
C	-0.280271	0.439658	0.103789	6
C	-1.150231	1.458748	0.203569	6
C	1.164629	0.795028	0.115369	6
N	2.111649	-0.083872	0.021429	7
O	3.347079	0.573238	0.066059	8
H	-2.161301	-2.328932	-0.091351	1
H	-2.382831	-1.000282	-0.999351	1
H	-0.123641	-1.441362	-0.902341	1
H	-0.203331	-1.547192	0.861319	1
H	-2.221051	1.278318	0.219989	1
H	-0.833821	2.493118	0.288469	1
H	1.401239	1.870558	0.210619	1
H	3.980009	-0.166802	0.008159	1
Es	-0.280123	0.439582	0.103771	99
Es	2.794822	0.307951	0.049577	99
Es	2.108349	-0.466170	-0.012830	99
Es	-1.873644	1.368977	0.211863	99
Es	0.458849	0.591817	0.105708	99
Es	1.690223	0.281210	0.349746	99
Es	3.700866	0.172404	0.033092	99
Es	-2.093772	-1.916659	-0.127214	99
Es	3.345362	0.570016	0.067745	99
Es	-0.607991	-1.022998	-0.012214	99
Es	-2.180781	-1.212140	0.164420	99
Es	1.683268	0.333766	-0.223753	99
Es	-0.454859	-0.266289	0.045730	99
Es	3.323194	0.536706	0.041655	99
Es	1.320223	1.514346	0.178917	99
Es	-2.281198	-1.088348	-0.606538	99
Es	-0.930967	2.132406	0.257297	99
Es	1.164574	0.795006	0.115368	99
Es	-0.682765	0.924200	0.475849	99
Es	-0.695260	0.977454	-0.179181	99
Es	-1.150279	1.458816	0.203568	99
Es	2.111681	-0.083225	0.021488	99
Es	-1.415826	-1.198478	-0.094261	99
Es	3.380613	0.868693	0.108658	99
Es	-0.261680	-1.300787	-0.616276	99
Es	-0.341756	-1.355536	0.575081	99
Es	-2.039926	-1.317442	-0.093963	99
42
Properties=species:S:1:pos:R:3:Z:I:1 energy=-339.9195405228792 field_type=dipole dipole="0.000000 0.000000 0.000000" charge=0
N	-2.040271	-1.317162	-0.093511	7
C	-0.607851	-1.023062	-0.012211	6
C	-0.280271	0.439658	0.103789	6
C	-1.150231	1.458748	0.203569	6
C	1.164629	0.795028	0.115369	6
N	2.111649	-0.083872	0.021429	7
O	3.347079	0.573238	0.066059	8
H	-2.161301	-2.328932	-0.091351	1
H	-2.382831	-1.000282	-0.999351	1
H	-0.123641	-1.441362	-0.902341	1
H	-0.203331	-1.547192	0.861319	1
H	-2.221051	1.278318	0.219989	1
H	-0.833821	2.493118	0.288469	1
H	1.401239	1.870558	0.210619	1
H	3.980009	-0.166802	0.008159	1
Es	-1.872218	1.375657	0.212943	99
Es	-1.416459	-1.198389	-0.096327	99
Es	3.322382	0.536677	0.033875	99
Es	-1.150279	1.458815	0.203573	99
Es	-0.454955	-0.264434	0.045945	99
Es	-2.093358	-1.916058	-0.129071	99
Es	1.319879	1.514756	0.179359	99
Es	-2.163503	-1.226667	0.137047	99
Es	-0.261163	-1.301299	-0.616293	99
Es	-0.694892	0.977651	-0.179965	99
Es	2.792433	0.316268	0.053114	99
Es	1.164574	0.795006	0.115369	99
Es	1.683709	0.334279	-0.223767	99
Es	0.459296	0.588831	0.105216	99
Es	3.345886	0.570973	0.066814	99
Es	2.110182	-0.467807	-0.014501	99
Es	-2.039912	-1.317436	-0.093981	99
Es	-0.342303	-1.354998	0.574646	99
Es	-0.932398	2.125639	0.257167	99
Es	-0.683258	0.924028	0.476590	99
Es	3.381335	0.860848	0.115700	99
Es	-2.297940	-1.073606	-0.575106	99
Es	-0.280123	0.439583	0.103773	99
Es	1.690179	0.281189	0.350566	99
Es	-0.607992	-1.023000	-0.012211	99
Es	3.700409	0.172000	0.031341	99
Es	2.111688	-0.083227	0.021488	99
42
Properties=species:S:1:pos:R:3:Z:I:1 energy=-339.9195405228792 field_type=dipole dipole="0.000000 0.000000 0.000000" charge=0
N	-2.040271	-1.317162	-0.093511	7
C	-0.607851	-1.023062	-0.012211	6
C	-0.280271	0.439658	0.103789	6
C	-1.150231	1.458748	0.203569	6
C	1.164629	0.795028	0.115369	6
N	2.111649	-0.083872	0.021429	7
O	3.347079	0.573238	0.066059	8
H	-2.161301	-2.328932	-0.091351	1
H	-2.382831	-1.000282	-0.999351	1
H	-0.123641	-1.441362	-0.902341	1
H	-0.203331	-1.547192	0.861319	1
H	-2.221051	1.278318	0.219989	1
H	-0.833821	2.493118	0.288469	1
H	1.401239	1.870558	0.210619	1
H	3.980009	-0.166802	0.008159	1
Es	-2.039912	-1.317445	-0.094009	99
Es	1.690338	0.281513	0.350832	99
Es	-0.343151	-1.353812	0.573914	99
Es	3.700137	0.171816	0.029991	99
Es	1.319759	1.514904	0.179514	99
Es	-0.694997	0.977657	-0.180332	99
Es	-0.933649	2.121015	0.256884	99
Es	3.328611	0.545219	0.049024	99
Es	-2.306953	-1.065534	-0.552001	99
Es	1.164568	0.795005	0.115368	99
Es	2.112805	-0.469427	-0.014973	99
Es	0.459394	0.586926	0.105045	99
Es	-2.154011	-1.234469	0.115833	99
Es	3.381069	0.851324	0.117852	99
Es	-1.150279	1.458816	0.203569	99
Es	-1.416975	-1.197967	-0.097043	99
Es	2.111671	-0.083234	0.021489	99
Es	-0.280125	0.439582	0.103771	99
Es	-0.454983	-0.263051	0.045933	99
Es	-1.870871	1.380343	0.213606	99
Es	-2.093072	-1.916278	-0.130127	99
Es	-0.607991	-1.023003	-0.012203	99
Es	-0.260363	-1.302511	-0.615615	99
Es	1.683741	0.334204	-0.223925	99
Es	-0.683288	0.923988	0.476948	99
Es	3.339671	0.562495	0.051941	99
Es	2.790054	0.327203	0.052017	99
42
Properties=species:S:1:pos:R:3:Z:I:1 energy=-339.9195405228792 field_type=dipole dipole="0.000000 0.000000 0.000000" charge=0
N	-2.040271	-1.317162	-0.093511	7
C	-0.607851	-1.023062	-0.012211	6
C	-0.280271	0.439658	0.103789	6
C	-1.150231	1.458748	0.203569	6
C	1.164629	0.795028	0.115369	6
N	2.111649	-0.083872	0.021429	7
O	3.347079	0.573238	0.066059	8
H	-2.161301	-2.328932	-0.091351	1
H	-2.382831	-1.000282	-0.999351	1
H	-0.123641	-1.441362	-0.902341	1
H	-0.203331	-1.547192	0.861319	1
H	-2.221051	1.278318	0.219989	1
H	-0.833821	2.493118	0.288469	1
H	1.401239	1.870558	0.210619	1
H	3.980009	-0.166802	0.008159	1
Es	-1.416094	-1.190400	-0.082031	99
Es	1.691652	0.283327	0.348860	99
Es	-0.681988	0.924356	0.476733	99
Es	-0.696151	0.977419	-0.180262	99
Es	-2.039925	-1.317413	-0.093949	99
Es	2.792419	0.343885	0.023895	99
Es	-0.280124	0.439582	0.103784	99
Es	-2.147226	-1.214511	-0.532210	99
Es	3.346746	0.572311	0.067519	99
Es	1.682486	0.332714	-0.226362	99
Es	-0.272786	-1.286613	-0.617590	99
Es	3.377497	0.838054	0.031146	99
Es	-0.607991	-1.023001	-0.012212	99
Es	0.459222	0.586052	0.106471	99
Es	3.320553	0.533118	0.136198	99
Es	-1.150279	1.458813	0.203566	99
Es	-0.934611	2.118257	0.253949	99
Es	-2.312124	-1.084859	0.065890	99
Es	1.164573	0.795009	0.115354	99
Es	-2.095625	-1.922017	-0.116302	99
Es	2.115148	-0.470200	-0.006542	99
Es	-0.330707	-1.369771	0.579706	99
Es	3.699814	0.170690	0.044755	99
Es	-0.454864	-0.264589	0.045955	99
Es	1.319796	1.514792	0.176873	99
Es	-1.869889	1.383502	0.208622	99
Es	2.111675	-0.083232	0.021489	99
42
Properties=species:S:1:pos:R:3:Z:I:1 energy=-339.9195405228792 field_type=dipole dipole="0.000000 0.000000 0.000000" charge=0
N	-2.040271	-1.317162	-0.093511	7
C	-0.607851	-1.023062	-0.012211	6
C	-0.280271	0.439658	0.103789	6
C	-1.150231	1.458748	0.203569	6
C	1.164629	0.795028	0.115369	6
N	2.111649	-0.083872	0.021429	7
O	3.347079	0.573238	0.066059	8
H	-2.161301	-2.328932	-0.091351	1
H	-2.382831	-1.000282	-0.999351	1
H	-0.123641	-1.441362	-0.902341	1
H	-0.203331	-1.547192	0.861319	1
H	-2.221051	1.278318	0.219989	1
H	-0.833821	2.493118	0.288469	1
H	1.401239	1.870558	0.210619	1
H	3.980009	-0.166802	0.008159	1
Es	-1.418068	-1.195247	-0.097341	99
Es	-0.260494	-1.302178	-0.616046	99
Es	1.683921	0.334556	-0.224008	99
Es	-2.319024	-1.055591	-0.513233	99
Es	1.319486	1.515224	0.179642	99
Es	-0.935442	2.115604	0.256631	99
Es	3.340067	0.562249	0.062054	99
Es	2.117016	-0.470719	-0.015629	99
Es	-0.454860	-0.262453	0.046054	99
Es	-0.280125	0.439584	0.103765	99
Es	3.699632	0.171234	0.030044	99
Es	-0.683622	0.923869	0.477309	99
Es	1.164574	0.795006	0.115372	99
Es	3.378147	0.832752	0.128113	99
Es	3.328236	0.547978	0.025899	99
Es	-2.141637	-1.244317	0.078523	99
Es	-0.343022	-1.354107	0.574181	99
Es	0.459555	0.584940	0.104851	99
Es	-0.694755	0.977781	-0.180753	99
Es	-1.150281	1.458814	0.203570	99
Es	2.111670	-0.083232	0.021489	99
Es	1.690274	0.281308	0.351175	99
Es	-2.092106	-1.917948	-0.131185	99
Es	-1.869060	1.385714	0.214289	99
Es	-0.607993	-1.023002	-0.012213	99
Es	-2.039922	-1.317456	-0.094026	99
Es	2.789034	0.344915	0.054776	99
42
Properties=species:S:1:pos:R:3:Z:I:1 energy=-339.9195405228792 field_type=dipole dipole="0.000000 0.000000 0.000000" charge=0
N	-2.040271	-1.317162	-0.093511	7
C	-0.607851	-1.023062	-0.012211	6
C	-0.280271	0.439658	0.103789	6
C	-1.150231	1.458748	0.203569	6
C	1.164629	0.795028	0.115369	6
N	2.111649	-0.083872	0.021429	7
O	3.347079	0.573238	0.066059	8
H	-2.161301	-2.328932	-0.091351	1
H	-2.382831	-1.000282	-0.999351	1
H	-0.123641	-1.441362	-0.902341	1
H	-0.203331	-1.547192	0.861319	1
H	-2.221051	1.278318	0.219989	1
H	-0.833821	2.493118	0.288469	1
H	1.401239	1.870558	0.210619	1
H	3.980009	-0.166802	0.008159	1
Es	-0.270482	-1.289327	-0.619004	99
Es	3.346952	0.572755	0.065697	99
Es	2.791804	0.355319	0.022528	99
Es	-0.682358	0.924252	0.477999	99
Es	-2.039938	-1.317422	-0.093946	99
Es	-2.119399	-1.245472	-0.398658	99
Es	-0.934581	2.118583	0.254404	99
Es	2.111686	-0.083216	0.021490	99
Es	1.682517	0.332917	-0.227075	99
Es	1.164574	0.795005	0.115360	99
Es	-0.607993	-1.023001	-0.012211	99
Es	-1.420684	-1.183283	-0.081092	99
Es	3.354552	0.731525	-0.108516	99
Es	-2.339287	-1.053620	-0.069573	99
Es	-1.150279	1.458815	0.203569	99
Es	-0.455050	-0.266675	0.045697	99
Es	3.696796	0.167816	0.038869	99
Es	2.119250	-0.470639	-0.008275	99
Es	-0.333053	-1.367020	0.580587	99
Es	-0.280124	0.439583	0.103777	99
Es	0.459709	0.587144	0.106252	99
Es	1.319202	1.515509	0.177357	99
Es	1.691082	0.282448	0.350358	99
Es	3.343193	0.631577	0.284733	99
Es	-0.695890	0.977523	-0.181542	99
Es	-2.091233	-1.929135	-0.115094	99
Es	-1.869770	1.383317	0.209613	99
42
Properties=species:S:1:pos:R:3:Z:I:1 energy=-339.9195405228792 field_type=dipole dipole="0.000000 0.000000 0.000000" charge=0
N	-2.040271	-1.317162	-0.093511	7
C	-0.607851	-1.023062	-0.012211	6
C	-0.280271	0.439658	0.103789	6
C	-1.150231	1.458748	0.203569	6
C	1.164629	0.795028	0.115369	6
N	2.111649	-0.083872	0.021429	7
O	3.347079	0.573238	0.066059	8
H	-2.161301	-2.328932	-0.091351	1
H	-2.382831	-1.000282	-0.999351	1
H	-0.123641	-1.441362	-0.902341	1
H	-0.203331	-1.547192	0.861319	1
H	-2.221051	1.278318	0.219989	1
H	-0.833821	2.493118	0.288469	1
H	1.401239	1.870558	0.210619	1
H	3.980009	-0.166802	0.008159	1
Es	3.699666	0.170508	0.044196	99
Es	3.343938	0.568202	0.068732	99
Es	-2.094597	-1.924230	-0.115122	99
Es	-0.936306	2.113627	0.253623	99
Es	1.682427	0.332779	-0.226711	99
Es	2.795087	0.365195	0.020624	99
Es	1.164574	0.795007	0.115359	99
Es	-0.682128	0.924369	0.477438	99
Es	3.370515	0.815931	0.027060	99
Es	-0.696083	0.977403	-0.180871	99
Es	1.319656	1.514981	0.176778	99
Es	2.119390	-0.470660	-0.007019	99
Es	0.459272	0.584861	0.106329	99
Es	-1.150279	1.458815	0.203564	99
Es	2.111676	-0.083224	0.021490	99
Es	-0.280124	0.439582	0.103779	99
Es	-1.868225	1.388093	0.208999	99
Es	-0.272246	-1.287301	-0.617992	99
Es	-0.607991	-1.022998	-0.012211	99
Es	-2.324974	-1.070842	0.015675	99
Es	-1.417220	-1.186683	-0.080877	99
Es	3.323598	0.538693	0.143289	99
Es	-2.134008	-1.228633	-0.484256	99
Es	-0.454801	-0.264828	0.045872	99
Es	-0.331268	-1.369066	0.580197	99
Es	-2.039937	-1.317426	-0.093952	99
Es	1.691586	0.283121	0.349313	99
42
Properties=species:S:1:pos:R:3:Z:I:1 energy=-339.9195405228792 field_type=dipole dipole="0.000000 0.000000 0.000000" charge=0
N	-2.040271	-1.317162	-0.093511	7
C	-0.607851	-1.023062	-0.012211	6
C	-0.280271	0.439658	0.103789	6
C	-1.150231	1.458748	0.203569	6
C	1.164629	0.795028	0.115369	6
N	2.111649	-0.083872	0.021429	7
O	3.347079	0.573238	0.066059	8
H	-2.161301	-2.328932	-0.091351	1
H	-2.382831	-1.000282	-0.999351	1
H	-0.123641	-1.441362	-0.902341	1
H	-0.203331	-1.547192	0.861319	1
H	-2.221051	1.278318	0.219989	1
H	-0.833821	2.493118	0.288469	1
H	1.401239	1.870558	0.210619	1
H	3.980009	-0.166802	0.008159	1
Es	-0.454780	-0.263426	0.046036	99
Es	2.796346	0.370050	0.024442	99
Es	1.319065	1.515619	0.176727	99
Es	-0.936906	2.112131	0.253498	99
Es	2.119419	-0.470447	-0.006598	99
Es	3.338154	0.558703	0.090961	99
Es	-0.696089	0.977387	-0.181124	99
Es	-0.272462	-1.286877	-0.618016	99
Es	-2.094872	-1.924521	-0.114440	99
Es	-0.330958	-1.369351	0.580244	99
Es	1.682449	0.332896	-0.226991	99
Es	-2.326297	-1.068704	0.007960	99
Es	1.164573	0.795006	0.115354	99
Es	-1.417286	-1.186895	-0.080729	99
Es	0.459693	0.582932	0.106362	99
Es	-0.280119	0.439585	0.103780	99
Es	-0.607992	-1.023001	-0.012212	99
Es	-1.150279	1.458816	0.203563	99
Es	-2.039924	-1.317445	-0.093999	99
Es	-1.867653	1.389550	0.209021	99
Es	3.699513	0.170351	0.045564	99
Es	1.691581	0.283012	0.349551	99
Es	-0.682153	0.924372	0.477545	99
Es	3.329413	0.545937	0.103382	99
Es	3.369367	0.813317	0.039274	99
Es	-2.132290	-1.230498	-0.477341	99
Es	2.111683	-0.083220	0.021490	99
42
Properties=species:S:1:pos:R:3:Z:I:1 energy=-339.9195405228792 field_type=dipole dipole="0.000000 0.000000 0.000000" charge=0
N	-2.040271	-1.317162	-0.093511	7
C	-0.607851	-1.023062	-0.012211	6
C	-0.280271	0.439658	0.103789	6
C	-1.150231	1.458748	0.203569	6
C	1.164629	0.795028	0.115369	6
N	2.111649	-0.083872	0.021429	7
O	3.347079	0.573238	0.066059	8
H	-2.161301	-2.328932	-0.091351	1
H	-2.382831	-1.000282	-0.999351	1
H	-0.123641	-1.441362	-0.902341	1
H	-0.203331	-1.547192	0.861319	1
H	-2.221051	1.278318	0.219989	1
H	-0.833821	2.493118	0.288469	1
H	1.401239	1.870558	0.210619	1
H	3.980009	-0.166802	0.008159	1
Es	-2.330187	-1.046621	-0.463820	99
Es	-0.454709	-0.260804	0.046085	99
Es	-0.342260	-1.355039	0.575225	99
Es	3.372669	0.813183	0.138279	99
Es	1.164573	0.795005	0.115369	99
Es	2.789557	0.361786	0.057595	99
Es	3.699320	0.170842	0.030425	99
Es	-2.092378	-1.918923	-0.131111	99
Es	-0.683344	0.923890	0.477708	99
Es	0.459790	0.581892	0.104584	99
Es	-0.261220	-1.301181	-0.616869	99
Es	-1.150279	1.458815	0.203570	99
Es	-2.039908	-1.317446	-0.094014	99
Es	1.683958	0.334811	-0.224398	99
Es	-2.129725	-1.252547	0.029591	99
Es	1.318985	1.515773	0.179738	99
Es	2.121950	-0.471065	-0.015986	99
Es	3.341953	0.565235	0.062987	99
Es	-1.418398	-1.194202	-0.097867	99
Es	-0.607998	-1.023004	-0.012215	99
Es	3.326651	0.548402	0.011974	99
Es	-0.937606	2.109918	0.256129	99
Es	-0.280124	0.439583	0.103771	99
Es	2.111685	-0.083226	0.021489	99
Es	1.690200	0.281011	0.351552	99
Es	-0.695112	0.977734	-0.181223	99
Es	-1.866845	1.391454	0.214737	99
