43
Properties=species:S:1:pos:R:3:Z:I:1 energy=-323.94655823129426 field_type=dipole dipole="0.000000 0.000000 0.000000" charge=0
N	0.531170	-3.180593	0.320493	7
C	0.287630	-2.010113	1.147613	6
C	-0.426770	-0.971662	0.351793	6
C	0.024540	0.273347	0.161303	6
O	-0.683650	1.193938	-0.569017	8
C	-0.167950	2.452497	-0.742817	6
C	-0.827840	3.394757	-1.417847	6
H	1.036520	-3.875592	0.866743	1
H	1.148980	-2.920863	-0.447377	1
H	1.238020	-1.633632	1.541773	1
H	-0.334070	-2.295832	2.002593	1
H	-1.382100	-1.257903	-0.082217	1
H	0.961580	0.627007	0.567833	1
H	0.802609	2.628457	-0.301117	1
H	-1.801090	3.189948	-1.851377	1
H	-0.407580	4.386237	-1.548377	1
Es	-0.167974	2.452162	-0.742713	99
Es	-0.917852	1.236273	-0.420555	99
Es	0.531672	-3.180366	0.320707	99
Es	-0.379617	0.879425	-0.286039	99
Es	-0.683276	1.194105	-0.568756	99
Es	-0.448317	1.657892	-0.606574	99
Es	0.024459	0.273650	0.161139	99
Es	0.448244	-2.665721	0.682955	99
Es	-0.687638	1.089961	-0.827738	99
Es	-0.648141	3.051533	-0.813133	99
Es	0.850826	-3.586942	0.659709	99
Es	0.493937	2.558749	-0.436304	99
Es	-0.063803	-1.474273	0.744342	99
Es	-0.348670	-0.266247	0.541961	99
Es	-0.357120	2.853497	-1.372616	99
Es	-1.066574	-1.166909	0.062583	99
Es	0.942908	-1.735984	1.420385	99
Es	-0.136773	-2.202459	1.727256	99
Es	-0.827865	3.394806	-1.417878	99
Es	0.663583	0.525300	0.433909	99
Es	-0.031425	-0.468403	-0.013404	99
Es	0.918918	-3.013061	-0.128923	99
Es	-0.426767	-0.971720	0.351816	99
Es	0.230011	-3.313228	0.196453	99
Es	-0.543649	4.060638	-1.504722	99
Es	0.287631	-2.010181	1.147498	99
Es	-1.480917	3.261572	-1.710238	99
43
Properties=species:S:1:pos:R:3:Z:I:1 energy=-323.94655823129426 field_type=dipole dipole="0.000000 0.000000 0.000000" charge=0
N	0.531170	-3.180593	0.320493	7
C	0.287630	-2.010113	1.147613	6
C	-0.426770	-0.971662	0.351793	6
C	0.024540	0.273347	0.161303	6
O	-0.683650	1.193938	-0.569017	8
C	-0.167950	2.452497	-0.742817	6
C	-0.827840	3.394757	-1.417847	6
H	1.036520	-3.875592	0.866743	1
H	1.148980	-2.920863	-0.447377	1
H	1.238020	-1.633632	1.541773	1
H	-0.334070	-2.295832	2.002593	1
H	-1.382100	-1.257903	-0.082217	1
H	0.961580	0.627007	0.567833	1
H	0.802609	2.628457	-0.301117	1
H	-1.801090	3.189948	-1.851377	1
H	-0.407580	4.386237	-1.548377	1
Es	-0.452397	1.666472	-0.611557	99
Es	0.448102	-2.665993	0.682610	99
Es	0.024453	0.273663	0.161137	99
Es	-0.683297	1.194053	-0.568830	99
Es	-0.542968	4.063468	-1.505782	99
Es	-0.358873	2.853337	-1.371374	99
Es	-1.478886	3.260312	-1.709046	99
Es	-0.032748	-0.467933	-0.013114	99
Es	-0.426772	-0.971720	0.351825	99
Es	-1.065123	-1.165231	0.062878	99
Es	0.234886	-3.304469	0.194597	99
Es	-0.648566	3.050560	-0.814561	99
Es	0.917439	-3.012426	-0.126915	99
Es	0.493216	2.558971	-0.436582	99
Es	0.941857	-1.737695	1.420410	99
Es	0.531667	-3.180360	0.320704	99
Es	0.847652	-3.596296	0.661262	99
Es	-0.827866	3.394809	-1.417880	99
Es	-0.064406	-1.474036	0.744371	99
Es	-0.383467	0.869843	-0.281841	99
Es	-0.167973	2.452145	-0.742710	99
Es	-0.348987	-0.266426	0.540774	99
Es	-0.134741	-2.202829	1.727046	99
Es	0.663250	0.524740	0.433540	99
Es	-0.681321	1.098028	-0.808009	99
Es	-0.915953	1.229265	-0.439332	99
Es	0.287630	-2.010182	1.147498	99
43
Properties=species:S:1:pos:R:3:Z:I:1 energy=-323.94655823129426 field_type=dipole dipole="0.000000 0.000000 0.000000" charge=0
N	0.531170	-3.180593	0.320493	7
C	0.287630	-2.010113	1.147613	6
C	-0.426770	-0.971662	0.351793	6
C	0.024540	0.273347	0.161303	6
O	-0.683650	1.193938	-0.569017	8
C	-0.167950	2.452497	-0.742817	6
C	-0.827840	3.394757	-1.417847	6
H	1.036520	-3.875592	0.866743	1
H	1.148980	-2.920863	-0.447377	1
H	1.238020	-1.633632	1.541773	1
H	-0.334070	-2.295832	2.002593	1
H	-1.382100	-1.257903	-0.082217	1
H	0.961580	0.627007	0.567833	1
H	0.802609	2.628457	-0.301117	1
H	-1.801090	3.189948	-1.851377	1
H	-0.407580	4.386237	-1.548377	1
Es	-0.133480	-2.202638	1.726591	99
Es	0.662702	0.524584	0.433869	99
Es	0.916454	-3.012636	-0.125280	99
Es	0.024456	0.273659	0.161138	99
Es	0.941022	-1.738912	1.420522	99
Es	-0.064725	-1.473881	0.744243	99
Es	-0.940829	1.209815	-0.479765	99
Es	-0.459691	1.672884	-0.610050	99
Es	0.492428	2.559298	-0.436098	99
Es	-0.648979	3.049548	-0.815387	99
Es	0.531667	-3.180360	0.320700	99
Es	-1.477141	3.259376	-1.708702	99
Es	-0.683268	1.194055	-0.568848	99
Es	0.449356	-2.666181	0.682677	99
Es	-0.390010	0.864883	-0.276609	99
Es	0.287631	-2.010180	1.147499	99
Es	-0.543022	4.064931	-1.506493	99
Es	-0.426765	-0.971725	0.351816	99
Es	-1.063614	-1.164373	0.062611	99
Es	-0.033293	-0.467660	-0.012906	99
Es	0.238324	-3.297907	0.193906	99
Es	-0.167971	2.452140	-0.742718	99
Es	-0.827864	3.394808	-1.417882	99
Es	-0.349641	-0.266472	0.540169	99
Es	-0.642312	1.116088	-0.774171	99
Es	0.843831	-3.602872	0.661171	99
Es	-0.359457	2.853799	-1.370886	99
43
Properties=species:S:1:pos:R:3:Z:I:1 energy=-323.94655823129426 field_type=dipole dipole="0.000000 0.000000 0.000000" charge=0
N	0.531170	-3.180593	0.320493	7
C	0.287630	-2.010113	1.147613	6
C	-0.426770	-0.971662	0.351793	6
C	0.024540	0.273347	0.161303	6
O	-0.683650	1.193938	-0.569017	8
C	-0.167950	2.452497	-0.742817	6
C	-0.827840	3.394757	-1.417847	6
H	1.036520	-3.875592	0.866743	1
H	1.148980	-2.920863	-0.447377	1
H	1.238020	-1.633632	1.541773	1
H	-0.334070	-2.295832	2.002593	1
H	-1.382100	-1.257903	-0.082217	1
H	0.961580	0.627007	0.567833	1
H	0.802609	2.628457	-0.301117	1
H	-1.801090	3.189948	-1.851377	1
H	-0.407580	4.386237	-1.548377	1
Es	0.938860	-1.740007	1.419027	99
Es	-0.133173	-2.202634	1.728425	99
Es	-0.960607	1.128470	-0.670497	99
Es	-1.061228	-1.163499	0.064310	99
Es	-0.682686	1.193922	-0.569289	99
Es	-0.032634	-0.468337	-0.015589	99
Es	-0.351101	-0.265520	0.542466	99
Es	-0.614602	1.204689	-0.567670	99
Es	0.287633	-2.010180	1.147498	99
Es	-0.167973	2.452154	-0.742708	99
Es	-0.463769	1.675423	-0.620290	99
Es	0.914944	-3.013483	-0.130792	99
Es	-0.358790	2.852244	-1.373511	99
Es	-1.474345	3.260224	-1.706686	99
Es	-0.393561	0.855477	-0.281258	99
Es	0.661560	0.524251	0.432545	99
Es	-0.650412	3.050483	-0.812876	99
Es	0.491207	2.558345	-0.437194	99
Es	0.251663	-3.292654	0.199732	99
Es	0.837501	-3.608477	0.660604	99
Es	0.024452	0.273662	0.161141	99
Es	0.531687	-3.180348	0.320713	99
Es	0.444395	-2.665149	0.682644	99
Es	-0.064304	-1.473896	0.744038	99
Es	-0.544283	4.065832	-1.507600	99
Es	-0.426768	-0.971723	0.351818	99
Es	-0.827859	3.394802	-1.417887	99
43
Properties=species:S:1:pos:R:3:Z:I:1 energy=-323.94655823129426 field_type=dipole dipole="0.000000 0.000000 0.000000" charge=0
N	0.531170	-3.180593	0.320493	7
C	0.287630	-2.010113	1.147613	6
C	-0.426770	-0.971662	0.351793	6
C	0.024540	0.273347	0.161303	6
O	-0.683650	1.193938	-0.569017	8
C	-0.167950	2.452497	-0.742817	6
C	-0.827840	3.394757	-1.417847	6
H	1.036520	-3.875592	0.866743	1
H	1.148980	-2.920863	-0.447377	1
H	1.238020	-1.633632	1.541773	1
H	-0.334070	-2.295832	2.002593	1
H	-1.382100	-1.257903	-0.082217	1
H	0.961580	0.627007	0.567833	1
H	0.802609	2.628457	-0.301117	1
H	-1.801090	3.189948	-1.851377	1
H	-0.407580	4.386237	-1.548377	1
Es	-0.167977	2.452147	-0.742706	99
Es	0.490909	2.558539	-0.437133	99
Es	0.531677	-3.180349	0.320694	99
Es	0.834702	-3.611903	0.659918	99
Es	-0.395063	0.854237	-0.281389	99
Es	-0.351176	-0.265656	0.541957	99
Es	-0.544475	4.066582	-1.507890	99
Es	-0.650399	3.049853	-0.813672	99
Es	-0.465743	1.676129	-0.621070	99
Es	-0.683109	1.194471	-0.567945	99
Es	0.287631	-2.010181	1.147498	99
Es	0.661503	0.523988	0.432513	99
Es	0.938300	-1.740690	1.419065	99
Es	-0.426768	-0.971725	0.351826	99
Es	-0.064633	-1.473860	0.744031	99
Es	0.254191	-3.289336	0.199912	99
Es	0.914346	-3.013501	-0.129823	99
Es	-0.359256	2.852463	-1.373160	99
Es	-1.473454	3.259834	-1.706151	99
Es	-0.132570	-2.202654	1.728161	99
Es	-1.060518	-1.162769	0.064396	99
Es	0.445224	-2.665077	0.682684	99
Es	-0.612402	1.202620	-0.573097	99
Es	-0.033074	-0.468168	-0.015352	99
Es	-0.827865	3.394811	-1.417883	99
Es	0.024452	0.273665	0.161133	99
Es	-0.958644	1.130600	-0.665399	99
43
Properties=species:S:1:pos:R:3:Z:I:1 energy=-323.94655823129426 field_type=dipole dipole="0.000000 0.000000 0.000000" charge=0
N	0.531170	-3.180593	0.320493	7
C	0.287630	-2.010113	1.147613	6
C	-0.426770	-0.971662	0.351793	6
C	0.024540	0.273347	0.161303	6
O	-0.683650	1.193938	-0.569017	8
C	-0.167950	2.452497	-0.742817	6
C	-0.827840	3.394757	-1.417847	6
H	1.036520	-3.875592	0.866743	1
H	1.148980	-2.920863	-0.447377	1
H	1.238020	-1.633632	1.541773	1
H	-0.334070	-2.295832	2.002593	1
H	-1.382100	-1.257903	-0.082217	1
H	0.961580	0.627007	0.567833	1
H	0.802609	2.628457	-0.301117	1
H	-1.801090	3.189948	-1.851377	1
H	-0.407580	4.386237	-1.548377	1
Es	0.490862	2.558561	-0.437427	99
Es	0.444908	-2.665230	0.682642	99
Es	0.661570	0.523724	0.432285	99
Es	-0.827866	3.394810	-1.417880	99
Es	-0.167976	2.452147	-0.742708	99
Es	-0.131943	-2.202503	1.728049	99
Es	-0.683274	1.194335	-0.568187	99
Es	-0.544798	4.067091	-1.508255	99
Es	-1.059999	-1.162166	0.064655	99
Es	-0.426765	-0.971726	0.351814	99
Es	-0.952131	1.128704	-0.672580	99
Es	-1.472809	3.259585	-1.705453	99
Es	0.531679	-3.180351	0.320715	99
Es	-0.064867	-1.473877	0.743994	99
Es	0.832590	-3.614114	0.659594	99
Es	-0.351127	-0.265739	0.541580	99
Es	0.937893	-1.741224	1.418871	99
Es	0.914609	-3.013252	-0.128120	99
Es	0.287631	-2.010180	1.147498	99
Es	-0.359777	2.852802	-1.373001	99
Es	-0.033576	-0.468057	-0.015192	99
Es	-0.396245	0.852158	-0.283127	99
Es	-0.617862	1.207440	-0.560272	99
Es	-0.650223	3.049337	-0.813974	99
Es	0.256144	-3.287371	0.199043	99
Es	-0.465288	1.675502	-0.624585	99
Es	0.024450	0.273666	0.161138	99
43
Properties=species:S:1:pos:R:3:Z:I:1 energy=-323.94655823129426 field_type=dipole dipole="0.000000 0.000000 0.000000" charge=0
N	0.531170	-3.180593	0.320493	7
C	0.287630	-2.010113	1.147613	6
C	-0.426770	-0.971662	0.351793	6
C	0.024540	0.273347	0.161303	6
O	-0.683650	1.193938	-0.569017	8
C	-0.167950	2.452497	-0.742817	6
C	-0.827840	3.394757	-1.417847	6
H	1.036520	-3.875592	0.866743	1
H	1.148980	-2.920863	-0.447377	1
H	1.238020	-1.633632	1.541773	1
H	-0.334070	-2.295832	2.002593	1
H	-1.382100	-1.257903	-0.082217	1
H	0.961580	0.627007	0.567833	1
H	0.802609	2.628457	-0.301117	1
H	-1.801090	3.189948	-1.851377	1
H	-0.407580	4.386237	-1.548377	1
Es	-0.167974	2.452148	-0.742713	99
Es	-0.034136	-0.467703	-0.014764	99
Es	-1.059670	-1.161719	0.064638	99
Es	0.445736	-2.665404	0.682578	99
Es	-0.360246	2.852585	-1.372220	99
Es	0.914586	-3.013387	-0.126721	99
Es	0.024451	0.273667	0.161135	99
Es	0.531677	-3.180349	0.320712	99
Es	-0.350995	-0.265980	0.541353	99
Es	0.490882	2.558642	-0.437534	99
Es	0.937572	-1.741684	1.419127	99
Es	-0.465488	1.674981	-0.627963	99
Es	0.830686	-3.615949	0.659228	99
Es	-0.544912	4.067438	-1.508642	99
Es	-0.948250	1.128673	-0.673412	99
Es	-0.065005	-1.473792	0.744010	99
Es	-0.650261	3.049557	-0.814501	99
Es	0.661808	0.523468	0.431976	99
Es	-0.664345	1.196410	-0.569713	99
Es	-1.472225	3.259225	-1.705248	99
Es	-0.426771	-0.971723	0.351827	99
Es	-0.640087	1.207873	-0.552075	99
Es	0.257097	-3.285509	0.198523	99
Es	-0.827868	3.394811	-1.417877	99
Es	0.287636	-2.010178	1.147500	99
Es	-0.396547	0.850217	-0.285586	99
Es	-0.131543	-2.202248	1.727477	99
43
Properties=species:S:1:pos:R:3:Z:I:1 energy=-323.94655823129426 field_type=dipole dipole="0.000000 0.000000 0.000000" charge=0
N	0.531170	-3.180593	0.320493	7
C	0.287630	-2.010113	1.147613	6
C	-0.426770	-0.971662	0.351793	6
C	0.024540	0.273347	0.161303	6
O	-0.683650	1.193938	-0.569017	8
C	-0.167950	2.452497	-0.742817	6
C	-0.827840	3.394757	-1.417847	6
H	1.036520	-3.875592	0.866743	1
H	1.148980	-2.920863	-0.447377	1
H	1.238020	-1.633632	1.541773	1
H	-0.334070	-2.295832	2.002593	1
H	-1.382100	-1.257903	-0.082217	1
H	0.961580	0.627007	0.567833	1
H	0.802609	2.628457	-0.301117	1
H	-1.801090	3.189948	-1.851377	1
H	-0.407580	4.386237	-1.548377	1
Es	0.828992	-3.617453	0.658953	99
Es	-1.471875	3.259194	-1.704538	99
Es	0.661939	0.523244	0.431788	99
Es	-0.626069	1.209909	-0.552002	99
Es	0.914755	-3.013073	-0.125646	99
Es	-0.942672	1.127132	-0.679259	99
Es	-0.350685	-0.266114	0.540870	99
Es	0.490906	2.558650	-0.437853	99
Es	-0.398080	0.849255	-0.285733	99
Es	-0.681161	1.196467	-0.564115	99
Es	0.287631	-2.010180	1.147498	99
Es	-0.360798	2.852531	-1.372116	99
Es	-0.034558	-0.467685	-0.014719	99
Es	0.024447	0.273668	0.161139	99
Es	-0.167980	2.452147	-0.742705	99
Es	-0.545059	4.067725	-1.508924	99
Es	-0.827866	3.394811	-1.417880	99
Es	-1.059492	-1.161111	0.065134	99
Es	-0.426769	-0.971724	0.351823	99
Es	0.258162	-3.283965	0.198181	99
Es	-0.466569	1.675459	-0.627500	99
Es	0.531695	-3.180344	0.320706	99
Es	-0.065169	-1.473785	0.743968	99
Es	0.937353	-1.742153	1.419125	99
Es	0.445894	-2.665904	0.682596	99
Es	-0.650022	3.049401	-0.814853	99
Es	-0.131139	-2.202034	1.727179	99
