42
Properties=species:S:1:pos:R:3:Z:I:1 energy=-339.9512952230672 field_type=dipole dipole="0.000000 0.000000 0.000000" charge=0
N	-0.441741	0.717506	2.815599	7
C	-0.866951	0.452446	1.632739	6
N	-0.275402	-0.469974	0.835309	7
C	-0.305261	-0.218334	-0.575281	6
C	0.809669	0.711096	-1.071361	6
O	1.305509	-0.301514	-1.981531	8
C	0.419029	-1.288774	-1.400451	6
H	-1.040271	1.433146	3.243778	1
H	-1.746261	0.958476	1.196179	1
H	0.613789	-0.785624	1.216199	1
H	-1.305311	0.019116	-0.953411	1
H	1.577689	0.993516	-0.344101	1
H	0.465809	1.601046	-1.606491	1
H	-0.193892	-1.778234	-2.162721	1
H	0.983599	-2.043894	-0.844451	1
Es	0.798795	-1.800924	-1.005265	99
Es	-0.986476	-0.050311	-0.819863	99
Es	-0.275153	-0.469438	0.835305	99
Es	-1.463458	0.793116	1.320289	99
Es	0.261143	-0.639258	1.041622	99
Es	-0.001519	-0.812038	-0.953381	99
Es	-0.002715	-1.627034	-1.919444	99
Es	-0.151581	0.565699	2.978392	99
Es	0.981814	-0.698282	-1.774156	99
Es	1.599393	-0.370335	-1.915794	99
Es	1.325169	0.898686	-0.561786	99
Es	-0.305225	-0.218369	-0.575128	99
Es	0.573186	1.325188	-1.435103	99
Es	-0.287581	-0.344972	0.236689	99
Es	-0.791314	0.422380	2.443713	99
Es	1.138857	0.101381	-1.644079	99
Es	0.809730	0.710933	-1.071505	99
Es	-0.471539	-0.016706	1.144689	99
Es	0.217705	0.318245	-0.773648	99
Es	-0.458557	0.834225	2.245325	99
Es	0.419142	-1.288603	-1.400522	99
Es	-0.517591	-0.641564	0.939377	99
Es	-0.812510	1.147250	3.064381	99
Es	1.193908	-0.235066	-2.258272	99
Es	-0.866945	0.452343	1.632599	99
Es	-0.442129	0.717670	2.815319	99
Es	1.305279	-0.301512	-1.981269	99
42
Properties=species:S:1:pos:R:3:Z:I:1 energy=-339.9512952230672 field_type=dipole dipole="0.000000 0.000000 0.000000" charge=0
N	-0.441741	0.717506	2.815599	7
C	-0.866951	0.452446	1.632739	6
N	-0.275402	-0.469974	0.835309	7
C	-0.305261	-0.218334	-0.575281	6
C	0.809669	0.711096	-1.071361	6
O	1.305509	-0.301514	-1.981531	8
C	0.419029	-1.288774	-1.400451	6
H	-1.040271	1.433146	3.243778	1
H	-1.746261	0.958476	1.196179	1
H	0.613789	-0.785624	1.216199	1
H	-1.305311	0.019116	-0.953411	1
H	1.577689	0.993516	-0.344101	1
H	0.465809	1.601046	-1.606491	1
H	-0.193892	-1.778234	-2.162721	1
H	0.983599	-2.043894	-0.844451	1
Es	-1.463233	0.792627	1.320716	99
Es	0.983195	-0.697467	-1.774577	99
Es	-0.792060	0.419839	2.443397	99
Es	-0.275172	-0.469493	0.835291	99
Es	0.259740	-0.640560	1.041439	99
Es	-0.506448	-0.631643	0.940010	99
Es	1.325429	0.899226	-0.560658	99
Es	0.798770	-1.799531	-1.005803	99
Es	1.305212	-0.301511	-1.981265	99
Es	-0.866945	0.452343	1.632595	99
Es	-0.985321	-0.049911	-0.819365	99
Es	-0.476386	-0.015892	1.148364	99
Es	-0.458841	0.833617	2.247176	99
Es	1.141873	0.102372	-1.639940	99
Es	1.587393	-0.372341	-1.909593	99
Es	0.217319	0.318640	-0.774594	99
Es	-0.810605	1.149511	3.067284	99
Es	-0.152124	0.567445	2.973814	99
Es	0.809729	0.710934	-1.071508	99
Es	0.419143	-1.288600	-1.400526	99
Es	-0.293219	-0.354089	0.232813	99
Es	0.572420	1.324270	-1.434736	99
Es	-0.442100	0.717663	2.815354	99
Es	-0.305227	-0.218369	-0.575127	99
Es	-0.003037	-1.628269	-1.920386	99
Es	1.201271	-0.235346	-2.268178	99
Es	-0.000947	-0.812760	-0.953513	99
42
Properties=species:S:1:pos:R:3:Z:I:1 energy=-339.9512952230672 field_type=dipole dipole="0.000000 0.000000 0.000000" charge=0
N	-0.441741	0.717506	2.815599	7
C	-0.866951	0.452446	1.632739	6
N	-0.275402	-0.469974	0.835309	7
C	-0.305261	-0.218334	-0.575281	6
C	0.809669	0.711096	-1.071361	6
O	1.305509	-0.301514	-1.981531	8
C	0.419029	-1.288774	-1.400451	6
H	-1.040271	1.433146	3.243778	1
H	-1.746261	0.958476	1.196179	1
H	0.613789	-0.785624	1.216199	1
H	-1.305311	0.019116	-0.953411	1
H	1.577689	0.993516	-0.344101	1
H	0.465809	1.601046	-1.606491	1
H	-0.193892	-1.778234	-2.162721	1
H	0.983599	-2.043894	-0.844451	1
Es	-0.792713	0.418066	2.444877	99
Es	1.325615	0.899558	-0.559832	99
Es	-0.808860	1.151026	3.068915	99
Es	0.809728	0.710935	-1.071510	99
Es	-0.275168	-0.469464	0.835310	99
Es	-0.500364	-0.624307	0.940563	99
Es	-0.442128	0.717671	2.815331	99
Es	0.571870	1.323633	-1.434549	99
Es	-0.866947	0.452340	1.632598	99
Es	0.983043	-0.696806	-1.775501	99
Es	-0.296882	-0.360299	0.230794	99
Es	1.305065	-0.301456	-1.981361	99
Es	1.209025	-0.236421	-2.274110	99
Es	-0.477934	-0.015380	1.149933	99
Es	1.578309	-0.373314	-1.904277	99
Es	0.419144	-1.288601	-1.400525	99
Es	1.143057	0.103482	-1.638093	99
Es	-0.305226	-0.218369	-0.575130	99
Es	0.798769	-1.798528	-1.006238	99
Es	-0.000903	-0.813263	-0.953515	99
Es	-0.460154	0.832463	2.247369	99
Es	-0.984598	-0.049590	-0.818931	99
Es	-0.151725	0.569295	2.970491	99
Es	0.258535	-0.642048	1.041455	99
Es	-0.003126	-1.629110	-1.921078	99
Es	0.217423	0.318837	-0.775430	99
Es	-1.463025	0.792357	1.320931	99
42
Properties=species:S:1:pos:R:3:Z:I:1 energy=-339.9512952230672 field_type=dipole dipole="0.000000 0.000000 0.000000" charge=0
N	-0.441741	0.717506	2.815599	7
C	-0.866951	0.452446	1.632739	6
N	-0.275402	-0.469974	0.835309	7
C	-0.305261	-0.218334	-0.575281	6
C	0.809669	0.711096	-1.071361	6
O	1.305509	-0.301514	-1.981531	8
C	0.419029	-1.288774	-1.400451	6
H	-1.040271	1.433146	3.243778	1
H	-1.746261	0.958476	1.196179	1
H	0.613789	-0.785624	1.216199	1
H	-1.305311	0.019116	-0.953411	1
H	1.577689	0.993516	-0.344101	1
H	0.465809	1.601046	-1.606491	1
H	-0.193892	-1.778234	-2.162721	1
H	0.983599	-2.043894	-0.844451	1
Es	-0.984002	-0.049376	-0.818620	99
Es	-0.793066	0.417530	2.442543	99
Es	0.809727	0.710935	-1.071511	99
Es	1.305333	-0.301530	-1.981139	99
Es	0.798689	-1.797884	-1.006475	99
Es	-0.866944	0.452345	1.632595	99
Es	-1.463124	0.792037	1.321198	99
Es	1.572574	-0.373689	-1.904037	99
Es	0.419143	-1.288601	-1.400525	99
Es	0.571521	1.323241	-1.434443	99
Es	-0.459716	0.832992	2.249754	99
Es	0.217422	0.319090	-0.776016	99
Es	-0.000797	-0.813537	-0.953712	99
Es	-0.442144	0.717684	2.815317	99
Es	-0.275153	-0.469390	0.835334	99
Es	1.145690	0.103111	-1.635337	99
Es	-0.152559	0.569005	2.968908	99
Es	0.984246	-0.696263	-1.775073	99
Es	-0.305225	-0.218370	-0.575129	99
Es	0.258054	-0.641791	1.040792	99
Es	1.325659	0.899692	-0.559185	99
Es	-0.807704	1.151770	3.070262	99
Es	-0.300072	-0.364830	0.229857	99
Es	1.210365	-0.236456	-2.277615	99
Es	-0.003109	-1.629640	-1.921479	99
Es	-0.478368	-0.014953	1.150690	99
Es	-0.496611	-0.620417	0.941529	99
42
Properties=species:S:1:pos:R:3:Z:I:1 energy=-339.9512952230672 field_type=dipole dipole="0.000000 0.000000 0.000000" charge=0
N	-0.441741	0.717506	2.815599	7
C	-0.866951	0.452446	1.632739	6
N	-0.275402	-0.469974	0.835309	7
C	-0.305261	-0.218334	-0.575281	6
C	0.809669	0.711096	-1.071361	6
O	1.305509	-0.301514	-1.981531	8
C	0.419029	-1.288774	-1.400451	6
H	-1.040271	1.433146	3.243778	1
H	-1.746261	0.958476	1.196179	1
H	0.613789	-0.785624	1.216199	1
H	-1.305311	0.019116	-0.953411	1
H	1.577689	0.993516	-0.344101	1
H	0.465809	1.601046	-1.606491	1
H	-0.193892	-1.778234	-2.162721	1
H	0.983599	-2.043894	-0.844451	1
Es	0.419144	-1.288600	-1.400525	99
Es	-0.003136	-1.630017	-1.921753	99
Es	0.798639	-1.797419	-1.006581	99
Es	1.147671	0.103013	-1.633597	99
Es	-0.477177	-0.013958	1.150262	99
Es	0.985825	-0.696071	-1.774015	99
Es	-0.459168	0.832804	2.250545	99
Es	1.571213	-0.373703	-1.906381	99
Es	-0.305225	-0.218371	-0.575130	99
Es	-0.793349	0.417127	2.441998	99
Es	0.217676	0.319155	-0.776443	99
Es	-0.000905	-0.813673	-0.953854	99
Es	-0.153709	0.568967	2.967702	99
Es	-1.463007	0.791918	1.321319	99
Es	-0.866948	0.452340	1.632597	99
Es	-0.806745	1.152619	3.071155	99
Es	-0.302749	-0.369248	0.229191	99
Es	-0.983542	-0.049190	-0.818428	99
Es	1.305290	-0.301505	-1.981296	99
Es	0.809729	0.710935	-1.071508	99
Es	0.571197	1.322913	-1.434367	99
Es	-0.442116	0.717676	2.815346	99
Es	1.207980	-0.236742	-2.277818	99
Es	-0.494618	-0.616181	0.942881	99
Es	-0.275166	-0.469387	0.835341	99
Es	1.325712	0.899858	-0.558786	99
Es	0.257315	-0.642553	1.040631	99
42
Properties=species:S:1:pos:R:3:Z:I:1 energy=-339.9512952230672 field_type=dipole dipole="0.000000 0.000000 0.000000" charge=0
N	-0.441741	0.717506	2.815599	7
C	-0.866951	0.452446	1.632739	6
N	-0.275402	-0.469974	0.835309	7
C	-0.305261	-0.218334	-0.575281	6
C	0.809669	0.711096	-1.071361	6
O	1.305509	-0.301514	-1.981531	8
C	0.419029	-1.288774	-1.400451	6
H	-1.040271	1.433146	3.243778	1
H	-1.746261	0.958476	1.196179	1
H	0.613789	-0.785624	1.216199	1
H	-1.305311	0.019116	-0.953411	1
H	1.577689	0.993516	-0.344101	1
H	0.465809	1.601046	-1.606491	1
H	-0.193892	-1.778234	-2.162721	1
H	0.983599	-2.043894	-0.844451	1
Es	-0.305225	-0.218372	-0.575129	99
Es	-0.477301	-0.013730	1.150708	99
Es	-0.153071	0.569565	2.966812	99
Es	-0.491968	-0.612674	0.942976	99
Es	0.809728	0.710936	-1.071508	99
Es	0.419144	-1.288601	-1.400525	99
Es	1.325717	0.900017	-0.558436	99
Es	-0.442127	0.717676	2.815331	99
Es	-0.806241	1.152817	3.071474	99
Es	1.305238	-0.301515	-1.981275	99
Es	-0.275191	-0.469269	0.835420	99
Es	-1.462940	0.791800	1.321417	99
Es	1.209395	-0.237672	-2.280027	99
Es	-0.459959	0.832757	2.251506	99
Es	0.217658	0.319324	-0.776822	99
Es	1.567056	-0.372789	-1.906104	99
Es	-0.866945	0.452342	1.632594	99
Es	0.571012	1.322593	-1.434293	99
Es	-0.793594	0.416560	2.441576	99
Es	-0.003173	-1.630268	-1.921980	99
Es	0.256679	-0.643055	1.040572	99
Es	0.987143	-0.696445	-1.772752	99
Es	-0.304758	-0.372506	0.228673	99
Es	1.148983	0.103268	-1.632848	99
Es	0.798582	-1.797056	-1.006797	99
Es	-0.983205	-0.049139	-0.818201	99
Es	-0.000806	-0.813860	-0.953876	99
42
Properties=species:S:1:pos:R:3:Z:I:1 energy=-339.9512952230672 field_type=dipole dipole="0.000000 0.000000 0.000000" charge=0
N	-0.441741	0.717506	2.815599	7
C	-0.866951	0.452446	1.632739	6
N	-0.275402	-0.469974	0.835309	7
C	-0.305261	-0.218334	-0.575281	6
C	0.809669	0.711096	-1.071361	6
O	1.305509	-0.301514	-1.981531	8
C	0.419029	-1.288774	-1.400451	6
H	-1.040271	1.433146	3.243778	1
H	-1.746261	0.958476	1.196179	1
H	0.613789	-0.785624	1.216199	1
H	-1.305311	0.019116	-0.953411	1
H	1.577689	0.993516	-0.344101	1
H	0.465809	1.601046	-1.606491	1
H	-0.193892	-1.778234	-2.162721	1
H	0.983599	-2.043894	-0.844451	1
Es	0.986683	-0.696255	-1.773235	99
Es	1.150335	0.103035	-1.631758	99
Es	-0.805480	1.153519	3.072018	99
Es	0.419143	-1.288603	-1.400524	99
Es	-0.003216	-1.630397	-1.922108	99
Es	1.325745	0.900103	-0.558151	99
Es	-1.462945	0.791711	1.321484	99
Es	-0.866948	0.452339	1.632596	99
Es	-0.305225	-0.218371	-0.575129	99
Es	-0.490055	-0.610601	0.942743	99
Es	0.217831	0.319359	-0.777082	99
Es	0.798601	-1.796871	-1.006859	99
Es	0.570800	1.322380	-1.434265	99
Es	0.256365	-0.643352	1.040361	99
Es	-0.983064	-0.049022	-0.818172	99
Es	-0.306105	-0.374479	0.228583	99
Es	-0.275268	-0.469127	0.835525	99
Es	-0.442155	0.717678	2.815294	99
Es	1.211554	-0.237489	-2.281568	99
Es	-0.477570	-0.013655	1.151237	99
Es	-0.000723	-0.813824	-0.953938	99
Es	1.305270	-0.301500	-1.981260	99
Es	-0.459548	0.832561	2.252622	99
Es	-0.793717	0.416113	2.440688	99
Es	0.809726	0.710938	-1.071505	99
Es	-0.153948	0.569637	2.966016	99
Es	1.563741	-0.373123	-1.905128	99
42
Properties=species:S:1:pos:R:3:Z:I:1 energy=-339.9512952230672 field_type=dipole dipole="0.000000 0.000000 0.000000" charge=0
N	-0.441741	0.717506	2.815599	7
C	-0.866951	0.452446	1.632739	6
N	-0.275402	-0.469974	0.835309	7
C	-0.305261	-0.218334	-0.575281	6
C	0.809669	0.711096	-1.071361	6
O	1.305509	-0.301514	-1.981531	8
C	0.419029	-1.288774	-1.400451	6
H	-1.040271	1.433146	3.243778	1
H	-1.746261	0.958476	1.196179	1
H	0.613789	-0.785624	1.216199	1
H	-1.305311	0.019116	-0.953411	1
H	1.577689	0.993516	-0.344101	1
H	0.465809	1.601046	-1.606491	1
H	-0.193892	-1.778234	-2.162721	1
H	0.983599	-2.043894	-0.844451	1
Es	-0.982760	-0.048949	-0.817908	99
Es	1.305288	-0.301496	-1.981285	99
Es	0.256027	-0.644046	1.040440	99
Es	0.985618	-0.695196	-1.773920	99
Es	-0.805244	1.153478	3.072372	99
Es	-0.488801	-0.607779	0.943059	99
Es	-0.275153	-0.469282	0.835381	99
Es	-0.460161	0.832615	2.253266	99
Es	0.809729	0.710935	-1.071508	99
Es	-0.866947	0.452340	1.632597	99
Es	1.560681	-0.373912	-1.902256	99
Es	-0.307520	-0.376664	0.228370	99
Es	0.570709	1.322344	-1.434229	99
Es	-0.793702	0.415282	2.440496	99
Es	-0.000856	-0.813987	-0.954160	99
Es	-0.305225	-0.218372	-0.575129	99
Es	1.215313	-0.238149	-2.283658	99
Es	1.325697	0.900028	-0.557897	99
Es	1.150529	0.103355	-1.631732	99
Es	0.419143	-1.288598	-1.400527	99
Es	-0.477249	-0.013443	1.151212	99
Es	0.798601	-1.796722	-1.006887	99
Es	-0.442141	0.717677	2.815316	99
Es	-0.003247	-1.630484	-1.922263	99
Es	0.217922	0.319521	-0.777382	99
Es	-1.462906	0.791661	1.321566	99
Es	-0.153517	0.570549	2.965153	99
42
Properties=species:S:1:pos:R:3:Z:I:1 energy=-339.9512952230672 field_type=dipole dipole="0.000000 0.000000 0.000000" charge=0
N	-0.441741	0.717506	2.815599	7
C	-0.866951	0.452446	1.632739	6
N	-0.275402	-0.469974	0.835309	7
C	-0.305261	-0.218334	-0.575281	6
C	0.809669	0.711096	-1.071361	6
O	1.305509	-0.301514	-1.981531	8
C	0.419029	-1.288774	-1.400451	6
H	-1.040271	1.433146	3.243778	1
H	-1.746261	0.958476	1.196179	1
H	0.613789	-0.785624	1.216199	1
H	-1.305311	0.019116	-0.953411	1
H	1.577689	0.993516	-0.344101	1
H	0.465809	1.601046	-1.606491	1
H	-0.193892	-1.778234	-2.162721	1
H	0.983599	-2.043894	-0.844451	1
Es	0.809729	0.710935	-1.071506	99
Es	-0.000820	-0.814036	-0.954151	99
Es	-0.866948	0.452339	1.632597	99
Es	-0.153763	0.570349	2.963974	99
Es	-0.804296	1.153814	3.073297	99
Es	-0.308732	-0.378421	0.228394	99
Es	0.798587	-1.796551	-1.006923	99
Es	-0.793997	0.415475	2.440947	99
Es	0.419144	-1.288600	-1.400526	99
Es	-1.462897	0.791625	1.321571	99
Es	1.214548	-0.238828	-2.284499	99
Es	1.305125	-0.301475	-1.981325	99
Es	-0.442141	0.717681	2.815321	99
Es	-0.305224	-0.218371	-0.575131	99
Es	-0.275209	-0.469193	0.835452	99
Es	-0.460487	0.832349	2.253032	99
Es	-0.982677	-0.048906	-0.817916	99
Es	0.986715	-0.694412	-1.773273	99
Es	-0.476228	-0.012825	1.150775	99
Es	0.255820	-0.643782	1.040076	99
Es	0.218099	0.319517	-0.777472	99
Es	1.559455	-0.373955	-1.902877	99
Es	1.151477	0.103193	-1.630797	99
Es	0.570518	1.322239	-1.434232	99
Es	-0.003222	-1.630620	-1.922357	99
Es	1.325712	0.900105	-0.557801	99
Es	-0.488460	-0.606939	0.943838	99
42
Properties=species:S:1:pos:R:3:Z:I:1 energy=-339.9512952230672 field_type=dipole dipole="0.000000 0.000000 0.000000" charge=0
N	-0.441741	0.717506	2.815599	7
C	-0.866951	0.452446	1.632739	6
N	-0.275402	-0.469974	0.835309	7
C	-0.305261	-0.218334	-0.575281	6
C	0.809669	0.711096	-1.071361	6
O	1.305509	-0.301514	-1.981531	8
C	0.419029	-1.288774	-1.400451	6
H	-1.040271	1.433146	3.243778	1
H	-1.746261	0.958476	1.196179	1
H	0.613789	-0.785624	1.216199	1
H	-1.305311	0.019116	-0.953411	1
H	1.577689	0.993516	-0.344101	1
H	0.465809	1.601046	-1.606491	1
H	-0.193892	-1.778234	-2.162721	1
H	0.983599	-2.043894	-0.844451	1
Es	-0.003219	-1.630762	-1.922441	99
Es	0.570406	1.322082	-1.434148	99
Es	-1.462914	0.791579	1.321678	99
Es	-0.476143	-0.012731	1.150851	99
Es	-0.487283	-0.604120	0.943756	99
Es	-0.793907	0.415179	2.440573	99
Es	-0.866946	0.452341	1.632595	99
Es	1.215680	-0.238414	-2.285106	99
Es	1.305328	-0.301498	-1.981365	99
Es	-0.275152	-0.469446	0.835300	99
Es	-0.982572	-0.048970	-0.817799	99
Es	-0.153580	0.570666	2.963742	99
Es	0.419144	-1.288600	-1.400526	99
Es	-0.804227	1.153952	3.073283	99
Es	-0.305225	-0.218368	-0.575127	99
Es	0.798541	-1.796361	-1.007023	99
Es	1.557035	-0.372984	-1.902870	99
Es	-0.460722	0.832242	2.253624	99
Es	0.255492	-0.644786	1.040306	99
Es	-0.309768	-0.380073	0.228267	99
Es	0.218236	0.319699	-0.777717	99
Es	0.987046	-0.695635	-1.773115	99
Es	1.325727	0.900146	-0.557623	99
Es	-0.442141	0.717679	2.815314	99
Es	1.152113	0.102968	-1.630335	99
Es	-0.000848	-0.814014	-0.954103	99
Es	0.809728	0.710934	-1.071506	99
42
Properties=species:S:1:pos:R:3:Z:I:1 energy=-339.9512952230672 field_type=dipole dipole="0.000000 0.000000 0.000000" charge=0
N	-0.441741	0.717506	2.815599	7
C	-0.866951	0.452446	1.632739	6
N	-0.275402	-0.469974	0.835309	7
C	-0.305261	-0.218334	-0.575281	6
C	0.809669	0.711096	-1.071361	6
O	1.305509	-0.301514	-1.981531	8
C	0.419029	-1.288774	-1.400451	6
H	-1.040271	1.433146	3.243778	1
H	-1.746261	0.958476	1.196179	1
H	0.613789	-0.785624	1.216199	1
H	-1.305311	0.019116	-0.953411	1
H	1.577689	0.993516	-0.344101	1
H	0.465809	1.601046	-1.606491	1
H	-0.193892	-1.778234	-2.162721	1
H	0.983599	-2.043894	-0.844451	1
Es	-0.003260	-1.630765	-1.922508	99
Es	1.215537	-0.239137	-2.285838	99
Es	0.987579	-0.695094	-1.772480	99
Es	0.218132	0.319693	-0.777912	99
Es	-0.866946	0.452340	1.632596	99
Es	1.152984	0.103074	-1.629921	99
Es	0.255482	-0.644072	1.040089	99
Es	-0.804083	1.154050	3.073301	99
Es	1.555867	-0.373005	-1.903131	99
Es	-1.462872	0.791535	1.321651	99
Es	0.798560	-1.796309	-1.007116	99
Es	-0.153439	0.571127	2.963436	99
Es	0.419143	-1.288601	-1.400525	99
Es	0.570413	1.322074	-1.434208	99
Es	-0.793987	0.414782	2.440940	99
Es	0.809728	0.710934	-1.071507	99
Es	-0.275164	-0.469349	0.835358	99
Es	-0.305224	-0.218371	-0.575130	99
Es	-0.000765	-0.814116	-0.954112	99
Es	-0.486397	-0.603606	0.943979	99
Es	-0.476201	-0.012542	1.150820	99
Es	1.325637	0.900105	-0.557446	99
Es	-0.442125	0.717662	2.815307	99
Es	-0.982452	-0.048908	-0.817730	99
Es	-0.460922	0.832152	2.253546	99
Es	1.305172	-0.301474	-1.981308	99
Es	-0.310568	-0.381477	0.228335	99
42
Properties=species:S:1:pos:R:3:Z:I:1 energy=-339.9512952230672 field_type=dipole dipole="0.000000 0.000000 0.000000" charge=0
N	-0.441741	0.717506	2.815599	7
C	-0.866951	0.452446	1.632739	6
N	-0.275402	-0.469974	0.835309	7
C	-0.305261	-0.218334	-0.575281	6
C	0.809669	0.711096	-1.071361	6
O	1.305509	-0.301514	-1.981531	8
C	0.419029	-1.288774	-1.400451	6
H	-1.040271	1.433146	3.243778	1
H	-1.746261	0.958476	1.196179	1
H	0.613789	-0.785624	1.216199	1
H	-1.305311	0.019116	-0.953411	1
H	1.577689	0.993516	-0.344101	1
H	0.465809	1.601046	-1.606491	1
H	-0.193892	-1.778234	-2.162721	1
H	0.983599	-2.043894	-0.844451	1
Es	-0.866949	0.452338	1.632598	99
Es	0.218155	0.319721	-0.777906	99
Es	-0.803621	1.154095	3.073912	99
Es	-1.462881	0.791481	1.321709	99
Es	0.798492	-1.796182	-1.007124	99
Es	-0.442149	0.717681	2.815303	99
Es	0.809726	0.710931	-1.071502	99
Es	-0.000797	-0.814157	-0.954137	99
Es	-0.305224	-0.218372	-0.575131	99
Es	-0.982345	-0.048914	-0.817720	99
Es	-0.003226	-1.630865	-1.922577	99
Es	0.254877	-0.645146	1.040220	99
Es	-0.475451	-0.012148	1.150692	99
Es	-0.310895	-0.382203	0.228317	99
Es	-0.794046	0.414921	2.439649	99
Es	-0.460630	0.832442	2.254609	99
Es	-0.486189	-0.602401	0.943809	99
Es	-0.154062	0.570694	2.963033	99
Es	1.325711	0.900266	-0.557467	99
Es	1.555793	-0.373064	-1.904591	99
Es	1.213157	-0.239496	-2.285784	99
Es	1.305404	-0.301560	-1.981367	99
Es	0.988508	-0.694487	-1.771534	99
Es	-0.275292	-0.469137	0.835537	99
Es	1.154261	0.102976	-1.629391	99
Es	0.570357	1.321892	-1.434145	99
Es	0.419144	-1.288600	-1.400525	99
42
Properties=species:S:1:pos:R:3:Z:I:1 energy=-339.9512952230672 field_type=dipole dipole="0.000000 0.000000 0.000000" charge=0
N	-0.441741	0.717506	2.815599	7
C	-0.866951	0.452446	1.632739	6
N	-0.275402	-0.469974	0.835309	7
C	-0.305261	-0.218334	-0.575281	6
C	0.809669	0.711096	-1.071361	6
O	1.305509	-0.301514	-1.981531	8
C	0.419029	-1.288774	-1.400451	6
H	-1.040271	1.433146	3.243778	1
H	-1.746261	0.958476	1.196179	1
H	0.613789	-0.785624	1.216199	1
H	-1.305311	0.019116	-0.953411	1
H	1.577689	0.993516	-0.344101	1
H	0.465809	1.601046	-1.606491	1
H	-0.193892	-1.778234	-2.162721	1
H	0.983599	-2.043894	-0.844451	1
Es	0.988357	-0.694896	-1.771948	99
Es	-0.442138	0.717674	2.815329	99
Es	-0.305221	-0.218372	-0.575135	99
Es	1.325706	0.900285	-0.557365	99
Es	-0.866948	0.452339	1.632597	99
Es	1.154361	0.102731	-1.628912	99
Es	-0.275171	-0.469469	0.835307	99
Es	0.419145	-1.288600	-1.400526	99
Es	-0.311337	-0.383031	0.228280	99
Es	-0.803637	1.154220	3.073965	99
Es	-0.460713	0.832314	2.255080	99
Es	0.809728	0.710935	-1.071505	99
Es	0.570222	1.321838	-1.434146	99
Es	-0.485815	-0.601271	0.944029	99
Es	1.213850	-0.239131	-2.285839	99
Es	1.555130	-0.372957	-1.904577	99
Es	-0.003264	-1.630924	-1.922661	99
Es	-1.462836	0.791521	1.321675	99
Es	-0.793920	0.414700	2.439334	99
Es	0.218271	0.319788	-0.777977	99
Es	-0.154068	0.570912	2.962809	99
Es	-0.982252	-0.048927	-0.817741	99
Es	0.254720	-0.645147	1.040303	99
Es	-0.475450	-0.012173	1.150755	99
Es	0.798490	-1.796070	-1.007185	99
Es	-0.000659	-0.814091	-0.954141	99
Es	1.305279	-0.301494	-1.981322	99
42
Properties=species:S:1:pos:R:3:Z:I:1 energy=-339.9512952230672 field_type=dipole dipole="0.000000 0.000000 0.000000" charge=0
N	-0.441741	0.717506	2.815599	7
C	-0.866951	0.452446	1.632739	6
N	-0.275402	-0.469974	0.835309	7
C	-0.305261	-0.218334	-0.575281	6
C	0.809669	0.711096	-1.071361	6
O	1.305509	-0.301514	-1.981531	8
C	0.419029	-1.288774	-1.400451	6
H	-1.040271	1.433146	3.243778	1
H	-1.746261	0.958476	1.196179	1
H	0.613789	-0.785624	1.216199	1
H	-1.305311	0.019116	-0.953411	1
H	1.577689	0.993516	-0.344101	1
H	0.465809	1.601046	-1.606491	1
H	-0.193892	-1.778234	-2.162721	1
H	0.983599	-2.043894	-0.844451	1
Es	0.254820	-0.644836	1.040023	99
Es	0.570091	1.321841	-1.434153	99
Es	0.987134	-0.694194	-1.772689	99
Es	1.305311	-0.301530	-1.981193	99
Es	-0.794327	0.414463	2.440608	99
Es	0.798545	-1.796042	-1.007248	99
Es	1.153412	0.103144	-1.629598	99
Es	1.552713	-0.373306	-1.901350	99
Es	-0.982111	-0.048790	-0.817519	99
Es	-0.461400	0.831883	2.254400	99
Es	-1.462782	0.791443	1.321708	99
Es	-0.803128	1.154523	3.073851	99
Es	-0.275174	-0.469282	0.835389	99
Es	-0.476017	-0.012369	1.151264	99
Es	-0.003339	-1.630918	-1.922685	99
Es	-0.000850	-0.814300	-0.954208	99
Es	-0.311943	-0.383606	0.228317	99
Es	-0.305224	-0.218372	-0.575129	99
Es	0.809728	0.710935	-1.071507	99
Es	-0.866949	0.452338	1.632598	99
Es	-0.484730	-0.600915	0.943659	99
Es	1.218271	-0.239841	-2.287749	99
Es	0.419145	-1.288600	-1.400526	99
Es	-0.442148	0.717683	2.815317	99
Es	-0.153402	0.571337	2.962316	99
Es	0.218541	0.319860	-0.778332	99
Es	1.325644	0.900156	-0.557080	99
42
Properties=species:S:1:pos:R:3:Z:I:1 energy=-339.9512952230672 field_type=dipole dipole="0.000000 0.000000 0.000000" charge=0
N	-0.441741	0.717506	2.815599	7
C	-0.866951	0.452446	1.632739	6
N	-0.275402	-0.469974	0.835309	7
C	-0.305261	-0.218334	-0.575281	6
C	0.809669	0.711096	-1.071361	6
O	1.305509	-0.301514	-1.981531	8
C	0.419029	-1.288774	-1.400451	6
H	-1.040271	1.433146	3.243778	1
H	-1.746261	0.958476	1.196179	1
H	0.613789	-0.785624	1.216199	1
H	-1.305311	0.019116	-0.953411	1
H	1.577689	0.993516	-0.344101	1
H	0.465809	1.601046	-1.606491	1
H	-0.193892	-1.778234	-2.162721	1
H	0.983599	-2.043894	-0.844451	1
Es	0.798499	-1.795898	-1.007151	99
Es	-0.461317	0.832076	2.254947	99
Es	1.155485	0.102634	-1.628264	99
Es	-0.153622	0.571045	2.962233	99
Es	0.419144	-1.288600	-1.400526	99
Es	-0.485359	-0.599974	0.944112	99
Es	0.254389	-0.645732	1.040296	99
Es	1.305275	-0.301500	-1.981309	99
Es	-0.982086	-0.048815	-0.817510	99
Es	-0.474867	-0.011790	1.150546	99
Es	1.216883	-0.239402	-2.287665	99
Es	-1.462795	0.791442	1.321730	99
Es	-0.312013	-0.384250	0.228318	99
Es	0.809728	0.710935	-1.071505	99
Es	-0.000882	-0.814244	-0.954316	99
Es	-0.275170	-0.469272	0.835390	99
Es	-0.442145	0.717680	2.815317	99
Es	1.325629	0.900206	-0.557070	99
Es	1.551965	-0.373882	-1.902544	99
Es	0.570114	1.321764	-1.434100	99
Es	-0.305225	-0.218373	-0.575129	99
Es	0.987269	-0.693635	-1.772837	99
Es	-0.866948	0.452339	1.632597	99
Es	-0.803054	1.154440	3.074130	99
Es	0.218466	0.319886	-0.778344	99
Es	-0.003238	-1.631087	-1.922693	99
Es	-0.794296	0.414710	2.439832	99
42
Properties=species:S:1:pos:R:3:Z:I:1 energy=-339.9512952230672 field_type=dipole dipole="0.000000 0.000000 0.000000" charge=0
N	-0.441741	0.717506	2.815599	7
C	-0.866951	0.452446	1.632739	6
N	-0.275402	-0.469974	0.835309	7
C	-0.305261	-0.218334	-0.575281	6
C	0.809669	0.711096	-1.071361	6
O	1.305509	-0.301514	-1.981531	8
C	0.419029	-1.288774	-1.400451	6
H	-1.040271	1.433146	3.243778	1
H	-1.746261	0.958476	1.196179	1
H	0.613789	-0.785624	1.216199	1
H	-1.305311	0.019116	-0.953411	1
H	1.577689	0.993516	-0.344101	1
H	0.465809	1.601046	-1.606491	1
H	-0.193892	-1.778234	-2.162721	1
H	0.983599	-2.043894	-0.844451	1
Es	-0.000692	-0.814207	-0.954388	99
Es	1.551314	-0.372919	-1.903386	99
Es	1.155510	0.102355	-1.627825	99
Es	1.325653	0.900178	-0.557061	99
Es	-0.442141	0.717681	2.815310	99
Es	-0.982063	-0.048726	-0.817548	99
Es	0.809728	0.710935	-1.071509	99
Es	0.798518	-1.795893	-1.007172	99
Es	-0.153819	0.571177	2.962276	99
Es	-0.461120	0.831871	2.255027	99
Es	-0.484146	-0.599661	0.943856	99
Es	0.570079	1.321796	-1.434121	99
Es	-1.462813	0.791390	1.321748	99
Es	-0.866948	0.452338	1.632597	99
Es	-0.003284	-1.631057	-1.922745	99
Es	0.987978	-0.694759	-1.772604	99
Es	-0.275166	-0.469288	0.835381	99
Es	-0.794338	0.414471	2.439936	99
Es	-0.312658	-0.384972	0.228387	99
Es	1.305348	-0.301503	-1.981372	99
Es	-0.305224	-0.218370	-0.575130	99
Es	1.216603	-0.239032	-2.287366	99
Es	-0.802948	1.154736	3.073924	99
Es	-0.475637	-0.012085	1.151027	99
Es	0.218364	0.319760	-0.778286	99
Es	0.254585	-0.644911	1.040054	99
Es	0.419143	-1.288602	-1.400525	99
42
Properties=species:S:1:pos:R:3:Z:I:1 energy=-339.9512952230672 field_type=dipole dipole="0.000000 0.000000 0.000000" charge=0
N	-0.441741	0.717506	2.815599	7
C	-0.866951	0.452446	1.632739	6
N	-0.275402	-0.469974	0.835309	7
C	-0.305261	-0.218334	-0.575281	6
C	0.809669	0.711096	-1.071361	6
O	1.305509	-0.301514	-1.981531	8
C	0.419029	-1.288774	-1.400451	6
H	-1.040271	1.433146	3.243778	1
H	-1.746261	0.958476	1.196179	1
H	0.613789	-0.785624	1.216199	1
H	-1.305311	0.019116	-0.953411	1
H	1.577689	0.993516	-0.344101	1
H	0.465809	1.601046	-1.606491	1
H	-0.193892	-1.778234	-2.162721	1
H	0.983599	-2.043894	-0.844451	1
Es	-0.442141	0.717683	2.815323	99
Es	0.988104	-0.694341	-1.772112	99
Es	0.570039	1.321636	-1.434068	99
Es	-0.802745	1.154626	3.074259	99
Es	0.254247	-0.645700	1.040111	99
Es	1.305232	-0.301500	-1.981310	99
Es	-0.313179	-0.385660	0.228377	99
Es	-0.461179	0.832098	2.255573	99
Es	1.325669	0.900261	-0.556965	99
Es	1.154758	0.102939	-1.628678	99
Es	1.550890	-0.372838	-1.902201	99
Es	-0.794335	0.414407	2.439325	99
Es	-0.275161	-0.469423	0.835319	99
Es	0.419144	-1.288600	-1.400526	99
Es	1.217763	-0.240082	-2.288250	99
Es	-0.484201	-0.598361	0.944119	99
Es	-0.153924	0.571205	2.961953	99
Es	-1.462805	0.791362	1.321785	99
Es	-0.866950	0.452338	1.632598	99
Es	-0.000737	-0.814210	-0.954312	99
Es	0.798490	-1.795833	-1.007220	99
Es	-0.474782	-0.011845	1.150807	99
Es	-0.003315	-1.631081	-1.922786	99
Es	-0.982012	-0.048846	-0.817514	99
Es	-0.305226	-0.218372	-0.575132	99
Es	0.809729	0.710935	-1.071507	99
Es	0.218454	0.319907	-0.778479	99
42
Properties=species:S:1:pos:R:3:Z:I:1 energy=-339.9512952230672 field_type=dipole dipole="0.000000 0.000000 0.000000" charge=0
N	-0.441741	0.717506	2.815599	7
C	-0.866951	0.452446	1.632739	6
N	-0.275402	-0.469974	0.835309	7
C	-0.305261	-0.218334	-0.575281	6
C	0.809669	0.711096	-1.071361	6
O	1.305509	-0.301514	-1.981531	8
C	0.419029	-1.288774	-1.400451	6
H	-1.040271	1.433146	3.243778	1
H	-1.746261	0.958476	1.196179	1
H	0.613789	-0.785624	1.216199	1
H	-1.305311	0.019116	-0.953411	1
H	1.577689	0.993516	-0.344101	1
H	0.465809	1.601046	-1.606491	1
H	-0.193892	-1.778234	-2.162721	1
H	0.983599	-2.043894	-0.844451	1
Es	-0.154286	0.571353	2.961187	99
Es	-0.475119	-0.011831	1.150553	99
Es	0.254418	-0.645457	1.040291	99
Es	-0.483950	-0.598041	0.944149	99
Es	0.809728	0.710935	-1.071506	99
Es	0.569958	1.321648	-1.434063	99
Es	-0.802286	1.154797	3.074878	99
Es	-0.866947	0.452339	1.632596	99
Es	0.989432	-0.693954	-1.770882	99
Es	-0.442146	0.717676	2.815307	99
Es	-1.462769	0.791362	1.321811	99
Es	-0.794339	0.414255	2.439820	99
Es	1.305238	-0.301509	-1.981212	99
Es	-0.305228	-0.218372	-0.575128	99
Es	-0.003321	-1.631073	-1.922824	99
Es	1.156469	0.102576	-1.627899	99
Es	0.419144	-1.288600	-1.400526	99
Es	1.551599	-0.372758	-1.904817	99
Es	1.213991	-0.240231	-2.287725	99
Es	-0.981942	-0.048831	-0.817425	99
Es	0.218545	0.319951	-0.778397	99
Es	-0.000789	-0.814247	-0.954353	99
Es	-0.275171	-0.469479	0.835302	99
Es	-0.313326	-0.386225	0.228393	99
Es	-0.461228	0.831934	2.255238	99
Es	0.798491	-1.795823	-1.007245	99
Es	1.325662	0.900309	-0.557039	99
42
Properties=species:S:1:pos:R:3:Z:I:1 energy=-339.9512952230672 field_type=dipole dipole="0.000000 0.000000 0.000000" charge=0
N	-0.441741	0.717506	2.815599	7
C	-0.866951	0.452446	1.632739	6
N	-0.275402	-0.469974	0.835309	7
C	-0.305261	-0.218334	-0.575281	6
C	0.809669	0.711096	-1.071361	6
O	1.305509	-0.301514	-1.981531	8
C	0.419029	-1.288774	-1.400451	6
H	-1.040271	1.433146	3.243778	1
H	-1.746261	0.958476	1.196179	1
H	0.613789	-0.785624	1.216199	1
H	-1.305311	0.019116	-0.953411	1
H	1.577689	0.993516	-0.344101	1
H	0.465809	1.601046	-1.606491	1
H	-0.193892	-1.778234	-2.162721	1
H	0.983599	-2.043894	-0.844451	1
Es	0.254230	-0.645551	1.040125	99
Es	-0.866949	0.452338	1.632597	99
Es	-1.462730	0.791459	1.321747	99
Es	-0.153956	0.571303	2.961715	99
Es	-0.461259	0.831979	2.255877	99
Es	0.218623	0.319966	-0.778481	99
Es	-0.313992	-0.387071	0.228418	99
Es	0.987965	-0.694162	-1.772262	99
Es	-0.794355	0.414271	2.439163	99
Es	1.218807	-0.240269	-2.288890	99
Es	1.549072	-0.372890	-1.901752	99
Es	-0.003419	-1.631104	-1.922803	99
Es	0.798500	-1.795782	-1.007169	99
Es	1.325680	0.900300	-0.556922	99
Es	-0.802594	1.154671	3.074424	99
Es	-0.475185	-0.011828	1.150899	99
Es	0.569918	1.321593	-1.434089	99
Es	1.305322	-0.301495	-1.981356	99
Es	-0.305224	-0.218371	-0.575130	99
Es	0.419145	-1.288600	-1.400525	99
Es	1.155522	0.102913	-1.628262	99
Es	-0.000726	-0.814270	-0.954466	99
Es	0.809729	0.710936	-1.071507	99
Es	-0.482920	-0.597410	0.943688	99
Es	-0.981930	-0.048768	-0.817401	99
Es	-0.275294	-0.469136	0.835539	99
Es	-0.442151	0.717682	2.815309	99
