42
Properties=species:S:1:pos:R:3:Z:I:1 energy=-339.9629047022658 field_type=dipole dipole="0.000000 0.000000 0.000000" charge=0
N	-1.420490	-1.047130	-1.148621	7
C	-1.058010	0.244580	-0.906721	6
N	-1.206290	1.169640	-1.793531	7
C	-0.420810	0.590150	0.425689	6
C	1.032700	0.244430	0.429329	6
C	1.736730	-0.159970	1.696369	6
O	1.320460	-1.129530	0.721229	8
H	-0.942400	-1.739500	-0.575581	1
H	-1.471360	-1.324230	-2.120031	1
H	-1.659940	0.779740	-2.621271	1
H	-0.959500	0.053700	1.217339	1
H	-0.542280	1.663060	0.614439	1
H	1.597780	0.738650	-0.349631	1
H	1.195730	-0.125990	2.632909	1
H	2.797690	0.042400	1.778089	1
Es	-1.124709	-1.450384	-0.816647	99
Es	-0.740364	0.397770	-0.238011	99
Es	-1.419962	-1.046997	-1.148755	99
Es	1.516640	-0.842809	1.156022	99
Es	-1.121304	1.526880	-1.764343	99
Es	-1.686031	-0.958258	-1.030835	99
Es	-1.477554	0.911112	-2.297746	99
Es	1.736628	-0.160167	1.696142	99
Es	1.368036	-0.146275	2.333669	99
Es	-1.432977	-1.200953	-1.729588	99
Es	1.173448	-0.643677	0.510511	99
Es	-1.190897	-0.516678	-1.070219	99
Es	2.458656	-0.032614	1.752928	99
Es	-0.493200	1.304630	0.548242	99
Es	-0.891055	0.749256	-1.557586	99
Es	0.293411	0.407884	0.422975	99
Es	-1.407503	0.854320	-1.346827	99
Es	1.055216	-1.262389	0.816509	99
Es	1.388923	0.274717	1.138157	99
Es	-0.777349	0.219149	0.957573	99
Es	-0.420804	0.590105	0.425629	99
Es	-1.058021	0.244412	-0.906642	99
Es	1.032728	0.244129	0.429429	99
Es	1.417555	0.567936	-0.102304	99
Es	-1.206399	1.169139	-1.793541	99
Es	1.566519	-1.225676	0.562018	99
Es	1.320313	-1.129169	0.721420	99
42
Properties=species:S:1:pos:R:3:Z:I:1 energy=-339.9629047022658 field_type=dipole dipole="0.000000 0.000000 0.000000" charge=0
N	-1.420490	-1.047130	-1.148621	7
C	-1.058010	0.244580	-0.906721	6
N	-1.206290	1.169640	-1.793531	7
C	-0.420810	0.590150	0.425689	6
C	1.032700	0.244430	0.429329	6
C	1.736730	-0.159970	1.696369	6
O	1.320460	-1.129530	0.721229	8
H	-0.942400	-1.739500	-0.575581	1
H	-1.471360	-1.324230	-2.120031	1
H	-1.659940	0.779740	-2.621271	1
H	-0.959500	0.053700	1.217339	1
H	-0.542280	1.663060	0.614439	1
H	1.597780	0.738650	-0.349631	1
H	1.195730	-0.125990	2.632909	1
H	2.797690	0.042400	1.778089	1
Es	-1.404012	0.852245	-1.350485	99
Es	1.736627	-0.160171	1.696143	99
Es	-0.776287	0.218410	0.958361	99
Es	-1.133551	-1.457239	-0.808001	99
Es	-1.445032	-1.202027	-1.731099	99
Es	2.457197	-0.034451	1.753454	99
Es	1.369640	-0.148023	2.333449	99
Es	1.320412	-1.129224	0.721348	99
Es	1.521084	-0.848595	1.160160	99
Es	-0.420803	0.590104	0.425629	99
Es	1.059291	-1.267222	0.812555	99
Es	-1.655904	-0.958406	-1.041604	99
Es	1.387533	0.278865	1.137869	99
Es	-0.739528	0.397380	-0.239105	99
Es	1.173785	-0.639520	0.503590	99
Es	-1.058017	0.244409	-0.906643	99
Es	-0.892939	0.748382	-1.557543	99
Es	-1.478920	0.912270	-2.299173	99
Es	1.417291	0.567928	-0.102835	99
Es	1.032728	0.244128	0.429429	99
Es	-1.419831	-1.046919	-1.148783	99
Es	-1.199840	-0.508422	-1.066135	99
Es	-1.122420	1.528426	-1.760017	99
Es	1.558047	-1.218922	0.570176	99
Es	-0.492112	1.305156	0.548708	99
Es	-1.206401	1.169135	-1.793540	99
Es	0.291905	0.407695	0.422268	99
42
Properties=species:S:1:pos:R:3:Z:I:1 energy=-339.9629047022658 field_type=dipole dipole="0.000000 0.000000 0.000000" charge=0
N	-1.420490	-1.047130	-1.148621	7
C	-1.058010	0.244580	-0.906721	6
N	-1.206290	1.169640	-1.793531	7
C	-0.420810	0.590150	0.425689	6
C	1.032700	0.244430	0.429329	6
C	1.736730	-0.159970	1.696369	6
O	1.320460	-1.129530	0.721229	8
H	-0.942400	-1.739500	-0.575581	1
H	-1.471360	-1.324230	-2.120031	1
H	-1.659940	0.779740	-2.621271	1
H	-0.959500	0.053700	1.217339	1
H	-0.542280	1.663060	0.614439	1
H	1.597780	0.738650	-0.349631	1
H	1.195730	-0.125990	2.632909	1
H	2.797690	0.042400	1.778089	1
Es	-1.058031	0.244409	-0.906639	99
Es	1.524312	-0.851885	1.162203	99
Es	2.456154	-0.035512	1.753518	99
Es	-0.739072	0.397391	-0.239637	99
Es	1.417127	0.568070	-0.103224	99
Es	1.062376	-1.271746	0.810060	99
Es	1.551792	-1.212315	0.576117	99
Es	-0.420803	0.590101	0.425629	99
Es	1.320490	-1.129185	0.721322	99
Es	-1.206399	1.169134	-1.793542	99
Es	1.174100	-0.637801	0.499160	99
Es	-1.479619	0.913092	-2.299703	99
Es	-1.453151	-1.202400	-1.731461	99
Es	1.386835	0.280676	1.137351	99
Es	-0.893279	0.747282	-1.557204	99
Es	1.370604	-0.149026	2.333448	99
Es	1.032726	0.244132	0.429426	99
Es	-1.635212	-0.959061	-1.048296	99
Es	-1.205961	-0.504032	-1.063373	99
Es	1.736628	-0.160179	1.696141	99
Es	-0.775646	0.217691	0.959178	99
Es	-1.419862	-1.046929	-1.148770	99
Es	-1.402905	0.852215	-1.352517	99
Es	-0.491340	1.305194	0.548906	99
Es	0.290880	0.407745	0.421619	99
Es	-1.123073	1.528670	-1.758195	99
Es	-1.139728	-1.460338	-0.803340	99
42
Properties=species:S:1:pos:R:3:Z:I:1 energy=-339.9629047022658 field_type=dipole dipole="0.000000 0.000000 0.000000" charge=0
N	-1.420490	-1.047130	-1.148621	7
C	-1.058010	0.244580	-0.906721	6
N	-1.206290	1.169640	-1.793531	7
C	-0.420810	0.590150	0.425689	6
C	1.032700	0.244430	0.429329	6
C	1.736730	-0.159970	1.696369	6
O	1.320460	-1.129530	0.721229	8
H	-0.942400	-1.739500	-0.575581	1
H	-1.471360	-1.324230	-2.120031	1
H	-1.659940	0.779740	-2.621271	1
H	-0.959500	0.053700	1.217339	1
H	-0.542280	1.663060	0.614439	1
H	1.597780	0.738650	-0.349631	1
H	1.195730	-0.125990	2.632909	1
H	2.797690	0.042400	1.778089	1
Es	-1.123655	1.528348	-1.756627	99
Es	2.455400	-0.036296	1.753543	99
Es	-0.420802	0.590103	0.425628	99
Es	1.736628	-0.160168	1.696139	99
Es	1.525248	-0.854009	1.164021	99
Es	0.290220	0.407822	0.421511	99
Es	-1.457934	-1.202213	-1.731344	99
Es	1.320512	-1.129156	0.721318	99
Es	-1.622703	-0.959534	-1.052214	99
Es	-0.738791	0.397159	-0.239986	99
Es	1.065919	-1.278667	0.806122	99
Es	-1.206402	1.169134	-1.793543	99
Es	1.547706	-1.203505	0.581686	99
Es	-1.058026	0.244409	-0.906637	99
Es	-0.490975	1.305215	0.548994	99
Es	-0.775165	0.217378	0.959583	99
Es	1.371248	-0.149760	2.333431	99
Es	1.032724	0.244137	0.429428	99
Es	-0.893208	0.746934	-1.557675	99
Es	-1.419937	-1.046998	-1.148766	99
Es	1.174093	-0.637224	0.496519	99
Es	-1.209807	-0.501873	-1.061912	99
Es	-1.402052	0.851723	-1.353413	99
Es	-1.143201	-1.461887	-0.800753	99
Es	1.416956	0.568188	-0.103465	99
Es	-1.480469	0.914185	-2.300211	99
Es	1.386413	0.281948	1.136802	99
42
Properties=species:S:1:pos:R:3:Z:I:1 energy=-339.9629047022658 field_type=dipole dipole="0.000000 0.000000 0.000000" charge=0
N	-1.420490	-1.047130	-1.148621	7
C	-1.058010	0.244580	-0.906721	6
N	-1.206290	1.169640	-1.793531	7
C	-0.420810	0.590150	0.425689	6
C	1.032700	0.244430	0.429329	6
C	1.736730	-0.159970	1.696369	6
O	1.320460	-1.129530	0.721229	8
H	-0.942400	-1.739500	-0.575581	1
H	-1.471360	-1.324230	-2.120031	1
H	-1.659940	0.779740	-2.621271	1
H	-0.959500	0.053700	1.217339	1
H	-0.542280	1.663060	0.614439	1
H	1.597780	0.738650	-0.349631	1
H	1.195730	-0.125990	2.632909	1
H	2.797690	0.042400	1.778089	1
Es	-0.774694	0.216870	0.960157	99
Es	1.032722	0.244126	0.429417	99
Es	-0.490715	1.305158	0.548979	99
Es	-1.613735	-0.960112	-1.055136	99
Es	-1.145752	-1.462846	-0.798915	99
Es	-0.738462	0.397113	-0.240167	99
Es	-1.461214	-1.202006	-1.731073	99
Es	1.527644	-0.856482	1.165039	99
Es	-0.420803	0.590105	0.425628	99
Es	-0.893189	0.745283	-1.556390	99
Es	1.320370	-1.129167	0.721388	99
Es	1.543279	-1.199025	0.584747	99
Es	0.289536	0.408126	0.421149	99
Es	2.454784	-0.036894	1.753581	99
Es	1.371653	-0.150276	2.333427	99
Es	-1.419859	-1.046950	-1.148777	99
Es	1.174402	-0.636400	0.495006	99
Es	-1.206399	1.169141	-1.793546	99
Es	1.416927	0.568293	-0.103682	99
Es	-1.402033	0.852867	-1.355375	99
Es	1.736624	-0.160173	1.696139	99
Es	-1.212827	-0.500366	-1.060891	99
Es	-1.058025	0.244409	-0.906637	99
Es	1.068117	-1.281014	0.804225	99
Es	1.386141	0.282676	1.136275	99
Es	-1.123864	1.527850	-1.755666	99
Es	-1.480687	0.915090	-2.300726	99
42
Properties=species:S:1:pos:R:3:Z:I:1 energy=-339.9629047022658 field_type=dipole dipole="0.000000 0.000000 0.000000" charge=0
N	-1.420490	-1.047130	-1.148621	7
C	-1.058010	0.244580	-0.906721	6
N	-1.206290	1.169640	-1.793531	7
C	-0.420810	0.590150	0.425689	6
C	1.032700	0.244430	0.429329	6
C	1.736730	-0.159970	1.696369	6
O	1.320460	-1.129530	0.721229	8
H	-0.942400	-1.739500	-0.575581	1
H	-1.471360	-1.324230	-2.120031	1
H	-1.659940	0.779740	-2.621271	1
H	-0.959500	0.053700	1.217339	1
H	-0.542280	1.663060	0.614439	1
H	1.597780	0.738650	-0.349631	1
H	1.195730	-0.125990	2.632909	1
H	2.797690	0.042400	1.778089	1
Es	-1.419862	-1.046971	-1.148782	99
Es	1.072510	-1.288986	0.799799	99
Es	-0.774430	0.216498	0.960543	99
Es	-1.608171	-0.961566	-1.057091	99
Es	1.372095	-0.150721	2.333588	99
Es	-1.462527	-1.201585	-1.731057	99
Es	1.528297	-0.857856	1.166255	99
Es	-0.490609	1.304911	0.548986	99
Es	-1.206397	1.169140	-1.793542	99
Es	-1.216415	-0.498821	-1.059424	99
Es	1.320486	-1.129386	0.721237	99
Es	-0.420806	0.590105	0.425631	99
Es	-1.401621	0.852847	-1.356603	99
Es	1.173115	-0.636265	0.494305	99
Es	-1.058023	0.244409	-0.906640	99
Es	1.385992	0.283203	1.135864	99
Es	-0.738397	0.397196	-0.240281	99
Es	-1.125343	1.527901	-1.754922	99
Es	1.736626	-0.160164	1.696138	99
Es	0.289383	0.408305	0.421097	99
Es	-0.892212	0.744921	-1.556087	99
Es	1.416770	0.568442	-0.104063	99
Es	-1.146212	-1.463114	-0.798236	99
Es	2.454234	-0.037424	1.753419	99
Es	1.539552	-1.189115	0.589403	99
Es	-1.480816	0.915364	-2.300780	99
Es	1.032727	0.244128	0.429419	99
42
Properties=species:S:1:pos:R:3:Z:I:1 energy=-339.9629047022658 field_type=dipole dipole="0.000000 0.000000 0.000000" charge=0
N	-1.420490	-1.047130	-1.148621	7
C	-1.058010	0.244580	-0.906721	6
N	-1.206290	1.169640	-1.793531	7
C	-0.420810	0.590150	0.425689	6
C	1.032700	0.244430	0.429329	6
C	1.736730	-0.159970	1.696369	6
O	1.320460	-1.129530	0.721229	8
H	-0.942400	-1.739500	-0.575581	1
H	-1.471360	-1.324230	-2.120031	1
H	-1.659940	0.779740	-2.621271	1
H	-0.959500	0.053700	1.217339	1
H	-0.542280	1.663060	0.614439	1
H	1.597780	0.738650	-0.349631	1
H	1.195730	-0.125990	2.632909	1
H	2.797690	0.042400	1.778089	1
Es	1.529140	-0.859503	1.166923	99
Es	-0.893094	0.742646	-1.554638	99
Es	-1.058029	0.244410	-0.906637	99
Es	1.032725	0.244130	0.429423	99
Es	-0.490416	1.305027	0.548921	99
Es	-1.419980	-1.047018	-1.148756	99
Es	-1.601580	-0.961015	-1.058610	99
Es	1.073086	-1.287451	0.799475	99
Es	1.416810	0.568525	-0.104194	99
Es	1.736625	-0.160168	1.696135	99
Es	1.372400	-0.151063	2.333723	99
Es	-0.738065	0.397095	-0.240393	99
Es	-1.481246	0.916831	-2.301354	99
Es	-1.124177	1.527036	-1.754074	99
Es	0.288976	0.408379	0.420993	99
Es	1.173791	-0.635738	0.493526	99
Es	-1.148135	-1.463699	-0.797107	99
Es	-1.401790	0.854535	-1.358395	99
Es	-1.216959	-0.498536	-1.059458	99
Es	-0.420803	0.590105	0.425630	99
Es	1.537713	-1.189373	0.590286	99
Es	1.385790	0.283531	1.135455	99
Es	-1.206396	1.169132	-1.793545	99
Es	1.320471	-1.129305	0.721285	99
Es	-0.774288	0.216236	0.960775	99
Es	-1.466353	-1.201666	-1.730508	99
Es	2.453729	-0.037688	1.753295	99
42
Properties=species:S:1:pos:R:3:Z:I:1 energy=-339.9629047022658 field_type=dipole dipole="0.000000 0.000000 0.000000" charge=0
N	-1.420490	-1.047130	-1.148621	7
C	-1.058010	0.244580	-0.906721	6
N	-1.206290	1.169640	-1.793531	7
C	-0.420810	0.590150	0.425689	6
C	1.032700	0.244430	0.429329	6
C	1.736730	-0.159970	1.696369	6
O	1.320460	-1.129530	0.721229	8
H	-0.942400	-1.739500	-0.575581	1
H	-1.471360	-1.324230	-2.120031	1
H	-1.659940	0.779740	-2.621271	1
H	-0.959500	0.053700	1.217339	1
H	-0.542280	1.663060	0.614439	1
H	1.597780	0.738650	-0.349631	1
H	1.195730	-0.125990	2.632909	1
H	2.797690	0.042400	1.778089	1
Es	1.530781	-0.860519	1.167047	99
Es	-1.058020	0.244410	-0.906641	99
Es	0.288687	0.408473	0.420904	99
Es	1.416775	0.568575	-0.104341	99
Es	-0.891854	0.743562	-1.555978	99
Es	-1.467602	-1.201354	-1.730319	99
Es	-1.419940	-1.047004	-1.148765	99
Es	-1.401635	0.853291	-1.357809	99
Es	-0.420804	0.590105	0.425631	99
Es	1.534644	-1.185220	0.592414	99
Es	1.320513	-1.129213	0.721292	99
Es	-0.490311	1.304920	0.549000	99
Es	1.372631	-0.151483	2.333691	99
Es	1.032725	0.244128	0.429422	99
Es	-1.220403	-0.496991	-1.057997	99
Es	1.173273	-0.635499	0.493210	99
Es	1.736628	-0.160167	1.696143	99
Es	1.075188	-1.290410	0.797996	99
Es	1.385642	0.283847	1.135102	99
Es	-0.738064	0.397176	-0.240460	99
Es	-1.149417	-1.464095	-0.796274	99
Es	-1.206401	1.169124	-1.793543	99
Es	-0.774096	0.215992	0.960943	99
Es	2.453444	-0.038062	1.753309	99
Es	-1.595536	-0.962336	-1.060957	99
Es	-1.481434	0.917498	-2.301485	99
Es	-1.125473	1.526646	-1.753361	99
42
Properties=species:S:1:pos:R:3:Z:I:1 energy=-339.9629047022658 field_type=dipole dipole="0.000000 0.000000 0.000000" charge=0
N	-1.420490	-1.047130	-1.148621	7
C	-1.058010	0.244580	-0.906721	6
N	-1.206290	1.169640	-1.793531	7
C	-0.420810	0.590150	0.425689	6
C	1.032700	0.244430	0.429329	6
C	1.736730	-0.159970	1.696369	6
O	1.320460	-1.129530	0.721229	8
H	-0.942400	-1.739500	-0.575581	1
H	-1.471360	-1.324230	-2.120031	1
H	-1.659940	0.779740	-2.621271	1
H	-0.959500	0.053700	1.217339	1
H	-0.542280	1.663060	0.614439	1
H	1.597780	0.738650	-0.349631	1
H	1.195730	-0.125990	2.632909	1
H	2.797690	0.042400	1.778089	1
Es	-1.593099	-0.962589	-1.061605	99
Es	1.075090	-1.288864	0.798460	99
Es	1.320734	-1.129094	0.721221	99
Es	-1.469154	-1.201218	-1.730100	99
Es	1.532103	-0.861602	1.167091	99
Es	-1.481467	0.917794	-2.301762	99
Es	1.532692	-1.185820	0.592997	99
Es	1.032724	0.244128	0.429425	99
Es	-1.058026	0.244410	-0.906638	99
Es	-1.220870	-0.496973	-1.057973	99
Es	-0.490207	1.304852	0.549001	99
Es	0.288179	0.408849	0.420618	99
Es	1.736629	-0.160170	1.696142	99
Es	-1.401411	0.855341	-1.360301	99
Es	1.173956	-0.635260	0.492587	99
Es	-1.149913	-1.464248	-0.795865	99
Es	2.453054	-0.038314	1.753203	99
Es	1.372900	-0.151773	2.333783	99
Es	-1.125035	1.526461	-1.753091	99
Es	-0.737969	0.397165	-0.240536	99
Es	-0.420805	0.590106	0.425632	99
Es	-1.419771	-1.046643	-1.148701	99
Es	1.385449	0.284078	1.134731	99
Es	1.416743	0.568744	-0.104475	99
Es	-0.773547	0.215503	0.961407	99
Es	-0.892635	0.741404	-1.553535	99
Es	-1.206401	1.169124	-1.793539	99
42
Properties=species:S:1:pos:R:3:Z:I:1 energy=-339.9629047022658 field_type=dipole dipole="0.000000 0.000000 0.000000" charge=0
N	-1.420490	-1.047130	-1.148621	7
C	-1.058010	0.244580	-0.906721	6
N	-1.206290	1.169640	-1.793531	7
C	-0.420810	0.590150	0.425689	6
C	1.032700	0.244430	0.429329	6
C	1.736730	-0.159970	1.696369	6
O	1.320460	-1.129530	0.721229	8
H	-0.942400	-1.739500	-0.575581	1
H	-1.471360	-1.324230	-2.120031	1
H	-1.659940	0.779740	-2.621271	1
H	-0.959500	0.053700	1.217339	1
H	-0.542280	1.663060	0.614439	1
H	1.597780	0.738650	-0.349631	1
H	1.195730	-0.125990	2.632909	1
H	2.797690	0.042400	1.778089	1
Es	-1.589522	-0.962766	-1.062713	99
Es	-0.737834	0.397038	-0.240547	99
Es	-0.490122	1.304924	0.548908	99
Es	2.452826	-0.038453	1.753091	99
Es	-1.470283	-1.201018	-1.729843	99
Es	0.287705	0.409086	0.420374	99
Es	-1.150786	-1.464570	-0.795459	99
Es	1.530919	-1.185003	0.593765	99
Es	1.075611	-1.288282	0.798272	99
Es	1.385240	0.284217	1.134498	99
Es	1.373127	-0.152056	2.333860	99
Es	-1.206395	1.169124	-1.793530	99
Es	-0.892187	0.741096	-1.553427	99
Es	1.533439	-0.862701	1.167302	99
Es	-1.125471	1.526358	-1.753226	99
Es	-0.420802	0.590104	0.425630	99
Es	1.320505	-1.129193	0.721302	99
Es	-1.481613	0.917866	-2.301547	99
Es	-1.222345	-0.496289	-1.057325	99
Es	1.174226	-0.635195	0.492045	99
Es	1.416805	0.568761	-0.104479	99
Es	-0.773210	0.215265	0.961694	99
Es	-1.401430	0.855634	-1.360597	99
Es	1.032726	0.244125	0.429419	99
Es	-1.058024	0.244409	-0.906638	99
Es	1.736627	-0.160171	1.696138	99
Es	-1.419788	-1.046916	-1.148789	99
42
Properties=species:S:1:pos:R:3:Z:I:1 energy=-339.9629047022658 field_type=dipole dipole="0.000000 0.000000 0.000000" charge=0
N	-1.420490	-1.047130	-1.148621	7
C	-1.058010	0.244580	-0.906721	6
N	-1.206290	1.169640	-1.793531	7
C	-0.420810	0.590150	0.425689	6
C	1.032700	0.244430	0.429329	6
C	1.736730	-0.159970	1.696369	6
O	1.320460	-1.129530	0.721229	8
H	-0.942400	-1.739500	-0.575581	1
H	-1.471360	-1.324230	-2.120031	1
H	-1.659940	0.779740	-2.621271	1
H	-0.959500	0.053700	1.217339	1
H	-0.542280	1.663060	0.614439	1
H	1.597780	0.738650	-0.349631	1
H	1.195730	-0.125990	2.632909	1
H	2.797690	0.042400	1.778089	1
Es	-0.773338	0.215319	0.961754	99
Es	1.079866	-1.296464	0.792373	99
Es	-0.737901	0.397118	-0.240444	99
Es	1.385229	0.284263	1.134078	99
Es	1.531293	-0.863658	1.168802	99
Es	-1.206398	1.169126	-1.793538	99
Es	-1.150727	-1.464575	-0.795272	99
Es	-1.481590	0.918973	-2.302315	99
Es	-1.589109	-0.963036	-1.062985	99
Es	-1.058024	0.244409	-0.906638	99
Es	-1.223184	-0.496005	-1.057141	99
Es	0.287862	0.409028	0.420372	99
Es	2.452652	-0.038695	1.753121	99
Es	1.174547	-0.634739	0.491936	99
Es	1.528733	-1.176186	0.598576	99
Es	-1.419841	-1.046970	-1.148791	99
Es	1.320436	-1.129160	0.721356	99
Es	1.032724	0.244128	0.429420	99
Es	1.416810	0.568804	-0.104509	99
Es	-0.490103	1.304792	0.548827	99
Es	-1.126526	1.525389	-1.752065	99
Es	1.373174	-0.152095	2.333845	99
Es	-0.891316	0.741610	-1.553893	99
Es	1.736627	-0.160171	1.696139	99
Es	-0.420803	0.590104	0.425628	99
Es	-1.401486	0.854920	-1.360612	99
Es	-1.469664	-1.200837	-1.729847	99
42
Properties=species:S:1:pos:R:3:Z:I:1 energy=-339.9629047022658 field_type=dipole dipole="0.000000 0.000000 0.000000" charge=0
N	-1.420490	-1.047130	-1.148621	7
C	-1.058010	0.244580	-0.906721	6
N	-1.206290	1.169640	-1.793531	7
C	-0.420810	0.590150	0.425689	6
C	1.032700	0.244430	0.429329	6
C	1.736730	-0.159970	1.696369	6
O	1.320460	-1.129530	0.721229	8
H	-0.942400	-1.739500	-0.575581	1
H	-1.471360	-1.324230	-2.120031	1
H	-1.659940	0.779740	-2.621271	1
H	-0.959500	0.053700	1.217339	1
H	-0.542280	1.663060	0.614439	1
H	1.597780	0.738650	-0.349631	1
H	1.195730	-0.125990	2.632909	1
H	2.797690	0.042400	1.778089	1
Es	-1.421223	-1.047024	-1.148323	99
Es	-0.420803	0.590104	0.425630	99
Es	-1.206397	1.169123	-1.793536	99
Es	-1.481466	0.919544	-2.302418	99
Es	1.736634	-0.160179	1.696134	99
Es	-0.773288	0.215059	0.961900	99
Es	1.416829	0.568884	-0.104622	99
Es	1.032722	0.244126	0.429422	99
Es	-1.224277	-0.495830	-1.056768	99
Es	-1.401691	0.855492	-1.361285	99
Es	-0.891834	0.740664	-1.553351	99
Es	-1.058022	0.244409	-0.906639	99
Es	-0.489937	1.304821	0.548832	99
Es	-1.150853	-1.464642	-0.795079	99
Es	-1.471411	-1.200607	-1.729664	99
Es	2.452402	-0.038881	1.753133	99
Es	1.320428	-1.129141	0.721370	99
Es	1.527235	-1.176053	0.598332	99
Es	1.533450	-0.863924	1.168183	99
Es	-0.737733	0.397156	-0.240457	99
Es	0.287571	0.409082	0.420324	99
Es	1.373268	-0.152428	2.333867	99
Es	-1.584745	-0.963233	-1.064177	99
Es	1.173352	-0.635172	0.492077	99
Es	1.385091	0.284579	1.133822	99
Es	-1.125926	1.525209	-1.751887	99
Es	1.080567	-1.295744	0.793358	99
42
Properties=species:S:1:pos:R:3:Z:I:1 energy=-339.9629047022658 field_type=dipole dipole="0.000000 0.000000 0.000000" charge=0
N	-1.420490	-1.047130	-1.148621	7
C	-1.058010	0.244580	-0.906721	6
N	-1.206290	1.169640	-1.793531	7
C	-0.420810	0.590150	0.425689	6
C	1.032700	0.244430	0.429329	6
C	1.736730	-0.159970	1.696369	6
O	1.320460	-1.129530	0.721229	8
H	-0.942400	-1.739500	-0.575581	1
H	-1.471360	-1.324230	-2.120031	1
H	-1.659940	0.779740	-2.621271	1
H	-0.959500	0.053700	1.217339	1
H	-0.542280	1.663060	0.614439	1
H	1.597780	0.738650	-0.349631	1
H	1.195730	-0.125990	2.632909	1
H	2.797690	0.042400	1.778089	1
Es	1.373510	-0.152483	2.334043	99
Es	1.032723	0.244131	0.429423	99
Es	-1.058025	0.244410	-0.906638	99
Es	-1.470822	-1.200307	-1.729864	99
Es	-0.490034	1.304597	0.548817	99
Es	1.736629	-0.160169	1.696137	99
Es	-0.891868	0.739605	-1.552149	99
Es	-0.773326	0.215024	0.961948	99
Es	-1.401216	0.856522	-1.362722	99
Es	1.081353	-1.297884	0.791701	99
Es	-1.206406	1.169130	-1.793543	99
Es	2.452120	-0.039062	1.752933	99
Es	-1.225262	-0.495531	-1.056145	99
Es	-1.126253	1.525035	-1.751694	99
Es	-0.420805	0.590103	0.425629	99
Es	-1.419782	-1.046892	-1.148783	99
Es	1.174323	-0.634697	0.491597	99
Es	-0.737615	0.397216	-0.240568	99
Es	1.533064	-0.864482	1.168540	99
Es	1.320571	-1.129154	0.721281	99
Es	-1.481751	0.919700	-2.302428	99
Es	1.416740	0.569002	-0.104716	99
Es	-1.151655	-1.464833	-0.794710	99
Es	1.525716	-1.173544	0.600295	99
Es	-1.584912	-0.963658	-1.064393	99
Es	0.287715	0.409109	0.420461	99
Es	1.385212	0.284506	1.133727	99
42
Properties=species:S:1:pos:R:3:Z:I:1 energy=-339.9629047022658 field_type=dipole dipole="0.000000 0.000000 0.000000" charge=0
N	-1.420490	-1.047130	-1.148621	7
C	-1.058010	0.244580	-0.906721	6
N	-1.206290	1.169640	-1.793531	7
C	-0.420810	0.590150	0.425689	6
C	1.032700	0.244430	0.429329	6
C	1.736730	-0.159970	1.696369	6
O	1.320460	-1.129530	0.721229	8
H	-0.942400	-1.739500	-0.575581	1
H	-1.471360	-1.324230	-2.120031	1
H	-1.659940	0.779740	-2.621271	1
H	-0.959500	0.053700	1.217339	1
H	-0.542280	1.663060	0.614439	1
H	1.597780	0.738650	-0.349631	1
H	1.195730	-0.125990	2.632909	1
H	2.797690	0.042400	1.778089	1
Es	1.174781	-0.634467	0.491530	99
Es	-0.892279	0.738720	-1.551767	99
Es	-1.206398	1.169115	-1.793537	99
Es	-1.125715	1.524522	-1.751243	99
Es	0.287041	0.409479	0.420175	99
Es	-1.472871	-1.200432	-1.729296	99
Es	-1.582271	-0.963699	-1.064977	99
Es	-0.489968	1.304741	0.548840	99
Es	1.416808	0.569053	-0.104706	99
Es	1.320384	-1.129201	0.721367	99
Es	1.373673	-0.152721	2.334032	99
Es	1.534270	-0.865598	1.168313	99
Es	-1.481783	0.920656	-2.302696	99
Es	-1.401341	0.856958	-1.363335	99
Es	1.080379	-1.294875	0.792954	99
Es	-1.225657	-0.495148	-1.056178	99
Es	-1.058023	0.244408	-0.906638	99
Es	1.032723	0.244129	0.429423	99
Es	-0.737445	0.397145	-0.240575	99
Es	1.525309	-1.175537	0.599434	99
Es	1.385009	0.284741	1.133595	99
Es	2.451933	-0.039215	1.752901	99
Es	-1.419794	-1.046897	-1.148779	99
Es	-0.772815	0.214555	0.962219	99
Es	1.736628	-0.160172	1.696137	99
Es	-0.420804	0.590104	0.425630	99
Es	-1.151831	-1.464972	-0.794646	99
42
Properties=species:S:1:pos:R:3:Z:I:1 energy=-339.9629047022658 field_type=dipole dipole="0.000000 0.000000 0.000000" charge=0
N	-1.420490	-1.047130	-1.148621	7
C	-1.058010	0.244580	-0.906721	6
N	-1.206290	1.169640	-1.793531	7
C	-0.420810	0.590150	0.425689	6
C	1.032700	0.244430	0.429329	6
C	1.736730	-0.159970	1.696369	6
O	1.320460	-1.129530	0.721229	8
H	-0.942400	-1.739500	-0.575581	1
H	-1.471360	-1.324230	-2.120031	1
H	-1.659940	0.779740	-2.621271	1
H	-0.959500	0.053700	1.217339	1
H	-0.542280	1.663060	0.614439	1
H	1.597780	0.738650	-0.349631	1
H	1.195730	-0.125990	2.632909	1
H	2.797690	0.042400	1.778089	1
Es	1.373845	-0.152817	2.334220	99
Es	-1.058022	0.244409	-0.906640	99
Es	1.385033	0.284846	1.133283	99
Es	-0.772770	0.214515	0.962372	99
Es	1.320409	-1.129259	0.721329	99
Es	0.287144	0.409478	0.420352	99
Es	-1.401322	0.856843	-1.363325	99
Es	1.416636	0.569182	-0.104943	99
Es	-1.226619	-0.494971	-1.055863	99
Es	-0.420801	0.590105	0.425630	99
Es	-1.126050	1.524522	-1.751215	99
Es	-0.892000	0.738910	-1.551843	99
Es	-0.489988	1.304721	0.548701	99
Es	-1.151601	-1.464805	-0.794535	99
Es	1.522885	-1.172961	0.600423	99
Es	-1.419626	-1.046429	-1.148681	99
Es	1.536127	-0.866984	1.168207	99
Es	1.032722	0.244129	0.429423	99
Es	2.451636	-0.039261	1.752726	99
Es	-1.472655	-1.200380	-1.729404	99
Es	-1.581823	-0.964522	-1.065357	99
Es	1.174228	-0.634385	0.492060	99
Es	-1.481779	0.920578	-2.302696	99
Es	1.736627	-0.160172	1.696137	99
Es	-1.206401	1.169119	-1.793542	99
Es	1.081596	-1.296105	0.791837	99
Es	-0.737488	0.397089	-0.240477	99
42
Properties=species:S:1:pos:R:3:Z:I:1 energy=-339.9629047022658 field_type=dipole dipole="0.000000 0.000000 0.000000" charge=0
N	-1.420490	-1.047130	-1.148621	7
C	-1.058010	0.244580	-0.906721	6
N	-1.206290	1.169640	-1.793531	7
C	-0.420810	0.590150	0.425689	6
C	1.032700	0.244430	0.429329	6
C	1.736730	-0.159970	1.696369	6
O	1.320460	-1.129530	0.721229	8
H	-0.942400	-1.739500	-0.575581	1
H	-1.471360	-1.324230	-2.120031	1
H	-1.659940	0.779740	-2.621271	1
H	-0.959500	0.053700	1.217339	1
H	-0.542280	1.663060	0.614439	1
H	1.597780	0.738650	-0.349631	1
H	1.195730	-0.125990	2.632909	1
H	2.797690	0.042400	1.778089	1
Es	1.384938	0.284833	1.133005	99
Es	-1.481875	0.921123	-2.303001	99
Es	-1.206403	1.169116	-1.793542	99
Es	1.083365	-1.298825	0.789402	99
Es	1.522418	-1.170202	0.602360	99
Es	-1.058021	0.244409	-0.906640	99
Es	-0.420800	0.590104	0.425629	99
Es	-1.401130	0.856712	-1.363582	99
Es	0.286982	0.409506	0.420186	99
Es	-0.772711	0.214488	0.962339	99
Es	1.174716	-0.634126	0.491887	99
Es	-1.126527	1.524077	-1.750652	99
Es	-1.226680	-0.494900	-1.055956	99
Es	-0.891703	0.738950	-1.551862	99
Es	-1.580947	-0.963852	-1.065488	99
Es	2.451610	-0.039431	1.752811	99
Es	1.416772	0.569112	-0.104839	99
Es	-0.489982	1.304718	0.548770	99
Es	1.736627	-0.160166	1.696141	99
Es	-0.737463	0.397022	-0.240491	99
Es	1.534423	-0.867003	1.169214	99
Es	1.032722	0.244131	0.429420	99
Es	-1.152218	-1.465005	-0.794267	99
Es	1.320470	-1.129227	0.721309	99
Es	-1.419905	-1.046992	-1.148773	99
Es	-1.472578	-1.200240	-1.729322	99
Es	1.373840	-0.152940	2.334118	99
42
Properties=species:S:1:pos:R:3:Z:I:1 energy=-339.9629047022658 field_type=dipole dipole="0.000000 0.000000 0.000000" charge=0
N	-1.420490	-1.047130	-1.148621	7
C	-1.058010	0.244580	-0.906721	6
N	-1.206290	1.169640	-1.793531	7
C	-0.420810	0.590150	0.425689	6
C	1.032700	0.244430	0.429329	6
C	1.736730	-0.159970	1.696369	6
O	1.320460	-1.129530	0.721229	8
H	-0.942400	-1.739500	-0.575581	1
H	-1.471360	-1.324230	-2.120031	1
H	-1.659940	0.779740	-2.621271	1
H	-0.959500	0.053700	1.217339	1
H	-0.542280	1.663060	0.614439	1
H	1.597780	0.738650	-0.349631	1
H	1.195730	-0.125990	2.632909	1
H	2.797690	0.042400	1.778089	1
Es	-0.737467	0.397124	-0.240431	99
Es	-0.420804	0.590104	0.425630	99
Es	1.173693	-0.634314	0.491946	99
Es	1.534922	-0.867115	1.169091	99
Es	1.320259	-1.129148	0.721452	99
Es	-1.471389	-1.199869	-1.729771	99
Es	-1.206402	1.169113	-1.793539	99
Es	-1.481931	0.921495	-2.303164	99
Es	0.287142	0.409471	0.420217	99
Es	-1.126764	1.523615	-1.750515	99
Es	-0.489968	1.304648	0.548652	99
Es	-0.891296	0.739050	-1.552015	99
Es	1.384949	0.284780	1.132800	99
Es	-1.151701	-1.464880	-0.794378	99
Es	-1.419891	-1.046987	-1.148777	99
Es	-0.772813	0.214484	0.962422	99
Es	2.451497	-0.039515	1.752820	99
Es	-1.058022	0.244409	-0.906639	99
Es	-1.227477	-0.494982	-1.055378	99
Es	1.086834	-1.303747	0.786711	99
Es	1.736628	-0.160173	1.696134	99
Es	1.373808	-0.152985	2.334177	99
Es	1.416770	0.569195	-0.104941	99
Es	1.519746	-1.164941	0.605104	99
Es	1.032716	0.244130	0.429424	99
Es	-1.581779	-0.964250	-1.065396	99
Es	-1.401317	0.856682	-1.363459	99
42
Properties=species:S:1:pos:R:3:Z:I:1 energy=-339.9629047022658 field_type=dipole dipole="0.000000 0.000000 0.000000" charge=0
N	-1.420490	-1.047130	-1.148621	7
C	-1.058010	0.244580	-0.906721	6
N	-1.206290	1.169640	-1.793531	7
C	-0.420810	0.590150	0.425689	6
C	1.032700	0.244430	0.429329	6
C	1.736730	-0.159970	1.696369	6
O	1.320460	-1.129530	0.721229	8
H	-0.942400	-1.739500	-0.575581	1
H	-1.471360	-1.324230	-2.120031	1
H	-1.659940	0.779740	-2.621271	1
H	-0.959500	0.053700	1.217339	1
H	-0.542280	1.663060	0.614439	1
H	1.597780	0.738650	-0.349631	1
H	1.195730	-0.125990	2.632909	1
H	2.797690	0.042400	1.778089	1
Es	1.032722	0.244129	0.429421	99
Es	-0.420804	0.590105	0.425630	99
Es	1.086786	-1.303495	0.786434	99
Es	-1.481959	0.921646	-2.303059	99
Es	1.320351	-1.129170	0.721397	99
Es	-1.419817	-1.046920	-1.148779	99
Es	1.384932	0.284883	1.132769	99
Es	1.519489	-1.164877	0.605691	99
Es	-0.737366	0.396922	-0.240375	99
Es	0.286851	0.409778	0.420046	99
Es	-0.490078	1.304608	0.548515	99
Es	1.373902	-0.153208	2.334133	99
Es	-0.772555	0.214309	0.962656	99
Es	-1.471526	-1.199930	-1.729535	99
Es	-0.891810	0.737870	-1.550875	99
Es	-1.126398	1.523567	-1.750644	99
Es	-1.227992	-0.494555	-1.055406	99
Es	-1.151795	-1.464948	-0.794319	99
Es	-1.401204	0.857755	-1.364575	99
Es	-1.058027	0.244410	-0.906637	99
Es	-1.206405	1.169126	-1.793543	99
Es	1.174359	-0.634531	0.491289	99
Es	2.451449	-0.039688	1.752828	99
Es	1.736624	-0.160168	1.696139	99
Es	1.416808	0.569177	-0.104892	99
Es	1.534470	-0.866902	1.169554	99
Es	-1.581064	-0.964500	-1.065687	99
42
Properties=species:S:1:pos:R:3:Z:I:1 energy=-339.9629047022658 field_type=dipole dipole="0.000000 0.000000 0.000000" charge=0
N	-1.420490	-1.047130	-1.148621	7
C	-1.058010	0.244580	-0.906721	6
N	-1.206290	1.169640	-1.793531	7
C	-0.420810	0.590150	0.425689	6
C	1.032700	0.244430	0.429329	6
C	1.736730	-0.159970	1.696369	6
O	1.320460	-1.129530	0.721229	8
H	-0.942400	-1.739500	-0.575581	1
H	-1.471360	-1.324230	-2.120031	1
H	-1.659940	0.779740	-2.621271	1
H	-0.959500	0.053700	1.217339	1
H	-0.542280	1.663060	0.614439	1
H	1.597780	0.738650	-0.349631	1
H	1.195730	-0.125990	2.632909	1
H	2.797690	0.042400	1.778089	1
Es	1.320410	-1.129214	0.721351	99
Es	1.519167	-1.165067	0.605467	99
Es	-0.772617	0.214238	0.962574	99
Es	-0.420803	0.590104	0.425629	99
Es	-0.490004	1.304572	0.548652	99
Es	1.374015	-0.153319	2.334218	99
Es	2.451291	-0.039695	1.752739	99
Es	-1.401294	0.857581	-1.364392	99
Es	-1.472717	-1.199716	-1.729386	99
Es	-1.481925	0.921738	-2.303050	99
Es	-0.891753	0.737967	-1.551124	99
Es	1.384816	0.284955	1.132546	99
Es	1.416743	0.569232	-0.104995	99
Es	0.286910	0.409678	0.420147	99
Es	-1.419818	-1.046941	-1.148788	99
Es	-1.058022	0.244409	-0.906639	99
Es	1.086729	-1.302715	0.786512	99
Es	-1.578742	-0.964520	-1.066333	99
Es	-1.152331	-1.465101	-0.794055	99
Es	1.736628	-0.160173	1.696130	99
Es	-1.228594	-0.494560	-1.055130	99
Es	-0.737318	0.397077	-0.240450	99
Es	1.534986	-0.867654	1.169582	99
Es	-1.206404	1.169112	-1.793541	99
Es	1.174311	-0.634290	0.491689	99
Es	-1.126444	1.523563	-1.750598	99
Es	1.032723	0.244132	0.429422	99
42
Properties=species:S:1:pos:R:3:Z:I:1 energy=-339.9629047022658 field_type=dipole dipole="0.000000 0.000000 0.000000" charge=0
N	-1.420490	-1.047130	-1.148621	7
C	-1.058010	0.244580	-0.906721	6
N	-1.206290	1.169640	-1.793531	7
C	-0.420810	0.590150	0.425689	6
C	1.032700	0.244430	0.429329	6
C	1.736730	-0.159970	1.696369	6
O	1.320460	-1.129530	0.721229	8
H	-0.942400	-1.739500	-0.575581	1
H	-1.471360	-1.324230	-2.120031	1
H	-1.659940	0.779740	-2.621271	1
H	-0.959500	0.053700	1.217339	1
H	-0.542280	1.663060	0.614439	1
H	1.597780	0.738650	-0.349631	1
H	1.195730	-0.125990	2.632909	1
H	2.797690	0.042400	1.778089	1
Es	1.736628	-0.160172	1.696139	99
Es	1.384867	0.284926	1.132406	99
Es	-0.891372	0.737985	-1.551107	99
Es	-1.126861	1.523649	-1.750689	99
Es	-1.579221	-0.964532	-1.066226	99
Es	-0.772537	0.214173	0.962728	99
Es	-0.420804	0.590104	0.425631	99
Es	-1.472082	-1.199600	-1.729562	99
Es	1.173755	-0.634331	0.491736	99
Es	-1.228695	-0.494606	-1.055005	99
Es	-1.206398	1.169125	-1.793536	99
Es	1.320441	-1.129316	0.721285	99
Es	-1.058023	0.244409	-0.906639	99
Es	-1.401158	0.857610	-1.364565	99
Es	1.535490	-0.868100	1.169465	99
Es	2.451234	-0.039805	1.752735	99
Es	1.088332	-1.304335	0.785457	99
Es	-1.152263	-1.465080	-0.794056	99
Es	1.416739	0.569316	-0.105045	99
Es	-0.737345	0.397135	-0.240536	99
Es	1.517579	-1.162747	0.606735	99
Es	-1.482063	0.921575	-2.302857	99
Es	1.374003	-0.153352	2.334255	99
Es	1.032722	0.244130	0.429421	99
Es	-1.419871	-1.046978	-1.148781	99
Es	-0.489831	1.304495	0.548625	99
Es	0.286676	0.409713	0.420165	99
42
Properties=species:S:1:pos:R:3:Z:I:1 energy=-339.9629047022658 field_type=dipole dipole="0.000000 0.000000 0.000000" charge=0
N	-1.420490	-1.047130	-1.148621	7
C	-1.058010	0.244580	-0.906721	6
N	-1.206290	1.169640	-1.793531	7
C	-0.420810	0.590150	0.425689	6
C	1.032700	0.244430	0.429329	6
C	1.736730	-0.159970	1.696369	6
O	1.320460	-1.129530	0.721229	8
H	-0.942400	-1.739500	-0.575581	1
H	-1.471360	-1.324230	-2.120031	1
H	-1.659940	0.779740	-2.621271	1
H	-0.959500	0.053700	1.217339	1
H	-0.542280	1.663060	0.614439	1
H	1.597780	0.738650	-0.349631	1
H	1.195730	-0.125990	2.632909	1
H	2.797690	0.042400	1.778089	1
Es	-0.772414	0.214082	0.962721	99
Es	-1.576053	-0.965206	-1.067417	99
Es	1.384807	0.285053	1.132383	99
Es	-0.420804	0.590105	0.425631	99
Es	1.032725	0.244134	0.429419	99
Es	-1.206399	1.169113	-1.793531	99
Es	1.320420	-1.129269	0.721321	99
Es	-1.482238	0.922230	-2.303182	99
Es	0.286812	0.409645	0.420146	99
Es	1.517364	-1.165289	0.605716	99
Es	1.085804	-1.301704	0.787706	99
Es	1.416623	0.569425	-0.105138	99
Es	-1.058021	0.244408	-0.906640	99
Es	-1.152592	-1.465085	-0.793794	99
Es	-1.472782	-1.199674	-1.729346	99
Es	-1.400998	0.858056	-1.365054	99
Es	1.537106	-0.868276	1.168531	99
Es	-1.230691	-0.493789	-1.054276	99
Es	1.736629	-0.160167	1.696144	99
Es	-0.891893	0.737377	-1.550669	99
Es	-0.737348	0.397171	-0.240452	99
Es	-1.126394	1.523133	-1.750337	99
Es	1.374125	-0.153589	2.334301	99
Es	-0.489929	1.304539	0.548642	99
Es	-1.419973	-1.047040	-1.148768	99
Es	2.451098	-0.039881	1.752666	99
Es	1.174961	-0.634108	0.491457	99
42
Properties=species:S:1:pos:R:3:Z:I:1 energy=-339.9629047022658 field_type=dipole dipole="0.000000 0.000000 0.000000" charge=0
N	-1.420490	-1.047130	-1.148621	7
C	-1.058010	0.244580	-0.906721	6
N	-1.206290	1.169640	-1.793531	7
C	-0.420810	0.590150	0.425689	6
C	1.032700	0.244430	0.429329	6
C	1.736730	-0.159970	1.696369	6
O	1.320460	-1.129530	0.721229	8
H	-0.942400	-1.739500	-0.575581	1
H	-1.471360	-1.324230	-2.120031	1
H	-1.659940	0.779740	-2.621271	1
H	-0.959500	0.053700	1.217339	1
H	-0.542280	1.663060	0.614439	1
H	1.597780	0.738650	-0.349631	1
H	1.195730	-0.125990	2.632909	1
H	2.797690	0.042400	1.778089	1
Es	1.516567	-1.163687	0.606761	99
Es	1.374331	-0.153608	2.334317	99
Es	1.536580	-0.869118	1.169401	99
Es	-0.737300	0.397058	-0.240383	99
Es	-1.400877	0.857464	-1.364992	99
Es	1.087010	-1.302504	0.786031	99
Es	-1.229535	-0.494380	-1.054653	99
Es	-1.577466	-0.965059	-1.066824	99
Es	2.450895	-0.039910	1.752571	99
Es	1.032724	0.244131	0.429421	99
Es	1.384712	0.285062	1.132212	99
Es	-1.126804	1.522998	-1.749727	99
Es	-0.420803	0.590104	0.425629	99
Es	-1.058023	0.244410	-0.906639	99
Es	-0.489888	1.304739	0.548639	99
Es	-0.772226	0.213940	0.962752	99
Es	1.736631	-0.160174	1.696136	99
Es	1.416698	0.569449	-0.105091	99
Es	-1.206403	1.169139	-1.793551	99
Es	1.320515	-1.129345	0.721241	99
Es	-1.482258	0.922662	-2.303351	99
Es	0.286445	0.409774	0.420108	99
Es	1.175053	-0.634075	0.491455	99
Es	-1.419595	-1.046681	-1.148777	99
Es	-0.891565	0.737651	-1.551181	99
Es	-1.152397	-1.465171	-0.793982	99
Es	-1.473077	-1.199477	-1.729346	99
