39
Properties=species:S:1:pos:R:3:Z:I:1 energy=-338.81955366471726 field_type=dipole dipole="0.000000 0.000000 0.000000" charge=0
N	-1.964310	-1.667801	0.834747	7
C	-2.039630	-0.414362	0.553017	6
N	-1.024260	0.395938	0.132637	7
C	0.286980	0.037868	-0.076853	6
C	1.282830	0.831518	-0.480883	6
C	2.638690	0.278478	-0.655063	6
O	3.567100	0.987358	-1.021433	8
H	-2.885790	-2.013132	1.124237	1
H	-2.999300	0.124818	0.640097	1
H	-1.245760	1.369569	-0.044833	1
H	0.457600	-1.019682	0.128767	1
H	1.159730	1.884778	-0.694873	1
H	2.766120	-0.795352	-0.439563	1
Es	-1.666046	-1.875033	0.816999	99
Es	0.799362	0.391568	-0.606435	99
Es	-2.521978	-1.856206	1.004900	99
Es	3.177440	0.673977	-1.126063	99
Es	3.566833	0.987168	-1.021332	99
Es	3.283106	0.783051	-0.649554	99
Es	1.188805	1.539240	-0.622281	99
Es	3.472061	1.281991	-1.067829	99
Es	0.286703	0.037854	-0.076787	99
Es	-1.024391	0.395657	0.131956	99
Es	-2.066013	-1.224434	0.452411	99
Es	-2.684408	-0.031617	0.606629	99
Es	0.402609	-0.658374	0.057580	99
Es	-1.003825	0.341556	0.207061	99
Es	2.638642	0.278484	-0.655056	99
Es	-1.944116	-1.095749	0.993566	99
Es	-2.039495	-0.414195	0.552933	99
Es	1.940049	0.548673	-0.562210	99
Es	0.934607	0.531117	-0.000195	99
Es	-1.964686	-1.667428	0.834742	99
Es	-1.165888	0.972443	0.019744	99
Es	-1.452552	0.022344	0.285151	99
Es	3.840679	0.834677	-1.047266	99
Es	2.711842	-0.460027	-0.503629	99
Es	1.282851	0.831514	-0.480890	99
Es	-0.462109	0.231403	0.021678	99
39
Properties=species:S:1:pos:R:3:Z:I:1 energy=-338.81955366471726 field_type=dipole dipole="0.000000 0.000000 0.000000" charge=0
N	-1.964310	-1.667801	0.834747	7
C	-2.039630	-0.414362	0.553017	6
N	-1.024260	0.395938	0.132637	7
C	0.286980	0.037868	-0.076853	6
C	1.282830	0.831518	-0.480883	6
C	2.638690	0.278478	-0.655063	6
O	3.567100	0.987358	-1.021433	8
H	-2.885790	-2.013132	1.124237	1
H	-2.999300	0.124818	0.640097	1
H	-1.245760	1.369569	-0.044833	1
H	0.457600	-1.019682	0.128767	1
H	1.159730	1.884778	-0.694873	1
H	2.766120	-0.795352	-0.439563	1
Es	-2.525513	-1.868520	1.008631	99
Es	1.282859	0.831516	-0.480891	99
Es	0.933957	0.531879	0.000472	99
Es	0.286697	0.037855	-0.076787	99
Es	3.566863	0.987123	-1.021327	99
Es	-1.674405	-1.859744	0.814943	99
Es	-0.455358	0.238218	0.044492	99
Es	-2.683496	-0.032912	0.606798	99
Es	1.940192	0.547992	-0.562077	99
Es	-1.940009	-1.097177	0.991258	99
Es	3.455118	1.269612	-1.060806	99
Es	-1.449283	0.027871	0.315993	99
Es	2.638638	0.278481	-0.655052	99
Es	-1.161257	0.972484	0.029174	99
Es	-2.039488	-0.414176	0.552943	99
Es	1.189446	1.538942	-0.622432	99
Es	-2.061048	-1.224927	0.453332	99
Es	-1.016834	0.326822	0.142747	99
Es	-1.964702	-1.667436	0.834748	99
Es	0.402772	-0.657232	0.057457	99
Es	3.284408	0.780445	-0.649389	99
Es	3.179437	0.672573	-1.126655	99
Es	0.799242	0.392377	-0.607230	99
Es	2.711667	-0.459813	-0.503569	99
Es	3.854305	0.851409	-1.054101	99
Es	-1.024124	0.395989	0.133150	99
39
Properties=species:S:1:pos:R:3:Z:I:1 energy=-338.81955366471726 field_type=dipole dipole="0.000000 0.000000 0.000000" charge=0
N	-1.964310	-1.667801	0.834747	7
C	-2.039630	-0.414362	0.553017	6
N	-1.024260	0.395938	0.132637	7
C	0.286980	0.037868	-0.076853	6
C	1.282830	0.831518	-0.480883	6
C	2.638690	0.278478	-0.655063	6
O	3.567100	0.987358	-1.021433	8
H	-2.885790	-2.013132	1.124237	1
H	-2.999300	0.124818	0.640097	1
H	-1.245760	1.369569	-0.044833	1
H	0.457600	-1.019682	0.128767	1
H	1.159730	1.884778	-0.694873	1
H	2.766120	-0.795352	-0.439563	1
Es	-2.060126	-1.224624	0.456670	99
Es	1.189645	1.540339	-0.622855	99
Es	2.711557	-0.460211	-0.503395	99
Es	1.940003	0.546905	-0.561765	99
Es	3.566908	0.986978	-1.021308	99
Es	2.638638	0.278480	-0.655051	99
Es	-1.160585	0.971878	0.028440	99
Es	-1.964713	-1.667426	0.834745	99
Es	-1.022973	0.393844	0.137269	99
Es	3.293927	0.772467	-0.649695	99
Es	-2.525093	-1.873674	1.009454	99
Es	0.932764	0.531789	-0.001892	99
Es	-1.675553	-1.853675	0.813788	99
Es	-2.039488	-0.414179	0.552932	99
Es	3.187692	0.662434	-1.125323	99
Es	0.286695	0.037854	-0.076791	99
Es	-1.940627	-1.098102	0.988364	99
Es	0.403477	-0.658016	0.057465	99
Es	3.880551	0.979583	-1.089555	99
Es	-1.017444	0.329135	0.140563	99
Es	0.799763	0.393518	-0.604922	99
Es	-2.683315	-0.033524	0.606821	99
Es	-1.449351	0.027281	0.315292	99
Es	3.410779	1.160071	-1.026491	99
Es	1.282863	0.831520	-0.480885	99
Es	-0.455911	0.239007	0.043947	99
39
Properties=species:S:1:pos:R:3:Z:I:1 energy=-338.81955366471726 field_type=dipole dipole="0.000000 0.000000 0.000000" charge=0
N	-1.964310	-1.667801	0.834747	7
C	-2.039630	-0.414362	0.553017	6
N	-1.024260	0.395938	0.132637	7
C	0.286980	0.037868	-0.076853	6
C	1.282830	0.831518	-0.480883	6
C	2.638690	0.278478	-0.655063	6
O	3.567100	0.987358	-1.021433	8
H	-2.885790	-2.013132	1.124237	1
H	-2.999300	0.124818	0.640097	1
H	-1.245760	1.369569	-0.044833	1
H	0.457600	-1.019682	0.128767	1
H	1.159730	1.884778	-0.694873	1
H	2.766120	-0.795352	-0.439563	1
Es	-2.525775	-1.873513	1.010077	99
Es	2.638640	0.278482	-0.655046	99
Es	-1.016078	0.327248	0.145212	99
Es	0.286693	0.037857	-0.076787	99
Es	-1.941567	-1.088602	0.975820	99
Es	-2.039486	-0.414178	0.552938	99
Es	1.940455	0.546038	-0.562269	99
Es	-0.456378	0.238860	0.041885	99
Es	-1.160500	0.971214	0.029025	99
Es	-1.449463	0.027528	0.315569	99
Es	-2.063727	-1.234131	0.469800	99
Es	0.949408	0.533854	-0.012052	99
Es	1.282859	0.831519	-0.480895	99
Es	0.783016	0.392333	-0.593840	99
Es	1.188905	1.540715	-0.622877	99
Es	3.271485	0.750051	-0.655865	99
Es	2.711813	-0.460257	-0.503265	99
Es	3.847086	1.088803	-1.105499	99
Es	-1.023903	0.395909	0.134037	99
Es	3.204882	0.688701	-1.121388	99
Es	3.449334	1.047108	-1.008784	99
Es	0.404133	-0.658033	0.057141	99
Es	-2.684185	-0.033598	0.607800	99
Es	-1.669795	-1.853553	0.811593	99
Es	-1.964719	-1.667428	0.834751	99
Es	3.566950	0.986728	-1.021257	99
39
Properties=species:S:1:pos:R:3:Z:I:1 energy=-338.81955366471726 field_type=dipole dipole="0.000000 0.000000 0.000000" charge=0
N	-1.964310	-1.667801	0.834747	7
C	-2.039630	-0.414362	0.553017	6
N	-1.024260	0.395938	0.132637	7
C	0.286980	0.037868	-0.076853	6
C	1.282830	0.831518	-0.480883	6
C	2.638690	0.278478	-0.655063	6
O	3.567100	0.987358	-1.021433	8
H	-2.885790	-2.013132	1.124237	1
H	-2.999300	0.124818	0.640097	1
H	-1.245760	1.369569	-0.044833	1
H	0.457600	-1.019682	0.128767	1
H	1.159730	1.884778	-0.694873	1
H	2.766120	-0.795352	-0.439563	1
Es	3.167491	0.665353	-1.122059	99
Es	-1.024437	0.395486	0.131704	99
Es	1.189174	1.540346	-0.622045	99
Es	0.820980	0.491418	-0.096045	99
Es	-2.683976	-0.034005	0.606295	99
Es	2.638637	0.278479	-0.655053	99
Es	2.711655	-0.460066	-0.503571	99
Es	0.909691	0.433994	-0.515899	99
Es	3.501172	0.970698	-1.002891	99
Es	-1.015443	0.327149	0.146502	99
Es	3.810298	1.148730	-1.110294	99
Es	-0.454245	0.241643	0.050482	99
Es	-1.451249	0.026616	0.309794	99
Es	1.941644	0.546697	-0.558338	99
Es	0.404647	-0.657330	0.057637	99
Es	-1.675387	-1.850954	0.815555	99
Es	-1.161057	0.969021	0.027207	99
Es	1.282862	0.831521	-0.480883	99
Es	-2.059007	-1.228910	0.460964	99
Es	-2.039488	-0.414181	0.552929	99
Es	3.566553	0.987375	-1.021309	99
Es	-1.964716	-1.667423	0.834758	99
Es	3.294608	0.789514	-0.654929	99
Es	-1.941213	-1.094493	0.983224	99
Es	-2.525805	-1.874883	1.008873	99
Es	0.286695	0.037858	-0.076786	99
39
Properties=species:S:1:pos:R:3:Z:I:1 energy=-338.81955366471726 field_type=dipole dipole="0.000000 0.000000 0.000000" charge=0
N	-1.964310	-1.667801	0.834747	7
C	-2.039630	-0.414362	0.553017	6
N	-1.024260	0.395938	0.132637	7
C	0.286980	0.037868	-0.076853	6
C	1.282830	0.831518	-0.480883	6
C	2.638690	0.278478	-0.655063	6
O	3.567100	0.987358	-1.021433	8
H	-2.885790	-2.013132	1.124237	1
H	-2.999300	0.124818	0.640097	1
H	-1.245760	1.369569	-0.044833	1
H	0.457600	-1.019682	0.128767	1
H	1.159730	1.884778	-0.694873	1
H	2.766120	-0.795352	-0.439563	1
Es	-1.160525	0.968308	0.030232	99
Es	3.566669	0.987292	-1.021317	99
Es	-1.024219	0.395939	0.132743	99
Es	-1.934607	-1.099527	0.990350	99
Es	1.940649	0.545258	-0.562954	99
Es	-1.964719	-1.667422	0.834752	99
Es	2.711619	-0.459814	-0.503432	99
Es	0.985963	0.494783	-0.276105	99
Es	3.180270	0.677777	-1.131650	99
Es	0.745736	0.432803	-0.328736	99
Es	-2.039485	-0.414177	0.552944	99
Es	-2.682484	-0.033793	0.607429	99
Es	-2.524555	-1.876464	1.010772	99
Es	-0.456467	0.239398	0.039452	99
Es	1.282861	0.831518	-0.480893	99
Es	3.507298	0.962536	-1.002498	99
Es	-1.687157	-1.847578	0.813872	99
Es	-1.450164	0.028429	0.316568	99
Es	0.286699	0.037854	-0.076788	99
Es	3.804709	1.154717	-1.113477	99
Es	3.280903	0.779107	-0.643916	99
Es	2.638639	0.278481	-0.655050	99
Es	0.404902	-0.656737	0.056647	99
Es	1.189414	1.539842	-0.623112	99
Es	-2.056652	-1.225788	0.452798	99
Es	-1.015215	0.326911	0.147190	99
