43
Properties=species:S:1:pos:R:3:Z:I:1 energy=-323.9990512004171 field_type=dipole dipole="0.000000 0.000000 0.000000" charge=0
N	-1.768136	0.438711	-1.658448	7
C	-1.627996	-0.535459	-0.713288	6
O	-2.093926	-1.655079	-0.886687	8
C	-0.842806	-0.134539	0.518942	6
C	0.601924	-0.524039	0.418792	6
C	1.639714	0.465181	-0.047128	6
C	1.601984	0.039981	1.394882	6
H	-1.203956	1.276481	-1.647207	1
H	-2.213576	0.170421	-2.526438	1
H	-1.301016	-0.635049	1.379762	1
H	-0.955386	0.943171	0.688372	1
H	0.722994	-1.566249	0.138752	1
H	1.337534	1.479671	-0.279207	1
H	2.451783	0.094161	-0.663108	1
H	2.386873	-0.618389	1.751392	1
H	1.263994	0.761031	2.130612	1
Es	0.601995	-0.523898	0.418850	99
Es	1.601912	0.039979	1.394705	99
Es	1.422426	1.153629	-0.204515	99
Es	-2.007916	0.281095	-2.180471	99
Es	0.691918	-1.222653	0.226972	99
Es	-1.231667	-0.320681	-0.104009	99
Es	1.047142	-0.031998	-0.001639	99
Es	2.189488	0.212427	-0.462863	99
Es	2.132707	-0.407336	1.632049	99
Es	-2.231568	-1.676975	-1.169902	99
Es	1.639641	0.465098	-0.046998	99
Es	-1.767713	0.438398	-1.658532	99
Es	-1.419175	0.927217	-1.655462	99
Es	-1.970317	0.431826	-1.420624	99
Es	-0.842806	-0.134541	0.518876	99
Es	1.019785	-0.337917	1.050357	99
Es	-2.093808	-1.654792	-0.886639	99
Es	-0.912363	0.604195	0.622750	99
Es	-1.150421	-0.472218	1.091636	99
Es	-0.132231	-0.313847	0.453234	99
Es	-2.153263	-1.204460	-0.725781	99
Es	1.365182	0.530812	1.889082	99
Es	-1.582639	0.015669	-1.352489	99
Es	-1.627997	-0.535307	-0.713365	99
Es	-2.046992	-1.843608	-0.642039	99
Es	-1.722757	-1.358355	-0.924411	99
Es	1.767209	0.364479	0.709756	99
43
Properties=species:S:1:pos:R:3:Z:I:1 energy=-323.9990512004171 field_type=dipole dipole="0.000000 0.000000 0.000000" charge=0
N	-1.768136	0.438711	-1.658448	7
C	-1.627996	-0.535459	-0.713288	6
O	-2.093926	-1.655079	-0.886687	8
C	-0.842806	-0.134539	0.518942	6
C	0.601924	-0.524039	0.418792	6
C	1.639714	0.465181	-0.047128	6
C	1.601984	0.039981	1.394882	6
H	-1.203956	1.276481	-1.647207	1
H	-2.213576	0.170421	-2.526438	1
H	-1.301016	-0.635049	1.379762	1
H	-0.955386	0.943171	0.688372	1
H	0.722994	-1.566249	0.138752	1
H	1.337534	1.479671	-0.279207	1
H	2.451783	0.094161	-0.663108	1
H	2.386873	-0.618389	1.751392	1
H	1.263994	0.761031	2.130612	1
Es	0.691374	-1.223712	0.227665	99
Es	-2.149976	-1.207070	-0.729051	99
Es	-0.842807	-0.134541	0.518877	99
Es	2.188630	0.213155	-0.461080	99
Es	-2.232250	-1.671262	-1.168239	99
Es	1.015651	-0.340211	1.050287	99
Es	-1.150095	-0.473470	1.092561	99
Es	-2.007835	0.278873	-2.180007	99
Es	1.423719	1.154888	-0.204332	99
Es	-1.603842	0.010414	-1.325968	99
Es	1.770482	0.365997	0.707280	99
Es	-0.911517	0.605255	0.622456	99
Es	1.639636	0.465092	-0.046995	99
Es	-1.627995	-0.535306	-0.713366	99
Es	1.601916	0.039979	1.394706	99
Es	1.366513	0.530119	1.888664	99
Es	-1.767685	0.438415	-1.658574	99
Es	0.601999	-0.523894	0.418829	99
Es	-0.132904	-0.313731	0.453315	99
Es	1.046695	-0.032370	-0.001667	99
Es	-2.093808	-1.654830	-0.886658	99
Es	-1.948861	0.434885	-1.449381	99
Es	2.131212	-0.405931	1.631946	99
Es	-1.419000	0.931511	-1.653606	99
Es	-1.230472	-0.320972	-0.104402	99
Es	-2.052993	-1.847046	-0.639531	99
Es	-1.720017	-1.357996	-0.925201	99
43
Properties=species:S:1:pos:R:3:Z:I:1 energy=-323.9990512004171 field_type=dipole dipole="0.000000 0.000000 0.000000" charge=0
N	-1.768136	0.438711	-1.658448	7
C	-1.627996	-0.535459	-0.713288	6
O	-2.093926	-1.655079	-0.886687	8
C	-0.842806	-0.134539	0.518942	6
C	0.601924	-0.524039	0.418792	6
C	1.639714	0.465181	-0.047128	6
C	1.601984	0.039981	1.394882	6
H	-1.203956	1.276481	-1.647207	1
H	-2.213576	0.170421	-2.526438	1
H	-1.301016	-0.635049	1.379762	1
H	-0.955386	0.943171	0.688372	1
H	0.722994	-1.566249	0.138752	1
H	1.337534	1.479671	-0.279207	1
H	2.451783	0.094161	-0.663108	1
H	2.386873	-0.618389	1.751392	1
H	1.263994	0.761031	2.130612	1
Es	-2.008455	0.277858	-2.179543	99
Es	1.367291	0.529782	1.888546	99
Es	0.602000	-0.523888	0.418831	99
Es	-0.133492	-0.313917	0.453703	99
Es	1.013618	-0.341704	1.049759	99
Es	1.601911	0.039982	1.394694	99
Es	-1.616271	0.009532	-1.312934	99
Es	-0.910523	0.606130	0.622455	99
Es	2.188107	0.213568	-0.459967	99
Es	1.772581	0.366925	0.705912	99
Es	0.690906	-1.224607	0.227860	99
Es	-1.719138	-1.355954	-0.925554	99
Es	-1.767529	0.438231	-1.658527	99
Es	2.130105	-0.404657	1.631580	99
Es	-2.148351	-1.210331	-0.729908	99
Es	-1.149814	-0.473986	1.092821	99
Es	1.045917	-0.032823	-0.001281	99
Es	-2.093796	-1.654787	-0.886626	99
Es	-1.419007	0.933420	-1.652744	99
Es	-1.230050	-0.321098	-0.104608	99
Es	-2.055932	-1.851319	-0.639386	99
Es	-1.935565	0.434958	-1.463729	99
Es	-1.627992	-0.535305	-0.713368	99
Es	-0.842804	-0.134542	0.518875	99
Es	-2.232242	-1.665837	-1.167179	99
Es	1.424653	1.155517	-0.204161	99
Es	1.639642	0.465091	-0.046994	99
43
Properties=species:S:1:pos:R:3:Z:I:1 energy=-323.9990512004171 field_type=dipole dipole="0.000000 0.000000 0.000000" charge=0
N	-1.768136	0.438711	-1.658448	7
C	-1.627996	-0.535459	-0.713288	6
O	-2.093926	-1.655079	-0.886687	8
C	-0.842806	-0.134539	0.518942	6
C	0.601924	-0.524039	0.418792	6
C	1.639714	0.465181	-0.047128	6
C	1.601984	0.039981	1.394882	6
H	-1.203956	1.276481	-1.647207	1
H	-2.213576	0.170421	-2.526438	1
H	-1.301016	-0.635049	1.379762	1
H	-0.955386	0.943171	0.688372	1
H	0.722994	-1.566249	0.138752	1
H	1.337534	1.479671	-0.279207	1
H	2.451783	0.094161	-0.663108	1
H	2.386873	-0.618389	1.751392	1
H	1.263994	0.761031	2.130612	1
Es	1.425350	1.156031	-0.203820	99
Es	1.773705	0.367333	0.704621	99
Es	-1.627210	0.009535	-1.302266	99
Es	-1.627993	-0.535305	-0.713367	99
Es	-1.229425	-0.321181	-0.104729	99
Es	0.690730	-1.225182	0.227999	99
Es	1.639641	0.465091	-0.046997	99
Es	-2.093807	-1.654808	-0.886649	99
Es	-0.910220	0.606679	0.622458	99
Es	-0.842807	-0.134541	0.518877	99
Es	-2.147351	-1.209831	-0.731206	99
Es	1.601910	0.039977	1.394694	99
Es	-1.718510	-1.357218	-0.925698	99
Es	-1.419189	0.934687	-1.652165	99
Es	-0.133820	-0.313801	0.453831	99
Es	-2.009899	0.277544	-2.179045	99
Es	1.012010	-0.342934	1.049287	99
Es	-1.922724	0.433844	-1.475225	99
Es	1.045700	-0.033160	-0.000599	99
Es	2.187879	0.213952	-0.459111	99
Es	-1.767619	0.438361	-1.658585	99
Es	2.129390	-0.403709	1.631188	99
Es	-1.149737	-0.474527	1.092867	99
Es	-2.058547	-1.852300	-0.638600	99
Es	1.367792	0.529711	1.888547	99
Es	0.602001	-0.523890	0.418830	99
Es	-2.231479	-1.664117	-1.166606	99
43
Properties=species:S:1:pos:R:3:Z:I:1 energy=-323.9990512004171 field_type=dipole dipole="0.000000 0.000000 0.000000" charge=0
N	-1.768136	0.438711	-1.658448	7
C	-1.627996	-0.535459	-0.713288	6
O	-2.093926	-1.655079	-0.886687	8
C	-0.842806	-0.134539	0.518942	6
C	0.601924	-0.524039	0.418792	6
C	1.639714	0.465181	-0.047128	6
C	1.601984	0.039981	1.394882	6
H	-1.203956	1.276481	-1.647207	1
H	-2.213576	0.170421	-2.526438	1
H	-1.301016	-0.635049	1.379762	1
H	-0.955386	0.943171	0.688372	1
H	0.722994	-1.566249	0.138752	1
H	1.337534	1.479671	-0.279207	1
H	2.451783	0.094161	-0.663108	1
H	2.386873	-0.618389	1.751392	1
H	1.263994	0.761031	2.130612	1
Es	-1.627990	-0.535308	-0.713370	99
Es	-0.134184	-0.313802	0.453829	99
Es	-0.842806	-0.134544	0.518877	99
Es	1.010953	-0.343749	1.048968	99
Es	-2.230345	-1.665320	-1.166137	99
Es	-2.057335	-1.852417	-0.638676	99
Es	1.774352	0.367495	0.703755	99
Es	1.601913	0.039980	1.394700	99
Es	-0.909752	0.607085	0.622534	99
Es	-1.916433	0.432494	-1.480702	99
Es	-1.717709	-1.350198	-0.924948	99
Es	2.187738	0.214155	-0.458610	99
Es	-1.149494	-0.474761	1.092908	99
Es	-1.229259	-0.321288	-0.104822	99
Es	-1.767620	0.438351	-1.658571	99
Es	-2.150842	-1.215556	-0.732488	99
Es	1.045706	-0.033371	-0.000059	99
Es	2.128851	-0.403026	1.630762	99
Es	1.368215	0.529635	1.888645	99
Es	1.639633	0.465091	-0.046999	99
Es	0.601997	-0.523891	0.418833	99
Es	-2.010078	0.277257	-2.178785	99
Es	-2.093740	-1.654758	-0.886560	99
Es	1.425727	1.156476	-0.203544	99
Es	-1.420077	0.936008	-1.651476	99
Es	0.690554	-1.225596	0.228120	99
Es	-1.632206	0.009800	-1.297657	99
43
Properties=species:S:1:pos:R:3:Z:I:1 energy=-323.9990512004171 field_type=dipole dipole="0.000000 0.000000 0.000000" charge=0
N	-1.768136	0.438711	-1.658448	7
C	-1.627996	-0.535459	-0.713288	6
O	-2.093926	-1.655079	-0.886687	8
C	-0.842806	-0.134539	0.518942	6
C	0.601924	-0.524039	0.418792	6
C	1.639714	0.465181	-0.047128	6
C	1.601984	0.039981	1.394882	6
H	-1.203956	1.276481	-1.647207	1
H	-2.213576	0.170421	-2.526438	1
H	-1.301016	-0.635049	1.379762	1
H	-0.955386	0.943171	0.688372	1
H	0.722994	-1.566249	0.138752	1
H	1.337534	1.479671	-0.279207	1
H	2.451783	0.094161	-0.663108	1
H	2.386873	-0.618389	1.751392	1
H	1.263994	0.761031	2.130612	1
Es	-2.093784	-1.654757	-0.886607	99
Es	-0.909475	0.607377	0.622499	99
Es	-1.627991	-0.535306	-0.713368	99
Es	-1.229003	-0.321288	-0.104822	99
Es	0.601999	-0.523887	0.418828	99
Es	2.128526	-0.402553	1.630432	99
Es	-2.059138	-1.855172	-0.640271	99
Es	1.045313	-0.033796	0.000497	99
Es	-1.420719	0.937004	-1.650628	99
Es	-2.229424	-1.661996	-1.165729	99
Es	-2.150755	-1.216643	-0.731827	99
Es	-1.149595	-0.474779	1.092790	99
Es	1.426176	1.156771	-0.203349	99
Es	1.368628	0.529691	1.888657	99
Es	2.187554	0.214303	-0.458142	99
Es	1.774914	0.367669	0.703178	99
Es	-1.908629	0.431088	-1.487696	99
Es	1.601909	0.039981	1.394697	99
Es	-0.842807	-0.134541	0.518877	99
Es	-0.134313	-0.313957	0.454120	99
Es	1.639635	0.465081	-0.046997	99
Es	-1.639471	0.010531	-1.291385	99
Es	-2.009810	0.276771	-2.178803	99
Es	1.010323	-0.344208	1.048356	99
Es	-1.767740	0.438458	-1.658571	99
Es	0.690466	-1.225915	0.228168	99
Es	-1.717019	-1.349688	-0.924377	99
43
Properties=species:S:1:pos:R:3:Z:I:1 energy=-323.9990512004171 field_type=dipole dipole="0.000000 0.000000 0.000000" charge=0
N	-1.768136	0.438711	-1.658448	7
C	-1.627996	-0.535459	-0.713288	6
O	-2.093926	-1.655079	-0.886687	8
C	-0.842806	-0.134539	0.518942	6
C	0.601924	-0.524039	0.418792	6
C	1.639714	0.465181	-0.047128	6
C	1.601984	0.039981	1.394882	6
H	-1.203956	1.276481	-1.647207	1
H	-2.213576	0.170421	-2.526438	1
H	-1.301016	-0.635049	1.379762	1
H	-0.955386	0.943171	0.688372	1
H	0.722994	-1.566249	0.138752	1
H	1.337534	1.479671	-0.279207	1
H	2.451783	0.094161	-0.663108	1
H	2.386873	-0.618389	1.751392	1
H	1.263994	0.761031	2.130612	1
Es	-2.229579	-1.659935	-1.164629	99
Es	-1.229052	-0.321277	-0.104837	99
Es	-1.420721	0.937317	-1.650622	99
Es	-2.093836	-1.654853	-0.886658	99
Es	-1.642585	0.011134	-1.288814	99
Es	1.639638	0.465093	-0.046996	99
Es	-0.909088	0.607697	0.622657	99
Es	2.187457	0.214507	-0.457612	99
Es	-1.716186	-1.349256	-0.924977	99
Es	-2.010252	0.276472	-2.178547	99
Es	0.601996	-0.523891	0.418829	99
Es	-1.627993	-0.535305	-0.713367	99
Es	1.045226	-0.033940	0.000655	99
Es	2.128308	-0.401825	1.630240	99
Es	1.009797	-0.345011	1.048417	99
Es	-2.150539	-1.217626	-0.731222	99
Es	1.368802	0.529692	1.888518	99
Es	-1.149351	-0.474988	1.092743	99
Es	-2.059975	-1.856653	-0.641459	99
Es	-1.767624	0.438341	-1.658556	99
Es	-0.134560	-0.313954	0.454108	99
Es	0.690276	-1.226200	0.228068	99
Es	1.775110	0.367726	0.702714	99
Es	1.426504	1.156975	-0.203262	99
Es	1.601912	0.039978	1.394699	99
Es	-0.842807	-0.134541	0.518877	99
Es	-1.905107	0.430565	-1.490439	99
43
Properties=species:S:1:pos:R:3:Z:I:1 energy=-323.9990512004171 field_type=dipole dipole="0.000000 0.000000 0.000000" charge=0
N	-1.768136	0.438711	-1.658448	7
C	-1.627996	-0.535459	-0.713288	6
O	-2.093926	-1.655079	-0.886687	8
C	-0.842806	-0.134539	0.518942	6
C	0.601924	-0.524039	0.418792	6
C	1.639714	0.465181	-0.047128	6
C	1.601984	0.039981	1.394882	6
H	-1.203956	1.276481	-1.647207	1
H	-2.213576	0.170421	-2.526438	1
H	-1.301016	-0.635049	1.379762	1
H	-0.955386	0.943171	0.688372	1
H	0.722994	-1.566249	0.138752	1
H	1.337534	1.479671	-0.279207	1
H	2.451783	0.094161	-0.663108	1
H	2.386873	-0.618389	1.751392	1
H	1.263994	0.761031	2.130612	1
Es	-1.627996	-0.535304	-0.713366	99
Es	1.369073	0.529910	1.888524	99
Es	1.426773	1.157221	-0.203100	99
Es	1.045316	-0.034160	0.001293	99
Es	-2.063285	-1.857679	-0.641506	99
Es	1.601915	0.039979	1.394702	99
Es	1.009184	-0.345472	1.047979	99
Es	-2.093837	-1.654679	-0.886719	99
Es	-0.842806	-0.134541	0.518878	99
Es	-2.148687	-1.214989	-0.731493	99
Es	1.775729	0.367620	0.702197	99
Es	2.127904	-0.401535	1.630070	99
Es	-1.715505	-1.353191	-0.924932	99
Es	0.601997	-0.523892	0.418833	99
Es	-1.420788	0.937627	-1.650242	99
Es	-1.228897	-0.321495	-0.104855	99
Es	-2.228916	-1.657778	-1.164372	99
Es	-1.767589	0.438339	-1.658589	99
Es	2.187195	0.214623	-0.457353	99
Es	-0.909084	0.607909	0.622648	99
Es	-1.646896	0.011559	-1.285541	99
Es	-2.011032	0.276788	-2.178356	99
Es	-1.899940	0.429495	-1.494144	99
Es	1.639638	0.465086	-0.046995	99
Es	-0.134577	-0.313869	0.454274	99
Es	0.690141	-1.226390	0.228082	99
Es	-1.149260	-0.474943	1.092611	99
43
Properties=species:S:1:pos:R:3:Z:I:1 energy=-323.9990512004171 field_type=dipole dipole="0.000000 0.000000 0.000000" charge=0
N	-1.768136	0.438711	-1.658448	7
C	-1.627996	-0.535459	-0.713288	6
O	-2.093926	-1.655079	-0.886687	8
C	-0.842806	-0.134539	0.518942	6
C	0.601924	-0.524039	0.418792	6
C	1.639714	0.465181	-0.047128	6
C	1.601984	0.039981	1.394882	6
H	-1.203956	1.276481	-1.647207	1
H	-2.213576	0.170421	-2.526438	1
H	-1.301016	-0.635049	1.379762	1
H	-0.955386	0.943171	0.688372	1
H	0.722994	-1.566249	0.138752	1
H	1.337534	1.479671	-0.279207	1
H	2.451783	0.094161	-0.663108	1
H	2.386873	-0.618389	1.751392	1
H	1.263994	0.761031	2.130612	1
Es	-0.842806	-0.134541	0.518875	99
Es	-2.012230	0.276820	-2.178058	99
Es	-0.134731	-0.313921	0.454293	99
Es	-1.899955	0.429199	-1.493150	99
Es	1.426999	1.157363	-0.202909	99
Es	1.045353	-0.034131	0.001636	99
Es	-1.767556	0.438297	-1.658573	99
Es	1.639640	0.465096	-0.046996	99
Es	-2.064027	-1.859097	-0.641839	99
Es	-1.715795	-1.351771	-0.923733	99
Es	1.008482	-0.345933	1.047896	99
Es	-1.420825	0.937799	-1.650379	99
Es	-0.908737	0.608068	0.622542	99
Es	0.690030	-1.226598	0.228152	99
Es	1.776193	0.367716	0.701721	99
Es	-2.093792	-1.654768	-0.886631	99
Es	-2.148757	-1.216412	-0.731855	99
Es	2.187032	0.214757	-0.457164	99
Es	-1.228758	-0.321604	-0.104906	99
Es	1.601910	0.039979	1.394693	99
Es	-1.149216	-0.475004	1.092743	99
Es	1.369389	0.529869	1.888650	99
Es	0.601992	-0.523901	0.418830	99
Es	-1.645572	0.011677	-1.286692	99
Es	2.127474	-0.401159	1.629731	99
Es	-2.227974	-1.656257	-1.164979	99
Es	-1.627990	-0.535305	-0.713369	99
43
Properties=species:S:1:pos:R:3:Z:I:1 energy=-323.9990512004171 field_type=dipole dipole="0.000000 0.000000 0.000000" charge=0
N	-1.768136	0.438711	-1.658448	7
C	-1.627996	-0.535459	-0.713288	6
O	-2.093926	-1.655079	-0.886687	8
C	-0.842806	-0.134539	0.518942	6
C	0.601924	-0.524039	0.418792	6
C	1.639714	0.465181	-0.047128	6
C	1.601984	0.039981	1.394882	6
H	-1.203956	1.276481	-1.647207	1
H	-2.213576	0.170421	-2.526438	1
H	-1.301016	-0.635049	1.379762	1
H	-0.955386	0.943171	0.688372	1
H	0.722994	-1.566249	0.138752	1
H	1.337534	1.479671	-0.279207	1
H	2.451783	0.094161	-0.663108	1
H	2.386873	-0.618389	1.751392	1
H	1.263994	0.761031	2.130612	1
Es	1.045394	-0.034233	0.001920	99
Es	-1.714864	-1.349880	-0.923619	99
Es	-2.093816	-1.654850	-0.886628	99
Es	-2.064355	-1.859397	-0.642660	99
Es	-1.649951	0.012176	-1.283250	99
Es	-1.228769	-0.321595	-0.104894	99
Es	-2.228027	-1.655681	-1.164363	99
Es	1.008275	-0.346262	1.047507	99
Es	1.639642	0.465095	-0.047005	99
Es	-2.011843	0.276825	-2.178148	99
Es	-0.842806	-0.134542	0.518876	99
Es	1.776129	0.367732	0.701595	99
Es	-1.149208	-0.474985	1.092505	99
Es	-0.908715	0.608213	0.622686	99
Es	0.601996	-0.523890	0.418827	99
Es	2.127405	-0.400903	1.629636	99
Es	-1.627990	-0.535307	-0.713368	99
Es	-0.134818	-0.314007	0.454373	99
Es	-1.421721	0.938647	-1.649551	99
Es	-1.767403	0.438163	-1.658572	99
Es	-1.895240	0.427984	-1.497239	99
Es	0.690113	-1.226698	0.228063	99
Es	2.187143	0.214833	-0.456901	99
Es	1.601913	0.039979	1.394700	99
Es	1.427150	1.157507	-0.202767	99
Es	-2.149268	-1.218531	-0.731836	99
Es	1.369404	0.529846	1.888644	99
43
Properties=species:S:1:pos:R:3:Z:I:1 energy=-323.9990512004171 field_type=dipole dipole="0.000000 0.000000 0.000000" charge=0
N	-1.768136	0.438711	-1.658448	7
C	-1.627996	-0.535459	-0.713288	6
O	-2.093926	-1.655079	-0.886687	8
C	-0.842806	-0.134539	0.518942	6
C	0.601924	-0.524039	0.418792	6
C	1.639714	0.465181	-0.047128	6
C	1.601984	0.039981	1.394882	6
H	-1.203956	1.276481	-1.647207	1
H	-2.213576	0.170421	-2.526438	1
H	-1.301016	-0.635049	1.379762	1
H	-0.955386	0.943171	0.688372	1
H	0.722994	-1.566249	0.138752	1
H	1.337534	1.479671	-0.279207	1
H	2.451783	0.094161	-0.663108	1
H	2.386873	-0.618389	1.751392	1
H	1.263994	0.761031	2.130612	1
Es	-1.767391	0.438107	-1.658516	99
Es	-1.149073	-0.474967	1.092434	99
Es	1.776338	0.367565	0.701510	99
Es	-1.652788	0.012789	-1.281081	99
Es	-1.714230	-1.351695	-0.923027	99
Es	-0.842806	-0.134541	0.518878	99
Es	-2.013125	0.276981	-2.177929	99
Es	1.369550	0.530036	1.888626	99
Es	-0.134973	-0.314044	0.454386	99
Es	1.427272	1.157558	-0.202665	99
Es	-2.067265	-1.863074	-0.645280	99
Es	-1.891148	0.427101	-1.499688	99
Es	2.127244	-0.400648	1.629516	99
Es	1.008178	-0.346498	1.047454	99
Es	0.690051	-1.226761	0.227997	99
Es	1.045258	-0.034374	0.002039	99
Es	-0.908515	0.608325	0.622785	99
Es	-1.228831	-0.321570	-0.104923	99
Es	-1.627991	-0.535305	-0.713369	99
Es	2.187054	0.214917	-0.456807	99
Es	1.601912	0.039979	1.394696	99
Es	-2.148925	-1.217549	-0.730523	99
Es	1.639631	0.465091	-0.046997	99
Es	-2.093833	-1.654884	-0.886676	99
Es	0.601998	-0.523890	0.418830	99
Es	-2.226161	-1.651144	-1.163660	99
Es	-1.421660	0.938734	-1.649480	99
43
Properties=species:S:1:pos:R:3:Z:I:1 energy=-323.9990512004171 field_type=dipole dipole="0.000000 0.000000 0.000000" charge=0
N	-1.768136	0.438711	-1.658448	7
C	-1.627996	-0.535459	-0.713288	6
O	-2.093926	-1.655079	-0.886687	8
C	-0.842806	-0.134539	0.518942	6
C	0.601924	-0.524039	0.418792	6
C	1.639714	0.465181	-0.047128	6
C	1.601984	0.039981	1.394882	6
H	-1.203956	1.276481	-1.647207	1
H	-2.213576	0.170421	-2.526438	1
H	-1.301016	-0.635049	1.379762	1
H	-0.955386	0.943171	0.688372	1
H	0.722994	-1.566249	0.138752	1
H	1.337534	1.479671	-0.279207	1
H	2.451783	0.094161	-0.663108	1
H	2.386873	-0.618389	1.751392	1
H	1.263994	0.761031	2.130612	1
Es	1.045539	-0.034415	0.002170	99
Es	-2.150244	-1.219930	-0.732271	99
Es	1.639639	0.465094	-0.046995	99
Es	1.369707	0.529970	1.888613	99
Es	-2.228299	-1.657123	-1.164137	99
Es	1.427427	1.157801	-0.202674	99
Es	-1.651130	0.012490	-1.282427	99
Es	0.601994	-0.523894	0.418826	99
Es	-1.149082	-0.475208	1.092465	99
Es	-0.842808	-0.134541	0.518878	99
Es	1.601913	0.039979	1.394696	99
Es	-0.908469	0.608423	0.622799	99
Es	-2.063091	-1.858698	-0.642127	99
Es	-2.012967	0.276907	-2.177739	99
Es	-1.767592	0.438329	-1.658573	99
Es	1.776489	0.367617	0.700994	99
Es	0.689872	-1.226969	0.228139	99
Es	2.186974	0.215003	-0.456412	99
Es	-1.715020	-1.347855	-0.923939	99
Es	-1.422002	0.939113	-1.649468	99
Es	-1.627991	-0.535306	-0.713368	99
Es	-0.134955	-0.313893	0.454520	99
Es	1.007763	-0.346987	1.047323	99
Es	2.126897	-0.400266	1.629340	99
Es	-2.093804	-1.654734	-0.886670	99
Es	-1.892346	0.426893	-1.498484	99
Es	-1.228642	-0.321564	-0.104951	99
43
Properties=species:S:1:pos:R:3:Z:I:1 energy=-323.9990512004171 field_type=dipole dipole="0.000000 0.000000 0.000000" charge=0
N	-1.768136	0.438711	-1.658448	7
C	-1.627996	-0.535459	-0.713288	6
O	-2.093926	-1.655079	-0.886687	8
C	-0.842806	-0.134539	0.518942	6
C	0.601924	-0.524039	0.418792	6
C	1.639714	0.465181	-0.047128	6
C	1.601984	0.039981	1.394882	6
H	-1.203956	1.276481	-1.647207	1
H	-2.213576	0.170421	-2.526438	1
H	-1.301016	-0.635049	1.379762	1
H	-0.955386	0.943171	0.688372	1
H	0.722994	-1.566249	0.138752	1
H	1.337534	1.479671	-0.279207	1
H	2.451783	0.094161	-0.663108	1
H	2.386873	-0.618389	1.751392	1
H	1.263994	0.761031	2.130612	1
Es	0.689920	-1.226967	0.227983	99
Es	-1.627992	-0.535305	-0.713368	99
Es	-0.134988	-0.313966	0.454531	99
Es	1.639637	0.465094	-0.046995	99
Es	-2.067960	-1.863319	-0.645069	99
Es	-1.713741	-1.347693	-0.921147	99
Es	2.186811	0.215057	-0.456389	99
Es	1.045100	-0.034626	0.002169	99
Es	1.007833	-0.346884	1.047392	99
Es	1.601913	0.039979	1.394697	99
Es	-0.908446	0.608486	0.622921	99
Es	-1.767502	0.438212	-1.658517	99
Es	-1.890584	0.426619	-1.500367	99
Es	-1.653457	0.013090	-1.280679	99
Es	-0.842807	-0.134541	0.518877	99
Es	0.601997	-0.523891	0.418828	99
Es	-2.150490	-1.221051	-0.732396	99
Es	-1.422194	0.939348	-1.649148	99
Es	2.126973	-0.400197	1.629328	99
Es	-2.093842	-1.654801	-0.886640	99
Es	1.369814	0.530075	1.888523	99
Es	-1.148967	-0.475085	1.092301	99
Es	1.776611	0.367495	0.701122	99
Es	1.427616	1.157798	-0.202541	99
Es	-1.228659	-0.321665	-0.105032	99
Es	-2.012370	0.276444	-2.177915	99
Es	-2.224456	-1.651465	-1.163943	99
43
Properties=species:S:1:pos:R:3:Z:I:1 energy=-323.9990512004171 field_type=dipole dipole="0.000000 0.000000 0.000000" charge=0
N	-1.768136	0.438711	-1.658448	7
C	-1.627996	-0.535459	-0.713288	6
O	-2.093926	-1.655079	-0.886687	8
C	-0.842806	-0.134539	0.518942	6
C	0.601924	-0.524039	0.418792	6
C	1.639714	0.465181	-0.047128	6
C	1.601984	0.039981	1.394882	6
H	-1.203956	1.276481	-1.647207	1
H	-2.213576	0.170421	-2.526438	1
H	-1.301016	-0.635049	1.379762	1
H	-0.955386	0.943171	0.688372	1
H	0.722994	-1.566249	0.138752	1
H	1.337534	1.479671	-0.279207	1
H	2.451783	0.094161	-0.663108	1
H	2.386873	-0.618389	1.751392	1
H	1.263994	0.761031	2.130612	1
Es	-1.422101	0.939331	-1.649227	99
Es	-2.148306	-1.217695	-0.730231	99
Es	-0.842806	-0.134541	0.518876	99
Es	-2.065710	-1.860843	-0.644391	99
Es	-1.655284	0.013225	-1.279299	99
Es	0.601997	-0.523891	0.418829	99
Es	1.776957	0.367656	0.700527	99
Es	-1.228542	-0.321679	-0.104983	99
Es	-1.887625	0.425817	-1.501861	99
Es	-2.013398	0.276985	-2.177622	99
Es	-2.228499	-1.653203	-1.163847	99
Es	-2.093808	-1.654804	-0.886654	99
Es	1.427734	1.158010	-0.202415	99
Es	1.369878	0.530011	1.888554	99
Es	-1.767619	0.438370	-1.658592	99
Es	-1.149025	-0.475171	1.092377	99
Es	-0.908195	0.608634	0.622816	99
Es	-0.135156	-0.313984	0.454576	99
Es	2.186701	0.215056	-0.456302	99
Es	-1.627992	-0.535305	-0.713367	99
Es	1.045370	-0.034624	0.002865	99
Es	1.007350	-0.347298	1.046939	99
Es	1.601910	0.039978	1.394695	99
Es	-1.714233	-1.351784	-0.924061	99
Es	1.639638	0.465095	-0.046997	99
Es	2.126726	-0.399983	1.629205	99
Es	0.689810	-1.227124	0.228118	99
43
Properties=species:S:1:pos:R:3:Z:I:1 energy=-323.9990512004171 field_type=dipole dipole="0.000000 0.000000 0.000000" charge=0
N	-1.768136	0.438711	-1.658448	7
C	-1.627996	-0.535459	-0.713288	6
O	-2.093926	-1.655079	-0.886687	8
C	-0.842806	-0.134539	0.518942	6
C	0.601924	-0.524039	0.418792	6
C	1.639714	0.465181	-0.047128	6
C	1.601984	0.039981	1.394882	6
H	-1.203956	1.276481	-1.647207	1
H	-2.213576	0.170421	-2.526438	1
H	-1.301016	-0.635049	1.379762	1
H	-0.955386	0.943171	0.688372	1
H	0.722994	-1.566249	0.138752	1
H	1.337534	1.479671	-0.279207	1
H	2.451783	0.094161	-0.663108	1
H	2.386873	-0.618389	1.751392	1
H	1.263994	0.761031	2.130612	1
Es	-2.227339	-1.653570	-1.163579	99
Es	-1.422349	0.939551	-1.649088	99
Es	2.126745	-0.399816	1.628998	99
Es	0.601996	-0.523892	0.418830	99
Es	-2.065513	-1.861369	-0.643417	99
Es	1.639635	0.465093	-0.046995	99
Es	1.601913	0.039979	1.394697	99
Es	-1.652856	0.013030	-1.281256	99
Es	-0.907829	0.608739	0.622889	99
Es	1.007270	-0.347491	1.047051	99
Es	-2.012739	0.276521	-2.177751	99
Es	1.427822	1.158068	-0.202281	99
Es	1.776919	0.367750	0.700478	99
Es	-0.135427	-0.314133	0.454653	99
Es	-1.767436	0.438195	-1.658586	99
Es	-2.149581	-1.221575	-0.732388	99
Es	-1.890600	0.426381	-1.499897	99
Es	-1.627989	-0.535307	-0.713369	99
Es	-1.714358	-1.347028	-0.923195	99
Es	-1.149006	-0.475173	1.092346	99
Es	1.045297	-0.034600	0.002772	99
Es	-0.842806	-0.134541	0.518878	99
Es	2.186610	0.215183	-0.456198	99
Es	1.369910	0.529846	1.888681	99
Es	-1.228523	-0.321673	-0.105115	99
Es	0.689805	-1.227146	0.228011	99
Es	-2.093802	-1.654783	-0.886641	99
43
Properties=species:S:1:pos:R:3:Z:I:1 energy=-323.9990512004171 field_type=dipole dipole="0.000000 0.000000 0.000000" charge=0
N	-1.768136	0.438711	-1.658448	7
C	-1.627996	-0.535459	-0.713288	6
O	-2.093926	-1.655079	-0.886687	8
C	-0.842806	-0.134539	0.518942	6
C	0.601924	-0.524039	0.418792	6
C	1.639714	0.465181	-0.047128	6
C	1.601984	0.039981	1.394882	6
H	-1.203956	1.276481	-1.647207	1
H	-2.213576	0.170421	-2.526438	1
H	-1.301016	-0.635049	1.379762	1
H	-0.955386	0.943171	0.688372	1
H	0.722994	-1.566249	0.138752	1
H	1.337534	1.479671	-0.279207	1
H	2.451783	0.094161	-0.663108	1
H	2.386873	-0.618389	1.751392	1
H	1.263994	0.761031	2.130612	1
Es	-2.149649	-1.222447	-0.731510	99
Es	-0.907773	0.608784	0.622780	99
Es	-0.842807	-0.134542	0.518877	99
Es	1.639634	0.465092	-0.046997	99
Es	-2.066760	-1.863410	-0.645429	99
Es	1.007268	-0.347709	1.047311	99
Es	-0.135334	-0.313999	0.454645	99
Es	-1.891185	0.426801	-1.499239	99
Es	-1.651789	0.012835	-1.282113	99
Es	-1.422054	0.939338	-1.649355	99
Es	-1.627987	-0.535306	-0.713370	99
Es	-1.148861	-0.475223	1.092498	99
Es	1.428009	1.158087	-0.202403	99
Es	2.186606	0.215220	-0.455850	99
Es	-1.767241	0.437857	-1.658359	99
Es	1.777010	0.367546	0.700496	99
Es	1.045215	-0.034577	0.002326	99
Es	-2.226402	-1.651098	-1.163662	99
Es	-2.093771	-1.654761	-0.886572	99
Es	0.689579	-1.227250	0.228012	99
Es	-2.013646	0.276846	-2.177513	99
Es	2.126348	-0.399526	1.628894	99
Es	1.601911	0.039975	1.394693	99
Es	-1.228538	-0.321793	-0.105073	99
Es	-1.714047	-1.346602	-0.922067	99
Es	0.601997	-0.523892	0.418831	99
Es	1.370035	0.529994	1.888680	99
43
Properties=species:S:1:pos:R:3:Z:I:1 energy=-323.9990512004171 field_type=dipole dipole="0.000000 0.000000 0.000000" charge=0
N	-1.768136	0.438711	-1.658448	7
C	-1.627996	-0.535459	-0.713288	6
O	-2.093926	-1.655079	-0.886687	8
C	-0.842806	-0.134539	0.518942	6
C	0.601924	-0.524039	0.418792	6
C	1.639714	0.465181	-0.047128	6
C	1.601984	0.039981	1.394882	6
H	-1.203956	1.276481	-1.647207	1
H	-2.213576	0.170421	-2.526438	1
H	-1.301016	-0.635049	1.379762	1
H	-0.955386	0.943171	0.688372	1
H	0.722994	-1.566249	0.138752	1
H	1.337534	1.479671	-0.279207	1
H	2.451783	0.094161	-0.663108	1
H	2.386873	-0.618389	1.751392	1
H	1.263994	0.761031	2.130612	1
Es	-1.767437	0.438168	-1.658545	99
Es	1.370049	0.530028	1.888613	99
Es	-2.093763	-1.654764	-0.886564	99
Es	1.428096	1.158188	-0.202274	99
Es	-1.228491	-0.321660	-0.104932	99
Es	1.601911	0.039978	1.394696	99
Es	-2.227603	-1.653864	-1.163904	99
Es	-0.135193	-0.313992	0.454766	99
Es	-1.422465	0.939776	-1.649040	99
Es	-0.842807	-0.134542	0.518877	99
Es	2.186667	0.215185	-0.455836	99
Es	-1.714585	-1.345845	-0.922952	99
Es	-2.064180	-1.861470	-0.644556	99
Es	-0.908016	0.608810	0.622839	99
Es	0.601995	-0.523895	0.418830	99
Es	2.126332	-0.399511	1.628936	99
Es	-1.886597	0.425390	-1.502330	99
Es	1.045300	-0.034725	0.002881	99
Es	1.639635	0.465091	-0.046992	99
Es	-2.013900	0.276896	-2.177395	99
Es	-1.627989	-0.535306	-0.713369	99
Es	0.689621	-1.227308	0.228156	99
Es	-2.150450	-1.222414	-0.731333	99
Es	-1.148979	-0.475256	1.092315	99
Es	1.777104	0.367637	0.700161	99
Es	1.007073	-0.347799	1.046669	99
Es	-1.655556	0.013440	-1.279186	99
43
Properties=species:S:1:pos:R:3:Z:I:1 energy=-323.9990512004171 field_type=dipole dipole="0.000000 0.000000 0.000000" charge=0
N	-1.768136	0.438711	-1.658448	7
C	-1.627996	-0.535459	-0.713288	6
O	-2.093926	-1.655079	-0.886687	8
C	-0.842806	-0.134539	0.518942	6
C	0.601924	-0.524039	0.418792	6
C	1.639714	0.465181	-0.047128	6
C	1.601984	0.039981	1.394882	6
H	-1.203956	1.276481	-1.647207	1
H	-2.213576	0.170421	-2.526438	1
H	-1.301016	-0.635049	1.379762	1
H	-0.955386	0.943171	0.688372	1
H	0.722994	-1.566249	0.138752	1
H	1.337534	1.479671	-0.279207	1
H	2.451783	0.094161	-0.663108	1
H	2.386873	-0.618389	1.751392	1
H	1.263994	0.761031	2.130612	1
Es	1.776873	0.367303	0.700121	99
Es	-1.713875	-1.347275	-0.921861	99
Es	-1.228413	-0.321693	-0.104997	99
Es	1.045464	-0.034714	0.003119	99
Es	-2.066784	-1.862070	-0.644418	99
Es	0.601995	-0.523894	0.418830	99
Es	-1.148959	-0.475220	1.092223	99
Es	-1.883518	0.425459	-1.505413	99
Es	-2.014552	0.277055	-2.177297	99
Es	0.689787	-1.227367	0.228072	99
Es	1.370167	0.530218	1.888579	99
Es	-2.225535	-1.652968	-1.163949	99
Es	-0.135374	-0.313977	0.454641	99
Es	2.126467	-0.399432	1.628859	99
Es	-2.150627	-1.221280	-0.732407	99
Es	1.006816	-0.347899	1.046671	99
Es	1.428106	1.158279	-0.202046	99
Es	-1.658260	0.014037	-1.277277	99
Es	-1.422593	0.939927	-1.648835	99
Es	-2.093806	-1.654753	-0.886673	99
Es	2.186683	0.215256	-0.455869	99
Es	1.601911	0.039980	1.394697	99
Es	-0.907988	0.608871	0.622893	99
Es	-0.842806	-0.134543	0.518876	99
Es	-1.767049	0.437154	-1.657649	99
Es	1.639636	0.465093	-0.046995	99
Es	-1.627993	-0.535305	-0.713367	99
43
Properties=species:S:1:pos:R:3:Z:I:1 energy=-323.9990512004171 field_type=dipole dipole="0.000000 0.000000 0.000000" charge=0
N	-1.768136	0.438711	-1.658448	7
C	-1.627996	-0.535459	-0.713288	6
O	-2.093926	-1.655079	-0.886687	8
C	-0.842806	-0.134539	0.518942	6
C	0.601924	-0.524039	0.418792	6
C	1.639714	0.465181	-0.047128	6
C	1.601984	0.039981	1.394882	6
H	-1.203956	1.276481	-1.647207	1
H	-2.213576	0.170421	-2.526438	1
H	-1.301016	-0.635049	1.379762	1
H	-0.955386	0.943171	0.688372	1
H	0.722994	-1.566249	0.138752	1
H	1.337534	1.479671	-0.279207	1
H	2.451783	0.094161	-0.663108	1
H	2.386873	-0.618389	1.751392	1
H	1.263994	0.761031	2.130612	1
Es	2.126302	-0.399252	1.628819	99
Es	1.045361	-0.034711	0.003119	99
Es	-1.627991	-0.535306	-0.713368	99
Es	1.639636	0.465093	-0.046995	99
Es	-1.713786	-1.346557	-0.921210	99
Es	-1.657177	0.013746	-1.278027	99
Es	1.777213	0.367366	0.700405	99
Es	1.370222	0.530284	1.888535	99
Es	-2.225081	-1.649163	-1.163593	99
Es	-0.135344	-0.313873	0.454848	99
Es	1.006819	-0.348090	1.046505	99
Es	2.186590	0.215254	-0.455910	99
Es	-0.908001	0.608868	0.623031	99
Es	-2.149815	-1.222737	-0.731499	99
Es	0.601990	-0.523894	0.418827	99
Es	-2.068220	-1.865087	-0.646406	99
Es	-1.884071	0.424315	-1.503758	99
Es	-0.842807	-0.134542	0.518877	99
Es	-2.013914	0.276873	-2.177598	99
Es	0.689657	-1.227389	0.228071	99
Es	-1.422775	0.940008	-1.648547	99
Es	-1.148879	-0.475216	1.092125	99
Es	1.601910	0.039977	1.394693	99
Es	-1.228414	-0.321717	-0.105125	99
Es	-2.093798	-1.654785	-0.886640	99
Es	1.428141	1.158125	-0.202149	99
Es	-1.767998	0.438648	-1.658501	99
43
Properties=species:S:1:pos:R:3:Z:I:1 energy=-323.9990512004171 field_type=dipole dipole="0.000000 0.000000 0.000000" charge=0
N	-1.768136	0.438711	-1.658448	7
C	-1.627996	-0.535459	-0.713288	6
O	-2.093926	-1.655079	-0.886687	8
C	-0.842806	-0.134539	0.518942	6
C	0.601924	-0.524039	0.418792	6
C	1.639714	0.465181	-0.047128	6
C	1.601984	0.039981	1.394882	6
H	-1.203956	1.276481	-1.647207	1
H	-2.213576	0.170421	-2.526438	1
H	-1.301016	-0.635049	1.379762	1
H	-0.955386	0.943171	0.688372	1
H	0.722994	-1.566249	0.138752	1
H	1.337534	1.479671	-0.279207	1
H	2.451783	0.094161	-0.663108	1
H	2.386873	-0.618389	1.751392	1
H	1.263994	0.761031	2.130612	1
Es	0.601995	-0.523892	0.418833	99
Es	-1.627991	-0.535305	-0.713368	99
Es	1.777290	0.367440	0.700155	99
Es	-2.014386	0.276792	-2.177358	99
Es	-2.068176	-1.864668	-0.646120	99
Es	2.186633	0.215385	-0.455631	99
Es	1.370177	0.530181	1.888719	99
Es	0.689729	-1.227426	0.228010	99
Es	-1.657819	0.014129	-1.277621	99
Es	-2.149994	-1.222904	-0.731815	99
Es	-0.907715	0.608932	0.622974	99
Es	2.126074	-0.399363	1.628768	99
Es	-2.093802	-1.654790	-0.886636	99
Es	-1.228679	-0.321800	-0.105039	99
Es	-1.883840	0.424891	-1.504480	99
Es	-1.148720	-0.475092	1.092216	99
Es	1.639643	0.465096	-0.046992	99
Es	1.045465	-0.034847	0.003183	99
Es	1.601911	0.039977	1.394700	99
Es	1.006726	-0.347989	1.046362	99
Es	-0.135500	-0.314065	0.454630	99
Es	-1.422749	0.940096	-1.648655	99
Es	1.428158	1.158258	-0.202107	99
Es	-1.767146	0.437729	-1.658295	99
Es	-0.842807	-0.134541	0.518878	99
Es	-1.713679	-1.346313	-0.921137	99
Es	-2.225028	-1.649672	-1.163645	99
43
Properties=species:S:1:pos:R:3:Z:I:1 energy=-323.9990512004171 field_type=dipole dipole="0.000000 0.000000 0.000000" charge=0
N	-1.768136	0.438711	-1.658448	7
C	-1.627996	-0.535459	-0.713288	6
O	-2.093926	-1.655079	-0.886687	8
C	-0.842806	-0.134539	0.518942	6
C	0.601924	-0.524039	0.418792	6
C	1.639714	0.465181	-0.047128	6
C	1.601984	0.039981	1.394882	6
H	-1.203956	1.276481	-1.647207	1
H	-2.213576	0.170421	-2.526438	1
H	-1.301016	-0.635049	1.379762	1
H	-0.955386	0.943171	0.688372	1
H	0.722994	-1.566249	0.138752	1
H	1.337534	1.479671	-0.279207	1
H	2.451783	0.094161	-0.663108	1
H	2.386873	-0.618389	1.751392	1
H	1.263994	0.761031	2.130612	1
Es	1.006719	-0.348293	1.046458	99
Es	2.126284	-0.399098	1.628569	99
Es	-2.093776	-1.654766	-0.886594	99
Es	1.370307	0.530288	1.888716	99
Es	-1.228523	-0.321718	-0.105002	99
Es	0.689662	-1.227461	0.228030	99
Es	-2.225966	-1.650502	-1.163655	99
Es	2.186676	0.215308	-0.455607	99
Es	-1.148876	-0.475116	1.092078	99
Es	-0.842807	-0.134541	0.518877	99
Es	1.428201	1.158376	-0.202075	99
Es	-0.907843	0.608982	0.622984	99
Es	-2.066039	-1.864434	-0.646545	99
Es	-0.135310	-0.314103	0.454799	99
Es	-1.422777	0.940143	-1.648628	99
Es	-2.150731	-1.224757	-0.731193	99
Es	-1.767169	0.437826	-1.658402	99
Es	1.776889	0.367359	0.699911	99
Es	-1.714161	-1.343897	-0.921362	99
Es	1.045456	-0.034858	0.003374	99
Es	-1.882467	0.424513	-1.505451	99
Es	-1.659224	0.014238	-1.276602	99
Es	-1.627991	-0.535306	-0.713368	99
Es	1.601910	0.039978	1.394697	99
Es	0.601996	-0.523892	0.418830	99
Es	1.639637	0.465091	-0.046993	99
Es	-2.014307	0.276880	-2.177318	99
43
Properties=species:S:1:pos:R:3:Z:I:1 energy=-323.9990512004171 field_type=dipole dipole="0.000000 0.000000 0.000000" charge=0
N	-1.768136	0.438711	-1.658448	7
C	-1.627996	-0.535459	-0.713288	6
O	-2.093926	-1.655079	-0.886687	8
C	-0.842806	-0.134539	0.518942	6
C	0.601924	-0.524039	0.418792	6
C	1.639714	0.465181	-0.047128	6
C	1.601984	0.039981	1.394882	6
H	-1.203956	1.276481	-1.647207	1
H	-2.213576	0.170421	-2.526438	1
H	-1.301016	-0.635049	1.379762	1
H	-0.955386	0.943171	0.688372	1
H	0.722994	-1.566249	0.138752	1
H	1.337534	1.479671	-0.279207	1
H	2.451783	0.094161	-0.663108	1
H	2.386873	-0.618389	1.751392	1
H	1.263994	0.761031	2.130612	1
Es	1.045275	-0.034919	0.003069	99
Es	-1.656597	0.013782	-1.278643	99
Es	-2.224614	-1.649412	-1.163262	99
Es	0.689483	-1.227469	0.228004	99
Es	-2.069235	-1.864721	-0.646151	99
Es	-1.713222	-1.346949	-0.921151	99
Es	-1.767451	0.438193	-1.658557	99
Es	1.370397	0.530114	1.888618	99
Es	-1.627989	-0.535307	-0.713369	99
Es	1.777303	0.367505	0.700055	99
Es	-1.148706	-0.475204	1.092320	99
Es	-1.228420	-0.321838	-0.105138	99
Es	-2.149877	-1.222518	-0.732147	99
Es	-2.014312	0.276792	-2.177380	99
Es	-0.842806	-0.134542	0.518877	99
Es	-0.907570	0.608987	0.622909	99
Es	-2.093821	-1.654702	-0.886647	99
Es	2.126051	-0.398954	1.628553	99
Es	-1.884598	0.424502	-1.503364	99
Es	2.186411	0.215362	-0.455392	99
Es	1.601906	0.039974	1.394687	99
Es	-0.135591	-0.313915	0.454857	99
Es	1.006659	-0.348383	1.046598	99
Es	1.428421	1.158377	-0.202164	99
Es	-1.422959	0.940280	-1.648489	99
Es	0.601994	-0.523890	0.418831	99
Es	1.639638	0.465093	-0.046996	99
43
Properties=species:S:1:pos:R:3:Z:I:1 energy=-323.9990512004171 field_type=dipole dipole="0.000000 0.000000 0.000000" charge=0
N	-1.768136	0.438711	-1.658448	7
C	-1.627996	-0.535459	-0.713288	6
O	-2.093926	-1.655079	-0.886687	8
C	-0.842806	-0.134539	0.518942	6
C	0.601924	-0.524039	0.418792	6
C	1.639714	0.465181	-0.047128	6
C	1.601984	0.039981	1.394882	6
H	-1.203956	1.276481	-1.647207	1
H	-2.213576	0.170421	-2.526438	1
H	-1.301016	-0.635049	1.379762	1
H	-0.955386	0.943171	0.688372	1
H	0.722994	-1.566249	0.138752	1
H	1.337534	1.479671	-0.279207	1
H	2.451783	0.094161	-0.663108	1
H	2.386873	-0.618389	1.751392	1
H	1.263994	0.761031	2.130612	1
Es	0.689394	-1.227603	0.228110	99
Es	1.428445	1.158486	-0.202119	99
Es	2.186545	0.215295	-0.455342	99
Es	-1.627991	-0.535306	-0.713368	99
Es	-1.767694	0.438411	-1.658561	99
Es	1.370415	0.530219	1.888651	99
Es	0.601995	-0.523893	0.418834	99
Es	-2.014445	0.276932	-2.177380	99
Es	-0.907632	0.609035	0.622930	99
Es	1.006740	-0.348348	1.046436	99
Es	-2.150426	-1.223688	-0.732152	99
Es	-1.228382	-0.321813	-0.105113	99
Es	-1.713504	-1.345251	-0.921675	99
Es	-1.423156	0.940441	-1.648281	99
Es	-0.135395	-0.313916	0.454905	99
Es	-1.148835	-0.475168	1.092176	99
Es	1.777209	0.367399	0.699787	99
Es	1.601908	0.039974	1.394701	99
Es	-1.882523	0.423794	-1.504662	99
Es	2.125933	-0.398877	1.628510	99
Es	-2.067302	-1.863463	-0.645529	99
Es	1.639631	0.465091	-0.046997	99
Es	1.045289	-0.035065	0.003255	99
Es	-1.658111	0.014018	-1.277503	99
Es	-0.842807	-0.134541	0.518877	99
Es	-2.225713	-1.651206	-1.163234	99
Es	-2.093818	-1.654716	-0.886730	99
43
Properties=species:S:1:pos:R:3:Z:I:1 energy=-323.9990512004171 field_type=dipole dipole="0.000000 0.000000 0.000000" charge=0
N	-1.768136	0.438711	-1.658448	7
C	-1.627996	-0.535459	-0.713288	6
O	-2.093926	-1.655079	-0.886687	8
C	-0.842806	-0.134539	0.518942	6
C	0.601924	-0.524039	0.418792	6
C	1.639714	0.465181	-0.047128	6
C	1.601984	0.039981	1.394882	6
H	-1.203956	1.276481	-1.647207	1
H	-2.213576	0.170421	-2.526438	1
H	-1.301016	-0.635049	1.379762	1
H	-0.955386	0.943171	0.688372	1
H	0.722994	-1.566249	0.138752	1
H	1.337534	1.479671	-0.279207	1
H	2.451783	0.094161	-0.663108	1
H	2.386873	-0.618389	1.751392	1
H	1.263994	0.761031	2.130612	1
Es	0.601994	-0.523892	0.418829	99
Es	1.777358	0.367308	0.699583	99
Es	-1.713332	-1.348059	-0.923125	99
Es	-2.227017	-1.651203	-1.162983	99
Es	1.601911	0.039977	1.394697	99
Es	-1.423006	0.940410	-1.648548	99
Es	1.370317	0.530239	1.888781	99
Es	-0.135354	-0.314046	0.454779	99
Es	-0.842806	-0.134542	0.518876	99
Es	-1.148818	-0.475159	1.092183	99
Es	-1.768659	0.438928	-1.658054	99
Es	1.428525	1.158600	-0.201908	99
Es	1.045570	-0.034932	0.003414	99
Es	-0.907568	0.609053	0.622934	99
Es	2.186394	0.215411	-0.455311	99
Es	2.125884	-0.398858	1.628456	99
Es	-1.627989	-0.535307	-0.713370	99
Es	-2.093802	-1.654789	-0.886623	99
Es	-1.228504	-0.321739	-0.104968	99
Es	-2.015178	0.277041	-2.177063	99
Es	1.006461	-0.348628	1.046191	99
Es	-2.149160	-1.221517	-0.731589	99
Es	-2.067420	-1.862788	-0.645140	99
Es	-1.659204	0.014299	-1.276643	99
Es	1.639635	0.465093	-0.046995	99
Es	-1.879858	0.422909	-1.506014	99
Es	0.689396	-1.227569	0.228138	99
