40
Properties=species:S:1:pos:R:3:Z:I:1 energy=-322.82151332169724 field_type=dipole dipole="0.000000 0.000000 0.000000" charge=0
N	-0.668392	-2.056674	-0.252899	7
C	-1.204282	-0.937964	0.310361	6
O	-2.326572	-0.956734	0.801551	8
C	-0.344913	0.294616	0.239771	6
C	-0.980892	1.473986	0.341361	6
C	1.104358	0.188176	0.196541	6
C	1.918437	0.977316	-0.517359	6
H	0.188658	-2.044274	-0.786149	1
H	-1.250182	-2.882794	-0.281539	1
H	-2.063632	1.526806	0.422601	1
H	-0.445943	2.416986	0.361901	1
H	1.535948	-0.612164	0.795791	1
H	1.543698	1.784426	-1.139709	1
H	2.993708	0.828296	-0.492229	1
Es	1.918491	0.977371	-0.517400	99
Es	-1.009459	-2.540764	-0.289401	99
Es	-0.344873	0.294487	0.239762	99
Es	-2.326287	-0.956734	0.801417	99
Es	-0.980906	1.474063	0.341326	99
Es	1.386058	-0.356224	0.600521	99
Es	-0.670130	0.848486	-0.042276	99
Es	-0.932991	-1.596916	-0.215423	99
Es	-0.609996	0.838101	0.592478	99
Es	-0.668573	-2.056491	-0.253145	99
Es	1.104254	0.188110	0.196595	99
Es	-2.411665	-0.685105	0.925531	99
Es	2.646212	0.882491	-0.501993	99
Es	-2.453142	-1.243057	0.766042	99
Es	-0.618878	-1.945170	0.068549	99
Es	-2.049494	-0.873701	0.422374	99
Es	-0.170055	-2.042672	-0.580585	99
Es	0.375355	0.229641	0.203856	99
Es	-1.697595	1.518898	0.390677	99
Es	1.668628	1.522556	-0.938999	99
Es	1.522545	0.786234	0.086968	99
Es	-1.204144	-0.938049	0.310281	99
Es	-1.852271	-1.011899	0.857441	99
Es	-0.747317	-0.332745	0.272302	99
Es	1.473712	0.377824	-0.413710	99
Es	-0.619240	2.110781	0.351189	99
40
Properties=species:S:1:pos:R:3:Z:I:1 energy=-322.82151332169724 field_type=dipole dipole="0.000000 0.000000 0.000000" charge=0
N	-0.668392	-2.056674	-0.252899	7
C	-1.204282	-0.937964	0.310361	6
O	-2.326572	-0.956734	0.801551	8
C	-0.344913	0.294616	0.239771	6
C	-0.980892	1.473986	0.341361	6
C	1.104358	0.188176	0.196541	6
C	1.918437	0.977316	-0.517359	6
H	0.188658	-2.044274	-0.786149	1
H	-1.250182	-2.882794	-0.281539	1
H	-2.063632	1.526806	0.422601	1
H	-0.445943	2.416986	0.361901	1
H	1.535948	-0.612164	0.795791	1
H	1.543698	1.784426	-1.139709	1
H	2.993708	0.828296	-0.492229	1
Es	-0.608258	0.839740	0.589679	99
Es	-2.326356	-0.956732	0.801450	99
Es	-1.856633	-1.009624	0.853898	99
Es	-0.931324	-1.567159	-0.144264	99
Es	-1.204146	-0.938049	0.310276	99
Es	-0.161352	-2.043933	-0.576661	99
Es	-0.632253	-1.967511	-0.020515	99
Es	0.375384	0.231414	0.202583	99
Es	1.524168	0.784152	0.086759	99
Es	-2.420327	-0.679567	0.928693	99
Es	-0.671350	0.847127	-0.039205	99
Es	2.647305	0.880234	-0.504280	99
Es	1.668316	1.522642	-0.937619	99
Es	-1.698978	1.518569	0.393095	99
Es	-2.046598	-0.879602	0.423501	99
Es	-0.668696	-2.056336	-0.253248	99
Es	-0.980908	1.474062	0.341342	99
Es	1.918493	0.977375	-0.517396	99
Es	-1.006216	-2.547017	-0.274635	99
Es	-2.443064	-1.245093	0.765633	99
Es	-0.748077	-0.332079	0.272497	99
Es	-0.344873	0.294477	0.239755	99
Es	1.104253	0.188106	0.196593	99
Es	1.472002	0.380770	-0.412850	99
Es	1.386541	-0.356444	0.598815	99
Es	-0.618812	2.109995	0.350480	99
40
Properties=species:S:1:pos:R:3:Z:I:1 energy=-322.82151332169724 field_type=dipole dipole="0.000000 0.000000 0.000000" charge=0
N	-0.668392	-2.056674	-0.252899	7
C	-1.204282	-0.937964	0.310361	6
O	-2.326572	-0.956734	0.801551	8
C	-0.344913	0.294616	0.239771	6
C	-0.980892	1.473986	0.341361	6
C	1.104358	0.188176	0.196541	6
C	1.918437	0.977316	-0.517359	6
H	0.188658	-2.044274	-0.786149	1
H	-1.250182	-2.882794	-0.281539	1
H	-2.063632	1.526806	0.422601	1
H	-0.445943	2.416986	0.361901	1
H	1.535948	-0.612164	0.795791	1
H	1.543698	1.784426	-1.139709	1
H	2.993708	0.828296	-0.492229	1
Es	-0.344873	0.294472	0.239766	99
Es	-0.980909	1.474065	0.341343	99
Es	-2.434146	-1.247751	0.766416	99
Es	2.647951	0.878951	-0.505756	99
Es	1.386875	-0.356662	0.597942	99
Es	-1.699791	1.518496	0.394185	99
Es	-0.672069	0.845914	-0.037289	99
Es	1.667816	1.522440	-0.936954	99
Es	-0.155063	-2.046233	-0.569888	99
Es	1.918493	0.977374	-0.517400	99
Es	1.104255	0.188109	0.196595	99
Es	-2.326299	-0.956721	0.801421	99
Es	-2.044628	-0.882826	0.423664	99
Es	1.471298	0.382897	-0.411925	99
Es	0.375524	0.232627	0.201818	99
Es	-1.859457	-1.004449	0.853603	99
Es	-0.748654	-0.331574	0.273435	99
Es	-0.648527	-1.965426	-0.066749	99
Es	-0.668595	-2.056487	-0.253207	99
Es	-0.999835	-2.551456	-0.259913	99
Es	-1.204143	-0.938051	0.310283	99
Es	-0.618508	2.109369	0.349650	99
Es	-2.428568	-0.678937	0.928327	99
Es	-0.927634	-1.562257	-0.119134	99
Es	-0.607194	0.840859	0.587707	99
Es	1.524921	0.782773	0.086439	99
40
Properties=species:S:1:pos:R:3:Z:I:1 energy=-322.82151332169724 field_type=dipole dipole="0.000000 0.000000 0.000000" charge=0
N	-0.668392	-2.056674	-0.252899	7
C	-1.204282	-0.937964	0.310361	6
O	-2.326572	-0.956734	0.801551	8
C	-0.344913	0.294616	0.239771	6
C	-0.980892	1.473986	0.341361	6
C	1.104358	0.188176	0.196541	6
C	1.918437	0.977316	-0.517359	6
H	0.188658	-2.044274	-0.786149	1
H	-1.250182	-2.882794	-0.281539	1
H	-2.063632	1.526806	0.422601	1
H	-0.445943	2.416986	0.361901	1
H	1.535948	-0.612164	0.795791	1
H	1.543698	1.784426	-1.139709	1
H	2.993708	0.828296	-0.492229	1
Es	-0.659240	-1.963194	-0.092648	99
Es	1.387147	-0.356812	0.596995	99
Es	-2.432452	-0.678925	0.930750	99
Es	-2.429153	-1.248618	0.765618	99
Es	-0.980908	1.474063	0.341340	99
Es	-0.151611	-2.047618	-0.565454	99
Es	-0.925679	-1.561174	-0.108551	99
Es	-0.344872	0.294470	0.239764	99
Es	1.104252	0.188107	0.196594	99
Es	1.918493	0.977376	-0.517395	99
Es	1.667673	1.522548	-0.936133	99
Es	-2.044785	-0.883452	0.424409	99
Es	-2.326264	-0.956708	0.801420	99
Es	-1.204145	-0.938049	0.310281	99
Es	1.525518	0.781658	0.086152	99
Es	-0.672683	0.845437	-0.035417	99
Es	0.375621	0.233679	0.201389	99
Es	-0.994241	-2.553328	-0.248700	99
Es	-0.606270	0.841176	0.585703	99
Es	1.470596	0.384345	-0.411594	99
Es	-0.749295	-0.331254	0.274322	99
Es	2.648312	0.878025	-0.506624	99
Es	-0.618217	2.109059	0.349027	99
Es	-1.860583	-1.003117	0.851328	99
Es	-0.668654	-2.056414	-0.253242	99
Es	-1.700320	1.518234	0.395044	99
40
Properties=species:S:1:pos:R:3:Z:I:1 energy=-322.82151332169724 field_type=dipole dipole="0.000000 0.000000 0.000000" charge=0
N	-0.668392	-2.056674	-0.252899	7
C	-1.204282	-0.937964	0.310361	6
O	-2.326572	-0.956734	0.801551	8
C	-0.344913	0.294616	0.239771	6
C	-0.980892	1.473986	0.341361	6
C	1.104358	0.188176	0.196541	6
C	1.918437	0.977316	-0.517359	6
H	0.188658	-2.044274	-0.786149	1
H	-1.250182	-2.882794	-0.281539	1
H	-2.063632	1.526806	0.422601	1
H	-0.445943	2.416986	0.361901	1
H	1.535948	-0.612164	0.795791	1
H	1.543698	1.784426	-1.139709	1
H	2.993708	0.828296	-0.492229	1
Es	0.375551	0.234124	0.200730	99
Es	1.387269	-0.356942	0.596211	99
Es	-0.672941	0.844611	-0.033869	99
Es	2.648691	0.877512	-0.507318	99
Es	-0.989265	-2.554047	-0.239358	99
Es	-0.344873	0.294472	0.239766	99
Es	-2.326234	-0.956731	0.801400	99
Es	-0.617837	2.108800	0.348455	99
Es	-1.204144	-0.938050	0.310280	99
Es	-2.039174	-0.883064	0.424864	99
Es	-1.700694	1.518108	0.395656	99
Es	1.667294	1.522584	-0.935409	99
Es	1.104253	0.188108	0.196595	99
Es	-2.423162	-1.250032	0.763032	99
Es	1.470366	0.385562	-0.410952	99
Es	1.525990	0.780824	0.085956	99
Es	-0.980909	1.474065	0.341342	99
Es	-0.668105	-1.961802	-0.112556	99
Es	-0.605883	0.841851	0.584311	99
Es	1.918492	0.977375	-0.517403	99
Es	-0.149540	-2.048584	-0.562389	99
Es	-2.438920	-0.680577	0.931145	99
Es	-0.923932	-1.560588	-0.100999	99
Es	-1.865826	-1.000491	0.853201	99
Es	-0.749768	-0.330967	0.274704	99
Es	-0.668458	-2.056609	-0.253018	99
40
Properties=species:S:1:pos:R:3:Z:I:1 energy=-322.82151332169724 field_type=dipole dipole="0.000000 0.000000 0.000000" charge=0
N	-0.668392	-2.056674	-0.252899	7
C	-1.204282	-0.937964	0.310361	6
O	-2.326572	-0.956734	0.801551	8
C	-0.344913	0.294616	0.239771	6
C	-0.980892	1.473986	0.341361	6
C	1.104358	0.188176	0.196541	6
C	1.918437	0.977316	-0.517359	6
H	0.188658	-2.044274	-0.786149	1
H	-1.250182	-2.882794	-0.281539	1
H	-2.063632	1.526806	0.422601	1
H	-0.445943	2.416986	0.361901	1
H	1.535948	-0.612164	0.795791	1
H	1.543698	1.784426	-1.139709	1
H	2.993708	0.828296	-0.492229	1
Es	-0.980911	1.474066	0.341341	99
Es	-1.204147	-0.938048	0.310275	99
Es	-0.617636	2.108577	0.348011	99
Es	-2.028339	-0.884963	0.425168	99
Es	-0.923235	-1.560574	-0.097979	99
Es	-2.446537	-0.681322	0.929255	99
Es	1.104252	0.188109	0.196597	99
Es	1.918494	0.977374	-0.517400	99
Es	2.649022	0.877289	-0.507684	99
Es	-0.673209	-1.961211	-0.123248	99
Es	-1.700955	1.517988	0.396127	99
Es	-0.605455	0.842139	0.583009	99
Es	-0.750222	-0.330830	0.275077	99
Es	-0.147784	-2.049139	-0.559471	99
Es	-2.416134	-1.251104	0.761772	99
Es	-0.986352	-2.554187	-0.234090	99
Es	1.469933	0.386352	-0.410672	99
Es	-0.673114	0.844150	-0.032479	99
Es	0.375548	0.234764	0.200432	99
Es	-2.326231	-0.956716	0.801405	99
Es	1.387497	-0.357089	0.595472	99
Es	-0.344871	0.294472	0.239748	99
Es	1.526286	0.780115	0.085583	99
Es	1.667127	1.522590	-0.934696	99
Es	-0.668634	-2.056449	-0.253253	99
Es	-1.876151	-0.996840	0.856077	99
40
Properties=species:S:1:pos:R:3:Z:I:1 energy=-322.82151332169724 field_type=dipole dipole="0.000000 0.000000 0.000000" charge=0
N	-0.668392	-2.056674	-0.252899	7
C	-1.204282	-0.937964	0.310361	6
O	-2.326572	-0.956734	0.801551	8
C	-0.344913	0.294616	0.239771	6
C	-0.980892	1.473986	0.341361	6
C	1.104358	0.188176	0.196541	6
C	1.918437	0.977316	-0.517359	6
H	0.188658	-2.044274	-0.786149	1
H	-1.250182	-2.882794	-0.281539	1
H	-2.063632	1.526806	0.422601	1
H	-0.445943	2.416986	0.361901	1
H	1.535948	-0.612164	0.795791	1
H	1.543698	1.784426	-1.139709	1
H	2.993708	0.828296	-0.492229	1
Es	-0.605272	0.842422	0.582138	99
Es	2.649284	0.877058	-0.508003	99
Es	1.387718	-0.357182	0.594742	99
Es	-0.617460	2.108390	0.347786	99
Es	1.918493	0.977370	-0.517405	99
Es	1.667040	1.522613	-0.934005	99
Es	-2.451727	-0.681568	0.926815	99
Es	-2.326256	-0.956738	0.801406	99
Es	1.104256	0.188101	0.196593	99
Es	-0.673115	0.843749	-0.031386	99
Es	-1.701169	1.517907	0.396435	99
Es	-2.411456	-1.252498	0.760846	99
Es	-1.204144	-0.938050	0.310280	99
Es	0.375459	0.234984	0.200083	99
Es	1.526516	0.779598	0.085352	99
Es	-1.891889	-0.993312	0.857358	99
Es	-0.980910	1.474067	0.341342	99
Es	-2.012149	-0.886874	0.427257	99
Es	-0.984120	-2.553985	-0.230406	99
Es	-0.674940	-1.960605	-0.125100	99
Es	1.469582	0.387122	-0.410339	99
Es	-0.750650	-0.330632	0.275193	99
Es	-0.146649	-2.049948	-0.557281	99
Es	-0.668784	-2.056244	-0.253343	99
Es	-0.344872	0.294468	0.239758	99
Es	-0.924545	-1.560698	-0.101739	99
40
Properties=species:S:1:pos:R:3:Z:I:1 energy=-322.82151332169724 field_type=dipole dipole="0.000000 0.000000 0.000000" charge=0
N	-0.668392	-2.056674	-0.252899	7
C	-1.204282	-0.937964	0.310361	6
O	-2.326572	-0.956734	0.801551	8
C	-0.344913	0.294616	0.239771	6
C	-0.980892	1.473986	0.341361	6
C	1.104358	0.188176	0.196541	6
C	1.918437	0.977316	-0.517359	6
H	0.188658	-2.044274	-0.786149	1
H	-1.250182	-2.882794	-0.281539	1
H	-2.063632	1.526806	0.422601	1
H	-0.445943	2.416986	0.361901	1
H	1.535948	-0.612164	0.795791	1
H	1.543698	1.784426	-1.139709	1
H	2.993708	0.828296	-0.492229	1
Es	-0.750657	-0.330443	0.275620	99
Es	-1.701380	1.517975	0.396366	99
Es	0.375513	0.235231	0.200219	99
Es	-2.406833	-1.252919	0.759819	99
Es	1.526647	0.778942	0.084840	99
Es	1.469473	0.387689	-0.409810	99
Es	2.649425	0.876870	-0.508029	99
Es	-0.617351	2.108188	0.347535	99
Es	-1.990264	-0.889142	0.432903	99
Es	-0.983892	-2.553810	-0.230239	99
Es	-0.925469	-1.560940	-0.103917	99
Es	-2.326246	-0.956705	0.801407	99
Es	-1.913515	-0.989543	0.854126	99
Es	-0.344870	0.294470	0.239749	99
Es	-0.675363	-1.959632	-0.124756	99
Es	-0.980910	1.474066	0.341343	99
Es	-0.145914	-2.050363	-0.555927	99
Es	-0.668329	-2.056689	-0.252792	99
Es	-1.204143	-0.938051	0.310281	99
Es	1.918494	0.977373	-0.517400	99
Es	1.387922	-0.357434	0.594504	99
Es	-0.673147	0.843450	-0.031228	99
Es	1.666791	1.522850	-0.933713	99
Es	-2.456726	-0.682715	0.925359	99
Es	1.104251	0.188109	0.196597	99
Es	-0.605268	0.842687	0.581519	99
40
Properties=species:S:1:pos:R:3:Z:I:1 energy=-322.82151332169724 field_type=dipole dipole="0.000000 0.000000 0.000000" charge=0
N	-0.668392	-2.056674	-0.252899	7
C	-1.204282	-0.937964	0.310361	6
O	-2.326572	-0.956734	0.801551	8
C	-0.344913	0.294616	0.239771	6
C	-0.980892	1.473986	0.341361	6
C	1.104358	0.188176	0.196541	6
C	1.918437	0.977316	-0.517359	6
H	0.188658	-2.044274	-0.786149	1
H	-1.250182	-2.882794	-0.281539	1
H	-2.063632	1.526806	0.422601	1
H	-0.445943	2.416986	0.361901	1
H	1.535948	-0.612164	0.795791	1
H	1.543698	1.784426	-1.139709	1
H	2.993708	0.828296	-0.492229	1
Es	-0.982524	-2.553575	-0.228019	99
Es	-1.701550	1.518009	0.396316	99
Es	-0.605120	0.842494	0.581290	99
Es	-0.980910	1.474066	0.341342	99
Es	-2.326231	-0.956706	0.801417	99
Es	-0.617373	2.107998	0.347521	99
Es	-1.974687	-0.893113	0.439212	99
Es	-2.402822	-1.254582	0.762838	99
Es	-0.673090	0.843702	-0.031047	99
Es	-0.344870	0.294470	0.239758	99
Es	-2.460199	-0.682648	0.921093	99
Es	2.649512	0.876752	-0.508131	99
Es	-0.668839	-2.056174	-0.253382	99
Es	-1.929719	-0.983938	0.849025	99
Es	1.526710	0.778792	0.084888	99
Es	1.666792	1.522768	-0.933597	99
Es	1.918494	0.977371	-0.517404	99
Es	0.375497	0.235253	0.200207	99
Es	1.469491	0.387939	-0.409604	99
Es	-1.204144	-0.938050	0.310280	99
Es	-0.676204	-1.959725	-0.125950	99
Es	-0.145164	-2.050799	-0.554496	99
Es	1.104255	0.188111	0.196595	99
Es	-0.750756	-0.330302	0.275701	99
Es	1.387871	-0.357461	0.594280	99
Es	-0.926180	-1.561137	-0.105756	99
40
Properties=species:S:1:pos:R:3:Z:I:1 energy=-322.82151332169724 field_type=dipole dipole="0.000000 0.000000 0.000000" charge=0
N	-0.668392	-2.056674	-0.252899	7
C	-1.204282	-0.937964	0.310361	6
O	-2.326572	-0.956734	0.801551	8
C	-0.344913	0.294616	0.239771	6
C	-0.980892	1.473986	0.341361	6
C	1.104358	0.188176	0.196541	6
C	1.918437	0.977316	-0.517359	6
H	0.188658	-2.044274	-0.786149	1
H	-1.250182	-2.882794	-0.281539	1
H	-2.063632	1.526806	0.422601	1
H	-0.445943	2.416986	0.361901	1
H	1.535948	-0.612164	0.795791	1
H	1.543698	1.784426	-1.139709	1
H	2.993708	0.828296	-0.492229	1
Es	-0.750938	-0.330057	0.277071	99
Es	-0.150290	-2.047527	-0.564755	99
Es	-0.603565	0.843221	0.581253	99
Es	1.387346	-0.355907	0.596224	99
Es	1.918494	0.977365	-0.517411	99
Es	-2.103893	-0.906293	0.491279	99
Es	0.375572	0.236502	0.199362	99
Es	-2.326277	-0.956711	0.801424	99
Es	-0.344869	0.294472	0.239751	99
Es	-0.975718	-2.553148	-0.216259	99
Es	-0.681780	-1.962612	-0.138620	99
Es	-1.700867	1.517633	0.398157	99
Es	-2.421733	-1.251970	0.786360	99
Es	-0.668241	-2.056720	-0.252600	99
Es	1.470176	0.387335	-0.411212	99
Es	1.526285	0.779963	0.086351	99
Es	2.648571	0.875606	-0.509866	99
Es	1.104253	0.188109	0.196596	99
Es	-0.617574	2.108225	0.346827	99
Es	-0.674510	0.842328	-0.031294	99
Es	-1.204142	-0.938052	0.310284	99
Es	-0.922905	-1.561309	-0.095512	99
Es	-0.980910	1.474066	0.341345	99
Es	1.667157	1.521382	-0.935529	99
Es	-2.426893	-0.668658	0.929094	99
Es	-1.814510	-0.987727	0.766058	99
40
Properties=species:S:1:pos:R:3:Z:I:1 energy=-322.82151332169724 field_type=dipole dipole="0.000000 0.000000 0.000000" charge=0
N	-0.668392	-2.056674	-0.252899	7
C	-1.204282	-0.937964	0.310361	6
O	-2.326572	-0.956734	0.801551	8
C	-0.344913	0.294616	0.239771	6
C	-0.980892	1.473986	0.341361	6
C	1.104358	0.188176	0.196541	6
C	1.918437	0.977316	-0.517359	6
H	0.188658	-2.044274	-0.786149	1
H	-1.250182	-2.882794	-0.281539	1
H	-2.063632	1.526806	0.422601	1
H	-0.445943	2.416986	0.361901	1
H	1.535948	-0.612164	0.795791	1
H	1.543698	1.784426	-1.139709	1
H	2.993708	0.828296	-0.492229	1
Es	0.375598	0.235286	0.200501	99
Es	-0.980910	1.474066	0.341340	99
Es	-2.326240	-0.956699	0.801410	99
Es	-0.981805	-2.553399	-0.226785	99
Es	-1.204142	-0.938051	0.310282	99
Es	-1.947854	-0.897984	0.455861	99
Es	1.526549	0.778453	0.084496	99
Es	2.649530	0.876508	-0.508196	99
Es	-1.701689	1.518124	0.396062	99
Es	1.469661	0.388353	-0.409071	99
Es	1.918495	0.977371	-0.517405	99
Es	-0.604715	0.842167	0.581144	99
Es	-0.344871	0.294470	0.239750	99
Es	-1.956935	-0.977168	0.834786	99
Es	-0.673335	0.844023	-0.031080	99
Es	1.104250	0.188106	0.196594	99
Es	1.388069	-0.357474	0.594502	99
Es	-0.926304	-1.561239	-0.106094	99
Es	-0.668190	-2.056727	-0.252462	99
Es	-0.677830	-1.958920	-0.128655	99
Es	-0.617450	2.107806	0.347060	99
Es	-2.396547	-1.255302	0.763897	99
Es	-2.466151	-0.683904	0.917641	99
Es	-0.750908	-0.330010	0.276223	99
Es	-0.144628	-2.051046	-0.553510	99
Es	1.666593	1.522706	-0.933913	99
40
Properties=species:S:1:pos:R:3:Z:I:1 energy=-322.82151332169724 field_type=dipole dipole="0.000000 0.000000 0.000000" charge=0
N	-0.668392	-2.056674	-0.252899	7
C	-1.204282	-0.937964	0.310361	6
O	-2.326572	-0.956734	0.801551	8
C	-0.344913	0.294616	0.239771	6
C	-0.980892	1.473986	0.341361	6
C	1.104358	0.188176	0.196541	6
C	1.918437	0.977316	-0.517359	6
H	0.188658	-2.044274	-0.786149	1
H	-1.250182	-2.882794	-0.281539	1
H	-2.063632	1.526806	0.422601	1
H	-0.445943	2.416986	0.361901	1
H	1.535948	-0.612164	0.795791	1
H	1.543698	1.784426	-1.139709	1
H	2.993708	0.828296	-0.492229	1
Es	-0.677305	-1.962223	-0.128570	99
Es	1.525674	0.780019	0.085864	99
Es	-0.151462	-2.047113	-0.566810	99
Es	-0.668382	-2.056663	-0.252893	99
Es	-0.674765	0.843014	-0.033076	99
Es	-0.925242	-1.561984	-0.101536	99
Es	-2.326239	-0.956744	0.801395	99
Es	-1.204146	-0.938049	0.310277	99
Es	-0.750304	-0.329776	0.277287	99
Es	2.648331	0.875408	-0.509696	99
Es	-1.812319	-0.973797	0.710509	99
Es	0.375783	0.236199	0.200549	99
Es	1.104253	0.188118	0.196606	99
Es	-0.976477	-2.553269	-0.217919	99
Es	-0.980910	1.474066	0.341341	99
Es	-2.415318	-1.254007	0.794252	99
Es	-2.429688	-0.667124	0.924155	99
Es	1.918494	0.977370	-0.517404	99
Es	1.470881	0.386867	-0.411046	99
Es	-1.700950	1.518101	0.397436	99
Es	-0.617934	2.107909	0.346610	99
Es	1.667051	1.521074	-0.936729	99
Es	-0.344871	0.294471	0.239750	99
Es	-0.603472	0.842634	0.582551	99
Es	-2.109852	-0.919723	0.543907	99
Es	1.387406	-0.355262	0.597572	99
40
Properties=species:S:1:pos:R:3:Z:I:1 energy=-322.82151332169724 field_type=dipole dipole="0.000000 0.000000 0.000000" charge=0
N	-0.668392	-2.056674	-0.252899	7
C	-1.204282	-0.937964	0.310361	6
O	-2.326572	-0.956734	0.801551	8
C	-0.344913	0.294616	0.239771	6
C	-0.980892	1.473986	0.341361	6
C	1.104358	0.188176	0.196541	6
C	1.918437	0.977316	-0.517359	6
H	0.188658	-2.044274	-0.786149	1
H	-1.250182	-2.882794	-0.281539	1
H	-2.063632	1.526806	0.422601	1
H	-0.445943	2.416986	0.361901	1
H	1.535948	-0.612164	0.795791	1
H	1.543698	1.784426	-1.139709	1
H	2.993708	0.828296	-0.492229	1
Es	-2.395060	-1.256255	0.768863	99
Es	-0.668281	-2.056709	-0.252691	99
Es	-1.926233	-0.905461	0.473020	99
Es	-0.604468	0.841852	0.581546	99
Es	2.649538	0.876370	-0.508237	99
Es	-0.676178	-1.958611	-0.123459	99
Es	-1.979713	-0.970772	0.817457	99
Es	-0.617656	2.107562	0.347049	99
Es	1.918495	0.977370	-0.517405	99
Es	1.388142	-0.357132	0.595123	99
Es	-2.326254	-0.956686	0.801424	99
Es	-0.981400	-2.553204	-0.226328	99
Es	1.469873	0.388225	-0.409076	99
Es	-0.145043	-2.051038	-0.554488	99
Es	-0.927847	-1.561762	-0.110528	99
Es	1.526151	0.778438	0.084165	99
Es	-0.344871	0.294470	0.239744	99
Es	-1.701728	1.518361	0.395900	99
Es	-1.204146	-0.938049	0.310276	99
Es	1.666658	1.522385	-0.934310	99
Es	-0.750794	-0.329769	0.276358	99
Es	-2.466509	-0.681919	0.912838	99
Es	-0.673412	0.844317	-0.031488	99
Es	-0.980910	1.474067	0.341343	99
Es	0.375630	0.235347	0.200679	99
Es	1.104253	0.188116	0.196603	99
40
Properties=species:S:1:pos:R:3:Z:I:1 energy=-322.82151332169724 field_type=dipole dipole="0.000000 0.000000 0.000000" charge=0
N	-0.668392	-2.056674	-0.252899	7
C	-1.204282	-0.937964	0.310361	6
O	-2.326572	-0.956734	0.801551	8
C	-0.344913	0.294616	0.239771	6
C	-0.980892	1.473986	0.341361	6
C	1.104358	0.188176	0.196541	6
C	1.918437	0.977316	-0.517359	6
H	0.188658	-2.044274	-0.786149	1
H	-1.250182	-2.882794	-0.281539	1
H	-2.063632	1.526806	0.422601	1
H	-0.445943	2.416986	0.361901	1
H	1.535948	-0.612164	0.795791	1
H	1.543698	1.784426	-1.139709	1
H	2.993708	0.828296	-0.492229	1
Es	1.469711	0.388445	-0.409052	99
Es	-0.980886	-2.553180	-0.225755	99
Es	-1.701781	1.518400	0.396027	99
Es	1.388213	-0.357279	0.594849	99
Es	1.526294	0.778300	0.084174	99
Es	-1.204143	-0.938050	0.310281	99
Es	-0.750692	-0.329772	0.276334	99
Es	-2.390797	-1.256935	0.768189	99
Es	2.649540	0.876319	-0.508272	99
Es	-0.677152	-1.958998	-0.126493	99
Es	-1.923190	-0.903791	0.476491	99
Es	0.375668	0.235375	0.200861	99
Es	-2.469787	-0.684255	0.914316	99
Es	-0.673564	0.844327	-0.031533	99
Es	1.918494	0.977371	-0.517404	99
Es	-2.326218	-0.956652	0.801398	99
Es	-0.145055	-2.050961	-0.554527	99
Es	-0.344871	0.294473	0.239750	99
Es	-0.927879	-1.561795	-0.109911	99
Es	-0.604507	0.841765	0.581362	99
Es	-0.980909	1.474065	0.341346	99
Es	-0.667760	-2.056374	-0.250739	99
Es	-1.983814	-0.969394	0.813230	99
Es	1.666637	1.522539	-0.934099	99
Es	-0.617564	2.107461	0.346952	99
Es	1.104251	0.188112	0.196602	99
40
Properties=species:S:1:pos:R:3:Z:I:1 energy=-322.82151332169724 field_type=dipole dipole="0.000000 0.000000 0.000000" charge=0
N	-0.668392	-2.056674	-0.252899	7
C	-1.204282	-0.937964	0.310361	6
O	-2.326572	-0.956734	0.801551	8
C	-0.344913	0.294616	0.239771	6
C	-0.980892	1.473986	0.341361	6
C	1.104358	0.188176	0.196541	6
C	1.918437	0.977316	-0.517359	6
H	0.188658	-2.044274	-0.786149	1
H	-1.250182	-2.882794	-0.281539	1
H	-2.063632	1.526806	0.422601	1
H	-0.445943	2.416986	0.361901	1
H	1.535948	-0.612164	0.795791	1
H	1.543698	1.784426	-1.139709	1
H	2.993708	0.828296	-0.492229	1
Es	-0.928148	-1.561910	-0.111235	99
Es	-2.391912	-1.256483	0.769429	99
Es	-1.987544	-0.968647	0.809523	99
Es	1.388153	-0.357258	0.594895	99
Es	1.104252	0.188111	0.196598	99
Es	-0.677120	-1.958510	-0.124838	99
Es	0.375748	0.235739	0.200814	99
Es	1.526350	0.778045	0.084082	99
Es	-0.604498	0.842179	0.580922	99
Es	-0.668311	-2.056697	-0.252757	99
Es	-0.617544	2.107472	0.346868	99
Es	-0.673499	0.843878	-0.031287	99
Es	-0.750851	-0.329783	0.276557	99
Es	1.666486	1.522456	-0.934062	99
Es	-0.344871	0.294469	0.239748	99
Es	-1.204143	-0.938051	0.310282	99
Es	-1.701777	1.518330	0.396201	99
Es	2.649596	0.876306	-0.508438	99
Es	-0.980910	1.474066	0.341346	99
Es	-1.919563	-0.906256	0.479540	99
Es	1.918496	0.977380	-0.517393	99
Es	1.469773	0.388508	-0.409005	99
Es	-2.468562	-0.682997	0.913701	99
Es	-2.326231	-0.956653	0.801424	99
Es	-0.144834	-2.051105	-0.554074	99
Es	-0.980295	-2.553074	-0.224463	99
40
Properties=species:S:1:pos:R:3:Z:I:1 energy=-322.82151332169724 field_type=dipole dipole="0.000000 0.000000 0.000000" charge=0
N	-0.668392	-2.056674	-0.252899	7
C	-1.204282	-0.937964	0.310361	6
O	-2.326572	-0.956734	0.801551	8
C	-0.344913	0.294616	0.239771	6
C	-0.980892	1.473986	0.341361	6
C	1.104358	0.188176	0.196541	6
C	1.918437	0.977316	-0.517359	6
H	0.188658	-2.044274	-0.786149	1
H	-1.250182	-2.882794	-0.281539	1
H	-2.063632	1.526806	0.422601	1
H	-0.445943	2.416986	0.361901	1
H	1.535948	-0.612164	0.795791	1
H	1.543698	1.784426	-1.139709	1
H	2.993708	0.828296	-0.492229	1
Es	-1.701791	1.518414	0.395816	99
Es	0.375787	0.235577	0.201024	99
Es	1.666464	1.522308	-0.934668	99
Es	1.104253	0.188120	0.196607	99
Es	-0.677653	-1.958954	-0.127049	99
Es	-0.617702	2.107445	0.346810	99
Es	-0.980910	1.474066	0.341345	99
Es	-0.927331	-1.561779	-0.108932	99
Es	1.918495	0.977371	-0.517405	99
Es	-2.470022	-0.682781	0.910969	99
Es	-0.673608	0.844422	-0.031693	99
Es	-1.998582	-0.965546	0.799354	99
Es	-0.344871	0.294469	0.239750	99
Es	-0.668024	-2.056683	-0.251911	99
Es	1.388059	-0.356975	0.595512	99
Es	1.526105	0.778232	0.084047	99
Es	-0.980359	-2.553125	-0.224236	99
Es	-2.326239	-0.956684	0.801417	99
Es	-1.908709	-0.909520	0.490789	99
Es	2.649478	0.876209	-0.508373	99
Es	-0.145339	-2.050714	-0.555249	99
Es	-0.604398	0.841659	0.581601	99
Es	1.470185	0.388280	-0.408960	99
Es	-1.204142	-0.938051	0.310283	99
Es	-2.390250	-1.256598	0.771128	99
Es	-0.750655	-0.329648	0.276402	99
40
Properties=species:S:1:pos:R:3:Z:I:1 energy=-322.82151332169724 field_type=dipole dipole="0.000000 0.000000 0.000000" charge=0
N	-0.668392	-2.056674	-0.252899	7
C	-1.204282	-0.937964	0.310361	6
O	-2.326572	-0.956734	0.801551	8
C	-0.344913	0.294616	0.239771	6
C	-0.980892	1.473986	0.341361	6
C	1.104358	0.188176	0.196541	6
C	1.918437	0.977316	-0.517359	6
H	0.188658	-2.044274	-0.786149	1
H	-1.250182	-2.882794	-0.281539	1
H	-2.063632	1.526806	0.422601	1
H	-0.445943	2.416986	0.361901	1
H	1.535948	-0.612164	0.795791	1
H	1.543698	1.784426	-1.139709	1
H	2.993708	0.828296	-0.492229	1
Es	-1.204142	-0.938051	0.310283	99
Es	-0.668738	-2.056301	-0.253303	99
Es	-0.673645	0.844329	-0.031242	99
Es	-0.928234	-1.562035	-0.111314	99
Es	2.649522	0.876090	-0.508454	99
Es	-1.999204	-0.965504	0.797681	99
Es	-0.979651	-2.552949	-0.223328	99
Es	1.388221	-0.356970	0.595072	99
Es	-2.326258	-0.956688	0.801425	99
Es	0.375704	0.235556	0.201001	99
Es	-0.617627	2.107408	0.346696	99
Es	-1.908823	-0.910366	0.490429	99
Es	-0.980910	1.474066	0.341341	99
Es	1.526220	0.778079	0.084017	99
Es	-0.604200	0.841780	0.581100	99
Es	1.918494	0.977371	-0.517404	99
Es	-0.145049	-2.050943	-0.554669	99
Es	-2.390923	-1.256537	0.771979	99
Es	1.104252	0.188111	0.196598	99
Es	1.666516	1.522409	-0.934344	99
Es	-2.468608	-0.681991	0.912160	99
Es	-0.750852	-0.329628	0.276587	99
Es	-1.701844	1.518315	0.396067	99
Es	-0.344871	0.294470	0.239748	99
Es	1.469913	0.388529	-0.408997	99
Es	-0.677024	-1.959033	-0.124752	99
40
Properties=species:S:1:pos:R:3:Z:I:1 energy=-322.82151332169724 field_type=dipole dipole="0.000000 0.000000 0.000000" charge=0
N	-0.668392	-2.056674	-0.252899	7
C	-1.204282	-0.937964	0.310361	6
O	-2.326572	-0.956734	0.801551	8
C	-0.344913	0.294616	0.239771	6
C	-0.980892	1.473986	0.341361	6
C	1.104358	0.188176	0.196541	6
C	1.918437	0.977316	-0.517359	6
H	0.188658	-2.044274	-0.786149	1
H	-1.250182	-2.882794	-0.281539	1
H	-2.063632	1.526806	0.422601	1
H	-0.445943	2.416986	0.361901	1
H	1.535948	-0.612164	0.795791	1
H	1.543698	1.784426	-1.139709	1
H	2.993708	0.828296	-0.492229	1
Es	-0.928180	-1.561962	-0.111157	99
Es	-0.145145	-2.051003	-0.554837	99
Es	1.666555	1.522251	-0.934596	99
Es	-2.004705	-0.964054	0.791731	99
Es	1.918493	0.977369	-0.517406	99
Es	-2.468824	-0.681843	0.911518	99
Es	-0.617633	2.107370	0.346573	99
Es	-2.390419	-1.256544	0.772850	99
Es	-0.604293	0.842059	0.581290	99
Es	-1.903624	-0.911886	0.496186	99
Es	-0.980910	1.474065	0.341342	99
Es	-1.701807	1.518426	0.396018	99
Es	0.375747	0.235692	0.200968	99
Es	-0.750684	-0.329611	0.276779	99
Es	2.649468	0.876049	-0.508512	99
Es	-0.673717	0.843901	-0.031518	99
Es	1.526116	0.778206	0.084152	99
Es	-0.677842	-1.958686	-0.126273	99
Es	-0.668065	-2.056707	-0.252092	99
Es	1.104252	0.188109	0.196597	99
Es	-0.979470	-2.552891	-0.222984	99
Es	-1.204144	-0.938051	0.310281	99
Es	1.470120	0.388400	-0.409057	99
Es	-0.344871	0.294470	0.239748	99
Es	-2.326259	-0.956763	0.801399	99
Es	1.388080	-0.356851	0.595377	99
40
Properties=species:S:1:pos:R:3:Z:I:1 energy=-322.82151332169724 field_type=dipole dipole="0.000000 0.000000 0.000000" charge=0
N	-0.668392	-2.056674	-0.252899	7
C	-1.204282	-0.937964	0.310361	6
O	-2.326572	-0.956734	0.801551	8
C	-0.344913	0.294616	0.239771	6
C	-0.980892	1.473986	0.341361	6
C	1.104358	0.188176	0.196541	6
C	1.918437	0.977316	-0.517359	6
H	0.188658	-2.044274	-0.786149	1
H	-1.250182	-2.882794	-0.281539	1
H	-2.063632	1.526806	0.422601	1
H	-0.445943	2.416986	0.361901	1
H	1.535948	-0.612164	0.795791	1
H	1.543698	1.784426	-1.139709	1
H	2.993708	0.828296	-0.492229	1
Es	-1.204143	-0.938051	0.310281	99
Es	-0.604060	0.841534	0.581526	99
Es	1.388121	-0.356679	0.595770	99
Es	1.918494	0.977372	-0.517403	99
Es	-2.326253	-0.956709	0.801415	99
Es	-0.145673	-2.050558	-0.555989	99
Es	-0.928467	-1.562214	-0.111850	99
Es	-0.344872	0.294472	0.239738	99
Es	-0.980909	1.474065	0.341347	99
Es	1.666562	1.522038	-0.934966	99
Es	-0.617818	2.107271	0.346557	99
Es	-2.014379	-0.961417	0.780010	99
Es	0.375829	0.235687	0.201217	99
Es	1.104252	0.188112	0.196600	99
Es	-1.701784	1.518537	0.395919	99
Es	1.525868	0.778262	0.083992	99
Es	-2.390324	-1.257221	0.775798	99
Es	-2.467508	-0.680247	0.910502	99
Es	-0.673889	0.844391	-0.031909	99
Es	1.470289	0.388339	-0.409009	99
Es	-1.895380	-0.915570	0.506017	99
Es	-0.979820	-2.553029	-0.223744	99
Es	2.649447	0.875980	-0.508505	99
Es	-0.668390	-2.056662	-0.252904	99
Es	-0.750633	-0.329465	0.276871	99
Es	-0.676320	-1.958723	-0.122904	99
40
Properties=species:S:1:pos:R:3:Z:I:1 energy=-322.82151332169724 field_type=dipole dipole="0.000000 0.000000 0.000000" charge=0
N	-0.668392	-2.056674	-0.252899	7
C	-1.204282	-0.937964	0.310361	6
O	-2.326572	-0.956734	0.801551	8
C	-0.344913	0.294616	0.239771	6
C	-0.980892	1.473986	0.341361	6
C	1.104358	0.188176	0.196541	6
C	1.918437	0.977316	-0.517359	6
H	0.188658	-2.044274	-0.786149	1
H	-1.250182	-2.882794	-0.281539	1
H	-2.063632	1.526806	0.422601	1
H	-0.445943	2.416986	0.361901	1
H	1.535948	-0.612164	0.795791	1
H	1.543698	1.784426	-1.139709	1
H	2.993708	0.828296	-0.492229	1
Es	2.649432	0.875987	-0.508633	99
Es	1.470162	0.388541	-0.408959	99
Es	1.918495	0.977374	-0.517402	99
Es	1.525956	0.778374	0.084271	99
Es	-2.470472	-0.682534	0.910616	99
Es	-0.979317	-2.552839	-0.222851	99
Es	-1.701787	1.518396	0.396064	99
Es	-0.980910	1.474066	0.341339	99
Es	-2.326169	-0.956576	0.801422	99
Es	-2.013990	-0.961275	0.780989	99
Es	-0.668144	-2.056726	-0.252332	99
Es	-0.145489	-2.050841	-0.555619	99
Es	0.375725	0.235596	0.200994	99
Es	-0.603850	0.841560	0.581117	99
Es	-0.677496	-1.958786	-0.125527	99
Es	-0.617789	2.107349	0.346615	99
Es	-0.928180	-1.562019	-0.111077	99
Es	1.666603	1.522014	-0.934839	99
Es	-0.344872	0.294470	0.239749	99
Es	-2.387509	-1.256987	0.775012	99
Es	1.388166	-0.356850	0.595476	99
Es	-0.673843	0.844462	-0.031709	99
Es	-0.750902	-0.329521	0.277095	99
Es	-1.204143	-0.938050	0.310281	99
Es	-1.895689	-0.913782	0.505686	99
Es	1.104252	0.188111	0.196598	99
40
Properties=species:S:1:pos:R:3:Z:I:1 energy=-322.82151332169724 field_type=dipole dipole="0.000000 0.000000 0.000000" charge=0
N	-0.668392	-2.056674	-0.252899	7
C	-1.204282	-0.937964	0.310361	6
O	-2.326572	-0.956734	0.801551	8
C	-0.344913	0.294616	0.239771	6
C	-0.980892	1.473986	0.341361	6
C	1.104358	0.188176	0.196541	6
C	1.918437	0.977316	-0.517359	6
H	0.188658	-2.044274	-0.786149	1
H	-1.250182	-2.882794	-0.281539	1
H	-2.063632	1.526806	0.422601	1
H	-0.445943	2.416986	0.361901	1
H	1.535948	-0.612164	0.795791	1
H	1.543698	1.784426	-1.139709	1
H	2.993708	0.828296	-0.492229	1
Es	-1.204143	-0.938051	0.310281	99
Es	1.918494	0.977371	-0.517405	99
Es	-0.603620	0.841114	0.580732	99
Es	-0.979120	-2.552815	-0.222280	99
Es	-0.980910	1.474066	0.341341	99
Es	-0.677702	-1.959084	-0.126146	99
Es	1.104252	0.188111	0.196598	99
Es	-0.674055	0.844879	-0.030973	99
Es	1.666521	1.522268	-0.934343	99
Es	2.649526	0.875939	-0.508680	99
Es	-0.928035	-1.562117	-0.110620	99
Es	-1.701855	1.518299	0.396220	99
Es	-0.668686	-2.056381	-0.253283	99
Es	-2.471793	-0.683272	0.911650	99
Es	-2.385504	-1.256875	0.774851	99
Es	1.388245	-0.357002	0.595200	99
Es	-1.898030	-0.912825	0.502950	99
Es	1.526178	0.778024	0.083943	99
Es	-2.326254	-0.956691	0.801422	99
Es	-0.344871	0.294470	0.239749	99
Es	1.469852	0.388732	-0.408969	99
Es	-0.617640	2.107344	0.346512	99
Es	-2.012294	-0.961497	0.782786	99
Es	0.375750	0.235781	0.200819	99
Es	-0.145107	-2.050813	-0.554968	99
Es	-0.750960	-0.329462	0.276989	99
40
Properties=species:S:1:pos:R:3:Z:I:1 energy=-322.82151332169724 field_type=dipole dipole="0.000000 0.000000 0.000000" charge=0
N	-0.668392	-2.056674	-0.252899	7
C	-1.204282	-0.937964	0.310361	6
O	-2.326572	-0.956734	0.801551	8
C	-0.344913	0.294616	0.239771	6
C	-0.980892	1.473986	0.341361	6
C	1.104358	0.188176	0.196541	6
C	1.918437	0.977316	-0.517359	6
H	0.188658	-2.044274	-0.786149	1
H	-1.250182	-2.882794	-0.281539	1
H	-2.063632	1.526806	0.422601	1
H	-0.445943	2.416986	0.361901	1
H	1.535948	-0.612164	0.795791	1
H	1.543698	1.784426	-1.139709	1
H	2.993708	0.828296	-0.492229	1
Es	-2.466549	-0.679473	0.909356	99
Es	1.388254	-0.356677	0.595664	99
Es	1.470209	0.388656	-0.408922	99
Es	-1.891462	-0.917969	0.510322	99
Es	-2.326256	-0.956718	0.801412	99
Es	-0.978736	-2.552718	-0.222067	99
Es	0.375796	0.235705	0.201137	99
Es	-0.145512	-2.050718	-0.555809	99
Es	-0.617759	2.107202	0.346526	99
Es	-1.204143	-0.938050	0.310281	99
Es	-0.668395	-2.056654	-0.252917	99
Es	1.666478	1.522072	-0.934813	99
Es	-0.603763	0.841715	0.580732	99
Es	-0.677866	-1.958993	-0.126464	99
Es	-0.928075	-1.562061	-0.110056	99
Es	1.918495	0.977372	-0.517404	99
Es	2.649442	0.875811	-0.508747	99
Es	-0.673948	0.844207	-0.031775	99
Es	-0.750890	-0.329401	0.277496	99
Es	-0.344871	0.294468	0.239746	99
Es	-2.018666	-0.960154	0.774844	99
Es	-1.701847	1.518456	0.396171	99
Es	1.104252	0.188110	0.196597	99
Es	-2.390974	-1.256816	0.777787	99
Es	1.525936	0.778080	0.083939	99
Es	-0.980910	1.474066	0.341341	99
