35
Properties=species:S:1:pos:R:3:Z:I:1 energy=-357.45822358288524 field_type=dipole dipole="0.000000 0.000000 0.000000" charge=0
N	-1.446108	-1.051136	1.106887	7
C	-0.482308	-0.833036	0.156087	6
O	-0.112378	-1.690636	-0.629013	8
C	0.106312	0.586164	0.149247	6
O	-0.306428	1.402394	0.967837	8
C	1.129432	0.971494	-0.798753	6
C	1.979242	1.295944	-1.584543	6
H	-1.718108	-0.304276	1.737367	1
H	-1.881938	-1.959526	1.176267	1
H	2.732282	1.582614	-2.281383	1
Es	0.636131	0.760673	-0.348779	99
Es	0.028584	1.020734	0.815773	99
Es	1.678570	0.804901	-1.164877	99
Es	1.652066	1.394671	-0.961975	99
Es	0.105916	-1.584665	-0.817927	99
Es	1.979403	1.296026	-1.584680	99
Es	1.250393	1.182188	-1.370242	99
Es	-0.323844	1.165610	0.494182	99
Es	0.106366	0.586144	0.149187	99
Es	-1.366025	-0.904944	0.677714	99
Es	-0.410268	-1.311519	-0.519864	99
Es	-1.002819	-1.060773	1.031073	99
Es	-0.060355	-1.456516	-0.197419	99
Es	-0.174669	1.682650	0.949564	99
Es	-1.445989	-1.051131	1.106866	99
Es	-0.177158	-0.115812	0.144184	99
Es	-0.265464	-1.958347	-0.582818	99
Es	-1.610814	-0.624824	1.475139	99
Es	-0.528326	1.270506	1.151651	99
Es	-0.112464	-1.690419	-0.628818	99
Es	-0.306328	1.402160	0.967624	99
Es	-0.482364	-0.832939	0.156217	99
Es	-1.702466	-1.579057	1.148492	99
Es	2.465091	1.482228	-2.034431	99
Es	1.129238	0.971421	-0.798571	99
35
Properties=species:S:1:pos:R:3:Z:I:1 energy=-357.45822358288524 field_type=dipole dipole="0.000000 0.000000 0.000000" charge=0
N	-1.446108	-1.051136	1.106887	7
C	-0.482308	-0.833036	0.156087	6
O	-0.112378	-1.690636	-0.629013	8
C	0.106312	0.586164	0.149247	6
O	-0.306428	1.402394	0.967837	8
C	1.129432	0.971494	-0.798753	6
C	1.979242	1.295944	-1.584543	6
H	-1.718108	-0.304276	1.737367	1
H	-1.881938	-1.959526	1.176267	1
H	2.732282	1.582614	-2.281383	1
Es	-0.112479	-1.690383	-0.628802	99
Es	-0.270492	-1.928673	-0.562207	99
Es	-0.169624	1.656839	0.932175	99
Es	-0.066870	-1.456885	-0.197870	99
Es	-1.610184	-0.618149	1.479160	99
Es	-0.410582	-1.317670	-0.515546	99
Es	-0.177418	-0.114467	0.145071	99
Es	-0.306335	1.402163	0.967632	99
Es	0.118401	-1.606613	-0.842614	99
Es	-1.446175	-1.051079	1.106756	99
Es	1.717517	1.210826	-0.892378	99
Es	-1.698876	-1.583951	1.145516	99
Es	-1.024082	-0.946387	0.692910	99
Es	0.634058	0.764250	-0.348711	99
Es	1.129209	0.971423	-0.798558	99
Es	-1.349203	-1.022323	1.014948	99
Es	1.561279	0.808622	-1.333682	99
Es	0.029716	1.026340	0.811894	99
Es	1.304083	1.362898	-1.269631	99
Es	-0.482375	-0.832930	0.156211	99
Es	1.979399	1.296025	-1.584678	99
Es	2.466166	1.477693	-2.036904	99
Es	-0.541196	1.286691	1.173175	99
Es	0.106353	0.586148	0.149174	99
Es	-0.317883	1.168555	0.494226	99
35
Properties=species:S:1:pos:R:3:Z:I:1 energy=-357.45822358288524 field_type=dipole dipole="0.000000 0.000000 0.000000" charge=0
N	-1.446108	-1.051136	1.106887	7
C	-0.482308	-0.833036	0.156087	6
O	-0.112378	-1.690636	-0.629013	8
C	0.106312	0.586164	0.149247	6
O	-0.306428	1.402394	0.967837	8
C	1.129432	0.971494	-0.798753	6
C	1.979242	1.295944	-1.584543	6
H	-1.718108	-0.304276	1.737367	1
H	-1.881938	-1.959526	1.176267	1
H	2.732282	1.582614	-2.281383	1
Es	0.029144	1.029150	0.810009	99
Es	1.129210	0.971421	-0.798546	99
Es	-0.168669	1.640632	0.923396	99
Es	-0.112458	-1.690387	-0.628810	99
Es	-0.177579	-0.114232	0.145040	99
Es	-0.314318	1.169273	0.495301	99
Es	1.306350	1.351093	-1.267161	99
Es	1.565508	0.804212	-1.329799	99
Es	1.979410	1.296016	-1.584692	99
Es	-0.071114	-1.457811	-0.199232	99
Es	1.710977	1.226817	-0.899032	99
Es	0.121942	-1.617261	-0.850770	99
Es	-1.611865	-0.618963	1.480270	99
Es	-1.446081	-1.051124	1.106859	99
Es	-0.306353	1.402130	0.967641	99
Es	0.634316	0.766574	-0.347613	99
Es	-1.349895	-1.022009	1.014406	99
Es	-0.545278	1.298989	1.182860	99
Es	0.106363	0.586145	0.149181	99
Es	-0.409131	-1.320640	-0.512657	99
Es	2.466241	1.475319	-2.038163	99
Es	-1.024315	-0.947350	0.691973	99
Es	-1.696548	-1.582194	1.146106	99
Es	-0.271075	-1.913906	-0.555512	99
Es	-0.482378	-0.832930	0.156208	99
35
Properties=species:S:1:pos:R:3:Z:I:1 energy=-357.45822358288524 field_type=dipole dipole="0.000000 0.000000 0.000000" charge=0
N	-1.446108	-1.051136	1.106887	7
C	-0.482308	-0.833036	0.156087	6
O	-0.112378	-1.690636	-0.629013	8
C	0.106312	0.586164	0.149247	6
O	-0.306428	1.402394	0.967837	8
C	1.129432	0.971494	-0.798753	6
C	1.979242	1.295944	-1.584543	6
H	-1.718108	-0.304276	1.737367	1
H	-1.881938	-1.959526	1.176267	1
H	2.732282	1.582614	-2.281383	1
Es	2.466111	1.474114	-2.038979	99
Es	1.306673	1.330649	-1.265849	99
Es	0.106362	0.586144	0.149179	99
Es	-1.613469	-0.619546	1.480422	99
Es	0.634683	0.767999	-0.346816	99
Es	-0.169344	1.628157	0.919541	99
Es	-0.177504	-0.114155	0.145328	99
Es	-0.306342	1.402120	0.967619	99
Es	-0.482377	-0.832931	0.156211	99
Es	1.705580	1.250139	-0.905342	99
Es	0.122756	-1.623530	-0.855181	99
Es	-1.027180	-0.946666	0.688999	99
Es	-0.112459	-1.690376	-0.628808	99
Es	-0.408465	-1.320810	-0.508360	99
Es	-0.271331	-1.905456	-0.551752	99
Es	1.979403	1.296026	-1.584691	99
Es	1.570551	0.800844	-1.325050	99
Es	-1.346976	-1.023170	1.017124	99
Es	-0.312589	1.171527	0.495978	99
Es	1.129208	0.971428	-0.798540	99
Es	-0.546713	1.307236	1.188449	99
Es	0.029055	1.031087	0.807175	99
Es	-1.695075	-1.581089	1.146463	99
Es	-1.446122	-1.051104	1.106813	99
Es	-0.072032	-1.459671	-0.202671	99
35
Properties=species:S:1:pos:R:3:Z:I:1 energy=-357.45822358288524 field_type=dipole dipole="0.000000 0.000000 0.000000" charge=0
N	-1.446108	-1.051136	1.106887	7
C	-0.482308	-0.833036	0.156087	6
O	-0.112378	-1.690636	-0.629013	8
C	0.106312	0.586164	0.149247	6
O	-0.306428	1.402394	0.967837	8
C	1.129432	0.971494	-0.798753	6
C	1.979242	1.295944	-1.584543	6
H	-1.718108	-0.304276	1.737367	1
H	-1.881938	-1.959526	1.176267	1
H	2.732282	1.582614	-2.281383	1
Es	-0.306355	1.402127	0.967644	99
Es	-1.446032	-1.051143	1.106893	99
Es	-0.310755	1.174673	0.492886	99
Es	1.602249	0.791874	-1.290395	99
Es	-0.112463	-1.690376	-0.628813	99
Es	0.123475	-1.627078	-0.857599	99
Es	1.129213	0.971428	-0.798533	99
Es	-1.688688	-1.581374	1.150896	99
Es	2.465205	1.472886	-2.040216	99
Es	-0.177550	-0.113799	0.145292	99
Es	-0.482383	-0.832929	0.156208	99
Es	1.979405	1.296017	-1.584695	99
Es	-0.073495	-1.466153	-0.199760	99
Es	0.033173	1.034786	0.808009	99
Es	0.106366	0.586141	0.149181	99
Es	1.307679	1.219822	-1.263763	99
Es	-1.615374	-0.620247	1.480413	99
Es	-1.030344	-0.945766	0.685853	99
Es	-1.348398	-1.022979	1.016125	99
Es	-0.175234	1.612795	0.918073	99
Es	-0.416531	-1.324644	-0.505654	99
Es	-0.547321	1.315308	1.191979	99
Es	0.635961	0.768093	-0.345683	99
Es	-0.261839	-1.891212	-0.554632	99
Es	1.672440	1.370716	-0.942446	99
35
Properties=species:S:1:pos:R:3:Z:I:1 energy=-357.45822358288524 field_type=dipole dipole="0.000000 0.000000 0.000000" charge=0
N	-1.446108	-1.051136	1.106887	7
C	-0.482308	-0.833036	0.156087	6
O	-0.112378	-1.690636	-0.629013	8
C	0.106312	0.586164	0.149247	6
O	-0.306428	1.402394	0.967837	8
C	1.129432	0.971494	-0.798753	6
C	1.979242	1.295944	-1.584543	6
H	-1.718108	-0.304276	1.737367	1
H	-1.881938	-1.959526	1.176267	1
H	2.732282	1.582614	-2.281383	1
Es	1.979407	1.296004	-1.584701	99
Es	0.106368	0.586142	0.149183	99
Es	-0.112461	-1.690392	-0.628812	99
Es	-0.179522	1.602932	0.919205	99
Es	2.465165	1.471964	-2.040532	99
Es	-0.258391	-1.884323	-0.555353	99
Es	1.603272	0.791888	-1.289135	99
Es	-1.616372	-0.621443	1.481292	99
Es	-1.348007	-1.023165	1.016591	99
Es	1.650937	1.404681	-0.963673	99
Es	-1.688175	-1.579765	1.150041	99
Es	1.328092	1.186278	-1.243822	99
Es	-0.177448	-0.113527	0.145393	99
Es	1.129195	0.971423	-0.798548	99
Es	-0.306367	1.402123	0.967648	99
Es	-0.309327	1.178962	0.490731	99
Es	-1.446216	-1.051066	1.106711	99
Es	0.123460	-1.629218	-0.859011	99
Es	-1.030161	-0.946021	0.685718	99
Es	-0.547462	1.317451	1.193585	99
Es	0.035892	1.037741	0.807437	99
Es	0.636142	0.768287	-0.345535	99
Es	-0.418159	-1.327439	-0.506114	99
Es	-0.482380	-0.832930	0.156210	99
Es	-0.075076	-1.467623	-0.197245	99
35
Properties=species:S:1:pos:R:3:Z:I:1 energy=-357.45822358288524 field_type=dipole dipole="0.000000 0.000000 0.000000" charge=0
N	-1.446108	-1.051136	1.106887	7
C	-0.482308	-0.833036	0.156087	6
O	-0.112378	-1.690636	-0.629013	8
C	0.106312	0.586164	0.149247	6
O	-0.306428	1.402394	0.967837	8
C	1.129432	0.971494	-0.798753	6
C	1.979242	1.295944	-1.584543	6
H	-1.718108	-0.304276	1.737367	1
H	-1.881938	-1.959526	1.176267	1
H	2.732282	1.582614	-2.281383	1
Es	0.633742	0.769625	-0.347565	99
Es	1.353512	1.407456	-1.227755	99
Es	1.697328	1.156632	-0.909186	99
Es	0.029546	1.036363	0.808859	99
Es	-0.112449	-1.690382	-0.628799	99
Es	-1.701121	-1.575601	1.138951	99
Es	-0.258250	-1.888542	-0.559208	99
Es	-0.306342	1.402149	0.967640	99
Es	-1.348356	-1.022830	1.016314	99
Es	-0.118831	-1.478225	-0.337083	99
Es	1.979410	1.296007	-1.584697	99
Es	-1.610436	-0.623061	1.485779	99
Es	-1.023203	-0.948770	0.692102	99
Es	-0.177551	-0.112979	0.144427	99
Es	-0.546286	1.315667	1.194258	99
Es	-0.372520	-1.325937	-0.359538	99
Es	1.129205	0.971429	-0.798538	99
Es	-1.445996	-1.051155	1.106926	99
Es	-0.174535	1.609685	0.918387	99
Es	0.119634	-1.616378	-0.862412	99
Es	1.532397	0.817453	-1.358924	99
Es	2.466590	1.472329	-2.039153	99
Es	-0.307066	1.174816	0.491087	99
Es	-0.482378	-0.832931	0.156213	99
Es	0.106362	0.586143	0.149177	99
35
Properties=species:S:1:pos:R:3:Z:I:1 energy=-357.45822358288524 field_type=dipole dipole="0.000000 0.000000 0.000000" charge=0
N	-1.446108	-1.051136	1.106887	7
C	-0.482308	-0.833036	0.156087	6
O	-0.112378	-1.690636	-0.629013	8
C	0.106312	0.586164	0.149247	6
O	-0.306428	1.402394	0.967837	8
C	1.129432	0.971494	-0.798753	6
C	1.979242	1.295944	-1.584543	6
H	-1.718108	-0.304276	1.737367	1
H	-1.881938	-1.959526	1.176267	1
H	2.732282	1.582614	-2.281383	1
Es	-0.176996	-0.113033	0.144687	99
Es	-0.306364	1.402157	0.967656	99
Es	-1.696322	-1.577232	1.143067	99
Es	-1.446038	-1.051140	1.106886	99
Es	1.129205	0.971431	-0.798538	99
Es	2.466338	1.472312	-2.039425	99
Es	-0.323624	-1.349151	-0.295084	99
Es	-0.309145	1.176603	0.493317	99
Es	-0.176148	1.607209	0.917822	99
Es	-0.254648	-1.886618	-0.561239	99
Es	1.551351	0.809227	-1.342847	99
Es	0.033165	1.035647	0.806646	99
Es	-0.547079	1.317392	1.193989	99
Es	-0.482377	-0.832931	0.156214	99
Es	0.124688	-1.614642	-0.858115	99
Es	-1.024188	-0.948418	0.691105	99
Es	1.979406	1.296013	-1.584699	99
Es	0.106362	0.586144	0.149177	99
Es	-0.112452	-1.690364	-0.628811	99
Es	0.634290	0.769377	-0.347080	99
Es	-1.613554	-0.622246	1.483558	99
Es	1.702922	1.201792	-0.905600	99
Es	1.328807	1.370697	-1.247547	99
Es	-1.348999	-1.022354	1.015521	99
Es	-0.176192	-1.458906	-0.403392	99
35
Properties=species:S:1:pos:R:3:Z:I:1 energy=-357.45822358288524 field_type=dipole dipole="0.000000 0.000000 0.000000" charge=0
N	-1.446108	-1.051136	1.106887	7
C	-0.482308	-0.833036	0.156087	6
O	-0.112378	-1.690636	-0.629013	8
C	0.106312	0.586164	0.149247	6
O	-0.306428	1.402394	0.967837	8
C	1.129432	0.971494	-0.798753	6
C	1.979242	1.295944	-1.584543	6
H	-1.718108	-0.304276	1.737367	1
H	-1.881938	-1.959526	1.176267	1
H	2.732282	1.582614	-2.281383	1
Es	-0.248791	-1.864469	-0.563139	99
Es	-0.482382	-0.832929	0.156210	99
Es	-0.308788	1.187690	0.490655	99
Es	0.044642	1.043951	0.803996	99
Es	-0.176767	-0.113266	0.145933	99
Es	-0.410589	-1.342121	-0.519286	99
Es	1.599800	1.453519	-1.011745	99
Es	-1.618670	-0.623226	1.482074	99
Es	1.584607	0.796898	-1.310045	99
Es	0.127024	-1.630467	-0.857591	99
Es	-1.689781	-1.576291	1.146412	99
Es	-0.547375	1.323348	1.196285	99
Es	-1.349034	-1.022647	1.015811	99
Es	1.398454	1.132678	-1.174392	99
Es	1.129215	0.971428	-0.798527	99
Es	2.465829	1.470946	-2.040223	99
Es	-0.306365	1.402149	0.967658	99
Es	1.979408	1.295999	-1.584703	99
Es	-0.189478	1.581182	0.919856	99
Es	0.106369	0.586140	0.149183	99
Es	-1.446102	-1.051113	1.106831	99
Es	-0.095933	-1.470709	-0.178131	99
Es	-0.112451	-1.690364	-0.628812	99
Es	0.635231	0.768661	-0.346385	99
Es	-1.025668	-0.948024	0.689341	99
35
Properties=species:S:1:pos:R:3:Z:I:1 energy=-357.45822358288524 field_type=dipole dipole="0.000000 0.000000 0.000000" charge=0
N	-1.446108	-1.051136	1.106887	7
C	-0.482308	-0.833036	0.156087	6
O	-0.112378	-1.690636	-0.629013	8
C	0.106312	0.586164	0.149247	6
O	-0.306428	1.402394	0.967837	8
C	1.129432	0.971494	-0.798753	6
C	1.979242	1.295944	-1.584543	6
H	-1.718108	-0.304276	1.737367	1
H	-1.881938	-1.959526	1.176267	1
H	2.732282	1.582614	-2.281383	1
Es	0.634352	0.768874	-0.347190	99
Es	-1.618123	-0.623978	1.483125	99
Es	-1.022050	-0.949583	0.692568	99
Es	-0.306375	1.402126	0.967657	99
Es	-0.176829	-0.112992	0.145725	99
Es	-1.350582	-1.021978	1.014375	99
Es	-1.446093	-1.051117	1.106839	99
Es	1.569268	1.470495	-1.039760	99
Es	-0.095893	-1.474340	-0.178282	99
Es	2.466300	1.470701	-2.039855	99
Es	1.563457	0.804234	-1.331361	99
Es	-0.482380	-0.832930	0.156211	99
Es	-0.547693	1.325589	1.196559	99
Es	1.450625	1.108280	-1.124625	99
Es	-0.191673	1.575736	0.919596	99
Es	0.106364	0.586136	0.149178	99
Es	0.045039	1.045446	0.806725	99
Es	-1.692529	-1.574593	1.143552	99
Es	-0.306442	1.188918	0.488325	99
Es	-0.414489	-1.342178	-0.518989	99
Es	1.979411	1.296007	-1.584700	99
Es	0.127838	-1.630403	-0.856996	99
Es	1.129229	0.971425	-0.798516	99
Es	-0.112452	-1.690381	-0.628819	99
Es	-0.245875	-1.860530	-0.564077	99
35
Properties=species:S:1:pos:R:3:Z:I:1 energy=-357.45822358288524 field_type=dipole dipole="0.000000 0.000000 0.000000" charge=0
N	-1.446108	-1.051136	1.106887	7
C	-0.482308	-0.833036	0.156087	6
O	-0.112378	-1.690636	-0.629013	8
C	0.106312	0.586164	0.149247	6
O	-0.306428	1.402394	0.967837	8
C	1.129432	0.971494	-0.798753	6
C	1.979242	1.295944	-1.584543	6
H	-1.718108	-0.304276	1.737367	1
H	-1.881938	-1.959526	1.176267	1
H	2.732282	1.582614	-2.281383	1
Es	-1.688155	-1.576039	1.147152	99
Es	1.603706	1.450233	-1.008048	99
Es	0.106366	0.586140	0.149178	99
Es	-0.238846	-1.860855	-0.559146	99
Es	-1.347784	-1.023177	1.016841	99
Es	0.117619	-1.625731	-0.866345	99
Es	-0.302820	1.191959	0.483204	99
Es	-0.112453	-1.690389	-0.628818	99
Es	1.129180	0.971440	-0.798567	99
Es	-0.306366	1.402140	0.967655	99
Es	-0.482379	-0.832929	0.156212	99
Es	1.573536	0.800763	-1.321576	99
Es	1.405140	1.132217	-1.166985	99
Es	-0.435550	-1.334991	-0.446932	99
Es	-1.446113	-1.051108	1.106819	99
Es	-0.191274	1.573405	0.921738	99
Es	0.040172	1.046310	0.808955	99
Es	-0.178068	-0.112461	0.144476	99
Es	-1.616115	-0.625067	1.485195	99
Es	2.465256	1.471125	-2.040777	99
Es	0.635909	0.768445	-0.345809	99
Es	-1.030952	-0.945923	0.684685	99
Es	-0.546082	1.323784	1.197934	99
Es	1.979407	1.296000	-1.584703	99
Es	-0.070928	-1.486325	-0.245073	99
35
Properties=species:S:1:pos:R:3:Z:I:1 energy=-357.45822358288524 field_type=dipole dipole="0.000000 0.000000 0.000000" charge=0
N	-1.446108	-1.051136	1.106887	7
C	-0.482308	-0.833036	0.156087	6
O	-0.112378	-1.690636	-0.629013	8
C	0.106312	0.586164	0.149247	6
O	-0.306428	1.402394	0.967837	8
C	1.129432	0.971494	-0.798753	6
C	1.979242	1.295944	-1.584543	6
H	-1.718108	-0.304276	1.737367	1
H	-1.881938	-1.959526	1.176267	1
H	2.732282	1.582614	-2.281383	1
Es	-1.613291	-0.624551	1.486092	99
Es	-0.482377	-0.832931	0.156214	99
Es	-1.349753	-1.022806	1.015476	99
Es	1.511436	0.829580	-1.374462	99
Es	0.128814	-1.622073	-0.856186	99
Es	1.129202	0.971444	-0.798534	99
Es	-0.547032	1.322151	1.196206	99
Es	-0.207290	-1.446052	-0.433153	99
Es	2.467384	1.470874	-2.038698	99
Es	-0.112462	-1.690440	-0.628831	99
Es	-0.307668	1.182914	0.491940	99
Es	0.632438	0.770313	-0.348940	99
Es	-1.016463	-0.951926	0.698093	99
Es	-1.703738	-1.570889	1.133830	99
Es	0.106364	0.586140	0.149177	99
Es	-0.304332	-1.378009	-0.260815	99
Es	-0.247950	-1.861950	-0.568761	99
Es	-0.306356	1.402122	0.967627	99
Es	1.654599	1.085327	-0.946138	99
Es	-0.176191	-0.112493	0.145075	99
Es	1.979412	1.296006	-1.584696	99
Es	0.042199	1.041505	0.806212	99
Es	-1.446245	-1.051041	1.106666	99
Es	-0.186459	1.589024	0.918212	99
Es	1.418166	1.466726	-1.174339	99
35
Properties=species:S:1:pos:R:3:Z:I:1 energy=-357.45822358288524 field_type=dipole dipole="0.000000 0.000000 0.000000" charge=0
N	-1.446108	-1.051136	1.106887	7
C	-0.482308	-0.833036	0.156087	6
O	-0.112378	-1.690636	-0.629013	8
C	0.106312	0.586164	0.149247	6
O	-0.306428	1.402394	0.967837	8
C	1.129432	0.971494	-0.798753	6
C	1.979242	1.295944	-1.584543	6
H	-1.718108	-0.304276	1.737367	1
H	-1.881938	-1.959526	1.176267	1
H	2.732282	1.582614	-2.281383	1
Es	0.634776	0.768777	-0.346826	99
Es	-1.446021	-1.051148	1.106902	99
Es	-0.193444	1.569903	0.921178	99
Es	-1.692106	-1.573689	1.142943	99
Es	-0.306353	1.402114	0.967631	99
Es	1.129207	0.971434	-0.798531	99
Es	1.556157	1.475657	-1.051765	99
Es	-0.074603	-1.489562	-0.255169	99
Es	2.465789	1.470819	-2.040353	99
Es	-1.027225	-0.947452	0.687842	99
Es	-1.615414	-0.626209	1.486663	99
Es	-0.437414	-1.342137	-0.434018	99
Es	-0.545876	1.325065	1.198369	99
Es	0.117371	-1.625521	-0.866849	99
Es	-0.233424	-1.850395	-0.561823	99
Es	-1.348529	-1.022763	1.016265	99
Es	1.539679	0.814563	-1.352611	99
Es	0.106351	0.586148	0.149168	99
Es	0.044367	1.046955	0.807984	99
Es	-0.482381	-0.832929	0.156208	99
Es	1.487222	1.092847	-1.091662	99
Es	-0.304610	1.192957	0.484893	99
Es	-0.112452	-1.690407	-0.628823	99
Es	1.979409	1.295999	-1.584699	99
Es	-0.178069	-0.112060	0.144345	99
35
Properties=species:S:1:pos:R:3:Z:I:1 energy=-357.45822358288524 field_type=dipole dipole="0.000000 0.000000 0.000000" charge=0
N	-1.446108	-1.051136	1.106887	7
C	-0.482308	-0.833036	0.156087	6
O	-0.112378	-1.690636	-0.629013	8
C	0.106312	0.586164	0.149247	6
O	-0.306428	1.402394	0.967837	8
C	1.129432	0.971494	-0.798753	6
C	1.979242	1.295944	-1.584543	6
H	-1.718108	-0.304276	1.737367	1
H	-1.881938	-1.959526	1.176267	1
H	2.732282	1.582614	-2.281383	1
Es	-0.548517	1.327180	1.196115	99
Es	0.106367	0.586140	0.149184	99
Es	0.050415	1.048642	0.805097	99
Es	-1.352028	-1.021355	1.013073	99
Es	1.436669	1.113498	-1.138162	99
Es	-0.112450	-1.690379	-0.628811	99
Es	1.129207	0.971435	-0.798531	99
Es	-1.619904	-0.624455	1.482618	99
Es	0.133328	-1.630515	-0.852152	99
Es	-1.019657	-0.950415	0.694766	99
Es	-0.162709	-1.456604	-0.172143	99
Es	-0.196066	1.567994	0.919584	99
Es	-0.237897	-1.846409	-0.568044	99
Es	1.574714	0.800587	-1.320226	99
Es	1.572139	1.468827	-1.037221	99
Es	-0.307318	1.191683	0.489963	99
Es	-0.306365	1.402124	0.967657	99
Es	1.979410	1.296006	-1.584698	99
Es	-0.361727	-1.373800	-0.526321	99
Es	0.634100	0.769075	-0.347436	99
Es	2.466594	1.470357	-2.039637	99
Es	-0.482378	-0.832931	0.156214	99
Es	-0.175624	-0.112779	0.146380	99
Es	-1.691811	-1.573820	1.143153	99
Es	-1.446086	-1.051121	1.106845	99
35
Properties=species:S:1:pos:R:3:Z:I:1 energy=-357.45822358288524 field_type=dipole dipole="0.000000 0.000000 0.000000" charge=0
N	-1.446108	-1.051136	1.106887	7
C	-0.482308	-0.833036	0.156087	6
O	-0.112378	-1.690636	-0.629013	8
C	0.106312	0.586164	0.149247	6
O	-0.306428	1.402394	0.967837	8
C	1.129432	0.971494	-0.798753	6
C	1.979242	1.295944	-1.584543	6
H	-1.718108	-0.304276	1.737367	1
H	-1.881938	-1.959526	1.176267	1
H	2.732282	1.582614	-2.281383	1
Es	-0.548678	1.327517	1.195928	99
Es	1.129207	0.971438	-0.798530	99
Es	-1.351996	-1.021475	1.013238	99
Es	0.134025	-1.631632	-0.851754	99
Es	1.599940	1.452801	-1.011716	99
Es	-0.237737	-1.840443	-0.570205	99
Es	-0.306996	1.191294	0.488842	99
Es	1.979409	1.296002	-1.584702	99
Es	-1.021842	-0.949725	0.692710	99
Es	1.391618	1.134549	-1.181866	99
Es	-0.482381	-0.832931	0.156212	99
Es	-1.621058	-0.623932	1.481543	99
Es	-0.112458	-1.690368	-0.628807	99
Es	-1.446016	-1.051148	1.106906	99
Es	-1.688517	-1.574917	1.146074	99
Es	-0.334438	-1.384868	-0.517462	99
Es	-0.194250	1.570051	0.919782	99
Es	2.466245	1.470590	-2.039929	99
Es	0.106368	0.586141	0.149182	99
Es	1.591518	0.795589	-1.302439	99
Es	0.634861	0.768935	-0.346720	99
Es	-0.306358	1.402121	0.967637	99
Es	-0.190538	-1.450952	-0.178611	99
Es	0.047984	1.047021	0.805667	99
Es	-0.175509	-0.112691	0.146284	99
35
Properties=species:S:1:pos:R:3:Z:I:1 energy=-357.45822358288524 field_type=dipole dipole="0.000000 0.000000 0.000000" charge=0
N	-1.446108	-1.051136	1.106887	7
C	-0.482308	-0.833036	0.156087	6
O	-0.112378	-1.690636	-0.629013	8
C	0.106312	0.586164	0.149247	6
O	-0.306428	1.402394	0.967837	8
C	1.129432	0.971494	-0.798753	6
C	1.979242	1.295944	-1.584543	6
H	-1.718108	-0.304276	1.737367	1
H	-1.881938	-1.959526	1.176267	1
H	2.732282	1.582614	-2.281383	1
Es	1.656270	1.394415	-0.958701	99
Es	-1.619521	-0.622991	1.481408	99
Es	-0.112454	-1.690384	-0.628818	99
Es	-1.350427	-1.022599	1.014905	99
Es	0.636500	0.768602	-0.345266	99
Es	-0.304830	1.190080	0.485136	99
Es	1.129216	0.971431	-0.798524	99
Es	0.041057	1.044331	0.808155	99
Es	-0.232218	-1.853453	-0.562477	99
Es	-0.547687	1.326604	1.196559	99
Es	1.979410	1.296008	-1.584696	99
Es	1.325799	1.194553	-1.245372	99
Es	0.124771	-1.621517	-0.860380	99
Es	0.106367	0.586136	0.149179	99
Es	-1.682846	-1.578145	1.152120	99
Es	-0.306368	1.402104	0.967656	99
Es	-1.030299	-0.946443	0.685304	99
Es	-0.189966	1.575199	0.920552	99
Es	-0.200298	-1.449108	-0.426604	99
Es	-0.320278	-1.384908	-0.267039	99
Es	2.465118	1.471416	-2.040845	99
Es	-0.176559	-0.112074	0.144675	99
Es	-1.446019	-1.051149	1.106909	99
Es	1.600049	0.793787	-1.292786	99
Es	-0.482381	-0.832930	0.156212	99
35
Properties=species:S:1:pos:R:3:Z:I:1 energy=-357.45822358288524 field_type=dipole dipole="0.000000 0.000000 0.000000" charge=0
N	-1.446108	-1.051136	1.106887	7
C	-0.482308	-0.833036	0.156087	6
O	-0.112378	-1.690636	-0.629013	8
C	0.106312	0.586164	0.149247	6
O	-0.306428	1.402394	0.967837	8
C	1.129432	0.971494	-0.798753	6
C	1.979242	1.295944	-1.584543	6
H	-1.718108	-0.304276	1.737367	1
H	-1.881938	-1.959526	1.176267	1
H	2.732282	1.582614	-2.281383	1
Es	-1.350148	-1.022687	1.015125	99
Es	-0.112461	-1.690383	-0.628810	99
Es	-0.241208	-1.848515	-0.571311	99
Es	-1.702734	-1.569455	1.133312	99
Es	2.467443	1.470333	-2.038748	99
Es	-0.306897	1.188444	0.490218	99
Es	-0.547183	1.326715	1.197141	99
Es	-0.482377	-0.832932	0.156214	99
Es	1.979408	1.296001	-1.584702	99
Es	-0.175716	-0.112266	0.145376	99
Es	-1.446194	-1.051070	1.106731	99
Es	1.129200	0.971442	-0.798537	99
Es	-1.015282	-0.952559	0.699086	99
Es	1.511628	0.829520	-1.374347	99
Es	1.455711	1.482063	-1.141817	99
Es	0.048847	1.047082	0.806477	99
Es	-0.194467	1.572830	0.918664	99
Es	-1.615257	-0.625348	1.485967	99
Es	0.632253	0.770249	-0.349190	99
Es	0.106364	0.586143	0.149178	99
Es	-0.228064	-1.436008	-0.451479	99
Es	-0.292677	-1.399133	-0.241920	99
Es	1.617138	1.070364	-0.978506	99
Es	0.131242	-1.624104	-0.854338	99
Es	-0.306165	1.402240	0.967478	99
35
Properties=species:S:1:pos:R:3:Z:I:1 energy=-357.45822358288524 field_type=dipole dipole="0.000000 0.000000 0.000000" charge=0
N	-1.446108	-1.051136	1.106887	7
C	-0.482308	-0.833036	0.156087	6
O	-0.112378	-1.690636	-0.629013	8
C	0.106312	0.586164	0.149247	6
O	-0.306428	1.402394	0.967837	8
C	1.129432	0.971494	-0.798753	6
C	1.979242	1.295944	-1.584543	6
H	-1.718108	-0.304276	1.737367	1
H	-1.881938	-1.959526	1.176267	1
H	2.732282	1.582614	-2.281383	1
Es	-0.195821	1.565587	0.920481	99
Es	0.116476	-1.624392	-0.868013	99
Es	0.633997	0.769251	-0.347522	99
Es	-1.695192	-1.571924	1.139624	99
Es	-0.303658	1.193395	0.483686	99
Es	1.521873	0.823656	-1.366769	99
Es	-0.545499	1.326868	1.198943	99
Es	-0.098754	-1.484207	-0.307280	99
Es	-0.112455	-1.690392	-0.628819	99
Es	0.045690	1.048618	0.809708	99
Es	-0.482381	-0.832930	0.156211	99
Es	2.466167	1.470468	-2.040039	99
Es	0.106363	0.586142	0.149177	99
Es	-0.177621	-0.111419	0.144034	99
Es	-1.348293	-1.022907	1.016615	99
Es	-0.225849	-1.837909	-0.563089	99
Es	1.533967	1.075377	-1.051148	99
Es	-1.614536	-0.627009	1.487901	99
Es	-0.306359	1.402123	0.967643	99
Es	-1.025313	-0.948201	0.689561	99
Es	1.129208	0.971429	-0.798532	99
Es	-0.420643	-1.361355	-0.379595	99
Es	1.527652	1.483835	-1.077716	99
Es	-1.446023	-1.051145	1.106901	99
Es	1.979410	1.296006	-1.584698	99
35
Properties=species:S:1:pos:R:3:Z:I:1 energy=-357.45822358288524 field_type=dipole dipole="0.000000 0.000000 0.000000" charge=0
N	-1.446108	-1.051136	1.106887	7
C	-0.482308	-0.833036	0.156087	6
O	-0.112378	-1.690636	-0.629013	8
C	0.106312	0.586164	0.149247	6
O	-0.306428	1.402394	0.967837	8
C	1.129432	0.971494	-0.798753	6
C	1.979242	1.295944	-1.584543	6
H	-1.718108	-0.304276	1.737367	1
H	-1.881938	-1.959526	1.176267	1
H	2.732282	1.582614	-2.281383	1
Es	-1.614641	-0.625818	1.486718	99
Es	0.106364	0.586142	0.149177	99
Es	-0.200326	-1.448988	-0.426649	99
Es	-0.321496	-1.391362	-0.264306	99
Es	-1.349550	-1.022900	1.015719	99
Es	1.612739	1.066823	-0.982953	99
Es	-1.446015	-1.051152	1.106907	99
Es	-1.702067	-1.569623	1.133832	99
Es	-0.482377	-0.832930	0.156216	99
Es	1.507702	0.831669	-1.377090	99
Es	0.127925	-1.624058	-0.857769	99
Es	-0.306360	1.402165	0.967667	99
Es	0.632354	0.770111	-0.349098	99
Es	-0.546354	1.327102	1.198081	99
Es	0.050078	1.048587	0.805731	99
Es	2.467295	1.470258	-2.038904	99
Es	-0.307425	1.189087	0.490362	99
Es	1.129202	0.971443	-0.798535	99
Es	-1.017301	-0.951614	0.697105	99
Es	-0.236579	-1.843413	-0.570095	99
Es	1.979411	1.295999	-1.584699	99
Es	1.463972	1.483650	-1.134684	99
Es	-0.112467	-1.690431	-0.628829	99
Es	-0.195639	1.570245	0.918325	99
Es	-0.176041	-0.112025	0.145034	99
35
Properties=species:S:1:pos:R:3:Z:I:1 energy=-357.45822358288524 field_type=dipole dipole="0.000000 0.000000 0.000000" charge=0
N	-1.446108	-1.051136	1.106887	7
C	-0.482308	-0.833036	0.156087	6
O	-0.112378	-1.690636	-0.629013	8
C	0.106312	0.586164	0.149247	6
O	-0.306428	1.402394	0.967837	8
C	1.129432	0.971494	-0.798753	6
C	1.979242	1.295944	-1.584543	6
H	-1.718108	-0.304276	1.737367	1
H	-1.881938	-1.959526	1.176267	1
H	2.732282	1.582614	-2.281383	1
Es	-0.112601	-1.690426	-0.628686	99
Es	-1.446127	-1.051102	1.106807	99
Es	-0.237201	-1.841605	-0.571630	99
Es	1.129199	0.971448	-0.798539	99
Es	-0.175865	-0.112075	0.145244	99
Es	-1.701580	-1.569433	1.134027	99
Es	-1.615001	-0.625955	1.486720	99
Es	-0.482376	-0.832932	0.156216	99
Es	-1.015524	-0.952592	0.698805	99
Es	1.609721	1.068504	-0.985122	99
Es	-0.546618	1.327545	1.197923	99
Es	1.510460	0.830121	-1.375168	99
Es	1.464171	1.483528	-1.134511	99
Es	-0.307033	1.189120	0.490308	99
Es	-0.306359	1.402170	0.967658	99
Es	1.979411	1.296000	-1.584699	99
Es	-0.210989	-1.444102	-0.436586	99
Es	-0.311980	-1.397248	-0.254811	99
Es	-1.351363	-1.022034	1.013939	99
Es	2.467303	1.470252	-2.038918	99
Es	-0.195028	1.570482	0.918378	99
Es	0.106364	0.586142	0.149178	99
Es	0.632473	0.770060	-0.348998	99
Es	0.049270	1.047793	0.805827	99
Es	0.129679	-1.624696	-0.856097	99
35
Properties=species:S:1:pos:R:3:Z:I:1 energy=-357.45822358288524 field_type=dipole dipole="0.000000 0.000000 0.000000" charge=0
N	-1.446108	-1.051136	1.106887	7
C	-0.482308	-0.833036	0.156087	6
O	-0.112378	-1.690636	-0.629013	8
C	0.106312	0.586164	0.149247	6
O	-0.306428	1.402394	0.967837	8
C	1.129432	0.971494	-0.798753	6
C	1.979242	1.295944	-1.584543	6
H	-1.718108	-0.304276	1.737367	1
H	-1.881938	-1.959526	1.176267	1
H	2.732282	1.582614	-2.281383	1
Es	-0.112473	-1.690380	-0.628795	99
Es	-1.016245	-0.952082	0.698101	99
Es	-0.194679	1.569604	0.919020	99
Es	1.605162	1.064844	-0.989806	99
Es	-1.446328	-1.050988	1.106541	99
Es	1.507031	0.832239	-1.377526	99
Es	-0.316171	-1.398788	-0.256833	99
Es	2.467335	1.470237	-2.038893	99
Es	-0.175815	-0.111947	0.145122	99
Es	-1.615743	-0.625781	1.486136	99
Es	0.632385	0.770222	-0.349072	99
Es	-0.306360	1.402136	0.967652	99
Es	-0.482378	-0.832931	0.156215	99
Es	-0.547017	1.327968	1.197535	99
Es	-0.306731	1.190462	0.489384	99
Es	-1.701379	-1.569536	1.134148	99
Es	1.472260	1.484939	-1.127379	99
Es	-1.349925	-1.022693	1.015381	99
Es	0.106362	0.586143	0.149177	99
Es	-0.209942	-1.444580	-0.435393	99
Es	1.129199	0.971439	-0.798539	99
Es	0.048759	1.046825	0.806409	99
Es	0.128691	-1.625958	-0.857291	99
Es	1.979410	1.296000	-1.584700	99
Es	-0.233004	-1.838431	-0.569330	99
35
Properties=species:S:1:pos:R:3:Z:I:1 energy=-357.45822358288524 field_type=dipole dipole="0.000000 0.000000 0.000000" charge=0
N	-1.446108	-1.051136	1.106887	7
C	-0.482308	-0.833036	0.156087	6
O	-0.112378	-1.690636	-0.629013	8
C	0.106312	0.586164	0.149247	6
O	-0.306428	1.402394	0.967837	8
C	1.129432	0.971494	-0.798753	6
C	1.979242	1.295944	-1.584543	6
H	-1.718108	-0.304276	1.737367	1
H	-1.881938	-1.959526	1.176267	1
H	2.732282	1.582614	-2.281383	1
Es	-0.305077	1.195231	0.484530	99
Es	-0.112461	-1.690370	-0.628805	99
Es	1.979407	1.296006	-1.584701	99
Es	-1.683231	-1.576854	1.150726	99
Es	-0.306368	1.402126	0.967651	99
Es	-0.482386	-0.832929	0.156207	99
Es	1.129203	0.971430	-0.798539	99
Es	1.635634	1.421032	-0.978458	99
Es	0.106362	0.586143	0.149177	99
Es	-0.228838	-1.838603	-0.566301	99
Es	0.045024	1.046468	0.807558	99
Es	-0.193993	1.565861	0.921363	99
Es	-0.308420	-1.403090	-0.249636	99
Es	1.600442	0.793974	-1.292278	99
Es	-1.446044	-1.051140	1.106883	99
Es	-1.620398	-0.623911	1.481901	99
Es	-0.176153	-0.111709	0.144807	99
Es	0.636318	0.768644	-0.345436	99
Es	-0.217650	-1.441865	-0.441631	99
Es	1.346101	1.168036	-1.226065	99
Es	0.126687	-1.625187	-0.859197	99
Es	2.465336	1.470896	-2.040742	99
Es	-1.029067	-0.946896	0.686284	99
Es	-1.350458	-1.022484	1.014878	99
Es	-0.547562	1.328155	1.197090	99
35
Properties=species:S:1:pos:R:3:Z:I:1 energy=-357.45822358288524 field_type=dipole dipole="0.000000 0.000000 0.000000" charge=0
N	-1.446108	-1.051136	1.106887	7
C	-0.482308	-0.833036	0.156087	6
O	-0.112378	-1.690636	-0.629013	8
C	0.106312	0.586164	0.149247	6
O	-0.306428	1.402394	0.967837	8
C	1.129432	0.971494	-0.798753	6
C	1.979242	1.295944	-1.584543	6
H	-1.718108	-0.304276	1.737367	1
H	-1.881938	-1.959526	1.176267	1
H	2.732282	1.582614	-2.281383	1
Es	-0.201579	-1.448558	-0.427705	99
Es	0.004785	1.063734	0.709205	99
Es	0.124266	-1.621699	-0.860644	99
Es	-0.112448	-1.690350	-0.628815	99
Es	-1.027744	-0.947548	0.687552	99
Es	1.699149	1.225530	-0.910375	99
Es	2.465784	1.471688	-2.040284	99
Es	-0.482382	-0.832930	0.156210	99
Es	-0.240642	-1.860214	-0.564293	99
Es	-1.690771	-1.576335	1.146065	99
Es	-1.446066	-1.051128	1.106864	99
Es	-0.545499	1.318188	1.198178	99
Es	-1.348998	-1.022527	1.015675	99
Es	-0.270341	1.166985	0.585597	99
Es	1.979407	1.296007	-1.584701	99
Es	-0.306363	1.402158	0.967661	99
Es	-0.176645	-0.113363	0.145691	99
Es	1.328715	1.348193	-1.246438	99
Es	1.554496	0.807777	-1.339933	99
Es	0.635599	0.770029	-0.345885	99
Es	-1.615507	-0.623805	1.484382	99
Es	1.129210	0.971442	-0.798526	99
Es	-0.311540	-1.378253	-0.265221	99
Es	-0.188848	1.587803	0.917830	99
Es	0.106366	0.586141	0.149179	99
35
Properties=species:S:1:pos:R:3:Z:I:1 energy=-357.45822358288524 field_type=dipole dipole="0.000000 0.000000 0.000000" charge=0
N	-1.446108	-1.051136	1.106887	7
C	-0.482308	-0.833036	0.156087	6
O	-0.112378	-1.690636	-0.629013	8
C	0.106312	0.586164	0.149247	6
O	-0.306428	1.402394	0.967837	8
C	1.129432	0.971494	-0.798753	6
C	1.979242	1.295944	-1.584543	6
H	-1.718108	-0.304276	1.737367	1
H	-1.881938	-1.959526	1.176267	1
H	2.732282	1.582614	-2.281383	1
Es	1.129199	0.971441	-0.798538	99
Es	-0.547414	1.329047	1.197451	99
Es	0.106365	0.586142	0.149179	99
Es	-0.482378	-0.832931	0.156214	99
Es	1.478997	1.486080	-1.121327	99
Es	-1.616442	-0.625608	1.485579	99
Es	-0.303583	-1.408374	-0.244192	99
Es	1.592480	1.067301	-1.000012	99
Es	-0.175581	-0.112057	0.145383	99
Es	-1.015516	-0.952555	0.698757	99
Es	-0.223683	-1.438106	-0.447639	99
Es	-0.112542	-1.690535	-0.628818	99
Es	-1.701342	-1.569263	1.134161	99
Es	-0.197164	1.565373	0.918637	99
Es	-0.305685	1.191158	0.488479	99
Es	-1.446076	-1.051123	1.106855	99
Es	2.467366	1.470191	-2.038871	99
Es	0.130246	-1.627394	-0.855953	99
Es	0.050311	1.049317	0.807554	99
Es	-1.350273	-1.022519	1.014955	99
Es	-0.306360	1.402133	0.967647	99
Es	1.512938	0.828770	-1.373409	99
Es	0.632441	0.770093	-0.349032	99
Es	-0.233308	-1.833619	-0.571095	99
Es	1.979411	1.295998	-1.584700	99
35
Properties=species:S:1:pos:R:3:Z:I:1 energy=-357.45822358288524 field_type=dipole dipole="0.000000 0.000000 0.000000" charge=0
N	-1.446108	-1.051136	1.106887	7
C	-0.482308	-0.833036	0.156087	6
O	-0.112378	-1.690636	-0.629013	8
C	0.106312	0.586164	0.149247	6
O	-0.306428	1.402394	0.967837	8
C	1.129432	0.971494	-0.798753	6
C	1.979242	1.295944	-1.584543	6
H	-1.718108	-0.304276	1.737367	1
H	-1.881938	-1.959526	1.176267	1
H	2.732282	1.582614	-2.281383	1
Es	-0.112495	-1.690381	-0.628779	99
Es	1.593391	1.067621	-0.999172	99
Es	-0.306365	1.402171	0.967667	99
Es	-0.231772	-1.833336	-0.570873	99
Es	1.477693	1.485808	-1.122497	99
Es	-0.175777	-0.111892	0.145230	99
Es	-0.210639	-1.444199	-0.436127	99
Es	-1.445351	-1.051313	1.107224	99
Es	-1.615993	-0.626053	1.486268	99
Es	-0.317075	-1.404011	-0.254921	99
Es	-1.701521	-1.568859	1.133685	99
Es	0.050003	1.049328	0.807396	99
Es	0.106362	0.586143	0.149177	99
Es	-1.016847	-0.951985	0.697447	99
Es	1.979413	1.296000	-1.584698	99
Es	1.129209	0.971438	-0.798529	99
Es	-1.349913	-1.022882	1.015707	99
Es	1.513288	0.828729	-1.373119	99
Es	0.128984	-1.626066	-0.857061	99
Es	-0.305731	1.190642	0.488628	99
Es	2.467278	1.470026	-2.038987	99
Es	-0.196793	1.566922	0.918701	99
Es	-0.547045	1.327856	1.197671	99
Es	-0.482380	-0.832930	0.156212	99
Es	0.632482	0.770186	-0.348985	99
