39
Properties=species:S:1:pos:R:3:Z:I:1 energy=-338.77050721632764 field_type=dipole dipole="0.000000 0.000000 0.000000" charge=0
N	-2.026542	-1.455810	0.722375	7
N	-0.748042	-1.532410	0.281995	7
C	-0.140432	-0.395450	0.111345	6
C	1.291388	-0.303630	-0.348425	6
C	1.432447	1.164880	-0.380355	6
C	0.282547	1.704710	-0.003955	6
O	-0.733702	0.828400	0.312915	8
H	-2.547802	-2.295900	0.472185	1
H	-2.527202	-0.643540	0.357365	1
H	1.406837	-0.752890	-1.337275	1
H	1.959177	-0.769070	0.379535	1
H	2.325078	1.703730	-0.659695	1
H	0.026248	2.746980	0.091995	1
Es	0.103319	2.406400	0.062080	99
Es	-2.317789	-0.974803	0.474737	99
Es	0.571019	-0.355713	-0.115901	99
Es	0.989231	1.448777	0.113886	99
Es	-0.401483	-1.035001	0.489538	99
Es	2.033112	1.523004	-0.568720	99
Es	-2.332597	-1.957928	0.548597	99
Es	-0.499749	0.368767	0.233357	99
Es	0.282231	1.704609	-0.003849	99
Es	1.432511	1.164815	-0.380367	99
Es	-1.400563	-1.471496	0.470683	99
Es	1.405954	0.430189	-0.379178	99
Es	1.362989	-0.600907	-1.005947	99
Es	-0.140517	-0.395203	0.111381	99
Es	-0.748327	-1.531861	0.282091	99
Es	-0.580851	-1.028582	-0.078535	99
Es	-0.343294	1.153832	0.187268	99
Es	0.785933	1.456182	-0.518912	99
Es	-1.988871	-1.422015	1.044894	99
Es	-0.733373	0.828294	0.312762	99
Es	1.291308	-0.303576	-0.348400	99
Es	1.731106	-0.611293	0.137701	99
Es	-0.769764	0.843839	0.593117	99
Es	-0.591170	-1.861861	0.229588	99
Es	-0.932770	0.846057	0.106887	99
Es	-2.026448	-1.455843	0.721684	99
39
Properties=species:S:1:pos:R:3:Z:I:1 energy=-338.77050721632764 field_type=dipole dipole="0.000000 0.000000 0.000000" charge=0
N	-2.026542	-1.455810	0.722375	7
N	-0.748042	-1.532410	0.281995	7
C	-0.140432	-0.395450	0.111345	6
C	1.291388	-0.303630	-0.348425	6
C	1.432447	1.164880	-0.380355	6
C	0.282547	1.704710	-0.003955	6
O	-0.733702	0.828400	0.312915	8
H	-2.547802	-2.295900	0.472185	1
H	-2.527202	-0.643540	0.357365	1
H	1.406837	-0.752890	-1.337275	1
H	1.959177	-0.769070	0.379535	1
H	2.325078	1.703730	-0.659695	1
H	0.026248	2.746980	0.091995	1
Es	-0.140522	-0.395200	0.111364	99
Es	0.282219	1.704604	-0.003852	99
Es	1.432519	1.164814	-0.380378	99
Es	1.291310	-0.303577	-0.348403	99
Es	-2.026401	-1.455836	0.721624	99
Es	-0.347597	1.160409	0.174226	99
Es	-2.337484	-1.963853	0.560822	99
Es	0.787489	1.455149	-0.514578	99
Es	2.034420	1.525119	-0.570170	99
Es	-0.403904	-1.034650	0.486039	99
Es	0.104266	2.407047	0.062821	99
Es	-1.985109	-1.421740	1.021812	99
Es	-2.320605	-0.969956	0.483984	99
Es	-0.587851	-1.861707	0.228239	99
Es	-0.748354	-1.531828	0.282103	99
Es	-0.685358	0.818459	0.548534	99
Es	-0.733281	0.828300	0.312863	99
Es	-0.581115	-1.027452	-0.073622	99
Es	-0.510844	0.365010	0.215245	99
Es	1.406675	0.431217	-0.379821	99
Es	0.987387	1.447754	0.110061	99
Es	-1.398224	-1.471922	0.473285	99
Es	-1.002038	0.867943	0.182840	99
Es	1.729634	-0.609923	0.134126	99
Es	1.364657	-0.601144	-1.003333	99
Es	0.569258	-0.358355	-0.115389	99
39
Properties=species:S:1:pos:R:3:Z:I:1 energy=-338.77050721632764 field_type=dipole dipole="0.000000 0.000000 0.000000" charge=0
N	-2.026542	-1.455810	0.722375	7
N	-0.748042	-1.532410	0.281995	7
C	-0.140432	-0.395450	0.111345	6
C	1.291388	-0.303630	-0.348425	6
C	1.432447	1.164880	-0.380355	6
C	0.282547	1.704710	-0.003955	6
O	-0.733702	0.828400	0.312915	8
H	-2.547802	-2.295900	0.472185	1
H	-2.527202	-0.643540	0.357365	1
H	1.406837	-0.752890	-1.337275	1
H	1.959177	-0.769070	0.379535	1
H	2.325078	1.703730	-0.659695	1
H	0.026248	2.746980	0.091995	1
Es	-2.320082	-0.970843	0.483849	99
Es	0.104502	2.407026	0.063032	99
Es	1.407054	0.431649	-0.379808	99
Es	-1.398621	-1.473010	0.472940	99
Es	-1.043645	0.885719	0.325357	99
Es	1.432517	1.164817	-0.380382	99
Es	-0.748335	-1.531844	0.282095	99
Es	1.291308	-0.303577	-0.348400	99
Es	0.568905	-0.358742	-0.115347	99
Es	-0.588297	-1.859787	0.228710	99
Es	-0.636960	0.798725	0.408037	99
Es	0.282218	1.704603	-0.003847	99
Es	-2.026446	-1.455850	0.721681	99
Es	1.364830	-0.601124	-1.002658	99
Es	-0.403611	-1.034755	0.486746	99
Es	0.986968	1.447647	0.109085	99
Es	-1.984657	-1.420369	1.020526	99
Es	-0.348390	1.166577	0.173972	99
Es	-2.338375	-1.964861	0.562698	99
Es	-0.516298	0.360357	0.213764	99
Es	-0.733235	0.828251	0.312500	99
Es	2.034731	1.525703	-0.570412	99
Es	0.787900	1.455041	-0.513638	99
Es	-0.581295	-1.027649	-0.074726	99
Es	1.728981	-0.609822	0.133296	99
Es	-0.140519	-0.395197	0.111372	99
39
Properties=species:S:1:pos:R:3:Z:I:1 energy=-338.77050721632764 field_type=dipole dipole="0.000000 0.000000 0.000000" charge=0
N	-2.026542	-1.455810	0.722375	7
N	-0.748042	-1.532410	0.281995	7
C	-0.140432	-0.395450	0.111345	6
C	1.291388	-0.303630	-0.348425	6
C	1.432447	1.164880	-0.380355	6
C	0.282547	1.704710	-0.003955	6
O	-0.733702	0.828400	0.312915	8
H	-2.547802	-2.295900	0.472185	1
H	-2.527202	-0.643540	0.357365	1
H	1.406837	-0.752890	-1.337275	1
H	1.959177	-0.769070	0.379535	1
H	2.325078	1.703730	-0.659695	1
H	0.026248	2.746980	0.091995	1
Es	1.291307	-0.303577	-0.348402	99
Es	0.568607	-0.359338	-0.115321	99
Es	-0.346619	1.167563	0.177795	99
Es	0.787996	1.455041	-0.512842	99
Es	1.728481	-0.609578	0.132626	99
Es	-2.339488	-1.966280	0.566465	99
Es	2.035124	1.526110	-0.570438	99
Es	-0.515241	0.359134	0.219081	99
Es	-1.041858	0.886655	0.357319	99
Es	1.432513	1.164814	-0.380385	99
Es	-1.984417	-1.420151	1.013695	99
Es	-2.320356	-0.970007	0.485608	99
Es	0.282217	1.704604	-0.003851	99
Es	-0.748336	-1.531842	0.282093	99
Es	-2.026430	-1.455846	0.721643	99
Es	-0.140521	-0.395196	0.111368	99
Es	-0.733302	0.828296	0.312774	99
Es	0.986967	1.447362	0.108464	99
Es	0.104609	2.406910	0.062963	99
Es	-0.588240	-1.858630	0.228438	99
Es	1.407220	0.432190	-0.380148	99
Es	-0.403494	-1.034975	0.486615	99
Es	-1.397943	-1.473646	0.474467	99
Es	-0.581386	-1.027533	-0.074548	99
Es	1.365172	-0.601076	-1.001699	99
Es	-0.641435	0.797679	0.366662	99
39
Properties=species:S:1:pos:R:3:Z:I:1 energy=-338.77050721632764 field_type=dipole dipole="0.000000 0.000000 0.000000" charge=0
N	-2.026542	-1.455810	0.722375	7
N	-0.748042	-1.532410	0.281995	7
C	-0.140432	-0.395450	0.111345	6
C	1.291388	-0.303630	-0.348425	6
C	1.432447	1.164880	-0.380355	6
C	0.282547	1.704710	-0.003955	6
O	-0.733702	0.828400	0.312915	8
H	-2.547802	-2.295900	0.472185	1
H	-2.527202	-0.643540	0.357365	1
H	1.406837	-0.752890	-1.337275	1
H	1.959177	-0.769070	0.379535	1
H	2.325078	1.703730	-0.659695	1
H	0.026248	2.746980	0.091995	1
Es	-0.748336	-1.531842	0.282090	99
Es	-0.341455	1.168246	0.192411	99
Es	-2.320310	-0.969665	0.486414	99
Es	1.291307	-0.303577	-0.348399	99
Es	-0.581508	-1.027512	-0.074522	99
Es	-1.984689	-1.419940	1.009036	99
Es	-0.588500	-1.857622	0.227831	99
Es	0.104476	2.406816	0.062424	99
Es	-0.733165	0.828283	0.313006	99
Es	1.407434	0.432450	-0.379712	99
Es	-0.664350	0.798199	0.280293	99
Es	-2.026452	-1.455845	0.721854	99
Es	0.568430	-0.359770	-0.114932	99
Es	-1.397327	-1.474340	0.475552	99
Es	-0.403113	-1.035098	0.487041	99
Es	2.035652	1.526408	-0.569542	99
Es	1.432518	1.164814	-0.380380	99
Es	-0.140517	-0.395196	0.111380	99
Es	0.986705	1.447333	0.107648	99
Es	-2.340209	-1.967043	0.568695	99
Es	0.282216	1.704603	-0.003847	99
Es	-0.509621	0.357822	0.235987	99
Es	0.788039	1.454872	-0.512852	99
Es	1.728962	-0.610141	0.132100	99
Es	1.364793	-0.600164	-1.000859	99
Es	-1.029833	0.886592	0.411725	99
39
Properties=species:S:1:pos:R:3:Z:I:1 energy=-338.77050721632764 field_type=dipole dipole="0.000000 0.000000 0.000000" charge=0
N	-2.026542	-1.455810	0.722375	7
N	-0.748042	-1.532410	0.281995	7
C	-0.140432	-0.395450	0.111345	6
C	1.291388	-0.303630	-0.348425	6
C	1.432447	1.164880	-0.380355	6
C	0.282547	1.704710	-0.003955	6
O	-0.733702	0.828400	0.312915	8
H	-2.547802	-2.295900	0.472185	1
H	-2.527202	-0.643540	0.357365	1
H	1.406837	-0.752890	-1.337275	1
H	1.959177	-0.769070	0.379535	1
H	2.325078	1.703730	-0.659695	1
H	0.026248	2.746980	0.091995	1
Es	-0.748338	-1.531829	0.282094	99
Es	-0.402970	-1.035386	0.487115	99
Es	-1.032056	0.886016	0.405738	99
Es	2.035817	1.526738	-0.569680	99
Es	-0.140520	-0.395201	0.111372	99
Es	1.432525	1.164813	-0.380374	99
Es	-2.026433	-1.455845	0.721618	99
Es	0.282218	1.704604	-0.003853	99
Es	-2.340817	-1.967619	0.570472	99
Es	1.728446	-0.609689	0.131514	99
Es	1.291308	-0.303576	-0.348400	99
Es	-0.588685	-1.857063	0.227873	99
Es	-2.320774	-0.968593	0.489165	99
Es	0.986407	1.447270	0.106893	99
Es	0.568163	-0.360141	-0.114934	99
Es	-0.659870	0.797945	0.294102	99
Es	-0.733069	0.828241	0.313055	99
Es	0.788359	1.454679	-0.512301	99
Es	-0.342197	1.168347	0.189412	99
Es	-0.511263	0.358449	0.231089	99
Es	1.365087	-0.600396	-1.000247	99
Es	1.407702	0.432569	-0.379778	99
Es	-1.397240	-1.474159	0.475649	99
Es	0.104640	2.406825	0.062512	99
Es	-1.983973	-1.420915	1.004629	99
Es	-0.581323	-1.027399	-0.074294	99
39
Properties=species:S:1:pos:R:3:Z:I:1 energy=-338.77050721632764 field_type=dipole dipole="0.000000 0.000000 0.000000" charge=0
N	-2.026542	-1.455810	0.722375	7
N	-0.748042	-1.532410	0.281995	7
C	-0.140432	-0.395450	0.111345	6
C	1.291388	-0.303630	-0.348425	6
C	1.432447	1.164880	-0.380355	6
C	0.282547	1.704710	-0.003955	6
O	-0.733702	0.828400	0.312915	8
H	-2.547802	-2.295900	0.472185	1
H	-2.527202	-0.643540	0.357365	1
H	1.406837	-0.752890	-1.337275	1
H	1.959177	-0.769070	0.379535	1
H	2.325078	1.703730	-0.659695	1
H	0.026248	2.746980	0.091995	1
Es	-0.403274	-1.034968	0.486700	99
Es	-0.581414	-1.027605	-0.074054	99
Es	-0.748339	-1.531840	0.282094	99
Es	2.035937	1.526959	-0.569827	99
Es	1.291308	-0.303576	-0.348400	99
Es	0.282220	1.704603	-0.003842	99
Es	0.986251	1.447013	0.106542	99
Es	0.104772	2.406900	0.062651	99
Es	1.365462	-0.600493	-0.999852	99
Es	1.727871	-0.609276	0.130890	99
Es	-0.732649	0.828105	0.313297	99
Es	-0.660667	0.798128	0.292678	99
Es	-0.510688	0.358744	0.233471	99
Es	-2.026449	-1.455848	0.721822	99
Es	1.407808	0.432835	-0.380027	99
Es	-1.032678	0.885792	0.404508	99
Es	-1.397139	-1.474596	0.475940	99
Es	-1.983712	-1.420532	1.001358	99
Es	0.568027	-0.360639	-0.114720	99
Es	1.432519	1.164814	-0.380379	99
Es	-2.341230	-1.968207	0.572870	99
Es	-0.140520	-0.395201	0.111371	99
Es	-0.341730	1.168081	0.189579	99
Es	0.788624	1.454649	-0.511645	99
Es	-0.588281	-1.856657	0.227773	99
Es	-2.320883	-0.968502	0.489643	99
39
Properties=species:S:1:pos:R:3:Z:I:1 energy=-338.77050721632764 field_type=dipole dipole="0.000000 0.000000 0.000000" charge=0
N	-2.026542	-1.455810	0.722375	7
N	-0.748042	-1.532410	0.281995	7
C	-0.140432	-0.395450	0.111345	6
C	1.291388	-0.303630	-0.348425	6
C	1.432447	1.164880	-0.380355	6
C	0.282547	1.704710	-0.003955	6
O	-0.733702	0.828400	0.312915	8
H	-2.547802	-2.295900	0.472185	1
H	-2.527202	-0.643540	0.357365	1
H	1.406837	-0.752890	-1.337275	1
H	1.959177	-0.769070	0.379535	1
H	2.325078	1.703730	-0.659695	1
H	0.026248	2.746980	0.091995	1
Es	-2.341596	-1.968457	0.573742	99
Es	1.365274	-0.599921	-0.999209	99
Es	-1.396674	-1.474567	0.476801	99
Es	-0.748329	-1.531828	0.282092	99
Es	-0.403288	-1.034823	0.486603	99
Es	0.282215	1.704603	-0.003850	99
Es	-0.340679	1.167952	0.191945	99
Es	1.432519	1.164814	-0.380378	99
Es	-2.321088	-0.967744	0.491417	99
Es	-0.510161	0.358948	0.236186	99
Es	-2.026449	-1.455843	0.721661	99
Es	0.567809	-0.360999	-0.114602	99
Es	0.986152	1.446998	0.106225	99
Es	1.291308	-0.303576	-0.348400	99
Es	0.788664	1.454591	-0.511547	99
Es	0.104782	2.406836	0.062554	99
Es	-0.733088	0.828155	0.311906	99
Es	-1.029051	0.885429	0.415307	99
Es	1.408160	0.432984	-0.379906	99
Es	-0.140520	-0.395196	0.111370	99
Es	-0.581329	-1.027891	-0.074168	99
Es	1.727961	-0.609574	0.130325	99
Es	2.036092	1.527093	-0.569654	99
Es	-1.983743	-1.421302	0.998014	99
Es	-0.665418	0.798277	0.278145	99
Es	-0.588375	-1.856276	0.227864	99
39
Properties=species:S:1:pos:R:3:Z:I:1 energy=-338.77050721632764 field_type=dipole dipole="0.000000 0.000000 0.000000" charge=0
N	-2.026542	-1.455810	0.722375	7
N	-0.748042	-1.532410	0.281995	7
C	-0.140432	-0.395450	0.111345	6
C	1.291388	-0.303630	-0.348425	6
C	1.432447	1.164880	-0.380355	6
C	0.282547	1.704710	-0.003955	6
O	-0.733702	0.828400	0.312915	8
H	-2.547802	-2.295900	0.472185	1
H	-2.527202	-0.643540	0.357365	1
H	1.406837	-0.752890	-1.337275	1
H	1.959177	-0.769070	0.379535	1
H	2.325078	1.703730	-0.659695	1
H	0.026248	2.746980	0.091995	1
Es	-0.661317	0.797934	0.288922	99
Es	-1.983434	-1.421164	0.995233	99
Es	-0.588150	-1.855885	0.227044	99
Es	-2.321070	-0.967670	0.492289	99
Es	-0.140519	-0.395193	0.111375	99
Es	1.432519	1.164814	-0.380379	99
Es	0.567780	-0.361238	-0.114525	99
Es	-0.733199	0.828295	0.313049	99
Es	1.365711	-0.600340	-0.999157	99
Es	-0.510640	0.359321	0.233461	99
Es	-0.341386	1.167872	0.189728	99
Es	-2.026426	-1.455848	0.721605	99
Es	0.788943	1.454518	-0.511042	99
Es	1.291308	-0.303576	-0.348400	99
Es	-0.748342	-1.531854	0.282096	99
Es	-2.342133	-1.968804	0.575823	99
Es	-1.031830	0.885239	0.408322	99
Es	1.727376	-0.608985	0.130053	99
Es	1.408055	0.433024	-0.379886	99
Es	0.282216	1.704603	-0.003849	99
Es	-1.396563	-1.475046	0.476824	99
Es	2.036121	1.527186	-0.569954	99
Es	-0.581629	-1.027133	-0.073408	99
Es	0.104874	2.406895	0.062645	99
Es	-0.403192	-1.035280	0.486675	99
Es	0.986071	1.446998	0.105899	99
39
Properties=species:S:1:pos:R:3:Z:I:1 energy=-338.77050721632764 field_type=dipole dipole="0.000000 0.000000 0.000000" charge=0
N	-2.026542	-1.455810	0.722375	7
N	-0.748042	-1.532410	0.281995	7
C	-0.140432	-0.395450	0.111345	6
C	1.291388	-0.303630	-0.348425	6
C	1.432447	1.164880	-0.380355	6
C	0.282547	1.704710	-0.003955	6
O	-0.733702	0.828400	0.312915	8
H	-2.547802	-2.295900	0.472185	1
H	-2.527202	-0.643540	0.357365	1
H	1.406837	-0.752890	-1.337275	1
H	1.959177	-0.769070	0.379535	1
H	2.325078	1.703730	-0.659695	1
H	0.026248	2.746980	0.091995	1
Es	-0.733286	0.828309	0.312775	99
Es	-0.140521	-0.395196	0.111366	99
Es	0.788798	1.454604	-0.510828	99
Es	-1.396434	-1.474690	0.477086	99
Es	1.727391	-0.609233	0.129739	99
Es	-1.983209	-1.421668	0.992132	99
Es	1.432518	1.164815	-0.380378	99
Es	-0.402964	-1.035553	0.486774	99
Es	-0.588586	-1.855732	0.227280	99
Es	-2.342249	-1.969143	0.577138	99
Es	0.104869	2.406847	0.062520	99
Es	2.036223	1.527394	-0.569668	99
Es	-2.026427	-1.455847	0.721601	99
Es	-0.748324	-1.531830	0.282087	99
Es	-0.510322	0.359623	0.234400	99
Es	-0.581435	-1.027216	-0.073649	99
Es	-0.340825	1.168135	0.191594	99
Es	0.567648	-0.361371	-0.114529	99
Es	-0.664851	0.798067	0.278240	99
Es	0.282217	1.704603	-0.003848	99
Es	-1.029108	0.884484	0.416402	99
Es	0.986218	1.446714	0.105698	99
Es	1.365566	-0.599985	-0.998710	99
Es	1.408364	0.433091	-0.380040	99
Es	1.291308	-0.303576	-0.348400	99
Es	-2.321431	-0.966963	0.493658	99
