39
Properties=species:S:1:pos:R:3:Z:I:1 energy=-338.7124578093745 field_type=dipole dipole="0.000000 0.000000 0.000000" charge=0
N	-2.494666	-0.620292	-0.313313	7
N	-1.170816	-0.657792	-0.588623	7
C	-0.432436	-0.449362	0.461307	6
C	1.085334	-0.425362	0.360267	6
O	1.530354	-1.089822	-0.812733	8
C	1.567344	0.935808	0.360267	6
C	1.964634	2.057709	0.360267	6
H	-3.013356	-1.036992	-1.092743	1
H	-2.829296	0.347368	-0.281613	1
H	-0.864146	-0.249642	1.459627	1
H	1.478854	-0.973062	1.222377	1
H	0.849274	-0.897902	-1.486383	1
H	2.328914	3.059338	0.351297	1
Es	1.529994	-1.089672	-0.812675	99
Es	2.200614	2.711139	0.355371	99
Es	-0.715775	-0.309630	1.134929	99
Es	-0.860831	-0.278743	-0.191485	99
Es	-0.432360	-0.449305	0.461296	99
Es	1.964716	2.057954	0.360270	99
Es	2.100996	1.385837	0.398415	99
Es	1.567249	0.935558	0.360276	99
Es	1.345127	-0.774234	0.943412	99
Es	-2.668637	-0.035906	-0.304120	99
Es	1.562490	1.563255	0.656827	99
Es	1.171106	-0.971955	-1.157087	99
Es	-1.171010	-0.657656	-0.588068	99
Es	-0.840164	-0.842698	-0.056516	99
Es	-1.831794	-0.619829	-0.454118	99
Es	-2.552536	-0.784539	-0.007352	99
Es	-2.494498	-0.619998	-0.313832	99
Es	1.502969	-1.385065	-0.745334	99
Es	-2.796773	-0.859364	-0.794959	99
Es	1.620718	1.549941	0.035781	99
Es	1.085350	-0.425335	0.360076	99
Es	1.794659	-0.956632	-0.890480	99
Es	1.340091	-0.812177	-0.364953	99
Es	-1.039569	-0.740937	-0.936725	99
Es	0.325561	-0.422656	0.405223	99
Es	1.322148	0.285636	0.368484	99
39
Properties=species:S:1:pos:R:3:Z:I:1 energy=-338.7124578093745 field_type=dipole dipole="0.000000 0.000000 0.000000" charge=0
N	-2.494666	-0.620292	-0.313313	7
N	-1.170816	-0.657792	-0.588623	7
C	-0.432436	-0.449362	0.461307	6
C	1.085334	-0.425362	0.360267	6
O	1.530354	-1.089822	-0.812733	8
C	1.567344	0.935808	0.360267	6
C	1.964634	2.057709	0.360267	6
H	-3.013356	-1.036992	-1.092743	1
H	-2.829296	0.347368	-0.281613	1
H	-0.864146	-0.249642	1.459627	1
H	1.478854	-0.973062	1.222377	1
H	0.849274	-0.897902	-1.486383	1
H	2.328914	3.059338	0.351297	1
Es	1.085349	-0.425333	0.360077	99
Es	-0.432364	-0.449308	0.461289	99
Es	2.096856	1.387801	0.431942	99
Es	2.202660	2.711384	0.359125	99
Es	-2.800579	-0.865981	-0.794322	99
Es	0.326016	-0.421609	0.405811	99
Es	1.567225	0.935559	0.360263	99
Es	-0.715029	-0.308135	1.133076	99
Es	1.345846	-0.806052	-0.368524	99
Es	1.964716	2.057958	0.360266	99
Es	-2.494477	-0.619973	-0.313884	99
Es	1.628910	1.547131	0.025424	99
Es	-1.832919	-0.622958	-0.455588	99
Es	-2.667651	-0.035839	-0.303439	99
Es	1.506623	-1.387108	-0.738261	99
Es	-0.857849	-0.270375	-0.195812	99
Es	-1.042574	-0.746011	-0.928788	99
Es	1.320903	0.286895	0.366871	99
Es	-0.840394	-0.846370	-0.054807	99
Es	1.788949	-0.957616	-0.892624	99
Es	1.344375	-0.775047	0.942629	99
Es	1.530072	-1.089638	-0.812697	99
Es	-2.548913	-0.777879	-0.011489	99
Es	-1.171025	-0.657663	-0.588074	99
Es	1.558482	1.564062	0.631827	99
Es	1.166635	-0.974906	-1.157637	99
39
Properties=species:S:1:pos:R:3:Z:I:1 energy=-338.7124578093745 field_type=dipole dipole="0.000000 0.000000 0.000000" charge=0
N	-2.494666	-0.620292	-0.313313	7
N	-1.170816	-0.657792	-0.588623	7
C	-0.432436	-0.449362	0.461307	6
C	1.085334	-0.425362	0.360267	6
O	1.530354	-1.089822	-0.812733	8
C	1.567344	0.935808	0.360267	6
C	1.964634	2.057709	0.360267	6
H	-3.013356	-1.036992	-1.092743	1
H	-2.829296	0.347368	-0.281613	1
H	-0.864146	-0.249642	1.459627	1
H	1.478854	-0.973062	1.222377	1
H	0.849274	-0.897902	-1.486383	1
H	2.328914	3.059338	0.351297	1
Es	-2.666375	-0.035827	-0.303909	99
Es	1.964718	2.057960	0.360273	99
Es	-2.494494	-0.619964	-0.313869	99
Es	0.326343	-0.421088	0.406211	99
Es	-1.171021	-0.657653	-0.588055	99
Es	1.567240	0.935552	0.360275	99
Es	1.530106	-1.089701	-0.812702	99
Es	-0.856559	-0.266381	-0.198661	99
Es	-1.043504	-0.748692	-0.923109	99
Es	2.079392	1.395098	0.508273	99
Es	-1.834170	-0.625273	-0.457597	99
Es	1.526600	1.577393	0.572857	99
Es	1.319798	0.287804	0.365843	99
Es	-2.802657	-0.869436	-0.793391	99
Es	1.163795	-0.977739	-1.157580	99
Es	1.085349	-0.425333	0.360079	99
Es	1.678955	1.526276	0.007739	99
Es	2.203492	2.711458	0.360491	99
Es	-2.547181	-0.774192	-0.013393	99
Es	-0.840798	-0.847449	-0.053421	99
Es	1.783794	-0.957691	-0.894239	99
Es	1.510442	-1.388157	-0.733723	99
Es	-0.432360	-0.449304	0.461295	99
Es	1.344071	-0.775337	0.942098	99
Es	1.349569	-0.801904	-0.370873	99
Es	-0.714703	-0.307433	1.131742	99
39
Properties=species:S:1:pos:R:3:Z:I:1 energy=-338.7124578093745 field_type=dipole dipole="0.000000 0.000000 0.000000" charge=0
N	-2.494666	-0.620292	-0.313313	7
N	-1.170816	-0.657792	-0.588623	7
C	-0.432436	-0.449362	0.461307	6
C	1.085334	-0.425362	0.360267	6
O	1.530354	-1.089822	-0.812733	8
C	1.567344	0.935808	0.360267	6
C	1.964634	2.057709	0.360267	6
H	-3.013356	-1.036992	-1.092743	1
H	-2.829296	0.347368	-0.281613	1
H	-0.864146	-0.249642	1.459627	1
H	1.478854	-0.973062	1.222377	1
H	0.849274	-0.897902	-1.486383	1
H	2.328914	3.059338	0.351297	1
Es	1.530011	-1.089614	-0.812687	99
Es	2.204716	2.711139	0.361975	99
Es	-1.835240	-0.626377	-0.459440	99
Es	-0.714577	-0.306857	1.130991	99
Es	1.162619	-0.979387	-1.157838	99
Es	1.343719	-0.775587	0.941590	99
Es	1.510704	-1.387558	-0.730910	99
Es	1.964721	2.057964	0.360286	99
Es	-2.665940	-0.035863	-0.303727	99
Es	-0.840926	-0.848068	-0.052806	99
Es	1.567241	0.935550	0.360272	99
Es	1.782336	-0.959485	-0.895128	99
Es	-2.545201	-0.772011	-0.014961	99
Es	0.326576	-0.420520	0.406488	99
Es	1.085349	-0.425333	0.360076	99
Es	-2.804012	-0.872195	-0.792463	99
Es	-0.856253	-0.264564	-0.199703	99
Es	1.351700	-0.799052	-0.372358	99
Es	1.656062	1.536011	0.011251	99
Es	1.319428	0.288448	0.365532	99
Es	2.081496	1.393830	0.503795	99
Es	-1.043663	-0.749695	-0.919879	99
Es	-2.494486	-0.619990	-0.313856	99
Es	-1.171024	-0.657654	-0.588050	99
Es	-0.432358	-0.449295	0.461294	99
Es	1.546843	1.569153	0.572911	99
39
Properties=species:S:1:pos:R:3:Z:I:1 energy=-338.7124578093745 field_type=dipole dipole="0.000000 0.000000 0.000000" charge=0
N	-2.494666	-0.620292	-0.313313	7
N	-1.170816	-0.657792	-0.588623	7
C	-0.432436	-0.449362	0.461307	6
C	1.085334	-0.425362	0.360267	6
O	1.530354	-1.089822	-0.812733	8
C	1.567344	0.935808	0.360267	6
C	1.964634	2.057709	0.360267	6
H	-3.013356	-1.036992	-1.092743	1
H	-2.829296	0.347368	-0.281613	1
H	-0.864146	-0.249642	1.459627	1
H	1.478854	-0.973062	1.222377	1
H	0.849274	-0.897902	-1.486383	1
H	2.328914	3.059338	0.351297	1
Es	1.161550	-0.980208	-1.157334	99
Es	1.530117	-1.089662	-0.812695	99
Es	-2.665439	-0.036104	-0.304007	99
Es	-0.855703	-0.263430	-0.200960	99
Es	1.964716	2.057963	0.360276	99
Es	0.326594	-0.420012	0.406735	99
Es	1.779446	-0.961516	-0.896441	99
Es	-1.836343	-0.627151	-0.461716	99
Es	-2.544109	-0.770851	-0.015304	99
Es	1.653440	1.537110	0.010903	99
Es	1.354916	-0.796210	-0.372439	99
Es	-0.714633	-0.306392	1.130256	99
Es	2.205459	2.710934	0.362513	99
Es	1.085345	-0.425333	0.360082	99
Es	-2.804808	-0.873688	-0.791892	99
Es	-0.432358	-0.449299	0.461295	99
Es	-1.171014	-0.657655	-0.588064	99
Es	1.567239	0.935546	0.360269	99
Es	1.511276	-1.387486	-0.729758	99
Es	1.553677	1.566711	0.560540	99
Es	2.077055	1.395231	0.516598	99
Es	1.343360	-0.775591	0.941125	99
Es	1.319324	0.288859	0.365183	99
Es	-0.841300	-0.847827	-0.052161	99
Es	-1.043485	-0.750976	-0.916475	99
Es	-2.494479	-0.619977	-0.313875	99
39
Properties=species:S:1:pos:R:3:Z:I:1 energy=-338.7124578093745 field_type=dipole dipole="0.000000 0.000000 0.000000" charge=0
N	-2.494666	-0.620292	-0.313313	7
N	-1.170816	-0.657792	-0.588623	7
C	-0.432436	-0.449362	0.461307	6
C	1.085334	-0.425362	0.360267	6
O	1.530354	-1.089822	-0.812733	8
C	1.567344	0.935808	0.360267	6
C	1.964634	2.057709	0.360267	6
H	-3.013356	-1.036992	-1.092743	1
H	-2.829296	0.347368	-0.281613	1
H	-0.864146	-0.249642	1.459627	1
H	1.478854	-0.973062	1.222377	1
H	0.849274	-0.897902	-1.486383	1
H	2.328914	3.059338	0.351297	1
Es	1.160630	-0.981395	-1.156726	99
Es	1.343129	-0.775676	0.940762	99
Es	-0.855497	-0.262442	-0.201916	99
Es	-1.836309	-0.628828	-0.461728	99
Es	-0.432359	-0.449286	0.461296	99
Es	-2.665098	-0.035909	-0.304139	99
Es	1.318995	0.289289	0.364942	99
Es	1.656470	1.535864	0.009547	99
Es	1.964721	2.057965	0.360270	99
Es	2.070775	1.397317	0.531884	99
Es	-2.805375	-0.874968	-0.791189	99
Es	1.511436	-1.386937	-0.728758	99
Es	1.557009	1.565875	0.546617	99
Es	1.085349	-0.425332	0.360076	99
Es	-2.494488	-0.619970	-0.313857	99
Es	-2.543933	-0.769149	-0.016878	99
Es	-0.714510	-0.306167	1.129875	99
Es	-1.043599	-0.751866	-0.914577	99
Es	0.326596	-0.419816	0.406808	99
Es	1.778533	-0.962346	-0.897550	99
Es	2.205979	2.710759	0.362907	99
Es	1.567237	0.935549	0.360271	99
Es	-1.171012	-0.657650	-0.588049	99
Es	-0.841392	-0.847544	-0.051807	99
Es	1.356444	-0.794681	-0.372719	99
Es	1.530111	-1.089667	-0.812709	99
39
Properties=species:S:1:pos:R:3:Z:I:1 energy=-338.7124578093745 field_type=dipole dipole="0.000000 0.000000 0.000000" charge=0
N	-2.494666	-0.620292	-0.313313	7
N	-1.170816	-0.657792	-0.588623	7
C	-0.432436	-0.449362	0.461307	6
C	1.085334	-0.425362	0.360267	6
O	1.530354	-1.089822	-0.812733	8
C	1.567344	0.935808	0.360267	6
C	1.964634	2.057709	0.360267	6
H	-3.013356	-1.036992	-1.092743	1
H	-2.829296	0.347368	-0.281613	1
H	-0.864146	-0.249642	1.459627	1
H	1.478854	-0.973062	1.222377	1
H	0.849274	-0.897902	-1.486383	1
H	2.328914	3.059338	0.351297	1
Es	-0.855440	-0.262213	-0.202111	99
Es	-0.841579	-0.847570	-0.051478	99
Es	-1.043455	-0.752104	-0.912977	99
Es	1.085349	-0.425333	0.360078	99
Es	-1.171010	-0.657651	-0.588052	99
Es	-1.837146	-0.629228	-0.463445	99
Es	-2.542799	-0.768540	-0.017150	99
Es	-2.664642	-0.035830	-0.304286	99
Es	1.530064	-1.089649	-0.812703	99
Es	1.649749	1.538655	0.011320	99
Es	0.326691	-0.419462	0.407038	99
Es	1.512183	-1.386294	-0.728190	99
Es	-2.806036	-0.876105	-0.790501	99
Es	1.357949	-0.793295	-0.372779	99
Es	1.342961	-0.775653	0.940355	99
Es	1.564161	1.563042	0.543784	99
Es	1.776884	-0.963471	-0.897943	99
Es	1.159882	-0.982314	-1.156792	99
Es	2.070066	1.397466	0.532687	99
Es	1.318934	0.289569	0.364898	99
Es	1.964713	2.057968	0.360290	99
Es	-2.494473	-0.619986	-0.313864	99
Es	-0.714608	-0.305848	1.129533	99
Es	2.206566	2.710568	0.363378	99
Es	1.567235	0.935551	0.360272	99
Es	-0.432358	-0.449287	0.461292	99
39
Properties=species:S:1:pos:R:3:Z:I:1 energy=-338.7124578093745 field_type=dipole dipole="0.000000 0.000000 0.000000" charge=0
N	-2.494666	-0.620292	-0.313313	7
N	-1.170816	-0.657792	-0.588623	7
C	-0.432436	-0.449362	0.461307	6
C	1.085334	-0.425362	0.360267	6
O	1.530354	-1.089822	-0.812733	8
C	1.567344	0.935808	0.360267	6
C	1.964634	2.057709	0.360267	6
H	-3.013356	-1.036992	-1.092743	1
H	-2.829296	0.347368	-0.281613	1
H	-0.864146	-0.249642	1.459627	1
H	1.478854	-0.973062	1.222377	1
H	0.849274	-0.897902	-1.486383	1
H	2.328914	3.059338	0.351297	1
Es	1.158946	-0.984375	-1.156347	99
Es	1.342760	-0.775302	0.939678	99
Es	1.085350	-0.425333	0.360075	99
Es	1.474153	1.611106	0.158030	99
Es	0.326390	-0.419340	0.407304	99
Es	1.964727	2.057962	0.360271	99
Es	-1.836827	-0.629553	-0.464292	99
Es	1.356890	-0.793802	-0.373776	99
Es	-2.665434	-0.036139	-0.303355	99
Es	1.781623	-0.963755	-0.898944	99
Es	1.852235	1.467178	0.715949	99
Es	1.319807	0.289471	0.363926	99
Es	-1.171016	-0.657648	-0.588043	99
Es	-2.494470	-0.619976	-0.313888	99
Es	1.955011	1.421889	0.215740	99
Es	1.509605	-1.383433	-0.726426	99
Es	-2.541894	-0.767117	-0.019177	99
Es	-0.841872	-0.847299	-0.051440	99
Es	-0.432359	-0.449289	0.461292	99
Es	-2.806829	-0.877550	-0.789334	99
Es	-1.043481	-0.752575	-0.911239	99
Es	-0.714653	-0.305363	1.128861	99
Es	2.208813	2.709627	0.362751	99
Es	1.530051	-1.089662	-0.812702	99
Es	1.567236	0.935547	0.360272	99
Es	-0.854922	-0.262281	-0.202533	99
39
Properties=species:S:1:pos:R:3:Z:I:1 energy=-338.7124578093745 field_type=dipole dipole="0.000000 0.000000 0.000000" charge=0
N	-2.494666	-0.620292	-0.313313	7
N	-1.170816	-0.657792	-0.588623	7
C	-0.432436	-0.449362	0.461307	6
C	1.085334	-0.425362	0.360267	6
O	1.530354	-1.089822	-0.812733	8
C	1.567344	0.935808	0.360267	6
C	1.964634	2.057709	0.360267	6
H	-3.013356	-1.036992	-1.092743	1
H	-2.829296	0.347368	-0.281613	1
H	-0.864146	-0.249642	1.459627	1
H	1.478854	-0.973062	1.222377	1
H	0.849274	-0.897902	-1.486383	1
H	2.328914	3.059338	0.351297	1
Es	-2.664768	-0.035868	-0.303964	99
Es	-1.171041	-0.657666	-0.588077	99
Es	-1.043466	-0.752819	-0.909811	99
Es	1.655284	1.536334	0.009470	99
Es	-2.541663	-0.767311	-0.018484	99
Es	-0.714623	-0.305388	1.128686	99
Es	1.511856	-1.385267	-0.726603	99
Es	0.326655	-0.419225	0.407338	99
Es	1.530050	-1.089574	-0.812696	99
Es	1.359984	-0.791104	-0.373513	99
Es	2.060232	1.400729	0.552809	99
Es	1.776279	-0.964959	-0.899375	99
Es	1.568429	1.562139	0.525574	99
Es	1.318856	0.289920	0.364856	99
Es	1.964710	2.057967	0.360265	99
Es	1.567236	0.935549	0.360267	99
Es	-2.806752	-0.877700	-0.789456	99
Es	-0.841940	-0.847432	-0.050998	99
Es	2.207086	2.710383	0.363723	99
Es	-0.854947	-0.261547	-0.203149	99
Es	1.158841	-0.984088	-1.155981	99
Es	1.342623	-0.775510	0.939748	99
Es	-0.432358	-0.449284	0.461291	99
Es	-2.494475	-0.619976	-0.313864	99
Es	-1.837596	-0.629983	-0.465482	99
Es	1.085350	-0.425332	0.360079	99
39
Properties=species:S:1:pos:R:3:Z:I:1 energy=-338.7124578093745 field_type=dipole dipole="0.000000 0.000000 0.000000" charge=0
N	-2.494666	-0.620292	-0.313313	7
N	-1.170816	-0.657792	-0.588623	7
C	-0.432436	-0.449362	0.461307	6
C	1.085334	-0.425362	0.360267	6
O	1.530354	-1.089822	-0.812733	8
C	1.567344	0.935808	0.360267	6
C	1.964634	2.057709	0.360267	6
H	-3.013356	-1.036992	-1.092743	1
H	-2.829296	0.347368	-0.281613	1
H	-0.864146	-0.249642	1.459627	1
H	1.478854	-0.973062	1.222377	1
H	0.849274	-0.897902	-1.486383	1
H	2.328914	3.059338	0.351297	1
Es	1.964730	2.057964	0.360277	99
Es	1.359680	-0.791126	-0.373929	99
Es	1.779642	-0.965775	-0.900319	99
Es	1.567233	0.935552	0.360264	99
Es	-0.842194	-0.846417	-0.051076	99
Es	1.085350	-0.425332	0.360075	99
Es	-1.836902	-0.630328	-0.464846	99
Es	-2.665278	-0.036290	-0.303495	99
Es	0.326357	-0.419155	0.407525	99
Es	-0.854446	-0.261694	-0.203780	99
Es	-0.432359	-0.449288	0.461292	99
Es	1.478691	1.609209	0.150305	99
Es	1.509548	-1.382766	-0.725445	99
Es	-2.494478	-0.619979	-0.313873	99
Es	-0.714736	-0.305092	1.128361	99
Es	1.319629	0.289848	0.364132	99
Es	1.944831	1.425564	0.224517	99
Es	1.530093	-1.089656	-0.812684	99
Es	-1.171006	-0.657650	-0.588050	99
Es	-2.807328	-0.878673	-0.788634	99
Es	2.209300	2.709446	0.363120	99
Es	-1.043540	-0.754043	-0.909121	99
Es	1.158185	-0.985693	-1.155653	99
Es	-2.541528	-0.765861	-0.020074	99
Es	1.342440	-0.775163	0.939112	99
Es	1.857925	1.465384	0.714653	99
39
Properties=species:S:1:pos:R:3:Z:I:1 energy=-338.7124578093745 field_type=dipole dipole="0.000000 0.000000 0.000000" charge=0
N	-2.494666	-0.620292	-0.313313	7
N	-1.170816	-0.657792	-0.588623	7
C	-0.432436	-0.449362	0.461307	6
C	1.085334	-0.425362	0.360267	6
O	1.530354	-1.089822	-0.812733	8
C	1.567344	0.935808	0.360267	6
C	1.964634	2.057709	0.360267	6
H	-3.013356	-1.036992	-1.092743	1
H	-2.829296	0.347368	-0.281613	1
H	-0.864146	-0.249642	1.459627	1
H	1.478854	-0.973062	1.222377	1
H	0.849274	-0.897902	-1.486383	1
H	2.328914	3.059338	0.351297	1
Es	-0.854637	-0.261525	-0.203758	99
Es	0.326300	-0.419034	0.407448	99
Es	-0.432360	-0.449290	0.461292	99
Es	-2.807548	-0.879060	-0.788449	99
Es	-0.842261	-0.846269	-0.050923	99
Es	1.530175	-1.089710	-0.812728	99
Es	1.157610	-0.985832	-1.155070	99
Es	1.085347	-0.425332	0.360081	99
Es	2.209603	2.709305	0.363243	99
Es	-1.837215	-0.630792	-0.465645	99
Es	1.860480	1.464582	0.713748	99
Es	1.778707	-0.966271	-0.900955	99
Es	1.342369	-0.775207	0.938928	99
Es	-2.541092	-0.765665	-0.020340	99
Es	1.964731	2.057961	0.360271	99
Es	-1.171011	-0.657646	-0.588033	99
Es	1.509668	-1.382687	-0.725427	99
Es	1.567235	0.935548	0.360267	99
Es	-1.043358	-0.754060	-0.908382	99
Es	-2.494479	-0.619986	-0.313864	99
Es	1.360922	-0.790418	-0.373787	99
Es	-2.665055	-0.036238	-0.303434	99
Es	-0.714708	-0.305011	1.128316	99
Es	1.942178	1.426432	0.225468	99
Es	1.319496	0.290013	0.364055	99
Es	1.478744	1.609180	0.150333	99
39
Properties=species:S:1:pos:R:3:Z:I:1 energy=-338.7124578093745 field_type=dipole dipole="0.000000 0.000000 0.000000" charge=0
N	-2.494666	-0.620292	-0.313313	7
N	-1.170816	-0.657792	-0.588623	7
C	-0.432436	-0.449362	0.461307	6
C	1.085334	-0.425362	0.360267	6
O	1.530354	-1.089822	-0.812733	8
C	1.567344	0.935808	0.360267	6
C	1.964634	2.057709	0.360267	6
H	-3.013356	-1.036992	-1.092743	1
H	-2.829296	0.347368	-0.281613	1
H	-0.864146	-0.249642	1.459627	1
H	1.478854	-0.973062	1.222377	1
H	0.849274	-0.897902	-1.486383	1
H	2.328914	3.059338	0.351297	1
Es	1.158509	-0.984692	-1.156283	99
Es	-1.043613	-0.753678	-0.907424	99
Es	1.342243	-0.775408	0.939038	99
Es	2.055453	1.402259	0.560347	99
Es	-2.494476	-0.619988	-0.313864	99
Es	1.085350	-0.425333	0.360077	99
Es	2.207902	2.710065	0.364126	99
Es	0.326509	-0.418883	0.407529	99
Es	1.509487	-1.383804	-0.724527	99
Es	-2.664581	-0.035921	-0.303868	99
Es	1.964733	2.057963	0.360270	99
Es	-0.432359	-0.449289	0.461293	99
Es	1.530113	-1.089685	-0.812710	99
Es	1.575813	1.559539	0.517195	99
Es	1.318853	0.290316	0.364990	99
Es	1.567237	0.935548	0.360258	99
Es	-0.854727	-0.260889	-0.204179	99
Es	-2.540625	-0.766640	-0.019237	99
Es	-2.807293	-0.878837	-0.788764	99
Es	-0.842092	-0.846951	-0.050597	99
Es	1.364475	-0.786995	-0.374540	99
Es	1.652350	1.537517	0.010200	99
Es	-0.714669	-0.305111	1.128044	99
Es	1.774425	-0.969715	-0.899819	99
Es	-1.171024	-0.657654	-0.588060	99
Es	-1.838154	-0.630746	-0.466841	99
39
Properties=species:S:1:pos:R:3:Z:I:1 energy=-338.7124578093745 field_type=dipole dipole="0.000000 0.000000 0.000000" charge=0
N	-2.494666	-0.620292	-0.313313	7
N	-1.170816	-0.657792	-0.588623	7
C	-0.432436	-0.449362	0.461307	6
C	1.085334	-0.425362	0.360267	6
O	1.530354	-1.089822	-0.812733	8
C	1.567344	0.935808	0.360267	6
C	1.964634	2.057709	0.360267	6
H	-3.013356	-1.036992	-1.092743	1
H	-2.829296	0.347368	-0.281613	1
H	-0.864146	-0.249642	1.459627	1
H	1.478854	-0.973062	1.222377	1
H	0.849274	-0.897902	-1.486383	1
H	2.328914	3.059338	0.351297	1
Es	1.363123	-0.787956	-0.374096	99
Es	1.530080	-1.089551	-0.812710	99
Es	-0.842176	-0.846891	-0.050617	99
Es	-0.432359	-0.449289	0.461291	99
Es	-1.171034	-0.657661	-0.588070	99
Es	2.054364	1.402574	0.562256	99
Es	-2.807642	-0.879279	-0.788413	99
Es	1.964727	2.057963	0.360270	99
Es	2.208124	2.709961	0.364246	99
Es	1.158475	-0.984959	-1.155831	99
Es	1.510500	-1.384259	-0.725182	99
Es	-1.043471	-0.753744	-0.906932	99
Es	-0.714708	-0.304846	1.128057	99
Es	-2.540332	-0.766133	-0.019762	99
Es	1.085349	-0.425332	0.360077	99
Es	0.326494	-0.418779	0.407627	99
Es	-0.854719	-0.260977	-0.204012	99
Es	1.342219	-0.775337	0.938837	99
Es	1.774702	-0.968222	-0.900119	99
Es	-1.838220	-0.631229	-0.467285	99
Es	-2.494481	-0.619985	-0.313860	99
Es	-2.664370	-0.035874	-0.303777	99
Es	1.318782	0.290461	0.364896	99
Es	1.649025	1.538894	0.011205	99
Es	1.567223	0.935551	0.360271	99
Es	1.580166	1.557885	0.514285	99
