39
Properties=species:S:1:pos:R:3:Z:I:1 energy=-338.7168371522243 field_type=dipole dipole="0.000000 0.000000 0.000000" charge=0
N	-2.977689	0.300865	-0.034931	7
N	-1.627549	0.400525	-0.032441	7
C	-1.037249	-0.739205	0.108849	6
O	0.306131	-0.891355	0.134879	8
C	1.065531	0.317435	0.008219	6
C	2.494441	-0.008755	0.101459	6
C	3.663101	-0.274015	0.181079	6
H	-3.380819	1.214585	0.192719	1
H	-3.316239	0.115825	-0.984211	1
H	-1.538279	-1.714735	0.223149	1
H	0.794070	1.012565	0.810749	1
H	0.855800	0.780385	-0.963861	1
H	4.698750	-0.514125	0.254339	1
Es	2.494169	-0.008689	0.101435	99
Es	-3.157896	0.197226	-0.612697	99
Es	3.038166	-0.273687	0.471069	99
Es	0.305894	-0.890954	0.134958	99
Es	-1.450148	0.726691	-0.054634	99
Es	-3.207465	0.858723	0.089406	99
Es	1.807006	0.136549	0.057292	99
Es	-1.395488	-0.096213	-0.274009	99
Es	4.337937	-0.428713	0.228068	99
Es	3.061937	-0.354503	-0.146608	99
Es	0.338378	-1.054476	-0.102743	99
Es	-1.036941	-0.739241	0.108814	99
Es	0.564957	-0.421541	0.085438	99
Es	0.939052	0.622983	-0.641408	99
Es	-0.202449	-0.780080	0.115648	99
Es	-3.094221	0.041916	0.190725	99
Es	-1.393639	-0.048786	0.310300	99
Es	0.330137	-0.995679	0.403737	99
Es	3.663327	-0.274054	0.181091	99
Es	-2.977434	0.301320	-0.035351	99
Es	-1.627816	0.399973	-0.032394	99
Es	1.065553	0.317140	0.008255	99
Es	0.898434	0.777228	0.546006	99
Es	-1.373073	-1.391928	0.181171	99
Es	3.146614	0.214289	0.097599	99
Es	-2.300120	0.344156	-0.046687	99
39
Properties=species:S:1:pos:R:3:Z:I:1 energy=-338.7168371522243 field_type=dipole dipole="0.000000 0.000000 0.000000" charge=0
N	-2.977689	0.300865	-0.034931	7
N	-1.627549	0.400525	-0.032441	7
C	-1.037249	-0.739205	0.108849	6
O	0.306131	-0.891355	0.134879	8
C	1.065531	0.317435	0.008219	6
C	2.494441	-0.008755	0.101459	6
C	3.663101	-0.274015	0.181079	6
H	-3.380819	1.214585	0.192719	1
H	-3.316239	0.115825	-0.984211	1
H	-1.538279	-1.714735	0.223149	1
H	0.794070	1.012565	0.810749	1
H	0.855800	0.780385	-0.963861	1
H	4.698750	-0.514125	0.254339	1
Es	0.897142	0.775209	0.543296	99
Es	-3.093631	0.048231	0.180047	99
Es	-2.299740	0.344801	-0.043867	99
Es	-1.627832	0.399961	-0.032398	99
Es	3.040863	-0.262910	0.468748	99
Es	-2.977439	0.301306	-0.035351	99
Es	-1.372529	-1.390470	0.181537	99
Es	4.339086	-0.432207	0.229648	99
Es	1.809931	0.139904	0.056603	99
Es	3.058628	-0.359475	-0.133336	99
Es	1.065551	0.317141	0.008254	99
Es	-1.394616	-0.094974	-0.274681	99
Es	-1.036935	-0.739247	0.108817	99
Es	-3.157801	0.195198	-0.608710	99
Es	3.147008	0.208396	0.086326	99
Es	0.305580	-0.890897	0.134454	99
Es	-1.451693	0.715885	-0.057948	99
Es	3.663345	-0.274061	0.181100	99
Es	-3.212229	0.859873	0.092052	99
Es	0.569530	-0.426701	0.076297	99
Es	0.426372	-1.157780	0.021042	99
Es	-1.390649	-0.045964	0.314549	99
Es	0.245040	-0.875929	0.330383	99
Es	0.936831	0.623235	-0.638987	99
Es	2.494161	-0.008679	0.101436	99
Es	-0.209105	-0.790200	0.075169	99
39
Properties=species:S:1:pos:R:3:Z:I:1 energy=-338.7168371522243 field_type=dipole dipole="0.000000 0.000000 0.000000" charge=0
N	-2.977689	0.300865	-0.034931	7
N	-1.627549	0.400525	-0.032441	7
C	-1.037249	-0.739205	0.108849	6
O	0.306131	-0.891355	0.134879	8
C	1.065531	0.317435	0.008219	6
C	2.494441	-0.008755	0.101459	6
C	3.663101	-0.274015	0.181079	6
H	-3.380819	1.214585	0.192719	1
H	-3.316239	0.115825	-0.984211	1
H	-1.538279	-1.714735	0.223149	1
H	0.794070	1.012565	0.810749	1
H	0.855800	0.780385	-0.963861	1
H	4.698750	-0.514125	0.254339	1
Es	0.568124	-0.425867	0.094434	99
Es	1.065553	0.317143	0.008255	99
Es	3.663346	-0.274066	0.181096	99
Es	-1.371963	-1.389450	0.181144	99
Es	3.068749	-0.332365	-0.153820	99
Es	-1.036934	-0.739247	0.108817	99
Es	0.449176	-1.171482	0.207594	99
Es	-1.390736	-0.092230	-0.280962	99
Es	3.033182	-0.289746	0.453658	99
Es	4.339445	-0.433044	0.229556	99
Es	-1.389717	-0.044677	0.316808	99
Es	-2.299498	0.345647	-0.041026	99
Es	-1.456326	0.707129	-0.053403	99
Es	0.936407	0.622097	-0.637588	99
Es	3.144415	0.207676	0.121633	99
Es	1.811046	0.140981	0.056697	99
Es	-1.627834	0.399948	-0.032392	99
Es	-2.977411	0.301347	-0.035373	99
Es	2.494156	-0.008675	0.101436	99
Es	-0.218169	-0.786944	0.121487	99
Es	-3.088899	0.056825	0.171845	99
Es	-3.159812	0.190117	-0.606743	99
Es	0.304795	-0.890381	0.135649	99
Es	0.896133	0.775370	0.542280	99
Es	0.233934	-0.866118	0.077866	99
Es	-3.216294	0.859663	0.095532	99
39
Properties=species:S:1:pos:R:3:Z:I:1 energy=-338.7168371522243 field_type=dipole dipole="0.000000 0.000000 0.000000" charge=0
N	-2.977689	0.300865	-0.034931	7
N	-1.627549	0.400525	-0.032441	7
C	-1.037249	-0.739205	0.108849	6
O	0.306131	-0.891355	0.134879	8
C	1.065531	0.317435	0.008219	6
C	2.494441	-0.008755	0.101459	6
C	3.663101	-0.274015	0.181079	6
H	-3.380819	1.214585	0.192719	1
H	-3.316239	0.115825	-0.984211	1
H	-1.538279	-1.714735	0.223149	1
H	0.794070	1.012565	0.810749	1
H	0.855800	0.780385	-0.963861	1
H	4.698750	-0.514125	0.254339	1
Es	0.454601	-1.173980	0.188774	99
Es	-1.387917	-0.043361	0.318984	99
Es	0.565307	-0.428252	0.089159	99
Es	0.305954	-0.891005	0.135042	99
Es	-1.371416	-1.388448	0.181559	99
Es	-1.390293	-0.090844	-0.282675	99
Es	-1.458846	0.701129	-0.054022	99
Es	1.811898	0.141648	0.056632	99
Es	-3.158808	0.189476	-0.603872	99
Es	3.061666	-0.350266	-0.137480	99
Es	0.230730	-0.860269	0.111039	99
Es	0.935458	0.622469	-0.636582	99
Es	-1.627808	0.399934	-0.032392	99
Es	-2.977425	0.301343	-0.035377	99
Es	-3.086984	0.060459	0.165261	99
Es	-3.219898	0.859341	0.097300	99
Es	1.065552	0.317142	0.008255	99
Es	3.039147	-0.270364	0.459370	99
Es	2.494156	-0.008671	0.101438	99
Es	0.896064	0.774024	0.541137	99
Es	3.663349	-0.274063	0.181095	99
Es	4.339651	-0.433530	0.229636	99
Es	-0.218522	-0.786709	0.113055	99
Es	-2.299275	0.345593	-0.039482	99
Es	3.145459	0.206102	0.099809	99
Es	-1.036931	-0.739248	0.108820	99
39
Properties=species:S:1:pos:R:3:Z:I:1 energy=-338.7168371522243 field_type=dipole dipole="0.000000 0.000000 0.000000" charge=0
N	-2.977689	0.300865	-0.034931	7
N	-1.627549	0.400525	-0.032441	7
C	-1.037249	-0.739205	0.108849	6
O	0.306131	-0.891355	0.134879	8
C	1.065531	0.317435	0.008219	6
C	2.494441	-0.008755	0.101459	6
C	3.663101	-0.274015	0.181079	6
H	-3.380819	1.214585	0.192719	1
H	-3.316239	0.115825	-0.984211	1
H	-1.538279	-1.714735	0.223149	1
H	0.794070	1.012565	0.810749	1
H	0.855800	0.780385	-0.963861	1
H	4.698750	-0.514125	0.254339	1
Es	3.035798	-0.282039	0.452534	99
Es	1.065552	0.317142	0.008253	99
Es	-1.036929	-0.739249	0.108817	99
Es	0.305837	-0.890903	0.135091	99
Es	2.494156	-0.008667	0.101439	99
Es	0.460763	-1.172766	0.184399	99
Es	-2.299186	0.345280	-0.038334	99
Es	4.339814	-0.433649	0.229699	99
Es	-3.084801	0.064911	0.161114	99
Es	0.559364	-0.430641	0.089678	99
Es	-1.371183	-1.387826	0.181978	99
Es	-2.977420	0.301320	-0.035353	99
Es	-1.627857	0.399924	-0.032393	99
Es	-1.385622	-0.043335	0.320022	99
Es	-3.222962	0.859458	0.096525	99
Es	3.064929	-0.340834	-0.138966	99
Es	3.145516	0.208327	0.108172	99
Es	-3.158215	0.186965	-0.600320	99
Es	-0.218599	-0.786469	0.109588	99
Es	-1.390429	-0.088319	-0.284171	99
Es	0.935249	0.622373	-0.635572	99
Es	-1.461096	0.696453	-0.053857	99
Es	3.663349	-0.274068	0.181098	99
Es	1.812416	0.141974	0.056841	99
Es	0.896001	0.773390	0.539840	99
Es	0.230425	-0.859104	0.118359	99
39
Properties=species:S:1:pos:R:3:Z:I:1 energy=-338.7168371522243 field_type=dipole dipole="0.000000 0.000000 0.000000" charge=0
N	-2.977689	0.300865	-0.034931	7
N	-1.627549	0.400525	-0.032441	7
C	-1.037249	-0.739205	0.108849	6
O	0.306131	-0.891355	0.134879	8
C	1.065531	0.317435	0.008219	6
C	2.494441	-0.008755	0.101459	6
C	3.663101	-0.274015	0.181079	6
H	-3.380819	1.214585	0.192719	1
H	-3.316239	0.115825	-0.984211	1
H	-1.538279	-1.714735	0.223149	1
H	0.794070	1.012565	0.810749	1
H	0.855800	0.780385	-0.963861	1
H	4.698750	-0.514125	0.254339	1
Es	1.065550	0.317140	0.008250	99
Es	0.230318	-0.859065	0.118738	99
Es	0.934871	0.622666	-0.634608	99
Es	4.339901	-0.433741	0.229770	99
Es	-1.370863	-1.387252	0.182158	99
Es	3.040715	-0.266548	0.456066	99
Es	3.059050	-0.355295	-0.125900	99
Es	-3.082606	0.068814	0.157523	99
Es	-1.390058	-0.086785	-0.285462	99
Es	2.494152	-0.008670	0.101434	99
Es	-1.627851	0.399923	-0.032394	99
Es	-3.157220	0.184798	-0.596049	99
Es	-3.226272	0.859238	0.095020	99
Es	-2.977416	0.301358	-0.035390	99
Es	0.555359	-0.433010	0.087680	99
Es	-1.384459	-0.042960	0.320713	99
Es	-2.299174	0.344872	-0.037657	99
Es	-1.036932	-0.739248	0.108818	99
Es	0.305885	-0.890931	0.134988	99
Es	3.146505	0.207367	0.091416	99
Es	-1.462915	0.692947	-0.053320	99
Es	0.896243	0.772531	0.539025	99
Es	0.464664	-1.170720	0.186216	99
Es	-0.218678	-0.785936	0.109458	99
Es	3.663350	-0.274068	0.181091	99
Es	1.812749	0.142224	0.056897	99
39
Properties=species:S:1:pos:R:3:Z:I:1 energy=-338.7168371522243 field_type=dipole dipole="0.000000 0.000000 0.000000" charge=0
N	-2.977689	0.300865	-0.034931	7
N	-1.627549	0.400525	-0.032441	7
C	-1.037249	-0.739205	0.108849	6
O	0.306131	-0.891355	0.134879	8
C	1.065531	0.317435	0.008219	6
C	2.494441	-0.008755	0.101459	6
C	3.663101	-0.274015	0.181079	6
H	-3.380819	1.214585	0.192719	1
H	-3.316239	0.115825	-0.984211	1
H	-1.538279	-1.714735	0.223149	1
H	0.794070	1.012565	0.810749	1
H	0.855800	0.780385	-0.963861	1
H	4.698750	-0.514125	0.254339	1
Es	-2.299141	0.344788	-0.037527	99
Es	-3.079658	0.073870	0.154710	99
Es	-2.977426	0.301349	-0.035385	99
Es	-3.156911	0.181215	-0.591147	99
Es	3.147580	0.207624	0.080145	99
Es	-1.370641	-1.386758	0.182373	99
Es	0.896556	0.771848	0.538260	99
Es	-1.464363	0.689854	-0.053462	99
Es	-0.218810	-0.785891	0.109186	99
Es	-1.383054	-0.042711	0.321407	99
Es	2.494152	-0.008666	0.101436	99
Es	0.934468	0.622803	-0.633890	99
Es	3.043715	-0.257574	0.456257	99
Es	-1.036928	-0.739248	0.108816	99
Es	-3.229559	0.858749	0.092581	99
Es	0.230063	-0.858402	0.122991	99
Es	3.663352	-0.274067	0.181095	99
Es	4.339996	-0.433659	0.229790	99
Es	-1.627816	0.400158	-0.032415	99
Es	0.550588	-0.435687	0.086287	99
Es	3.054981	-0.364454	-0.114770	99
Es	0.469592	-1.168506	0.184003	99
Es	1.065552	0.317141	0.008256	99
Es	-1.390307	-0.085429	-0.286039	99
Es	1.812977	0.142272	0.056727	99
Es	0.305911	-0.890970	0.134796	99
39
Properties=species:S:1:pos:R:3:Z:I:1 energy=-338.7168371522243 field_type=dipole dipole="0.000000 0.000000 0.000000" charge=0
N	-2.977689	0.300865	-0.034931	7
N	-1.627549	0.400525	-0.032441	7
C	-1.037249	-0.739205	0.108849	6
O	0.306131	-0.891355	0.134879	8
C	1.065531	0.317435	0.008219	6
C	2.494441	-0.008755	0.101459	6
C	3.663101	-0.274015	0.181079	6
H	-3.380819	1.214585	0.192719	1
H	-3.316239	0.115825	-0.984211	1
H	-1.538279	-1.714735	0.223149	1
H	0.794070	1.012565	0.810749	1
H	0.855800	0.780385	-0.963861	1
H	4.698750	-0.514125	0.254339	1
Es	3.663351	-0.274069	0.181092	99
Es	-1.390981	-0.082831	-0.286729	99
Es	-1.466092	0.687106	-0.053074	99
Es	-1.036928	-0.739245	0.108830	99
Es	4.340070	-0.433592	0.229679	99
Es	-1.627856	0.399913	-0.032394	99
Es	0.934307	0.623131	-0.633261	99
Es	0.230130	-0.858529	0.121551	99
Es	-3.078404	0.075642	0.151673	99
Es	1.065551	0.317139	0.008256	99
Es	-2.299191	0.344519	-0.036955	99
Es	3.050850	-0.374113	-0.105855	99
Es	-3.232854	0.857560	0.090458	99
Es	0.305870	-0.890969	0.134650	99
Es	2.494151	-0.008671	0.101436	99
Es	-3.154853	0.181486	-0.586472	99
Es	0.896907	0.771169	0.537621	99
Es	-1.370374	-1.386345	0.182424	99
Es	0.546608	-0.437664	0.087148	99
Es	-1.380898	-0.043326	0.321595	99
Es	1.813093	0.142345	0.056947	99
Es	-2.977407	0.301388	-0.035417	99
Es	3.047183	-0.247487	0.455471	99
Es	-0.218872	-0.785885	0.109059	99
Es	0.473264	-1.166231	0.184769	99
Es	3.148246	0.207209	0.071979	99
39
Properties=species:S:1:pos:R:3:Z:I:1 energy=-338.7168371522243 field_type=dipole dipole="0.000000 0.000000 0.000000" charge=0
N	-2.977689	0.300865	-0.034931	7
N	-1.627549	0.400525	-0.032441	7
C	-1.037249	-0.739205	0.108849	6
O	0.306131	-0.891355	0.134879	8
C	1.065531	0.317435	0.008219	6
C	2.494441	-0.008755	0.101459	6
C	3.663101	-0.274015	0.181079	6
H	-3.380819	1.214585	0.192719	1
H	-3.316239	0.115825	-0.984211	1
H	-1.538279	-1.714735	0.223149	1
H	0.794070	1.012565	0.810749	1
H	0.855800	0.780385	-0.963861	1
H	4.698750	-0.514125	0.254339	1
Es	-2.299140	0.344666	-0.037168	99
Es	2.494151	-0.008670	0.101435	99
Es	-3.235831	0.856113	0.087553	99
Es	0.230009	-0.858235	0.123202	99
Es	-1.627860	0.399914	-0.032390	99
Es	1.813176	0.142415	0.057049	99
Es	-1.391224	-0.081320	-0.287389	99
Es	0.897364	0.770590	0.536973	99
Es	0.540998	-0.441385	0.086071	99
Es	0.305866	-0.890900	0.135058	99
Es	-1.036926	-0.739247	0.108816	99
Es	0.934347	0.623424	-0.632539	99
Es	-1.467400	0.684994	-0.052726	99
Es	3.663349	-0.274074	0.181088	99
Es	4.340149	-0.433449	0.229612	99
Es	-3.153143	0.181473	-0.581700	99
Es	3.044836	-0.388234	-0.093511	99
Es	0.478384	-1.163066	0.184085	99
Es	-1.379585	-0.043375	0.321784	99
Es	3.148900	0.205448	0.060444	99
Es	-1.370150	-1.385965	0.182656	99
Es	1.065552	0.317141	0.008258	99
Es	-0.218874	-0.785581	0.108711	99
Es	3.052524	-0.231659	0.454625	99
Es	-2.977424	0.301360	-0.035406	99
Es	-3.077176	0.077271	0.149888	99
39
Properties=species:S:1:pos:R:3:Z:I:1 energy=-338.7168371522243 field_type=dipole dipole="0.000000 0.000000 0.000000" charge=0
N	-2.977689	0.300865	-0.034931	7
N	-1.627549	0.400525	-0.032441	7
C	-1.037249	-0.739205	0.108849	6
O	0.306131	-0.891355	0.134879	8
C	1.065531	0.317435	0.008219	6
C	2.494441	-0.008755	0.101459	6
C	3.663101	-0.274015	0.181079	6
H	-3.380819	1.214585	0.192719	1
H	-3.316239	0.115825	-0.984211	1
H	-1.538279	-1.714735	0.223149	1
H	0.794070	1.012565	0.810749	1
H	0.855800	0.780385	-0.963861	1
H	4.698750	-0.514125	0.254339	1
Es	-2.977452	0.301323	-0.035368	99
Es	0.305646	-0.890778	0.135425	99
Es	2.494150	-0.008671	0.101435	99
Es	1.813231	0.142402	0.057039	99
Es	3.663351	-0.274070	0.181097	99
Es	-1.391995	-0.079924	-0.287067	99
Es	-1.036927	-0.739252	0.108816	99
Es	3.149246	0.205844	0.058549	99
Es	-1.370002	-1.385727	0.182645	99
Es	0.230248	-0.858496	0.121447	99
Es	-1.377958	-0.043416	0.321798	99
Es	-2.299170	0.344550	-0.036850	99
Es	-3.075433	0.080431	0.148196	99
Es	1.065554	0.317147	0.008254	99
Es	3.043167	-0.391840	-0.089195	99
Es	0.934345	0.623267	-0.632093	99
Es	0.897379	0.770424	0.536619	99
Es	0.482065	-1.160384	0.184114	99
Es	-1.468434	0.682989	-0.053167	99
Es	-3.238207	0.854786	0.084249	99
Es	3.053854	-0.228416	0.452164	99
Es	-0.218951	-0.785564	0.109169	99
Es	-3.152433	0.180226	-0.576965	99
Es	0.537243	-0.443810	0.086996	99
Es	-1.627865	0.399908	-0.032394	99
Es	4.340217	-0.433300	0.229570	99
39
Properties=species:S:1:pos:R:3:Z:I:1 energy=-338.7168371522243 field_type=dipole dipole="0.000000 0.000000 0.000000" charge=0
N	-2.977689	0.300865	-0.034931	7
N	-1.627549	0.400525	-0.032441	7
C	-1.037249	-0.739205	0.108849	6
O	0.306131	-0.891355	0.134879	8
C	1.065531	0.317435	0.008219	6
C	2.494441	-0.008755	0.101459	6
C	3.663101	-0.274015	0.181079	6
H	-3.380819	1.214585	0.192719	1
H	-3.316239	0.115825	-0.984211	1
H	-1.538279	-1.714735	0.223149	1
H	0.794070	1.012565	0.810749	1
H	0.855800	0.780385	-0.963861	1
H	4.698750	-0.514125	0.254339	1
Es	-1.036928	-0.739246	0.108809	99
Es	-2.299153	0.344575	-0.036984	99
Es	-2.977379	0.301383	-0.035455	99
Es	-0.218978	-0.785528	0.109149	99
Es	4.340259	-0.433230	0.229455	99
Es	-3.074665	0.081327	0.146644	99
Es	0.933873	0.624164	-0.631680	99
Es	0.533071	-0.446766	0.087253	99
Es	-1.469587	0.681332	-0.052150	99
Es	3.149361	0.206804	0.060449	99
Es	-1.392942	-0.077106	-0.286758	99
Es	3.663353	-0.274067	0.181096	99
Es	0.230167	-0.858081	0.124286	99
Es	-1.627867	0.399969	-0.032390	99
Es	-3.240454	0.853035	0.082250	99
Es	0.898200	0.769356	0.536161	99
Es	-1.375987	-0.044903	0.320458	99
Es	0.485949	-1.157664	0.182355	99
Es	-3.151053	0.181050	-0.573280	99
Es	3.041771	-0.395391	-0.087081	99
Es	-1.369870	-1.385495	0.182790	99
Es	1.065554	0.317144	0.008253	99
Es	2.494151	-0.008664	0.101435	99
Es	1.813252	0.142356	0.056965	99
Es	3.055130	-0.225795	0.448278	99
Es	0.305641	-0.890911	0.134171	99
