48
Properties=species:S:1:pos:R:3:Z:I:1 energy=-289.2967939320964 field_type=dipole dipole="0.000000 0.000000 0.000000" charge=0
C	-2.521119	-0.143261	-0.644336	6
C	-1.022469	-0.016251	-0.821016	6
C	-0.306999	1.071150	0.008374	6
C	0.744051	-0.023991	0.319874	6
C	1.130002	-0.140261	1.788314	6
C	1.958511	-0.055361	-0.605846	6
N	-0.277829	-1.037181	-0.050476	7
H	-2.896929	-1.042781	-1.144176	1
H	-3.031569	0.718859	-1.087016	1
H	-2.809269	-0.196181	0.411644	1
H	-0.743039	0.006529	-1.882496	1
H	-0.873489	1.425060	0.878614	1
H	0.046731	1.940179	-0.554876	1
H	0.250741	-0.160441	2.442234	1
H	1.747551	0.711650	2.093264	1
H	1.704911	-1.054101	1.975944	1
H	1.677231	-0.005311	-1.663206	1
H	2.541041	-0.971710	-0.460306	1
H	2.617031	0.795870	-0.402626	1
H	0.064911	-1.822470	-0.601886	1
Es	-0.612505	-0.644846	-0.433594	99
Es	-0.693746	1.302610	0.603760	99
Es	1.958508	-0.055359	-0.605846	99
Es	2.405579	0.525359	-0.464230	99
Es	0.272102	0.597227	0.196771	99
Es	-0.277524	-1.036984	-0.050952	99
Es	2.348311	-0.683820	-0.502140	99
Es	-2.710979	-0.175037	0.074080	99
Es	-0.469742	-1.138320	0.234961	99
Es	0.211448	-0.651246	0.103464	99
Es	-0.306989	1.071116	0.008353	99
Es	0.743974	-0.024071	0.319830	99
Es	0.529905	-0.149542	2.228085	99
Es	1.525079	-0.765306	1.909600	99
Es	-1.784969	-0.076228	-0.736915	99
Es	-0.828658	0.001699	-1.555701	99
Es	1.130024	-0.140252	1.788315	99
Es	1.757635	-0.021966	-1.325821	99
Es	-2.772971	-0.758364	-0.988184	99
Es	-2.866176	0.449481	-0.950757	99
Es	1.555401	0.445948	1.990772	99
Es	-0.061044	1.669445	-0.378416	99
Es	-2.521125	-0.143251	-0.644360	99
Es	-0.720427	0.599191	-0.436837	99
Es	-1.022409	-0.016329	-0.820922	99
Es	-0.055690	-1.503642	-0.402056	99
Es	0.951063	-0.080677	1.065229	99
Es	1.359411	-0.033113	-0.155106	99
48
Properties=species:S:1:pos:R:3:Z:I:1 energy=-289.2967939320964 field_type=dipole dipole="0.000000 0.000000 0.000000" charge=0
C	-2.521119	-0.143261	-0.644336	6
C	-1.022469	-0.016251	-0.821016	6
C	-0.306999	1.071150	0.008374	6
C	0.744051	-0.023991	0.319874	6
C	1.130002	-0.140261	1.788314	6
C	1.958511	-0.055361	-0.605846	6
N	-0.277829	-1.037181	-0.050476	7
H	-2.896929	-1.042781	-1.144176	1
H	-3.031569	0.718859	-1.087016	1
H	-2.809269	-0.196181	0.411644	1
H	-0.743039	0.006529	-1.882496	1
H	-0.873489	1.425060	0.878614	1
H	0.046731	1.940179	-0.554876	1
H	0.250741	-0.160441	2.442234	1
H	1.747551	0.711650	2.093264	1
H	1.704911	-1.054101	1.975944	1
H	1.677231	-0.005311	-1.663206	1
H	2.541041	-0.971710	-0.460306	1
H	2.617031	0.795870	-0.402626	1
H	0.064911	-1.822470	-0.601886	1
Es	1.130027	-0.140252	1.788317	99
Es	-0.828908	0.001583	-1.555595	99
Es	0.530198	-0.149479	2.227600	99
Es	-0.055637	-1.504900	-0.402206	99
Es	1.359577	-0.033129	-0.155144	99
Es	0.743976	-0.024071	0.319831	99
Es	-2.772915	-0.759020	-0.988323	99
Es	-0.306989	1.071115	0.008353	99
Es	-0.468299	-1.137463	0.233435	99
Es	0.272043	0.597702	0.196659	99
Es	1.757306	-0.021938	-1.325354	99
Es	-0.693767	1.302665	0.603818	99
Es	-0.720497	0.599597	-0.436751	99
Es	-0.613684	-0.644806	-0.432739	99
Es	-1.785133	-0.076257	-0.736850	99
Es	1.958511	-0.055361	-0.605845	99
Es	-2.710499	-0.174928	0.073828	99
Es	-2.866130	0.449975	-0.950682	99
Es	-0.277529	-1.036978	-0.050939	99
Es	1.555148	0.446376	1.990814	99
Es	0.950946	-0.080731	1.065356	99
Es	-0.060991	1.669402	-0.378400	99
Es	-2.521124	-0.143253	-0.644359	99
Es	2.348374	-0.684434	-0.502082	99
Es	1.525246	-0.765835	1.909720	99
Es	0.211128	-0.651286	0.104233	99
Es	2.405516	0.525754	-0.464387	99
Es	-1.022408	-0.016328	-0.820923	99
48
Properties=species:S:1:pos:R:3:Z:I:1 energy=-289.2967939320964 field_type=dipole dipole="0.000000 0.000000 0.000000" charge=0
C	-2.521119	-0.143261	-0.644336	6
C	-1.022469	-0.016251	-0.821016	6
C	-0.306999	1.071150	0.008374	6
C	0.744051	-0.023991	0.319874	6
C	1.130002	-0.140261	1.788314	6
C	1.958511	-0.055361	-0.605846	6
N	-0.277829	-1.037181	-0.050476	7
H	-2.896929	-1.042781	-1.144176	1
H	-3.031569	0.718859	-1.087016	1
H	-2.809269	-0.196181	0.411644	1
H	-0.743039	0.006529	-1.882496	1
H	-0.873489	1.425060	0.878614	1
H	0.046731	1.940179	-0.554876	1
H	0.250741	-0.160441	2.442234	1
H	1.747551	0.711650	2.093264	1
H	1.704911	-1.054101	1.975944	1
H	1.677231	-0.005311	-1.663206	1
H	2.541041	-0.971710	-0.460306	1
H	2.617031	0.795870	-0.402626	1
H	0.064911	-1.822470	-0.601886	1
Es	0.271935	0.597945	0.196585	99
Es	-0.720427	0.599848	-0.436709	99
Es	0.743973	-0.024071	0.319831	99
Es	1.525233	-0.766178	1.909774	99
Es	-0.056166	-1.506840	-0.401438	99
Es	-0.060977	1.669490	-0.378400	99
Es	-2.866003	0.450254	-0.950657	99
Es	-0.468217	-1.135417	0.233335	99
Es	-1.785297	-0.076306	-0.736735	99
Es	1.555088	0.446590	1.990865	99
Es	0.211041	-0.651637	0.103691	99
Es	1.130028	-0.140252	1.788320	99
Es	-0.277543	-1.036985	-0.050920	99
Es	1.359546	-0.033105	-0.155213	99
Es	0.530371	-0.149391	2.227297	99
Es	-0.829129	0.001437	-1.555593	99
Es	-0.306990	1.071116	0.008352	99
Es	-0.693784	1.302560	0.603943	99
Es	-0.613132	-0.644770	-0.432946	99
Es	-2.521124	-0.143253	-0.644359	99
Es	2.405466	0.525933	-0.464375	99
Es	-2.772885	-0.759425	-0.988447	99
Es	1.958509	-0.055358	-0.605845	99
Es	2.348414	-0.684713	-0.502109	99
Es	1.757254	-0.021865	-1.325126	99
Es	-1.022408	-0.016329	-0.820923	99
Es	0.950914	-0.080742	1.065417	99
Es	-2.710207	-0.174813	0.073769	99
48
Properties=species:S:1:pos:R:3:Z:I:1 energy=-289.2967939320964 field_type=dipole dipole="0.000000 0.000000 0.000000" charge=0
C	-2.521119	-0.143261	-0.644336	6
C	-1.022469	-0.016251	-0.821016	6
C	-0.306999	1.071150	0.008374	6
C	0.744051	-0.023991	0.319874	6
C	1.130002	-0.140261	1.788314	6
C	1.958511	-0.055361	-0.605846	6
N	-0.277829	-1.037181	-0.050476	7
H	-2.896929	-1.042781	-1.144176	1
H	-3.031569	0.718859	-1.087016	1
H	-2.809269	-0.196181	0.411644	1
H	-0.743039	0.006529	-1.882496	1
H	-0.873489	1.425060	0.878614	1
H	0.046731	1.940179	-0.554876	1
H	0.250741	-0.160441	2.442234	1
H	1.747551	0.711650	2.093264	1
H	1.704911	-1.054101	1.975944	1
H	1.677231	-0.005311	-1.663206	1
H	2.541041	-0.971710	-0.460306	1
H	2.617031	0.795870	-0.402626	1
H	0.064911	-1.822470	-0.601886	1
Es	-0.277578	-1.037010	-0.050845	99
Es	0.530514	-0.149254	2.227102	99
Es	-0.468472	-1.134408	0.233050	99
Es	-1.785349	-0.076316	-0.736643	99
Es	-1.022407	-0.016329	-0.820922	99
Es	-2.710028	-0.174803	0.073753	99
Es	-0.612602	-0.644967	-0.433122	99
Es	-2.521125	-0.143252	-0.644360	99
Es	2.348444	-0.685049	-0.502188	99
Es	-2.865902	0.450453	-0.950610	99
Es	0.743975	-0.024070	0.319831	99
Es	-0.693800	1.302742	0.604037	99
Es	0.950819	-0.080705	1.065512	99
Es	1.130027	-0.140252	1.788317	99
Es	1.359562	-0.033142	-0.155269	99
Es	0.210862	-0.651667	0.103688	99
Es	2.405408	0.526056	-0.464325	99
Es	-0.056194	-1.507785	-0.401113	99
Es	-0.060928	1.669333	-0.378514	99
Es	1.525190	-0.766469	1.909826	99
Es	-0.306988	1.071118	0.008353	99
Es	0.271874	0.598052	0.196457	99
Es	-2.772834	-0.759656	-0.988596	99
Es	-0.829310	0.001386	-1.555630	99
Es	1.958507	-0.055358	-0.605846	99
Es	-0.720475	0.600057	-0.436545	99
Es	1.555083	0.446706	1.990864	99
Es	1.757210	-0.021693	-1.324881	99
48
Properties=species:S:1:pos:R:3:Z:I:1 energy=-289.2967939320964 field_type=dipole dipole="0.000000 0.000000 0.000000" charge=0
C	-2.521119	-0.143261	-0.644336	6
C	-1.022469	-0.016251	-0.821016	6
C	-0.306999	1.071150	0.008374	6
C	0.744051	-0.023991	0.319874	6
C	1.130002	-0.140261	1.788314	6
C	1.958511	-0.055361	-0.605846	6
N	-0.277829	-1.037181	-0.050476	7
H	-2.896929	-1.042781	-1.144176	1
H	-3.031569	0.718859	-1.087016	1
H	-2.809269	-0.196181	0.411644	1
H	-0.743039	0.006529	-1.882496	1
H	-0.873489	1.425060	0.878614	1
H	0.046731	1.940179	-0.554876	1
H	0.250741	-0.160441	2.442234	1
H	1.747551	0.711650	2.093264	1
H	1.704911	-1.054101	1.975944	1
H	1.677231	-0.005311	-1.663206	1
H	2.541041	-0.971710	-0.460306	1
H	2.617031	0.795870	-0.402626	1
H	0.064911	-1.822470	-0.601886	1
Es	-1.022402	-0.016331	-0.820922	99
Es	-1.785430	-0.076259	-0.736584	99
Es	-0.720335	0.600108	-0.436433	99
Es	-0.306989	1.071115	0.008352	99
Es	-0.056160	-1.508383	-0.401257	99
Es	-2.865756	0.450614	-0.950662	99
Es	-0.613093	-0.645072	-0.432631	99
Es	-2.521123	-0.143252	-0.644361	99
Es	-0.277518	-1.036970	-0.050950	99
Es	-2.772749	-0.759919	-0.988704	99
Es	0.530598	-0.149336	2.226891	99
Es	2.405352	0.526152	-0.464430	99
Es	1.130027	-0.140252	1.788317	99
Es	1.757164	-0.021748	-1.324771	99
Es	-0.693917	1.302706	0.604215	99
Es	-2.709909	-0.174706	0.073767	99
Es	0.271771	0.598321	0.196424	99
Es	0.210638	-0.651560	0.104072	99
Es	2.348494	-0.685185	-0.502103	99
Es	1.958508	-0.055359	-0.605845	99
Es	-0.467953	-1.134034	0.232369	99
Es	-0.060907	1.669328	-0.378568	99
Es	1.554925	0.446867	1.990971	99
Es	1.359583	-0.033071	-0.155302	99
Es	0.950828	-0.080771	1.065502	99
Es	0.743977	-0.024071	0.319831	99
Es	-0.829424	0.001393	-1.555648	99
Es	1.525287	-0.766604	1.909841	99
48
Properties=species:S:1:pos:R:3:Z:I:1 energy=-289.2967939320964 field_type=dipole dipole="0.000000 0.000000 0.000000" charge=0
C	-2.521119	-0.143261	-0.644336	6
C	-1.022469	-0.016251	-0.821016	6
C	-0.306999	1.071150	0.008374	6
C	0.744051	-0.023991	0.319874	6
C	1.130002	-0.140261	1.788314	6
C	1.958511	-0.055361	-0.605846	6
N	-0.277829	-1.037181	-0.050476	7
H	-2.896929	-1.042781	-1.144176	1
H	-3.031569	0.718859	-1.087016	1
H	-2.809269	-0.196181	0.411644	1
H	-0.743039	0.006529	-1.882496	1
H	-0.873489	1.425060	0.878614	1
H	0.046731	1.940179	-0.554876	1
H	0.250741	-0.160441	2.442234	1
H	1.747551	0.711650	2.093264	1
H	1.704911	-1.054101	1.975944	1
H	1.677231	-0.005311	-1.663206	1
H	2.541041	-0.971710	-0.460306	1
H	2.617031	0.795870	-0.402626	1
H	0.064911	-1.822470	-0.601886	1
Es	-1.785511	-0.076373	-0.736562	99
Es	-2.772777	-0.760052	-0.988825	99
Es	-1.022407	-0.016331	-0.820923	99
Es	0.271674	0.598314	0.196357	99
Es	2.348624	-0.685283	-0.502176	99
Es	0.743974	-0.024071	0.319831	99
Es	-2.709717	-0.174725	0.073764	99
Es	1.554888	0.446919	1.991056	99
Es	-0.467930	-1.133700	0.231935	99
Es	-2.521125	-0.143253	-0.644359	99
Es	1.130026	-0.140252	1.788316	99
Es	-0.056124	-1.508748	-0.401197	99
Es	-0.613042	-0.645088	-0.432568	99
Es	1.359653	-0.033132	-0.155273	99
Es	-0.306989	1.071115	0.008353	99
Es	1.525299	-0.766758	1.909755	99
Es	1.958511	-0.055360	-0.605845	99
Es	-0.693851	1.302741	0.604244	99
Es	1.757061	-0.021670	-1.324663	99
Es	0.530572	-0.149356	2.226756	99
Es	-0.829500	0.001304	-1.555713	99
Es	2.405257	0.526172	-0.464497	99
Es	0.210566	-0.651483	0.104488	99
Es	-2.865680	0.450782	-0.950558	99
Es	0.950888	-0.080564	1.065571	99
Es	-0.720462	0.600250	-0.436350	99
Es	-0.060863	1.669324	-0.378589	99
Es	-0.277528	-1.037000	-0.050943	99
48
Properties=species:S:1:pos:R:3:Z:I:1 energy=-289.2967939320964 field_type=dipole dipole="0.000000 0.000000 0.000000" charge=0
C	-2.521119	-0.143261	-0.644336	6
C	-1.022469	-0.016251	-0.821016	6
C	-0.306999	1.071150	0.008374	6
C	0.744051	-0.023991	0.319874	6
C	1.130002	-0.140261	1.788314	6
C	1.958511	-0.055361	-0.605846	6
N	-0.277829	-1.037181	-0.050476	7
H	-2.896929	-1.042781	-1.144176	1
H	-3.031569	0.718859	-1.087016	1
H	-2.809269	-0.196181	0.411644	1
H	-0.743039	0.006529	-1.882496	1
H	-0.873489	1.425060	0.878614	1
H	0.046731	1.940179	-0.554876	1
H	0.250741	-0.160441	2.442234	1
H	1.747551	0.711650	2.093264	1
H	1.704911	-1.054101	1.975944	1
H	1.677231	-0.005311	-1.663206	1
H	2.541041	-0.971710	-0.460306	1
H	2.617031	0.795870	-0.402626	1
H	0.064911	-1.822470	-0.601886	1
Es	1.525370	-0.766880	1.909860	99
Es	-0.693933	1.302862	0.604372	99
Es	-2.772803	-0.760243	-0.988800	99
Es	-0.277561	-1.037017	-0.050928	99
Es	1.958508	-0.055359	-0.605846	99
Es	-1.785589	-0.076491	-0.736664	99
Es	-0.468058	-1.133555	0.232599	99
Es	-0.829565	0.001238	-1.555721	99
Es	-0.056082	-1.508815	-0.401401	99
Es	-1.022407	-0.016329	-0.820923	99
Es	2.405228	0.526296	-0.464487	99
Es	0.530631	-0.149250	2.226685	99
Es	0.210410	-0.651697	0.103858	99
Es	-0.612799	-0.645063	-0.432452	99
Es	0.743975	-0.024072	0.319831	99
Es	1.130028	-0.140252	1.788314	99
Es	-2.521124	-0.143253	-0.644360	99
Es	-0.720490	0.600483	-0.436364	99
Es	1.554842	0.447110	1.990845	99
Es	2.348619	-0.685518	-0.502173	99
Es	-0.060829	1.669154	-0.378550	99
Es	0.271695	0.598477	0.196258	99
Es	-2.865561	0.450875	-0.950628	99
Es	-2.709535	-0.174563	0.073827	99
Es	1.757075	-0.021616	-1.324477	99
Es	0.950800	-0.080802	1.065644	99
Es	-0.306988	1.071116	0.008354	99
Es	1.359628	-0.033117	-0.155291	99
48
Properties=species:S:1:pos:R:3:Z:I:1 energy=-289.2967939320964 field_type=dipole dipole="0.000000 0.000000 0.000000" charge=0
C	-2.521119	-0.143261	-0.644336	6
C	-1.022469	-0.016251	-0.821016	6
C	-0.306999	1.071150	0.008374	6
C	0.744051	-0.023991	0.319874	6
C	1.130002	-0.140261	1.788314	6
C	1.958511	-0.055361	-0.605846	6
N	-0.277829	-1.037181	-0.050476	7
H	-2.896929	-1.042781	-1.144176	1
H	-3.031569	0.718859	-1.087016	1
H	-2.809269	-0.196181	0.411644	1
H	-0.743039	0.006529	-1.882496	1
H	-0.873489	1.425060	0.878614	1
H	0.046731	1.940179	-0.554876	1
H	0.250741	-0.160441	2.442234	1
H	1.747551	0.711650	2.093264	1
H	1.704911	-1.054101	1.975944	1
H	1.677231	-0.005311	-1.663206	1
H	2.541041	-0.971710	-0.460306	1
H	2.617031	0.795870	-0.402626	1
H	0.064911	-1.822470	-0.601886	1
Es	1.359625	-0.033143	-0.155191	99
Es	-0.277531	-1.036979	-0.050943	99
Es	-0.613084	-0.645107	-0.432309	99
Es	0.271542	0.598511	0.196370	99
Es	0.950701	-0.080778	1.065552	99
Es	0.743973	-0.024071	0.319832	99
Es	-0.306988	1.071116	0.008354	99
Es	-2.521123	-0.143252	-0.644359	99
Es	-0.056133	-1.509480	-0.401205	99
Es	-0.720342	0.600465	-0.436240	99
Es	0.210243	-0.651673	0.103995	99
Es	0.530720	-0.149200	2.226727	99
Es	-0.060721	1.669184	-0.378689	99
Es	-1.022408	-0.016328	-0.820924	99
Es	1.525419	-0.766918	1.909889	99
Es	-0.829693	0.001204	-1.555769	99
Es	1.958511	-0.055359	-0.605847	99
Es	2.348658	-0.685489	-0.502314	99
Es	-0.467639	-1.133019	0.232081	99
Es	-2.772649	-0.760409	-0.988941	99
Es	2.405238	0.526300	-0.464511	99
Es	1.130026	-0.140252	1.788315	99
Es	1.554792	0.447076	1.990798	99
Es	-0.694006	1.302876	0.604390	99
Es	1.757050	-0.021576	-1.324407	99
Es	-1.785641	-0.076361	-0.736411	99
Es	-2.709539	-0.174589	0.073762	99
Es	-2.865519	0.450971	-0.950621	99
48
Properties=species:S:1:pos:R:3:Z:I:1 energy=-289.2967939320964 field_type=dipole dipole="0.000000 0.000000 0.000000" charge=0
C	-2.521119	-0.143261	-0.644336	6
C	-1.022469	-0.016251	-0.821016	6
C	-0.306999	1.071150	0.008374	6
C	0.744051	-0.023991	0.319874	6
C	1.130002	-0.140261	1.788314	6
C	1.958511	-0.055361	-0.605846	6
N	-0.277829	-1.037181	-0.050476	7
H	-2.896929	-1.042781	-1.144176	1
H	-3.031569	0.718859	-1.087016	1
H	-2.809269	-0.196181	0.411644	1
H	-0.743039	0.006529	-1.882496	1
H	-0.873489	1.425060	0.878614	1
H	0.046731	1.940179	-0.554876	1
H	0.250741	-0.160441	2.442234	1
H	1.747551	0.711650	2.093264	1
H	1.704911	-1.054101	1.975944	1
H	1.677231	-0.005311	-1.663206	1
H	2.541041	-0.971710	-0.460306	1
H	2.617031	0.795870	-0.402626	1
H	0.064911	-1.822470	-0.601886	1
Es	-0.467497	-1.133034	0.232630	99
Es	2.348632	-0.685628	-0.502261	99
Es	-0.613231	-0.645092	-0.432140	99
Es	-2.772594	-0.760503	-0.989028	99
Es	-0.829708	0.001163	-1.555762	99
Es	1.359635	-0.033121	-0.155363	99
Es	1.757035	-0.021606	-1.324296	99
Es	1.130026	-0.140252	1.788316	99
Es	-1.022408	-0.016329	-0.820923	99
Es	-0.720278	0.600561	-0.436070	99
Es	-0.306989	1.071116	0.008353	99
Es	-0.694039	1.302788	0.604335	99
Es	0.743973	-0.024072	0.319830	99
Es	-2.521123	-0.143253	-0.644358	99
Es	-1.785765	-0.076381	-0.736418	99
Es	1.525403	-0.767042	1.909940	99
Es	-2.709498	-0.174549	0.073831	99
Es	1.958507	-0.055359	-0.605846	99
Es	0.210191	-0.651715	0.103507	99
Es	0.950767	-0.080769	1.065533	99
Es	-0.060810	1.669279	-0.378714	99
Es	2.405238	0.526414	-0.464527	99
Es	0.271563	0.598542	0.196431	99
Es	-2.865418	0.451014	-0.950647	99
Es	-0.277527	-1.036981	-0.050957	99
Es	0.530779	-0.149190	2.226551	99
Es	-0.056117	-1.509430	-0.401454	99
Es	1.554738	0.447150	1.990889	99
48
Properties=species:S:1:pos:R:3:Z:I:1 energy=-289.2967939320964 field_type=dipole dipole="0.000000 0.000000 0.000000" charge=0
C	-2.521119	-0.143261	-0.644336	6
C	-1.022469	-0.016251	-0.821016	6
C	-0.306999	1.071150	0.008374	6
C	0.744051	-0.023991	0.319874	6
C	1.130002	-0.140261	1.788314	6
C	1.958511	-0.055361	-0.605846	6
N	-0.277829	-1.037181	-0.050476	7
H	-2.896929	-1.042781	-1.144176	1
H	-3.031569	0.718859	-1.087016	1
H	-2.809269	-0.196181	0.411644	1
H	-0.743039	0.006529	-1.882496	1
H	-0.873489	1.425060	0.878614	1
H	0.046731	1.940179	-0.554876	1
H	0.250741	-0.160441	2.442234	1
H	1.747551	0.711650	2.093264	1
H	1.704911	-1.054101	1.975944	1
H	1.677231	-0.005311	-1.663206	1
H	2.541041	-0.971710	-0.460306	1
H	2.617031	0.795870	-0.402626	1
H	0.064911	-1.822470	-0.601886	1
Es	-2.865394	0.450980	-0.950673	99
Es	1.757042	-0.021536	-1.324224	99
Es	2.405162	0.526404	-0.464561	99
Es	0.210041	-0.651852	0.104338	99
Es	-0.060755	1.669155	-0.378683	99
Es	-0.056091	-1.509931	-0.401284	99
Es	-0.612556	-0.644981	-0.432256	99
Es	0.743976	-0.024071	0.319832	99
Es	1.130026	-0.140252	1.788319	99
Es	-2.772572	-0.760613	-0.989021	99
Es	-0.306989	1.071116	0.008353	99
Es	-2.709469	-0.174454	0.073839	99
Es	-0.467964	-1.132582	0.231816	99
Es	-1.022408	-0.016329	-0.820923	99
Es	-0.720434	0.600609	-0.436119	99
Es	0.271469	0.598665	0.196064	99
Es	-2.521124	-0.143250	-0.644360	99
Es	-1.785673	-0.076409	-0.736450	99
Es	0.950624	-0.080706	1.065696	99
Es	1.359714	-0.033174	-0.155235	99
Es	1.958508	-0.055359	-0.605845	99
Es	2.348720	-0.685707	-0.502300	99
Es	1.554767	0.447254	1.990912	99
Es	-0.829730	0.001244	-1.555820	99
Es	-0.277505	-1.036967	-0.050968	99
Es	1.525372	-0.767159	1.909863	99
Es	-0.694048	1.302827	0.604633	99
Es	0.530776	-0.149202	2.226441	99
48
Properties=species:S:1:pos:R:3:Z:I:1 energy=-289.2967939320964 field_type=dipole dipole="0.000000 0.000000 0.000000" charge=0
C	-2.521119	-0.143261	-0.644336	6
C	-1.022469	-0.016251	-0.821016	6
C	-0.306999	1.071150	0.008374	6
C	0.744051	-0.023991	0.319874	6
C	1.130002	-0.140261	1.788314	6
C	1.958511	-0.055361	-0.605846	6
N	-0.277829	-1.037181	-0.050476	7
H	-2.896929	-1.042781	-1.144176	1
H	-3.031569	0.718859	-1.087016	1
H	-2.809269	-0.196181	0.411644	1
H	-0.743039	0.006529	-1.882496	1
H	-0.873489	1.425060	0.878614	1
H	0.046731	1.940179	-0.554876	1
H	0.250741	-0.160441	2.442234	1
H	1.747551	0.711650	2.093264	1
H	1.704911	-1.054101	1.975944	1
H	1.677231	-0.005311	-1.663206	1
H	2.541041	-0.971710	-0.460306	1
H	2.617031	0.795870	-0.402626	1
H	0.064911	-1.822470	-0.601886	1
Es	1.525364	-0.767217	1.909846	99
Es	1.757118	-0.021510	-1.324191	99
Es	1.554760	0.447232	1.990937	99
Es	-0.306989	1.071115	0.008351	99
Es	1.958508	-0.055359	-0.605845	99
Es	1.359555	-0.033013	-0.155269	99
Es	-2.709417	-0.174492	0.073841	99
Es	-2.772566	-0.760626	-0.989069	99
Es	-0.467714	-1.132466	0.232173	99
Es	-0.720364	0.600694	-0.436244	99
Es	-0.056075	-1.510018	-0.401258	99
Es	-2.521124	-0.143253	-0.644360	99
Es	-0.694086	1.302701	0.604586	99
Es	0.530770	-0.149176	2.226417	99
Es	1.130026	-0.140252	1.788315	99
Es	2.348675	-0.685780	-0.502284	99
Es	-0.277521	-1.036976	-0.050953	99
Es	0.743974	-0.024071	0.319830	99
Es	-1.785596	-0.076367	-0.736418	99
Es	-2.865380	0.451040	-0.950637	99
Es	0.271326	0.598732	0.196221	99
Es	-0.829866	0.001172	-1.555831	99
Es	-1.022408	-0.016328	-0.820923	99
Es	-0.060652	1.669286	-0.378573	99
Es	0.210030	-0.651810	0.103822	99
Es	0.950749	-0.080694	1.065624	99
Es	-0.612809	-0.645194	-0.432153	99
Es	2.405198	0.526351	-0.464573	99
48
Properties=species:S:1:pos:R:3:Z:I:1 energy=-289.2967939320964 field_type=dipole dipole="0.000000 0.000000 0.000000" charge=0
C	-2.521119	-0.143261	-0.644336	6
C	-1.022469	-0.016251	-0.821016	6
C	-0.306999	1.071150	0.008374	6
C	0.744051	-0.023991	0.319874	6
C	1.130002	-0.140261	1.788314	6
C	1.958511	-0.055361	-0.605846	6
N	-0.277829	-1.037181	-0.050476	7
H	-2.896929	-1.042781	-1.144176	1
H	-3.031569	0.718859	-1.087016	1
H	-2.809269	-0.196181	0.411644	1
H	-0.743039	0.006529	-1.882496	1
H	-0.873489	1.425060	0.878614	1
H	0.046731	1.940179	-0.554876	1
H	0.250741	-0.160441	2.442234	1
H	1.747551	0.711650	2.093264	1
H	1.704911	-1.054101	1.975944	1
H	1.677231	-0.005311	-1.663206	1
H	2.541041	-0.971710	-0.460306	1
H	2.617031	0.795870	-0.402626	1
H	0.064911	-1.822470	-0.601886	1
Es	0.209740	-0.651650	0.103751	99
Es	1.359554	-0.033121	-0.155380	99
Es	0.743974	-0.024072	0.319831	99
Es	0.950820	-0.080768	1.065648	99
Es	-0.694066	1.302910	0.604694	99
Es	-0.829832	0.001164	-1.555861	99
Es	-0.060711	1.669088	-0.378749	99
Es	-1.022412	-0.016330	-0.820920	99
Es	1.130026	-0.140252	1.788317	99
Es	1.525390	-0.767211	1.909870	99
Es	-0.277528	-1.037004	-0.050904	99
Es	1.554715	0.447378	1.990966	99
Es	1.757074	-0.021455	-1.324106	99
Es	1.958508	-0.055359	-0.605845	99
Es	-0.306989	1.071116	0.008353	99
Es	0.271381	0.598722	0.196151	99
Es	-1.785697	-0.076443	-0.736480	99
Es	-2.709308	-0.174437	0.073881	99
Es	-2.772575	-0.760719	-0.989083	99
Es	-0.467418	-1.132514	0.232163	99
Es	-0.613145	-0.645262	-0.431819	99
Es	-2.521123	-0.143252	-0.644360	99
Es	-2.865313	0.451106	-0.950651	99
Es	2.405169	0.526452	-0.464508	99
Es	-0.720440	0.600746	-0.436012	99
Es	-0.055795	-1.510008	-0.401518	99
Es	0.530788	-0.149258	2.226317	99
Es	2.348695	-0.685844	-0.502361	99
48
Properties=species:S:1:pos:R:3:Z:I:1 energy=-289.2967939320964 field_type=dipole dipole="0.000000 0.000000 0.000000" charge=0
C	-2.521119	-0.143261	-0.644336	6
C	-1.022469	-0.016251	-0.821016	6
C	-0.306999	1.071150	0.008374	6
C	0.744051	-0.023991	0.319874	6
C	1.130002	-0.140261	1.788314	6
C	1.958511	-0.055361	-0.605846	6
N	-0.277829	-1.037181	-0.050476	7
H	-2.896929	-1.042781	-1.144176	1
H	-3.031569	0.718859	-1.087016	1
H	-2.809269	-0.196181	0.411644	1
H	-0.743039	0.006529	-1.882496	1
H	-0.873489	1.425060	0.878614	1
H	0.046731	1.940179	-0.554876	1
H	0.250741	-0.160441	2.442234	1
H	1.747551	0.711650	2.093264	1
H	1.704911	-1.054101	1.975944	1
H	1.677231	-0.005311	-1.663206	1
H	2.541041	-0.971710	-0.460306	1
H	2.617031	0.795870	-0.402626	1
H	0.064911	-1.822470	-0.601886	1
Es	2.348806	-0.685874	-0.502413	99
Es	-0.277534	-1.036971	-0.050959	99
Es	1.525383	-0.767237	1.909831	99
Es	-0.306989	1.071116	0.008353	99
Es	-1.022408	-0.016330	-0.820923	99
Es	0.743974	-0.024070	0.319831	99
Es	0.271396	0.598917	0.196119	99
Es	1.958507	-0.055359	-0.605846	99
Es	-2.772506	-0.760826	-0.989159	99
Es	0.530744	-0.149203	2.226373	99
Es	0.209840	-0.652160	0.104170	99
Es	-0.694078	1.302928	0.604775	99
Es	-0.056219	-1.510484	-0.401282	99
Es	-0.829875	0.001141	-1.555862	99
Es	-2.865300	0.451107	-0.950620	99
Es	2.405101	0.526427	-0.464621	99
Es	1.130025	-0.140252	1.788316	99
Es	-0.720374	0.600684	-0.436130	99
Es	0.950816	-0.080790	1.065633	99
Es	-0.467766	-1.132040	0.231846	99
Es	-0.060711	1.669038	-0.378698	99
Es	-2.709282	-0.174421	0.073870	99
Es	1.757109	-0.021435	-1.324007	99
Es	-0.612497	-0.644825	-0.432112	99
Es	-2.521124	-0.143253	-0.644359	99
Es	1.359468	-0.033119	-0.155248	99
Es	-1.785774	-0.076315	-0.736402	99
Es	1.554753	0.447327	1.990908	99
48
Properties=species:S:1:pos:R:3:Z:I:1 energy=-289.2967939320964 field_type=dipole dipole="0.000000 0.000000 0.000000" charge=0
C	-2.521119	-0.143261	-0.644336	6
C	-1.022469	-0.016251	-0.821016	6
C	-0.306999	1.071150	0.008374	6
C	0.744051	-0.023991	0.319874	6
C	1.130002	-0.140261	1.788314	6
C	1.958511	-0.055361	-0.605846	6
N	-0.277829	-1.037181	-0.050476	7
H	-2.896929	-1.042781	-1.144176	1
H	-3.031569	0.718859	-1.087016	1
H	-2.809269	-0.196181	0.411644	1
H	-0.743039	0.006529	-1.882496	1
H	-0.873489	1.425060	0.878614	1
H	0.046731	1.940179	-0.554876	1
H	0.250741	-0.160441	2.442234	1
H	1.747551	0.711650	2.093264	1
H	1.704911	-1.054101	1.975944	1
H	1.677231	-0.005311	-1.663206	1
H	2.541041	-0.971710	-0.460306	1
H	2.617031	0.795870	-0.402626	1
H	0.064911	-1.822470	-0.601886	1
Es	2.405257	0.526398	-0.464535	99
Es	0.530714	-0.149154	2.226389	99
Es	-0.277541	-1.036995	-0.050898	99
Es	1.958509	-0.055359	-0.605846	99
Es	-2.709265	-0.174417	0.073902	99
Es	0.209772	-0.651887	0.104701	99
Es	2.348606	-0.686027	-0.502433	99
Es	1.525478	-0.767287	1.909835	99
Es	-2.865233	0.451178	-0.950664	99
Es	-0.306990	1.071116	0.008352	99
Es	0.743975	-0.024070	0.319831	99
Es	-0.467890	-1.131891	0.231214	99
Es	-0.060631	1.669107	-0.378752	99
Es	-2.521125	-0.143253	-0.644359	99
Es	0.271254	0.598795	0.196045	99
Es	-2.772478	-0.760848	-0.989186	99
Es	-0.694114	1.302859	0.604840	99
Es	1.359523	-0.033036	-0.155429	99
Es	1.130025	-0.140252	1.788316	99
Es	1.554683	0.447318	1.990820	99
Es	1.757193	-0.021358	-1.323941	99
Es	-0.829951	0.001138	-1.555959	99
Es	0.950740	-0.080743	1.065725	99
Es	-1.785730	-0.076376	-0.736325	99
Es	-0.612447	-0.645021	-0.432157	99
Es	-0.056060	-1.510658	-0.401144	99
Es	-1.022408	-0.016329	-0.820922	99
Es	-0.720382	0.600772	-0.436036	99
48
Properties=species:S:1:pos:R:3:Z:I:1 energy=-289.2967939320964 field_type=dipole dipole="0.000000 0.000000 0.000000" charge=0
C	-2.521119	-0.143261	-0.644336	6
C	-1.022469	-0.016251	-0.821016	6
C	-0.306999	1.071150	0.008374	6
C	0.744051	-0.023991	0.319874	6
C	1.130002	-0.140261	1.788314	6
C	1.958511	-0.055361	-0.605846	6
N	-0.277829	-1.037181	-0.050476	7
H	-2.896929	-1.042781	-1.144176	1
H	-3.031569	0.718859	-1.087016	1
H	-2.809269	-0.196181	0.411644	1
H	-0.743039	0.006529	-1.882496	1
H	-0.873489	1.425060	0.878614	1
H	0.046731	1.940179	-0.554876	1
H	0.250741	-0.160441	2.442234	1
H	1.747551	0.711650	2.093264	1
H	1.704911	-1.054101	1.975944	1
H	1.677231	-0.005311	-1.663206	1
H	2.541041	-0.971710	-0.460306	1
H	2.617031	0.795870	-0.402626	1
H	0.064911	-1.822470	-0.601886	1
Es	-0.694088	1.302962	0.604779	99
Es	-1.022408	-0.016329	-0.820923	99
Es	0.743975	-0.024071	0.319831	99
Es	-0.306989	1.071116	0.008353	99
Es	1.958508	-0.055359	-0.605846	99
Es	1.359521	-0.033093	-0.155273	99
Es	1.525461	-0.767404	1.909884	99
Es	0.271328	0.598877	0.196084	99
Es	0.950843	-0.080810	1.065810	99
Es	1.130026	-0.140252	1.788316	99
Es	1.554667	0.447381	1.990794	99
Es	-0.829950	0.001093	-1.555904	99
Es	2.405027	0.526443	-0.464644	99
Es	-0.060652	1.669012	-0.378703	99
Es	-0.056273	-1.510838	-0.401194	99
Es	-1.785825	-0.076384	-0.736337	99
Es	-0.612060	-0.645118	-0.432123	99
Es	-2.521124	-0.143253	-0.644359	99
Es	2.348860	-0.685973	-0.502358	99
Es	0.530710	-0.149079	2.226269	99
Es	-2.772456	-0.760909	-0.989283	99
Es	-2.709237	-0.174428	0.073902	99
Es	0.209837	-0.651967	0.103969	99
Es	-0.277524	-1.036976	-0.050973	99
Es	-2.865184	0.451212	-0.950613	99
Es	-0.468134	-1.131580	0.231954	99
Es	1.757076	-0.021409	-1.323974	99
Es	-0.720449	0.600858	-0.436057	99
48
Properties=species:S:1:pos:R:3:Z:I:1 energy=-289.2967939320964 field_type=dipole dipole="0.000000 0.000000 0.000000" charge=0
C	-2.521119	-0.143261	-0.644336	6
C	-1.022469	-0.016251	-0.821016	6
C	-0.306999	1.071150	0.008374	6
C	0.744051	-0.023991	0.319874	6
C	1.130002	-0.140261	1.788314	6
C	1.958511	-0.055361	-0.605846	6
N	-0.277829	-1.037181	-0.050476	7
H	-2.896929	-1.042781	-1.144176	1
H	-3.031569	0.718859	-1.087016	1
H	-2.809269	-0.196181	0.411644	1
H	-0.743039	0.006529	-1.882496	1
H	-0.873489	1.425060	0.878614	1
H	0.046731	1.940179	-0.554876	1
H	0.250741	-0.160441	2.442234	1
H	1.747551	0.711650	2.093264	1
H	1.704911	-1.054101	1.975944	1
H	1.677231	-0.005311	-1.663206	1
H	2.541041	-0.971710	-0.460306	1
H	2.617031	0.795870	-0.402626	1
H	0.064911	-1.822470	-0.601886	1
Es	-2.521124	-0.143253	-0.644359	99
Es	-0.306990	1.071115	0.008355	99
Es	-0.612294	-0.645167	-0.431931	99
Es	0.950837	-0.080717	1.065736	99
Es	-0.056138	-1.510809	-0.401297	99
Es	-1.785809	-0.076353	-0.736298	99
Es	-0.060530	1.668927	-0.378828	99
Es	0.530753	-0.149172	2.226237	99
Es	1.757073	-0.021465	-1.323864	99
Es	-1.022407	-0.016330	-0.820922	99
Es	-0.694131	1.303044	0.604947	99
Es	1.958507	-0.055361	-0.605845	99
Es	-2.772423	-0.761013	-0.989238	99
Es	-0.720406	0.600911	-0.435982	99
Es	1.130026	-0.140252	1.788316	99
Es	1.525505	-0.767394	1.909857	99
Es	-2.709205	-0.174349	0.073867	99
Es	1.359461	-0.033197	-0.155233	99
Es	-0.829987	0.001106	-1.555924	99
Es	0.271066	0.598863	0.195928	99
Es	0.743977	-0.024071	0.319831	99
Es	2.405102	0.526546	-0.464673	99
Es	1.554594	0.447381	1.990909	99
Es	-2.865180	0.451228	-0.950666	99
Es	-0.467958	-1.131702	0.231559	99
Es	2.348834	-0.685927	-0.502473	99
Es	-0.277524	-1.036983	-0.050952	99
Es	0.209855	-0.651884	0.104327	99
48
Properties=species:S:1:pos:R:3:Z:I:1 energy=-289.2967939320964 field_type=dipole dipole="0.000000 0.000000 0.000000" charge=0
C	-2.521119	-0.143261	-0.644336	6
C	-1.022469	-0.016251	-0.821016	6
C	-0.306999	1.071150	0.008374	6
C	0.744051	-0.023991	0.319874	6
C	1.130002	-0.140261	1.788314	6
C	1.958511	-0.055361	-0.605846	6
N	-0.277829	-1.037181	-0.050476	7
H	-2.896929	-1.042781	-1.144176	1
H	-3.031569	0.718859	-1.087016	1
H	-2.809269	-0.196181	0.411644	1
H	-0.743039	0.006529	-1.882496	1
H	-0.873489	1.425060	0.878614	1
H	0.046731	1.940179	-0.554876	1
H	0.250741	-0.160441	2.442234	1
H	1.747551	0.711650	2.093264	1
H	1.704911	-1.054101	1.975944	1
H	1.677231	-0.005311	-1.663206	1
H	2.541041	-0.971710	-0.460306	1
H	2.617031	0.795870	-0.402626	1
H	0.064911	-1.822470	-0.601886	1
Es	-2.865104	0.451226	-0.950637	99
Es	0.271200	0.598835	0.195979	99
Es	0.209561	-0.652018	0.103864	99
Es	0.950655	-0.080746	1.065822	99
Es	-1.022407	-0.016329	-0.820923	99
Es	0.530790	-0.149139	2.226367	99
Es	-0.612524	-0.645102	-0.431986	99
Es	-0.060562	1.668992	-0.378741	99
Es	-0.467657	-1.131450	0.231808	99
Es	-2.709235	-0.174371	0.073922	99
Es	-1.785770	-0.076425	-0.736402	99
Es	2.405146	0.526363	-0.464723	99
Es	1.958507	-0.055359	-0.605845	99
Es	-2.521124	-0.143253	-0.644359	99
Es	-0.694122	1.302960	0.604952	99
Es	1.554798	0.447426	1.990786	99
Es	-0.720484	0.601004	-0.435949	99
Es	-0.306989	1.071116	0.008353	99
Es	1.359644	-0.032863	-0.155230	99
Es	-0.277550	-1.036990	-0.050891	99
Es	-0.829945	0.001076	-1.555899	99
Es	1.525394	-0.767411	1.909717	99
Es	1.130026	-0.140252	1.788316	99
Es	1.756996	-0.021351	-1.323904	99
Es	0.743973	-0.024071	0.319831	99
Es	-2.772430	-0.760985	-0.989330	99
Es	2.348741	-0.686129	-0.502378	99
Es	-0.056041	-1.511034	-0.401140	99
48
Properties=species:S:1:pos:R:3:Z:I:1 energy=-289.2967939320964 field_type=dipole dipole="0.000000 0.000000 0.000000" charge=0
C	-2.521119	-0.143261	-0.644336	6
C	-1.022469	-0.016251	-0.821016	6
C	-0.306999	1.071150	0.008374	6
C	0.744051	-0.023991	0.319874	6
C	1.130002	-0.140261	1.788314	6
C	1.958511	-0.055361	-0.605846	6
N	-0.277829	-1.037181	-0.050476	7
H	-2.896929	-1.042781	-1.144176	1
H	-3.031569	0.718859	-1.087016	1
H	-2.809269	-0.196181	0.411644	1
H	-0.743039	0.006529	-1.882496	1
H	-0.873489	1.425060	0.878614	1
H	0.046731	1.940179	-0.554876	1
H	0.250741	-0.160441	2.442234	1
H	1.747551	0.711650	2.093264	1
H	1.704911	-1.054101	1.975944	1
H	1.677231	-0.005311	-1.663206	1
H	2.541041	-0.971710	-0.460306	1
H	2.617031	0.795870	-0.402626	1
H	0.064911	-1.822470	-0.601886	1
Es	-2.772343	-0.760978	-0.989374	99
Es	1.525483	-0.767465	1.909852	99
Es	-0.720373	0.600888	-0.435971	99
Es	-0.694182	1.303099	0.605006	99
Es	-0.467852	-1.131482	0.231717	99
Es	1.554598	0.447477	1.990917	99
Es	1.130026	-0.140252	1.788316	99
Es	-2.709212	-0.174409	0.073996	99
Es	-2.521124	-0.143253	-0.644359	99
Es	1.958509	-0.055359	-0.605846	99
Es	-0.277521	-1.036983	-0.050942	99
Es	2.348813	-0.686116	-0.502473	99
Es	-0.612363	-0.645157	-0.431933	99
Es	2.405109	0.526605	-0.464727	99
Es	0.209620	-0.651945	0.104106	99
Es	0.530862	-0.149181	2.226176	99
Es	-0.306989	1.071117	0.008352	99
Es	-0.056082	-1.511020	-0.401233	99
Es	-2.865088	0.451261	-0.950675	99
Es	0.950709	-0.080724	1.065700	99
Es	1.757054	-0.021438	-1.323701	99
Es	-1.785873	-0.076360	-0.736301	99
Es	-1.022408	-0.016329	-0.820923	99
Es	-0.060586	1.668838	-0.378807	99
Es	-0.830012	0.001090	-1.555967	99
Es	0.743975	-0.024071	0.319831	99
Es	1.359554	-0.033113	-0.155335	99
Es	0.271181	0.598983	0.195979	99
48
Properties=species:S:1:pos:R:3:Z:I:1 energy=-289.2967939320964 field_type=dipole dipole="0.000000 0.000000 0.000000" charge=0
C	-2.521119	-0.143261	-0.644336	6
C	-1.022469	-0.016251	-0.821016	6
C	-0.306999	1.071150	0.008374	6
C	0.744051	-0.023991	0.319874	6
C	1.130002	-0.140261	1.788314	6
C	1.958511	-0.055361	-0.605846	6
N	-0.277829	-1.037181	-0.050476	7
H	-2.896929	-1.042781	-1.144176	1
H	-3.031569	0.718859	-1.087016	1
H	-2.809269	-0.196181	0.411644	1
H	-0.743039	0.006529	-1.882496	1
H	-0.873489	1.425060	0.878614	1
H	0.046731	1.940179	-0.554876	1
H	0.250741	-0.160441	2.442234	1
H	1.747551	0.711650	2.093264	1
H	1.704911	-1.054101	1.975944	1
H	1.677231	-0.005311	-1.663206	1
H	2.541041	-0.971710	-0.460306	1
H	2.617031	0.795870	-0.402626	1
H	0.064911	-1.822470	-0.601886	1
Es	0.950747	-0.080730	1.065556	99
Es	1.958508	-0.055359	-0.605846	99
Es	1.525433	-0.767484	1.909868	99
Es	0.209625	-0.652016	0.103989	99
Es	-0.060594	1.668878	-0.378784	99
Es	-0.830017	0.001101	-1.556017	99
Es	-1.785932	-0.076355	-0.736257	99
Es	1.130026	-0.140252	1.788315	99
Es	-0.277533	-1.036957	-0.050934	99
Es	2.405121	0.526492	-0.464656	99
Es	-2.865029	0.451255	-0.950661	99
Es	0.271190	0.599066	0.196067	99
Es	1.554653	0.447432	1.990883	99
Es	-0.720406	0.600867	-0.435997	99
Es	-0.467778	-1.131336	0.231745	99
Es	0.743974	-0.024071	0.319831	99
Es	-0.612320	-0.645171	-0.431899	99
Es	-0.694206	1.303058	0.604989	99
Es	-0.306993	1.071114	0.008350	99
Es	1.757049	-0.021330	-1.323784	99
Es	-1.022409	-0.016330	-0.820922	99
Es	-2.521120	-0.143249	-0.644355	99
Es	-2.709167	-0.174331	0.073988	99
Es	-2.772361	-0.761076	-0.989391	99
Es	0.530831	-0.149108	2.226194	99
Es	1.359570	-0.033100	-0.155229	99
Es	2.348793	-0.686116	-0.502517	99
Es	-0.056166	-1.511172	-0.401142	99
