37
Properties=species:S:1:pos:R:3:Z:I:1 energy=-321.5931914220838 field_type=dipole dipole="0.000000 0.000000 0.000000" charge=0
O	-2.331178	-0.333974	1.271648	8
C	-1.158628	-0.162014	1.053068	6
C	-0.203348	1.019196	0.826838	6
C	0.729932	-0.047594	0.215728	6
N	-0.167268	-1.058264	0.793268	7
C	0.754882	-0.144954	-1.226472	6
C	0.764962	-0.221434	-2.424992	6
H	0.149852	1.478976	1.754398	1
H	-0.584498	1.784966	0.147038	1
H	1.722082	-0.080674	0.679088	1
H	-0.443448	-1.947244	0.399468	1
H	0.766652	-0.286984	-3.489081	1
Es	0.754894	-0.144929	-1.226215	99
Es	0.764962	-0.221457	-2.425216	99
Es	0.940084	0.126048	-1.843577	99
Es	1.403891	-0.069506	0.504831	99
Es	-0.167517	-1.058059	0.792878	99
Es	0.250909	-0.680393	0.493754	99
Es	0.938147	-0.497174	-1.802282	99
Es	-2.330766	-0.333980	1.271570	99
Es	-0.313841	-1.579627	0.544920	99
Es	-1.982146	-0.255999	0.951450	99
Es	-0.732734	0.498720	0.973454	99
Es	-0.203328	1.019115	0.826822	99
Es	-0.456500	1.524427	0.370758	99
Es	0.037461	1.311288	1.445724	99
Es	-2.482288	-0.074081	1.315080	99
Es	0.766712	-0.264979	-3.115879	99
Es	-0.626390	-0.718862	0.832961	99
Es	0.398836	-0.183166	-1.826940	99
Es	0.745624	-0.088594	-0.533744	99
Es	-0.140841	-1.018061	1.104384	99
Es	-1.885291	-0.283194	1.445763	99
Es	0.729782	-0.047715	0.215683	99
Es	0.326875	0.538564	0.472428	99
Es	-2.386845	-0.633223	1.264665	99
Es	-1.158458	-0.162041	1.053047	99
37
Properties=species:S:1:pos:R:3:Z:I:1 energy=-321.5931914220838 field_type=dipole dipole="0.000000 0.000000 0.000000" charge=0
O	-2.331178	-0.333974	1.271648	8
C	-1.158628	-0.162014	1.053068	6
C	-0.203348	1.019196	0.826838	6
C	0.729932	-0.047594	0.215728	6
N	-0.167268	-1.058264	0.793268	7
C	0.754882	-0.144954	-1.226472	6
C	0.764962	-0.221434	-2.424992	6
H	0.149852	1.478976	1.754398	1
H	-0.584498	1.784966	0.147038	1
H	1.722082	-0.080674	0.679088	1
H	-0.443448	-1.947244	0.399468	1
H	0.766652	-0.286984	-3.489081	1
Es	0.990202	0.088032	-1.840731	99
Es	-0.732592	0.498689	0.971831	99
Es	-2.369702	-0.620506	1.268029	99
Es	-1.158463	-0.162041	1.053049	99
Es	0.037265	1.312638	1.447144	99
Es	0.887539	-0.508384	-1.800653	99
Es	-2.330860	-0.333973	1.271580	99
Es	-0.319799	-1.569241	0.537230	99
Es	0.764958	-0.221461	-2.425229	99
Es	-1.984319	-0.257367	0.938224	99
Es	-2.496671	-0.085648	1.321445	99
Es	1.403168	-0.069295	0.505960	99
Es	-0.203328	1.019115	0.826822	99
Es	0.397928	-0.133253	-1.831367	99
Es	-1.885714	-0.282938	1.450544	99
Es	0.744107	-0.088263	-0.535036	99
Es	0.769517	-0.265655	-3.116920	99
Es	-0.623406	-0.720070	0.830297	99
Es	0.729782	-0.047714	0.215681	99
Es	0.754885	-0.144937	-1.226210	99
Es	0.327869	0.536797	0.471775	99
Es	0.250023	-0.678817	0.492322	99
Es	-0.456764	1.522424	0.371755	99
Es	-0.167642	-1.057951	0.792762	99
Es	-0.136751	-1.027059	1.116018	99
37
Properties=species:S:1:pos:R:3:Z:I:1 energy=-321.5931914220838 field_type=dipole dipole="0.000000 0.000000 0.000000" charge=0
O	-2.331178	-0.333974	1.271648	8
C	-1.158628	-0.162014	1.053068	6
C	-0.203348	1.019196	0.826838	6
C	0.729932	-0.047594	0.215728	6
N	-0.167268	-1.058264	0.793268	7
C	0.754882	-0.144954	-1.226472	6
C	0.764962	-0.221434	-2.424992	6
H	0.149852	1.478976	1.754398	1
H	-0.584498	1.784966	0.147038	1
H	1.722082	-0.080674	0.679088	1
H	-0.443448	-1.947244	0.399468	1
H	0.766652	-0.286984	-3.489081	1
Es	0.328411	0.536144	0.471209	99
Es	1.001525	0.079067	-1.840020	99
Es	-1.158465	-0.162041	1.053044	99
Es	0.729782	-0.047716	0.215680	99
Es	0.764970	-0.221469	-2.425227	99
Es	-1.885456	-0.280626	1.451313	99
Es	1.402451	-0.069106	0.506463	99
Es	0.249772	-0.677961	0.491493	99
Es	-0.203328	1.019114	0.826822	99
Es	0.877238	-0.501116	-1.801006	99
Es	0.771061	-0.266050	-3.117321	99
Es	-1.988430	-0.253831	0.931613	99
Es	-0.167519	-1.058043	0.792848	99
Es	0.743269	-0.088084	-0.535732	99
Es	-0.134807	-1.032998	1.120881	99
Es	0.754869	-0.144933	-1.226206	99
Es	-2.330836	-0.333938	1.271583	99
Es	-2.343883	-0.609352	1.265387	99
Es	-0.621405	-0.720617	0.829998	99
Es	0.037028	1.313230	1.448086	99
Es	-0.732799	0.498692	0.970613	99
Es	-2.518516	-0.102678	1.330746	99
Es	-0.456543	1.521278	0.372705	99
Es	0.396384	-0.131221	-1.831736	99
Es	-0.323542	-1.562625	0.533081	99
37
Properties=species:S:1:pos:R:3:Z:I:1 energy=-321.5931914220838 field_type=dipole dipole="0.000000 0.000000 0.000000" charge=0
O	-2.331178	-0.333974	1.271648	8
C	-1.158628	-0.162014	1.053068	6
C	-0.203348	1.019196	0.826838	6
C	0.729932	-0.047594	0.215728	6
N	-0.167268	-1.058264	0.793268	7
C	0.754882	-0.144954	-1.226472	6
C	0.764962	-0.221434	-2.424992	6
H	0.149852	1.478976	1.754398	1
H	-0.584498	1.784966	0.147038	1
H	1.722082	-0.080674	0.679088	1
H	-0.443448	-1.947244	0.399468	1
H	0.766652	-0.286984	-3.489081	1
Es	-0.167481	-1.058082	0.792897	99
Es	-0.136805	-1.032531	1.126851	99
Es	-1.886449	-0.279495	1.451590	99
Es	-2.530490	-0.114017	1.335936	99
Es	-1.989834	-0.253488	0.927614	99
Es	0.328961	0.536038	0.470827	99
Es	-2.330910	-0.333940	1.271598	99
Es	0.754882	-0.144945	-1.226203	99
Es	-0.456587	1.520360	0.373473	99
Es	0.729781	-0.047711	0.215680	99
Es	-2.329220	-0.599501	1.264684	99
Es	1.401748	-0.069198	0.506541	99
Es	-1.158464	-0.162041	1.053038	99
Es	0.764973	-0.221475	-2.425232	99
Es	0.036775	1.313693	1.448656	99
Es	0.249818	-0.677619	0.491094	99
Es	0.399852	-0.111128	-1.833353	99
Es	-0.203328	1.019114	0.826822	99
Es	1.025689	0.058389	-1.838700	99
Es	-0.618501	-0.722525	0.824815	99
Es	0.742668	-0.087935	-0.536210	99
Es	-0.732844	0.498748	0.969719	99
Es	-0.324463	-1.560867	0.532421	99
Es	0.849629	-0.500002	-1.800764	99
Es	0.771830	-0.266722	-3.117476	99
37
Properties=species:S:1:pos:R:3:Z:I:1 energy=-321.5931914220838 field_type=dipole dipole="0.000000 0.000000 0.000000" charge=0
O	-2.331178	-0.333974	1.271648	8
C	-1.158628	-0.162014	1.053068	6
C	-0.203348	1.019196	0.826838	6
C	0.729932	-0.047594	0.215728	6
N	-0.167268	-1.058264	0.793268	7
C	0.754882	-0.144954	-1.226472	6
C	0.764962	-0.221434	-2.424992	6
H	0.149852	1.478976	1.754398	1
H	-0.584498	1.784966	0.147038	1
H	1.722082	-0.080674	0.679088	1
H	-0.443448	-1.947244	0.399468	1
H	0.766652	-0.286984	-3.489081	1
Es	0.742203	-0.087733	-0.536506	99
Es	0.036875	1.314005	1.448968	99
Es	0.407539	-0.086461	-1.835289	99
Es	0.820230	-0.501702	-1.800318	99
Es	0.729781	-0.047713	0.215681	99
Es	-0.615433	-0.724458	0.821209	99
Es	-1.992745	-0.254698	0.924070	99
Es	0.754879	-0.144967	-1.226203	99
Es	0.764963	-0.221453	-2.425230	99
Es	1.401187	-0.069110	0.506615	99
Es	-0.732890	0.498753	0.969457	99
Es	-1.885909	-0.278384	1.450468	99
Es	-0.203326	1.019114	0.826821	99
Es	1.047684	0.035665	-1.837234	99
Es	-0.325610	-1.559519	0.531743	99
Es	-0.456569	1.519738	0.374081	99
Es	-2.330786	-0.333887	1.271575	99
Es	-0.138456	-1.031941	1.131478	99
Es	-1.158468	-0.162040	1.053038	99
Es	0.329166	0.536036	0.470281	99
Es	-0.167485	-1.058095	0.792891	99
Es	0.772341	-0.267109	-3.117527	99
Es	-2.316612	-0.589004	1.264619	99
Es	0.249367	-0.677410	0.490469	99
Es	-2.540695	-0.124508	1.341161	99
37
Properties=species:S:1:pos:R:3:Z:I:1 energy=-321.5931914220838 field_type=dipole dipole="0.000000 0.000000 0.000000" charge=0
O	-2.331178	-0.333974	1.271648	8
C	-1.158628	-0.162014	1.053068	6
C	-0.203348	1.019196	0.826838	6
C	0.729932	-0.047594	0.215728	6
N	-0.167268	-1.058264	0.793268	7
C	0.754882	-0.144954	-1.226472	6
C	0.764962	-0.221434	-2.424992	6
H	0.149852	1.478976	1.754398	1
H	-0.584498	1.784966	0.147038	1
H	1.722082	-0.080674	0.679088	1
H	-0.443448	-1.947244	0.399468	1
H	0.766652	-0.286984	-3.489081	1
Es	-2.330592	-0.334242	1.271519	99
Es	-2.552580	-0.138879	1.347042	99
Es	0.329211	0.535922	0.470171	99
Es	-1.885297	-0.277613	1.449573	99
Es	-1.995530	-0.254319	0.921517	99
Es	-0.203328	1.019114	0.826822	99
Es	-0.732905	0.498915	0.969017	99
Es	-0.326945	-1.557968	0.530416	99
Es	-0.167531	-1.058055	0.792826	99
Es	1.018256	0.065826	-1.839116	99
Es	0.396933	-0.126823	-1.832274	99
Es	0.036707	1.314166	1.449292	99
Es	-0.614143	-0.724907	0.821506	99
Es	0.248966	-0.676968	0.490126	99
Es	0.764964	-0.221459	-2.425232	99
Es	1.400719	-0.069082	0.506700	99
Es	-0.456467	1.519362	0.374353	99
Es	-1.158468	-0.162039	1.053044	99
Es	-0.137892	-1.033341	1.132714	99
Es	0.729781	-0.047714	0.215679	99
Es	-2.302610	-0.575353	1.262600	99
Es	0.742319	-0.087680	-0.536740	99
Es	0.754871	-0.144946	-1.226203	99
Es	0.859833	-0.491681	-1.801438	99
Es	0.772959	-0.267116	-3.117599	99
37
Properties=species:S:1:pos:R:3:Z:I:1 energy=-321.5931914220838 field_type=dipole dipole="0.000000 0.000000 0.000000" charge=0
O	-2.331178	-0.333974	1.271648	8
C	-1.158628	-0.162014	1.053068	6
C	-0.203348	1.019196	0.826838	6
C	0.729932	-0.047594	0.215728	6
N	-0.167268	-1.058264	0.793268	7
C	0.754882	-0.144954	-1.226472	6
C	0.764962	-0.221434	-2.424992	6
H	0.149852	1.478976	1.754398	1
H	-0.584498	1.784966	0.147038	1
H	1.722082	-0.080674	0.679088	1
H	-0.443448	-1.947244	0.399468	1
H	0.766652	-0.286984	-3.489081	1
Es	0.729780	-0.047713	0.215681	99
Es	0.773249	-0.267500	-3.117594	99
Es	1.400257	-0.069206	0.506440	99
Es	0.764966	-0.221477	-2.425232	99
Es	0.754878	-0.144953	-1.226199	99
Es	-2.297276	-0.571141	1.262135	99
Es	-0.456486	1.518848	0.374927	99
Es	-1.995926	-0.254157	0.920679	99
Es	-1.158469	-0.162036	1.053035	99
Es	-0.326732	-1.558425	0.530748	99
Es	0.830016	-0.496527	-1.800743	99
Es	-0.141995	-1.030076	1.138154	99
Es	0.329503	0.536278	0.469978	99
Es	-2.330796	-0.333852	1.271581	99
Es	-2.556647	-0.144548	1.348981	99
Es	-0.732973	0.498955	0.968548	99
Es	0.404182	-0.098878	-1.834449	99
Es	-0.167541	-1.058052	0.792863	99
Es	-1.885822	-0.276769	1.449249	99
Es	0.249371	-0.677105	0.490325	99
Es	1.041114	0.043027	-1.837655	99
Es	0.036555	1.314350	1.449561	99
Es	0.741894	-0.087562	-0.536913	99
Es	-0.610545	-0.727474	0.815397	99
Es	-0.203326	1.019113	0.826823	99
37
Properties=species:S:1:pos:R:3:Z:I:1 energy=-321.5931914220838 field_type=dipole dipole="0.000000 0.000000 0.000000" charge=0
O	-2.331178	-0.333974	1.271648	8
C	-1.158628	-0.162014	1.053068	6
C	-0.203348	1.019196	0.826838	6
C	0.729932	-0.047594	0.215728	6
N	-0.167268	-1.058264	0.793268	7
C	0.754882	-0.144954	-1.226472	6
C	0.764962	-0.221434	-2.424992	6
H	0.149852	1.478976	1.754398	1
H	-0.584498	1.784966	0.147038	1
H	1.722082	-0.080674	0.679088	1
H	-0.443448	-1.947244	0.399468	1
H	0.766652	-0.286984	-3.489081	1
Es	0.764977	-0.221471	-2.425232	99
Es	0.773664	-0.267406	-3.117638	99
Es	1.399965	-0.069138	0.506610	99
Es	0.248741	-0.676734	0.490063	99
Es	0.754872	-0.144937	-1.226200	99
Es	-0.203330	1.019113	0.826822	99
Es	1.008445	0.074046	-1.839653	99
Es	0.871021	-0.487065	-1.801861	99
Es	0.729780	-0.047715	0.215679	99
Es	-2.330557	-0.333536	1.271547	99
Es	-2.564191	-0.155949	1.352349	99
Es	-1.158466	-0.162041	1.053044	99
Es	-0.732695	0.499101	0.968434	99
Es	-0.167460	-1.058102	0.792912	99
Es	0.395317	-0.139679	-1.831339	99
Es	-0.611171	-0.726774	0.817834	99
Es	-2.287817	-0.559244	1.262780	99
Es	-1.885739	-0.274620	1.448084	99
Es	0.036532	1.314288	1.449798	99
Es	-0.456603	1.518787	0.374975	99
Es	0.329455	0.536108	0.469732	99
Es	-0.327760	-1.556817	0.529563	99
Es	-0.139918	-1.032585	1.137049	99
Es	0.742266	-0.087497	-0.537031	99
Es	-1.998100	-0.257011	0.917999	99
37
Properties=species:S:1:pos:R:3:Z:I:1 energy=-321.5931914220838 field_type=dipole dipole="0.000000 0.000000 0.000000" charge=0
O	-2.331178	-0.333974	1.271648	8
C	-1.158628	-0.162014	1.053068	6
C	-0.203348	1.019196	0.826838	6
C	0.729932	-0.047594	0.215728	6
N	-0.167268	-1.058264	0.793268	7
C	0.754882	-0.144954	-1.226472	6
C	0.764962	-0.221434	-2.424992	6
H	0.149852	1.478976	1.754398	1
H	-0.584498	1.784966	0.147038	1
H	1.722082	-0.080674	0.679088	1
H	-0.443448	-1.947244	0.399468	1
H	0.766652	-0.286984	-3.489081	1
Es	-0.456488	1.518655	0.375108	99
Es	0.249371	-0.676971	0.490259	99
Es	-2.330798	-0.333883	1.271580	99
Es	-0.608218	-0.728910	0.812816	99
Es	0.329529	0.536149	0.469821	99
Es	0.742091	-0.087418	-0.537125	99
Es	1.020384	0.064097	-1.839013	99
Es	-1.998772	-0.258480	0.917073	99
Es	-0.203327	1.019111	0.826821	99
Es	0.036382	1.314300	1.449983	99
Es	1.399758	-0.069162	0.506537	99
Es	-0.732789	0.499190	0.968151	99
Es	0.764963	-0.221463	-2.425235	99
Es	-0.167477	-1.058115	0.792882	99
Es	-2.564049	-0.155080	1.355785	99
Es	-2.287340	-0.555744	1.262599	99
Es	-1.158472	-0.162041	1.053029	99
Es	-1.885385	-0.277239	1.445870	99
Es	0.773881	-0.267647	-3.117634	99
Es	-0.327490	-1.557065	0.529991	99
Es	0.397536	-0.127897	-1.832263	99
Es	0.856909	-0.488760	-1.801575	99
Es	0.754880	-0.144941	-1.226201	99
Es	-0.143629	-1.029854	1.141380	99
Es	0.729781	-0.047713	0.215680	99
37
Properties=species:S:1:pos:R:3:Z:I:1 energy=-321.5931914220838 field_type=dipole dipole="0.000000 0.000000 0.000000" charge=0
O	-2.331178	-0.333974	1.271648	8
C	-1.158628	-0.162014	1.053068	6
C	-0.203348	1.019196	0.826838	6
C	0.729932	-0.047594	0.215728	6
N	-0.167268	-1.058264	0.793268	7
C	0.754882	-0.144954	-1.226472	6
C	0.764962	-0.221434	-2.424992	6
H	0.149852	1.478976	1.754398	1
H	-0.584498	1.784966	0.147038	1
H	1.722082	-0.080674	0.679088	1
H	-0.443448	-1.947244	0.399468	1
H	0.766652	-0.286984	-3.489081	1
Es	0.729781	-0.047714	0.215680	99
Es	0.329634	0.536470	0.469837	99
Es	0.857394	-0.488558	-1.801582	99
Es	-2.568552	-0.163060	1.357985	99
Es	-2.281526	-0.551301	1.261785	99
Es	0.754859	-0.144935	-1.226198	99
Es	0.773979	-0.267801	-3.117641	99
Es	-0.203327	1.019113	0.826822	99
Es	0.248972	-0.676877	0.489842	99
Es	-1.885569	-0.275119	1.445000	99
Es	-2.330825	-0.333880	1.271584	99
Es	0.397529	-0.127657	-1.832280	99
Es	1.019996	0.063660	-1.838998	99
Es	0.764968	-0.221460	-2.425236	99
Es	-0.606993	-0.730007	0.810678	99
Es	-0.327092	-1.557660	0.530420	99
Es	-1.158469	-0.162037	1.053026	99
Es	0.036281	1.314428	1.450176	99
Es	-0.144738	-1.028220	1.143335	99
Es	1.399517	-0.069426	0.506324	99
Es	0.741968	-0.087280	-0.537196	99
Es	-0.732581	0.499199	0.967996	99
Es	-0.456688	1.518313	0.375372	99
Es	-1.999803	-0.256983	0.916704	99
Es	-0.167486	-1.058088	0.792884	99
37
Properties=species:S:1:pos:R:3:Z:I:1 energy=-321.5931914220838 field_type=dipole dipole="0.000000 0.000000 0.000000" charge=0
O	-2.331178	-0.333974	1.271648	8
C	-1.158628	-0.162014	1.053068	6
C	-0.203348	1.019196	0.826838	6
C	0.729932	-0.047594	0.215728	6
N	-0.167268	-1.058264	0.793268	7
C	0.754882	-0.144954	-1.226472	6
C	0.764962	-0.221434	-2.424992	6
H	0.149852	1.478976	1.754398	1
H	-0.584498	1.784966	0.147038	1
H	1.722082	-0.080674	0.679088	1
H	-0.443448	-1.947244	0.399468	1
H	0.766652	-0.286984	-3.489081	1
Es	-2.330617	-0.334417	1.271469	99
Es	-0.606679	-0.730168	0.811073	99
Es	1.399268	-0.069431	0.506266	99
Es	0.329753	0.536577	0.469659	99
Es	-2.281061	-0.546276	1.261208	99
Es	-0.327524	-1.557221	0.530104	99
Es	-1.885632	-0.277136	1.445846	99
Es	0.764966	-0.221469	-2.425235	99
Es	0.036227	1.314394	1.450268	99
Es	-1.999582	-0.257905	0.916133	99
Es	-0.144190	-1.028658	1.143496	99
Es	-0.456632	1.518200	0.375634	99
Es	-1.158468	-0.162038	1.053035	99
Es	1.015764	0.067541	-1.839252	99
Es	0.754873	-0.144938	-1.226198	99
Es	0.741981	-0.087288	-0.537282	99
Es	-2.569288	-0.164603	1.358606	99
Es	0.248501	-0.676668	0.489512	99
Es	-0.732606	0.499271	0.967879	99
Es	0.396347	-0.134095	-1.831788	99
Es	-0.167519	-1.058077	0.792856	99
Es	-0.203328	1.019113	0.826822	99
Es	0.729781	-0.047713	0.215680	99
Es	0.862732	-0.486078	-1.801825	99
Es	0.774164	-0.267797	-3.117647	99
37
Properties=species:S:1:pos:R:3:Z:I:1 energy=-321.5931914220838 field_type=dipole dipole="0.000000 0.000000 0.000000" charge=0
O	-2.331178	-0.333974	1.271648	8
C	-1.158628	-0.162014	1.053068	6
C	-0.203348	1.019196	0.826838	6
C	0.729932	-0.047594	0.215728	6
N	-0.167268	-1.058264	0.793268	7
C	0.754882	-0.144954	-1.226472	6
C	0.764962	-0.221434	-2.424992	6
H	0.149852	1.478976	1.754398	1
H	-0.584498	1.784966	0.147038	1
H	1.722082	-0.080674	0.679088	1
H	-0.443448	-1.947244	0.399468	1
H	0.766652	-0.286984	-3.489081	1
Es	-0.456593	1.518159	0.375606	99
Es	0.774138	-0.267872	-3.117642	99
Es	0.249072	-0.676937	0.489787	99
Es	0.036150	1.314396	1.450412	99
Es	-0.603487	-0.732574	0.806246	99
Es	-2.276860	-0.544996	1.262955	99
Es	-1.158470	-0.162037	1.053039	99
Es	0.754869	-0.144938	-1.226199	99
Es	-2.571750	-0.168828	1.359471	99
Es	0.764966	-0.221462	-2.425232	99
Es	-2.330808	-0.333823	1.271590	99
Es	0.404280	-0.101648	-1.834288	99
Es	0.329700	0.536700	0.469819	99
Es	0.830308	-0.493909	-1.800884	99
Es	-0.732592	0.499319	0.967651	99
Es	-0.148427	-1.025041	1.147293	99
Es	-2.000355	-0.259649	0.915359	99
Es	-0.203328	1.019114	0.826822	99
Es	-1.886353	-0.273052	1.444014	99
Es	0.741863	-0.087241	-0.537296	99
Es	-0.326997	-1.558275	0.530757	99
Es	1.399069	-0.069435	0.506172	99
Es	0.729782	-0.047713	0.215680	99
Es	1.040566	0.042934	-1.837672	99
Es	-0.167512	-1.058070	0.792859	99
37
Properties=species:S:1:pos:R:3:Z:I:1 energy=-321.5931914220838 field_type=dipole dipole="0.000000 0.000000 0.000000" charge=0
O	-2.331178	-0.333974	1.271648	8
C	-1.158628	-0.162014	1.053068	6
C	-0.203348	1.019196	0.826838	6
C	0.729932	-0.047594	0.215728	6
N	-0.167268	-1.058264	0.793268	7
C	0.754882	-0.144954	-1.226472	6
C	0.764962	-0.221434	-2.424992	6
H	0.149852	1.478976	1.754398	1
H	-0.584498	1.784966	0.147038	1
H	1.722082	-0.080674	0.679088	1
H	-0.443448	-1.947244	0.399468	1
H	0.766652	-0.286984	-3.489081	1
Es	-1.884976	-0.273836	1.443043	99
Es	-1.158469	-0.162039	1.053033	99
Es	0.036115	1.314395	1.450427	99
Es	-0.167507	-1.058079	0.792852	99
Es	1.398938	-0.069341	0.506286	99
Es	0.774314	-0.267911	-3.117649	99
Es	-2.330819	-0.333901	1.271582	99
Es	-0.456560	1.518069	0.375800	99
Es	0.729781	-0.047715	0.215680	99
Es	0.764972	-0.221470	-2.425234	99
Es	0.741784	-0.087372	-0.537398	99
Es	0.839884	-0.489940	-1.801295	99
Es	0.401080	-0.112399	-1.833463	99
Es	-0.604153	-0.731810	0.808331	99
Es	-2.002412	-0.261447	0.914225	99
Es	0.248609	-0.676791	0.489321	99
Es	-2.278625	-0.545397	1.263912	99
Es	-0.732637	0.499322	0.967615	99
Es	-0.203328	1.019113	0.826822	99
Es	0.329813	0.536577	0.469526	99
Es	0.754882	-0.144936	-1.226199	99
Es	-2.569272	-0.165776	1.360700	99
Es	-0.146466	-1.027073	1.146330	99
Es	1.034168	0.049843	-1.838093	99
Es	-0.327888	-1.556965	0.530164	99
37
Properties=species:S:1:pos:R:3:Z:I:1 energy=-321.5931914220838 field_type=dipole dipole="0.000000 0.000000 0.000000" charge=0
O	-2.331178	-0.333974	1.271648	8
C	-1.158628	-0.162014	1.053068	6
C	-0.203348	1.019196	0.826838	6
C	0.729932	-0.047594	0.215728	6
N	-0.167268	-1.058264	0.793268	7
C	0.754882	-0.144954	-1.226472	6
C	0.764962	-0.221434	-2.424992	6
H	0.149852	1.478976	1.754398	1
H	-0.584498	1.784966	0.147038	1
H	1.722082	-0.080674	0.679088	1
H	-0.443448	-1.947244	0.399468	1
H	0.766652	-0.286984	-3.489081	1
Es	-0.601635	-0.734082	0.803607	99
Es	0.729781	-0.047713	0.215680	99
Es	0.764968	-0.221462	-2.425234	99
Es	-2.573955	-0.173533	1.363636	99
Es	0.036014	1.314288	1.450586	99
Es	0.844942	-0.489753	-1.801345	99
Es	0.754871	-0.144937	-1.226199	99
Es	-0.150327	-1.022757	1.149601	99
Es	-2.273311	-0.537774	1.262597	99
Es	-0.326542	-1.559000	0.531339	99
Es	0.400011	-0.116226	-1.833165	99
Es	0.741857	-0.087253	-0.537351	99
Es	1.030174	0.053341	-1.838339	99
Es	0.774258	-0.267932	-3.117647	99
Es	0.329704	0.536704	0.469908	99
Es	-2.330919	-0.333963	1.271598	99
Es	-0.203331	1.019122	0.826819	99
Es	0.248727	-0.676852	0.489412	99
Es	-1.158470	-0.162040	1.053041	99
Es	-1.885347	-0.273746	1.441602	99
Es	1.398914	-0.069572	0.506143	99
Es	-0.167481	-1.058087	0.792871	99
Es	-0.732561	0.499421	0.967472	99
Es	-0.456556	1.518156	0.375664	99
Es	-2.002558	-0.261227	0.914022	99
37
Properties=species:S:1:pos:R:3:Z:I:1 energy=-321.5931914220838 field_type=dipole dipole="0.000000 0.000000 0.000000" charge=0
O	-2.331178	-0.333974	1.271648	8
C	-1.158628	-0.162014	1.053068	6
C	-0.203348	1.019196	0.826838	6
C	0.729932	-0.047594	0.215728	6
N	-0.167268	-1.058264	0.793268	7
C	0.754882	-0.144954	-1.226472	6
C	0.764962	-0.221434	-2.424992	6
H	0.149852	1.478976	1.754398	1
H	-0.584498	1.784966	0.147038	1
H	1.722082	-0.080674	0.679088	1
H	-0.443448	-1.947244	0.399468	1
H	0.766652	-0.286984	-3.489081	1
Es	0.764963	-0.221460	-2.425235	99
Es	-2.573807	-0.174513	1.361721	99
Es	-1.158472	-0.162039	1.053029	99
Es	-2.330906	-0.333955	1.271590	99
Es	0.742053	-0.085924	-0.537440	99
Es	-0.733245	0.499217	0.967710	99
Es	-1.885777	-0.274240	1.444185	99
Es	0.036403	1.314838	1.450167	99
Es	0.755256	0.131220	-1.845270	99
Es	0.329910	0.536850	0.469318	99
Es	-2.274117	-0.540716	1.260798	99
Es	-0.598399	-0.736090	0.800337	99
Es	1.398870	-0.069346	0.506146	99
Es	-0.326829	-1.559170	0.531247	99
Es	0.774567	-0.266916	-3.117703	99
Es	0.754864	-0.144935	-1.226199	99
Es	-0.203328	1.019113	0.826822	99
Es	-0.154575	-1.020294	1.152122	99
Es	-0.167433	-1.058138	0.792942	99
Es	-2.001470	-0.257162	0.915233	99
Es	1.082571	-0.331645	-1.813932	99
Es	0.729782	-0.047713	0.215680	99
Es	0.249717	-0.677047	0.490359	99
Es	-0.456177	1.517618	0.376204	99
Es	0.436809	-0.354434	-1.813512	99
37
Properties=species:S:1:pos:R:3:Z:I:1 energy=-321.5931914220838 field_type=dipole dipole="0.000000 0.000000 0.000000" charge=0
O	-2.331178	-0.333974	1.271648	8
C	-1.158628	-0.162014	1.053068	6
C	-0.203348	1.019196	0.826838	6
C	0.729932	-0.047594	0.215728	6
N	-0.167268	-1.058264	0.793268	7
C	0.754882	-0.144954	-1.226472	6
C	0.764962	-0.221434	-2.424992	6
H	0.149852	1.478976	1.754398	1
H	-0.584498	1.784966	0.147038	1
H	1.722082	-0.080674	0.679088	1
H	-0.443448	-1.947244	0.399468	1
H	0.766652	-0.286984	-3.489081	1
Es	0.764967	-0.221464	-2.425234	99
Es	-2.275937	-0.538423	1.262028	99
Es	0.329888	0.536776	0.469431	99
Es	-1.885467	-0.276651	1.442045	99
Es	-1.158470	-0.162039	1.053035	99
Es	-2.571568	-0.170376	1.364266	99
Es	-0.167514	-1.058062	0.792866	99
Es	0.774522	-0.268121	-3.117639	99
Es	0.729782	-0.047713	0.215679	99
Es	-2.330886	-0.333929	1.271589	99
Es	-0.601791	-0.733868	0.804584	99
Es	-2.002129	-0.260962	0.913751	99
Es	0.741694	-0.087179	-0.537513	99
Es	0.838062	-0.488769	-1.801360	99
Es	0.401303	-0.111801	-1.833515	99
Es	-0.203328	1.019113	0.826822	99
Es	0.248334	-0.676571	0.489125	99
Es	1.398644	-0.069517	0.506115	99
Es	-0.456658	1.517601	0.376168	99
Es	0.036043	1.314576	1.450670	99
Es	0.754875	-0.144939	-1.226197	99
Es	-0.149211	-1.024226	1.149524	99
Es	-0.732526	0.499439	0.967343	99
Es	1.035715	0.048099	-1.838015	99
Es	-0.327113	-1.557873	0.530751	99
37
Properties=species:S:1:pos:R:3:Z:I:1 energy=-321.5931914220838 field_type=dipole dipole="0.000000 0.000000 0.000000" charge=0
O	-2.331178	-0.333974	1.271648	8
C	-1.158628	-0.162014	1.053068	6
C	-0.203348	1.019196	0.826838	6
C	0.729932	-0.047594	0.215728	6
N	-0.167268	-1.058264	0.793268	7
C	0.754882	-0.144954	-1.226472	6
C	0.764962	-0.221434	-2.424992	6
H	0.149852	1.478976	1.754398	1
H	-0.584498	1.784966	0.147038	1
H	1.722082	-0.080674	0.679088	1
H	-0.443448	-1.947244	0.399468	1
H	0.766652	-0.286984	-3.489081	1
Es	-0.732573	0.499468	0.967394	99
Es	0.741798	-0.087160	-0.537513	99
Es	0.832195	-0.492840	-1.800974	99
Es	-0.167517	-1.058064	0.792853	99
Es	1.398477	-0.069517	0.506013	99
Es	0.729782	-0.047713	0.215681	99
Es	0.403860	-0.103010	-1.834169	99
Es	-2.330817	-0.333949	1.271561	99
Es	-0.203328	1.019114	0.826823	99
Es	0.036078	1.314680	1.450690	99
Es	0.754878	-0.144940	-1.226199	99
Es	1.039160	0.043368	-1.837711	99
Es	0.329902	0.536832	0.469490	99
Es	-1.885302	-0.274896	1.441045	99
Es	0.774433	-0.268161	-3.117651	99
Es	-2.574864	-0.177303	1.366188	99
Es	-0.600821	-0.734384	0.803772	99
Es	-0.327333	-1.557979	0.530506	99
Es	-1.158470	-0.162039	1.053035	99
Es	0.248382	-0.676705	0.489434	99
Es	0.764957	-0.221474	-2.425229	99
Es	-0.150093	-1.023583	1.150242	99
Es	-2.003467	-0.260910	0.913182	99
Es	-2.271513	-0.533246	1.261747	99
Es	-0.456573	1.517530	0.376113	99
37
Properties=species:S:1:pos:R:3:Z:I:1 energy=-321.5931914220838 field_type=dipole dipole="0.000000 0.000000 0.000000" charge=0
O	-2.331178	-0.333974	1.271648	8
C	-1.158628	-0.162014	1.053068	6
C	-0.203348	1.019196	0.826838	6
C	0.729932	-0.047594	0.215728	6
N	-0.167268	-1.058264	0.793268	7
C	0.754882	-0.144954	-1.226472	6
C	0.764962	-0.221434	-2.424992	6
H	0.149852	1.478976	1.754398	1
H	-0.584498	1.784966	0.147038	1
H	1.722082	-0.080674	0.679088	1
H	-0.443448	-1.947244	0.399468	1
H	0.766652	-0.286984	-3.489081	1
Es	0.754872	-0.144946	-1.226198	99
Es	0.729781	-0.047714	0.215680	99
Es	1.044985	0.037741	-1.837314	99
Es	0.764972	-0.221463	-2.425234	99
Es	-1.885821	-0.276731	1.442038	99
Es	-2.001503	-0.262946	0.913660	99
Es	-0.456608	1.517477	0.376400	99
Es	0.249530	-0.676936	0.489836	99
Es	0.824625	-0.492209	-1.800952	99
Es	0.741603	-0.087256	-0.537537	99
Es	-0.598537	-0.735819	0.801186	99
Es	-2.276048	-0.536231	1.262654	99
Es	-0.732634	0.499355	0.967283	99
Es	-0.327622	-1.557287	0.530417	99
Es	-0.167541	-1.058045	0.792820	99
Es	-0.153147	-1.022543	1.152500	99
Es	0.035994	1.314590	1.450685	99
Es	1.398444	-0.069537	0.506004	99
Es	0.405588	-0.098035	-1.834564	99
Es	-0.203328	1.019115	0.826823	99
Es	-2.572125	-0.170240	1.363931	99
Es	-1.158468	-0.162039	1.053037	99
Es	0.330000	0.537080	0.469300	99
Es	-2.330445	-0.334178	1.271518	99
Es	0.774664	-0.268085	-3.117653	99
37
Properties=species:S:1:pos:R:3:Z:I:1 energy=-321.5931914220838 field_type=dipole dipole="0.000000 0.000000 0.000000" charge=0
O	-2.331178	-0.333974	1.271648	8
C	-1.158628	-0.162014	1.053068	6
C	-0.203348	1.019196	0.826838	6
C	0.729932	-0.047594	0.215728	6
N	-0.167268	-1.058264	0.793268	7
C	0.754882	-0.144954	-1.226472	6
C	0.764962	-0.221434	-2.424992	6
H	0.149852	1.478976	1.754398	1
H	-0.584498	1.784966	0.147038	1
H	1.722082	-0.080674	0.679088	1
H	-0.443448	-1.947244	0.399468	1
H	0.766652	-0.286984	-3.489081	1
Es	-2.330518	-0.333772	1.271525	99
Es	-0.167487	-1.058105	0.792896	99
Es	0.402156	-0.109515	-1.833709	99
Es	0.249524	-0.677114	0.489666	99
Es	0.838060	-0.491066	-1.801164	99
Es	-0.203327	1.019114	0.826823	99
Es	0.764970	-0.221464	-2.425234	99
Es	1.034809	0.048138	-1.837977	99
Es	-0.155113	-1.019571	1.153985	99
Es	-0.456672	1.517582	0.376289	99
Es	0.035908	1.314521	1.450664	99
Es	0.741717	-0.087293	-0.537544	99
Es	-0.326146	-1.558988	0.531798	99
Es	0.774777	-0.268186	-3.117630	99
Es	-2.002299	-0.263678	0.913138	99
Es	0.329926	0.537122	0.469626	99
Es	0.754877	-0.144936	-1.226199	99
Es	-1.158469	-0.162040	1.053033	99
Es	0.729782	-0.047714	0.215680	99
Es	-0.597881	-0.736851	0.798259	99
Es	-0.732580	0.499433	0.967309	99
Es	-1.885692	-0.275171	1.442261	99
Es	-2.576278	-0.178214	1.364739	99
Es	-2.271149	-0.529414	1.262166	99
Es	1.398334	-0.069699	0.505918	99
37
Properties=species:S:1:pos:R:3:Z:I:1 energy=-321.5931914220838 field_type=dipole dipole="0.000000 0.000000 0.000000" charge=0
O	-2.331178	-0.333974	1.271648	8
C	-1.158628	-0.162014	1.053068	6
C	-0.203348	1.019196	0.826838	6
C	0.729932	-0.047594	0.215728	6
N	-0.167268	-1.058264	0.793268	7
C	0.754882	-0.144954	-1.226472	6
C	0.764962	-0.221434	-2.424992	6
H	0.149852	1.478976	1.754398	1
H	-0.584498	1.784966	0.147038	1
H	1.722082	-0.080674	0.679088	1
H	-0.443448	-1.947244	0.399468	1
H	0.766652	-0.286984	-3.489081	1
Es	0.741866	-0.087194	-0.537585	99
Es	0.035667	1.314347	1.451046	99
Es	0.774854	-0.268144	-3.117666	99
Es	0.398171	-0.129025	-1.832193	99
Es	-0.148055	-1.025248	1.149405	99
Es	-1.885705	-0.272042	1.441245	99
Es	0.330012	0.536901	0.469562	99
Es	0.764966	-0.221458	-2.425233	99
Es	-0.601801	-0.733809	0.805569	99
Es	0.858372	-0.487640	-1.801638	99
Es	0.729782	-0.047712	0.215679	99
Es	1.398341	-0.069657	0.506001	99
Es	-0.327663	-1.557136	0.530123	99
Es	-0.203329	1.019114	0.826822	99
Es	-2.004177	-0.264802	0.911867	99
Es	-0.456795	1.517613	0.376187	99
Es	1.018213	0.064074	-1.839030	99
Es	-2.266881	-0.524556	1.262870	99
Es	-0.167486	-1.058117	0.792886	99
Es	-2.578727	-0.185249	1.366439	99
Es	0.247770	-0.676229	0.488695	99
Es	-2.330374	-0.333515	1.271506	99
Es	-1.158475	-0.162041	1.053027	99
Es	-0.732188	0.499586	0.966933	99
Es	0.754872	-0.144937	-1.226198	99
37
Properties=species:S:1:pos:R:3:Z:I:1 energy=-321.5931914220838 field_type=dipole dipole="0.000000 0.000000 0.000000" charge=0
O	-2.331178	-0.333974	1.271648	8
C	-1.158628	-0.162014	1.053068	6
C	-0.203348	1.019196	0.826838	6
C	0.729932	-0.047594	0.215728	6
N	-0.167268	-1.058264	0.793268	7
C	0.754882	-0.144954	-1.226472	6
C	0.764962	-0.221434	-2.424992	6
H	0.149852	1.478976	1.754398	1
H	-0.584498	1.784966	0.147038	1
H	1.722082	-0.080674	0.679088	1
H	-0.443448	-1.947244	0.399468	1
H	0.766652	-0.286984	-3.489081	1
Es	0.754872	-0.144942	-1.226198	99
Es	-1.158468	-0.162040	1.053036	99
Es	0.764971	-0.221460	-2.425233	99
Es	0.774895	-0.268186	-3.117611	99
Es	0.249691	-0.677015	0.489613	99
Es	-0.203328	1.019114	0.826823	99
Es	1.031746	0.050888	-1.838166	99
Es	0.729781	-0.047714	0.215679	99
Es	-0.456694	1.517584	0.376290	99
Es	-0.597147	-0.737142	0.798210	99
Es	-0.326748	-1.558187	0.531265	99
Es	-2.330822	-0.333854	1.271584	99
Es	0.329828	0.537027	0.469547	99
Es	-0.167468	-1.058123	0.792929	99
Es	-2.577163	-0.180677	1.367068	99
Es	1.398392	-0.069684	0.506055	99
Es	-0.732428	0.499524	0.967099	99
Es	0.841790	-0.490825	-1.801221	99
Es	-2.003604	-0.264205	0.912455	99
Es	-1.885509	-0.274204	1.440323	99
Es	-0.155396	-1.020069	1.154533	99
Es	0.741746	-0.087329	-0.537541	99
Es	-2.268826	-0.527217	1.262400	99
Es	0.401358	-0.112571	-1.833498	99
Es	0.035761	1.314427	1.450879	99
37
Properties=species:S:1:pos:R:3:Z:I:1 energy=-321.5931914220838 field_type=dipole dipole="0.000000 0.000000 0.000000" charge=0
O	-2.331178	-0.333974	1.271648	8
C	-1.158628	-0.162014	1.053068	6
C	-0.203348	1.019196	0.826838	6
C	0.729932	-0.047594	0.215728	6
N	-0.167268	-1.058264	0.793268	7
C	0.754882	-0.144954	-1.226472	6
C	0.764962	-0.221434	-2.424992	6
H	0.149852	1.478976	1.754398	1
H	-0.584498	1.784966	0.147038	1
H	1.722082	-0.080674	0.679088	1
H	-0.443448	-1.947244	0.399468	1
H	0.766652	-0.286984	-3.489081	1
Es	-0.167507	-1.058056	0.792873	99
Es	-2.577853	-0.182234	1.367123	99
Es	-2.002861	-0.264134	0.912393	99
Es	-0.203329	1.019114	0.826822	99
Es	-1.885678	-0.276328	1.441579	99
Es	0.249749	-0.676902	0.489892	99
Es	-2.268680	-0.523607	1.261244	99
Es	0.729781	-0.047712	0.215681	99
Es	0.035676	1.314564	1.450881	99
Es	-2.330807	-0.333885	1.271584	99
Es	0.754871	-0.144949	-1.226197	99
Es	-0.154711	-1.021139	1.154005	99
Es	0.775090	-0.268290	-3.117588	99
Es	0.329931	0.536959	0.469674	99
Es	1.023148	0.059082	-1.838692	99
Es	-0.732356	0.499525	0.967123	99
Es	1.398325	-0.069620	0.505962	99
Es	-1.158466	-0.162040	1.053037	99
Es	0.852496	-0.488851	-1.801475	99
Es	0.764969	-0.221463	-2.425235	99
Es	-0.456750	1.517471	0.376196	99
Es	-0.597438	-0.736732	0.799112	99
Es	0.399069	-0.122690	-1.832743	99
Es	-0.327142	-1.557712	0.530647	99
Es	0.741701	-0.087248	-0.537580	99
37
Properties=species:S:1:pos:R:3:Z:I:1 energy=-321.5931914220838 field_type=dipole dipole="0.000000 0.000000 0.000000" charge=0
O	-2.331178	-0.333974	1.271648	8
C	-1.158628	-0.162014	1.053068	6
C	-0.203348	1.019196	0.826838	6
C	0.729932	-0.047594	0.215728	6
N	-0.167268	-1.058264	0.793268	7
C	0.754882	-0.144954	-1.226472	6
C	0.764962	-0.221434	-2.424992	6
H	0.149852	1.478976	1.754398	1
H	-0.584498	1.784966	0.147038	1
H	1.722082	-0.080674	0.679088	1
H	-0.443448	-1.947244	0.399468	1
H	0.766652	-0.286984	-3.489081	1
Es	-0.326824	-1.558161	0.531157	99
Es	-2.578952	-0.185012	1.365638	99
Es	0.329924	0.537225	0.469714	99
Es	0.764971	-0.221467	-2.425234	99
Es	0.774957	-0.268300	-3.117616	99
Es	1.397947	-0.069702	0.505772	99
Es	0.406710	-0.096119	-1.834746	99
Es	-0.167474	-1.058101	0.792886	99
Es	-0.456746	1.517412	0.376387	99
Es	0.754872	-0.144939	-1.226198	99
Es	-0.154064	-1.020677	1.153986	99
Es	0.035674	1.314477	1.451019	99
Es	0.741672	-0.087183	-0.537640	99
Es	1.044099	0.037822	-1.837344	99
Es	-0.597655	-0.736924	0.799256	99
Es	-2.003407	-0.263878	0.912438	99
Es	-2.266511	-0.526052	1.262735	99
Es	-0.203328	1.019114	0.826822	99
Es	0.249023	-0.676821	0.489131	99
Es	-1.158470	-0.162040	1.053034	99
Es	-2.330760	-0.333750	1.271578	99
Es	0.824291	-0.494218	-1.800779	99
Es	-1.886163	-0.271444	1.441698	99
Es	0.729781	-0.047713	0.215679	99
Es	-0.732338	0.499575	0.966946	99
37
Properties=species:S:1:pos:R:3:Z:I:1 energy=-321.5931914220838 field_type=dipole dipole="0.000000 0.000000 0.000000" charge=0
O	-2.331178	-0.333974	1.271648	8
C	-1.158628	-0.162014	1.053068	6
C	-0.203348	1.019196	0.826838	6
C	0.729932	-0.047594	0.215728	6
N	-0.167268	-1.058264	0.793268	7
C	0.754882	-0.144954	-1.226472	6
C	0.764962	-0.221434	-2.424992	6
H	0.149852	1.478976	1.754398	1
H	-0.584498	1.784966	0.147038	1
H	1.722082	-0.080674	0.679088	1
H	-0.443448	-1.947244	0.399468	1
H	0.766652	-0.286984	-3.489081	1
Es	0.729781	-0.047714	0.215679	99
Es	0.249267	-0.676774	0.489257	99
Es	0.831418	-0.491020	-1.801112	99
Es	-2.330752	-0.333818	1.271572	99
Es	-1.158469	-0.162040	1.053036	99
Es	0.403748	-0.103567	-1.834136	99
Es	-0.167502	-1.058077	0.792871	99
Es	1.398128	-0.069734	0.505917	99
Es	-0.597194	-0.736731	0.800031	99
Es	-2.269797	-0.528577	1.261721	99
Es	-2.004456	-0.262392	0.912292	99
Es	0.754871	-0.144938	-1.226197	99
Es	0.764971	-0.221462	-2.425235	99
Es	0.329949	0.537223	0.469410	99
Es	0.035689	1.314557	1.451042	99
Es	-1.885117	-0.275471	1.439726	99
Es	0.741646	-0.087289	-0.537614	99
Es	-2.575684	-0.179965	1.368761	99
Es	-0.203328	1.019113	0.826822	99
Es	1.039960	0.042202	-1.837620	99
Es	-0.153884	-1.021672	1.153858	99
Es	-0.456814	1.517229	0.376553	99
Es	0.774856	-0.268315	-3.117644	99
Es	-0.327803	-1.557241	0.530370	99
Es	-0.732254	0.499593	0.966957	99
37
Properties=species:S:1:pos:R:3:Z:I:1 energy=-321.5931914220838 field_type=dipole dipole="0.000000 0.000000 0.000000" charge=0
O	-2.331178	-0.333974	1.271648	8
C	-1.158628	-0.162014	1.053068	6
C	-0.203348	1.019196	0.826838	6
C	0.729932	-0.047594	0.215728	6
N	-0.167268	-1.058264	0.793268	7
C	0.754882	-0.144954	-1.226472	6
C	0.764962	-0.221434	-2.424992	6
H	0.149852	1.478976	1.754398	1
H	-0.584498	1.784966	0.147038	1
H	1.722082	-0.080674	0.679088	1
H	-0.443448	-1.947244	0.399468	1
H	0.766652	-0.286984	-3.489081	1
Es	-0.203328	1.019113	0.826822	99
Es	0.754863	-0.144936	-1.226198	99
Es	-2.330689	-0.334102	1.271555	99
Es	1.398131	-0.069650	0.505996	99
Es	-0.595237	-0.738319	0.796489	99
Es	1.042559	0.039891	-1.837477	99
Es	0.729782	-0.047711	0.215679	99
Es	-0.456700	1.517297	0.376678	99
Es	-2.272715	-0.529585	1.261380	99
Es	-0.732496	0.499524	0.967022	99
Es	0.741680	-0.087213	-0.537670	99
Es	-0.157171	-1.019053	1.156248	99
Es	0.403690	-0.102802	-1.834221	99
Es	-0.167496	-1.058093	0.792883	99
Es	0.828757	-0.489678	-1.801160	99
Es	-1.885189	-0.278250	1.440019	99
Es	-2.003349	-0.262831	0.912654	99
Es	-1.158471	-0.162040	1.053037	99
Es	0.764960	-0.221463	-2.425233	99
Es	0.774991	-0.268264	-3.117618	99
Es	-2.573867	-0.175423	1.368463	99
Es	0.249768	-0.677051	0.489756	99
Es	0.035703	1.314504	1.450911	99
Es	0.330078	0.537159	0.469160	99
Es	-0.327023	-1.557904	0.531144	99
37
Properties=species:S:1:pos:R:3:Z:I:1 energy=-321.5931914220838 field_type=dipole dipole="0.000000 0.000000 0.000000" charge=0
O	-2.331178	-0.333974	1.271648	8
C	-1.158628	-0.162014	1.053068	6
C	-0.203348	1.019196	0.826838	6
C	0.729932	-0.047594	0.215728	6
N	-0.167268	-1.058264	0.793268	7
C	0.754882	-0.144954	-1.226472	6
C	0.764962	-0.221434	-2.424992	6
H	0.149852	1.478976	1.754398	1
H	-0.584498	1.784966	0.147038	1
H	1.722082	-0.080674	0.679088	1
H	-0.443448	-1.947244	0.399468	1
H	0.766652	-0.286984	-3.489081	1
Es	1.025033	0.057271	-1.838565	99
Es	0.850186	-0.488629	-1.801468	99
Es	-0.327172	-1.557584	0.531133	99
Es	0.249286	-0.676987	0.489038	99
Es	1.398129	-0.069770	0.505960	99
Es	-2.266547	-0.521859	1.263105	99
Es	0.399470	-0.121294	-1.832857	99
Es	0.729781	-0.047714	0.215680	99
Es	-2.004203	-0.266951	0.911479	99
Es	-0.203328	1.019114	0.826823	99
Es	-2.578650	-0.184203	1.367409	99
Es	0.329987	0.537160	0.469469	99
Es	0.035554	1.314371	1.451079	99
Es	-1.885652	-0.273056	1.440482	99
Es	-0.596794	-0.737280	0.798396	99
Es	-0.732324	0.499573	0.966794	99
Es	-1.158469	-0.162040	1.053034	99
Es	-0.456758	1.517403	0.376530	99
Es	-2.330768	-0.334033	1.271576	99
Es	0.775285	-0.268129	-3.117601	99
Es	0.741681	-0.087249	-0.537639	99
Es	-0.167495	-1.058115	0.792886	99
Es	-0.154846	-1.020472	1.155006	99
Es	0.754871	-0.144940	-1.226197	99
Es	0.764972	-0.221468	-2.425234	99
