42
Properties=species:S:1:pos:R:3:Z:I:1 energy=-339.9524776739398 field_type=dipole dipole="0.000000 0.000000 0.000000" charge=0
O	0.135047	-2.384775	-0.188780	8
C	-0.543452	-1.331145	0.490200	6
C	0.272228	-0.044924	0.398350	6
C	0.420327	0.471605	-1.025140	6
C	0.262118	1.932755	-0.769770	6
N	-0.163882	2.255325	0.407580	7
N	-0.385202	1.086765	1.057220	7
H	-0.419683	-3.179494	-0.099520	1
H	-0.675122	-1.627835	1.536320	1
H	-1.533702	-1.210615	0.036650	1
H	1.271818	-0.199105	0.824490	1
H	-0.366442	0.146235	-1.711880	1
H	1.404957	0.267445	-1.452590	1
H	0.486157	2.667426	-1.555780	1
H	-0.165163	1.150335	2.052650	1
Es	-0.232193	1.652781	0.736517	99
Es	-1.224948	-1.240336	0.178928	99
Es	0.136186	-2.309849	-0.487951	99
Es	-0.235098	2.578709	0.578497	99
Es	1.082195	0.336328	-1.314688	99
Es	0.420318	0.471644	-1.025106	99
Es	0.352223	1.203722	-0.921982	99
Es	-0.636848	-1.529786	1.216963	99
Es	-0.177744	-2.800695	-0.129076	99
Es	-0.073892	0.599073	0.783268	99
Es	-0.704400	1.056538	1.005634	99
Es	0.272129	-0.044832	0.398385	99
Es	-0.135775	-1.998978	0.073665	99
Es	-0.237049	2.104900	-0.218759	99
Es	0.956283	-0.153794	0.693600	99
Es	-0.115250	0.254987	-1.480598	99
Es	0.315679	2.129437	-0.040236	99
Es	-0.137950	-0.688431	0.446529	99
Es	0.392154	-2.438915	-0.030723	99
Es	0.412160	2.428666	-1.303508	99
Es	0.344524	0.180615	-0.329075	99
Es	0.134784	-2.384821	-0.188638	99
Es	-0.163792	2.254773	0.407388	99
Es	0.262104	1.932754	-0.769804	99
Es	-0.543305	-1.331304	0.490093	99
Es	-0.226614	1.128779	1.648653	99
Es	-0.384487	1.086932	1.057184	99
42
Properties=species:S:1:pos:R:3:Z:I:1 energy=-339.9524776739398 field_type=dipole dipole="0.000000 0.000000 0.000000" charge=0
O	0.135047	-2.384775	-0.188780	8
C	-0.543452	-1.331145	0.490200	6
C	0.272228	-0.044924	0.398350	6
C	0.420327	0.471605	-1.025140	6
C	0.262118	1.932755	-0.769770	6
N	-0.163882	2.255325	0.407580	7
N	-0.385202	1.086765	1.057220	7
H	-0.419683	-3.179494	-0.099520	1
H	-0.675122	-1.627835	1.536320	1
H	-1.533702	-1.210615	0.036650	1
H	1.271818	-0.199105	0.824490	1
H	-0.366442	0.146235	-1.711880	1
H	1.404957	0.267445	-1.452590	1
H	0.486157	2.667426	-1.555780	1
H	-0.165163	1.150335	2.052650	1
Es	0.134771	-2.384788	-0.188649	99
Es	0.344709	0.180482	-0.329388	99
Es	-0.163778	2.254747	0.407352	99
Es	-0.132786	-2.000624	0.078359	99
Es	-0.114618	0.256765	-1.480166	99
Es	0.954267	-0.153715	0.693676	99
Es	-0.231465	1.653079	0.738612	99
Es	0.372859	-2.440377	-0.027006	99
Es	-0.176492	-2.800202	-0.126578	99
Es	1.082725	0.336790	-1.316064	99
Es	-0.074410	0.598758	0.784232	99
Es	-0.237375	2.104433	-0.219002	99
Es	0.262109	1.932753	-0.769806	99
Es	0.316360	2.128474	-0.040352	99
Es	-0.696225	1.059503	0.999834	99
Es	-0.543306	-1.331303	0.490094	99
Es	-0.234935	2.577783	0.576828	99
Es	0.420317	0.471643	-1.025106	99
Es	0.272127	-0.044833	0.398385	99
Es	-1.223101	-1.240254	0.178772	99
Es	-0.235741	1.126902	1.654542	99
Es	0.151209	-2.307025	-0.499274	99
Es	0.351650	1.202592	-0.922410	99
Es	-0.138032	-0.688368	0.446632	99
Es	-0.384609	1.086912	1.057191	99
Es	0.413052	2.428840	-1.304062	99
Es	-0.637889	-1.530073	1.218512	99
42
Properties=species:S:1:pos:R:3:Z:I:1 energy=-339.9524776739398 field_type=dipole dipole="0.000000 0.000000 0.000000" charge=0
O	0.135047	-2.384775	-0.188780	8
C	-0.543452	-1.331145	0.490200	6
C	0.272228	-0.044924	0.398350	6
C	0.420327	0.471605	-1.025140	6
C	0.262118	1.932755	-0.769770	6
N	-0.163882	2.255325	0.407580	7
N	-0.385202	1.086765	1.057220	7
H	-0.419683	-3.179494	-0.099520	1
H	-0.675122	-1.627835	1.536320	1
H	-1.533702	-1.210615	0.036650	1
H	1.271818	-0.199105	0.824490	1
H	-0.366442	0.146235	-1.711880	1
H	1.404957	0.267445	-1.452590	1
H	0.486157	2.667426	-1.555780	1
H	-0.165163	1.150335	2.052650	1
Es	0.345104	0.180718	-0.329516	99
Es	-0.131615	-2.001729	0.080910	99
Es	0.316427	2.127615	-0.040424	99
Es	-0.638596	-1.530224	1.219317	99
Es	-0.241775	1.125795	1.657569	99
Es	0.413975	2.428830	-1.304326	99
Es	-0.114410	0.257588	-1.479965	99
Es	-0.229960	1.652808	0.740357	99
Es	0.357983	-2.441020	-0.024945	99
Es	-0.238337	2.104291	-0.219556	99
Es	0.351026	1.201555	-0.922584	99
Es	-0.163774	2.254747	0.407351	99
Es	-0.175656	-2.799425	-0.125916	99
Es	-0.543307	-1.331303	0.490094	99
Es	-0.234025	2.577072	0.576142	99
Es	-0.691987	1.062019	0.996307	99
Es	0.952859	-0.153778	0.693651	99
Es	0.164100	-2.305916	-0.504773	99
Es	1.083282	0.337432	-1.316802	99
Es	-0.074716	0.598526	0.784923	99
Es	0.262117	1.932753	-0.769808	99
Es	0.420315	0.471644	-1.025111	99
Es	-0.138091	-0.688297	0.446692	99
Es	0.272128	-0.044831	0.398385	99
Es	-1.221936	-1.240149	0.178684	99
Es	-0.384470	1.086947	1.057171	99
Es	0.134733	-2.384774	-0.188670	99
42
Properties=species:S:1:pos:R:3:Z:I:1 energy=-339.9524776739398 field_type=dipole dipole="0.000000 0.000000 0.000000" charge=0
O	0.135047	-2.384775	-0.188780	8
C	-0.543452	-1.331145	0.490200	6
C	0.272228	-0.044924	0.398350	6
C	0.420327	0.471605	-1.025140	6
C	0.262118	1.932755	-0.769770	6
N	-0.163882	2.255325	0.407580	7
N	-0.385202	1.086765	1.057220	7
H	-0.419683	-3.179494	-0.099520	1
H	-0.675122	-1.627835	1.536320	1
H	-1.533702	-1.210615	0.036650	1
H	1.271818	-0.199105	0.824490	1
H	-0.366442	0.146235	-1.711880	1
H	1.404957	0.267445	-1.452590	1
H	0.486157	2.667426	-1.555780	1
H	-0.165163	1.150335	2.052650	1
Es	-0.246404	1.124869	1.659616	99
Es	0.262111	1.932753	-0.769807	99
Es	0.350734	1.200646	-0.922687	99
Es	0.171861	-2.303888	-0.506219	99
Es	-0.163776	2.254745	0.407349	99
Es	0.414309	2.428656	-1.304563	99
Es	0.952002	-0.153737	0.693572	99
Es	-0.229004	1.652678	0.741631	99
Es	-0.384444	1.086982	1.057155	99
Es	0.345247	0.181045	-0.329495	99
Es	-0.176349	-2.798553	-0.127786	99
Es	-0.543305	-1.331304	0.490092	99
Es	-0.638929	-1.530255	1.219793	99
Es	-1.221264	-1.240123	0.178745	99
Es	0.134867	-2.384799	-0.188631	99
Es	-0.137993	-0.688271	0.446608	99
Es	0.348768	-2.442741	-0.025364	99
Es	0.272127	-0.044833	0.398385	99
Es	-0.075029	0.598473	0.785366	99
Es	1.083749	0.337939	-1.317320	99
Es	-0.238967	2.104091	-0.219832	99
Es	-0.114366	0.258181	-1.479838	99
Es	-0.688419	1.063745	0.993912	99
Es	-0.234038	2.576233	0.575400	99
Es	-0.129696	-2.002797	0.084451	99
Es	0.317284	2.127520	-0.040264	99
Es	0.420317	0.471642	-1.025107	99
42
Properties=species:S:1:pos:R:3:Z:I:1 energy=-339.9524776739398 field_type=dipole dipole="0.000000 0.000000 0.000000" charge=0
O	0.135047	-2.384775	-0.188780	8
C	-0.543452	-1.331145	0.490200	6
C	0.272228	-0.044924	0.398350	6
C	0.420327	0.471605	-1.025140	6
C	0.262118	1.932755	-0.769770	6
N	-0.163882	2.255325	0.407580	7
N	-0.385202	1.086765	1.057220	7
H	-0.419683	-3.179494	-0.099520	1
H	-0.675122	-1.627835	1.536320	1
H	-1.533702	-1.210615	0.036650	1
H	1.271818	-0.199105	0.824490	1
H	-0.366442	0.146235	-1.711880	1
H	1.404957	0.267445	-1.452590	1
H	0.486157	2.667426	-1.555780	1
H	-0.165163	1.150335	2.052650	1
Es	0.338895	-2.443402	-0.025009	99
Es	0.420317	0.471642	-1.025106	99
Es	0.134720	-2.384827	-0.188618	99
Es	-0.176752	-2.797046	-0.127435	99
Es	0.262114	1.932752	-0.769808	99
Es	0.345322	0.181324	-0.329472	99
Es	-0.543304	-1.331306	0.490093	99
Es	-0.228661	1.652822	0.742696	99
Es	1.084038	0.338269	-1.317550	99
Es	-1.220755	-1.240120	0.178790	99
Es	0.951357	-0.153729	0.693417	99
Es	-0.687548	1.064281	0.992857	99
Es	0.350549	1.199844	-0.922719	99
Es	-0.128555	-2.002357	0.085456	99
Es	-0.114474	0.258652	-1.479910	99
Es	-0.384473	1.086972	1.057130	99
Es	-0.233321	2.575838	0.574772	99
Es	0.181143	-2.305089	-0.508072	99
Es	0.414666	2.428494	-1.304712	99
Es	-0.138021	-0.688208	0.446692	99
Es	-0.074740	0.598928	0.785910	99
Es	-0.239534	2.103996	-0.220166	99
Es	0.317429	2.126979	-0.040272	99
Es	-0.248129	1.124585	1.660400	99
Es	-0.639237	-1.530306	1.220051	99
Es	-0.163780	2.254739	0.407358	99
Es	0.272127	-0.044833	0.398385	99
42
Properties=species:S:1:pos:R:3:Z:I:1 energy=-339.9524776739398 field_type=dipole dipole="0.000000 0.000000 0.000000" charge=0
O	0.135047	-2.384775	-0.188780	8
C	-0.543452	-1.331145	0.490200	6
C	0.272228	-0.044924	0.398350	6
C	0.420327	0.471605	-1.025140	6
C	0.262118	1.932755	-0.769770	6
N	-0.163882	2.255325	0.407580	7
N	-0.385202	1.086765	1.057220	7
H	-0.419683	-3.179494	-0.099520	1
H	-0.675122	-1.627835	1.536320	1
H	-1.533702	-1.210615	0.036650	1
H	1.271818	-0.199105	0.824490	1
H	-0.366442	0.146235	-1.711880	1
H	1.404957	0.267445	-1.452590	1
H	0.486157	2.667426	-1.555780	1
H	-0.165163	1.150335	2.052650	1
Es	0.350132	1.199008	-0.922951	99
Es	-0.250070	1.124304	1.661173	99
Es	-0.137982	-0.688135	0.446619	99
Es	-0.126426	-2.003092	0.089297	99
Es	0.181325	-2.304148	-0.508885	99
Es	0.950735	-0.153839	0.693417	99
Es	-0.227921	1.652446	0.743333	99
Es	-0.686691	1.065165	0.991555	99
Es	-1.220458	-1.240065	0.178765	99
Es	0.262115	1.932752	-0.769808	99
Es	-0.639384	-1.530284	1.220295	99
Es	0.134748	-2.384796	-0.188607	99
Es	0.345471	0.181707	-0.329311	99
Es	0.335344	-2.443006	-0.028759	99
Es	-0.233149	2.575354	0.574526	99
Es	0.272127	-0.044832	0.398385	99
Es	-0.074689	0.599158	0.786345	99
Es	-0.543305	-1.331305	0.490091	99
Es	-0.239904	2.103988	-0.220334	99
Es	-0.114459	0.259030	-1.479695	99
Es	1.084449	0.338627	-1.317970	99
Es	-0.384449	1.086951	1.057167	99
Es	-0.175559	-2.797624	-0.126775	99
Es	0.420318	0.471644	-1.025106	99
Es	-0.163791	2.254764	0.407385	99
Es	0.414878	2.428373	-1.304885	99
Es	0.317988	2.126750	-0.040106	99
42
Properties=species:S:1:pos:R:3:Z:I:1 energy=-339.9524776739398 field_type=dipole dipole="0.000000 0.000000 0.000000" charge=0
O	0.135047	-2.384775	-0.188780	8
C	-0.543452	-1.331145	0.490200	6
C	0.272228	-0.044924	0.398350	6
C	0.420327	0.471605	-1.025140	6
C	0.262118	1.932755	-0.769770	6
N	-0.163882	2.255325	0.407580	7
N	-0.385202	1.086765	1.057220	7
H	-0.419683	-3.179494	-0.099520	1
H	-0.675122	-1.627835	1.536320	1
H	-1.533702	-1.210615	0.036650	1
H	1.271818	-0.199105	0.824490	1
H	-0.366442	0.146235	-1.711880	1
H	1.404957	0.267445	-1.452590	1
H	0.486157	2.667426	-1.555780	1
H	-0.165163	1.150335	2.052650	1
Es	-0.543305	-1.331304	0.490094	99
Es	0.185345	-2.304953	-0.509737	99
Es	0.134708	-2.384782	-0.188593	99
Es	0.330538	-2.443176	-0.029235	99
Es	-0.125175	-2.002925	0.089861	99
Es	-0.163773	2.254743	0.407346	99
Es	0.262103	1.932752	-0.769809	99
Es	-0.227680	1.652425	0.743693	99
Es	-1.220072	-1.240097	0.178806	99
Es	-0.384451	1.087024	1.057098	99
Es	0.349846	1.198537	-0.922891	99
Es	1.084658	0.339044	-1.318082	99
Es	0.950278	-0.153786	0.693274	99
Es	-0.232965	2.575309	0.574403	99
Es	-0.251084	1.124080	1.661660	99
Es	-0.138019	-0.688150	0.446614	99
Es	0.420318	0.471643	-1.025106	99
Es	-0.074750	0.599415	0.786628	99
Es	-0.240208	2.103804	-0.220494	99
Es	-0.114600	0.259108	-1.479756	99
Es	0.318049	2.126354	-0.040156	99
Es	0.345755	0.182038	-0.329275	99
Es	-0.175952	-2.796762	-0.126118	99
Es	-0.685867	1.065514	0.991121	99
Es	-0.639632	-1.530343	1.220456	99
Es	0.272127	-0.044832	0.398386	99
Es	0.415199	2.428212	-1.305026	99
42
Properties=species:S:1:pos:R:3:Z:I:1 energy=-339.9524776739398 field_type=dipole dipole="0.000000 0.000000 0.000000" charge=0
O	0.135047	-2.384775	-0.188780	8
C	-0.543452	-1.331145	0.490200	6
C	0.272228	-0.044924	0.398350	6
C	0.420327	0.471605	-1.025140	6
C	0.262118	1.932755	-0.769770	6
N	-0.163882	2.255325	0.407580	7
N	-0.385202	1.086765	1.057220	7
H	-0.419683	-3.179494	-0.099520	1
H	-0.675122	-1.627835	1.536320	1
H	-1.533702	-1.210615	0.036650	1
H	1.271818	-0.199105	0.824490	1
H	-0.366442	0.146235	-1.711880	1
H	1.404957	0.267445	-1.452590	1
H	0.486157	2.667426	-1.555780	1
H	-0.165163	1.150335	2.052650	1
Es	0.420317	0.471645	-1.025108	99
Es	-0.124758	-2.003452	0.091419	99
Es	-0.176640	-2.795828	-0.128304	99
Es	-1.219946	-1.239994	0.178775	99
Es	-0.543314	-1.331302	0.490098	99
Es	-0.232638	2.574611	0.573930	99
Es	0.262108	1.932751	-0.769811	99
Es	-0.639674	-1.530340	1.220575	99
Es	0.949943	-0.153808	0.693266	99
Es	-0.163771	2.254731	0.407340	99
Es	0.415132	2.428088	-1.305185	99
Es	-0.384461	1.086966	1.057166	99
Es	0.318460	2.126476	-0.040048	99
Es	-0.075378	0.598955	0.786395	99
Es	0.324360	-2.444113	-0.029018	99
Es	0.345741	0.182120	-0.329329	99
Es	-0.240588	2.103952	-0.220652	99
Es	-0.684860	1.066889	0.990523	99
Es	-0.227091	1.652263	0.744679	99
Es	0.191795	-2.304391	-0.509264	99
Es	-0.114646	0.259387	-1.479865	99
Es	0.272127	-0.044832	0.398386	99
Es	-0.252246	1.123781	1.662162	99
Es	1.084820	0.339229	-1.318121	99
Es	0.349863	1.198048	-0.922849	99
Es	-0.137912	-0.688151	0.446706	99
Es	0.134652	-2.384785	-0.188708	99
42
Properties=species:S:1:pos:R:3:Z:I:1 energy=-339.9524776739398 field_type=dipole dipole="0.000000 0.000000 0.000000" charge=0
O	0.135047	-2.384775	-0.188780	8
C	-0.543452	-1.331145	0.490200	6
C	0.272228	-0.044924	0.398350	6
C	0.420327	0.471605	-1.025140	6
C	0.262118	1.932755	-0.769770	6
N	-0.163882	2.255325	0.407580	7
N	-0.385202	1.086765	1.057220	7
H	-0.419683	-3.179494	-0.099520	1
H	-0.675122	-1.627835	1.536320	1
H	-1.533702	-1.210615	0.036650	1
H	1.271818	-0.199105	0.824490	1
H	-0.366442	0.146235	-1.711880	1
H	1.404957	0.267445	-1.452590	1
H	0.486157	2.667426	-1.555780	1
H	-0.165163	1.150335	2.052650	1
Es	-0.253580	1.123613	1.662468	99
Es	0.322350	-2.443590	-0.031150	99
Es	-1.219691	-1.240006	0.178766	99
Es	-0.543306	-1.331303	0.490095	99
Es	1.084901	0.339373	-1.318349	99
Es	0.272127	-0.044832	0.398386	99
Es	-0.384556	1.086924	1.057187	99
Es	-0.232274	2.574462	0.573906	99
Es	0.949818	-0.153743	0.693158	99
Es	0.134741	-2.384809	-0.188684	99
Es	0.191801	-2.304206	-0.509651	99
Es	0.345744	0.182396	-0.329117	99
Es	-0.684559	1.066956	0.989613	99
Es	-0.639864	-1.530294	1.220701	99
Es	-0.240856	2.103941	-0.220766	99
Es	-0.163775	2.254733	0.407347	99
Es	0.349623	1.197758	-0.922999	99
Es	0.262113	1.932752	-0.769809	99
Es	0.415341	2.428057	-1.305309	99
Es	-0.226710	1.652181	0.745093	99
Es	-0.176016	-2.796142	-0.127651	99
Es	-0.114714	0.259500	-1.479736	99
Es	0.318543	2.126034	-0.040044	99
Es	-0.137930	-0.688196	0.446685	99
Es	-0.123400	-2.003808	0.093234	99
Es	-0.074796	0.599498	0.786891	99
Es	0.420317	0.471644	-1.025106	99
42
Properties=species:S:1:pos:R:3:Z:I:1 energy=-339.9524776739398 field_type=dipole dipole="0.000000 0.000000 0.000000" charge=0
O	0.135047	-2.384775	-0.188780	8
C	-0.543452	-1.331145	0.490200	6
C	0.272228	-0.044924	0.398350	6
C	0.420327	0.471605	-1.025140	6
C	0.262118	1.932755	-0.769770	6
N	-0.163882	2.255325	0.407580	7
N	-0.385202	1.086765	1.057220	7
H	-0.419683	-3.179494	-0.099520	1
H	-0.675122	-1.627835	1.536320	1
H	-1.533702	-1.210615	0.036650	1
H	1.271818	-0.199105	0.824490	1
H	-0.366442	0.146235	-1.711880	1
H	1.404957	0.267445	-1.452590	1
H	0.486157	2.667426	-1.555780	1
H	-0.165163	1.150335	2.052650	1
Es	-0.176611	-2.795166	-0.128913	99
Es	-0.163777	2.254742	0.407352	99
Es	0.420317	0.471644	-1.025107	99
Es	-0.683810	1.066808	0.989379	99
Es	-1.219536	-1.240000	0.178830	99
Es	0.318940	-2.444457	-0.031552	99
Es	0.949512	-0.153859	0.693212	99
Es	-0.543306	-1.331305	0.490094	99
Es	1.085116	0.339731	-1.318255	99
Es	-0.639909	-1.530309	1.220785	99
Es	-0.384481	1.086956	1.057164	99
Es	-0.074635	0.599757	0.787113	99
Es	0.345878	0.182612	-0.329073	99
Es	-0.231912	2.574436	0.573820	99
Es	-0.226957	1.652330	0.745127	99
Es	0.134770	-2.384804	-0.188675	99
Es	-0.114811	0.259633	-1.479966	99
Es	0.349687	1.197168	-0.922936	99
Es	-0.122519	-2.004005	0.094656	99
Es	0.415566	2.427973	-1.305318	99
Es	0.318274	2.125869	-0.040107	99
Es	0.194856	-2.304102	-0.509490	99
Es	0.272128	-0.044835	0.398384	99
Es	-0.254346	1.123526	1.662801	99
Es	-0.138006	-0.688069	0.446585	99
Es	-0.241149	2.103871	-0.220942	99
Es	0.262114	1.932752	-0.769809	99
42
Properties=species:S:1:pos:R:3:Z:I:1 energy=-339.9524776739398 field_type=dipole dipole="0.000000 0.000000 0.000000" charge=0
O	0.135047	-2.384775	-0.188780	8
C	-0.543452	-1.331145	0.490200	6
C	0.272228	-0.044924	0.398350	6
C	0.420327	0.471605	-1.025140	6
C	0.262118	1.932755	-0.769770	6
N	-0.163882	2.255325	0.407580	7
N	-0.385202	1.086765	1.057220	7
H	-0.419683	-3.179494	-0.099520	1
H	-0.675122	-1.627835	1.536320	1
H	-1.533702	-1.210615	0.036650	1
H	1.271818	-0.199105	0.824490	1
H	-0.366442	0.146235	-1.711880	1
H	1.404957	0.267445	-1.452590	1
H	0.486157	2.667426	-1.555780	1
H	-0.165163	1.150335	2.052650	1
Es	0.272127	-0.044832	0.398386	99
Es	-0.384453	1.086957	1.057163	99
Es	-0.543306	-1.331303	0.490095	99
Es	-0.254953	1.123304	1.663029	99
Es	0.195059	-2.303025	-0.509455	99
Es	-0.075105	0.599547	0.787058	99
Es	-0.226299	1.651982	0.745690	99
Es	0.262119	1.932752	-0.769807	99
Es	-0.241054	2.103884	-0.220883	99
Es	0.134729	-2.384777	-0.188577	99
Es	-0.683620	1.067782	0.988958	99
Es	0.318946	2.125967	-0.039960	99
Es	-0.232185	2.574135	0.573545	99
Es	-0.137931	-0.688074	0.446578	99
Es	0.345765	0.182781	-0.328998	99
Es	0.349541	1.196738	-0.923042	99
Es	-0.163773	2.254737	0.407346	99
Es	-1.219394	-1.239998	0.178820	99
Es	-0.175799	-2.795991	-0.128981	99
Es	0.415388	2.427834	-1.305464	99
Es	1.085234	0.339787	-1.318489	99
Es	0.317519	-2.443739	-0.033201	99
Es	0.949353	-0.153821	0.693156	99
Es	-0.122063	-2.004967	0.096229	99
Es	-0.114777	0.259894	-1.479808	99
Es	-0.639993	-1.530301	1.220877	99
Es	0.420317	0.471644	-1.025106	99
42
Properties=species:S:1:pos:R:3:Z:I:1 energy=-339.9524776739398 field_type=dipole dipole="0.000000 0.000000 0.000000" charge=0
O	0.135047	-2.384775	-0.188780	8
C	-0.543452	-1.331145	0.490200	6
C	0.272228	-0.044924	0.398350	6
C	0.420327	0.471605	-1.025140	6
C	0.262118	1.932755	-0.769770	6
N	-0.163882	2.255325	0.407580	7
N	-0.385202	1.086765	1.057220	7
H	-0.419683	-3.179494	-0.099520	1
H	-0.675122	-1.627835	1.536320	1
H	-1.533702	-1.210615	0.036650	1
H	1.271818	-0.199105	0.824490	1
H	-0.366442	0.146235	-1.711880	1
H	1.404957	0.267445	-1.452590	1
H	0.486157	2.667426	-1.555780	1
H	-0.165163	1.150335	2.052650	1
Es	0.949187	-0.153803	0.693131	99
Es	0.314915	-2.443667	-0.034340	99
Es	0.134796	-2.384809	-0.188678	99
Es	-0.683508	1.068025	0.988490	99
Es	0.349647	1.196304	-0.923223	99
Es	0.415560	2.427891	-1.305400	99
Es	-0.225925	1.651920	0.746062	99
Es	0.196121	-2.304078	-0.510142	99
Es	-0.231882	2.574087	0.573444	99
Es	1.085326	0.339900	-1.318422	99
Es	-1.219385	-1.239939	0.178789	99
Es	0.345838	0.183145	-0.328903	99
Es	-0.255566	1.123277	1.663147	99
Es	-0.120571	-2.004667	0.097149	99
Es	-0.241287	2.103870	-0.220961	99
Es	-0.074969	0.599617	0.787276	99
Es	0.272127	-0.044834	0.398384	99
Es	-0.639985	-1.530277	1.220926	99
Es	-0.543304	-1.331306	0.490092	99
Es	0.262119	1.932752	-0.769808	99
Es	-0.114962	0.259880	-1.479921	99
Es	0.420317	0.471645	-1.025109	99
Es	-0.137858	-0.688109	0.446647	99
Es	0.318782	2.125679	-0.040025	99
Es	-0.163774	2.254739	0.407346	99
Es	-0.384530	1.086930	1.057184	99
Es	-0.175836	-2.795279	-0.127977	99
42
Properties=species:S:1:pos:R:3:Z:I:1 energy=-339.9524776739398 field_type=dipole dipole="0.000000 0.000000 0.000000" charge=0
O	0.135047	-2.384775	-0.188780	8
C	-0.543452	-1.331145	0.490200	6
C	0.272228	-0.044924	0.398350	6
C	0.420327	0.471605	-1.025140	6
C	0.262118	1.932755	-0.769770	6
N	-0.163882	2.255325	0.407580	7
N	-0.385202	1.086765	1.057220	7
H	-0.419683	-3.179494	-0.099520	1
H	-0.675122	-1.627835	1.536320	1
H	-1.533702	-1.210615	0.036650	1
H	1.271818	-0.199105	0.824490	1
H	-0.366442	0.146235	-1.711880	1
H	1.404957	0.267445	-1.452590	1
H	0.486157	2.667426	-1.555780	1
H	-0.165163	1.150335	2.052650	1
Es	0.949103	-0.153872	0.693150	99
Es	-0.384475	1.086983	1.057130	99
Es	-0.225721	1.651706	0.746593	99
Es	0.311415	-2.443072	-0.033855	99
Es	-0.640092	-1.530322	1.220963	99
Es	-0.255383	1.123293	1.663223	99
Es	-0.175558	-2.795074	-0.127734	99
Es	-0.137912	-0.687991	0.446638	99
Es	-0.684037	1.068317	0.988306	99
Es	-0.231425	2.574213	0.573300	99
Es	-0.543305	-1.331305	0.490094	99
Es	0.272127	-0.044833	0.398384	99
Es	0.415512	2.427762	-1.305615	99
Es	0.345950	0.183013	-0.328865	99
Es	-0.121483	-2.004475	0.096299	99
Es	-0.115014	0.260051	-1.480001	99
Es	-0.074967	0.599750	0.787246	99
Es	0.262113	1.932752	-0.769810	99
Es	0.420317	0.471644	-1.025106	99
Es	1.085272	0.340156	-1.318518	99
Es	-1.219227	-1.239936	0.178826	99
Es	0.134826	-2.384829	-0.188674	99
Es	-0.163773	2.254741	0.407345	99
Es	-0.241206	2.103860	-0.220958	99
Es	0.318645	2.125298	-0.040079	99
Es	0.200205	-2.305021	-0.510079	99
Es	0.349485	1.196087	-0.923042	99
42
Properties=species:S:1:pos:R:3:Z:I:1 energy=-339.9524776739398 field_type=dipole dipole="0.000000 0.000000 0.000000" charge=0
O	0.135047	-2.384775	-0.188780	8
C	-0.543452	-1.331145	0.490200	6
C	0.272228	-0.044924	0.398350	6
C	0.420327	0.471605	-1.025140	6
C	0.262118	1.932755	-0.769770	6
N	-0.163882	2.255325	0.407580	7
N	-0.385202	1.086765	1.057220	7
H	-0.419683	-3.179494	-0.099520	1
H	-0.675122	-1.627835	1.536320	1
H	-1.533702	-1.210615	0.036650	1
H	1.271818	-0.199105	0.824490	1
H	-0.366442	0.146235	-1.711880	1
H	1.404957	0.267445	-1.452590	1
H	0.486157	2.667426	-1.555780	1
H	-0.165163	1.150335	2.052650	1
Es	-0.119669	-2.005071	0.098223	99
Es	0.420317	0.471643	-1.025107	99
Es	-0.231935	2.574020	0.573294	99
Es	0.262113	1.932752	-0.769810	99
Es	1.085500	0.340362	-1.318500	99
Es	0.349217	1.196079	-0.923087	99
Es	0.198469	-2.303805	-0.509943	99
Es	-0.176332	-2.794657	-0.128868	99
Es	-0.543308	-1.331304	0.490095	99
Es	-0.163785	2.254745	0.407369	99
Es	-0.384481	1.086982	1.057143	99
Es	0.948853	-0.153884	0.693138	99
Es	0.415673	2.427717	-1.305616	99
Es	-0.114863	0.259945	-1.479958	99
Es	-0.256660	1.123126	1.663519	99
Es	0.272127	-0.044832	0.398385	99
Es	-0.241312	2.103579	-0.221025	99
Es	0.346018	0.183133	-0.328938	99
Es	-0.640209	-1.530294	1.221037	99
Es	0.319034	2.125550	-0.039952	99
Es	-0.225276	1.651596	0.746414	99
Es	-0.682850	1.068816	0.987992	99
Es	0.134773	-2.384790	-0.188666	99
Es	-1.219062	-1.239941	0.178812	99
Es	0.312239	-2.444126	-0.034816	99
Es	-0.075233	0.599550	0.787407	99
Es	-0.137966	-0.687994	0.446618	99
42
Properties=species:S:1:pos:R:3:Z:I:1 energy=-339.9524776739398 field_type=dipole dipole="0.000000 0.000000 0.000000" charge=0
O	0.135047	-2.384775	-0.188780	8
C	-0.543452	-1.331145	0.490200	6
C	0.272228	-0.044924	0.398350	6
C	0.420327	0.471605	-1.025140	6
C	0.262118	1.932755	-0.769770	6
N	-0.163882	2.255325	0.407580	7
N	-0.385202	1.086765	1.057220	7
H	-0.419683	-3.179494	-0.099520	1
H	-0.675122	-1.627835	1.536320	1
H	-1.533702	-1.210615	0.036650	1
H	1.271818	-0.199105	0.824490	1
H	-0.366442	0.146235	-1.711880	1
H	1.404957	0.267445	-1.452590	1
H	0.486157	2.667426	-1.555780	1
H	-0.165163	1.150335	2.052650	1
Es	-0.163770	2.254773	0.407335	99
Es	0.134769	-2.384838	-0.188686	99
Es	-0.682263	1.069100	0.987822	99
Es	-0.384463	1.087011	1.057116	99
Es	-0.241526	2.103551	-0.221086	99
Es	0.415686	2.427662	-1.305625	99
Es	0.272126	-0.044832	0.398385	99
Es	0.346003	0.183258	-0.328881	99
Es	-0.137861	-0.687956	0.446688	99
Es	0.349346	1.195917	-0.923139	99
Es	0.420317	0.471644	-1.025106	99
Es	-0.075497	0.599487	0.787430	99
Es	0.948910	-0.153907	0.693147	99
Es	-1.219118	-1.239879	0.178781	99
Es	0.262112	1.932752	-0.769810	99
Es	-0.119189	-2.005173	0.098716	99
Es	1.085453	0.340311	-1.318583	99
Es	-0.231688	2.573757	0.572849	99
Es	-0.225170	1.651869	0.746980	99
Es	-0.114993	0.260018	-1.479930	99
Es	-0.640189	-1.530329	1.221013	99
Es	-0.257284	1.122984	1.663691	99
Es	-0.543308	-1.331303	0.490096	99
Es	0.200270	-2.304076	-0.509967	99
Es	0.319109	2.125445	-0.039929	99
Es	-0.176367	-2.794395	-0.128822	99
Es	0.309980	-2.443954	-0.035324	99
42
Properties=species:S:1:pos:R:3:Z:I:1 energy=-339.9524776739398 field_type=dipole dipole="0.000000 0.000000 0.000000" charge=0
O	0.135047	-2.384775	-0.188780	8
C	-0.543452	-1.331145	0.490200	6
C	0.272228	-0.044924	0.398350	6
C	0.420327	0.471605	-1.025140	6
C	0.262118	1.932755	-0.769770	6
N	-0.163882	2.255325	0.407580	7
N	-0.385202	1.086765	1.057220	7
H	-0.419683	-3.179494	-0.099520	1
H	-0.675122	-1.627835	1.536320	1
H	-1.533702	-1.210615	0.036650	1
H	1.271818	-0.199105	0.824490	1
H	-0.366442	0.146235	-1.711880	1
H	1.404957	0.267445	-1.452590	1
H	0.486157	2.667426	-1.555780	1
H	-0.165163	1.150335	2.052650	1
Es	-0.682394	1.069171	0.987627	99
Es	0.272127	-0.044833	0.398385	99
Es	-0.543303	-1.331310	0.490091	99
Es	0.420318	0.471643	-1.025106	99
Es	-0.114994	0.260065	-1.480004	99
Es	-0.384465	1.086977	1.057156	99
Es	-0.225420	1.651611	0.747111	99
Es	-0.241562	2.103766	-0.221117	99
Es	0.415668	2.427541	-1.305766	99
Es	-0.176057	-2.794445	-0.128529	99
Es	0.345900	0.183304	-0.328863	99
Es	0.308452	-2.443649	-0.036535	99
Es	1.085552	0.340499	-1.318556	99
Es	0.200753	-2.304131	-0.510066	99
Es	0.948849	-0.153904	0.693038	99
Es	-0.118299	-2.005459	0.099758	99
Es	0.319367	2.125696	-0.039868	99
Es	-1.219063	-1.239960	0.178872	99
Es	-0.231730	2.573423	0.572871	99
Es	-0.075079	0.599673	0.787416	99
Es	0.262113	1.932752	-0.769807	99
Es	-0.257359	1.122986	1.663777	99
Es	0.134629	-2.384774	-0.188732	99
Es	0.349278	1.195710	-0.922993	99
Es	-0.137987	-0.687972	0.446568	99
Es	-0.163771	2.254739	0.407339	99
Es	-0.640131	-1.530224	1.221096	99
42
Properties=species:S:1:pos:R:3:Z:I:1 energy=-339.9524776739398 field_type=dipole dipole="0.000000 0.000000 0.000000" charge=0
O	0.135047	-2.384775	-0.188780	8
C	-0.543452	-1.331145	0.490200	6
C	0.272228	-0.044924	0.398350	6
C	0.420327	0.471605	-1.025140	6
C	0.262118	1.932755	-0.769770	6
N	-0.163882	2.255325	0.407580	7
N	-0.385202	1.086765	1.057220	7
H	-0.419683	-3.179494	-0.099520	1
H	-0.675122	-1.627835	1.536320	1
H	-1.533702	-1.210615	0.036650	1
H	1.271818	-0.199105	0.824490	1
H	-0.366442	0.146235	-1.711880	1
H	1.404957	0.267445	-1.452590	1
H	0.486157	2.667426	-1.555780	1
H	-0.165163	1.150335	2.052650	1
Es	0.346165	0.183624	-0.328796	99
Es	-0.543304	-1.331306	0.490093	99
Es	-0.176259	-2.793855	-0.129021	99
Es	-0.224920	1.651547	0.747360	99
Es	-0.118414	-2.005619	0.099948	99
Es	-0.163770	2.254755	0.407337	99
Es	0.415793	2.427576	-1.305749	99
Es	-1.219035	-1.239858	0.178786	99
Es	-0.075647	0.599278	0.787413	99
Es	0.134678	-2.384773	-0.188695	99
Es	0.272126	-0.044832	0.398385	99
Es	-0.241414	2.103631	-0.221070	99
Es	-0.384475	1.086985	1.057146	99
Es	-0.640189	-1.530271	1.221123	99
Es	-0.257788	1.122848	1.663869	99
Es	0.420318	0.471643	-1.025106	99
Es	-0.681953	1.069851	0.987549	99
Es	-0.115154	0.260160	-1.479905	99
Es	1.085628	0.340511	-1.318700	99
Es	-0.231580	2.573646	0.572738	99
Es	-0.137896	-0.688121	0.446624	99
Es	0.201154	-2.304067	-0.510153	99
Es	0.319113	2.125356	-0.039978	99
Es	0.262115	1.932752	-0.769811	99
Es	0.308298	-2.444109	-0.036186	99
Es	0.349225	1.195403	-0.923070	99
Es	0.948578	-0.153861	0.693028	99
42
Properties=species:S:1:pos:R:3:Z:I:1 energy=-339.9524776739398 field_type=dipole dipole="0.000000 0.000000 0.000000" charge=0
O	0.135047	-2.384775	-0.188780	8
C	-0.543452	-1.331145	0.490200	6
C	0.272228	-0.044924	0.398350	6
C	0.420327	0.471605	-1.025140	6
C	0.262118	1.932755	-0.769770	6
N	-0.163882	2.255325	0.407580	7
N	-0.385202	1.086765	1.057220	7
H	-0.419683	-3.179494	-0.099520	1
H	-0.675122	-1.627835	1.536320	1
H	-1.533702	-1.210615	0.036650	1
H	1.271818	-0.199105	0.824490	1
H	-0.366442	0.146235	-1.711880	1
H	1.404957	0.267445	-1.452590	1
H	0.486157	2.667426	-1.555780	1
H	-0.165163	1.150335	2.052650	1
Es	-0.682002	1.069864	0.987258	99
Es	-0.384509	1.086952	1.057173	99
Es	0.415817	2.427521	-1.305781	99
Es	-1.218891	-1.239853	0.178819	99
Es	-0.115162	0.260090	-1.480049	99
Es	-0.224601	1.651449	0.747279	99
Es	0.272127	-0.044833	0.398385	99
Es	-0.543305	-1.331305	0.490093	99
Es	0.201958	-2.304854	-0.510229	99
Es	0.349044	1.195285	-0.923190	99
Es	-0.075550	0.599558	0.787754	99
Es	-0.137928	-0.688222	0.446567	99
Es	0.948364	-0.153834	0.692917	99
Es	0.134721	-2.384789	-0.188610	99
Es	-0.640260	-1.530248	1.221187	99
Es	-0.175677	-2.793911	-0.128630	99
Es	0.262113	1.932752	-0.769810	99
Es	-0.163780	2.254739	0.407362	99
Es	-0.258092	1.122833	1.663935	99
Es	0.420318	0.471643	-1.025107	99
Es	-0.231277	2.573688	0.572866	99
Es	0.346359	0.183760	-0.328659	99
Es	1.085622	0.340758	-1.318615	99
Es	-0.119203	-2.005238	0.099500	99
Es	-0.241629	2.103673	-0.221155	99
Es	0.319211	2.125062	-0.039943	99
Es	0.307606	-2.443642	-0.036160	99
42
Properties=species:S:1:pos:R:3:Z:I:1 energy=-339.9524776739398 field_type=dipole dipole="0.000000 0.000000 0.000000" charge=0
O	0.135047	-2.384775	-0.188780	8
C	-0.543452	-1.331145	0.490200	6
C	0.272228	-0.044924	0.398350	6
C	0.420327	0.471605	-1.025140	6
C	0.262118	1.932755	-0.769770	6
N	-0.163882	2.255325	0.407580	7
N	-0.385202	1.086765	1.057220	7
H	-0.419683	-3.179494	-0.099520	1
H	-0.675122	-1.627835	1.536320	1
H	-1.533702	-1.210615	0.036650	1
H	1.271818	-0.199105	0.824490	1
H	-0.366442	0.146235	-1.711880	1
H	1.404957	0.267445	-1.452590	1
H	0.486157	2.667426	-1.555780	1
H	-0.165163	1.150335	2.052650	1
Es	-0.163782	2.254741	0.407365	99
Es	-0.640238	-1.530240	1.221194	99
Es	-0.257442	1.122974	1.663853	99
Es	-0.074900	0.600049	0.787712	99
Es	0.304570	-2.442730	-0.038507	99
Es	-0.241761	2.103545	-0.221208	99
Es	0.134716	-2.384872	-0.188560	99
Es	0.415719	2.427471	-1.305836	99
Es	0.203152	-2.304040	-0.509768	99
Es	0.272127	-0.044833	0.398385	99
Es	0.420317	0.471644	-1.025107	99
Es	0.262116	1.932752	-0.769809	99
Es	-0.117752	-2.006132	0.101570	99
Es	-0.231276	2.573568	0.572701	99
Es	0.948523	-0.153856	0.693011	99
Es	-0.384508	1.086963	1.057161	99
Es	-0.137895	-0.688085	0.446638	99
Es	-0.682622	1.069031	0.987384	99
Es	-0.115072	0.260266	-1.479912	99
Es	-1.218928	-1.239858	0.178785	99
Es	-0.225342	1.651732	0.747408	99
Es	-0.543305	-1.331305	0.490094	99
Es	0.319296	2.125193	-0.039898	99
Es	-0.175221	-2.794633	-0.128857	99
Es	1.085657	0.340659	-1.318756	99
Es	0.346059	0.183695	-0.328669	99
Es	0.349182	1.195197	-0.923216	99
