42
Properties=species:S:1:pos:R:3:Z:I:1 energy=-339.9379305296462 field_type=dipole dipole="0.000000 0.000000 0.000000" charge=0
O	0.150040	-2.705895	-0.509307	8
C	-0.624110	-1.560155	-0.182027	6
C	0.300570	-0.416815	0.053453	6
C	0.671170	0.511785	-1.056647	6
N	-0.234840	0.953505	0.017983	7
C	0.276280	1.832995	0.938223	6
N	-0.389160	2.772385	1.515873	7
H	-0.472060	-3.449105	-0.594907	1
H	-1.198360	-1.772875	0.725103	1
H	-1.321180	-1.364595	-1.003847	1
H	1.021140	-0.619565	0.835803	1
H	0.172680	0.426265	-2.012547	1
H	1.650870	0.969885	-1.060497	1
H	1.345380	1.692785	1.180293	1
H	-1.348420	2.729404	1.153043	1
Es	0.018903	1.318461	0.415857	99
Es	-0.183007	2.187429	1.474203	99
Es	1.011155	1.726979	1.095803	99
Es	0.671015	0.511835	-1.056410	99
Es	-0.234209	0.953366	0.018100	99
Es	-0.579066	0.990461	-0.066238	99
Es	-0.161201	-2.280137	-0.384238	99
Es	0.340022	0.449952	-1.701483	99
Es	0.612319	-0.111976	-0.601951	99
Es	0.322153	-2.764370	-0.263393	99
Es	-1.103096	-1.416284	-0.744496	99
Es	0.300469	-0.416555	0.053396	99
Es	-0.060224	0.369206	0.180102	99
Es	-0.623939	-1.560324	-0.182065	99
Es	-0.389295	2.772018	1.515514	99
Es	-0.168326	-0.970695	-0.067169	99
Es	-0.201117	-3.091789	-0.551061	99
Es	0.276277	1.832877	0.938117	99
Es	0.791897	-0.545217	0.580891	99
Es	0.269322	-2.654385	-0.788024	99
Es	-1.020347	-1.700166	0.442826	99
Es	0.165712	0.913388	-0.462919	99
Es	0.149695	-2.705860	-0.509321	99
Es	-0.271244	3.014476	1.762183	99
Es	1.335205	0.820657	-1.055591	99
Es	-0.962361	2.742023	1.295821	99
Es	-0.040837	2.546747	1.052599	99
42
Properties=species:S:1:pos:R:3:Z:I:1 energy=-339.9379305296462 field_type=dipole dipole="0.000000 0.000000 0.000000" charge=0
O	0.150040	-2.705895	-0.509307	8
C	-0.624110	-1.560155	-0.182027	6
C	0.300570	-0.416815	0.053453	6
C	0.671170	0.511785	-1.056647	6
N	-0.234840	0.953505	0.017983	7
C	0.276280	1.832995	0.938223	6
N	-0.389160	2.772385	1.515873	7
H	-0.472060	-3.449105	-0.594907	1
H	-1.198360	-1.772875	0.725103	1
H	-1.321180	-1.364595	-1.003847	1
H	1.021140	-0.619565	0.835803	1
H	0.172680	0.426265	-2.012547	1
H	1.650870	0.969885	-1.060497	1
H	1.345380	1.692785	1.180293	1
H	-1.348420	2.729404	1.153043	1
Es	-0.167796	-0.970781	-0.067956	99
Es	0.276275	1.832865	0.938129	99
Es	0.790684	-0.545395	0.579140	99
Es	0.280993	-2.658160	-0.787414	99
Es	-0.575211	0.988392	-0.067626	99
Es	0.300463	-0.416548	0.053397	99
Es	0.614761	-0.114987	-0.602952	99
Es	-0.184414	2.185358	1.475700	99
Es	-0.271267	3.015616	1.761562	99
Es	0.163994	0.916410	-0.461601	99
Es	1.010653	1.726841	1.095658	99
Es	1.333961	0.819650	-1.056282	99
Es	-0.197333	-3.093232	-0.548380	99
Es	-0.960229	2.742901	1.296915	99
Es	-1.101777	-1.416110	-0.743418	99
Es	-0.061787	0.369923	0.181178	99
Es	-0.623941	-1.560323	-0.182069	99
Es	0.341619	0.449977	-1.700069	99
Es	-0.041605	2.547122	1.050479	99
Es	0.308107	-2.764069	-0.271237	99
Es	-0.389287	2.772012	1.515511	99
Es	0.015729	1.320911	0.417117	99
Es	-1.021297	-1.699615	0.443138	99
Es	-0.234130	0.953356	0.018132	99
Es	0.671015	0.511839	-1.056415	99
Es	-0.161972	-2.275969	-0.380315	99
Es	0.149668	-2.705869	-0.509269	99
42
Properties=species:S:1:pos:R:3:Z:I:1 energy=-339.9379305296462 field_type=dipole dipole="0.000000 0.000000 0.000000" charge=0
O	0.150040	-2.705895	-0.509307	8
C	-0.624110	-1.560155	-0.182027	6
C	0.300570	-0.416815	0.053453	6
C	0.671170	0.511785	-1.056647	6
N	-0.234840	0.953505	0.017983	7
C	0.276280	1.832995	0.938223	6
N	-0.389160	2.772385	1.515873	7
H	-0.472060	-3.449105	-0.594907	1
H	-1.198360	-1.772875	0.725103	1
H	-1.321180	-1.364595	-1.003847	1
H	1.021140	-0.619565	0.835803	1
H	0.172680	0.426265	-2.012547	1
H	1.650870	0.969885	-1.060497	1
H	1.345380	1.692785	1.180293	1
H	-1.348420	2.729404	1.153043	1
Es	-0.162845	-2.274335	-0.378271	99
Es	-0.194312	-3.094081	-0.546881	99
Es	0.293486	-2.660985	-0.785487	99
Es	-0.185138	2.184350	1.476264	99
Es	0.342678	0.449982	-1.698931	99
Es	-0.623944	-1.560318	-0.182071	99
Es	-0.167434	-0.970861	-0.068379	99
Es	0.671013	0.511837	-1.056410	99
Es	0.149657	-2.705873	-0.509239	99
Es	-0.234150	0.953354	0.018111	99
Es	-0.573028	0.985374	-0.068057	99
Es	0.616215	-0.117121	-0.603404	99
Es	1.010416	1.726691	1.095670	99
Es	-0.271368	3.016505	1.761336	99
Es	0.012693	1.323223	0.417723	99
Es	0.162595	0.919033	-0.461195	99
Es	0.293833	-2.762435	-0.277060	99
Es	-0.060848	0.370721	0.181817	99
Es	-1.021984	-1.699144	0.443363	99
Es	0.790023	-0.545448	0.577891	99
Es	-0.042198	2.547273	1.049482	99
Es	1.332644	0.818831	-1.056742	99
Es	0.276275	1.832870	0.938122	99
Es	-0.958846	2.743166	1.297248	99
Es	-0.389290	2.772009	1.515508	99
Es	0.300467	-0.416554	0.053397	99
Es	-1.100736	-1.415948	-0.742753	99
42
Properties=species:S:1:pos:R:3:Z:I:1 energy=-339.9379305296462 field_type=dipole dipole="0.000000 0.000000 0.000000" charge=0
O	0.150040	-2.705895	-0.509307	8
C	-0.624110	-1.560155	-0.182027	6
C	0.300570	-0.416815	0.053453	6
C	0.671170	0.511785	-1.056647	6
N	-0.234840	0.953505	0.017983	7
C	0.276280	1.832995	0.938223	6
N	-0.389160	2.772385	1.515873	7
H	-0.472060	-3.449105	-0.594907	1
H	-1.198360	-1.772875	0.725103	1
H	-1.321180	-1.364595	-1.003847	1
H	1.021140	-0.619565	0.835803	1
H	0.172680	0.426265	-2.012547	1
H	1.650870	0.969885	-1.060497	1
H	1.345380	1.692785	1.180293	1
H	-1.348420	2.729404	1.153043	1
Es	0.162624	0.919850	-0.459734	99
Es	-0.271520	3.016742	1.761062	99
Es	-0.389295	2.772007	1.515505	99
Es	1.331565	0.818309	-1.057004	99
Es	0.671002	0.511838	-1.056408	99
Es	0.303852	-2.663722	-0.782916	99
Es	-0.185503	2.183834	1.476540	99
Es	-0.042215	2.547499	1.049271	99
Es	-0.163242	-2.273240	-0.377417	99
Es	0.789579	-0.545716	0.577149	99
Es	0.617261	-0.118461	-0.603775	99
Es	-0.061617	0.370882	0.182207	99
Es	-1.100205	-1.415866	-0.742260	99
Es	-1.022183	-1.698718	0.443666	99
Es	-0.623944	-1.560318	-0.182070	99
Es	0.009236	1.325920	0.418889	99
Es	0.282204	-2.761016	-0.281752	99
Es	-0.234157	0.953355	0.018111	99
Es	0.300465	-0.416545	0.053393	99
Es	-0.192376	-3.094039	-0.545963	99
Es	1.010220	1.726476	1.095882	99
Es	0.343400	0.450008	-1.698071	99
Es	0.149647	-2.705891	-0.509156	99
Es	0.276271	1.832860	0.938131	99
Es	-0.958358	2.743454	1.297116	99
Es	-0.569729	0.983312	-0.070306	99
Es	-0.167106	-0.970698	-0.069040	99
42
Properties=species:S:1:pos:R:3:Z:I:1 energy=-339.9379305296462 field_type=dipole dipole="0.000000 0.000000 0.000000" charge=0
O	0.150040	-2.705895	-0.509307	8
C	-0.624110	-1.560155	-0.182027	6
C	0.300570	-0.416815	0.053453	6
C	0.671170	0.511785	-1.056647	6
N	-0.234840	0.953505	0.017983	7
C	0.276280	1.832995	0.938223	6
N	-0.389160	2.772385	1.515873	7
H	-0.472060	-3.449105	-0.594907	1
H	-1.198360	-1.772875	0.725103	1
H	-1.321180	-1.364595	-1.003847	1
H	1.021140	-0.619565	0.835803	1
H	0.172680	0.426265	-2.012547	1
H	1.650870	0.969885	-1.060497	1
H	1.345380	1.692785	1.180293	1
H	-1.348420	2.729404	1.153043	1
Es	-0.163148	-2.272626	-0.375963	99
Es	-0.060343	0.370435	0.181619	99
Es	0.671020	0.511835	-1.056419	99
Es	-0.270185	3.016390	1.760147	99
Es	0.618459	-0.119817	-0.604140	99
Es	-0.958551	2.744632	1.298293	99
Es	0.273325	-2.760663	-0.285342	99
Es	-0.623941	-1.560320	-0.182075	99
Es	-0.234160	0.953356	0.018116	99
Es	0.005496	1.328204	0.419478	99
Es	-0.185978	2.183474	1.476731	99
Es	-1.099820	-1.415545	-0.742169	99
Es	0.161741	0.921995	-0.458401	99
Es	0.149733	-2.705882	-0.509313	99
Es	-0.567017	0.980625	-0.071312	99
Es	0.789039	-0.545633	0.576590	99
Es	1.010102	1.726320	1.096000	99
Es	0.300463	-0.416549	0.053393	99
Es	-1.022308	-1.698376	0.443850	99
Es	0.276276	1.832872	0.938117	99
Es	-0.191378	-3.092931	-0.545944	99
Es	-0.166795	-0.971024	-0.069150	99
Es	0.344065	0.450285	-1.697401	99
Es	0.311710	-2.665941	-0.780764	99
Es	-0.389299	2.772013	1.515509	99
Es	1.330288	0.817846	-1.057044	99
Es	-0.042921	2.547141	1.048647	99
42
Properties=species:S:1:pos:R:3:Z:I:1 energy=-339.9379305296462 field_type=dipole dipole="0.000000 0.000000 0.000000" charge=0
O	0.150040	-2.705895	-0.509307	8
C	-0.624110	-1.560155	-0.182027	6
C	0.300570	-0.416815	0.053453	6
C	0.671170	0.511785	-1.056647	6
N	-0.234840	0.953505	0.017983	7
C	0.276280	1.832995	0.938223	6
N	-0.389160	2.772385	1.515873	7
H	-0.472060	-3.449105	-0.594907	1
H	-1.198360	-1.772875	0.725103	1
H	-1.321180	-1.364595	-1.003847	1
H	1.021140	-0.619565	0.835803	1
H	0.172680	0.426265	-2.012547	1
H	1.650870	0.969885	-1.060497	1
H	1.345380	1.692785	1.180293	1
H	-1.348420	2.729404	1.153043	1
Es	-0.059715	0.370654	0.181426	99
Es	-0.042973	2.547456	1.049184	99
Es	-1.022441	-1.698040	0.444123	99
Es	0.149655	-2.705842	-0.509312	99
Es	0.276276	1.832874	0.938114	99
Es	0.789182	-0.545902	0.576213	99
Es	0.319487	-2.668914	-0.779263	99
Es	-1.099434	-1.415440	-0.742003	99
Es	1.010106	1.726166	1.096111	99
Es	-0.234162	0.953352	0.018107	99
Es	-0.164172	-2.272582	-0.376151	99
Es	0.300466	-0.416546	0.053392	99
Es	0.671003	0.511840	-1.056404	99
Es	-0.623941	-1.560312	-0.182069	99
Es	0.264587	-2.757742	-0.290231	99
Es	-0.957848	2.744193	1.297347	99
Es	0.618861	-0.120700	-0.604279	99
Es	-0.565025	0.978723	-0.072516	99
Es	-0.166699	-0.971000	-0.069617	99
Es	-0.186074	2.183112	1.476123	99
Es	1.329113	0.817385	-1.056928	99
Es	0.161556	0.922673	-0.457192	99
Es	0.002701	1.330266	0.419923	99
Es	-0.389291	2.772022	1.515518	99
Es	0.344629	0.450468	-1.697034	99
Es	-0.270835	3.016961	1.760934	99
Es	-0.189136	-3.093010	-0.542463	99
42
Properties=species:S:1:pos:R:3:Z:I:1 energy=-339.9379305296462 field_type=dipole dipole="0.000000 0.000000 0.000000" charge=0
O	0.150040	-2.705895	-0.509307	8
C	-0.624110	-1.560155	-0.182027	6
C	0.300570	-0.416815	0.053453	6
C	0.671170	0.511785	-1.056647	6
N	-0.234840	0.953505	0.017983	7
C	0.276280	1.832995	0.938223	6
N	-0.389160	2.772385	1.515873	7
H	-0.472060	-3.449105	-0.594907	1
H	-1.198360	-1.772875	0.725103	1
H	-1.321180	-1.364595	-1.003847	1
H	1.021140	-0.619565	0.835803	1
H	0.172680	0.426265	-2.012547	1
H	1.650870	0.969885	-1.060497	1
H	1.345380	1.692785	1.180293	1
H	-1.348420	2.729404	1.153043	1
Es	-1.099166	-1.415241	-0.741896	99
Es	0.300465	-0.416538	0.053392	99
Es	-0.188796	-3.090860	-0.542366	99
Es	-0.389293	2.771999	1.515499	99
Es	0.276279	1.832879	0.938107	99
Es	-0.186554	2.183216	1.476509	99
Es	-0.166548	-0.970965	-0.069759	99
Es	-0.563372	0.977058	-0.072877	99
Es	0.345072	0.450573	-1.696667	99
Es	-0.043008	2.546851	1.048998	99
Es	-0.957383	2.744076	1.297213	99
Es	-0.164097	-2.271917	-0.376326	99
Es	-0.270819	3.017670	1.760767	99
Es	-1.022488	-1.697764	0.444335	99
Es	-0.058388	0.370017	0.180712	99
Es	0.327285	-2.672194	-0.776484	99
Es	1.010048	1.726063	1.096202	99
Es	1.327970	0.817060	-1.056876	99
Es	-0.623941	-1.560319	-0.182077	99
Es	0.256483	-2.757288	-0.293111	99
Es	0.671011	0.511838	-1.056405	99
Es	0.160556	0.924333	-0.456190	99
Es	0.000374	1.331670	0.420079	99
Es	0.149670	-2.705865	-0.509247	99
Es	0.789034	-0.546053	0.575966	99
Es	0.619607	-0.121536	-0.604563	99
Es	-0.234127	0.953352	0.018117	99
42
Properties=species:S:1:pos:R:3:Z:I:1 energy=-339.9379305296462 field_type=dipole dipole="0.000000 0.000000 0.000000" charge=0
O	0.150040	-2.705895	-0.509307	8
C	-0.624110	-1.560155	-0.182027	6
C	0.300570	-0.416815	0.053453	6
C	0.671170	0.511785	-1.056647	6
N	-0.234840	0.953505	0.017983	7
C	0.276280	1.832995	0.938223	6
N	-0.389160	2.772385	1.515873	7
H	-0.472060	-3.449105	-0.594907	1
H	-1.198360	-1.772875	0.725103	1
H	-1.321180	-1.364595	-1.003847	1
H	1.021140	-0.619565	0.835803	1
H	0.172680	0.426265	-2.012547	1
H	1.650870	0.969885	-1.060497	1
H	1.345380	1.692785	1.180293	1
H	-1.348420	2.729404	1.153043	1
Es	-0.560084	0.974924	-0.073466	99
Es	0.789065	-0.546230	0.575739	99
Es	-0.623944	-1.560319	-0.182068	99
Es	0.619980	-0.121878	-0.604473	99
Es	0.328986	-2.673597	-0.776506	99
Es	0.345382	0.450491	-1.696455	99
Es	0.149634	-2.705830	-0.509380	99
Es	0.159889	0.925545	-0.455119	99
Es	0.300471	-0.416546	0.053392	99
Es	1.010076	1.726043	1.096262	99
Es	-0.268657	3.015525	1.760040	99
Es	-0.187324	-3.091725	-0.538788	99
Es	-0.389302	2.771999	1.515497	99
Es	0.276276	1.832869	0.938117	99
Es	-0.057478	0.369628	0.179769	99
Es	1.327169	0.816761	-1.056815	99
Es	-0.234161	0.953355	0.018107	99
Es	-0.958999	2.746417	1.298433	99
Es	0.253261	-2.755042	-0.298171	99
Es	-0.163926	-2.271964	-0.374732	99
Es	-0.166402	-0.971016	-0.070083	99
Es	-0.003409	1.333609	0.420544	99
Es	-0.186649	2.183064	1.475674	99
Es	0.671006	0.511835	-1.056401	99
Es	-1.099140	-1.415108	-0.741896	99
Es	-1.022332	-1.697499	0.444530	99
Es	-0.043512	2.546805	1.049301	99
42
Properties=species:S:1:pos:R:3:Z:I:1 energy=-339.9379305296462 field_type=dipole dipole="0.000000 0.000000 0.000000" charge=0
O	0.150040	-2.705895	-0.509307	8
C	-0.624110	-1.560155	-0.182027	6
C	0.300570	-0.416815	0.053453	6
C	0.671170	0.511785	-1.056647	6
N	-0.234840	0.953505	0.017983	7
C	0.276280	1.832995	0.938223	6
N	-0.389160	2.772385	1.515873	7
H	-0.472060	-3.449105	-0.594907	1
H	-1.198360	-1.772875	0.725103	1
H	-1.321180	-1.364595	-1.003847	1
H	1.021140	-0.619565	0.835803	1
H	0.172680	0.426265	-2.012547	1
H	1.650870	0.969885	-1.060497	1
H	1.345380	1.692785	1.180293	1
H	-1.348420	2.729404	1.153043	1
Es	1.326310	0.816524	-1.056699	99
Es	0.149661	-2.705868	-0.509314	99
Es	0.159292	0.926605	-0.454227	99
Es	0.245806	-2.755492	-0.299571	99
Es	0.345777	0.450735	-1.696095	99
Es	-0.166306	-0.971003	-0.070259	99
Es	-0.186583	2.182828	1.475466	99
Es	-0.234093	0.953349	0.018129	99
Es	-0.269432	3.016438	1.760507	99
Es	-0.557709	0.973633	-0.073897	99
Es	0.671006	0.511838	-1.056400	99
Es	-1.098982	-1.414980	-0.741858	99
Es	1.010090	1.725942	1.096347	99
Es	0.300470	-0.416546	0.053389	99
Es	-0.187488	-3.088061	-0.540020	99
Es	0.620372	-0.122491	-0.604616	99
Es	0.336753	-2.677138	-0.773574	99
Es	-0.056748	0.369035	0.179122	99
Es	-0.389270	2.772017	1.515521	99
Es	0.276275	1.832867	0.938119	99
Es	-0.006193	1.334947	0.420663	99
Es	-0.623942	-1.560319	-0.182072	99
Es	0.789060	-0.546381	0.575624	99
Es	-1.022358	-1.697353	0.444615	99
Es	-0.043658	2.546941	1.049618	99
Es	-0.958216	2.745652	1.297687	99
Es	-0.164021	-2.271606	-0.375155	99
42
Properties=species:S:1:pos:R:3:Z:I:1 energy=-339.9379305296462 field_type=dipole dipole="0.000000 0.000000 0.000000" charge=0
O	0.150040	-2.705895	-0.509307	8
C	-0.624110	-1.560155	-0.182027	6
C	0.300570	-0.416815	0.053453	6
C	0.671170	0.511785	-1.056647	6
N	-0.234840	0.953505	0.017983	7
C	0.276280	1.832995	0.938223	6
N	-0.389160	2.772385	1.515873	7
H	-0.472060	-3.449105	-0.594907	1
H	-1.198360	-1.772875	0.725103	1
H	-1.321180	-1.364595	-1.003847	1
H	1.021140	-0.619565	0.835803	1
H	0.172680	0.426265	-2.012547	1
H	1.650870	0.969885	-1.060497	1
H	1.345380	1.692785	1.180293	1
H	-1.348420	2.729404	1.153043	1
Es	0.344937	-2.678749	-0.768037	99
Es	0.237778	-2.754440	-0.303069	99
Es	-0.958754	2.746576	1.298146	99
Es	-0.009239	1.336054	0.420920	99
Es	0.276276	1.832868	0.938117	99
Es	0.158969	0.927643	-0.453524	99
Es	-0.623941	-1.560320	-0.182070	99
Es	-0.164214	-2.271307	-0.375844	99
Es	-0.043671	2.547067	1.049650	99
Es	0.149642	-2.705881	-0.509168	99
Es	-0.268668	3.015526	1.760433	99
Es	-1.098937	-1.414798	-0.741918	99
Es	-0.055972	0.368756	0.178351	99
Es	-0.555062	0.972175	-0.073975	99
Es	-0.166354	-0.971166	-0.070542	99
Es	1.325175	0.816277	-1.056490	99
Es	-0.186722	2.182812	1.474995	99
Es	-0.389306	2.771982	1.515477	99
Es	1.010037	1.725830	1.096464	99
Es	0.300465	-0.416547	0.053395	99
Es	0.621014	-0.122863	-0.604664	99
Es	0.789086	-0.546574	0.575527	99
Es	-0.187383	-3.087798	-0.541551	99
Es	-0.234115	0.953348	0.018121	99
Es	0.671016	0.511835	-1.056412	99
Es	0.345982	0.450800	-1.696280	99
Es	-1.022165	-1.696992	0.444997	99
42
Properties=species:S:1:pos:R:3:Z:I:1 energy=-339.9379305296462 field_type=dipole dipole="0.000000 0.000000 0.000000" charge=0
O	0.150040	-2.705895	-0.509307	8
C	-0.624110	-1.560155	-0.182027	6
C	0.300570	-0.416815	0.053453	6
C	0.671170	0.511785	-1.056647	6
N	-0.234840	0.953505	0.017983	7
C	0.276280	1.832995	0.938223	6
N	-0.389160	2.772385	1.515873	7
H	-0.472060	-3.449105	-0.594907	1
H	-1.198360	-1.772875	0.725103	1
H	-1.321180	-1.364595	-1.003847	1
H	1.021140	-0.619565	0.835803	1
H	0.172680	0.426265	-2.012547	1
H	1.650870	0.969885	-1.060497	1
H	1.345380	1.692785	1.180293	1
H	-1.348420	2.729404	1.153043	1
Es	-1.022279	-1.696968	0.444903	99
Es	-0.044013	2.546956	1.049778	99
Es	0.789102	-0.546650	0.575487	99
Es	-0.164156	-2.271350	-0.375066	99
Es	-1.098788	-1.414694	-0.741938	99
Es	0.671006	0.511839	-1.056396	99
Es	0.276276	1.832868	0.938117	99
Es	-0.166231	-0.971188	-0.070627	99
Es	-0.011664	1.337276	0.420702	99
Es	0.621244	-0.123086	-0.604551	99
Es	1.010062	1.725756	1.096486	99
Es	-0.389296	2.771997	1.515497	99
Es	0.349561	-2.682038	-0.766657	99
Es	-0.187195	-3.083971	-0.541908	99
Es	-0.186623	2.182611	1.475111	99
Es	-0.623946	-1.560319	-0.182066	99
Es	-0.958275	2.746024	1.297818	99
Es	-0.553026	0.970799	-0.073794	99
Es	-0.234116	0.953350	0.018120	99
Es	0.346229	0.450899	-1.696151	99
Es	0.149597	-2.705827	-0.509478	99
Es	0.157785	0.928839	-0.452672	99
Es	-0.054568	0.367996	0.177441	99
Es	0.300465	-0.416537	0.053392	99
Es	1.324678	0.816148	-1.056373	99
Es	-0.268968	3.016386	1.760422	99
Es	0.233015	-2.755002	-0.304544	99
42
Properties=species:S:1:pos:R:3:Z:I:1 energy=-339.9379305296462 field_type=dipole dipole="0.000000 0.000000 0.000000" charge=0
O	0.150040	-2.705895	-0.509307	8
C	-0.624110	-1.560155	-0.182027	6
C	0.300570	-0.416815	0.053453	6
C	0.671170	0.511785	-1.056647	6
N	-0.234840	0.953505	0.017983	7
C	0.276280	1.832995	0.938223	6
N	-0.389160	2.772385	1.515873	7
H	-0.472060	-3.449105	-0.594907	1
H	-1.198360	-1.772875	0.725103	1
H	-1.321180	-1.364595	-1.003847	1
H	1.021140	-0.619565	0.835803	1
H	0.172680	0.426265	-2.012547	1
H	1.650870	0.969885	-1.060497	1
H	1.345380	1.692785	1.180293	1
H	-1.348420	2.729404	1.153043	1
Es	-0.186972	-3.083086	-0.540939	99
Es	-0.166255	-0.971182	-0.070710	99
Es	0.671003	0.511839	-1.056392	99
Es	-0.234101	0.953349	0.018127	99
Es	-0.623940	-1.560318	-0.182072	99
Es	-0.163845	-2.271069	-0.374966	99
Es	-0.054203	0.367677	0.177142	99
Es	1.010071	1.725656	1.096521	99
Es	-0.044268	2.546980	1.049877	99
Es	-1.098802	-1.414498	-0.742036	99
Es	0.789239	-0.546899	0.575421	99
Es	0.300469	-0.416541	0.053390	99
Es	-0.186637	2.182648	1.474478	99
Es	-1.022130	-1.696806	0.445091	99
Es	-0.389288	2.771996	1.515498	99
Es	1.324056	0.816000	-1.056329	99
Es	0.276275	1.832867	0.938118	99
Es	-0.014105	1.338256	0.420646	99
Es	0.149617	-2.705840	-0.509356	99
Es	0.228984	-2.753977	-0.307594	99
Es	-0.550897	0.970027	-0.074234	99
Es	0.621443	-0.123381	-0.604801	99
Es	-0.958585	2.746471	1.298133	99
Es	-0.268369	3.015939	1.760572	99
Es	0.346358	0.451040	-1.696022	99
Es	0.353083	-2.684201	-0.764844	99
Es	0.157676	0.929170	-0.451667	99
42
Properties=species:S:1:pos:R:3:Z:I:1 energy=-339.9379305296462 field_type=dipole dipole="0.000000 0.000000 0.000000" charge=0
O	0.150040	-2.705895	-0.509307	8
C	-0.624110	-1.560155	-0.182027	6
C	0.300570	-0.416815	0.053453	6
C	0.671170	0.511785	-1.056647	6
N	-0.234840	0.953505	0.017983	7
C	0.276280	1.832995	0.938223	6
N	-0.389160	2.772385	1.515873	7
H	-0.472060	-3.449105	-0.594907	1
H	-1.198360	-1.772875	0.725103	1
H	-1.321180	-1.364595	-1.003847	1
H	1.021140	-0.619565	0.835803	1
H	0.172680	0.426265	-2.012547	1
H	1.650870	0.969885	-1.060497	1
H	1.345380	1.692785	1.180293	1
H	-1.348420	2.729404	1.153043	1
Es	-0.389287	2.771992	1.515495	99
Es	-0.053418	0.367305	0.176253	99
Es	-1.021819	-1.696440	0.445432	99
Es	-0.015384	1.338635	0.420712	99
Es	0.621806	-0.123726	-0.604855	99
Es	-0.186834	2.182874	1.474712	99
Es	-0.550021	0.969434	-0.074271	99
Es	-0.166259	-0.971337	-0.070956	99
Es	1.323390	0.815949	-1.056399	99
Es	0.346445	0.451001	-1.695798	99
Es	-0.164319	-2.271171	-0.375293	99
Es	0.276275	1.832868	0.938117	99
Es	0.300474	-0.416552	0.053396	99
Es	-0.623946	-1.560317	-0.182068	99
Es	-0.234094	0.953348	0.018130	99
Es	0.356880	-2.686173	-0.762423	99
Es	-1.098911	-1.414565	-0.741980	99
Es	-0.043946	2.546682	1.049994	99
Es	-0.186326	-3.082085	-0.540318	99
Es	0.671021	0.511849	-1.056393	99
Es	0.157163	0.930084	-0.450998	99
Es	-0.269542	3.017273	1.761260	99
Es	0.789350	-0.546825	0.575298	99
Es	0.224963	-2.752894	-0.310492	99
Es	0.149696	-2.705879	-0.509155	99
Es	1.010120	1.725630	1.096524	99
Es	-0.957603	2.745156	1.297126	99
42
Properties=species:S:1:pos:R:3:Z:I:1 energy=-339.9379305296462 field_type=dipole dipole="0.000000 0.000000 0.000000" charge=0
O	0.150040	-2.705895	-0.509307	8
C	-0.624110	-1.560155	-0.182027	6
C	0.300570	-0.416815	0.053453	6
C	0.671170	0.511785	-1.056647	6
N	-0.234840	0.953505	0.017983	7
C	0.276280	1.832995	0.938223	6
N	-0.389160	2.772385	1.515873	7
H	-0.472060	-3.449105	-0.594907	1
H	-1.198360	-1.772875	0.725103	1
H	-1.321180	-1.364595	-1.003847	1
H	1.021140	-0.619565	0.835803	1
H	0.172680	0.426265	-2.012547	1
H	1.650870	0.969885	-1.060497	1
H	1.345380	1.692785	1.180293	1
H	-1.348420	2.729404	1.153043	1
Es	0.276275	1.832866	0.938118	99
Es	0.671011	0.511843	-1.056390	99
Es	-0.044481	2.546334	1.050087	99
Es	0.221341	-2.753362	-0.311660	99
Es	-1.021905	-1.696461	0.445401	99
Es	-0.623940	-1.560320	-0.182071	99
Es	-0.053484	0.367669	0.176379	99
Es	-0.186611	-3.081050	-0.542447	99
Es	0.149747	-2.705844	-0.509300	99
Es	-1.098812	-1.414422	-0.742045	99
Es	-0.166221	-0.971331	-0.071046	99
Es	0.789253	-0.546982	0.575348	99
Es	-0.163996	-2.271083	-0.374683	99
Es	0.622473	-0.123917	-0.604666	99
Es	0.300463	-0.416543	0.053393	99
Es	1.322583	0.815905	-1.056262	99
Es	0.157096	0.929826	-0.451269	99
Es	-0.267306	3.015517	1.760242	99
Es	-0.187065	2.182767	1.474319	99
Es	0.346603	0.451052	-1.695900	99
Es	1.010080	1.725611	1.096568	99
Es	-0.018312	1.339858	0.420337	99
Es	-0.959032	2.747400	1.298390	99
Es	-0.389294	2.772009	1.515506	99
Es	0.360466	-2.686837	-0.759613	99
Es	-0.547003	0.968257	-0.073834	99
Es	-0.234053	0.953351	0.018147	99
