44
Properties=species:S:1:pos:R:3:Z:I:1 energy=-360.94436925340483 field_type=dipole dipole="0.000000 0.000000 0.000000" charge=0
O	-2.800340	-0.316817	0.609273	8
C	-1.386680	-0.465597	0.567163	6
C	-0.757621	0.920953	0.509683	6
C	0.763989	0.878372	0.537563	6
C	1.308650	0.282893	-0.730517	6
N	1.926869	-0.852707	-0.710547	7
O	2.320169	-1.173657	-2.013847	8
H	-3.178530	-1.212237	0.650023	1
H	-1.130490	-1.057137	-0.317127	1
H	-1.066960	-1.005077	1.464413	1
H	-1.118181	1.512043	1.360653	1
H	-1.112561	1.442403	-0.388107	1
H	1.123479	0.311922	1.403353	1
H	1.156620	1.898392	0.611203	1
H	1.145370	0.846512	-1.666127	1
H	2.806220	-2.010257	-1.887057	1
Es	-2.800167	-0.317077	0.609240	99
Es	2.320180	-1.173897	-2.013537	99
Es	1.195953	0.663849	-1.357535	99
Es	1.909759	-0.216018	-0.676935	99
Es	2.148463	-1.034576	-1.446065	99
Es	1.031001	1.566667	0.577336	99
Es	-0.757564	0.920915	0.509677	99
Es	-2.268161	-0.396292	0.595991	99
Es	1.308639	0.282916	-0.730490	99
Es	1.403285	-0.496231	-0.759426	99
Es	-1.386904	-0.465536	0.567172	99
Es	2.015683	-1.096581	-0.432720	99
Es	-2.867511	-0.179774	0.876748	99
Es	-2.985937	-0.808365	0.630772	99
Es	2.580248	-1.621689	-1.940970	99
Es	1.002954	0.492753	1.120626	99
Es	2.517160	-0.950461	-2.093089	99
Es	-1.156334	-0.837683	1.186418	99
Es	1.926753	-0.852349	-0.711048	99
Es	-1.202154	-0.872149	-0.040175	99
Es	0.763978	0.878353	0.537485	99
Es	-0.995017	1.317206	1.092250	99
Es	-0.989170	1.270693	-0.108885	99
Es	0.016105	0.886482	0.509726	99
Es	1.040829	0.568511	-0.104496	99
Es	-1.062381	0.225246	0.536285	99
Es	-2.881710	-0.199419	0.337637	99
Es	2.057221	-1.229268	-2.162484	99
44
Properties=species:S:1:pos:R:3:Z:I:1 energy=-360.94436925340483 field_type=dipole dipole="0.000000 0.000000 0.000000" charge=0
O	-2.800340	-0.316817	0.609273	8
C	-1.386680	-0.465597	0.567163	6
C	-0.757621	0.920953	0.509683	6
C	0.763989	0.878372	0.537563	6
C	1.308650	0.282893	-0.730517	6
N	1.926869	-0.852707	-0.710547	7
O	2.320169	-1.173657	-2.013847	8
H	-3.178530	-1.212237	0.650023	1
H	-1.130490	-1.057137	-0.317127	1
H	-1.066960	-1.005077	1.464413	1
H	-1.118181	1.512043	1.360653	1
H	-1.112561	1.442403	-0.388107	1
H	1.123479	0.311922	1.403353	1
H	1.156620	1.898392	0.611203	1
H	1.145370	0.846512	-1.666127	1
H	2.806220	-2.010257	-1.887057	1
Es	-2.984549	-0.808125	0.630339	99
Es	-0.988319	1.269741	-0.108669	99
Es	2.581274	-1.628344	-1.944420	99
Es	1.040507	0.568293	-0.105176	99
Es	2.510480	-0.952009	-2.095741	99
Es	-2.269747	-0.396985	0.594245	99
Es	-2.800158	-0.317144	0.609229	99
Es	-0.757563	0.920913	0.509676	99
Es	1.404711	-0.494325	-0.761493	99
Es	-1.061850	0.225005	0.536251	99
Es	-1.386902	-0.465538	0.567177	99
Es	0.763979	0.878349	0.537487	99
Es	2.013392	-1.097273	-0.431267	99
Es	-2.876520	-0.208854	0.337512	99
Es	1.926757	-0.852348	-0.711056	99
Es	0.016686	0.886424	0.509331	99
Es	2.320236	-1.173866	-2.013541	99
Es	1.909614	-0.216044	-0.677623	99
Es	-1.202007	-0.872935	-0.040604	99
Es	1.308619	0.282902	-0.730493	99
Es	-1.156876	-0.837226	1.186168	99
Es	-2.872178	-0.169506	0.879222	99
Es	-0.995529	1.318507	1.093194	99
Es	2.063873	-1.225056	-2.155602	99
Es	2.148136	-1.032199	-1.445863	99
Es	1.002077	0.492814	1.120547	99
Es	1.196437	0.663584	-1.357148	99
Es	1.030625	1.567471	0.577825	99
44
Properties=species:S:1:pos:R:3:Z:I:1 energy=-360.94436925340483 field_type=dipole dipole="0.000000 0.000000 0.000000" charge=0
O	-2.800340	-0.316817	0.609273	8
C	-1.386680	-0.465597	0.567163	6
C	-0.757621	0.920953	0.509683	6
C	0.763989	0.878372	0.537563	6
C	1.308650	0.282893	-0.730517	6
N	1.926869	-0.852707	-0.710547	7
O	2.320169	-1.173657	-2.013847	8
H	-3.178530	-1.212237	0.650023	1
H	-1.130490	-1.057137	-0.317127	1
H	-1.066960	-1.005077	1.464413	1
H	-1.118181	1.512043	1.360653	1
H	-1.112561	1.442403	-0.388107	1
H	1.123479	0.311922	1.403353	1
H	1.156620	1.898392	0.611203	1
H	1.145370	0.846512	-1.666127	1
H	2.806220	-2.010257	-1.887057	1
Es	1.030007	1.568255	0.577908	99
Es	-2.880185	-0.155612	0.876742	99
Es	-1.201949	-0.873260	-0.040735	99
Es	1.907992	-0.216183	-0.679536	99
Es	-2.800173	-0.317116	0.609335	99
Es	0.017367	0.886074	0.508985	99
Es	-2.270552	-0.397061	0.594809	99
Es	-2.869079	-0.222899	0.337878	99
Es	2.504000	-0.952263	-2.099432	99
Es	2.069832	-1.225057	-2.148529	99
Es	-0.995788	1.319332	1.093603	99
Es	-0.757565	0.920916	0.509677	99
Es	1.001648	0.492731	1.120777	99
Es	2.320254	-1.173796	-2.013641	99
Es	-1.386905	-0.465537	0.567170	99
Es	1.926778	-0.852390	-0.711059	99
Es	1.040234	0.568250	-0.105510	99
Es	0.763978	0.878353	0.537485	99
Es	-0.987748	1.269187	-0.108602	99
Es	2.014115	-1.096434	-0.429579	99
Es	1.196596	0.663400	-1.357053	99
Es	-1.157122	-0.837058	1.186042	99
Es	-2.983029	-0.807688	0.631824	99
Es	1.405021	-0.493991	-0.762218	99
Es	1.308634	0.282918	-0.730490	99
Es	2.583221	-1.631068	-1.946529	99
Es	-1.061536	0.224734	0.536237	99
Es	2.147157	-1.030510	-1.446050	99
44
Properties=species:S:1:pos:R:3:Z:I:1 energy=-360.94436925340483 field_type=dipole dipole="0.000000 0.000000 0.000000" charge=0
O	-2.800340	-0.316817	0.609273	8
C	-1.386680	-0.465597	0.567163	6
C	-0.757621	0.920953	0.509683	6
C	0.763989	0.878372	0.537563	6
C	1.308650	0.282893	-0.730517	6
N	1.926869	-0.852707	-0.710547	7
O	2.320169	-1.173657	-2.013847	8
H	-3.178530	-1.212237	0.650023	1
H	-1.130490	-1.057137	-0.317127	1
H	-1.066960	-1.005077	1.464413	1
H	-1.118181	1.512043	1.360653	1
H	-1.112561	1.442403	-0.388107	1
H	1.123479	0.311922	1.403353	1
H	1.156620	1.898392	0.611203	1
H	1.145370	0.846512	-1.666127	1
H	2.806220	-2.010257	-1.887057	1
Es	1.926747	-0.852342	-0.711035	99
Es	0.763977	0.878352	0.537486	99
Es	-0.995777	1.319456	1.093757	99
Es	-2.982288	-0.806798	0.636598	99
Es	2.320216	-1.173752	-2.013738	99
Es	-2.800162	-0.317154	0.609271	99
Es	-1.157193	-0.837282	1.186172	99
Es	2.498113	-0.951890	-2.105150	99
Es	-2.270771	-0.397146	0.599646	99
Es	-2.853127	-0.249980	0.343295	99
Es	-1.061214	0.224477	0.536302	99
Es	1.039884	0.568505	-0.105797	99
Es	1.906622	-0.216460	-0.680922	99
Es	1.308630	0.282917	-0.730490	99
Es	2.014621	-1.096763	-0.427946	99
Es	1.196345	0.663237	-1.357236	99
Es	2.147264	-1.027633	-1.446283	99
Es	1.029351	1.568591	0.577689	99
Es	-2.896509	-0.128960	0.861708	99
Es	-0.987524	1.269255	-0.109051	99
Es	1.001768	0.492388	1.121253	99
Es	-1.202080	-0.873181	-0.040811	99
Es	-0.757564	0.920917	0.509681	99
Es	1.406115	-0.493273	-0.762713	99
Es	2.584545	-1.632160	-1.947700	99
Es	0.017712	0.885826	0.509043	99
Es	2.074403	-1.227384	-2.140692	99
Es	-1.386902	-0.465537	0.567173	99
44
Properties=species:S:1:pos:R:3:Z:I:1 energy=-360.94436925340483 field_type=dipole dipole="0.000000 0.000000 0.000000" charge=0
O	-2.800340	-0.316817	0.609273	8
C	-1.386680	-0.465597	0.567163	6
C	-0.757621	0.920953	0.509683	6
C	0.763989	0.878372	0.537563	6
C	1.308650	0.282893	-0.730517	6
N	1.926869	-0.852707	-0.710547	7
O	2.320169	-1.173657	-2.013847	8
H	-3.178530	-1.212237	0.650023	1
H	-1.130490	-1.057137	-0.317127	1
H	-1.066960	-1.005077	1.464413	1
H	-1.118181	1.512043	1.360653	1
H	-1.112561	1.442403	-0.388107	1
H	1.123479	0.311922	1.403353	1
H	1.156620	1.898392	0.611203	1
H	1.145370	0.846512	-1.666127	1
H	2.806220	-2.010257	-1.887057	1
Es	-2.839154	-0.275740	0.355612	99
Es	1.905585	-0.217125	-0.681758	99
Es	-1.157071	-0.837326	1.186559	99
Es	-2.271381	-0.396841	0.602503	99
Es	-1.202155	-0.873098	-0.040985	99
Es	-0.995666	1.319532	1.094130	99
Es	2.497335	-0.954892	-2.102032	99
Es	-0.757563	0.920917	0.509677	99
Es	0.018400	0.885532	0.508806	99
Es	1.001624	0.491885	1.121902	99
Es	1.308630	0.282917	-0.730490	99
Es	1.196131	0.663339	-1.357470	99
Es	2.015030	-1.096965	-0.426666	99
Es	1.028496	1.569048	0.577603	99
Es	-1.386903	-0.465537	0.567172	99
Es	2.584707	-1.633052	-1.948361	99
Es	0.763978	0.878351	0.537485	99
Es	1.407017	-0.492313	-0.763256	99
Es	2.075712	-1.224719	-2.142553	99
Es	-2.981590	-0.806117	0.643206	99
Es	1.926752	-0.852347	-0.711060	99
Es	2.320184	-1.173905	-2.013550	99
Es	1.039582	0.568534	-0.106099	99
Es	-0.987472	1.269277	-0.109619	99
Es	-1.060980	0.224212	0.536249	99
Es	-2.800136	-0.317164	0.609468	99
Es	-2.910383	-0.103889	0.839694	99
Es	2.146498	-1.026289	-1.446660	99
44
Properties=species:S:1:pos:R:3:Z:I:1 energy=-360.94436925340483 field_type=dipole dipole="0.000000 0.000000 0.000000" charge=0
O	-2.800340	-0.316817	0.609273	8
C	-1.386680	-0.465597	0.567163	6
C	-0.757621	0.920953	0.509683	6
C	0.763989	0.878372	0.537563	6
C	1.308650	0.282893	-0.730517	6
N	1.926869	-0.852707	-0.710547	7
O	2.320169	-1.173657	-2.013847	8
H	-3.178530	-1.212237	0.650023	1
H	-1.130490	-1.057137	-0.317127	1
H	-1.066960	-1.005077	1.464413	1
H	-1.118181	1.512043	1.360653	1
H	-1.112561	1.442403	-0.388107	1
H	1.123479	0.311922	1.403353	1
H	1.156620	1.898392	0.611203	1
H	1.145370	0.846512	-1.666127	1
H	2.806220	-2.010257	-1.887057	1
Es	2.586064	-1.632901	-1.949191	99
Es	2.492516	-0.954395	-2.107197	99
Es	1.039580	0.568631	-0.106344	99
Es	0.019088	0.884966	0.508636	99
Es	1.027284	1.569546	0.577516	99
Es	1.195801	0.663327	-1.357690	99
Es	-2.980542	-0.804970	0.646594	99
Es	1.308636	0.282921	-0.730489	99
Es	-2.800126	-0.317132	0.609416	99
Es	2.320247	-1.173820	-2.013627	99
Es	2.078440	-1.227565	-2.136290	99
Es	1.407787	-0.491665	-0.763413	99
Es	-1.060677	0.223870	0.536228	99
Es	-1.156923	-0.837448	1.186868	99
Es	-2.921926	-0.086571	0.818567	99
Es	1.001733	0.491701	1.122435	99
Es	2.015518	-1.096762	-0.425662	99
Es	-1.386902	-0.465536	0.567173	99
Es	1.926752	-0.852345	-0.711054	99
Es	-2.828221	-0.294157	0.370503	99
Es	0.763978	0.878352	0.537485	99
Es	1.904513	-0.217759	-0.682619	99
Es	-0.757565	0.920915	0.509678	99
Es	-0.987665	1.269501	-0.110085	99
Es	-0.995428	1.319305	1.094615	99
Es	-2.271672	-0.396579	0.605386	99
Es	-1.202220	-0.872887	-0.041230	99
Es	2.147135	-1.024314	-1.446701	99
44
Properties=species:S:1:pos:R:3:Z:I:1 energy=-360.94436925340483 field_type=dipole dipole="0.000000 0.000000 0.000000" charge=0
O	-2.800340	-0.316817	0.609273	8
C	-1.386680	-0.465597	0.567163	6
C	-0.757621	0.920953	0.509683	6
C	0.763989	0.878372	0.537563	6
C	1.308650	0.282893	-0.730517	6
N	1.926869	-0.852707	-0.710547	7
O	2.320169	-1.173657	-2.013847	8
H	-3.178530	-1.212237	0.650023	1
H	-1.130490	-1.057137	-0.317127	1
H	-1.066960	-1.005077	1.464413	1
H	-1.118181	1.512043	1.360653	1
H	-1.112561	1.442403	-0.388107	1
H	1.123479	0.311922	1.403353	1
H	1.156620	1.898392	0.611203	1
H	1.145370	0.846512	-1.666127	1
H	2.806220	-2.010257	-1.887057	1
Es	2.016762	-1.095955	-0.424983	99
Es	-1.386902	-0.465537	0.567172	99
Es	-2.930370	-0.076072	0.801212	99
Es	-2.981876	-0.803290	0.645363	99
Es	1.407893	-0.491668	-0.763068	99
Es	-1.201993	-0.872989	-0.041559	99
Es	-2.271213	-0.398103	0.610152	99
Es	1.926752	-0.852345	-0.711051	99
Es	-0.987555	1.269493	-0.110462	99
Es	2.086915	-1.239414	-2.113571	99
Es	-1.156943	-0.837142	1.187124	99
Es	2.320336	-1.173819	-2.013497	99
Es	1.026567	1.569697	0.577396	99
Es	-1.060814	0.223808	0.536247	99
Es	0.763977	0.878353	0.537484	99
Es	1.308630	0.282917	-0.730490	99
Es	1.903704	-0.218026	-0.683675	99
Es	1.001935	0.491782	1.122729	99
Es	2.589459	-1.631246	-1.949510	99
Es	-2.818758	-0.304509	0.384361	99
Es	2.149955	-1.021533	-1.446626	99
Es	-0.995499	1.319300	1.094977	99
Es	1.039441	0.568751	-0.106657	99
Es	2.477575	-0.947305	-2.129674	99
Es	-2.800137	-0.317130	0.609317	99
Es	-0.757564	0.920916	0.509677	99
Es	1.195342	0.662932	-1.357817	99
Es	0.019585	0.884360	0.508938	99
44
Properties=species:S:1:pos:R:3:Z:I:1 energy=-360.94436925340483 field_type=dipole dipole="0.000000 0.000000 0.000000" charge=0
O	-2.800340	-0.316817	0.609273	8
C	-1.386680	-0.465597	0.567163	6
C	-0.757621	0.920953	0.509683	6
C	0.763989	0.878372	0.537563	6
C	1.308650	0.282893	-0.730517	6
N	1.926869	-0.852707	-0.710547	7
O	2.320169	-1.173657	-2.013847	8
H	-3.178530	-1.212237	0.650023	1
H	-1.130490	-1.057137	-0.317127	1
H	-1.066960	-1.005077	1.464413	1
H	-1.118181	1.512043	1.360653	1
H	-1.112561	1.442403	-0.388107	1
H	1.123479	0.311922	1.403353	1
H	1.156620	1.898392	0.611203	1
H	1.145370	0.846512	-1.666127	1
H	2.806220	-2.010257	-1.887057	1
Es	2.080875	-1.222050	-2.142396	99
Es	0.020867	0.883960	0.508613	99
Es	2.016040	-1.096499	-0.424281	99
Es	-0.995429	1.319583	1.095254	99
Es	-2.272653	-0.394913	0.607957	99
Es	-2.979149	-0.804974	0.650199	99
Es	1.024805	1.570707	0.577550	99
Es	1.902775	-0.218498	-0.683791	99
Es	-2.800140	-0.317139	0.609377	99
Es	1.308628	0.282917	-0.730491	99
Es	-0.987414	1.269304	-0.110811	99
Es	1.195788	0.663195	-1.357959	99
Es	-0.757564	0.920917	0.509677	99
Es	1.409096	-0.490994	-0.763592	99
Es	-1.060171	0.222935	0.536287	99
Es	1.039128	0.568655	-0.107006	99
Es	-1.156858	-0.837279	1.187356	99
Es	-2.815712	-0.313818	0.395581	99
Es	2.320246	-1.173865	-2.013545	99
Es	-1.386901	-0.465537	0.567171	99
Es	2.492599	-0.961515	-2.098925	99
Es	2.586116	-1.633601	-1.950470	99
Es	-2.934533	-0.067880	0.787302	99
Es	1.001549	0.491533	1.123247	99
Es	2.144591	-1.022073	-1.447571	99
Es	-1.202097	-0.872854	-0.041671	99
Es	1.926748	-0.852340	-0.711041	99
Es	0.763973	0.878352	0.537486	99
44
Properties=species:S:1:pos:R:3:Z:I:1 energy=-360.94436925340483 field_type=dipole dipole="0.000000 0.000000 0.000000" charge=0
O	-2.800340	-0.316817	0.609273	8
C	-1.386680	-0.465597	0.567163	6
C	-0.757621	0.920953	0.509683	6
C	0.763989	0.878372	0.537563	6
C	1.308650	0.282893	-0.730517	6
N	1.926869	-0.852707	-0.710547	7
O	2.320169	-1.173657	-2.013847	8
H	-3.178530	-1.212237	0.650023	1
H	-1.130490	-1.057137	-0.317127	1
H	-1.066960	-1.005077	1.464413	1
H	-1.118181	1.512043	1.360653	1
H	-1.112561	1.442403	-0.388107	1
H	1.123479	0.311922	1.403353	1
H	1.156620	1.898392	0.611203	1
H	1.145370	0.846512	-1.666127	1
H	2.806220	-2.010257	-1.887057	1
Es	1.194584	0.662214	-1.357719	99
Es	1.026419	1.569701	0.577426	99
Es	-1.386900	-0.465535	0.567174	99
Es	1.001969	0.491983	1.122680	99
Es	1.903743	-0.218096	-0.684487	99
Es	1.308627	0.282918	-0.730491	99
Es	-0.995822	1.319737	1.095086	99
Es	-2.800133	-0.317167	0.609499	99
Es	-0.757563	0.920917	0.509678	99
Es	-2.806782	-0.313640	0.406372	99
Es	2.440416	-0.942630	-2.170093	99
Es	-1.157150	-0.836484	1.187088	99
Es	-2.983767	-0.803159	0.638821	99
Es	-1.060927	0.223759	0.536527	99
Es	-0.987497	1.268886	-0.110500	99
Es	1.926746	-0.852338	-0.711035	99
Es	2.113488	-1.253191	-2.071287	99
Es	0.763979	0.878351	0.537484	99
Es	-2.940423	-0.065925	0.779076	99
Es	-1.201633	-0.873483	-0.041783	99
Es	2.320228	-1.173796	-2.013659	99
Es	1.406884	-0.492004	-0.762604	99
Es	-2.271287	-0.398711	0.616622	99
Es	1.039605	0.568940	-0.106783	99
Es	0.019950	0.883918	0.508944	99
Es	2.155768	-1.015764	-1.446964	99
Es	2.018384	-1.094554	-0.425052	99
Es	2.594298	-1.628620	-1.950513	99
44
Properties=species:S:1:pos:R:3:Z:I:1 energy=-360.94436925340483 field_type=dipole dipole="0.000000 0.000000 0.000000" charge=0
O	-2.800340	-0.316817	0.609273	8
C	-1.386680	-0.465597	0.567163	6
C	-0.757621	0.920953	0.509683	6
C	0.763989	0.878372	0.537563	6
C	1.308650	0.282893	-0.730517	6
N	1.926869	-0.852707	-0.710547	7
O	2.320169	-1.173657	-2.013847	8
H	-3.178530	-1.212237	0.650023	1
H	-1.130490	-1.057137	-0.317127	1
H	-1.066960	-1.005077	1.464413	1
H	-1.118181	1.512043	1.360653	1
H	-1.112561	1.442403	-0.388107	1
H	1.123479	0.311922	1.403353	1
H	1.156620	1.898392	0.611203	1
H	1.145370	0.846512	-1.666127	1
H	2.806220	-2.010257	-1.887057	1
Es	-1.202152	-0.873970	-0.040790	99
Es	2.135425	-1.029051	-1.448966	99
Es	1.039549	0.567911	-0.106370	99
Es	-1.060098	0.223109	0.536168	99
Es	2.571391	-1.641300	-1.954887	99
Es	-2.941028	-0.053193	0.753047	99
Es	2.320459	-1.173751	-2.013439	99
Es	-2.800134	-0.317155	0.609132	99
Es	1.308630	0.282919	-0.730491	99
Es	2.475390	-1.059868	-1.992344	99
Es	-0.995954	1.321255	1.094202	99
Es	1.026726	1.571219	0.578384	99
Es	-2.270050	-0.391120	0.589106	99
Es	-1.386902	-0.465537	0.567173	99
Es	1.000421	0.492220	1.121579	99
Es	2.011029	-1.098168	-0.426717	99
Es	1.926752	-0.852346	-0.711048	99
Es	0.019753	0.884947	0.508196	99
Es	-2.980737	-0.809807	0.653250	99
Es	-1.157620	-0.836884	1.186119	99
Es	1.409168	-0.491962	-0.764401	99
Es	1.904914	-0.216363	-0.681540	99
Es	-0.986324	1.268125	-0.108828	99
Es	2.122604	-1.109657	-2.243139	99
Es	0.763978	0.878352	0.537485	99
Es	1.197973	0.663889	-1.357123	99
Es	-0.757562	0.920916	0.509677	99
Es	-2.810396	-0.328502	0.446073	99
44
Properties=species:S:1:pos:R:3:Z:I:1 energy=-360.94436925340483 field_type=dipole dipole="0.000000 0.000000 0.000000" charge=0
O	-2.800340	-0.316817	0.609273	8
C	-1.386680	-0.465597	0.567163	6
C	-0.757621	0.920953	0.509683	6
C	0.763989	0.878372	0.537563	6
C	1.308650	0.282893	-0.730517	6
N	1.926869	-0.852707	-0.710547	7
O	2.320169	-1.173657	-2.013847	8
H	-3.178530	-1.212237	0.650023	1
H	-1.130490	-1.057137	-0.317127	1
H	-1.066960	-1.005077	1.464413	1
H	-1.118181	1.512043	1.360653	1
H	-1.112561	1.442403	-0.388107	1
H	1.123479	0.311922	1.403353	1
H	1.156620	1.898392	0.611203	1
H	1.145370	0.846512	-1.666127	1
H	2.806220	-2.010257	-1.887057	1
Es	2.569718	-1.642270	-1.956164	99
Es	1.308630	0.282919	-0.730491	99
Es	0.763978	0.878352	0.537485	99
Es	-2.807434	-0.329321	0.455100	99
Es	1.926747	-0.852343	-0.711040	99
Es	1.906656	-0.216054	-0.680535	99
Es	-2.800125	-0.317178	0.609547	99
Es	-2.942057	-0.051052	0.746551	99
Es	-1.060423	0.223456	0.536135	99
Es	-0.757564	0.920916	0.509675	99
Es	-1.386904	-0.465537	0.567172	99
Es	2.320049	-1.173999	-2.013516	99
Es	1.407904	-0.492073	-0.764689	99
Es	2.453097	-1.086882	-1.979220	99
Es	-1.157836	-0.836694	1.185694	99
Es	1.000526	0.492657	1.120842	99
Es	1.197957	0.663704	-1.356817	99
Es	-1.202087	-0.874258	-0.040647	99
Es	2.010367	-1.097906	-0.427845	99
Es	-2.984405	-0.809050	0.649732	99
Es	0.019231	0.884973	0.508278	99
Es	1.039858	0.567888	-0.106036	99
Es	1.027557	1.571110	0.578496	99
Es	-2.268373	-0.393455	0.589734	99
Es	-0.986092	1.267741	-0.108070	99
Es	2.146588	-1.082135	-2.254871	99
Es	-0.996344	1.321569	1.093804	99
Es	2.135987	-1.028851	-1.448793	99
44
Properties=species:S:1:pos:R:3:Z:I:1 energy=-360.94436925340483 field_type=dipole dipole="0.000000 0.000000 0.000000" charge=0
O	-2.800340	-0.316817	0.609273	8
C	-1.386680	-0.465597	0.567163	6
C	-0.757621	0.920953	0.509683	6
C	0.763989	0.878372	0.537563	6
C	1.308650	0.282893	-0.730517	6
N	1.926869	-0.852707	-0.710547	7
O	2.320169	-1.173657	-2.013847	8
H	-3.178530	-1.212237	0.650023	1
H	-1.130490	-1.057137	-0.317127	1
H	-1.066960	-1.005077	1.464413	1
H	-1.118181	1.512043	1.360653	1
H	-1.112561	1.442403	-0.388107	1
H	1.123479	0.311922	1.403353	1
H	1.156620	1.898392	0.611203	1
H	1.145370	0.846512	-1.666127	1
H	2.806220	-2.010257	-1.887057	1
Es	-2.806039	-0.328858	0.458408	99
Es	-0.757564	0.920916	0.509677	99
Es	1.028157	1.571004	0.578557	99
Es	2.571868	-1.641434	-1.956134	99
Es	-1.158030	-0.836363	1.185421	99
Es	-0.985906	1.267393	-0.107680	99
Es	1.407146	-0.492488	-0.764588	99
Es	-1.386900	-0.465537	0.567171	99
Es	1.000395	0.492699	1.120542	99
Es	-2.800142	-0.317152	0.609415	99
Es	1.907036	-0.215796	-0.680640	99
Es	2.136368	-1.028450	-1.448656	99
Es	0.019104	0.885185	0.508232	99
Es	2.438184	-1.100469	-1.975206	99
Es	-2.268825	-0.391890	0.590989	99
Es	1.039817	0.567995	-0.105929	99
Es	1.308631	0.282919	-0.730490	99
Es	2.010805	-1.097510	-0.428095	99
Es	-1.201998	-0.874660	-0.040433	99
Es	2.318818	-1.174904	-2.013071	99
Es	-0.996593	1.321895	1.093484	99
Es	2.160235	-1.069101	-2.259254	99
Es	-1.060505	0.223524	0.536140	99
Es	1.197922	0.663464	-1.356636	99
Es	-2.983925	-0.810786	0.646354	99
Es	-2.943588	-0.051373	0.745509	99
Es	1.926755	-0.852349	-0.711061	99
Es	0.763978	0.878353	0.537485	99
44
Properties=species:S:1:pos:R:3:Z:I:1 energy=-360.94436925340483 field_type=dipole dipole="0.000000 0.000000 0.000000" charge=0
O	-2.800340	-0.316817	0.609273	8
C	-1.386680	-0.465597	0.567163	6
C	-0.757621	0.920953	0.509683	6
C	0.763989	0.878372	0.537563	6
C	1.308650	0.282893	-0.730517	6
N	1.926869	-0.852707	-0.710547	7
O	2.320169	-1.173657	-2.013847	8
H	-3.178530	-1.212237	0.650023	1
H	-1.130490	-1.057137	-0.317127	1
H	-1.066960	-1.005077	1.464413	1
H	-1.118181	1.512043	1.360653	1
H	-1.112561	1.442403	-0.388107	1
H	1.123479	0.311922	1.403353	1
H	1.156620	1.898392	0.611203	1
H	1.145370	0.846512	-1.666127	1
H	2.806220	-2.010257	-1.887057	1
Es	1.308634	0.282919	-0.730490	99
Es	1.040202	0.568224	-0.105555	99
Es	-0.996906	1.321677	1.092987	99
Es	-2.945216	-0.052081	0.743448	99
Es	0.018331	0.885437	0.508429	99
Es	-0.757564	0.920915	0.509677	99
Es	2.373025	-1.149426	-1.977285	99
Es	2.213746	-1.024141	-2.266511	99
Es	-1.386901	-0.465536	0.567171	99
Es	1.926748	-0.852340	-0.711049	99
Es	2.317745	-1.178123	-2.005020	99
Es	-1.061063	0.224079	0.536133	99
Es	1.908821	-0.214917	-0.680452	99
Es	-2.801819	-0.326692	0.463167	99
Es	-2.267055	-0.393945	0.599148	99
Es	2.577050	-1.639142	-1.956433	99
Es	2.143665	-1.024040	-1.446866	99
Es	0.763977	0.878352	0.537484	99
Es	2.012471	-1.096087	-0.429551	99
Es	-2.800132	-0.317142	0.609269	99
Es	-1.201746	-0.875098	-0.040189	99
Es	-0.986073	1.267285	-0.106787	99
Es	1.404514	-0.494029	-0.763678	99
Es	1.000633	0.493238	1.119533	99
Es	1.029761	1.570264	0.578613	99
Es	1.197291	0.662807	-1.356191	99
Es	-2.988660	-0.810350	0.635697	99
Es	-1.158275	-0.835883	1.184810	99
44
Properties=species:S:1:pos:R:3:Z:I:1 energy=-360.94436925340483 field_type=dipole dipole="0.000000 0.000000 0.000000" charge=0
O	-2.800340	-0.316817	0.609273	8
C	-1.386680	-0.465597	0.567163	6
C	-0.757621	0.920953	0.509683	6
C	0.763989	0.878372	0.537563	6
C	1.308650	0.282893	-0.730517	6
N	1.926869	-0.852707	-0.710547	7
O	2.320169	-1.173657	-2.013847	8
H	-3.178530	-1.212237	0.650023	1
H	-1.130490	-1.057137	-0.317127	1
H	-1.066960	-1.005077	1.464413	1
H	-1.118181	1.512043	1.360653	1
H	-1.112561	1.442403	-0.388107	1
H	1.123479	0.311922	1.403353	1
H	1.156620	1.898392	0.611203	1
H	1.145370	0.846512	-1.666127	1
H	2.806220	-2.010257	-1.887057	1
Es	0.019161	0.885114	0.508217	99
Es	-2.800114	-0.317133	0.609270	99
Es	1.926748	-0.852341	-0.711048	99
Es	1.197842	0.663259	-1.356518	99
Es	1.907126	-0.215702	-0.680762	99
Es	-2.268147	-0.393162	0.590475	99
Es	-1.158118	-0.836098	1.185392	99
Es	1.028075	1.570952	0.578657	99
Es	-1.386903	-0.465537	0.567172	99
Es	-2.801798	-0.332631	0.476043	99
Es	1.000174	0.493215	1.120429	99
Es	2.320062	-1.173973	-2.013513	99
Es	-2.985613	-0.810256	0.643922	99
Es	-1.201787	-0.874834	-0.040609	99
Es	2.010872	-1.097114	-0.428297	99
Es	2.424581	-1.113340	-1.972017	99
Es	2.138799	-1.026878	-1.448173	99
Es	-0.985651	1.266820	-0.107413	99
Es	1.406992	-0.492626	-0.764502	99
Es	1.308630	0.282917	-0.730490	99
Es	1.040093	0.567673	-0.105966	99
Es	-0.996951	1.322402	1.093542	99
Es	-0.757564	0.920916	0.509678	99
Es	-1.060593	0.223573	0.536199	99
Es	2.170716	-1.058727	-2.262213	99
Es	0.763977	0.878351	0.537485	99
Es	2.571404	-1.641734	-1.956425	99
Es	-2.946812	-0.046877	0.730973	99
44
Properties=species:S:1:pos:R:3:Z:I:1 energy=-360.94436925340483 field_type=dipole dipole="0.000000 0.000000 0.000000" charge=0
O	-2.800340	-0.316817	0.609273	8
C	-1.386680	-0.465597	0.567163	6
C	-0.757621	0.920953	0.509683	6
C	0.763989	0.878372	0.537563	6
C	1.308650	0.282893	-0.730517	6
N	1.926869	-0.852707	-0.710547	7
O	2.320169	-1.173657	-2.013847	8
H	-3.178530	-1.212237	0.650023	1
H	-1.130490	-1.057137	-0.317127	1
H	-1.066960	-1.005077	1.464413	1
H	-1.118181	1.512043	1.360653	1
H	-1.112561	1.442403	-0.388107	1
H	1.123479	0.311922	1.403353	1
H	1.156620	1.898392	0.611203	1
H	1.145370	0.846512	-1.666127	1
H	2.806220	-2.010257	-1.887057	1
Es	2.140270	-1.025921	-1.447813	99
Es	0.763978	0.878352	0.537485	99
Es	1.308632	0.282918	-0.730490	99
Es	2.399068	-1.132226	-1.972486	99
Es	1.926762	-0.852359	-0.711065	99
Es	-0.757564	0.920916	0.509678	99
Es	1.000434	0.493266	1.119813	99
Es	2.011346	-1.096638	-0.428951	99
Es	-1.201753	-0.875148	-0.040404	99
Es	-2.801476	-0.330737	0.471761	99
Es	-1.060811	0.223828	0.536173	99
Es	0.018961	0.884703	0.508309	99
Es	-0.996973	1.322242	1.093319	99
Es	-0.985693	1.266942	-0.107040	99
Es	1.197597	0.662744	-1.356260	99
Es	-2.986084	-0.810897	0.640605	99
Es	2.320461	-1.174863	-2.009948	99
Es	1.028569	1.570987	0.578771	99
Es	-2.268100	-0.392663	0.594220	99
Es	-2.946846	-0.048501	0.734597	99
Es	-1.158330	-0.835891	1.185012	99
Es	1.908272	-0.215241	-0.680582	99
Es	1.405758	-0.493151	-0.764322	99
Es	2.191186	-1.041487	-2.265265	99
Es	1.040098	0.568227	-0.105811	99
Es	-2.800142	-0.317188	0.609525	99
Es	2.574487	-1.640450	-1.956499	99
Es	-1.386903	-0.465537	0.567173	99
44
Properties=species:S:1:pos:R:3:Z:I:1 energy=-360.94436925340483 field_type=dipole dipole="0.000000 0.000000 0.000000" charge=0
O	-2.800340	-0.316817	0.609273	8
C	-1.386680	-0.465597	0.567163	6
C	-0.757621	0.920953	0.509683	6
C	0.763989	0.878372	0.537563	6
C	1.308650	0.282893	-0.730517	6
N	1.926869	-0.852707	-0.710547	7
O	2.320169	-1.173657	-2.013847	8
H	-3.178530	-1.212237	0.650023	1
H	-1.130490	-1.057137	-0.317127	1
H	-1.066960	-1.005077	1.464413	1
H	-1.118181	1.512043	1.360653	1
H	-1.112561	1.442403	-0.388107	1
H	1.123479	0.311922	1.403353	1
H	1.156620	1.898392	0.611203	1
H	1.145370	0.846512	-1.666127	1
H	2.806220	-2.010257	-1.887057	1
Es	-2.948548	-0.046938	0.728530	99
Es	-2.986701	-0.810534	0.638177	99
Es	-0.757564	0.920916	0.509680	99
Es	1.040280	0.567994	-0.105860	99
Es	1.028533	1.570847	0.578712	99
Es	-2.267618	-0.393206	0.593461	99
Es	-0.985708	1.266743	-0.106994	99
Es	2.141566	-1.024812	-1.447518	99
Es	1.926748	-0.852341	-0.711046	99
Es	2.394615	-1.135891	-1.972058	99
Es	1.308631	0.282918	-0.730490	99
Es	-1.060718	0.223680	0.536256	99
Es	1.405758	-0.493084	-0.764302	99
Es	1.000351	0.493373	1.119973	99
Es	1.907880	-0.215494	-0.680817	99
Es	0.763977	0.878352	0.537485	99
Es	-2.799908	-0.317610	0.609348	99
Es	-1.201660	-0.875309	-0.040441	99
Es	-1.386902	-0.465537	0.567172	99
Es	2.195803	-1.038277	-2.265561	99
Es	2.011631	-1.096385	-0.428735	99
Es	-2.799871	-0.331681	0.481211	99
Es	-0.997073	1.322371	1.093281	99
Es	1.197517	0.662861	-1.356300	99
Es	0.019007	0.885039	0.508255	99
Es	2.319107	-1.175636	-2.010314	99
Es	-1.158367	-0.835692	1.185010	99
Es	2.574437	-1.640441	-1.956608	99
