43
Properties=species:S:1:pos:R:3:Z:I:1 energy=-323.94345127552674 field_type=dipole dipole="0.000000 0.000000 0.000000" charge=0
O	-2.067715	-2.330269	-0.222017	8
C	-1.783495	-1.852569	0.871793	6
C	-0.866905	-0.676399	1.081383	6
C	-0.413395	-0.072829	-0.242407	6
N	0.463195	1.074331	0.033693	7
C	1.870914	0.830011	-0.270367	6
C	1.014405	1.665651	-1.183197	6
H	-2.193105	-2.293709	1.796263	1
H	-0.010505	-1.025219	1.668743	1
H	-1.413495	0.064121	1.676683	1
H	-1.293125	0.275691	-0.799687	1
H	0.065475	-0.842139	-0.862407	1
H	2.177715	-0.152499	-0.605967	1
H	2.585744	1.342351	0.361843	1
H	1.146205	2.740591	-1.164197	1
H	0.718085	1.252881	-2.140157	1
Es	-0.071634	-0.594559	-0.662318	99
Es	0.463413	1.073982	0.033171	99
Es	-1.929064	-2.176820	-0.456658	99
Es	0.381003	1.288990	0.307607	99
Es	0.109610	0.566080	-0.109662	99
Es	2.070641	0.156340	-0.494730	99
Es	-2.067643	-2.330149	-0.221735	99
Es	-2.060143	-2.147137	1.515885	99
Es	1.086922	0.863612	0.012924	99
Es	-1.245368	-0.194971	1.480078	99
Es	1.870679	0.830083	-0.270380	99
Es	-1.783490	-1.852560	0.871788	99
Es	-1.766340	-2.311835	0.190243	99
Es	-1.324378	-1.263444	0.972487	99
Es	2.358689	1.173731	0.161842	99
Es	1.101477	2.396256	-1.174203	99
Es	-1.012098	0.169141	-0.615723	99
Es	-0.866936	-0.676451	1.081370	99
Es	-0.413324	-0.072741	-0.242309	99
Es	1.014379	1.665518	-1.182990	99
Es	-2.260759	-2.574876	-0.202569	99
Es	1.618482	1.282328	-0.860770	99
Es	0.574268	1.374900	-0.541585	99
Es	-2.163199	-2.001083	0.158742	99
Es	0.806954	1.379599	-1.830452	99
Es	-0.641923	-0.387094	0.430328	99
Es	-0.302087	-0.927379	1.474414	99
43
Properties=species:S:1:pos:R:3:Z:I:1 energy=-323.94345127552674 field_type=dipole dipole="0.000000 0.000000 0.000000" charge=0
O	-2.067715	-2.330269	-0.222017	8
C	-1.783495	-1.852569	0.871793	6
C	-0.866905	-0.676399	1.081383	6
C	-0.413395	-0.072829	-0.242407	6
N	0.463195	1.074331	0.033693	7
C	1.870914	0.830011	-0.270367	6
C	1.014405	1.665651	-1.183197	6
H	-2.193105	-2.293709	1.796263	1
H	-0.010505	-1.025219	1.668743	1
H	-1.413495	0.064121	1.676683	1
H	-1.293125	0.275691	-0.799687	1
H	0.065475	-0.842139	-0.862407	1
H	2.177715	-0.152499	-0.605967	1
H	2.585744	1.342351	0.361843	1
H	1.146205	2.740591	-1.164197	1
H	0.718085	1.252881	-2.140157	1
Es	0.378429	1.289794	0.309576	99
Es	2.359249	1.173234	0.163125	99
Es	0.575394	1.374436	-0.543064	99
Es	1.087226	0.861871	0.012859	99
Es	1.014377	1.665522	-1.182996	99
Es	0.112014	0.566866	-0.110830	99
Es	2.069731	0.157212	-0.494309	99
Es	-0.301222	-0.928233	1.475418	99
Es	-2.059693	-2.147391	1.516102	99
Es	-0.866935	-0.676454	1.081368	99
Es	-1.933617	-2.178764	-0.465218	99
Es	-2.163522	-2.002630	0.158467	99
Es	0.463409	1.073984	0.033174	99
Es	-2.067629	-2.330125	-0.221695	99
Es	-1.323899	-1.262647	0.972830	99
Es	-1.783487	-1.852560	0.871792	99
Es	1.100856	2.394530	-1.173278	99
Es	1.870683	0.830079	-0.270376	99
Es	-1.763999	-2.315254	0.191957	99
Es	-0.642101	-0.387417	0.430061	99
Es	-2.258955	-2.566936	-0.195862	99
Es	0.806496	1.379595	-1.832449	99
Es	-1.245779	-0.195543	1.479474	99
Es	1.618433	1.283601	-0.860736	99
Es	-0.413326	-0.072743	-0.242306	99
Es	-1.012623	0.169544	-0.616407	99
Es	-0.071379	-0.594107	-0.661880	99
43
Properties=species:S:1:pos:R:3:Z:I:1 energy=-323.94345127552674 field_type=dipole dipole="0.000000 0.000000 0.000000" charge=0
O	-2.067715	-2.330269	-0.222017	8
C	-1.783495	-1.852569	0.871793	6
C	-0.866905	-0.676399	1.081383	6
C	-0.413395	-0.072829	-0.242407	6
N	0.463195	1.074331	0.033693	7
C	1.870914	0.830011	-0.270367	6
C	1.014405	1.665651	-1.183197	6
H	-2.193105	-2.293709	1.796263	1
H	-0.010505	-1.025219	1.668743	1
H	-1.413495	0.064121	1.676683	1
H	-1.293125	0.275691	-0.799687	1
H	0.065475	-0.842139	-0.862407	1
H	2.177715	-0.152499	-0.605967	1
H	2.585744	1.342351	0.361843	1
H	1.146205	2.740591	-1.164197	1
H	0.718085	1.252881	-2.140157	1
Es	0.805974	1.379760	-1.833755	99
Es	-1.246058	-0.195937	1.478967	99
Es	-1.012838	0.169729	-0.616731	99
Es	2.359734	1.172955	0.164118	99
Es	-0.071209	-0.593937	-0.661683	99
Es	-1.783483	-1.852563	0.871791	99
Es	-1.762870	-2.318234	0.192593	99
Es	0.463403	1.073999	0.033196	99
Es	-1.936959	-2.182470	-0.471380	99
Es	0.113500	0.567339	-0.111589	99
Es	1.618153	1.284380	-0.860608	99
Es	-2.059347	-2.147507	1.516194	99
Es	-0.300730	-0.928358	1.476076	99
Es	-0.413323	-0.072738	-0.242306	99
Es	-0.866935	-0.676453	1.081370	99
Es	1.014383	1.665518	-1.182993	99
Es	-2.257960	-2.560305	-0.190139	99
Es	-2.162817	-2.001838	0.158008	99
Es	-2.067686	-2.330200	-0.221620	99
Es	1.100496	2.393044	-1.172657	99
Es	0.377326	1.290427	0.311707	99
Es	2.069050	0.157913	-0.494148	99
Es	-0.642307	-0.387603	0.429906	99
Es	1.870681	0.830082	-0.270378	99
Es	0.576426	1.374259	-0.543969	99
Es	1.086997	0.860711	0.011756	99
Es	-1.323466	-1.262507	0.973069	99
43
Properties=species:S:1:pos:R:3:Z:I:1 energy=-323.94345127552674 field_type=dipole dipole="0.000000 0.000000 0.000000" charge=0
O	-2.067715	-2.330269	-0.222017	8
C	-1.783495	-1.852569	0.871793	6
C	-0.866905	-0.676399	1.081383	6
C	-0.413395	-0.072829	-0.242407	6
N	0.463195	1.074331	0.033693	7
C	1.870914	0.830011	-0.270367	6
C	1.014405	1.665651	-1.183197	6
H	-2.193105	-2.293709	1.796263	1
H	-0.010505	-1.025219	1.668743	1
H	-1.413495	0.064121	1.676683	1
H	-1.293125	0.275691	-0.799687	1
H	0.065475	-0.842139	-0.862407	1
H	2.177715	-0.152499	-0.605967	1
H	2.585744	1.342351	0.361843	1
H	1.146205	2.740591	-1.164197	1
H	0.718085	1.252881	-2.140157	1
Es	0.463403	1.073987	0.033182	99
Es	-1.783483	-1.852561	0.871794	99
Es	-1.943271	-2.187883	-0.480668	99
Es	-1.013049	0.169812	-0.616997	99
Es	-0.413322	-0.072740	-0.242306	99
Es	-2.067570	-2.330057	-0.221742	99
Es	-2.251437	-2.556774	-0.180168	99
Es	0.376382	1.290857	0.312983	99
Es	-1.323355	-1.262398	0.973240	99
Es	0.805617	1.379878	-1.834690	99
Es	-1.761188	-2.314743	0.192752	99
Es	1.617892	1.284755	-0.860251	99
Es	1.870683	0.830078	-0.270373	99
Es	0.114621	0.567595	-0.112291	99
Es	1.100257	2.391815	-1.172230	99
Es	1.087077	0.860143	0.010957	99
Es	-0.300357	-0.928360	1.476610	99
Es	-2.059042	-2.147661	1.516223	99
Es	1.014376	1.665519	-1.182992	99
Es	2.360178	1.172823	0.164867	99
Es	-0.866935	-0.676452	1.081369	99
Es	2.068491	0.158509	-0.494031	99
Es	0.577168	1.374252	-0.544418	99
Es	-2.165283	-2.003119	0.157186	99
Es	-1.246095	-0.196240	1.478463	99
Es	-0.642392	-0.387834	0.429797	99
Es	-0.071236	-0.593736	-0.661471	99
43
Properties=species:S:1:pos:R:3:Z:I:1 energy=-323.94345127552674 field_type=dipole dipole="0.000000 0.000000 0.000000" charge=0
O	-2.067715	-2.330269	-0.222017	8
C	-1.783495	-1.852569	0.871793	6
C	-0.866905	-0.676399	1.081383	6
C	-0.413395	-0.072829	-0.242407	6
N	0.463195	1.074331	0.033693	7
C	1.870914	0.830011	-0.270367	6
C	1.014405	1.665651	-1.183197	6
H	-2.193105	-2.293709	1.796263	1
H	-0.010505	-1.025219	1.668743	1
H	-1.413495	0.064121	1.676683	1
H	-1.293125	0.275691	-0.799687	1
H	0.065475	-0.842139	-0.862407	1
H	2.177715	-0.152499	-0.605967	1
H	2.585744	1.342351	0.361843	1
H	1.146205	2.740591	-1.164197	1
H	0.718085	1.252881	-2.140157	1
Es	-1.759585	-2.316689	0.191167	99
Es	-1.783481	-1.852560	0.871794	99
Es	-1.323396	-1.262498	0.973323	99
Es	-2.249951	-2.550211	-0.172219	99
Es	-0.642618	-0.387958	0.429830	99
Es	-1.246052	-0.196471	1.477916	99
Es	0.463416	1.074007	0.033187	99
Es	0.805558	1.379876	-1.835316	99
Es	1.617498	1.285278	-0.860161	99
Es	0.115432	0.567779	-0.112607	99
Es	1.870675	0.830084	-0.270386	99
Es	-0.866935	-0.676453	1.081370	99
Es	1.014375	1.665518	-1.182993	99
Es	-0.413321	-0.072740	-0.242306	99
Es	-0.071155	-0.593632	-0.661166	99
Es	-1.013101	0.169807	-0.617367	99
Es	-2.067666	-2.330171	-0.221660	99
Es	-2.058959	-2.147641	1.516217	99
Es	1.086984	0.859687	0.010174	99
Es	1.100032	2.391009	-1.171970	99
Es	0.577923	1.373539	-0.544711	99
Es	-2.162825	-2.001167	0.157457	99
Es	-1.948919	-2.194154	-0.487441	99
Es	-0.300031	-0.928115	1.477090	99
Es	0.375704	1.291652	0.314028	99
Es	2.360498	1.172620	0.165570	99
Es	2.068035	0.159066	-0.494024	99
43
Properties=species:S:1:pos:R:3:Z:I:1 energy=-323.94345127552674 field_type=dipole dipole="0.000000 0.000000 0.000000" charge=0
O	-2.067715	-2.330269	-0.222017	8
C	-1.783495	-1.852569	0.871793	6
C	-0.866905	-0.676399	1.081383	6
C	-0.413395	-0.072829	-0.242407	6
N	0.463195	1.074331	0.033693	7
C	1.870914	0.830011	-0.270367	6
C	1.014405	1.665651	-1.183197	6
H	-2.193105	-2.293709	1.796263	1
H	-0.010505	-1.025219	1.668743	1
H	-1.413495	0.064121	1.676683	1
H	-1.293125	0.275691	-0.799687	1
H	0.065475	-0.842139	-0.862407	1
H	2.177715	-0.152499	-0.605967	1
H	2.585744	1.342351	0.361843	1
H	1.146205	2.740591	-1.164197	1
H	0.718085	1.252881	-2.140157	1
Es	-0.413321	-0.072737	-0.242305	99
Es	-2.067518	-2.329991	-0.221744	99
Es	0.115965	0.567867	-0.113109	99
Es	-0.642704	-0.387929	0.429808	99
Es	0.375163	1.292119	0.314700	99
Es	0.805360	1.379986	-1.835782	99
Es	2.067771	0.159437	-0.493957	99
Es	-2.162133	-2.000579	0.155318	99
Es	1.099973	2.390257	-1.171762	99
Es	1.617267	1.285222	-0.859725	99
Es	0.578693	1.373514	-0.545071	99
Es	-1.245930	-0.196730	1.477521	99
Es	-0.071158	-0.593617	-0.661040	99
Es	-1.954142	-2.201867	-0.494594	99
Es	-1.013204	0.169718	-0.617456	99
Es	1.014372	1.665521	-1.182995	99
Es	0.463405	1.073993	0.033182	99
Es	-2.246436	-2.544747	-0.163663	99
Es	-0.299798	-0.927841	1.477417	99
Es	-0.866936	-0.676454	1.081370	99
Es	1.870682	0.830081	-0.270376	99
Es	2.360715	1.172661	0.165961	99
Es	-2.058868	-2.147706	1.516182	99
Es	1.086803	0.859528	0.009800	99
Es	-1.758899	-2.315042	0.191951	99
Es	-1.783488	-1.852557	0.871793	99
Es	-1.323504	-1.262643	0.973370	99
43
Properties=species:S:1:pos:R:3:Z:I:1 energy=-323.94345127552674 field_type=dipole dipole="0.000000 0.000000 0.000000" charge=0
O	-2.067715	-2.330269	-0.222017	8
C	-1.783495	-1.852569	0.871793	6
C	-0.866905	-0.676399	1.081383	6
C	-0.413395	-0.072829	-0.242407	6
N	0.463195	1.074331	0.033693	7
C	1.870914	0.830011	-0.270367	6
C	1.014405	1.665651	-1.183197	6
H	-2.193105	-2.293709	1.796263	1
H	-0.010505	-1.025219	1.668743	1
H	-1.413495	0.064121	1.676683	1
H	-1.293125	0.275691	-0.799687	1
H	0.065475	-0.842139	-0.862407	1
H	2.177715	-0.152499	-0.605967	1
H	2.585744	1.342351	0.361843	1
H	1.146205	2.740591	-1.164197	1
H	0.718085	1.252881	-2.140157	1
Es	0.463400	1.073990	0.033189	99
Es	-1.013267	0.169698	-0.617576	99
Es	-1.323691	-1.262955	0.973336	99
Es	1.870681	0.830084	-0.270379	99
Es	1.617180	1.285218	-0.859698	99
Es	-2.161212	-1.999851	0.155402	99
Es	-2.239313	-2.536255	-0.151995	99
Es	-1.783487	-1.852557	0.871794	99
Es	0.375632	1.292272	0.314874	99
Es	-1.756556	-2.313419	0.189751	99
Es	0.579285	1.373643	-0.544737	99
Es	2.360985	1.172649	0.166202	99
Es	1.014369	1.665516	-1.182989	99
Es	1.099932	2.389925	-1.171635	99
Es	-1.964613	-2.212478	-0.504110	99
Es	-0.299703	-0.927417	1.477712	99
Es	1.086447	0.859639	0.009265	99
Es	-2.058805	-2.147749	1.516118	99
Es	-0.642655	-0.387986	0.429874	99
Es	-1.245734	-0.196896	1.477097	99
Es	0.805334	1.379955	-1.836066	99
Es	-2.067642	-2.330154	-0.221759	99
Es	-0.413322	-0.072739	-0.242304	99
Es	0.115606	0.567586	-0.113214	99
Es	-0.866935	-0.676453	1.081369	99
Es	2.067459	0.159740	-0.493822	99
Es	-0.071241	-0.593540	-0.660902	99
43
Properties=species:S:1:pos:R:3:Z:I:1 energy=-323.94345127552674 field_type=dipole dipole="0.000000 0.000000 0.000000" charge=0
O	-2.067715	-2.330269	-0.222017	8
C	-1.783495	-1.852569	0.871793	6
C	-0.866905	-0.676399	1.081383	6
C	-0.413395	-0.072829	-0.242407	6
N	0.463195	1.074331	0.033693	7
C	1.870914	0.830011	-0.270367	6
C	1.014405	1.665651	-1.183197	6
H	-2.193105	-2.293709	1.796263	1
H	-0.010505	-1.025219	1.668743	1
H	-1.413495	0.064121	1.676683	1
H	-1.293125	0.275691	-0.799687	1
H	0.065475	-0.842139	-0.862407	1
H	2.177715	-0.152499	-0.605967	1
H	2.585744	1.342351	0.361843	1
H	1.146205	2.740591	-1.164197	1
H	0.718085	1.252881	-2.140157	1
Es	2.067278	0.160122	-0.493719	99
Es	2.361135	1.172697	0.166468	99
Es	0.579803	1.373543	-0.544730	99
Es	-1.013359	0.169597	-0.617655	99
Es	-2.067592	-2.330079	-0.221753	99
Es	-1.245611	-0.197094	1.476836	99
Es	-0.299534	-0.927301	1.477934	99
Es	0.805145	1.380064	-1.836313	99
Es	1.014379	1.665523	-1.182999	99
Es	1.086306	0.859368	0.008569	99
Es	-2.161790	-2.000127	0.154191	99
Es	1.870684	0.830082	-0.270378	99
Es	-1.323768	-1.262977	0.973385	99
Es	-2.058755	-2.147798	1.516061	99
Es	-0.413326	-0.072738	-0.242307	99
Es	0.463410	1.074004	0.033189	99
Es	-1.966732	-2.215977	-0.506633	99
Es	-1.783481	-1.852562	0.871794	99
Es	-2.236808	-2.533359	-0.149406	99
Es	0.115907	0.567624	-0.113445	99
Es	-0.642727	-0.388023	0.429771	99
Es	-1.756566	-2.312491	0.190871	99
Es	1.616859	1.285315	-0.859710	99
Es	-0.866935	-0.676454	1.081370	99
Es	0.375606	1.292658	0.315736	99
Es	1.099842	2.389322	-1.171534	99
Es	-0.071238	-0.593477	-0.660799	99
43
Properties=species:S:1:pos:R:3:Z:I:1 energy=-323.94345127552674 field_type=dipole dipole="0.000000 0.000000 0.000000" charge=0
O	-2.067715	-2.330269	-0.222017	8
C	-1.783495	-1.852569	0.871793	6
C	-0.866905	-0.676399	1.081383	6
C	-0.413395	-0.072829	-0.242407	6
N	0.463195	1.074331	0.033693	7
C	1.870914	0.830011	-0.270367	6
C	1.014405	1.665651	-1.183197	6
H	-2.193105	-2.293709	1.796263	1
H	-0.010505	-1.025219	1.668743	1
H	-1.413495	0.064121	1.676683	1
H	-1.293125	0.275691	-0.799687	1
H	0.065475	-0.842139	-0.862407	1
H	2.177715	-0.152499	-0.605967	1
H	2.585744	1.342351	0.361843	1
H	1.146205	2.740591	-1.164197	1
H	0.718085	1.252881	-2.140157	1
Es	-1.755980	-2.311174	0.191306	99
Es	0.805053	1.380037	-1.836412	99
Es	-2.067675	-2.330178	-0.221641	99
Es	1.014370	1.665516	-1.182989	99
Es	-0.071242	-0.593441	-0.660621	99
Es	0.580098	1.373562	-0.544598	99
Es	-0.413322	-0.072739	-0.242306	99
Es	-1.323909	-1.263312	0.973431	99
Es	1.085994	0.859262	0.007900	99
Es	0.463402	1.073984	0.033179	99
Es	-0.299469	-0.926899	1.478192	99
Es	-0.642761	-0.388002	0.429843	99
Es	-1.971192	-2.222191	-0.510535	99
Es	0.376010	1.292875	0.316324	99
Es	-1.783478	-1.852566	0.871793	99
Es	0.115830	0.567526	-0.113552	99
Es	-1.245428	-0.197269	1.476463	99
Es	1.870686	0.830081	-0.270379	99
Es	-2.058748	-2.147813	1.516027	99
Es	1.099812	2.389052	-1.171529	99
Es	1.616784	1.285391	-0.859786	99
Es	-0.866935	-0.676454	1.081370	99
Es	2.067180	0.160370	-0.493644	99
Es	-1.013355	0.169529	-0.617841	99
Es	-2.161564	-1.999820	0.152765	99
Es	-2.233205	-2.528557	-0.144634	99
Es	2.361175	1.172692	0.166667	99
43
Properties=species:S:1:pos:R:3:Z:I:1 energy=-323.94345127552674 field_type=dipole dipole="0.000000 0.000000 0.000000" charge=0
O	-2.067715	-2.330269	-0.222017	8
C	-1.783495	-1.852569	0.871793	6
C	-0.866905	-0.676399	1.081383	6
C	-0.413395	-0.072829	-0.242407	6
N	0.463195	1.074331	0.033693	7
C	1.870914	0.830011	-0.270367	6
C	1.014405	1.665651	-1.183197	6
H	-2.193105	-2.293709	1.796263	1
H	-0.010505	-1.025219	1.668743	1
H	-1.413495	0.064121	1.676683	1
H	-1.293125	0.275691	-0.799687	1
H	0.065475	-0.842139	-0.862407	1
H	2.177715	-0.152499	-0.605967	1
H	2.585744	1.342351	0.361843	1
H	1.146205	2.740591	-1.164197	1
H	0.718085	1.252881	-2.140157	1
Es	-1.245295	-0.197401	1.476252	99
Es	0.376306	1.292729	0.316990	99
Es	-0.642729	-0.388012	0.429968	99
Es	-0.413322	-0.072738	-0.242306	99
Es	1.085719	0.859327	0.007011	99
Es	-1.783482	-1.852562	0.871794	99
Es	0.115911	0.567483	-0.113860	99
Es	-1.324091	-1.263357	0.973370	99
Es	-2.067442	-2.329891	-0.221739	99
Es	1.616787	1.285277	-0.859826	99
Es	1.870682	0.830081	-0.270378	99
Es	0.805061	1.380063	-1.836607	99
Es	2.361284	1.172745	0.166832	99
Es	-1.976718	-2.225903	-0.513568	99
Es	1.014377	1.665519	-1.182994	99
Es	-2.229406	-2.525329	-0.140858	99
Es	0.580077	1.373831	-0.544237	99
Es	1.099838	2.388759	-1.171452	99
Es	2.067014	0.160616	-0.493469	99
Es	0.463394	1.073986	0.033183	99
Es	-0.071320	-0.593390	-0.660659	99
Es	-2.161498	-2.000592	0.153606	99
Es	-2.058676	-2.147876	1.515982	99
Es	-1.754641	-2.310199	0.189835	99
Es	-0.866936	-0.676454	1.081370	99
Es	-0.299383	-0.926735	1.478343	99
Es	-1.013380	0.169487	-0.617786	99
43
Properties=species:S:1:pos:R:3:Z:I:1 energy=-323.94345127552674 field_type=dipole dipole="0.000000 0.000000 0.000000" charge=0
O	-2.067715	-2.330269	-0.222017	8
C	-1.783495	-1.852569	0.871793	6
C	-0.866905	-0.676399	1.081383	6
C	-0.413395	-0.072829	-0.242407	6
N	0.463195	1.074331	0.033693	7
C	1.870914	0.830011	-0.270367	6
C	1.014405	1.665651	-1.183197	6
H	-2.193105	-2.293709	1.796263	1
H	-0.010505	-1.025219	1.668743	1
H	-1.413495	0.064121	1.676683	1
H	-1.293125	0.275691	-0.799687	1
H	0.065475	-0.842139	-0.862407	1
H	2.177715	-0.152499	-0.605967	1
H	2.585744	1.342351	0.361843	1
H	1.146205	2.740591	-1.164197	1
H	0.718085	1.252881	-2.140157	1
Es	-0.299427	-0.926561	1.478527	99
Es	1.014378	1.665518	-1.182993	99
Es	1.099899	2.388771	-1.171449	99
Es	-1.013404	0.169403	-0.617860	99
Es	-2.058707	-2.147904	1.515963	99
Es	0.805042	1.380006	-1.836636	99
Es	-2.226470	-2.518536	-0.135915	99
Es	-1.324320	-1.263455	0.973433	99
Es	0.115715	0.567374	-0.113944	99
Es	-1.783480	-1.852563	0.871794	99
Es	-2.159567	-1.998968	0.152312	99
Es	-2.067418	-2.329850	-0.221593	99
Es	-1.754684	-2.310491	0.189851	99
Es	1.870687	0.830083	-0.270380	99
Es	0.375993	1.293290	0.316355	99
Es	2.066995	0.160890	-0.493631	99
Es	-0.413322	-0.072740	-0.242306	99
Es	-0.642660	-0.387938	0.429887	99
Es	0.463406	1.074012	0.033205	99
Es	-1.245006	-0.197654	1.476049	99
Es	2.361447	1.172752	0.166776	99
Es	0.581111	1.373362	-0.544333	99
Es	1.085507	0.859071	0.008076	99
Es	-1.981615	-2.234019	-0.517381	99
Es	-0.071425	-0.593299	-0.660552	99
Es	-0.866935	-0.676454	1.081370	99
Es	1.616392	1.285364	-0.859829	99
43
Properties=species:S:1:pos:R:3:Z:I:1 energy=-323.94345127552674 field_type=dipole dipole="0.000000 0.000000 0.000000" charge=0
O	-2.067715	-2.330269	-0.222017	8
C	-1.783495	-1.852569	0.871793	6
C	-0.866905	-0.676399	1.081383	6
C	-0.413395	-0.072829	-0.242407	6
N	0.463195	1.074331	0.033693	7
C	1.870914	0.830011	-0.270367	6
C	1.014405	1.665651	-1.183197	6
H	-2.193105	-2.293709	1.796263	1
H	-0.010505	-1.025219	1.668743	1
H	-1.413495	0.064121	1.676683	1
H	-1.293125	0.275691	-0.799687	1
H	0.065475	-0.842139	-0.862407	1
H	2.177715	-0.152499	-0.605967	1
H	2.585744	1.342351	0.361843	1
H	1.146205	2.740591	-1.164197	1
H	0.718085	1.252881	-2.140157	1
Es	1.616685	1.285307	-0.860076	99
Es	0.805017	1.379999	-1.836712	99
Es	-2.159166	-1.998954	0.152123	99
Es	-0.299321	-0.926313	1.478636	99
Es	0.376901	1.293379	0.316872	99
Es	0.115342	0.567137	-0.113718	99
Es	1.014376	1.665518	-1.182993	99
Es	0.581080	1.373468	-0.544008	99
Es	-1.754038	-2.309724	0.189289	99
Es	2.066834	0.160953	-0.493346	99
Es	1.099857	2.388552	-1.171441	99
Es	-1.783479	-1.852560	0.871794	99
Es	1.870684	0.830082	-0.270379	99
Es	-0.866935	-0.676453	1.081370	99
Es	-2.223665	-2.515262	-0.132849	99
Es	-0.071442	-0.593199	-0.660435	99
Es	0.463395	1.073987	0.033184	99
Es	-1.244924	-0.197744	1.475840	99
Es	-1.013385	0.169416	-0.618024	99
Es	-1.985242	-2.237684	-0.519675	99
Es	2.361504	1.172760	0.166834	99
Es	-0.413320	-0.072738	-0.242306	99
Es	-2.058688	-2.147944	1.515927	99
Es	-2.067691	-2.330200	-0.221620	99
Es	-1.324404	-1.263597	0.973488	99
Es	-0.642788	-0.388030	0.429920	99
Es	1.084944	0.859310	0.007099	99
43
Properties=species:S:1:pos:R:3:Z:I:1 energy=-323.94345127552674 field_type=dipole dipole="0.000000 0.000000 0.000000" charge=0
O	-2.067715	-2.330269	-0.222017	8
C	-1.783495	-1.852569	0.871793	6
C	-0.866905	-0.676399	1.081383	6
C	-0.413395	-0.072829	-0.242407	6
N	0.463195	1.074331	0.033693	7
C	1.870914	0.830011	-0.270367	6
C	1.014405	1.665651	-1.183197	6
H	-2.193105	-2.293709	1.796263	1
H	-0.010505	-1.025219	1.668743	1
H	-1.413495	0.064121	1.676683	1
H	-1.293125	0.275691	-0.799687	1
H	0.065475	-0.842139	-0.862407	1
H	2.177715	-0.152499	-0.605967	1
H	2.585744	1.342351	0.361843	1
H	1.146205	2.740591	-1.164197	1
H	0.718085	1.252881	-2.140157	1
Es	-0.866935	-0.676454	1.081370	99
Es	2.066640	0.161301	-0.493373	99
Es	1.084850	0.859294	0.006630	99
Es	1.099852	2.388332	-1.171370	99
Es	-0.299309	-0.926317	1.478783	99
Es	-1.245001	-0.197701	1.475699	99
Es	-2.067608	-2.330098	-0.221700	99
Es	-2.158897	-1.999060	0.151210	99
Es	-0.642671	-0.388076	0.429973	99
Es	0.115843	0.567142	-0.113893	99
Es	1.014376	1.665519	-1.182994	99
Es	-1.984573	-2.238047	-0.519805	99
Es	-0.071462	-0.593236	-0.660371	99
Es	1.616425	1.285422	-0.860042	99
Es	0.463401	1.073990	0.033187	99
Es	0.376677	1.293654	0.317473	99
Es	1.870684	0.830080	-0.270376	99
Es	-1.013437	0.169315	-0.618018	99
Es	-1.324350	-1.263621	0.973298	99
Es	0.581289	1.373209	-0.544096	99
Es	-1.783481	-1.852562	0.871794	99
Es	-2.058670	-2.147894	1.515946	99
Es	2.361634	1.172608	0.167064	99
Es	-2.224075	-2.514110	-0.133167	99
Es	-0.413323	-0.072741	-0.242307	99
Es	-1.754746	-2.310489	0.190745	99
Es	0.804997	1.380004	-1.836865	99
