42
Properties=species:S:1:pos:R:3:Z:I:1 energy=-339.97233535784795 field_type=dipole dipole="0.000000 0.000000 0.000000" charge=0
O	0.030061	-2.530168	-0.239057	8
C	-1.024249	-1.966278	0.522073	6
C	-0.894039	-0.476918	0.608573	6
C	0.044652	0.267392	0.006263	6
N	0.179852	1.630312	0.084443	7
C	1.086291	2.455152	-0.519317	6
N	2.022411	2.178832	-1.354847	7
H	-0.096869	-3.493498	-0.225117	1
H	-0.996759	-2.396358	1.528123	1
H	-1.976449	-2.227728	0.050253	1
H	-1.644749	0.011702	1.223013	1
H	0.795771	-0.218288	-0.612477	1
H	-0.496849	2.084122	0.689163	1
H	0.949961	3.506792	-0.213007	1
H	2.020961	1.174932	-1.548077	1
Es	-0.894092	-0.476968	0.608615	99
Es	2.007873	1.566965	-1.460615	99
Es	-0.643196	-0.087195	0.055016	99
Es	1.464364	2.313378	-1.236279	99
Es	0.551461	-0.040047	-0.409872	99
Es	0.179392	1.630611	0.082466	99
Es	-1.409247	-0.145451	1.029450	99
Es	0.535785	1.962307	-0.233318	99
Es	-1.012299	-2.254413	1.215179	99
Es	2.022045	2.178530	-1.354592	99
Es	2.250970	2.407317	-1.500496	99
Es	-0.944801	-1.213574	0.556027	99
Es	0.029796	-2.530332	-0.238924	99
Es	-1.681629	-2.138484	0.204929	99
Es	0.287451	-2.473761	-0.083879	99
Es	-0.011723	-2.437888	-0.528638	99
Es	-0.233113	1.909239	0.433419	99
Es	0.044742	0.267638	0.006230	99
Es	-0.056488	-3.046305	-0.220312	99
Es	0.109397	1.045511	0.018351	99
Es	-0.249417	-0.152510	0.587912	99
Es	0.307279	1.628741	0.126377	99
Es	-1.024062	-1.966309	0.521945	99
Es	1.086111	2.455067	-0.519182	99
Es	1.822542	2.230500	-0.802784	99
Es	0.978080	3.163510	-0.300425	99
Es	-0.378739	-2.334783	0.053661	99
42
Properties=species:S:1:pos:R:3:Z:I:1 energy=-339.97233535784795 field_type=dipole dipole="0.000000 0.000000 0.000000" charge=0
O	0.030061	-2.530168	-0.239057	8
C	-1.024249	-1.966278	0.522073	6
C	-0.894039	-0.476918	0.608573	6
C	0.044652	0.267392	0.006263	6
N	0.179852	1.630312	0.084443	7
C	1.086291	2.455152	-0.519317	6
N	2.022411	2.178832	-1.354847	7
H	-0.096869	-3.493498	-0.225117	1
H	-0.996759	-2.396358	1.528123	1
H	-1.976449	-2.227728	0.050253	1
H	-1.644749	0.011702	1.223013	1
H	0.795771	-0.218288	-0.612477	1
H	-0.496849	2.084122	0.689163	1
H	0.949961	3.506792	-0.213007	1
H	2.020961	1.174932	-1.548077	1
Es	-0.378113	-2.334999	0.055311	99
Es	-0.894099	-0.476977	0.608615	99
Es	-0.015139	-2.439521	-0.528316	99
Es	-0.643674	-0.086853	0.055105	99
Es	0.230564	1.638170	0.039858	99
Es	1.468146	2.307230	-1.231394	99
Es	0.288394	-2.471624	-0.087313	99
Es	-0.249548	-0.152504	0.587606	99
Es	1.814867	2.227220	-0.808168	99
Es	-1.024062	-1.966309	0.521948	99
Es	0.584759	1.960673	-0.186693	99
Es	-1.409453	-0.145410	1.030176	99
Es	0.551488	-0.040238	-0.410027	99
Es	-1.013035	-2.255160	1.215020	99
Es	0.978721	3.162551	-0.300467	99
Es	-0.945092	-1.212457	0.556159	99
Es	0.127110	1.039528	0.041859	99
Es	-0.054579	-3.046475	-0.218953	99
Es	0.179853	1.630293	0.084433	99
Es	2.260421	2.414956	-1.505903	99
Es	2.022049	2.178531	-1.354602	99
Es	0.029812	-2.530320	-0.238953	99
Es	0.044739	0.267637	0.006230	99
Es	2.002279	1.570464	-1.455062	99
Es	-0.223459	1.906291	0.447678	99
Es	-1.680582	-2.138469	0.205298	99
Es	1.086114	2.455067	-0.519181	99
42
Properties=species:S:1:pos:R:3:Z:I:1 energy=-339.97233535784795 field_type=dipole dipole="0.000000 0.000000 0.000000" charge=0
O	0.030061	-2.530168	-0.239057	8
C	-1.024249	-1.966278	0.522073	6
C	-0.894039	-0.476918	0.608573	6
C	0.044652	0.267392	0.006263	6
N	0.179852	1.630312	0.084443	7
C	1.086291	2.455152	-0.519317	6
N	2.022411	2.178832	-1.354847	7
H	-0.096869	-3.493498	-0.225117	1
H	-0.996759	-2.396358	1.528123	1
H	-1.976449	-2.227728	0.050253	1
H	-1.644749	0.011702	1.223013	1
H	0.795771	-0.218288	-0.612477	1
H	-0.496849	2.084122	0.689163	1
H	0.949961	3.506792	-0.213007	1
H	2.020961	1.174932	-1.548077	1
Es	-1.409817	-0.145140	1.029807	99
Es	-0.249449	-0.152270	0.587796	99
Es	0.029744	-2.530343	-0.238981	99
Es	-0.643611	-0.086895	0.055485	99
Es	-0.059779	-3.045453	-0.227384	99
Es	0.978691	3.161895	-0.301063	99
Es	1.468913	2.305080	-1.227243	99
Es	0.124143	1.040686	0.038814	99
Es	-0.224531	1.905311	0.446253	99
Es	1.813070	2.225062	-0.813136	99
Es	1.998290	1.573621	-1.451203	99
Es	0.587473	1.960245	-0.183634	99
Es	0.044740	0.267642	0.006230	99
Es	-0.945892	-1.212111	0.556236	99
Es	0.244380	-2.501697	-0.064095	99
Es	-0.894106	-0.476972	0.608602	99
Es	-1.024063	-1.966308	0.521952	99
Es	-0.382072	-2.333964	0.049755	99
Es	-1.013122	-2.255299	1.214466	99
Es	2.266013	2.416980	-1.508342	99
Es	0.211894	1.632307	0.074402	99
Es	0.199836	1.635741	0.051087	99
Es	0.038295	-2.411226	-0.537701	99
Es	0.551788	-0.040491	-0.409677	99
Es	-1.680522	-2.138704	0.205632	99
Es	2.022063	2.178532	-1.354612	99
Es	1.086114	2.455068	-0.519183	99
42
Properties=species:S:1:pos:R:3:Z:I:1 energy=-339.97233535784795 field_type=dipole dipole="0.000000 0.000000 0.000000" charge=0
O	0.030061	-2.530168	-0.239057	8
C	-1.024249	-1.966278	0.522073	6
C	-0.894039	-0.476918	0.608573	6
C	0.044652	0.267392	0.006263	6
N	0.179852	1.630312	0.084443	7
C	1.086291	2.455152	-0.519317	6
N	2.022411	2.178832	-1.354847	7
H	-0.096869	-3.493498	-0.225117	1
H	-0.996759	-2.396358	1.528123	1
H	-1.976449	-2.227728	0.050253	1
H	-1.644749	0.011702	1.223013	1
H	0.795771	-0.218288	-0.612477	1
H	-0.496849	2.084122	0.689163	1
H	0.949961	3.506792	-0.213007	1
H	2.020961	1.174932	-1.548077	1
Es	-0.894094	-0.476972	0.608619	99
Es	-1.408606	-0.145890	1.031565	99
Es	-1.678822	-2.137562	0.205239	99
Es	-1.014131	-2.256345	1.216146	99
Es	-0.042730	-3.047358	-0.205919	99
Es	1.086112	2.455067	-0.519181	99
Es	0.578611	1.962141	-0.194812	99
Es	-0.220227	1.903738	0.451410	99
Es	-0.644606	-0.085962	0.053771	99
Es	-0.945429	-1.212039	0.556631	99
Es	0.044737	0.267641	0.006227	99
Es	1.813380	2.224799	-0.808441	99
Es	-0.249389	-0.153168	0.588229	99
Es	2.022059	2.178521	-1.354617	99
Es	1.471399	2.301654	-1.227132	99
Es	1.996879	1.578115	-1.450048	99
Es	0.127831	1.040112	0.043842	99
Es	0.231005	1.637650	0.040918	99
Es	-0.079323	-2.510795	-0.413457	99
Es	0.181682	1.630138	0.085627	99
Es	-0.366297	-2.334397	0.070666	99
Es	0.029626	-2.530347	-0.239056	99
Es	0.979194	3.160807	-0.300701	99
Es	2.263872	2.417286	-1.515485	99
Es	0.329133	-2.399407	-0.230708	99
Es	-1.024058	-1.966312	0.521949	99
Es	0.550675	-0.039818	-0.411017	99
42
Properties=species:S:1:pos:R:3:Z:I:1 energy=-339.97233535784795 field_type=dipole dipole="0.000000 0.000000 0.000000" charge=0
O	0.030061	-2.530168	-0.239057	8
C	-1.024249	-1.966278	0.522073	6
C	-0.894039	-0.476918	0.608573	6
C	0.044652	0.267392	0.006263	6
N	0.179852	1.630312	0.084443	7
C	1.086291	2.455152	-0.519317	6
N	2.022411	2.178832	-1.354847	7
H	-0.096869	-3.493498	-0.225117	1
H	-0.996759	-2.396358	1.528123	1
H	-1.976449	-2.227728	0.050253	1
H	-1.644749	0.011702	1.223013	1
H	0.795771	-0.218288	-0.612477	1
H	-0.496849	2.084122	0.689163	1
H	0.949961	3.506792	-0.213007	1
H	2.020961	1.174932	-1.548077	1
Es	-0.065577	-2.529598	-0.348397	99
Es	1.814327	2.223593	-0.807349	99
Es	-1.408599	-0.146352	1.031202	99
Es	0.979223	3.159798	-0.300723	99
Es	0.030006	-2.530424	-0.238358	99
Es	-0.220956	1.903551	0.450455	99
Es	0.239167	1.636160	0.049711	99
Es	0.577599	1.962313	-0.196174	99
Es	0.044740	0.267639	0.006229	99
Es	2.022079	2.178503	-1.354631	99
Es	0.123829	1.041032	0.038924	99
Es	-1.013830	-2.256106	1.216373	99
Es	-0.945609	-1.212101	0.556756	99
Es	-0.894094	-0.476972	0.608618	99
Es	-0.248378	-0.153217	0.589368	99
Es	0.313944	-2.380432	-0.296898	99
Es	0.550553	-0.039447	-0.410600	99
Es	1.086119	2.455066	-0.519176	99
Es	-0.366364	-2.333360	0.071081	99
Es	2.265285	2.416126	-1.516843	99
Es	1.470281	2.301827	-1.227520	99
Es	-0.645487	-0.086063	0.052654	99
Es	1.995729	1.581374	-1.449398	99
Es	-1.679387	-2.137529	0.204850	99
Es	-0.041577	-3.048144	-0.205759	99
Es	-1.024064	-1.966307	0.521951	99
Es	0.179526	1.630366	0.083916	99
42
Properties=species:S:1:pos:R:3:Z:I:1 energy=-339.97233535784795 field_type=dipole dipole="0.000000 0.000000 0.000000" charge=0
O	0.030061	-2.530168	-0.239057	8
C	-1.024249	-1.966278	0.522073	6
C	-0.894039	-0.476918	0.608573	6
C	0.044652	0.267392	0.006263	6
N	0.179852	1.630312	0.084443	7
C	1.086291	2.455152	-0.519317	6
N	2.022411	2.178832	-1.354847	7
H	-0.096869	-3.493498	-0.225117	1
H	-0.996759	-2.396358	1.528123	1
H	-1.976449	-2.227728	0.050253	1
H	-1.644749	0.011702	1.223013	1
H	0.795771	-0.218288	-0.612477	1
H	-0.496849	2.084122	0.689163	1
H	0.949961	3.506792	-0.213007	1
H	2.020961	1.174932	-1.548077	1
Es	-1.024063	-1.966309	0.521947	99
Es	-0.384572	-2.331377	0.046466	99
Es	-0.247445	-0.152585	0.590348	99
Es	-0.894101	-0.476976	0.608610	99
Es	2.270934	2.415332	-1.512813	99
Es	0.197311	-2.366144	-0.468536	99
Es	-1.409630	-0.146329	1.029416	99
Es	0.092149	-2.548796	-0.121023	99
Es	0.551274	-0.039474	-0.409224	99
Es	-1.012547	-2.254980	1.215107	99
Es	0.044741	0.267640	0.006230	99
Es	-0.946238	-1.212052	0.556272	99
Es	-1.681323	-2.138692	0.205075	99
Es	-0.645498	-0.086659	0.053084	99
Es	-0.064650	-3.045086	-0.236970	99
Es	1.086111	2.455067	-0.519183	99
Es	0.232403	1.637167	0.041047	99
Es	0.121434	1.041654	0.036055	99
Es	-0.223351	1.903536	0.446947	99
Es	1.813187	2.221762	-0.812173	99
Es	1.467378	2.303249	-1.227372	99
Es	1.994922	1.583111	-1.447839	99
Es	0.030209	-2.530442	-0.238088	99
Es	0.589038	1.960511	-0.181766	99
Es	2.022042	2.178550	-1.354590	99
Es	0.979035	3.159303	-0.301036	99
Es	0.179735	1.630314	0.084271	99
42
Properties=species:S:1:pos:R:3:Z:I:1 energy=-339.97233535784795 field_type=dipole dipole="0.000000 0.000000 0.000000" charge=0
O	0.030061	-2.530168	-0.239057	8
C	-1.024249	-1.966278	0.522073	6
C	-0.894039	-0.476918	0.608573	6
C	0.044652	0.267392	0.006263	6
N	0.179852	1.630312	0.084443	7
C	1.086291	2.455152	-0.519317	6
N	2.022411	2.178832	-1.354847	7
H	-0.096869	-3.493498	-0.225117	1
H	-0.996759	-2.396358	1.528123	1
H	-1.976449	-2.227728	0.050253	1
H	-1.644749	0.011702	1.223013	1
H	0.795771	-0.218288	-0.612477	1
H	-0.496849	2.084122	0.689163	1
H	0.949961	3.506792	-0.213007	1
H	2.020961	1.174932	-1.548077	1
Es	1.813840	2.220899	-0.811377	99
Es	0.550945	-0.039245	-0.409275	99
Es	-1.024067	-1.966306	0.521950	99
Es	-1.681120	-2.138526	0.204996	99
Es	-0.062141	-3.046503	-0.232794	99
Es	-0.946368	-1.212118	0.556318	99
Es	0.180148	1.630248	0.084752	99
Es	-1.012572	-2.255157	1.215471	99
Es	1.994358	1.585818	-1.447218	99
Es	0.067263	-2.549106	-0.146036	99
Es	-0.645738	-0.086366	0.052466	99
Es	2.270969	2.415103	-1.514770	99
Es	0.979193	3.158661	-0.301095	99
Es	0.120027	1.042199	0.034257	99
Es	0.234089	1.636573	0.043200	99
Es	-0.383146	-2.331034	0.048604	99
Es	1.467132	2.302256	-1.226924	99
Es	-1.409404	-0.146549	1.029507	99
Es	-0.222625	1.903159	0.447764	99
Es	-0.247255	-0.152903	0.590846	99
Es	0.587721	1.960913	-0.183445	99
Es	-0.894101	-0.476975	0.608611	99
Es	0.044745	0.267639	0.006238	99
Es	2.022073	2.178509	-1.354626	99
Es	1.086112	2.455066	-0.519182	99
Es	0.218411	-2.364551	-0.449520	99
Es	0.029993	-2.530408	-0.238453	99
42
Properties=species:S:1:pos:R:3:Z:I:1 energy=-339.97233535784795 field_type=dipole dipole="0.000000 0.000000 0.000000" charge=0
O	0.030061	-2.530168	-0.239057	8
C	-1.024249	-1.966278	0.522073	6
C	-0.894039	-0.476918	0.608573	6
C	0.044652	0.267392	0.006263	6
N	0.179852	1.630312	0.084443	7
C	1.086291	2.455152	-0.519317	6
N	2.022411	2.178832	-1.354847	7
H	-0.096869	-3.493498	-0.225117	1
H	-0.996759	-2.396358	1.528123	1
H	-1.976449	-2.227728	0.050253	1
H	-1.644749	0.011702	1.223013	1
H	0.795771	-0.218288	-0.612477	1
H	-0.496849	2.084122	0.689163	1
H	0.949961	3.506792	-0.213007	1
H	2.020961	1.174932	-1.548077	1
Es	0.044745	0.267637	0.006238	99
Es	2.022055	2.178533	-1.354603	99
Es	-1.012888	-2.255460	1.215756	99
Es	0.029601	-2.530358	-0.239094	99
Es	-0.059623	-3.046747	-0.230599	99
Es	-1.680735	-2.138263	0.204798	99
Es	-0.247016	-0.152853	0.590965	99
Es	1.086107	2.455069	-0.519195	99
Es	-0.946471	-1.212103	0.556502	99
Es	0.120814	1.041984	0.035341	99
Es	0.180097	1.630254	0.084705	99
Es	0.236275	-2.363140	-0.430237	99
Es	1.468347	2.302112	-1.228623	99
Es	1.812217	2.220231	-0.809682	99
Es	-0.646086	-0.086387	0.052209	99
Es	-0.381929	-2.332319	0.051873	99
Es	0.233733	1.636613	0.042659	99
Es	0.586538	1.961246	-0.185009	99
Es	2.271982	2.414469	-1.515287	99
Es	-1.409115	-0.146578	1.029608	99
Es	-0.894100	-0.476975	0.608612	99
Es	0.046008	-2.548932	-0.170053	99
Es	1.993610	1.588061	-1.446894	99
Es	-0.221593	1.902753	0.448669	99
Es	-1.024067	-1.966305	0.521950	99
Es	0.979273	3.157972	-0.301010	99
Es	0.550702	-0.039221	-0.409333	99
42
Properties=species:S:1:pos:R:3:Z:I:1 energy=-339.97233535784795 field_type=dipole dipole="0.000000 0.000000 0.000000" charge=0
O	0.030061	-2.530168	-0.239057	8
C	-1.024249	-1.966278	0.522073	6
C	-0.894039	-0.476918	0.608573	6
C	0.044652	0.267392	0.006263	6
N	0.179852	1.630312	0.084443	7
C	1.086291	2.455152	-0.519317	6
N	2.022411	2.178832	-1.354847	7
H	-0.096869	-3.493498	-0.225117	1
H	-0.996759	-2.396358	1.528123	1
H	-1.976449	-2.227728	0.050253	1
H	-1.644749	0.011702	1.223013	1
H	0.795771	-0.218288	-0.612477	1
H	-0.496849	2.084122	0.689163	1
H	0.949961	3.506792	-0.213007	1
H	2.020961	1.174932	-1.548077	1
Es	-0.378305	-2.331894	0.056023	99
Es	1.468191	2.301326	-1.227921	99
Es	2.272026	2.414622	-1.516503	99
Es	-1.680414	-2.138101	0.204748	99
Es	-1.408981	-0.146738	1.029888	99
Es	-0.646249	-0.086155	0.051898	99
Es	1.812687	2.219267	-0.809677	99
Es	0.550540	-0.039134	-0.409352	99
Es	-0.247082	-0.153008	0.591009	99
Es	0.234555	1.636415	0.043766	99
Es	0.585631	1.961580	-0.186077	99
Es	0.179475	1.630376	0.083815	99
Es	1.993164	1.590152	-1.446490	99
Es	0.121064	1.042145	0.035703	99
Es	0.979458	3.157349	-0.301062	99
Es	0.029986	-2.530400	-0.238498	99
Es	0.044741	0.267639	0.006229	99
Es	-1.013109	-2.255662	1.215947	99
Es	-0.221127	1.902368	0.449191	99
Es	-0.946422	-1.212069	0.556492	99
Es	2.022062	2.178532	-1.354610	99
Es	-0.057731	-3.047876	-0.226165	99
Es	-0.894101	-0.476974	0.608610	99
Es	0.026229	-2.547571	-0.195468	99
Es	-1.024065	-1.966307	0.521949	99
Es	0.250153	-2.363655	-0.413998	99
Es	1.086108	2.455067	-0.519185	99
42
Properties=species:S:1:pos:R:3:Z:I:1 energy=-339.97233535784795 field_type=dipole dipole="0.000000 0.000000 0.000000" charge=0
O	0.030061	-2.530168	-0.239057	8
C	-1.024249	-1.966278	0.522073	6
C	-0.894039	-0.476918	0.608573	6
C	0.044652	0.267392	0.006263	6
N	0.179852	1.630312	0.084443	7
C	1.086291	2.455152	-0.519317	6
N	2.022411	2.178832	-1.354847	7
H	-0.096869	-3.493498	-0.225117	1
H	-0.996759	-2.396358	1.528123	1
H	-1.976449	-2.227728	0.050253	1
H	-1.644749	0.011702	1.223013	1
H	0.795771	-0.218288	-0.612477	1
H	-0.496849	2.084122	0.689163	1
H	0.949961	3.506792	-0.213007	1
H	2.020961	1.174932	-1.548077	1
Es	-0.247094	-0.152989	0.590972	99
Es	1.812481	2.218980	-0.809798	99
Es	0.018954	-2.545663	-0.209019	99
Es	-0.894103	-0.476975	0.608609	99
Es	0.121660	1.042096	0.036331	99
Es	-0.376406	-2.332681	0.058304	99
Es	-0.220864	1.902109	0.449433	99
Es	1.086103	2.455068	-0.519191	99
Es	2.022058	2.178533	-1.354607	99
Es	0.180781	1.630181	0.085231	99
Es	0.585653	1.961649	-0.185956	99
Es	-1.024065	-1.966311	0.521943	99
Es	-0.646161	-0.086205	0.051999	99
Es	-1.013391	-2.255921	1.215946	99
Es	0.232413	1.636745	0.041204	99
Es	1.992986	1.591585	-1.445855	99
Es	0.029966	-2.531738	-0.234599	99
Es	0.255398	-2.363605	-0.407308	99
Es	0.044741	0.267639	0.006228	99
Es	1.468438	2.300554	-1.227580	99
Es	-0.057564	-3.047656	-0.225473	99
Es	2.272205	2.414825	-1.517246	99
Es	-1.680065	-2.137986	0.204767	99
Es	0.550431	-0.039188	-0.409385	99
Es	-1.409133	-0.146776	1.030048	99
Es	-0.946367	-1.211827	0.556474	99
Es	0.979429	3.156850	-0.301207	99
42
Properties=species:S:1:pos:R:3:Z:I:1 energy=-339.97233535784795 field_type=dipole dipole="0.000000 0.000000 0.000000" charge=0
O	0.030061	-2.530168	-0.239057	8
C	-1.024249	-1.966278	0.522073	6
C	-0.894039	-0.476918	0.608573	6
C	0.044652	0.267392	0.006263	6
N	0.179852	1.630312	0.084443	7
C	1.086291	2.455152	-0.519317	6
N	2.022411	2.178832	-1.354847	7
H	-0.096869	-3.493498	-0.225117	1
H	-0.996759	-2.396358	1.528123	1
H	-1.976449	-2.227728	0.050253	1
H	-1.644749	0.011702	1.223013	1
H	0.795771	-0.218288	-0.612477	1
H	-0.496849	2.084122	0.689163	1
H	0.949961	3.506792	-0.213007	1
H	2.020961	1.174932	-1.548077	1
Es	-1.409146	-0.146703	1.030019	99
Es	1.811226	2.218394	-0.810680	99
Es	-0.058935	-3.046916	-0.226905	99
Es	-1.679797	-2.137932	0.204864	99
Es	0.179299	1.630445	0.083338	99
Es	2.273207	2.414991	-1.516852	99
Es	2.022061	2.178532	-1.354610	99
Es	0.234527	1.636280	0.043808	99
Es	0.027573	-2.531165	-0.239271	99
Es	1.468962	2.300191	-1.227676	99
Es	-0.894102	-0.476975	0.608610	99
Es	-0.221090	1.902100	0.448772	99
Es	0.979576	3.156554	-0.301160	99
Es	-0.646062	-0.086082	0.052280	99
Es	0.550300	-0.039382	-0.409331	99
Es	-0.377265	-2.332885	0.056888	99
Es	0.585818	1.961635	-0.185797	99
Es	0.028161	-2.546919	-0.195300	99
Es	1.086102	2.455065	-0.519190	99
Es	0.121305	1.042326	0.036058	99
Es	-0.247163	-0.152952	0.590887	99
Es	-1.013587	-2.256169	1.215822	99
Es	0.044739	0.267642	0.006229	99
Es	1.992637	1.592666	-1.445306	99
Es	-1.024065	-1.966307	0.521949	99
Es	-0.946611	-1.211734	0.556398	99
Es	0.250813	-2.363405	-0.413577	99
42
Properties=species:S:1:pos:R:3:Z:I:1 energy=-339.97233535784795 field_type=dipole dipole="0.000000 0.000000 0.000000" charge=0
O	0.030061	-2.530168	-0.239057	8
C	-1.024249	-1.966278	0.522073	6
C	-0.894039	-0.476918	0.608573	6
C	0.044652	0.267392	0.006263	6
N	0.179852	1.630312	0.084443	7
C	1.086291	2.455152	-0.519317	6
N	2.022411	2.178832	-1.354847	7
H	-0.096869	-3.493498	-0.225117	1
H	-0.996759	-2.396358	1.528123	1
H	-1.976449	-2.227728	0.050253	1
H	-1.644749	0.011702	1.223013	1
H	0.795771	-0.218288	-0.612477	1
H	-0.496849	2.084122	0.689163	1
H	0.949961	3.506792	-0.213007	1
H	2.020961	1.174932	-1.548077	1
Es	-1.013908	-2.256496	1.215854	99
Es	1.468821	2.299339	-1.226590	99
Es	-0.056770	-3.047288	-0.224113	99
Es	0.121637	1.042398	0.036339	99
Es	0.020663	-2.534473	-0.237790	99
Es	0.044739	0.267642	0.006229	99
Es	2.022066	2.178525	-1.354616	99
Es	-1.679386	-2.137754	0.204863	99
Es	-0.894099	-0.476975	0.608614	99
Es	0.585611	1.961723	-0.186026	99
Es	0.979478	3.156354	-0.301338	99
Es	1.086113	2.455065	-0.519178	99
Es	-0.946731	-1.211808	0.556563	99
Es	0.550207	-0.039319	-0.409430	99
Es	1.811871	2.217847	-0.811043	99
Es	2.273152	2.414966	-1.517966	99
Es	-0.375313	-2.333413	0.059514	99
Es	0.022614	-2.542287	-0.213354	99
Es	1.992235	1.594356	-1.444807	99
Es	-1.409042	-0.146610	1.030081	99
Es	-0.247223	-0.152994	0.590765	99
Es	-1.024067	-1.966304	0.521950	99
Es	0.259180	-2.363697	-0.402453	99
Es	0.182000	1.630118	0.085705	99
Es	0.231106	1.636745	0.040527	99
Es	-0.646024	-0.086060	0.052304	99
Es	-0.220449	1.901696	0.449662	99
42
Properties=species:S:1:pos:R:3:Z:I:1 energy=-339.97233535784795 field_type=dipole dipole="0.000000 0.000000 0.000000" charge=0
O	0.030061	-2.530168	-0.239057	8
C	-1.024249	-1.966278	0.522073	6
C	-0.894039	-0.476918	0.608573	6
C	0.044652	0.267392	0.006263	6
N	0.179852	1.630312	0.084443	7
C	1.086291	2.455152	-0.519317	6
N	2.022411	2.178832	-1.354847	7
H	-0.096869	-3.493498	-0.225117	1
H	-0.996759	-2.396358	1.528123	1
H	-1.976449	-2.227728	0.050253	1
H	-1.644749	0.011702	1.223013	1
H	0.795771	-0.218288	-0.612477	1
H	-0.496849	2.084122	0.689163	1
H	0.949961	3.506792	-0.213007	1
H	2.020961	1.174932	-1.548077	1
Es	-0.247315	-0.153012	0.590720	99
Es	0.979541	3.155976	-0.301411	99
Es	-0.894098	-0.476975	0.608615	99
Es	-1.679017	-2.137726	0.204952	99
Es	1.992019	1.594968	-1.444398	99
Es	-0.220631	1.901679	0.449341	99
Es	-1.014135	-2.256706	1.215846	99
Es	0.012131	-2.545266	-0.217194	99
Es	-0.645980	-0.085998	0.052317	99
Es	0.550199	-0.039385	-0.409412	99
Es	-1.024065	-1.966309	0.521946	99
Es	-0.375055	-2.333459	0.059112	99
Es	-1.409013	-0.146571	1.030133	99
Es	-0.057404	-3.047040	-0.223781	99
Es	0.585250	1.961789	-0.186500	99
Es	1.086107	2.455066	-0.519184	99
Es	0.260865	-2.363957	-0.400633	99
Es	-0.946913	-1.211629	0.556524	99
Es	1.470464	2.298945	-1.227499	99
Es	0.121267	1.042597	0.036007	99
Es	0.029834	-2.531395	-0.235693	99
Es	2.273499	2.415064	-1.518039	99
Es	1.810098	2.217866	-0.810435	99
Es	0.234675	1.636185	0.043803	99
Es	0.044740	0.267640	0.006228	99
Es	0.179354	1.630420	0.083512	99
Es	2.022064	2.178528	-1.354613	99
42
Properties=species:S:1:pos:R:3:Z:I:1 energy=-339.97233535784795 field_type=dipole dipole="0.000000 0.000000 0.000000" charge=0
O	0.030061	-2.530168	-0.239057	8
C	-1.024249	-1.966278	0.522073	6
C	-0.894039	-0.476918	0.608573	6
C	0.044652	0.267392	0.006263	6
N	0.179852	1.630312	0.084443	7
C	1.086291	2.455152	-0.519317	6
N	2.022411	2.178832	-1.354847	7
H	-0.096869	-3.493498	-0.225117	1
H	-0.996759	-2.396358	1.528123	1
H	-1.976449	-2.227728	0.050253	1
H	-1.644749	0.011702	1.223013	1
H	0.795771	-0.218288	-0.612477	1
H	-0.496849	2.084122	0.689163	1
H	0.949961	3.506792	-0.213007	1
H	2.020961	1.174932	-1.548077	1
Es	1.992119	1.596111	-1.443955	99
Es	-0.247467	-0.152902	0.590448	99
Es	0.012516	-2.542661	-0.224042	99
Es	-0.057368	-3.046825	-0.223739	99
Es	-0.221147	1.901762	0.448590	99
Es	-0.894100	-0.476976	0.608613	99
Es	1.808968	2.217412	-0.810630	99
Es	0.261399	-2.363711	-0.399797	99
Es	1.470854	2.298495	-1.228101	99
Es	2.273990	2.415238	-1.517785	99
Es	0.120606	1.042871	0.035132	99
Es	0.236502	1.635488	0.047719	99
Es	-0.946987	-1.211687	0.556558	99
Es	0.044741	0.267642	0.006232	99
Es	0.179109	1.630702	0.081519	99
Es	-1.678505	-2.137444	0.204940	99
Es	0.028386	-2.533875	-0.230246	99
Es	-0.645882	-0.085988	0.052602	99
Es	0.550092	-0.039523	-0.409431	99
Es	-1.024063	-1.966309	0.521949	99
Es	-0.374509	-2.333968	0.059597	99
Es	2.022067	2.178528	-1.354616	99
Es	1.086111	2.455065	-0.519181	99
Es	0.584962	1.961839	-0.186880	99
Es	-1.014591	-2.257116	1.215847	99
Es	0.979707	3.155593	-0.301296	99
Es	-1.409029	-0.146467	1.030214	99
