43
Properties=species:S:1:pos:R:3:Z:I:1 energy=-323.9236516947389 field_type=dipole dipole="0.000000 0.000000 0.000000" charge=0
O	-0.877566	-2.264251	-1.026245	8
C	-1.687896	-1.417521	-0.211125	6
C	-1.164286	0.021209	-0.281515	6
N	0.179414	0.095659	0.304175	7
C	0.778594	1.406529	0.086045	6
C	2.123614	1.436809	0.674355	6
C	3.224484	1.461599	1.154915	6
H	-1.176816	-3.175381	-0.864225	1
H	-1.670366	-1.793701	0.817405	1
H	-2.715116	-1.463141	-0.586195	1
H	-1.846026	0.683809	0.262405	1
H	-1.130726	0.332319	-1.332745	1
H	0.756174	-0.615311	-0.152835	1
H	0.163154	2.184789	0.553535	1
H	0.845443	1.628809	-0.984955	1
H	4.197924	1.477779	1.587005	1
Es	0.446775	0.677210	0.183258	99
Es	-0.877856	-2.264324	-1.026034	99
Es	0.778676	1.406414	0.086130	99
Es	2.123372	1.436810	0.674245	99
Es	2.750637	1.125984	0.771476	99
Es	-1.687748	-1.417627	-0.211275	99
Es	2.547316	1.475151	1.247779	99
Es	-0.944236	-2.194464	-1.318292	99
Es	-1.164175	0.021174	-0.281447	99
Es	-1.632100	0.473859	0.090620	99
Es	0.835598	1.561737	-0.639565	99
Es	-1.422206	-0.700099	-0.244792	99
Es	2.757408	1.749978	0.728711	99
Es	0.157887	0.032380	0.650578	99
Es	3.860548	1.472733	1.436037	99
Es	-1.053268	-2.748017	-0.928798	99
Es	0.523134	-0.312063	0.009469	99
Es	0.371878	1.929793	0.404571	99
Es	-1.680364	-1.672910	0.496842	99
Es	-1.192972	-1.962573	-0.710473	99
Es	-1.147078	0.237409	-1.007121	99
Es	-0.591655	-2.244966	-0.912632	99
Es	-2.401106	-1.442712	-0.465803	99
Es	-0.397343	0.079241	0.024190	99
Es	3.224707	1.461602	1.155008	99
Es	1.481595	1.422918	0.391106	99
Es	0.179424	0.095797	0.303540	99
43
Properties=species:S:1:pos:R:3:Z:I:1 energy=-323.9236516947389 field_type=dipole dipole="0.000000 0.000000 0.000000" charge=0
O	-0.877566	-2.264251	-1.026245	8
C	-1.687896	-1.417521	-0.211125	6
C	-1.164286	0.021209	-0.281515	6
N	0.179414	0.095659	0.304175	7
C	0.778594	1.406529	0.086045	6
C	2.123614	1.436809	0.674355	6
C	3.224484	1.461599	1.154915	6
H	-1.176816	-3.175381	-0.864225	1
H	-1.670366	-1.793701	0.817405	1
H	-2.715116	-1.463141	-0.586195	1
H	-1.846026	0.683809	0.262405	1
H	-1.130726	0.332319	-1.332745	1
H	0.756174	-0.615311	-0.152835	1
H	0.163154	2.184789	0.553535	1
H	0.845443	1.628809	-0.984955	1
H	4.197924	1.477779	1.587005	1
Es	-1.678898	-1.671954	0.495723	99
Es	0.524638	-0.312668	0.013477	99
Es	-1.687747	-1.417627	-0.211276	99
Es	-1.057199	-2.743152	-0.929802	99
Es	0.778676	1.406412	0.086127	99
Es	0.179426	0.095805	0.303547	99
Es	1.483325	1.423532	0.391710	99
Es	-2.403622	-1.442621	-0.466081	99
Es	2.794605	1.206725	0.680789	99
Es	-0.574728	-2.240618	-0.913661	99
Es	-1.164177	0.021170	-0.281443	99
Es	2.554812	1.345329	1.229762	99
Es	3.861967	1.472538	1.436647	99
Es	0.447648	0.677616	0.185696	99
Es	-1.632330	0.473167	0.089638	99
Es	0.371382	1.928526	0.402546	99
Es	3.224720	1.461607	1.155010	99
Es	-0.877838	-2.264351	-1.026021	99
Es	-1.147730	0.237298	-1.006316	99
Es	0.160579	0.034520	0.642281	99
Es	-0.953433	-2.200429	-1.309297	99
Es	-0.401629	0.078334	0.026105	99
Es	2.123367	1.436809	0.674244	99
Es	0.833998	1.561380	-0.637830	99
Es	-1.196661	-1.965392	-0.716845	99
Es	2.705688	1.799248	0.837257	99
Es	-1.421986	-0.700770	-0.244660	99
43
Properties=species:S:1:pos:R:3:Z:I:1 energy=-323.9236516947389 field_type=dipole dipole="0.000000 0.000000 0.000000" charge=0
O	-0.877566	-2.264251	-1.026245	8
C	-1.687896	-1.417521	-0.211125	6
C	-1.164286	0.021209	-0.281515	6
N	0.179414	0.095659	0.304175	7
C	0.778594	1.406529	0.086045	6
C	2.123614	1.436809	0.674355	6
C	3.224484	1.461599	1.154915	6
H	-1.176816	-3.175381	-0.864225	1
H	-1.670366	-1.793701	0.817405	1
H	-2.715116	-1.463141	-0.586195	1
H	-1.846026	0.683809	0.262405	1
H	-1.130726	0.332319	-1.332745	1
H	0.756174	-0.615311	-0.152835	1
H	0.163154	2.184789	0.553535	1
H	0.845443	1.628809	-0.984955	1
H	4.197924	1.477779	1.587005	1
Es	2.550838	1.442774	1.240805	99
Es	0.778679	1.406417	0.086127	99
Es	-1.148159	0.237213	-1.005945	99
Es	-0.877760	-2.264368	-1.025917	99
Es	-0.954519	-2.202844	-1.306220	99
Es	0.371101	1.927661	0.401498	99
Es	0.160984	0.036880	0.637502	99
Es	-1.678114	-1.671471	0.495196	99
Es	2.123362	1.436812	0.674241	99
Es	0.833047	1.561195	-0.636671	99
Es	0.448338	0.677420	0.186377	99
Es	-0.568582	-2.239242	-0.909987	99
Es	-2.404865	-1.442333	-0.466320	99
Es	-1.421944	-0.701327	-0.244440	99
Es	2.744570	1.764365	0.754671	99
Es	-1.199713	-1.967699	-0.721940	99
Es	-1.632300	0.472684	0.089043	99
Es	-1.164178	0.021171	-0.281446	99
Es	0.179420	0.095802	0.303561	99
Es	-1.687749	-1.417627	-0.211275	99
Es	1.484332	1.424480	0.391856	99
Es	2.759564	1.144032	0.752369	99
Es	3.862580	1.472093	1.436864	99
Es	-0.403238	0.077956	0.026536	99
Es	3.224720	1.461603	1.155011	99
Es	0.525704	-0.313781	0.017059	99
Es	-1.059267	-2.739433	-0.931228	99
43
Properties=species:S:1:pos:R:3:Z:I:1 energy=-323.9236516947389 field_type=dipole dipole="0.000000 0.000000 0.000000" charge=0
O	-0.877566	-2.264251	-1.026245	8
C	-1.687896	-1.417521	-0.211125	6
C	-1.164286	0.021209	-0.281515	6
N	0.179414	0.095659	0.304175	7
C	0.778594	1.406529	0.086045	6
C	2.123614	1.436809	0.674355	6
C	3.224484	1.461599	1.154915	6
H	-1.176816	-3.175381	-0.864225	1
H	-1.670366	-1.793701	0.817405	1
H	-2.715116	-1.463141	-0.586195	1
H	-1.846026	0.683809	0.262405	1
H	-1.130726	0.332319	-1.332745	1
H	0.756174	-0.615311	-0.152835	1
H	0.163154	2.184789	0.553535	1
H	0.845443	1.628809	-0.984955	1
H	4.197924	1.477779	1.587005	1
Es	-1.199393	-1.969680	-0.723629	99
Es	0.778677	1.406417	0.086129	99
Es	-1.677691	-1.671146	0.494652	99
Es	-1.687747	-1.417627	-0.211277	99
Es	-0.957688	-2.204030	-1.304625	99
Es	-0.403923	0.077858	0.026483	99
Es	-2.405664	-1.442088	-0.466518	99
Es	2.713921	1.793614	0.819267	99
Es	0.832375	1.561093	-0.636028	99
Es	1.484960	1.424906	0.391952	99
Es	-1.148546	0.237292	-1.005845	99
Es	2.123362	1.436812	0.674236	99
Es	0.179426	0.095816	0.303504	99
Es	0.371221	1.926899	0.400667	99
Es	-0.564070	-2.239237	-0.909248	99
Es	-1.164178	0.021171	-0.281442	99
Es	0.448866	0.677805	0.188198	99
Es	-1.421752	-0.701641	-0.244115	99
Es	-1.060897	-2.736065	-0.931445	99
Es	3.862842	1.471987	1.437181	99
Es	3.224720	1.461602	1.155014	99
Es	0.160962	0.037124	0.634152	99
Es	0.526046	-0.313814	0.018806	99
Es	2.555261	1.365449	1.229626	99
Es	-1.632179	0.472149	0.088729	99
Es	2.785757	1.192120	0.698916	99
Es	-0.877817	-2.264353	-1.026013	99
43
Properties=species:S:1:pos:R:3:Z:I:1 energy=-323.9236516947389 field_type=dipole dipole="0.000000 0.000000 0.000000" charge=0
O	-0.877566	-2.264251	-1.026245	8
C	-1.687896	-1.417521	-0.211125	6
C	-1.164286	0.021209	-0.281515	6
N	0.179414	0.095659	0.304175	7
C	0.778594	1.406529	0.086045	6
C	2.123614	1.436809	0.674355	6
C	3.224484	1.461599	1.154915	6
H	-1.176816	-3.175381	-0.864225	1
H	-1.670366	-1.793701	0.817405	1
H	-2.715116	-1.463141	-0.586195	1
H	-1.846026	0.683809	0.262405	1
H	-1.130726	0.332319	-1.332745	1
H	0.756174	-0.615311	-0.152835	1
H	0.163154	2.184789	0.553535	1
H	0.845443	1.628809	-0.984955	1
H	4.197924	1.477779	1.587005	1
Es	0.371225	1.926405	0.400217	99
Es	-1.632347	0.472092	0.088419	99
Es	-1.677140	-1.670776	0.494634	99
Es	2.123359	1.436812	0.674236	99
Es	-0.955992	-2.204595	-1.302899	99
Es	0.526670	-0.314551	0.020799	99
Es	0.161218	0.038756	0.631756	99
Es	-1.164178	0.021171	-0.281444	99
Es	-2.406176	-1.441893	-0.466595	99
Es	0.831966	1.561066	-0.635524	99
Es	2.760389	1.740677	0.722812	99
Es	-1.201729	-1.970878	-0.726814	99
Es	-0.404699	0.077624	0.026950	99
Es	-1.687752	-1.417625	-0.211273	99
Es	-1.421814	-0.701889	-0.244273	99
Es	3.863059	1.471623	1.437260	99
Es	0.179423	0.095814	0.303491	99
Es	-1.148613	0.236976	-1.005688	99
Es	2.740077	1.122207	0.792580	99
Es	-0.877750	-2.264333	-1.026028	99
Es	0.448948	0.677427	0.188143	99
Es	3.224721	1.461601	1.155016	99
Es	1.485320	1.425480	0.392076	99
Es	-1.062591	-2.732643	-0.934263	99
Es	2.554434	1.488152	1.232424	99
Es	0.778677	1.406418	0.086127	99
Es	-0.561854	-2.240685	-0.904815	99
43
Properties=species:S:1:pos:R:3:Z:I:1 energy=-323.9236516947389 field_type=dipole dipole="0.000000 0.000000 0.000000" charge=0
O	-0.877566	-2.264251	-1.026245	8
C	-1.687896	-1.417521	-0.211125	6
C	-1.164286	0.021209	-0.281515	6
N	0.179414	0.095659	0.304175	7
C	0.778594	1.406529	0.086045	6
C	2.123614	1.436809	0.674355	6
C	3.224484	1.461599	1.154915	6
H	-1.176816	-3.175381	-0.864225	1
H	-1.670366	-1.793701	0.817405	1
H	-2.715116	-1.463141	-0.586195	1
H	-1.846026	0.683809	0.262405	1
H	-1.130726	0.332319	-1.332745	1
H	0.756174	-0.615311	-0.152835	1
H	0.163154	2.184789	0.553535	1
H	0.845443	1.628809	-0.984955	1
H	4.197924	1.477779	1.587005	1
Es	-0.877776	-2.264351	-1.025990	99
Es	3.224720	1.461602	1.155018	99
Es	-1.421941	-0.702166	-0.244141	99
Es	-1.164178	0.021171	-0.281446	99
Es	0.371440	1.925817	0.399690	99
Es	2.554303	1.401804	1.232999	99
Es	0.179423	0.095816	0.303484	99
Es	-1.687749	-1.417626	-0.211275	99
Es	2.123360	1.436808	0.674233	99
Es	0.449692	0.677928	0.190028	99
Es	-1.063370	-2.730477	-0.934225	99
Es	-1.203231	-1.971091	-0.730233	99
Es	-1.148887	0.237177	-1.005647	99
Es	-0.405020	0.077635	0.026744	99
Es	0.831576	1.561070	-0.635208	99
Es	-2.406536	-1.441799	-0.466702	99
Es	1.485660	1.425406	0.392149	99
Es	0.526959	-0.315274	0.023062	99
Es	2.728606	1.781495	0.787733	99
Es	0.160508	0.039329	0.627936	99
Es	2.771975	1.168107	0.727059	99
Es	0.778678	1.406415	0.086127	99
Es	-0.560919	-2.240741	-0.901754	99
Es	3.863123	1.471579	1.437510	99
Es	-1.676833	-1.670614	0.494441	99
Es	-1.632038	0.471657	0.088161	99
Es	-0.954695	-2.206245	-1.302427	99
43
Properties=species:S:1:pos:R:3:Z:I:1 energy=-323.9236516947389 field_type=dipole dipole="0.000000 0.000000 0.000000" charge=0
O	-0.877566	-2.264251	-1.026245	8
C	-1.687896	-1.417521	-0.211125	6
C	-1.164286	0.021209	-0.281515	6
N	0.179414	0.095659	0.304175	7
C	0.778594	1.406529	0.086045	6
C	2.123614	1.436809	0.674355	6
C	3.224484	1.461599	1.154915	6
H	-1.176816	-3.175381	-0.864225	1
H	-1.670366	-1.793701	0.817405	1
H	-2.715116	-1.463141	-0.586195	1
H	-1.846026	0.683809	0.262405	1
H	-1.130726	0.332319	-1.332745	1
H	0.756174	-0.615311	-0.152835	1
H	0.163154	2.184789	0.553535	1
H	0.845443	1.628809	-0.984955	1
H	4.197924	1.477779	1.587005	1
Es	0.778678	1.406413	0.086128	99
Es	-1.201392	-1.973736	-0.730024	99
Es	0.449484	0.678087	0.190605	99
Es	2.742805	1.765608	0.758184	99
Es	-1.421896	-0.702294	-0.244060	99
Es	-0.405422	0.077276	0.027139	99
Es	0.160294	0.040647	0.625100	99
Es	0.831373	1.560872	-0.634738	99
Es	0.527838	-0.316201	0.024823	99
Es	0.179421	0.095806	0.303578	99
Es	-0.877742	-2.264340	-1.026051	99
Es	2.123357	1.436800	0.674240	99
Es	0.371436	1.925712	0.399331	99
Es	-0.957974	-2.205735	-1.303372	99
Es	2.758046	1.146400	0.755451	99
Es	2.554047	1.439219	1.234083	99
Es	3.224721	1.461590	1.155015	99
Es	-1.063770	-2.727695	-0.934204	99
Es	1.485928	1.425728	0.392091	99
Es	-1.632045	0.471580	0.088008	99
Es	3.863192	1.471430	1.437624	99
Es	-1.687751	-1.417625	-0.211274	99
Es	-2.406827	-1.441619	-0.466777	99
Es	-0.559109	-2.241344	-0.900808	99
Es	-1.148976	0.237092	-1.005492	99
Es	-1.164178	0.021171	-0.281445	99
Es	-1.676686	-1.670408	0.494172	99
43
Properties=species:S:1:pos:R:3:Z:I:1 energy=-323.9236516947389 field_type=dipole dipole="0.000000 0.000000 0.000000" charge=0
O	-0.877566	-2.264251	-1.026245	8
C	-1.687896	-1.417521	-0.211125	6
C	-1.164286	0.021209	-0.281515	6
N	0.179414	0.095659	0.304175	7
C	0.778594	1.406529	0.086045	6
C	2.123614	1.436809	0.674355	6
C	3.224484	1.461599	1.154915	6
H	-1.176816	-3.175381	-0.864225	1
H	-1.670366	-1.793701	0.817405	1
H	-2.715116	-1.463141	-0.586195	1
H	-1.846026	0.683809	0.262405	1
H	-1.130726	0.332319	-1.332745	1
H	0.756174	-0.615311	-0.152835	1
H	0.163154	2.184789	0.553535	1
H	0.845443	1.628809	-0.984955	1
H	4.197924	1.477779	1.587005	1
Es	3.863061	1.471468	1.438106	99
Es	1.486374	1.426316	0.391465	99
Es	-1.149145	0.237207	-1.005686	99
Es	-1.631857	0.471282	0.087907	99
Es	-2.406952	-1.441422	-0.466972	99
Es	-0.405132	0.077444	0.026215	99
Es	-1.687749	-1.417627	-0.211277	99
Es	0.778678	1.406413	0.086127	99
Es	-0.877728	-2.264329	-1.026073	99
Es	3.224722	1.461607	1.155015	99
Es	-0.559054	-2.242263	-0.898543	99
Es	-1.164178	0.021172	-0.281446	99
Es	-1.200867	-1.974766	-0.730584	99
Es	-1.063898	-2.725708	-0.933981	99
Es	0.371664	1.925048	0.399262	99
Es	0.449663	0.678019	0.191096	99
Es	2.617496	1.137859	1.067762	99
Es	-1.422103	-0.702587	-0.244150	99
Es	2.827633	1.459707	0.609979	99
Es	0.528295	-0.316740	0.026414	99
Es	-0.958557	-2.205534	-1.305197	99
Es	0.179420	0.095813	0.303501	99
Es	-1.676326	-1.670276	0.494475	99
Es	2.609565	1.753031	1.070462	99
Es	0.159471	0.041346	0.624033	99
Es	0.831000	1.561148	-0.634821	99
Es	2.123357	1.436806	0.674235	99
43
Properties=species:S:1:pos:R:3:Z:I:1 energy=-323.9236516947389 field_type=dipole dipole="0.000000 0.000000 0.000000" charge=0
O	-0.877566	-2.264251	-1.026245	8
C	-1.687896	-1.417521	-0.211125	6
C	-1.164286	0.021209	-0.281515	6
N	0.179414	0.095659	0.304175	7
C	0.778594	1.406529	0.086045	6
C	2.123614	1.436809	0.674355	6
C	3.224484	1.461599	1.154915	6
H	-1.176816	-3.175381	-0.864225	1
H	-1.670366	-1.793701	0.817405	1
H	-2.715116	-1.463141	-0.586195	1
H	-1.846026	0.683809	0.262405	1
H	-1.130726	0.332319	-1.332745	1
H	0.756174	-0.615311	-0.152835	1
H	0.163154	2.184789	0.553535	1
H	0.845443	1.628809	-0.984955	1
H	4.197924	1.477779	1.587005	1
Es	3.863254	1.471459	1.437870	99
Es	2.785407	1.199097	0.700325	99
Es	-0.877763	-2.264314	-1.026052	99
Es	1.486343	1.425827	0.392008	99
Es	-0.557749	-2.241705	-0.898223	99
Es	0.450052	0.678700	0.193373	99
Es	0.158960	0.041984	0.619041	99
Es	-1.687752	-1.417625	-0.211273	99
Es	-1.421999	-0.702611	-0.244094	99
Es	-1.676133	-1.670147	0.494090	99
Es	-0.959037	-2.206317	-1.303446	99
Es	-1.631804	0.471121	0.087733	99
Es	-0.405621	0.077197	0.026816	99
Es	2.123357	1.436810	0.674236	99
Es	-1.149270	0.237181	-1.005491	99
Es	2.712048	1.794052	0.823194	99
Es	2.557377	1.358182	1.224302	99
Es	-1.064295	-2.724595	-0.934499	99
Es	0.778679	1.406415	0.086127	99
Es	0.528814	-0.317734	0.028465	99
Es	0.830808	1.561042	-0.634315	99
Es	-1.164176	0.021171	-0.281446	99
Es	0.179421	0.095803	0.303593	99
Es	0.371803	1.924865	0.398857	99
Es	-2.407234	-1.441456	-0.466853	99
Es	-1.201363	-1.975574	-0.732027	99
Es	3.224724	1.461607	1.155016	99
43
Properties=species:S:1:pos:R:3:Z:I:1 energy=-323.9236516947389 field_type=dipole dipole="0.000000 0.000000 0.000000" charge=0
O	-0.877566	-2.264251	-1.026245	8
C	-1.687896	-1.417521	-0.211125	6
C	-1.164286	0.021209	-0.281515	6
N	0.179414	0.095659	0.304175	7
C	0.778594	1.406529	0.086045	6
C	2.123614	1.436809	0.674355	6
C	3.224484	1.461599	1.154915	6
H	-1.176816	-3.175381	-0.864225	1
H	-1.670366	-1.793701	0.817405	1
H	-2.715116	-1.463141	-0.586195	1
H	-1.846026	0.683809	0.262405	1
H	-1.130726	0.332319	-1.332745	1
H	0.756174	-0.615311	-0.152835	1
H	0.163154	2.184789	0.553535	1
H	0.845443	1.628809	-0.984955	1
H	4.197924	1.477779	1.587005	1
Es	-1.675992	-1.669994	0.493999	99
Es	0.778678	1.406419	0.086125	99
Es	2.555629	1.462233	1.230700	99
Es	2.750837	1.754166	0.741735	99
Es	-2.407395	-1.441324	-0.466945	99
Es	2.123356	1.436813	0.674236	99
Es	0.179424	0.095812	0.303539	99
Es	3.224724	1.461603	1.155015	99
Es	-0.877787	-2.264363	-1.026048	99
Es	-0.960785	-2.206542	-1.304559	99
Es	-1.201051	-1.977305	-0.732153	99
Es	0.830742	1.560747	-0.633947	99
Es	-0.557066	-2.242072	-0.897010	99
Es	0.528803	-0.318702	0.030190	99
Es	-1.149346	0.237070	-1.005506	99
Es	2.748411	1.134731	0.775268	99
Es	3.863412	1.471300	1.437649	99
Es	0.158926	0.043337	0.617924	99
Es	-1.421819	-0.702685	-0.244101	99
Es	-1.632046	0.470984	0.087809	99
Es	-1.164177	0.021171	-0.281445	99
Es	1.486355	1.426173	0.392325	99
Es	-0.405873	0.077281	0.027098	99
Es	-1.063457	-2.722094	-0.934381	99
Es	0.371548	1.924870	0.398595	99
Es	0.450546	0.678433	0.192493	99
Es	-1.687747	-1.417628	-0.211277	99
43
Properties=species:S:1:pos:R:3:Z:I:1 energy=-323.9236516947389 field_type=dipole dipole="0.000000 0.000000 0.000000" charge=0
O	-0.877566	-2.264251	-1.026245	8
C	-1.687896	-1.417521	-0.211125	6
C	-1.164286	0.021209	-0.281515	6
N	0.179414	0.095659	0.304175	7
C	0.778594	1.406529	0.086045	6
C	2.123614	1.436809	0.674355	6
C	3.224484	1.461599	1.154915	6
H	-1.176816	-3.175381	-0.864225	1
H	-1.670366	-1.793701	0.817405	1
H	-2.715116	-1.463141	-0.586195	1
H	-1.846026	0.683809	0.262405	1
H	-1.130726	0.332319	-1.332745	1
H	0.756174	-0.615311	-0.152835	1
H	0.163154	2.184789	0.553535	1
H	0.845443	1.628809	-0.984955	1
H	4.197924	1.477779	1.587005	1
Es	0.179421	0.095819	0.303446	99
Es	3.863300	1.471568	1.438003	99
Es	-0.556862	-2.243507	-0.895642	99
Es	-1.675917	-1.669858	0.493824	99
Es	0.778679	1.406415	0.086126	99
Es	-1.064400	-2.720595	-0.934745	99
Es	0.372073	1.924237	0.398518	99
Es	-1.200433	-1.977610	-0.732665	99
Es	0.529605	-0.319467	0.032152	99
Es	-1.421950	-0.702837	-0.244067	99
Es	0.157787	0.043518	0.613542	99
Es	-1.631693	0.470648	0.087638	99
Es	0.830399	1.561129	-0.634091	99
Es	-2.407511	-1.441358	-0.466923	99
Es	-0.405767	0.077324	0.026590	99
Es	-1.687751	-1.417626	-0.211275	99
Es	2.797321	1.232294	0.676755	99
Es	2.123355	1.436811	0.674236	99
Es	-1.164177	0.021170	-0.281444	99
Es	-0.960759	-2.206329	-1.304913	99
Es	1.486619	1.425926	0.391929	99
Es	0.450613	0.679093	0.195634	99
Es	2.695715	1.801711	0.859267	99
Es	-1.149505	0.237372	-1.005467	99
Es	2.561712	1.317324	1.211947	99
Es	-0.877749	-2.264336	-1.026066	99
Es	3.224724	1.461600	1.155018	99
