42
Properties=species:S:1:pos:R:3:Z:I:1 energy=-339.9734540170986 field_type=dipole dipole="0.000000 0.000000 0.000000" charge=0
O	-2.852155	0.036705	-0.527513	8
C	-1.616545	-0.423495	0.007157	6
C	-0.611935	0.730145	0.071127	6
N	-1.054215	1.954315	0.081587	7
N	0.737715	0.518215	0.126117	7
C	1.475915	-0.630615	0.174997	6
C	2.808405	-0.710455	0.223657	6
H	-2.667275	0.307775	-1.445503	1
H	-1.242985	-1.235205	-0.621613	1
H	-1.789775	-0.796165	1.020547	1
H	-2.086815	1.912575	0.063987	1
H	1.266575	1.385125	0.162007	1
H	0.893105	-1.548415	0.176007	1
H	3.435625	0.174905	0.226697	1
H	3.304355	-1.675415	0.260747	1
Es	-1.662503	1.926797	0.068588	99
Es	1.054058	1.026407	0.150807	99
Es	-2.363612	-0.129345	-0.340301	99
Es	-1.616679	-0.423338	0.007065	99
Es	-0.844524	2.259520	0.096608	99
Es	0.703592	0.487181	0.084878	99
Es	0.145972	0.569364	0.117088	99
Es	3.142181	-1.359601	0.248785	99
Es	2.193970	-0.679786	-0.126490	99
Es	-1.723289	-0.667420	0.688535	99
Es	-1.082402	0.140164	0.034566	99
Es	-1.054435	1.953847	0.081564	99
Es	2.808460	-0.710448	0.223664	99
Es	1.475668	-0.630473	0.174979	99
Es	2.168943	-0.665476	0.527476	99
Es	-2.851837	0.036697	-0.527690	99
Es	-3.032603	-0.209257	-0.538440	99
Es	1.040632	0.008168	0.153432	99
Es	-0.883000	1.460431	-0.213323	99
Es	-1.346185	-0.972401	-0.420911	99
Es	1.066864	-1.243404	0.174229	99
Es	3.231162	-0.106985	0.225967	99
Es	-0.898290	1.450720	0.352516	99
Es	-2.733247	0.175005	-1.016352	99
Es	0.722545	0.505321	0.132031	99
Es	-0.611752	0.730004	0.071125	99
Es	-2.921873	0.292729	-0.372378	99
42
Properties=species:S:1:pos:R:3:Z:I:1 energy=-339.9734540170986 field_type=dipole dipole="0.000000 0.000000 0.000000" charge=0
O	-2.852155	0.036705	-0.527513	8
C	-1.616545	-0.423495	0.007157	6
C	-0.611935	0.730145	0.071127	6
N	-1.054215	1.954315	0.081587	7
N	0.737715	0.518215	0.126117	7
C	1.475915	-0.630615	0.174997	6
C	2.808405	-0.710455	0.223657	6
H	-2.667275	0.307775	-1.445503	1
H	-1.242985	-1.235205	-0.621613	1
H	-1.789775	-0.796165	1.020547	1
H	-2.086815	1.912575	0.063987	1
H	1.266575	1.385125	0.162007	1
H	0.893105	-1.548415	0.176007	1
H	3.435625	0.174905	0.226697	1
H	3.304355	-1.675415	0.260747	1
Es	-1.616683	-0.423335	0.007063	99
Es	-1.344999	-0.973139	-0.421056	99
Es	-1.082716	0.140600	0.035516	99
Es	-0.894271	1.453004	0.357576	99
Es	-0.611754	0.730006	0.071141	99
Es	3.228140	-0.109163	0.225150	99
Es	3.144878	-1.360896	0.249319	99
Es	2.168988	-0.664598	0.529217	99
Es	-0.880540	1.462213	-0.214741	99
Es	2.194256	-0.680048	-0.128143	99
Es	-1.667536	1.935211	0.067378	99
Es	1.475663	-0.630471	0.174983	99
Es	-2.736260	0.174432	-1.014182	99
Es	-3.012586	-0.200314	-0.549552	99
Es	0.709449	0.492516	0.101280	99
Es	-2.942244	0.291518	-0.364532	99
Es	-2.361338	-0.135658	-0.339089	99
Es	1.042457	0.008537	0.149604	99
Es	0.716113	0.499715	0.133560	99
Es	2.808458	-0.710448	0.223667	99
Es	-2.851816	0.036631	-0.527716	99
Es	-1.054434	1.953860	0.081572	99
Es	-0.847816	2.246122	0.093573	99
Es	0.145589	0.571661	0.107983	99
Es	-1.722124	-0.666035	0.688109	99
Es	1.068600	-1.240854	0.174561	99
Es	1.052342	1.023351	0.145778	99
42
Properties=species:S:1:pos:R:3:Z:I:1 energy=-339.9734540170986 field_type=dipole dipole="0.000000 0.000000 0.000000" charge=0
O	-2.852155	0.036705	-0.527513	8
C	-1.616545	-0.423495	0.007157	6
C	-0.611935	0.730145	0.071127	6
N	-1.054215	1.954315	0.081587	7
N	0.737715	0.518215	0.126117	7
C	1.475915	-0.630615	0.174997	6
C	2.808405	-0.710455	0.223657	6
H	-2.667275	0.307775	-1.445503	1
H	-1.242985	-1.235205	-0.621613	1
H	-1.789775	-0.796165	1.020547	1
H	-2.086815	1.912575	0.063987	1
H	1.266575	1.385125	0.162007	1
H	0.893105	-1.548415	0.176007	1
H	3.435625	0.174905	0.226697	1
H	3.304355	-1.675415	0.260747	1
Es	-1.344717	-0.973805	-0.420735	99
Es	2.808459	-0.710448	0.223660	99
Es	3.146560	-1.361419	0.249558	99
Es	3.226148	-0.110402	0.225141	99
Es	-2.851777	0.036749	-0.527666	99
Es	-2.992385	-0.193536	-0.559613	99
Es	-2.359626	-0.137942	-0.339298	99
Es	-1.082346	0.141188	0.036428	99
Es	-1.616681	-0.423335	0.007060	99
Es	-1.721636	-0.665299	0.687010	99
Es	1.069736	-1.239520	0.174701	99
Es	2.169034	-0.664223	0.529455	99
Es	1.050926	1.021017	0.143252	99
Es	-0.849200	2.238501	0.090350	99
Es	-0.891815	1.454476	0.359565	99
Es	-1.669436	1.940429	0.066863	99
Es	2.194436	-0.679915	-0.128620	99
Es	-2.963713	0.286626	-0.358081	99
Es	0.727094	0.509233	0.133024	99
Es	-0.611752	0.730002	0.071128	99
Es	-2.737396	0.175065	-1.010137	99
Es	-0.880562	1.462567	-0.213521	99
Es	0.698579	0.482714	0.099890	99
Es	0.145320	0.572966	0.108781	99
Es	1.043340	0.009370	0.153275	99
Es	-1.054442	1.953833	0.081561	99
Es	1.475664	-0.630470	0.174987	99
42
Properties=species:S:1:pos:R:3:Z:I:1 energy=-339.9734540170986 field_type=dipole dipole="0.000000 0.000000 0.000000" charge=0
O	-2.852155	0.036705	-0.527513	8
C	-1.616545	-0.423495	0.007157	6
C	-0.611935	0.730145	0.071127	6
N	-1.054215	1.954315	0.081587	7
N	0.737715	0.518215	0.126117	7
C	1.475915	-0.630615	0.174997	6
C	2.808405	-0.710455	0.223657	6
H	-2.667275	0.307775	-1.445503	1
H	-1.242985	-1.235205	-0.621613	1
H	-1.789775	-0.796165	1.020547	1
H	-2.086815	1.912575	0.063987	1
H	1.266575	1.385125	0.162007	1
H	0.893105	-1.548415	0.176007	1
H	3.435625	0.174905	0.226697	1
H	3.304355	-1.675415	0.260747	1
Es	0.693672	0.478482	0.103991	99
Es	-2.358569	-0.138765	-0.339078	99
Es	-2.984806	0.278533	-0.353873	99
Es	-1.616680	-0.423337	0.007063	99
Es	2.808464	-0.710445	0.223664	99
Es	-0.880337	1.461977	-0.212080	99
Es	1.049805	1.019527	0.141268	99
Es	2.169483	-0.664068	0.528984	99
Es	-1.344503	-0.974420	-0.420399	99
Es	2.194131	-0.679846	-0.128186	99
Es	1.070338	-1.238979	0.174750	99
Es	-0.611751	0.730002	0.071142	99
Es	0.731940	0.513386	0.131592	99
Es	0.145294	0.573703	0.107310	99
Es	3.224973	-0.110796	0.224862	99
Es	-2.736333	0.177282	-1.004430	99
Es	-1.054454	1.953839	0.081568	99
Es	-2.851832	0.036693	-0.527684	99
Es	-1.082241	0.141605	0.037500	99
Es	-0.890646	1.456179	0.360334	99
Es	1.475665	-0.630470	0.174985	99
Es	-2.973867	-0.186615	-0.569425	99
Es	-1.721335	-0.664708	0.685779	99
Es	-1.670293	1.943164	0.066285	99
Es	-0.850042	2.234275	0.088125	99
Es	3.147542	-1.361708	0.249931	99
Es	1.044198	0.009930	0.154040	99
42
Properties=species:S:1:pos:R:3:Z:I:1 energy=-339.9734540170986 field_type=dipole dipole="0.000000 0.000000 0.000000" charge=0
O	-2.852155	0.036705	-0.527513	8
C	-1.616545	-0.423495	0.007157	6
C	-0.611935	0.730145	0.071127	6
N	-1.054215	1.954315	0.081587	7
N	0.737715	0.518215	0.126117	7
C	1.475915	-0.630615	0.174997	6
C	2.808405	-0.710455	0.223657	6
H	-2.667275	0.307775	-1.445503	1
H	-1.242985	-1.235205	-0.621613	1
H	-1.789775	-0.796165	1.020547	1
H	-2.086815	1.912575	0.063987	1
H	1.266575	1.385125	0.162007	1
H	0.893105	-1.548415	0.176007	1
H	3.435625	0.174905	0.226697	1
H	3.304355	-1.675415	0.260747	1
Es	-1.670709	1.945019	0.065701	99
Es	-1.054439	1.953854	0.081570	99
Es	1.044881	0.010176	0.152847	99
Es	1.475661	-0.630467	0.174985	99
Es	2.808463	-0.710449	0.223661	99
Es	-2.735073	0.177813	-0.998714	99
Es	3.224040	-0.111340	0.224587	99
Es	0.688100	0.474088	0.114634	99
Es	-2.851797	0.036698	-0.527685	99
Es	2.169784	-0.663811	0.528920	99
Es	0.737259	0.517868	0.127795	99
Es	-2.963099	-0.181289	-0.575484	99
Es	-2.997769	0.273809	-0.352921	99
Es	-2.358039	-0.139812	-0.339341	99
Es	-0.850436	2.231580	0.087040	99
Es	-1.081788	0.142120	0.038285	99
Es	-1.344563	-0.975164	-0.419926	99
Es	-0.888496	1.454710	0.360373	99
Es	2.193932	-0.679786	-0.128026	99
Es	-0.882037	1.463933	-0.210832	99
Es	-1.721151	-0.664089	0.684499	99
Es	0.145452	0.574481	0.104085	99
Es	-1.616680	-0.423337	0.007057	99
Es	1.070857	-1.238589	0.174867	99
Es	-0.611751	0.730002	0.071141	99
Es	1.048878	1.018149	0.138823	99
Es	3.148337	-1.361746	0.250080	99
42
Properties=species:S:1:pos:R:3:Z:I:1 energy=-339.9734540170986 field_type=dipole dipole="0.000000 0.000000 0.000000" charge=0
O	-2.852155	0.036705	-0.527513	8
C	-1.616545	-0.423495	0.007157	6
C	-0.611935	0.730145	0.071127	6
N	-1.054215	1.954315	0.081587	7
N	0.737715	0.518215	0.126117	7
C	1.475915	-0.630615	0.174997	6
C	2.808405	-0.710455	0.223657	6
H	-2.667275	0.307775	-1.445503	1
H	-1.242985	-1.235205	-0.621613	1
H	-1.789775	-0.796165	1.020547	1
H	-2.086815	1.912575	0.063987	1
H	1.266575	1.385125	0.162007	1
H	0.893105	-1.548415	0.176007	1
H	3.435625	0.174905	0.226697	1
H	3.304355	-1.675415	0.260747	1
Es	-1.616685	-0.423336	0.007063	99
Es	-1.054442	1.953839	0.081568	99
Es	-2.851744	0.036821	-0.527694	99
Es	-2.954118	-0.175445	-0.578328	99
Es	-1.671036	1.946283	0.065705	99
Es	1.045063	0.010362	0.152377	99
Es	3.223405	-0.111487	0.224612	99
Es	2.170124	-0.663974	0.528552	99
Es	2.193663	-0.679585	-0.127684	99
Es	-2.735177	0.176464	-0.994122	99
Es	-0.611751	0.730001	0.071139	99
Es	2.808462	-0.710448	0.223665	99
Es	-1.344577	-0.976310	-0.419206	99
Es	-0.886757	1.454352	0.360057	99
Es	0.687640	0.474066	0.121939	99
Es	1.048484	1.017157	0.135933	99
Es	3.148868	-1.361805	0.250325	99
Es	1.475663	-0.630468	0.174985	99
Es	-0.883249	1.464801	-0.209654	99
Es	0.145458	0.574865	0.102792	99
Es	-3.007851	0.269938	-0.353324	99
Es	-0.850702	2.229646	0.085704	99
Es	1.071249	-1.238305	0.174668	99
Es	0.737628	0.518073	0.125173	99
Es	-1.081624	0.142464	0.039168	99
Es	-2.357178	-0.140521	-0.340426	99
Es	-1.721004	-0.663026	0.683034	99
42
Properties=species:S:1:pos:R:3:Z:I:1 energy=-339.9734540170986 field_type=dipole dipole="0.000000 0.000000 0.000000" charge=0
O	-2.852155	0.036705	-0.527513	8
C	-1.616545	-0.423495	0.007157	6
C	-0.611935	0.730145	0.071127	6
N	-1.054215	1.954315	0.081587	7
N	0.737715	0.518215	0.126117	7
C	1.475915	-0.630615	0.174997	6
C	2.808405	-0.710455	0.223657	6
H	-2.667275	0.307775	-1.445503	1
H	-1.242985	-1.235205	-0.621613	1
H	-1.789775	-0.796165	1.020547	1
H	-2.086815	1.912575	0.063987	1
H	1.266575	1.385125	0.162007	1
H	0.893105	-1.548415	0.176007	1
H	3.435625	0.174905	0.226697	1
H	3.304355	-1.675415	0.260747	1
Es	-3.020995	0.261616	-0.352811	99
Es	-2.942534	-0.167821	-0.583863	99
Es	2.170093	-0.663934	0.528087	99
Es	1.071442	-1.238259	0.174595	99
Es	-1.344728	-0.977119	-0.418637	99
Es	0.145540	0.575215	0.101910	99
Es	-0.611750	0.730001	0.071143	99
Es	-1.616682	-0.423335	0.007062	99
Es	-1.720905	-0.662358	0.681756	99
Es	3.149188	-1.361865	0.250475	99
Es	-0.884715	1.465519	-0.207939	99
Es	-2.357099	-0.142057	-0.340812	99
Es	-0.885835	1.453338	0.359392	99
Es	0.734079	0.514725	0.120150	99
Es	0.691171	0.477345	0.126764	99
Es	2.193753	-0.679516	-0.127370	99
Es	1.047979	1.016582	0.136495	99
Es	-0.850155	2.228431	0.084724	99
Es	1.045409	0.010639	0.152917	99
Es	3.223006	-0.111551	0.224724	99
Es	1.475663	-0.630466	0.174984	99
Es	-1.081414	0.142715	0.039809	99
Es	2.808463	-0.710450	0.223658	99
Es	-2.733904	0.178639	-0.988493	99
Es	-1.054412	1.953911	0.081551	99
Es	-2.851748	0.036877	-0.527648	99
Es	-1.671098	1.947597	0.065395	99
42
Properties=species:S:1:pos:R:3:Z:I:1 energy=-339.9734540170986 field_type=dipole dipole="0.000000 0.000000 0.000000" charge=0
O	-2.852155	0.036705	-0.527513	8
C	-1.616545	-0.423495	0.007157	6
C	-0.611935	0.730145	0.071127	6
N	-1.054215	1.954315	0.081587	7
N	0.737715	0.518215	0.126117	7
C	1.475915	-0.630615	0.174997	6
C	2.808405	-0.710455	0.223657	6
H	-2.667275	0.307775	-1.445503	1
H	-1.242985	-1.235205	-0.621613	1
H	-1.789775	-0.796165	1.020547	1
H	-2.086815	1.912575	0.063987	1
H	1.266575	1.385125	0.162007	1
H	0.893105	-1.548415	0.176007	1
H	3.435625	0.174905	0.226697	1
H	3.304355	-1.675415	0.260747	1
Es	0.145591	0.575636	0.101402	99
Es	-1.054447	1.953833	0.081562	99
Es	2.808463	-0.710449	0.223669	99
Es	2.194053	-0.679707	-0.127285	99
Es	3.222579	-0.111670	0.224750	99
Es	-1.671234	1.947902	0.065375	99
Es	-0.849821	2.228157	0.084017	99
Es	0.737701	0.518175	0.126026	99
Es	-0.611750	0.730001	0.071141	99
Es	-3.029890	0.257503	-0.354670	99
Es	-1.616676	-0.423340	0.007063	99
Es	-2.732998	0.177795	-0.983183	99
Es	-1.344676	-0.977641	-0.418284	99
Es	1.071711	-1.238051	0.174703	99
Es	-2.356822	-0.142475	-0.341149	99
Es	3.149551	-1.361847	0.250596	99
Es	1.045479	0.010753	0.153906	99
Es	-0.886426	1.466933	-0.206660	99
Es	0.687585	0.473871	0.120998	99
Es	1.475662	-0.630467	0.174986	99
Es	-1.081315	0.142982	0.040456	99
Es	-1.720804	-0.661865	0.680800	99
Es	2.169832	-0.663770	0.527762	99
Es	-2.851796	0.036694	-0.527691	99
Es	-2.934939	-0.162261	-0.586727	99
Es	1.047577	1.015836	0.135883	99
Es	-0.884374	1.451890	0.358575	99
42
Properties=species:S:1:pos:R:3:Z:I:1 energy=-339.9734540170986 field_type=dipole dipole="0.000000 0.000000 0.000000" charge=0
O	-2.852155	0.036705	-0.527513	8
C	-1.616545	-0.423495	0.007157	6
C	-0.611935	0.730145	0.071127	6
N	-1.054215	1.954315	0.081587	7
N	0.737715	0.518215	0.126117	7
C	1.475915	-0.630615	0.174997	6
C	2.808405	-0.710455	0.223657	6
H	-2.667275	0.307775	-1.445503	1
H	-1.242985	-1.235205	-0.621613	1
H	-1.789775	-0.796165	1.020547	1
H	-2.086815	1.912575	0.063987	1
H	1.266575	1.385125	0.162007	1
H	0.893105	-1.548415	0.176007	1
H	3.435625	0.174905	0.226697	1
H	3.304355	-1.675415	0.260747	1
Es	0.697241	0.481865	0.111719	99
Es	3.149704	-1.361914	0.250717	99
Es	-1.054449	1.953835	0.081563	99
Es	0.728204	0.510180	0.133465	99
Es	2.193397	-0.679355	-0.126940	99
Es	1.047314	1.015397	0.135253	99
Es	2.808463	-0.710449	0.223662	99
Es	1.045628	0.010984	0.154809	99
Es	-0.611749	0.730001	0.071148	99
Es	1.475663	-0.630466	0.174983	99
Es	1.071802	-1.238060	0.174629	99
Es	-2.851782	0.036844	-0.527668	99
Es	-2.732799	0.177059	-0.979619	99
Es	-1.344924	-0.978520	-0.417566	99
Es	-1.671258	1.948618	0.064956	99
Es	-3.036241	0.253897	-0.356069	99
Es	3.222353	-0.111749	0.224704	99
Es	-1.081160	0.143090	0.040642	99
Es	-1.616680	-0.423336	0.007059	99
Es	-1.720622	-0.661000	0.679819	99
Es	0.145518	0.575836	0.102941	99
Es	-0.849752	2.227389	0.084362	99
Es	-2.356626	-0.143083	-0.341752	99
Es	2.170538	-0.663964	0.527520	99
Es	-2.929155	-0.157481	-0.588083	99
Es	-0.883802	1.450792	0.357685	99
Es	-0.887011	1.468009	-0.205920	99
42
Properties=species:S:1:pos:R:3:Z:I:1 energy=-339.9734540170986 field_type=dipole dipole="0.000000 0.000000 0.000000" charge=0
O	-2.852155	0.036705	-0.527513	8
C	-1.616545	-0.423495	0.007157	6
C	-0.611935	0.730145	0.071127	6
N	-1.054215	1.954315	0.081587	7
N	0.737715	0.518215	0.126117	7
C	1.475915	-0.630615	0.174997	6
C	2.808405	-0.710455	0.223657	6
H	-2.667275	0.307775	-1.445503	1
H	-1.242985	-1.235205	-0.621613	1
H	-1.789775	-0.796165	1.020547	1
H	-2.086815	1.912575	0.063987	1
H	1.266575	1.385125	0.162007	1
H	0.893105	-1.548415	0.176007	1
H	3.435625	0.174905	0.226697	1
H	3.304355	-1.675415	0.260747	1
Es	-1.344956	-0.978921	-0.417236	99
Es	-1.671318	1.949020	0.065023	99
Es	-2.926850	-0.154716	-0.587837	99
Es	-2.732691	0.174235	-0.976601	99
Es	-0.882113	1.450138	0.357517	99
Es	-1.081011	0.143290	0.041203	99
Es	-0.611749	0.730001	0.071147	99
Es	-1.054430	1.953843	0.081565	99
Es	3.150042	-1.361824	0.250804	99
Es	2.808463	-0.710448	0.223660	99
Es	-0.850110	2.226507	0.083103	99
Es	-3.038754	0.254774	-0.358785	99
Es	1.045896	0.011096	0.153924	99
Es	1.071980	-1.237886	0.174799	99
Es	0.688018	0.474444	0.124725	99
Es	-1.720563	-0.660649	0.679040	99
Es	3.221981	-0.111929	0.224688	99
Es	1.046969	1.014916	0.134329	99
Es	-2.851754	0.036877	-0.527650	99
Es	0.145587	0.575942	0.101232	99
Es	2.193786	-0.679587	-0.127051	99
Es	2.170187	-0.663718	0.527360	99
Es	-0.888385	1.469014	-0.204809	99
Es	0.737270	0.517705	0.124010	99
Es	1.475663	-0.630467	0.174984	99
Es	-1.616686	-0.423335	0.007063	99
Es	-2.356658	-0.143902	-0.342187	99
42
Properties=species:S:1:pos:R:3:Z:I:1 energy=-339.9734540170986 field_type=dipole dipole="0.000000 0.000000 0.000000" charge=0
O	-2.852155	0.036705	-0.527513	8
C	-1.616545	-0.423495	0.007157	6
C	-0.611935	0.730145	0.071127	6
N	-1.054215	1.954315	0.081587	7
N	0.737715	0.518215	0.126117	7
C	1.475915	-0.630615	0.174997	6
C	2.808405	-0.710455	0.223657	6
H	-2.667275	0.307775	-1.445503	1
H	-1.242985	-1.235205	-0.621613	1
H	-1.789775	-0.796165	1.020547	1
H	-2.086815	1.912575	0.063987	1
H	1.266575	1.385125	0.162007	1
H	0.893105	-1.548415	0.176007	1
H	3.435625	0.174905	0.226697	1
H	3.304355	-1.675415	0.260747	1
Es	2.193536	-0.679320	-0.126613	99
Es	3.150068	-1.361920	0.250702	99
Es	0.737369	0.517807	0.124297	99
Es	2.170456	-0.663827	0.527321	99
Es	-1.345009	-0.979469	-0.416860	99
Es	-1.054436	1.953873	0.081562	99
Es	1.475663	-0.630468	0.174984	99
Es	-2.851787	0.036833	-0.527677	99
Es	-1.720479	-0.660175	0.678150	99
Es	-0.882064	1.449343	0.356661	99
Es	-1.671301	1.949428	0.064784	99
Es	-2.917371	-0.145798	-0.589117	99
Es	-0.849474	2.226509	0.083244	99
Es	1.072034	-1.237947	0.174603	99
Es	-3.048500	0.246419	-0.359941	99
Es	1.046911	1.015010	0.135564	99
Es	-0.888965	1.469477	-0.203942	99
Es	0.687855	0.474225	0.124130	99
Es	-1.616683	-0.423333	0.007060	99
Es	-2.732447	0.174866	-0.973202	99
Es	-1.081058	0.143395	0.041622	99
Es	1.045840	0.011065	0.154365	99
Es	-0.611750	0.730001	0.071143	99
Es	2.808464	-0.710449	0.223660	99
Es	0.145710	0.575935	0.099864	99
Es	-2.356675	-0.145092	-0.342940	99
Es	3.221906	-0.111967	0.224595	99
42
Properties=species:S:1:pos:R:3:Z:I:1 energy=-339.9734540170986 field_type=dipole dipole="0.000000 0.000000 0.000000" charge=0
O	-2.852155	0.036705	-0.527513	8
C	-1.616545	-0.423495	0.007157	6
C	-0.611935	0.730145	0.071127	6
N	-1.054215	1.954315	0.081587	7
N	0.737715	0.518215	0.126117	7
C	1.475915	-0.630615	0.174997	6
C	2.808405	-0.710455	0.223657	6
H	-2.667275	0.307775	-1.445503	1
H	-1.242985	-1.235205	-0.621613	1
H	-1.789775	-0.796165	1.020547	1
H	-2.086815	1.912575	0.063987	1
H	1.266575	1.385125	0.162007	1
H	0.893105	-1.548415	0.176007	1
H	3.435625	0.174905	0.226697	1
H	3.304355	-1.675415	0.260747	1
Es	-1.054454	1.953836	0.081556	99
Es	-1.080994	0.143485	0.041855	99
Es	3.150293	-1.361836	0.250792	99
Es	0.145559	0.576164	0.102012	99
Es	-1.671323	1.950191	0.065092	99
Es	-1.616687	-0.423334	0.007064	99
Es	-2.851805	0.036830	-0.527707	99
Es	2.170553	-0.663806	0.527287	99
Es	-0.850335	2.225104	0.083651	99
Es	-1.720390	-0.659931	0.677791	99
Es	1.072241	-1.237727	0.174704	99
Es	0.687802	0.474041	0.121021	99
Es	-2.356572	-0.145043	-0.343217	99
Es	-0.879102	1.446366	0.354481	99
Es	2.193480	-0.679335	-0.126788	99
Es	1.475663	-0.630466	0.174985	99
Es	-0.891126	1.472947	-0.202660	99
Es	-2.732207	0.173971	-0.970813	99
Es	-0.611751	0.730002	0.071143	99
Es	1.046443	1.014265	0.133727	99
Es	-2.919980	-0.148406	-0.590015	99
Es	3.221660	-0.112117	0.224596	99
Es	0.737571	0.518102	0.126931	99
Es	-1.345019	-0.979677	-0.416681	99
Es	1.046137	0.011318	0.154549	99
Es	2.808463	-0.710449	0.223665	99
Es	-3.046306	0.249925	-0.361002	99
42
Properties=species:S:1:pos:R:3:Z:I:1 energy=-339.9734540170986 field_type=dipole dipole="0.000000 0.000000 0.000000" charge=0
O	-2.852155	0.036705	-0.527513	8
C	-1.616545	-0.423495	0.007157	6
C	-0.611935	0.730145	0.071127	6
N	-1.054215	1.954315	0.081587	7
N	0.737715	0.518215	0.126117	7
C	1.475915	-0.630615	0.174997	6
C	2.808405	-0.710455	0.223657	6
H	-2.667275	0.307775	-1.445503	1
H	-1.242985	-1.235205	-0.621613	1
H	-1.789775	-0.796165	1.020547	1
H	-2.086815	1.912575	0.063987	1
H	1.266575	1.385125	0.162007	1
H	0.893105	-1.548415	0.176007	1
H	3.435625	0.174905	0.226697	1
H	3.304355	-1.675415	0.260747	1
Es	1.475663	-0.630466	0.174982	99
Es	0.737097	0.517532	0.123649	99
Es	1.072245	-1.237803	0.174516	99
Es	-1.344999	-0.980411	-0.416148	99
Es	0.688175	0.474509	0.124133	99
Es	-1.054448	1.953851	0.081563	99
Es	0.145670	0.576371	0.101021	99
Es	-1.671239	1.950485	0.064852	99
Es	2.170233	-0.663866	0.526938	99
Es	-0.849424	2.225461	0.082990	99
Es	2.193794	-0.679296	-0.126661	99
Es	3.221605	-0.112053	0.224975	99
Es	-2.910985	-0.139840	-0.591766	99
Es	-1.720269	-0.659172	0.676965	99
Es	-0.611748	0.730001	0.071136	99
Es	-2.731263	0.175284	-0.967499	99
Es	-1.616670	-0.423348	0.007073	99
Es	-0.891291	1.472120	-0.201928	99
Es	-2.357050	-0.146211	-0.342946	99
Es	-2.851736	0.036936	-0.527667	99
Es	3.150304	-1.361898	0.250872	99
Es	-1.081078	0.143468	0.041913	99
Es	1.046529	1.014325	0.135283	99
Es	-3.055868	0.241055	-0.362783	99
Es	-0.879956	1.446629	0.354775	99
Es	1.046057	0.011208	0.154129	99
Es	2.808464	-0.710449	0.223655	99
42
Properties=species:S:1:pos:R:3:Z:I:1 energy=-339.9734540170986 field_type=dipole dipole="0.000000 0.000000 0.000000" charge=0
O	-2.852155	0.036705	-0.527513	8
C	-1.616545	-0.423495	0.007157	6
C	-0.611935	0.730145	0.071127	6
N	-1.054215	1.954315	0.081587	7
N	0.737715	0.518215	0.126117	7
C	1.475915	-0.630615	0.174997	6
C	2.808405	-0.710455	0.223657	6
H	-2.667275	0.307775	-1.445503	1
H	-1.242985	-1.235205	-0.621613	1
H	-1.789775	-0.796165	1.020547	1
H	-2.086815	1.912575	0.063987	1
H	1.266575	1.385125	0.162007	1
H	0.893105	-1.548415	0.176007	1
H	3.435625	0.174905	0.226697	1
H	3.304355	-1.675415	0.260747	1
Es	-0.891818	1.472638	-0.201312	99
Es	1.475663	-0.630466	0.174986	99
Es	2.171265	-0.664140	0.526905	99
Es	0.736991	0.517661	0.128388	99
Es	-1.054453	1.953834	0.081563	99
Es	-0.611751	0.730002	0.071157	99
Es	-1.081021	0.143522	0.041996	99
Es	0.145634	0.576379	0.101294	99
Es	-1.671262	1.950618	0.064944	99
Es	-1.345083	-0.980872	-0.415775	99
Es	1.072285	-1.237722	0.174731	99
Es	-0.849716	2.225031	0.082343	99
Es	2.192772	-0.679009	-0.126491	99
Es	-2.851771	0.036727	-0.527678	99
Es	-0.879088	1.446414	0.354702	99
Es	3.150501	-1.361854	0.250791	99
Es	-2.731442	0.173946	-0.965689	99
Es	1.046220	1.014008	0.134277	99
Es	-1.720194	-0.658752	0.676388	99
Es	-2.909729	-0.138488	-0.591585	99
Es	-1.616683	-0.423335	0.007060	99
Es	1.046322	0.011391	0.154285	99
Es	-2.356763	-0.145944	-0.343252	99
Es	0.688315	0.474450	0.120018	99
Es	3.221393	-0.112184	0.224660	99
Es	2.808464	-0.710449	0.223663	99
Es	-3.057237	0.241013	-0.364350	99
42
Properties=species:S:1:pos:R:3:Z:I:1 energy=-339.9734540170986 field_type=dipole dipole="0.000000 0.000000 0.000000" charge=0
O	-2.852155	0.036705	-0.527513	8
C	-1.616545	-0.423495	0.007157	6
C	-0.611935	0.730145	0.071127	6
N	-1.054215	1.954315	0.081587	7
N	0.737715	0.518215	0.126117	7
C	1.475915	-0.630615	0.174997	6
C	2.808405	-0.710455	0.223657	6
H	-2.667275	0.307775	-1.445503	1
H	-1.242985	-1.235205	-0.621613	1
H	-1.789775	-0.796165	1.020547	1
H	-2.086815	1.912575	0.063987	1
H	1.266575	1.385125	0.162007	1
H	0.893105	-1.548415	0.176007	1
H	3.435625	0.174905	0.226697	1
H	3.304355	-1.675415	0.260747	1
Es	1.046227	0.011377	0.154569	99
Es	2.193509	-0.679342	-0.126520	99
Es	-2.851747	0.036829	-0.527649	99
Es	1.475662	-0.630465	0.174986	99
Es	-2.356778	-0.146555	-0.343870	99
Es	-2.731725	0.172105	-0.964169	99
Es	-0.893200	1.473756	-0.200157	99
Es	2.808464	-0.710449	0.223664	99
Es	0.735465	0.516380	0.129814	99
Es	0.145620	0.576397	0.101775	99
Es	-2.907841	-0.135944	-0.590625	99
Es	3.150654	-1.361800	0.250911	99
Es	-0.878331	1.444854	0.353243	99
Es	-0.611750	0.730001	0.071143	99
Es	1.072384	-1.237625	0.174646	99
Es	0.689888	0.475684	0.117384	99
Es	2.170552	-0.663790	0.527013	99
Es	-0.849280	2.224838	0.082286	99
Es	-1.345209	-0.980912	-0.415621	99
Es	1.046219	1.014006	0.134682	99
Es	-1.054454	1.953840	0.081562	99
Es	-1.671220	1.951101	0.065107	99
Es	3.221218	-0.112281	0.224592	99
Es	-1.616676	-0.423343	0.007057	99
Es	-1.720187	-0.658745	0.676084	99
Es	-3.058899	0.240819	-0.366191	99
Es	-1.080750	0.143684	0.042305	99
42
Properties=species:S:1:pos:R:3:Z:I:1 energy=-339.9734540170986 field_type=dipole dipole="0.000000 0.000000 0.000000" charge=0
O	-2.852155	0.036705	-0.527513	8
C	-1.616545	-0.423495	0.007157	6
C	-0.611935	0.730145	0.071127	6
N	-1.054215	1.954315	0.081587	7
N	0.737715	0.518215	0.126117	7
C	1.475915	-0.630615	0.174997	6
C	2.808405	-0.710455	0.223657	6
H	-2.667275	0.307775	-1.445503	1
H	-1.242985	-1.235205	-0.621613	1
H	-1.789775	-0.796165	1.020547	1
H	-2.086815	1.912575	0.063987	1
H	1.266575	1.385125	0.162007	1
H	0.893105	-1.548415	0.176007	1
H	3.435625	0.174905	0.226697	1
H	3.304355	-1.675415	0.260747	1
Es	-1.720090	-0.658270	0.675383	99
Es	-1.080800	0.143698	0.042337	99
Es	1.475664	-0.630468	0.174985	99
Es	3.150675	-1.361825	0.250843	99
Es	0.145673	0.576428	0.100660	99
Es	1.046115	1.013806	0.133927	99
Es	-2.356808	-0.147030	-0.344230	99
Es	-0.611750	0.730001	0.071145	99
Es	2.808464	-0.710449	0.223659	99
Es	-0.849514	2.224802	0.082080	99
Es	3.221188	-0.112251	0.224638	99
Es	1.072370	-1.237686	0.174731	99
Es	-1.054445	1.953842	0.081564	99
Es	2.170867	-0.663943	0.526813	99
Es	1.046350	0.011458	0.154430	99
Es	-0.878317	1.445381	0.353700	99
Es	-2.905090	-0.132895	-0.590932	99
Es	-3.061759	0.238549	-0.367571	99
Es	-1.671323	1.950816	0.064772	99
Es	-2.851740	0.036801	-0.527659	99
Es	-1.616691	-0.423334	0.007067	99
Es	-1.345256	-0.981415	-0.415228	99
Es	-2.731630	0.171815	-0.961999	99
Es	0.726753	0.508085	0.116372	99
Es	-0.892827	1.473618	-0.199922	99
Es	2.193182	-0.679186	-0.126384	99
Es	0.698551	0.484072	0.132841	99
42
Properties=species:S:1:pos:R:3:Z:I:1 energy=-339.9734540170986 field_type=dipole dipole="0.000000 0.000000 0.000000" charge=0
O	-2.852155	0.036705	-0.527513	8
C	-1.616545	-0.423495	0.007157	6
C	-0.611935	0.730145	0.071127	6
N	-1.054215	1.954315	0.081587	7
N	0.737715	0.518215	0.126117	7
C	1.475915	-0.630615	0.174997	6
C	2.808405	-0.710455	0.223657	6
H	-2.667275	0.307775	-1.445503	1
H	-1.242985	-1.235205	-0.621613	1
H	-1.789775	-0.796165	1.020547	1
H	-2.086815	1.912575	0.063987	1
H	1.266575	1.385125	0.162007	1
H	0.893105	-1.548415	0.176007	1
H	3.435625	0.174905	0.226697	1
H	3.304355	-1.675415	0.260747	1
Es	0.145713	0.576689	0.100869	99
Es	2.171274	-0.664206	0.526983	99
Es	-2.356880	-0.147375	-0.344429	99
Es	-1.054453	1.953847	0.081563	99
Es	2.808464	-0.710449	0.223662	99
Es	1.475663	-0.630466	0.174984	99
Es	-1.720170	-0.658535	0.675419	99
Es	-0.611750	0.730001	0.071150	99
Es	1.072485	-1.237444	0.174661	99
Es	0.693418	0.479513	0.131196	99
Es	-3.063055	0.237248	-0.367931	99
Es	-1.080909	0.143734	0.042721	99
Es	-1.345071	-0.981172	-0.415486	99
Es	-2.904218	-0.132483	-0.592997	99
Es	1.046383	0.011370	0.153719	99
Es	3.221055	-0.112445	0.224743	99
Es	0.731848	0.512703	0.118867	99
Es	-0.876854	1.442956	0.351390	99
Es	1.045989	1.013520	0.133592	99
Es	-1.671223	1.951405	0.065042	99
Es	-0.894194	1.475938	-0.198992	99
Es	-2.851698	0.036906	-0.527625	99
Es	-2.731176	0.172958	-0.959453	99
Es	3.150788	-1.361779	0.250785	99
Es	2.192790	-0.678935	-0.126559	99
Es	-1.616683	-0.423333	0.007061	99
Es	-0.849723	2.224256	0.083085	99
