52
Properties=species:S:1:pos:R:3:Z:I:1 energy=-274.49444095360866 field_type=dipole dipole="0.000000 0.000000 0.000000" charge=0
C	-2.690484	-1.526170	-0.038401	6
C	-1.168864	-1.503870	-0.051421	6
C	-0.633154	-0.069730	-0.077701	6
C	0.904836	0.024280	0.018519	6
C	1.592866	-0.721390	-1.131171	6
C	1.385476	1.491340	0.020919	6
C	0.941956	2.284270	1.241559	6
H	-3.054164	-2.558800	-0.019821	1
H	-3.096464	-1.039310	-0.930531	1
H	-3.084354	-1.011900	0.844099	1
H	-0.824534	-2.058720	-0.930051	1
H	-0.793394	-2.025660	0.836429	1
H	-1.081834	0.473560	0.761809	1
H	-0.975394	0.428390	-0.993971	1
H	1.224696	-0.443430	0.958649	1
H	1.243286	-0.358900	-2.103801	1
H	1.405676	-1.797850	-1.077881	1
H	2.678986	-0.585310	-1.090091	1
H	1.038596	2.001490	-0.886011	1
H	2.482346	1.509610	-0.008561	1
H	-0.141764	2.433030	1.257169	1
H	1.407666	3.275040	1.233029	1
H	1.238026	1.780039	2.167229	1
Es	0.904829	0.024292	0.018474	99
Es	1.123960	-0.297171	0.668495	99
Es	1.461474	-1.456470	-1.094956	99
Es	0.200516	2.382236	1.251747	99
Es	-0.633133	-0.069756	-0.077703	99
Es	1.142539	1.838793	-0.603449	99
Es	1.385455	1.491345	0.020953	99
Es	1.144707	1.935404	1.873447	99
Es	1.136883	0.764488	0.022590	99
Es	-0.940365	0.301884	0.500535	99
Es	-2.957556	-1.172113	0.566217	99
Es	-0.865558	0.271205	-0.711568	99
Es	-2.939270	-2.232643	-0.025849	99
Es	1.349880	-0.470177	-1.795259	99
Es	1.152363	1.885625	0.638146	99
Es	1.592862	-0.721385	-1.131165	99
Es	2.335160	-0.624157	-1.100193	99
Es	2.140419	1.500096	0.001980	99
Es	-0.909136	-1.860050	0.560842	99
Es	1.261245	2.960804	1.234570	99
Es	-2.690468	-1.526172	-0.038401	99
Es	1.247210	-0.354868	-0.567496	99
Es	0.941962	2.284263	1.241548	99
Es	-1.935982	-1.510295	-0.042993	99
Es	-2.965205	-1.191025	-0.649439	99
Es	0.133867	-0.025827	-0.034781	99
Es	-0.931530	-1.882807	-0.655314	99
Es	-1.168894	-1.503842	-0.051419	99
Es	-0.893199	-0.789741	-0.067668	99
52
Properties=species:S:1:pos:R:3:Z:I:1 energy=-274.49444095360866 field_type=dipole dipole="0.000000 0.000000 0.000000" charge=0
C	-2.690484	-1.526170	-0.038401	6
C	-1.168864	-1.503870	-0.051421	6
C	-0.633154	-0.069730	-0.077701	6
C	0.904836	0.024280	0.018519	6
C	1.592866	-0.721390	-1.131171	6
C	1.385476	1.491340	0.020919	6
C	0.941956	2.284270	1.241559	6
H	-3.054164	-2.558800	-0.019821	1
H	-3.096464	-1.039310	-0.930531	1
H	-3.084354	-1.011900	0.844099	1
H	-0.824534	-2.058720	-0.930051	1
H	-0.793394	-2.025660	0.836429	1
H	-1.081834	0.473560	0.761809	1
H	-0.975394	0.428390	-0.993971	1
H	1.224696	-0.443430	0.958649	1
H	1.243286	-0.358900	-2.103801	1
H	1.405676	-1.797850	-1.077881	1
H	2.678986	-0.585310	-1.090091	1
H	1.038596	2.001490	-0.886011	1
H	2.482346	1.509610	-0.008561	1
H	-0.141764	2.433030	1.257169	1
H	1.407666	3.275040	1.233029	1
H	1.238026	1.780039	2.167229	1
Es	0.941962	2.284263	1.241546	99
Es	-0.908796	-1.860455	0.561478	99
Es	1.152359	1.885587	0.638182	99
Es	1.385454	1.491343	0.020954	99
Es	-1.935913	-1.510180	-0.042970	99
Es	1.592861	-0.721385	-1.131164	99
Es	2.334884	-0.624282	-1.099901	99
Es	-2.965545	-1.190681	-0.650006	99
Es	1.461632	-1.456381	-1.094705	99
Es	1.124195	-0.297411	0.669084	99
Es	-0.865921	0.271645	-0.712130	99
Es	1.247225	-0.354882	-0.567534	99
Es	0.200705	2.382478	1.251365	99
Es	2.140146	1.499980	0.002411	99
Es	-0.893269	-0.789603	-0.067807	99
Es	0.133976	-0.025844	-0.034717	99
Es	1.142345	1.839214	-0.604082	99
Es	-0.940044	0.301369	0.500549	99
Es	-2.690467	-1.526172	-0.038401	99
Es	1.261084	2.960559	1.234207	99
Es	1.349703	-0.469869	-1.795799	99
Es	-0.931912	-1.882420	-0.655239	99
Es	-2.957316	-1.172547	0.566147	99
Es	-1.168894	-1.503841	-0.051418	99
Es	0.904828	0.024293	0.018473	99
Es	-0.633134	-0.069755	-0.077699	99
Es	-2.938981	-2.232499	-0.025529	99
Es	1.136971	0.764376	0.022501	99
Es	1.144895	1.935034	1.874094	99
52
Properties=species:S:1:pos:R:3:Z:I:1 energy=-274.49444095360866 field_type=dipole dipole="0.000000 0.000000 0.000000" charge=0
C	-2.690484	-1.526170	-0.038401	6
C	-1.168864	-1.503870	-0.051421	6
C	-0.633154	-0.069730	-0.077701	6
C	0.904836	0.024280	0.018519	6
C	1.592866	-0.721390	-1.131171	6
C	1.385476	1.491340	0.020919	6
C	0.941956	2.284270	1.241559	6
H	-3.054164	-2.558800	-0.019821	1
H	-3.096464	-1.039310	-0.930531	1
H	-3.084354	-1.011900	0.844099	1
H	-0.824534	-2.058720	-0.930051	1
H	-0.793394	-2.025660	0.836429	1
H	-1.081834	0.473560	0.761809	1
H	-0.975394	0.428390	-0.993971	1
H	1.224696	-0.443430	0.958649	1
H	1.243286	-0.358900	-2.103801	1
H	1.405676	-1.797850	-1.077881	1
H	2.678986	-0.585310	-1.090091	1
H	1.038596	2.001490	-0.886011	1
H	2.482346	1.509610	-0.008561	1
H	-0.141764	2.433030	1.257169	1
H	1.407666	3.275040	1.233029	1
H	1.238026	1.780039	2.167229	1
Es	2.334579	-0.624404	-1.099626	99
Es	-2.690467	-1.526172	-0.038402	99
Es	-0.939894	0.301234	0.500535	99
Es	1.592860	-0.721385	-1.131165	99
Es	0.941962	2.284262	1.241546	99
Es	1.385455	1.491343	0.020956	99
Es	0.200911	2.382562	1.251307	99
Es	-0.633134	-0.069756	-0.077699	99
Es	1.124305	-0.297600	0.669397	99
Es	-2.938943	-2.232295	-0.025380	99
Es	1.145126	1.934773	1.874431	99
Es	1.260884	2.960463	1.234010	99
Es	1.349700	-0.469713	-1.796291	99
Es	2.139976	1.499820	0.002521	99
Es	1.136994	0.764425	0.022523	99
Es	0.904829	0.024293	0.018473	99
Es	-2.957125	-1.172828	0.566120	99
Es	1.142235	1.839341	-0.604420	99
Es	0.133971	-0.025917	-0.034815	99
Es	-1.168894	-1.503841	-0.051417	99
Es	-2.965676	-1.190367	-0.650372	99
Es	-0.908520	-1.860637	0.561738	99
Es	-0.866006	0.271801	-0.712394	99
Es	-1.935924	-1.510377	-0.042794	99
Es	1.152305	1.885768	0.638124	99
Es	1.247272	-0.354750	-0.567505	99
Es	-0.932069	-1.882145	-0.655281	99
Es	-0.893447	-0.789628	-0.067797	99
Es	1.461768	-1.456332	-1.094432	99
52
Properties=species:S:1:pos:R:3:Z:I:1 energy=-274.49444095360866 field_type=dipole dipole="0.000000 0.000000 0.000000" charge=0
C	-2.690484	-1.526170	-0.038401	6
C	-1.168864	-1.503870	-0.051421	6
C	-0.633154	-0.069730	-0.077701	6
C	0.904836	0.024280	0.018519	6
C	1.592866	-0.721390	-1.131171	6
C	1.385476	1.491340	0.020919	6
C	0.941956	2.284270	1.241559	6
H	-3.054164	-2.558800	-0.019821	1
H	-3.096464	-1.039310	-0.930531	1
H	-3.084354	-1.011900	0.844099	1
H	-0.824534	-2.058720	-0.930051	1
H	-0.793394	-2.025660	0.836429	1
H	-1.081834	0.473560	0.761809	1
H	-0.975394	0.428390	-0.993971	1
H	1.224696	-0.443430	0.958649	1
H	1.243286	-0.358900	-2.103801	1
H	1.405676	-1.797850	-1.077881	1
H	2.678986	-0.585310	-1.090091	1
H	1.038596	2.001490	-0.886011	1
H	2.482346	1.509610	-0.008561	1
H	-0.141764	2.433030	1.257169	1
H	1.407666	3.275040	1.233029	1
H	1.238026	1.780039	2.167229	1
Es	-0.633133	-0.069756	-0.077701	99
Es	-1.168894	-1.503841	-0.051419	99
Es	-2.938840	-2.232189	-0.025248	99
Es	-0.932051	-1.882033	-0.655180	99
Es	-0.893322	-0.789697	-0.067724	99
Es	0.941962	2.284261	1.241545	99
Es	0.200894	2.382798	1.251046	99
Es	1.592861	-0.721386	-1.131166	99
Es	1.247305	-0.354744	-0.567529	99
Es	1.124348	-0.297631	0.669644	99
Es	1.137024	0.764499	0.022444	99
Es	2.334551	-0.624466	-1.099574	99
Es	1.385454	1.491344	0.020954	99
Es	-0.908529	-1.860741	0.561934	99
Es	0.904829	0.024292	0.018474	99
Es	1.260837	2.960166	1.233796	99
Es	1.461783	-1.456250	-1.094322	99
Es	-2.965794	-1.190355	-0.650556	99
Es	-2.690468	-1.526172	-0.038401	99
Es	2.139945	1.499775	0.002714	99
Es	-2.957072	-1.172901	0.566119	99
Es	1.145160	1.934773	1.874790	99
Es	-0.866133	0.271907	-0.712614	99
Es	-1.935979	-1.510312	-0.042961	99
Es	1.349624	-0.469685	-1.796440	99
Es	1.152334	1.885612	0.638226	99
Es	-0.939759	0.301118	0.500564	99
Es	0.133981	-0.025919	-0.034855	99
Es	1.142116	1.839471	-0.604669	99
52
Properties=species:S:1:pos:R:3:Z:I:1 energy=-274.49444095360866 field_type=dipole dipole="0.000000 0.000000 0.000000" charge=0
C	-2.690484	-1.526170	-0.038401	6
C	-1.168864	-1.503870	-0.051421	6
C	-0.633154	-0.069730	-0.077701	6
C	0.904836	0.024280	0.018519	6
C	1.592866	-0.721390	-1.131171	6
C	1.385476	1.491340	0.020919	6
C	0.941956	2.284270	1.241559	6
H	-3.054164	-2.558800	-0.019821	1
H	-3.096464	-1.039310	-0.930531	1
H	-3.084354	-1.011900	0.844099	1
H	-0.824534	-2.058720	-0.930051	1
H	-0.793394	-2.025660	0.836429	1
H	-1.081834	0.473560	0.761809	1
H	-0.975394	0.428390	-0.993971	1
H	1.224696	-0.443430	0.958649	1
H	1.243286	-0.358900	-2.103801	1
H	1.405676	-1.797850	-1.077881	1
H	2.678986	-0.585310	-1.090091	1
H	1.038596	2.001490	-0.886011	1
H	2.482346	1.509610	-0.008561	1
H	-0.141764	2.433030	1.257169	1
H	1.407666	3.275040	1.233029	1
H	1.238026	1.780039	2.167229	1
Es	-0.633134	-0.069757	-0.077700	99
Es	2.139854	1.499800	0.002737	99
Es	-2.956930	-1.173029	0.566112	99
Es	0.904829	0.024292	0.018474	99
Es	1.142019	1.839524	-0.604791	99
Es	0.133906	-0.025903	-0.034835	99
Es	0.200897	2.382760	1.250963	99
Es	-2.965953	-1.190243	-0.650733	99
Es	1.461861	-1.456298	-1.094300	99
Es	-1.935995	-1.510276	-0.043012	99
Es	-0.908512	-1.860888	0.562037	99
Es	-0.866199	0.271978	-0.712789	99
Es	1.260716	2.960129	1.233787	99
Es	1.592861	-0.721387	-1.131165	99
Es	-0.932142	-1.881928	-0.655152	99
Es	2.334409	-0.624468	-1.099533	99
Es	0.941962	2.284262	1.241546	99
Es	1.385454	1.491344	0.020953	99
Es	1.137067	0.764412	0.022516	99
Es	-0.939676	0.301030	0.500550	99
Es	1.145264	1.934659	1.874880	99
Es	1.349596	-0.469561	-1.796537	99
Es	1.152444	1.885740	0.638212	99
Es	-2.938745	-2.232128	-0.025106	99
Es	-2.690469	-1.526172	-0.038401	99
Es	1.247346	-0.354701	-0.567506	99
Es	1.124433	-0.297720	0.669753	99
Es	-1.168895	-1.503841	-0.051418	99
Es	-0.893235	-0.789693	-0.067651	99
52
Properties=species:S:1:pos:R:3:Z:I:1 energy=-274.49444095360866 field_type=dipole dipole="0.000000 0.000000 0.000000" charge=0
C	-2.690484	-1.526170	-0.038401	6
C	-1.168864	-1.503870	-0.051421	6
C	-0.633154	-0.069730	-0.077701	6
C	0.904836	0.024280	0.018519	6
C	1.592866	-0.721390	-1.131171	6
C	1.385476	1.491340	0.020919	6
C	0.941956	2.284270	1.241559	6
H	-3.054164	-2.558800	-0.019821	1
H	-3.096464	-1.039310	-0.930531	1
H	-3.084354	-1.011900	0.844099	1
H	-0.824534	-2.058720	-0.930051	1
H	-0.793394	-2.025660	0.836429	1
H	-1.081834	0.473560	0.761809	1
H	-0.975394	0.428390	-0.993971	1
H	1.224696	-0.443430	0.958649	1
H	1.243286	-0.358900	-2.103801	1
H	1.405676	-1.797850	-1.077881	1
H	2.678986	-0.585310	-1.090091	1
H	1.038596	2.001490	-0.886011	1
H	2.482346	1.509610	-0.008561	1
H	-0.141764	2.433030	1.257169	1
H	1.407666	3.275040	1.233029	1
H	1.238026	1.780039	2.167229	1
Es	-2.690468	-1.526172	-0.038401	99
Es	1.124419	-0.297807	0.669857	99
Es	-2.966000	-1.190140	-0.650843	99
Es	1.260667	2.960023	1.233734	99
Es	2.334302	-0.624525	-1.099457	99
Es	0.904831	0.024291	0.018473	99
Es	-1.936027	-1.510279	-0.042980	99
Es	0.133955	-0.025862	-0.034826	99
Es	-0.939600	0.300923	0.500510	99
Es	-0.932253	-1.881844	-0.655116	99
Es	-0.866255	0.272082	-0.712876	99
Es	1.152567	1.885767	0.638216	99
Es	-1.168895	-1.503840	-0.051418	99
Es	-2.938715	-2.232098	-0.025051	99
Es	-0.893250	-0.789746	-0.067719	99
Es	1.247363	-0.354652	-0.567540	99
Es	1.592860	-0.721385	-1.131164	99
Es	1.385455	1.491346	0.020952	99
Es	-0.633133	-0.069756	-0.077700	99
Es	2.139844	1.499696	0.002776	99
Es	0.941962	2.284261	1.241545	99
Es	-0.908393	-1.860955	0.562166	99
Es	1.136997	0.764473	0.022548	99
Es	-2.956851	-1.173119	0.566103	99
Es	1.349617	-0.469501	-1.796683	99
Es	1.145282	1.934588	1.875037	99
Es	0.200911	2.382837	1.250833	99
Es	1.141958	1.839630	-0.604869	99
Es	1.461883	-1.456298	-1.094214	99
52
Properties=species:S:1:pos:R:3:Z:I:1 energy=-274.49444095360866 field_type=dipole dipole="0.000000 0.000000 0.000000" charge=0
C	-2.690484	-1.526170	-0.038401	6
C	-1.168864	-1.503870	-0.051421	6
C	-0.633154	-0.069730	-0.077701	6
C	0.904836	0.024280	0.018519	6
C	1.592866	-0.721390	-1.131171	6
C	1.385476	1.491340	0.020919	6
C	0.941956	2.284270	1.241559	6
H	-3.054164	-2.558800	-0.019821	1
H	-3.096464	-1.039310	-0.930531	1
H	-3.084354	-1.011900	0.844099	1
H	-0.824534	-2.058720	-0.930051	1
H	-0.793394	-2.025660	0.836429	1
H	-1.081834	0.473560	0.761809	1
H	-0.975394	0.428390	-0.993971	1
H	1.224696	-0.443430	0.958649	1
H	1.243286	-0.358900	-2.103801	1
H	1.405676	-1.797850	-1.077881	1
H	2.678986	-0.585310	-1.090091	1
H	1.038596	2.001490	-0.886011	1
H	2.482346	1.509610	-0.008561	1
H	-0.141764	2.433030	1.257169	1
H	1.407666	3.275040	1.233029	1
H	1.238026	1.780039	2.167229	1
Es	0.134047	-0.025929	-0.034847	99
Es	1.152460	1.885824	0.638271	99
Es	-2.938648	-2.232075	-0.024986	99
Es	-0.932259	-1.881756	-0.655102	99
Es	1.145365	1.934508	1.875114	99
Es	1.349599	-0.469463	-1.796709	99
Es	1.462017	-1.456380	-1.094223	99
Es	-0.866280	0.272146	-0.712926	99
Es	-0.939613	0.300831	0.500552	99
Es	1.124383	-0.297778	0.669973	99
Es	2.139770	1.499745	0.002873	99
Es	-0.633134	-0.069758	-0.077700	99
Es	-0.893311	-0.789670	-0.067791	99
Es	0.200855	2.382945	1.250773	99
Es	1.137078	0.764484	0.022541	99
Es	1.592860	-0.721386	-1.131165	99
Es	-2.966087	-1.190147	-0.650896	99
Es	-0.908344	-1.861013	0.562261	99
Es	1.260700	2.959891	1.233652	99
Es	-1.168894	-1.503839	-0.051418	99
Es	1.141936	1.839617	-0.605026	99
Es	1.247367	-0.354753	-0.567520	99
Es	-2.956782	-1.173130	0.566145	99
Es	2.334205	-0.624399	-1.099418	99
Es	-1.936033	-1.510305	-0.043109	99
Es	1.385453	1.491344	0.020954	99
Es	0.904829	0.024292	0.018474	99
Es	-2.690468	-1.526172	-0.038400	99
Es	0.941962	2.284263	1.241545	99
52
Properties=species:S:1:pos:R:3:Z:I:1 energy=-274.49444095360866 field_type=dipole dipole="0.000000 0.000000 0.000000" charge=0
C	-2.690484	-1.526170	-0.038401	6
C	-1.168864	-1.503870	-0.051421	6
C	-0.633154	-0.069730	-0.077701	6
C	0.904836	0.024280	0.018519	6
C	1.592866	-0.721390	-1.131171	6
C	1.385476	1.491340	0.020919	6
C	0.941956	2.284270	1.241559	6
H	-3.054164	-2.558800	-0.019821	1
H	-3.096464	-1.039310	-0.930531	1
H	-3.084354	-1.011900	0.844099	1
H	-0.824534	-2.058720	-0.930051	1
H	-0.793394	-2.025660	0.836429	1
H	-1.081834	0.473560	0.761809	1
H	-0.975394	0.428390	-0.993971	1
H	1.224696	-0.443430	0.958649	1
H	1.243286	-0.358900	-2.103801	1
H	1.405676	-1.797850	-1.077881	1
H	2.678986	-0.585310	-1.090091	1
H	1.038596	2.001490	-0.886011	1
H	2.482346	1.509610	-0.008561	1
H	-0.141764	2.433030	1.257169	1
H	1.407666	3.275040	1.233029	1
H	1.238026	1.780039	2.167229	1
Es	1.385454	1.491344	0.020954	99
Es	0.133908	-0.025966	-0.034945	99
Es	0.904830	0.024292	0.018474	99
Es	-0.633134	-0.069756	-0.077700	99
Es	-0.908276	-1.861057	0.562335	99
Es	0.941964	2.284265	1.241544	99
Es	-2.938655	-2.232016	-0.024996	99
Es	1.247361	-0.354575	-0.567446	99
Es	1.260587	2.959991	1.233688	99
Es	-0.939603	0.300895	0.500626	99
Es	1.461967	-1.456350	-1.094227	99
Es	1.137021	0.764466	0.022530	99
Es	-0.932278	-1.881669	-0.655116	99
Es	1.152428	1.885724	0.638073	99
Es	1.141920	1.839691	-0.605002	99
Es	2.139870	1.499707	0.002943	99
Es	1.592861	-0.721386	-1.131165	99
Es	1.145271	1.934460	1.875217	99
Es	0.201083	2.382903	1.250749	99
Es	-0.866317	0.272052	-0.713030	99
Es	2.334169	-0.624512	-1.099395	99
Es	-2.690468	-1.526172	-0.038401	99
Es	1.349679	-0.469435	-1.796756	99
Es	1.124471	-0.297849	0.669972	99
Es	-2.956814	-1.173197	0.566116	99
Es	-0.893279	-0.789685	-0.067735	99
Es	-2.966064	-1.190080	-0.650969	99
Es	-1.168894	-1.503841	-0.051418	99
Es	-1.936030	-1.510306	-0.043029	99
52
Properties=species:S:1:pos:R:3:Z:I:1 energy=-274.49444095360866 field_type=dipole dipole="0.000000 0.000000 0.000000" charge=0
C	-2.690484	-1.526170	-0.038401	6
C	-1.168864	-1.503870	-0.051421	6
C	-0.633154	-0.069730	-0.077701	6
C	0.904836	0.024280	0.018519	6
C	1.592866	-0.721390	-1.131171	6
C	1.385476	1.491340	0.020919	6
C	0.941956	2.284270	1.241559	6
H	-3.054164	-2.558800	-0.019821	1
H	-3.096464	-1.039310	-0.930531	1
H	-3.084354	-1.011900	0.844099	1
H	-0.824534	-2.058720	-0.930051	1
H	-0.793394	-2.025660	0.836429	1
H	-1.081834	0.473560	0.761809	1
H	-0.975394	0.428390	-0.993971	1
H	1.224696	-0.443430	0.958649	1
H	1.243286	-0.358900	-2.103801	1
H	1.405676	-1.797850	-1.077881	1
H	2.678986	-0.585310	-1.090091	1
H	1.038596	2.001490	-0.886011	1
H	2.482346	1.509610	-0.008561	1
H	-0.141764	2.433030	1.257169	1
H	1.407666	3.275040	1.233029	1
H	1.238026	1.780039	2.167229	1
Es	1.349645	-0.469412	-1.796796	99
Es	-0.893223	-0.789878	-0.067777	99
Es	2.139753	1.499687	0.002995	99
Es	-0.633133	-0.069756	-0.077700	99
Es	0.941962	2.284262	1.241546	99
Es	-1.168895	-1.503840	-0.051419	99
Es	1.145392	1.934479	1.875249	99
Es	1.137168	0.764482	0.022513	99
Es	-0.939491	0.300812	0.500579	99
Es	1.462071	-1.456432	-1.094190	99
Es	1.260667	2.959771	1.233584	99
Es	1.141915	1.839729	-0.605137	99
Es	-2.690468	-1.526172	-0.038403	99
Es	-0.932439	-1.881568	-0.655099	99
Es	0.133907	-0.025844	-0.034855	99
Es	-2.966026	-1.190113	-0.650992	99
Es	-0.866348	0.272191	-0.713061	99
Es	1.592861	-0.721386	-1.131165	99
Es	-2.956709	-1.173069	0.566044	99
Es	-2.938748	-2.232071	-0.024872	99
Es	1.385454	1.491344	0.020954	99
Es	-1.936068	-1.510199	-0.043071	99
Es	0.904829	0.024292	0.018474	99
Es	1.247249	-0.354589	-0.567469	99
Es	0.200905	2.383064	1.250730	99
Es	1.124504	-0.297945	0.670017	99
Es	1.152433	1.885739	0.638211	99
Es	-0.908181	-1.861198	0.562416	99
Es	2.334048	-0.624440	-1.099415	99
52
Properties=species:S:1:pos:R:3:Z:I:1 energy=-274.49444095360866 field_type=dipole dipole="0.000000 0.000000 0.000000" charge=0
C	-2.690484	-1.526170	-0.038401	6
C	-1.168864	-1.503870	-0.051421	6
C	-0.633154	-0.069730	-0.077701	6
C	0.904836	0.024280	0.018519	6
C	1.592866	-0.721390	-1.131171	6
C	1.385476	1.491340	0.020919	6
C	0.941956	2.284270	1.241559	6
H	-3.054164	-2.558800	-0.019821	1
H	-3.096464	-1.039310	-0.930531	1
H	-3.084354	-1.011900	0.844099	1
H	-0.824534	-2.058720	-0.930051	1
H	-0.793394	-2.025660	0.836429	1
H	-1.081834	0.473560	0.761809	1
H	-0.975394	0.428390	-0.993971	1
H	1.224696	-0.443430	0.958649	1
H	1.243286	-0.358900	-2.103801	1
H	1.405676	-1.797850	-1.077881	1
H	2.678986	-0.585310	-1.090091	1
H	1.038596	2.001490	-0.886011	1
H	2.482346	1.509610	-0.008561	1
H	-0.141764	2.433030	1.257169	1
H	1.407666	3.275040	1.233029	1
H	1.238026	1.780039	2.167229	1
Es	1.152508	1.885795	0.638170	99
Es	2.139750	1.499709	0.003013	99
Es	1.592861	-0.721385	-1.131165	99
Es	-0.633134	-0.069756	-0.077700	99
Es	1.141865	1.839792	-0.605140	99
Es	-0.939444	0.300706	0.500565	99
Es	-1.168893	-1.503841	-0.051419	99
Es	0.941961	2.284262	1.241546	99
Es	-0.893255	-0.789763	-0.067718	99
Es	-1.936022	-1.510285	-0.042999	99
Es	-2.938639	-2.231980	-0.024971	99
Es	1.385453	1.491345	0.020954	99
Es	1.462129	-1.456465	-1.094136	99
Es	0.134006	-0.025884	-0.034824	99
Es	1.145484	1.934430	1.875283	99
Es	0.904829	0.024292	0.018474	99
Es	1.137051	0.764471	0.022548	99
Es	-2.966135	-1.189953	-0.651030	99
Es	-2.690468	-1.526172	-0.038402	99
Es	2.333959	-0.624432	-1.099437	99
Es	1.349616	-0.469390	-1.796849	99
Es	0.200879	2.383018	1.250696	99
Es	-0.866394	0.272286	-0.713103	99
Es	-0.932364	-1.881562	-0.655081	99
Es	1.260565	2.959742	1.233593	99
Es	-2.956749	-1.173340	0.566082	99
Es	1.247381	-0.354595	-0.567532	99
Es	1.124455	-0.297923	0.670094	99
Es	-0.908221	-1.861185	0.562378	99
