38
Properties=species:S:1:pos:R:3:Z:I:1 energy=-358.6520290437166 field_type=dipole dipole="0.000000 0.000000 0.000000" charge=0
O	-1.954196	-1.672297	0.827932	8
C	-0.851476	-1.582247	0.307152	6
N	-0.094367	-0.452317	0.274002	7
C	-0.517246	0.925352	0.540342	6
C	0.659274	1.366473	-0.354068	6
O	1.109023	2.430702	-0.723878	8
C	1.030904	-0.111097	-0.594398	6
H	-0.365057	-2.433078	-0.197838	1
H	-0.422147	1.210412	1.589422	1
H	-1.503646	1.171872	0.143292	1
H	0.910963	-0.445448	-1.626488	1
H	1.997974	-0.408327	-0.185468	1
Es	1.030752	-0.111116	-0.594291	99
Es	-0.851349	-1.582115	0.307148	99
Es	0.913223	0.631934	-0.525515	99
Es	1.678377	-0.302973	-0.321345	99
Es	0.949434	2.661998	-0.608888	99
Es	-0.457891	-0.836283	0.134584	99
Es	-1.468327	-1.703637	0.864859	99
Es	0.389779	-0.375173	-0.116384	99
Es	0.659252	1.366389	-0.354050	99
Es	1.108896	2.430368	-0.723772	99
Es	-0.328709	0.109640	0.412244	99
Es	-1.688753	-1.579556	0.434106	99
Es	0.044808	1.220573	0.113552	99
Es	0.790895	2.036028	-0.792887	99
Es	0.946561	-0.330283	-1.285660	99
Es	-0.094547	-0.452271	0.273703	99
Es	-2.035994	-1.397496	0.947297	99
Es	-0.505691	-2.154500	-0.042482	99
Es	-1.164745	1.091617	0.266033	99
Es	1.100048	2.047853	-0.386449	99
Es	-0.445427	1.120671	1.234707	99
Es	-1.953889	-1.672268	0.827790	99
Es	1.350105	2.392337	-0.905647	99
Es	-0.049392	-0.672999	0.529894	99
Es	-0.517153	0.925190	0.540279	99
Es	-2.071609	-1.954285	0.804827	99
38
Properties=species:S:1:pos:R:3:Z:I:1 energy=-358.6520290437166 field_type=dipole dipole="0.000000 0.000000 0.000000" charge=0
O	-1.954196	-1.672297	0.827932	8
C	-0.851476	-1.582247	0.307152	6
N	-0.094367	-0.452317	0.274002	7
C	-0.517246	0.925352	0.540342	6
C	0.659274	1.366473	-0.354068	6
O	1.109023	2.430702	-0.723878	8
C	1.030904	-0.111097	-0.594398	6
H	-0.365057	-2.433078	-0.197838	1
H	-0.422147	1.210412	1.589422	1
H	-1.503646	1.171872	0.143292	1
H	0.910963	-0.445448	-1.626488	1
H	1.997974	-0.408327	-0.185468	1
Es	-2.087203	-1.961609	0.817414	99
Es	1.095866	2.049573	-0.387504	99
Es	0.945310	2.645290	-0.604383	99
Es	-0.458676	-0.884084	0.180661	99
Es	-0.332605	0.108155	0.410670	99
Es	-0.851349	-1.582114	0.307144	99
Es	-1.688227	-1.575897	0.433877	99
Es	-2.016600	-1.400864	0.939830	99
Es	0.659253	1.366388	-0.354043	99
Es	-0.049166	-0.622849	0.486944	99
Es	-0.094723	-0.452299	0.273483	99
Es	-0.517153	0.925190	0.540278	99
Es	-1.953902	-1.672281	0.827794	99
Es	0.392456	-0.377893	-0.116897	99
Es	0.790075	2.037074	-0.791140	99
Es	0.913625	0.633782	-0.526769	99
Es	0.046569	1.223537	0.112688	99
Es	1.030752	-0.111117	-0.594289	99
Es	1.360023	2.406152	-0.910629	99
Es	0.947496	-0.329711	-1.282892	99
Es	-1.472540	-1.697234	0.860106	99
Es	-0.446899	1.118844	1.231419	99
Es	1.108908	2.430393	-0.723783	99
Es	-1.164820	1.091021	0.268927	99
Es	1.677714	-0.303448	-0.323229	99
Es	-0.505532	-2.154357	-0.042025	99
38
Properties=species:S:1:pos:R:3:Z:I:1 energy=-358.6520290437166 field_type=dipole dipole="0.000000 0.000000 0.000000" charge=0
O	-1.954196	-1.672297	0.827932	8
C	-0.851476	-1.582247	0.307152	6
N	-0.094367	-0.452317	0.274002	7
C	-0.517246	0.925352	0.540342	6
C	0.659274	1.366473	-0.354068	6
O	1.109023	2.430702	-0.723878	8
C	1.030904	-0.111097	-0.594398	6
H	-0.365057	-2.433078	-0.197838	1
H	-0.422147	1.210412	1.589422	1
H	-1.503646	1.171872	0.143292	1
H	0.910963	-0.445448	-1.626488	1
H	1.997974	-0.408327	-0.185468	1
Es	-1.953926	-1.672267	0.827800	99
Es	-0.333747	0.107696	0.410718	99
Es	1.677587	-0.303792	-0.324077	99
Es	1.096860	2.049861	-0.388909	99
Es	0.659247	1.366386	-0.354053	99
Es	-1.684301	-1.575313	0.433083	99
Es	-1.476617	-1.696548	0.861161	99
Es	0.947934	-0.329316	-1.280958	99
Es	-0.094458	-0.452248	0.273799	99
Es	0.047260	1.224955	0.112673	99
Es	1.108910	2.430409	-0.723790	99
Es	-0.447531	1.117882	1.229600	99
Es	0.395235	-0.379447	-0.115070	99
Es	-2.005763	-1.403379	0.932857	99
Es	-2.097873	-1.960654	0.824083	99
Es	-0.517153	0.925190	0.540278	99
Es	-0.851349	-1.582114	0.307145	99
Es	1.364440	2.429442	-0.912901	99
Es	0.792550	2.034524	-0.792180	99
Es	0.937757	2.624186	-0.599583	99
Es	-0.505352	-2.154269	-0.041715	99
Es	-1.164792	1.090840	0.270247	99
Es	-0.451417	-0.907645	0.213906	99
Es	-0.059217	-0.598318	0.451506	99
Es	1.030752	-0.111116	-0.594290	99
Es	0.913617	0.634696	-0.527677	99
38
Properties=species:S:1:pos:R:3:Z:I:1 energy=-358.6520290437166 field_type=dipole dipole="0.000000 0.000000 0.000000" charge=0
O	-1.954196	-1.672297	0.827932	8
C	-0.851476	-1.582247	0.307152	6
N	-0.094367	-0.452317	0.274002	7
C	-0.517246	0.925352	0.540342	6
C	0.659274	1.366473	-0.354068	6
O	1.109023	2.430702	-0.723878	8
C	1.030904	-0.111097	-0.594398	6
H	-0.365057	-2.433078	-0.197838	1
H	-0.422147	1.210412	1.589422	1
H	-1.503646	1.171872	0.143292	1
H	0.910963	-0.445448	-1.626488	1
H	1.997974	-0.408327	-0.185468	1
Es	0.397450	-0.380012	-0.113207	99
Es	1.097073	2.049252	-0.390331	99
Es	0.047620	1.225715	0.112753	99
Es	0.947985	-0.328981	-1.279772	99
Es	0.792169	2.034629	-0.792686	99
Es	-2.102147	-1.960806	0.828062	99
Es	1.108928	2.430371	-0.723796	99
Es	-0.443167	-0.920561	0.238053	99
Es	-0.069753	-0.585053	0.424137	99
Es	-0.851347	-1.582112	0.307142	99
Es	-1.953955	-1.672246	0.827829	99
Es	-0.517152	0.925189	0.540278	99
Es	-1.475601	-1.694701	0.859545	99
Es	1.677618	-0.304099	-0.324684	99
Es	-1.164920	1.090702	0.270930	99
Es	-0.094861	-0.452340	0.273328	99
Es	-1.686497	-1.573951	0.433496	99
Es	-0.447841	1.117389	1.228333	99
Es	-2.000345	-1.406562	0.929948	99
Es	-0.505304	-2.154227	-0.041434	99
Es	-0.333492	0.107504	0.412755	99
Es	1.030751	-0.111117	-0.594290	99
Es	1.365690	2.439754	-0.913529	99
Es	0.913660	0.635154	-0.528158	99
Es	0.659248	1.366387	-0.354053	99
Es	0.936843	2.614364	-0.596997	99
38
Properties=species:S:1:pos:R:3:Z:I:1 energy=-358.6520290437166 field_type=dipole dipole="0.000000 0.000000 0.000000" charge=0
O	-1.954196	-1.672297	0.827932	8
C	-0.851476	-1.582247	0.307152	6
N	-0.094367	-0.452317	0.274002	7
C	-0.517246	0.925352	0.540342	6
C	0.659274	1.366473	-0.354068	6
O	1.109023	2.430702	-0.723878	8
C	1.030904	-0.111097	-0.594398	6
H	-0.365057	-2.433078	-0.197838	1
H	-0.422147	1.210412	1.589422	1
H	-1.503646	1.171872	0.143292	1
H	0.910963	-0.445448	-1.626488	1
H	1.997974	-0.408327	-0.185468	1
Es	-1.476650	-1.693039	0.858583	99
Es	-0.517153	0.925189	0.540279	99
Es	-1.953889	-1.672273	0.827786	99
Es	-0.851347	-1.582112	0.307143	99
Es	1.677613	-0.304271	-0.325051	99
Es	0.399324	-0.380408	-0.111293	99
Es	0.913618	0.635446	-0.528803	99
Es	-0.076780	-0.579602	0.409547	99
Es	0.659248	1.366387	-0.354053	99
Es	-2.103590	-1.961780	0.830117	99
Es	1.108922	2.430349	-0.723792	99
Es	0.791858	2.034187	-0.793024	99
Es	0.948152	-0.328753	-1.278767	99
Es	-1.997486	-1.410203	0.929236	99
Es	0.936631	2.608643	-0.596386	99
Es	-0.094825	-0.452313	0.273351	99
Es	-1.686992	-1.571026	0.433063	99
Es	-0.333271	0.106966	0.413760	99
Es	1.366765	2.445452	-0.913055	99
Es	-0.438704	-0.925690	0.249806	99
Es	-0.505279	-2.154187	-0.041249	99
Es	-0.447699	1.116940	1.227034	99
Es	1.096707	2.049735	-0.390914	99
Es	1.030753	-0.111116	-0.594290	99
Es	0.047837	1.226229	0.112768	99
Es	-1.165111	1.090889	0.271856	99
38
Properties=species:S:1:pos:R:3:Z:I:1 energy=-358.6520290437166 field_type=dipole dipole="0.000000 0.000000 0.000000" charge=0
O	-1.954196	-1.672297	0.827932	8
C	-0.851476	-1.582247	0.307152	6
N	-0.094367	-0.452317	0.274002	7
C	-0.517246	0.925352	0.540342	6
C	0.659274	1.366473	-0.354068	6
O	1.109023	2.430702	-0.723878	8
C	1.030904	-0.111097	-0.594398	6
H	-0.365057	-2.433078	-0.197838	1
H	-0.422147	1.210412	1.589422	1
H	-1.503646	1.171872	0.143292	1
H	0.910963	-0.445448	-1.626488	1
H	1.997974	-0.408327	-0.185468	1
Es	-2.105884	-1.961130	0.831720	99
Es	0.659245	1.366385	-0.354053	99
Es	1.367462	2.457047	-0.912399	99
Es	-0.333250	0.106979	0.414197	99
Es	0.400365	-0.380872	-0.110104	99
Es	0.047976	1.226692	0.112844	99
Es	-0.505278	-2.154212	-0.041229	99
Es	-0.851346	-1.582113	0.307145	99
Es	-0.447855	1.116609	1.226217	99
Es	-1.683365	-1.572505	0.433108	99
Es	-0.517153	0.925190	0.540279	99
Es	1.108936	2.430352	-0.723802	99
Es	-1.165193	1.090847	0.272293	99
Es	0.934746	2.598076	-0.595066	99
Es	-1.953956	-1.672263	0.827820	99
Es	-0.080959	-0.576683	0.401188	99
Es	-1.996069	-1.409970	0.925872	99
Es	1.097032	2.050389	-0.392361	99
Es	-1.479276	-1.692464	0.860377	99
Es	0.913713	0.635934	-0.529226	99
Es	0.948168	-0.328540	-1.277848	99
Es	1.030752	-0.111115	-0.594290	99
Es	-0.094853	-0.452322	0.273321	99
Es	1.677477	-0.304696	-0.325564	99
Es	-0.435696	-0.928457	0.256537	99
Es	0.792912	2.032484	-0.793322	99
38
Properties=species:S:1:pos:R:3:Z:I:1 energy=-358.6520290437166 field_type=dipole dipole="0.000000 0.000000 0.000000" charge=0
O	-1.954196	-1.672297	0.827932	8
C	-0.851476	-1.582247	0.307152	6
N	-0.094367	-0.452317	0.274002	7
C	-0.517246	0.925352	0.540342	6
C	0.659274	1.366473	-0.354068	6
O	1.109023	2.430702	-0.723878	8
C	1.030904	-0.111097	-0.594398	6
H	-0.365057	-2.433078	-0.197838	1
H	-0.422147	1.210412	1.589422	1
H	-1.503646	1.171872	0.143292	1
H	0.910963	-0.445448	-1.626488	1
H	1.997974	-0.408327	-0.185468	1
Es	0.659246	1.366386	-0.354055	99
Es	-2.108287	-1.960268	0.832784	99
Es	-0.094967	-0.452375	0.273212	99
Es	1.368235	2.458412	-0.912170	99
Es	0.048180	1.226962	0.113007	99
Es	-1.953886	-1.672263	0.827786	99
Es	-1.165296	1.090870	0.272596	99
Es	-0.517153	0.925192	0.540278	99
Es	1.096157	2.050384	-0.392434	99
Es	-0.087447	-0.572968	0.388293	99
Es	-0.332526	0.106842	0.415748	99
Es	0.948225	-0.328417	-1.277691	99
Es	0.913722	0.636070	-0.529158	99
Es	0.401845	-0.381124	-0.108562	99
Es	1.030748	-0.111119	-0.594292	99
Es	0.791575	2.033432	-0.793366	99
Es	-1.992472	-1.410683	0.927174	99
Es	-1.687026	-1.571460	0.433924	99
Es	-0.431356	-0.931912	0.266552	99
Es	-1.476912	-1.693765	0.857085	99
Es	0.936297	2.595708	-0.595176	99
Es	-0.505251	-2.154175	-0.041081	99
Es	-0.851346	-1.582112	0.307144	99
Es	1.108931	2.430379	-0.723793	99
Es	1.677359	-0.304695	-0.325704	99
Es	-0.447942	1.116342	1.225555	99
38
Properties=species:S:1:pos:R:3:Z:I:1 energy=-358.6520290437166 field_type=dipole dipole="0.000000 0.000000 0.000000" charge=0
O	-1.954196	-1.672297	0.827932	8
C	-0.851476	-1.582247	0.307152	6
N	-0.094367	-0.452317	0.274002	7
C	-0.517246	0.925352	0.540342	6
C	0.659274	1.366473	-0.354068	6
O	1.109023	2.430702	-0.723878	8
C	1.030904	-0.111097	-0.594398	6
H	-0.365057	-2.433078	-0.197838	1
H	-0.422147	1.210412	1.589422	1
H	-1.503646	1.171872	0.143292	1
H	0.910963	-0.445448	-1.626488	1
H	1.997974	-0.408327	-0.185468	1
Es	-0.447877	1.116017	1.224762	99
Es	-1.165455	1.090997	0.273087	99
Es	-0.429737	-0.933147	0.269838	99
Es	-1.479711	-1.694550	0.857127	99
Es	0.048273	1.227284	0.113091	99
Es	-0.089791	-0.571851	0.384086	99
Es	-1.990393	-1.411354	0.926962	99
Es	-0.517153	0.925191	0.540279	99
Es	-1.953854	-1.672333	0.827745	99
Es	-0.332588	0.106789	0.415734	99
Es	0.791241	2.032466	-0.792648	99
Es	0.936458	2.592539	-0.595158	99
Es	1.108913	2.430341	-0.723786	99
Es	-0.851346	-1.582113	0.307145	99
Es	-0.094757	-0.452275	0.273410	99
Es	-0.505258	-2.154188	-0.041111	99
Es	1.030751	-0.111116	-0.594292	99
Es	0.913621	0.636250	-0.529687	99
Es	1.096432	2.051454	-0.392950	99
Es	-2.110103	-1.959727	0.833374	99
Es	-1.684524	-1.570449	0.433592	99
Es	0.402185	-0.381382	-0.107889	99
Es	0.659248	1.366387	-0.354054	99
Es	1.677249	-0.304646	-0.325726	99
Es	0.948515	-0.328447	-1.277079	99
Es	1.368314	2.461503	-0.912199	99
38
Properties=species:S:1:pos:R:3:Z:I:1 energy=-358.6520290437166 field_type=dipole dipole="0.000000 0.000000 0.000000" charge=0
O	-1.954196	-1.672297	0.827932	8
C	-0.851476	-1.582247	0.307152	6
N	-0.094367	-0.452317	0.274002	7
C	-0.517246	0.925352	0.540342	6
C	0.659274	1.366473	-0.354068	6
O	1.109023	2.430702	-0.723878	8
C	1.030904	-0.111097	-0.594398	6
H	-0.365057	-2.433078	-0.197838	1
H	-0.422147	1.210412	1.589422	1
H	-1.503646	1.171872	0.143292	1
H	0.910963	-0.445448	-1.626488	1
H	1.997974	-0.408327	-0.185468	1
Es	1.108954	2.430314	-0.723812	99
Es	0.402666	-0.381483	-0.107467	99
Es	0.048434	1.227610	0.113232	99
Es	-0.094828	-0.452304	0.273340	99
Es	-2.108873	-1.961216	0.833965	99
Es	-0.428628	-0.933805	0.272143	99
Es	-1.684398	-1.571230	0.434187	99
Es	0.937362	2.590621	-0.593988	99
Es	0.659247	1.366387	-0.354055	99
Es	-0.448164	1.115876	1.224290	99
Es	-1.165286	1.090859	0.273247	99
Es	1.677165	-0.304950	-0.326198	99
Es	-0.851346	-1.582112	0.307146	99
Es	-0.505307	-2.154164	-0.041026	99
Es	-1.479571	-1.691943	0.857911	99
Es	0.948429	-0.328127	-1.276522	99
Es	1.368451	2.463208	-0.912298	99
Es	-0.091697	-0.571123	0.380461	99
Es	0.913830	0.636468	-0.529790	99
Es	-1.991857	-1.411752	0.924966	99
Es	0.790382	2.033640	-0.792642	99
Es	-0.332271	0.106575	0.416800	99
Es	1.030750	-0.111117	-0.594291	99
Es	1.096250	2.050502	-0.394007	99
Es	-1.953888	-1.672287	0.827780	99
Es	-0.517154	0.925193	0.540281	99
38
Properties=species:S:1:pos:R:3:Z:I:1 energy=-358.6520290437166 field_type=dipole dipole="0.000000 0.000000 0.000000" charge=0
O	-1.954196	-1.672297	0.827932	8
C	-0.851476	-1.582247	0.307152	6
N	-0.094367	-0.452317	0.274002	7
C	-0.517246	0.925352	0.540342	6
C	0.659274	1.366473	-0.354068	6
O	1.109023	2.430702	-0.723878	8
C	1.030904	-0.111097	-0.594398	6
H	-0.365057	-2.433078	-0.197838	1
H	-0.422147	1.210412	1.589422	1
H	-1.503646	1.171872	0.143292	1
H	0.910963	-0.445448	-1.626488	1
H	1.997974	-0.408327	-0.185468	1
Es	-0.517153	0.925189	0.540278	99
Es	1.368184	2.468284	-0.911640	99
Es	0.948429	-0.328094	-1.276125	99
Es	0.048490	1.227756	0.113306	99
Es	0.403297	-0.381598	-0.106690	99
Es	-0.851351	-1.582113	0.307143	99
Es	-0.332109	0.106526	0.417079	99
Es	0.659247	1.366386	-0.354054	99
Es	-0.094725	-0.452267	0.273452	99
Es	-1.483071	-1.693024	0.858988	99
Es	1.108931	2.430349	-0.723801	99
Es	0.791364	2.031813	-0.792645	99
Es	-0.448062	1.115665	1.223753	99
Es	-1.680377	-1.571461	0.433673	99
Es	-1.165537	1.090949	0.273545	99
Es	0.936158	2.586455	-0.593656	99
Es	-1.953855	-1.672314	0.827753	99
Es	-2.111257	-1.959913	0.834753	99
Es	1.096879	2.051370	-0.394866	99
Es	-0.093845	-0.570249	0.376659	99
Es	-0.427439	-0.934551	0.274787	99
Es	-1.989989	-1.411757	0.923675	99
Es	0.913783	0.636620	-0.530065	99
Es	-0.505281	-2.154171	-0.041027	99
Es	1.030753	-0.111116	-0.594291	99
Es	1.677187	-0.305094	-0.326331	99
38
Properties=species:S:1:pos:R:3:Z:I:1 energy=-358.6520290437166 field_type=dipole dipole="0.000000 0.000000 0.000000" charge=0
O	-1.954196	-1.672297	0.827932	8
C	-0.851476	-1.582247	0.307152	6
N	-0.094367	-0.452317	0.274002	7
C	-0.517246	0.925352	0.540342	6
C	0.659274	1.366473	-0.354068	6
O	1.109023	2.430702	-0.723878	8
C	1.030904	-0.111097	-0.594398	6
H	-0.365057	-2.433078	-0.197838	1
H	-0.422147	1.210412	1.589422	1
H	-1.503646	1.171872	0.143292	1
H	0.910963	-0.445448	-1.626488	1
H	1.997974	-0.408327	-0.185468	1
Es	1.368792	2.469341	-0.911091	99
Es	-1.990514	-1.413098	0.924766	99
Es	-0.094606	-0.452244	0.273594	99
Es	1.096124	2.052105	-0.394490	99
Es	0.792166	2.031237	-0.792542	99
Es	-1.165628	1.090991	0.273852	99
Es	0.048488	1.227920	0.113361	99
Es	-0.447978	1.115464	1.223445	99
Es	-0.505359	-2.154109	-0.041033	99
Es	-0.851345	-1.582112	0.307145	99
Es	0.935608	2.585202	-0.594584	99
Es	1.108921	2.430373	-0.723792	99
Es	-1.953898	-1.672277	0.827788	99
Es	-0.096426	-0.569238	0.371860	99
Es	1.030752	-0.111116	-0.594290	99
Es	0.403738	-0.381731	-0.106161	99
Es	-0.425781	-0.935564	0.278266	99
Es	-0.331711	0.106453	0.417575	99
Es	-1.680681	-1.569270	0.434693	99
Es	0.659247	1.366386	-0.354055	99
Es	1.677208	-0.305185	-0.326515	99
Es	0.913747	0.636698	-0.530244	99
Es	-2.110729	-1.960969	0.832665	99
Es	0.948402	-0.327939	-1.275846	99
Es	-0.517153	0.925190	0.540278	99
Es	-1.482730	-1.692866	0.859008	99
38
Properties=species:S:1:pos:R:3:Z:I:1 energy=-358.6520290437166 field_type=dipole dipole="0.000000 0.000000 0.000000" charge=0
O	-1.954196	-1.672297	0.827932	8
C	-0.851476	-1.582247	0.307152	6
N	-0.094367	-0.452317	0.274002	7
C	-0.517246	0.925352	0.540342	6
C	0.659274	1.366473	-0.354068	6
O	1.109023	2.430702	-0.723878	8
C	1.030904	-0.111097	-0.594398	6
H	-0.365057	-2.433078	-0.197838	1
H	-0.422147	1.210412	1.589422	1
H	-1.503646	1.171872	0.143292	1
H	0.910963	-0.445448	-1.626488	1
H	1.997974	-0.408327	-0.185468	1
Es	-1.953871	-1.672305	0.827764	99
Es	0.936718	2.585009	-0.593523	99
Es	-0.851346	-1.582113	0.307145	99
Es	1.368822	2.469273	-0.911215	99
Es	1.108928	2.430366	-0.723796	99
Es	0.913889	0.636909	-0.530246	99
Es	0.790932	2.032153	-0.792544	99
Es	-1.481246	-1.692309	0.857752	99
Es	0.048564	1.228098	0.113346	99
Es	-1.165466	1.090890	0.273914	99
Es	-0.448197	1.115452	1.223073	99
Es	0.948422	-0.327800	-1.275514	99
Es	0.659247	1.366385	-0.354052	99
Es	-2.112302	-1.959647	0.836721	99
Es	1.096251	2.051468	-0.395357	99
Es	-0.331309	0.106395	0.418619	99
Es	-0.094677	-0.452256	0.273506	99
Es	-0.505389	-2.154093	-0.041009	99
Es	0.404240	-0.381942	-0.105523	99
Es	-0.098312	-0.568634	0.368438	99
Es	-0.424752	-0.936147	0.280281	99
Es	-1.988175	-1.412746	0.922776	99
Es	-1.682942	-1.571510	0.433905	99
Es	-0.517154	0.925192	0.540279	99
Es	1.677021	-0.305329	-0.326795	99
Es	1.030753	-0.111115	-0.594291	99
38
Properties=species:S:1:pos:R:3:Z:I:1 energy=-358.6520290437166 field_type=dipole dipole="0.000000 0.000000 0.000000" charge=0
O	-1.954196	-1.672297	0.827932	8
C	-0.851476	-1.582247	0.307152	6
N	-0.094367	-0.452317	0.274002	7
C	-0.517246	0.925352	0.540342	6
C	0.659274	1.366473	-0.354068	6
O	1.109023	2.430702	-0.723878	8
C	1.030904	-0.111097	-0.594398	6
H	-0.365057	-2.433078	-0.197838	1
H	-0.422147	1.210412	1.589422	1
H	-1.503646	1.171872	0.143292	1
H	0.910963	-0.445448	-1.626488	1
H	1.997974	-0.408327	-0.185468	1
Es	0.937194	2.583002	-0.593531	99
Es	-0.448036	1.115299	1.222630	99
Es	1.108929	2.430338	-0.723796	99
Es	0.790521	2.031973	-0.792078	99
Es	-1.953892	-1.672287	0.827787	99
Es	1.676899	-0.305318	-0.326774	99
Es	-0.094568	-0.452241	0.273644	99
Es	-1.482239	-1.692691	0.857552	99
Es	-0.331277	0.106142	0.418834	99
Es	-0.505338	-2.154092	-0.040913	99
Es	-1.988251	-1.412904	0.923682	99
Es	0.659246	1.366386	-0.354055	99
Es	-2.112195	-1.960192	0.835400	99
Es	-0.517155	0.925195	0.540279	99
Es	-0.099084	-0.568301	0.366904	99
Es	0.948569	-0.327849	-1.275295	99
Es	1.030753	-0.111116	-0.594290	99
Es	-1.165655	1.090988	0.274224	99
Es	-0.424063	-0.936483	0.281756	99
Es	-0.851345	-1.582115	0.307143	99
Es	0.913941	0.636974	-0.530426	99
Es	0.404087	-0.381798	-0.105863	99
Es	1.369012	2.470996	-0.911111	99
Es	1.096037	2.051948	-0.395873	99
Es	0.048569	1.228228	0.113404	99
Es	-1.682006	-1.570442	0.434419	99
38
Properties=species:S:1:pos:R:3:Z:I:1 energy=-358.6520290437166 field_type=dipole dipole="0.000000 0.000000 0.000000" charge=0
O	-1.954196	-1.672297	0.827932	8
C	-0.851476	-1.582247	0.307152	6
N	-0.094367	-0.452317	0.274002	7
C	-0.517246	0.925352	0.540342	6
C	0.659274	1.366473	-0.354068	6
O	1.109023	2.430702	-0.723878	8
C	1.030904	-0.111097	-0.594398	6
H	-0.365057	-2.433078	-0.197838	1
H	-0.422147	1.210412	1.589422	1
H	-1.503646	1.171872	0.143292	1
H	0.910963	-0.445448	-1.626488	1
H	1.997974	-0.408327	-0.185468	1
Es	0.659249	1.366386	-0.354053	99
Es	1.030750	-0.111117	-0.594289	99
Es	0.936296	2.581842	-0.592631	99
Es	-1.483599	-1.692308	0.858220	99
Es	0.913932	0.637015	-0.530501	99
Es	1.676958	-0.305429	-0.326895	99
Es	1.368617	2.473110	-0.910696	99
Es	-0.423537	-0.936790	0.282935	99
Es	0.948511	-0.327737	-1.275122	99
Es	-0.100373	-0.567881	0.364601	99
Es	1.096507	2.051226	-0.396531	99
Es	1.108965	2.430284	-0.723822	99
Es	-0.094806	-0.452292	0.273358	99
Es	-0.517152	0.925188	0.540280	99
Es	-1.987336	-1.413434	0.922147	99
Es	-0.331002	0.105983	0.419421	99
Es	0.404687	-0.381783	-0.105070	99
Es	-0.851345	-1.582112	0.307146	99
Es	-1.165711	1.091074	0.274622	99
Es	-1.680459	-1.570752	0.434185	99
Es	-1.953879	-1.672303	0.827772	99
Es	-0.505346	-2.154099	-0.040923	99
Es	-2.113305	-1.959701	0.836549	99
Es	0.048556	1.228359	0.113368	99
Es	0.791366	2.031769	-0.792690	99
Es	-0.447890	1.115143	1.222273	99
38
Properties=species:S:1:pos:R:3:Z:I:1 energy=-358.6520290437166 field_type=dipole dipole="0.000000 0.000000 0.000000" charge=0
O	-1.954196	-1.672297	0.827932	8
C	-0.851476	-1.582247	0.307152	6
N	-0.094367	-0.452317	0.274002	7
C	-0.517246	0.925352	0.540342	6
C	0.659274	1.366473	-0.354068	6
O	1.109023	2.430702	-0.723878	8
C	1.030904	-0.111097	-0.594398	6
H	-0.365057	-2.433078	-0.197838	1
H	-0.422147	1.210412	1.589422	1
H	-1.503646	1.171872	0.143292	1
H	0.910963	-0.445448	-1.626488	1
H	1.997974	-0.408327	-0.185468	1
Es	-1.986934	-1.415748	0.924318	99
Es	0.404773	-0.382035	-0.104793	99
Es	1.096295	2.053615	-0.396896	99
Es	0.937487	2.583210	-0.593465	99
Es	-0.505376	-2.154104	-0.040921	99
Es	-0.422718	-0.937239	0.284214	99
Es	0.048689	1.228379	0.113514	99
Es	-1.953856	-1.672358	0.827741	99
Es	-1.678619	-1.566988	0.433775	99
Es	-0.517152	0.925189	0.540278	99
Es	-1.485933	-1.693431	0.858366	99
Es	-2.113238	-1.959962	0.834669	99
Es	-0.101220	-0.567497	0.363114	99
Es	1.030748	-0.111117	-0.594290	99
Es	0.948574	-0.327712	-1.274724	99
Es	1.677067	-0.305419	-0.326913	99
Es	0.913756	0.637063	-0.530866	99
Es	-0.447964	1.115041	1.221999	99
Es	-0.094802	-0.452285	0.273357	99
Es	-0.331065	0.106186	0.419365	99
Es	-1.165794	1.091146	0.274578	99
Es	1.108930	2.430376	-0.723798	99
Es	1.369177	2.470457	-0.911353	99
Es	-0.851347	-1.582111	0.307142	99
Es	0.789928	2.030597	-0.790704	99
Es	0.659245	1.366387	-0.354056	99
38
Properties=species:S:1:pos:R:3:Z:I:1 energy=-358.6520290437166 field_type=dipole dipole="0.000000 0.000000 0.000000" charge=0
O	-1.954196	-1.672297	0.827932	8
C	-0.851476	-1.582247	0.307152	6
N	-0.094367	-0.452317	0.274002	7
C	-0.517246	0.925352	0.540342	6
C	0.659274	1.366473	-0.354068	6
O	1.109023	2.430702	-0.723878	8
C	1.030904	-0.111097	-0.594398	6
H	-0.365057	-2.433078	-0.197838	1
H	-0.422147	1.210412	1.589422	1
H	-1.503646	1.171872	0.143292	1
H	0.910963	-0.445448	-1.626488	1
H	1.997974	-0.408327	-0.185468	1
Es	-0.094438	-0.452246	0.273828	99
Es	-0.331075	0.106087	0.419406	99
Es	-1.953874	-1.672312	0.827765	99
Es	1.108932	2.430351	-0.723797	99
Es	0.948506	-0.327627	-1.274611	99
Es	1.368742	2.475220	-0.910907	99
Es	-0.447827	1.114840	1.221537	99
Es	0.048693	1.228592	0.113524	99
Es	1.676996	-0.305580	-0.327103	99
Es	1.030751	-0.111116	-0.594289	99
Es	-1.484939	-1.692631	0.857549	99
Es	-0.517153	0.925189	0.540278	99
Es	-1.165943	1.091125	0.275052	99
Es	0.937635	2.578624	-0.593968	99
Es	-1.987648	-1.413087	0.923503	99
Es	0.659243	1.366385	-0.354058	99
Es	-0.101387	-0.567580	0.362885	99
Es	-0.851346	-1.582112	0.307144	99
Es	0.913913	0.637126	-0.530866	99
Es	1.096373	2.053638	-0.396633	99
Es	-0.422792	-0.937184	0.284232	99
Es	-1.679507	-1.569914	0.434584	99
Es	-0.505366	-2.154157	-0.040993	99
Es	0.790135	2.030414	-0.790927	99
Es	0.404615	-0.381929	-0.105060	99
Es	-2.112586	-1.960475	0.835579	99
