42
Properties=species:S:1:pos:R:3:Z:I:1 energy=-339.9776260781187 field_type=dipole dipole="0.000000 0.000000 0.000000" charge=0
O	-1.423666	-2.898073	0.876271	8
C	-1.921716	-1.823793	0.571221	6
N	-1.231446	-0.689163	0.247241	7
C	0.205524	-0.689773	0.108211	6
C	0.711464	0.712007	0.254151	6
C	1.671264	1.295267	-0.748739	6
N	0.279194	1.739037	-0.701359	7
H	-3.011186	-1.666283	0.533591	1
H	-1.729226	0.093297	-0.159719	1
H	0.438284	-1.110243	-0.876569	1
H	0.652934	-1.340633	0.866991	1
H	0.778114	1.021927	1.290441	1
H	1.950984	0.707167	-1.614019	1
H	2.418664	1.997387	-0.401949	1
H	0.210804	2.651867	-0.245769	1
Es	-1.585313	-2.464249	1.011556	99
Es	-1.423770	-2.897801	0.876209	99
Es	1.360207	0.867495	-0.165506	99
Es	0.050092	1.646958	-0.964731	99
Es	-1.360332	-0.773512	0.577595	99
Es	0.506363	-1.112063	0.621772	99
Es	0.449978	0.018328	0.165255	99
Es	1.860896	0.895270	-1.333609	99
Es	-1.231455	-0.689288	0.247093	99
Es	-2.668827	-1.704775	0.540898	99
Es	0.279603	1.739096	-0.700911	99
Es	-1.637070	-3.108006	0.945110	99
Es	-1.526982	-0.235835	-0.002696	99
Es	1.671016	1.295316	-0.748675	99
Es	2.178636	1.775116	-0.512553	99
Es	0.253725	2.279863	-0.412877	99
Es	0.205329	-0.689719	0.108234	99
Es	0.910229	1.646791	-0.816562	99
Es	-1.595122	-2.609330	0.534595	99
Es	-1.113273	-2.881576	0.865343	99
Es	-1.480999	-1.165500	0.186299	99
Es	-0.624788	-0.695473	0.180445	99
Es	0.370976	-0.968826	-0.565122	99
Es	-1.921652	-1.823638	0.571189	99
Es	0.711432	0.712157	0.253951	99
Es	0.759250	0.929756	0.958848	99
Es	0.335448	1.299773	-0.222613	99
42
Properties=species:S:1:pos:R:3:Z:I:1 energy=-339.9776260781187 field_type=dipole dipole="0.000000 0.000000 0.000000" charge=0
O	-1.423666	-2.898073	0.876271	8
C	-1.921716	-1.823793	0.571221	6
N	-1.231446	-0.689163	0.247241	7
C	0.205524	-0.689773	0.108211	6
C	0.711464	0.712007	0.254151	6
C	1.671264	1.295267	-0.748739	6
N	0.279194	1.739037	-0.701359	7
H	-3.011186	-1.666283	0.533591	1
H	-1.729226	0.093297	-0.159719	1
H	0.438284	-1.110243	-0.876569	1
H	0.652934	-1.340633	0.866991	1
H	0.778114	1.021927	1.290441	1
H	1.950984	0.707167	-1.614019	1
H	2.418664	1.997387	-0.401949	1
H	0.210804	2.651867	-0.245769	1
Es	0.507413	-1.114057	0.622289	99
Es	-1.231592	-0.689638	0.246764	99
Es	-1.498080	-1.185119	0.230002	99
Es	0.248570	2.283535	-0.417385	99
Es	-1.115780	-2.880905	0.864140	99
Es	0.759198	0.929401	0.956991	99
Es	0.059959	1.647496	-0.957458	99
Es	-1.921652	-1.823638	0.571186	99
Es	0.205329	-0.689718	0.108234	99
Es	-1.423797	-2.897789	0.876202	99
Es	0.369505	-0.967534	-0.563657	99
Es	0.450339	0.018004	0.164593	99
Es	-2.668827	-1.704492	0.541378	99
Es	1.861110	0.896701	-1.332879	99
Es	-1.640563	-3.110540	0.949212	99
Es	0.332028	1.295478	-0.221508	99
Es	-0.625867	-0.700479	0.173929	99
Es	1.671013	1.295315	-0.748674	99
Es	-1.338573	-0.750685	0.541071	99
Es	2.177012	1.774333	-0.514511	99
Es	-1.530138	-0.233780	-0.004460	99
Es	1.361425	0.865417	-0.161108	99
Es	-1.579637	-2.465629	1.009136	99
Es	-1.594442	-2.606155	0.534530	99
Es	0.908599	1.649559	-0.822534	99
Es	0.711432	0.712156	0.253953	99
Es	0.279613	1.739094	-0.700902	99
42
Properties=species:S:1:pos:R:3:Z:I:1 energy=-339.9776260781187 field_type=dipole dipole="0.000000 0.000000 0.000000" charge=0
O	-1.423666	-2.898073	0.876271	8
C	-1.921716	-1.823793	0.571221	6
N	-1.231446	-0.689163	0.247241	7
C	0.205524	-0.689773	0.108211	6
C	0.711464	0.712007	0.254151	6
C	1.671264	1.295267	-0.748739	6
N	0.279194	1.739037	-0.701359	7
H	-3.011186	-1.666283	0.533591	1
H	-1.729226	0.093297	-0.159719	1
H	0.438284	-1.110243	-0.876569	1
H	0.652934	-1.340633	0.866991	1
H	0.778114	1.021927	1.290441	1
H	1.950984	0.707167	-1.614019	1
H	2.418664	1.997387	-0.401949	1
H	0.210804	2.651867	-0.245769	1
Es	-1.423755	-2.897845	0.876207	99
Es	0.205331	-0.689719	0.108233	99
Es	-1.921652	-1.823640	0.571185	99
Es	1.861517	0.897244	-1.332705	99
Es	-1.632396	-3.119092	0.955880	99
Es	-1.581676	-2.465387	1.006127	99
Es	0.244921	2.285949	-0.420613	99
Es	0.279606	1.739090	-0.700901	99
Es	0.711431	0.712154	0.253952	99
Es	-0.626598	-0.703921	0.169499	99
Es	0.507951	-1.114983	0.622679	99
Es	0.907178	1.651209	-0.825707	99
Es	-2.668884	-1.704136	0.541842	99
Es	0.330302	1.293440	-0.221696	99
Es	0.759258	0.929107	0.956410	99
Es	-1.509064	-1.194019	0.268356	99
Es	0.450585	0.017916	0.164050	99
Es	-1.231483	-0.689450	0.246786	99
Es	-1.119883	-2.868816	0.862710	99
Es	0.066350	1.647414	-0.952032	99
Es	-1.596200	-2.609956	0.532306	99
Es	-1.324824	-0.740295	0.505666	99
Es	1.362232	0.864597	-0.158865	99
Es	2.175557	1.773154	-0.515403	99
Es	0.368884	-0.966853	-0.562953	99
Es	-1.532101	-0.232148	-0.003809	99
Es	1.671007	1.295315	-0.748670	99
42
Properties=species:S:1:pos:R:3:Z:I:1 energy=-339.9776260781187 field_type=dipole dipole="0.000000 0.000000 0.000000" charge=0
O	-1.423666	-2.898073	0.876271	8
C	-1.921716	-1.823793	0.571221	6
N	-1.231446	-0.689163	0.247241	7
C	0.205524	-0.689773	0.108211	6
C	0.711464	0.712007	0.254151	6
C	1.671264	1.295267	-0.748739	6
N	0.279194	1.739037	-0.701359	7
H	-3.011186	-1.666283	0.533591	1
H	-1.729226	0.093297	-0.159719	1
H	0.438284	-1.110243	-0.876569	1
H	0.652934	-1.340633	0.866991	1
H	0.778114	1.021927	1.290441	1
H	1.950984	0.707167	-1.614019	1
H	2.418664	1.997387	-0.401949	1
H	0.210804	2.651867	-0.245769	1
Es	-1.921652	-1.823640	0.571185	99
Es	1.861997	0.897533	-1.332656	99
Es	-1.121376	-2.866850	0.860145	99
Es	2.174356	1.772290	-0.515841	99
Es	-1.533079	-0.230790	-0.002835	99
Es	-1.317190	-0.737024	0.479797	99
Es	-1.598490	-2.608172	0.532247	99
Es	0.711427	0.712158	0.253954	99
Es	-1.514751	-1.196462	0.295460	99
Es	-2.668886	-1.703933	0.542129	99
Es	0.242079	2.287241	-0.422691	99
Es	0.205331	-0.689720	0.108234	99
Es	-1.580202	-2.467100	1.007933	99
Es	0.508239	-1.115592	0.622911	99
Es	0.279634	1.739094	-0.700878	99
Es	0.331118	1.292752	-0.221998	99
Es	-1.231483	-0.689415	0.246880	99
Es	1.362519	0.864121	-0.157310	99
Es	0.368488	-0.966400	-0.562666	99
Es	0.759359	0.929030	0.956067	99
Es	0.450709	0.017652	0.163842	99
Es	-0.627482	-0.706098	0.166708	99
Es	-1.629785	-3.121220	0.956756	99
Es	-1.423794	-2.897780	0.876190	99
Es	0.905994	1.652733	-0.828049	99
Es	1.671007	1.295317	-0.748674	99
Es	0.069511	1.646607	-0.948307	99
42
Properties=species:S:1:pos:R:3:Z:I:1 energy=-339.9776260781187 field_type=dipole dipole="0.000000 0.000000 0.000000" charge=0
O	-1.423666	-2.898073	0.876271	8
C	-1.921716	-1.823793	0.571221	6
N	-1.231446	-0.689163	0.247241	7
C	0.205524	-0.689773	0.108211	6
C	0.711464	0.712007	0.254151	6
C	1.671264	1.295267	-0.748739	6
N	0.279194	1.739037	-0.701359	7
H	-3.011186	-1.666283	0.533591	1
H	-1.729226	0.093297	-0.159719	1
H	0.438284	-1.110243	-0.876569	1
H	0.652934	-1.340633	0.866991	1
H	0.778114	1.021927	1.290441	1
H	1.950984	0.707167	-1.614019	1
H	2.418664	1.997387	-0.401949	1
H	0.210804	2.651867	-0.245769	1
Es	1.362829	0.863873	-0.156415	99
Es	-1.921651	-1.823639	0.571183	99
Es	1.671015	1.295316	-0.748674	99
Es	0.450669	0.017530	0.163628	99
Es	-1.624528	-3.126263	0.958228	99
Es	-1.517617	-1.196459	0.313360	99
Es	0.508490	-1.115927	0.623181	99
Es	-1.533730	-0.229464	-0.001154	99
Es	-2.668936	-1.703714	0.542418	99
Es	2.173347	1.771390	-0.516051	99
Es	0.759524	0.928917	0.955859	99
Es	0.072274	1.645749	-0.946025	99
Es	0.711433	0.712158	0.253951	99
Es	0.331384	1.292618	-0.222237	99
Es	0.368218	-0.966108	-0.562494	99
Es	-0.627653	-0.707161	0.165379	99
Es	-1.313373	-0.737243	0.461383	99
Es	-1.124589	-2.860043	0.861134	99
Es	0.239510	2.288313	-0.424666	99
Es	-1.583981	-2.464776	1.006516	99
Es	1.862446	0.897708	-1.332657	99
Es	0.905360	1.653775	-0.828704	99
Es	-1.596522	-2.612271	0.531114	99
Es	-1.231511	-0.689523	0.246728	99
Es	-1.423769	-2.897806	0.876197	99
Es	0.279626	1.739101	-0.700882	99
Es	0.205333	-0.689721	0.108233	99
42
Properties=species:S:1:pos:R:3:Z:I:1 energy=-339.9776260781187 field_type=dipole dipole="0.000000 0.000000 0.000000" charge=0
O	-1.423666	-2.898073	0.876271	8
C	-1.921716	-1.823793	0.571221	6
N	-1.231446	-0.689163	0.247241	7
C	0.205524	-0.689773	0.108211	6
C	0.711464	0.712007	0.254151	6
C	1.671264	1.295267	-0.748739	6
N	0.279194	1.739037	-0.701359	7
H	-3.011186	-1.666283	0.533591	1
H	-1.729226	0.093297	-0.159719	1
H	0.438284	-1.110243	-0.876569	1
H	0.652934	-1.340633	0.866991	1
H	0.778114	1.021927	1.290441	1
H	1.950984	0.707167	-1.614019	1
H	2.418664	1.997387	-0.401949	1
H	0.210804	2.651867	-0.245769	1
Es	0.331354	1.292157	-0.222536	99
Es	-1.231453	-0.689373	0.246883	99
Es	0.205331	-0.689719	0.108232	99
Es	-1.921652	-1.823638	0.571187	99
Es	0.368026	-0.965798	-0.562333	99
Es	-1.534131	-0.228193	0.000676	99
Es	-1.582019	-2.467491	1.009019	99
Es	-1.125179	-2.859031	0.858045	99
Es	-2.668912	-1.703654	0.542424	99
Es	0.711432	0.712158	0.253949	99
Es	-1.423828	-2.897790	0.876190	99
Es	0.904582	1.654256	-0.829065	99
Es	0.508548	-1.116348	0.623213	99
Es	-1.519422	-1.195634	0.326302	99
Es	-1.622384	-3.127572	0.958293	99
Es	1.671006	1.295313	-0.748677	99
Es	2.172741	1.770845	-0.516256	99
Es	1.362837	0.864040	-0.155722	99
Es	1.862659	0.897660	-1.332719	99
Es	-1.310505	-0.738197	0.448353	99
Es	0.238680	2.288984	-0.425507	99
Es	-1.599789	-2.609265	0.531737	99
Es	0.073804	1.645769	-0.944788	99
Es	0.279621	1.739093	-0.700896	99
Es	-0.628325	-0.708451	0.163242	99
Es	0.759633	0.928819	0.955770	99
Es	0.450941	0.017389	0.163520	99
42
Properties=species:S:1:pos:R:3:Z:I:1 energy=-339.9776260781187 field_type=dipole dipole="0.000000 0.000000 0.000000" charge=0
O	-1.423666	-2.898073	0.876271	8
C	-1.921716	-1.823793	0.571221	6
N	-1.231446	-0.689163	0.247241	7
C	0.205524	-0.689773	0.108211	6
C	0.711464	0.712007	0.254151	6
C	1.671264	1.295267	-0.748739	6
N	0.279194	1.739037	-0.701359	7
H	-3.011186	-1.666283	0.533591	1
H	-1.729226	0.093297	-0.159719	1
H	0.438284	-1.110243	-0.876569	1
H	0.652934	-1.340633	0.866991	1
H	0.778114	1.021927	1.290441	1
H	1.950984	0.707167	-1.614019	1
H	2.418664	1.997387	-0.401949	1
H	0.210804	2.651867	-0.245769	1
Es	1.671009	1.295317	-0.748671	99
Es	2.172201	1.770342	-0.516527	99
Es	-1.581157	-2.466792	1.009337	99
Es	-1.621791	-3.127468	0.959233	99
Es	-1.423824	-2.897764	0.876187	99
Es	0.237422	2.289676	-0.426720	99
Es	-1.308859	-0.738698	0.438850	99
Es	-1.534400	-0.227570	0.001417	99
Es	0.508635	-1.116566	0.623267	99
Es	1.362930	0.863920	-0.154903	99
Es	-1.600725	-2.609957	0.531794	99
Es	0.759697	0.928709	0.955606	99
Es	0.075244	1.645327	-0.943434	99
Es	-1.125625	-2.859202	0.856676	99
Es	0.903992	1.654719	-0.829507	99
Es	-2.668905	-1.703539	0.542573	99
Es	1.862795	0.897671	-1.332566	99
Es	-0.628401	-0.708959	0.162856	99
Es	-1.520278	-1.194587	0.335842	99
Es	0.367766	-0.965714	-0.562230	99
Es	-1.921651	-1.823639	0.571180	99
Es	0.451025	0.017322	0.163294	99
Es	0.279624	1.739094	-0.700896	99
Es	0.711428	0.712157	0.253947	99
Es	0.205329	-0.689719	0.108233	99
Es	-1.231754	-0.690019	0.246439	99
Es	0.331867	1.292271	-0.222740	99
42
Properties=species:S:1:pos:R:3:Z:I:1 energy=-339.9776260781187 field_type=dipole dipole="0.000000 0.000000 0.000000" charge=0
O	-1.423666	-2.898073	0.876271	8
C	-1.921716	-1.823793	0.571221	6
N	-1.231446	-0.689163	0.247241	7
C	0.205524	-0.689773	0.108211	6
C	0.711464	0.712007	0.254151	6
C	1.671264	1.295267	-0.748739	6
N	0.279194	1.739037	-0.701359	7
H	-3.011186	-1.666283	0.533591	1
H	-1.729226	0.093297	-0.159719	1
H	0.438284	-1.110243	-0.876569	1
H	0.652934	-1.340633	0.866991	1
H	0.778114	1.021927	1.290441	1
H	1.950984	0.707167	-1.614019	1
H	2.418664	1.997387	-0.401949	1
H	0.210804	2.651867	-0.245769	1
Es	-1.534534	-0.226718	0.002617	99
Es	0.236080	2.290039	-0.427670	99
Es	2.171715	1.769829	-0.516562	99
Es	0.332643	1.292066	-0.222829	99
Es	-1.584057	-2.465561	1.008783	99
Es	-1.423793	-2.897803	0.876201	99
Es	-1.521000	-1.193657	0.343108	99
Es	0.759855	0.928715	0.955599	99
Es	0.279644	1.739106	-0.700867	99
Es	1.863024	0.897689	-1.332557	99
Es	-1.308383	-0.740980	0.429749	99
Es	-1.921651	-1.823639	0.571186	99
Es	-1.231430	-0.689218	0.247168	99
Es	0.367637	-0.965607	-0.562151	99
Es	-1.621466	-3.128256	0.957670	99
Es	0.903366	1.655534	-0.829950	99
Es	1.362854	0.863966	-0.154606	99
Es	-0.628259	-0.709269	0.162646	99
Es	1.671012	1.295318	-0.748677	99
Es	0.508639	-1.116759	0.623398	99
Es	0.076385	1.644905	-0.942249	99
Es	0.205330	-0.689720	0.108233	99
Es	-1.126413	-2.858103	0.859982	99
Es	-1.597231	-2.611482	0.530524	99
Es	0.711427	0.712159	0.253950	99
Es	0.451119	0.017208	0.163178	99
Es	-2.668916	-1.703434	0.542661	99
42
Properties=species:S:1:pos:R:3:Z:I:1 energy=-339.9776260781187 field_type=dipole dipole="0.000000 0.000000 0.000000" charge=0
O	-1.423666	-2.898073	0.876271	8
C	-1.921716	-1.823793	0.571221	6
N	-1.231446	-0.689163	0.247241	7
C	0.205524	-0.689773	0.108211	6
C	0.711464	0.712007	0.254151	6
C	1.671264	1.295267	-0.748739	6
N	0.279194	1.739037	-0.701359	7
H	-3.011186	-1.666283	0.533591	1
H	-1.729226	0.093297	-0.159719	1
H	0.438284	-1.110243	-0.876569	1
H	0.652934	-1.340633	0.866991	1
H	0.778114	1.021927	1.290441	1
H	1.950984	0.707167	-1.614019	1
H	2.418664	1.997387	-0.401949	1
H	0.210804	2.651867	-0.245769	1
Es	0.076890	1.644664	-0.941528	99
Es	1.863075	0.897747	-1.332478	99
Es	0.451271	0.017131	0.163108	99
Es	0.367503	-0.965334	-0.561872	99
Es	0.332297	1.292428	-0.222608	99
Es	2.171382	1.769412	-0.516688	99
Es	-1.308039	-0.741274	0.427082	99
Es	1.363463	0.863993	-0.154436	99
Es	-0.628450	-0.709606	0.162376	99
Es	-1.521078	-1.192976	0.346050	99
Es	0.759827	0.928559	0.955298	99
Es	0.508937	-1.116953	0.623270	99
Es	-1.423766	-2.897817	0.876183	99
Es	0.205330	-0.689720	0.108233	99
Es	-1.534829	-0.226593	0.002882	99
Es	0.903478	1.655765	-0.830113	99
Es	0.235461	2.290174	-0.428257	99
Es	-1.131354	-2.847613	0.856474	99
Es	-1.921652	-1.823638	0.571186	99
Es	-1.611251	-3.135898	0.961506	99
Es	-2.668975	-1.703380	0.542771	99
Es	-1.599616	-2.615093	0.530899	99
Es	1.671012	1.295316	-0.748673	99
Es	-1.231469	-0.689418	0.246817	99
Es	-1.586856	-2.464760	1.008070	99
Es	0.711431	0.712158	0.253950	99
Es	0.279573	1.739057	-0.700968	99
42
Properties=species:S:1:pos:R:3:Z:I:1 energy=-339.9776260781187 field_type=dipole dipole="0.000000 0.000000 0.000000" charge=0
O	-1.423666	-2.898073	0.876271	8
C	-1.921716	-1.823793	0.571221	6
N	-1.231446	-0.689163	0.247241	7
C	0.205524	-0.689773	0.108211	6
C	0.711464	0.712007	0.254151	6
C	1.671264	1.295267	-0.748739	6
N	0.279194	1.739037	-0.701359	7
H	-3.011186	-1.666283	0.533591	1
H	-1.729226	0.093297	-0.159719	1
H	0.438284	-1.110243	-0.876569	1
H	0.652934	-1.340633	0.866991	1
H	0.778114	1.021927	1.290441	1
H	1.950984	0.707167	-1.614019	1
H	2.418664	1.997387	-0.401949	1
H	0.210804	2.651867	-0.245769	1
Es	0.508813	-1.117018	0.623408	99
Es	-1.423933	-2.897766	0.876186	99
Es	0.279640	1.739113	-0.700860	99
Es	-1.231582	-0.689669	0.246651	99
Es	0.760066	0.928593	0.955415	99
Es	-1.306740	-0.743005	0.417179	99
Es	-1.534819	-0.225489	0.004503	99
Es	-1.921651	-1.823638	0.571189	99
Es	0.205327	-0.689720	0.108232	99
Es	0.235115	2.290666	-0.428525	99
Es	0.711432	0.712159	0.253948	99
Es	0.367393	-0.965423	-0.561887	99
Es	1.863112	0.897597	-1.332430	99
Es	2.171163	1.769300	-0.516879	99
Es	0.077703	1.644731	-0.941221	99
Es	0.902505	1.656010	-0.830076	99
Es	-1.596971	-2.611178	0.530132	99
Es	-1.620347	-3.128947	0.956980	99
Es	1.362877	0.864127	-0.153835	99
Es	0.332992	1.291939	-0.223236	99
Es	-1.127313	-2.857683	0.859923	99
Es	-2.668908	-1.703350	0.542797	99
Es	-1.521768	-1.191635	0.355286	99
Es	1.671008	1.295317	-0.748673	99
Es	-1.584189	-2.465659	1.009853	99
Es	0.451397	0.017049	0.162897	99
Es	-0.628727	-0.710093	0.161578	99
42
Properties=species:S:1:pos:R:3:Z:I:1 energy=-339.9776260781187 field_type=dipole dipole="0.000000 0.000000 0.000000" charge=0
O	-1.423666	-2.898073	0.876271	8
C	-1.921716	-1.823793	0.571221	6
N	-1.231446	-0.689163	0.247241	7
C	0.205524	-0.689773	0.108211	6
C	0.711464	0.712007	0.254151	6
C	1.671264	1.295267	-0.748739	6
N	0.279194	1.739037	-0.701359	7
H	-3.011186	-1.666283	0.533591	1
H	-1.729226	0.093297	-0.159719	1
H	0.438284	-1.110243	-0.876569	1
H	0.652934	-1.340633	0.866991	1
H	0.778114	1.021927	1.290441	1
H	1.950984	0.707167	-1.614019	1
H	2.418664	1.997387	-0.401949	1
H	0.210804	2.651867	-0.245769	1
Es	0.234113	2.290912	-0.429728	99
Es	0.508821	-1.117174	0.623416	99
Es	-0.628672	-0.710174	0.161524	99
Es	-1.600380	-2.613688	0.531827	99
Es	0.332865	1.292289	-0.222979	99
Es	-1.521754	-1.191572	0.354965	99
Es	2.170826	1.768959	-0.516939	99
Es	-1.423814	-2.897765	0.876185	99
Es	1.863235	0.897650	-1.332387	99
Es	0.451446	0.017013	0.163023	99
Es	-1.306882	-0.743074	0.417419	99
Es	1.363220	0.864083	-0.153748	99
Es	0.078599	1.644319	-0.940282	99
Es	-1.231533	-0.689578	0.246662	99
Es	-1.129523	-2.849544	0.855796	99
Es	-1.613157	-3.134640	0.960550	99
Es	0.205332	-0.689720	0.108234	99
Es	-1.921652	-1.823638	0.571186	99
Es	-1.534845	-0.225501	0.004415	99
Es	0.367416	-0.965249	-0.561858	99
Es	-1.585798	-2.465560	1.008763	99
Es	0.760091	0.928551	0.955343	99
Es	1.671003	1.295320	-0.748669	99
Es	-2.668943	-1.703293	0.542860	99
Es	0.711430	0.712159	0.253949	99
Es	0.902514	1.656136	-0.830119	99
Es	0.279638	1.739105	-0.700872	99
42
Properties=species:S:1:pos:R:3:Z:I:1 energy=-339.9776260781187 field_type=dipole dipole="0.000000 0.000000 0.000000" charge=0
O	-1.423666	-2.898073	0.876271	8
C	-1.921716	-1.823793	0.571221	6
N	-1.231446	-0.689163	0.247241	7
C	0.205524	-0.689773	0.108211	6
C	0.711464	0.712007	0.254151	6
C	1.671264	1.295267	-0.748739	6
N	0.279194	1.739037	-0.701359	7
H	-3.011186	-1.666283	0.533591	1
H	-1.729226	0.093297	-0.159719	1
H	0.438284	-1.110243	-0.876569	1
H	0.652934	-1.340633	0.866991	1
H	0.778114	1.021927	1.290441	1
H	1.950984	0.707167	-1.614019	1
H	2.418664	1.997387	-0.401949	1
H	0.210804	2.651867	-0.245769	1
Es	2.170673	1.768742	-0.516841	99
Es	0.078711	1.644352	-0.940129	99
Es	-1.133119	-2.844846	0.857359	99
Es	0.279632	1.739102	-0.700880	99
Es	1.671006	1.295318	-0.748674	99
Es	0.760236	0.928473	0.955078	99
Es	-1.608183	-3.138404	0.959874	99
Es	0.508986	-1.117258	0.623359	99
Es	0.233981	2.290939	-0.429646	99
Es	-1.588873	-2.465339	1.009302	99
Es	1.363456	0.864005	-0.153883	99
Es	1.863359	0.897739	-1.332320	99
Es	0.367325	-0.965146	-0.561644	99
Es	-1.306663	-0.744308	0.412537	99
Es	-1.521936	-1.190593	0.359291	99
Es	-1.231422	-0.689232	0.247117	99
Es	-1.598478	-2.614825	0.530363	99
Es	0.451483	0.016948	0.163002	99
Es	-2.668982	-1.703254	0.542837	99
Es	-1.423918	-2.897766	0.876188	99
Es	-1.535050	-0.225282	0.004821	99
Es	0.902743	1.656083	-0.830167	99
Es	0.332334	1.292560	-0.223050	99
Es	-0.628812	-0.710485	0.161278	99
Es	-1.921652	-1.823638	0.571186	99
Es	0.205331	-0.689720	0.108233	99
Es	0.711426	0.712166	0.253943	99
42
Properties=species:S:1:pos:R:3:Z:I:1 energy=-339.9776260781187 field_type=dipole dipole="0.000000 0.000000 0.000000" charge=0
O	-1.423666	-2.898073	0.876271	8
C	-1.921716	-1.823793	0.571221	6
N	-1.231446	-0.689163	0.247241	7
C	0.205524	-0.689773	0.108211	6
C	0.711464	0.712007	0.254151	6
C	1.671264	1.295267	-0.748739	6
N	0.279194	1.739037	-0.701359	7
H	-3.011186	-1.666283	0.533591	1
H	-1.729226	0.093297	-0.159719	1
H	0.438284	-1.110243	-0.876569	1
H	0.652934	-1.340633	0.866991	1
H	0.778114	1.021927	1.290441	1
H	1.950984	0.707167	-1.614019	1
H	2.418664	1.997387	-0.401949	1
H	0.210804	2.651867	-0.245769	1
Es	-1.598243	-2.612776	0.529916	99
Es	1.863405	0.897615	-1.332311	99
Es	-1.231521	-0.689562	0.246675	99
Es	0.233215	2.291297	-0.430211	99
Es	0.760153	0.928514	0.955103	99
Es	0.079747	1.644303	-0.939572	99
Es	-1.306352	-0.745161	0.408742	99
Es	-1.613321	-3.134087	0.958113	99
Es	-1.130402	-2.850646	0.858384	99
Es	0.451545	0.016969	0.162847	99
Es	2.170397	1.768592	-0.517044	99
Es	1.671006	1.295314	-0.748672	99
Es	-1.535021	-0.224652	0.005758	99
Es	-1.586752	-2.465941	1.010465	99
Es	0.509012	-1.117360	0.623308	99
Es	-0.628810	-0.710492	0.161400	99
Es	0.205330	-0.689720	0.108233	99
Es	0.902019	1.656498	-0.830065	99
Es	0.367152	-0.965127	-0.561605	99
Es	-2.668923	-1.703239	0.542888	99
Es	-1.423843	-2.897769	0.876187	99
Es	-1.522008	-1.190132	0.362507	99
Es	1.363278	0.864140	-0.153223	99
Es	0.279626	1.739100	-0.700878	99
Es	0.333131	1.292132	-0.223550	99
Es	0.711426	0.712156	0.253950	99
Es	-1.921651	-1.823637	0.571189	99
42
Properties=species:S:1:pos:R:3:Z:I:1 energy=-339.9776260781187 field_type=dipole dipole="0.000000 0.000000 0.000000" charge=0
O	-1.423666	-2.898073	0.876271	8
C	-1.921716	-1.823793	0.571221	6
N	-1.231446	-0.689163	0.247241	7
C	0.205524	-0.689773	0.108211	6
C	0.711464	0.712007	0.254151	6
C	1.671264	1.295267	-0.748739	6
N	0.279194	1.739037	-0.701359	7
H	-3.011186	-1.666283	0.533591	1
H	-1.729226	0.093297	-0.159719	1
H	0.438284	-1.110243	-0.876569	1
H	0.652934	-1.340633	0.866991	1
H	0.778114	1.021927	1.290441	1
H	1.950984	0.707167	-1.614019	1
H	2.418664	1.997387	-0.401949	1
H	0.210804	2.651867	-0.245769	1
Es	0.232581	2.291297	-0.430830	99
Es	0.332703	1.292156	-0.223207	99
Es	-2.668965	-1.703230	0.542930	99
Es	0.760188	0.928432	0.954996	99
Es	-1.423859	-2.897764	0.876187	99
Es	-1.231513	-0.689579	0.246672	99
Es	-1.584675	-2.467461	1.010707	99
Es	1.671006	1.295328	-0.748664	99
Es	0.711437	0.712159	0.253949	99
Es	0.205330	-0.689720	0.108234	99
Es	1.863473	0.897840	-1.332285	99
Es	-1.306418	-0.744614	0.411813	99
Es	0.367138	-0.964820	-0.561433	99
Es	0.451612	0.016892	0.162893	99
Es	1.363550	0.864060	-0.153453	99
Es	-1.132869	-2.846129	0.853518	99
Es	2.170217	1.768296	-0.516968	99
Es	0.902202	1.656728	-0.830400	99
Es	-1.602759	-2.612122	0.531157	99
Es	-1.521956	-1.190403	0.359456	99
Es	-1.921651	-1.823638	0.571185	99
Es	-1.535073	-0.224524	0.006048	99
Es	-0.628864	-0.710875	0.160894	99
Es	-1.608338	-3.137705	0.961533	99
Es	0.080323	1.644210	-0.938780	99
Es	0.509154	-1.117583	0.623262	99
Es	0.279623	1.739098	-0.700880	99
42
Properties=species:S:1:pos:R:3:Z:I:1 energy=-339.9776260781187 field_type=dipole dipole="0.000000 0.000000 0.000000" charge=0
O	-1.423666	-2.898073	0.876271	8
C	-1.921716	-1.823793	0.571221	6
N	-1.231446	-0.689163	0.247241	7
C	0.205524	-0.689773	0.108211	6
C	0.711464	0.712007	0.254151	6
C	1.671264	1.295267	-0.748739	6
N	0.279194	1.739037	-0.701359	7
H	-3.011186	-1.666283	0.533591	1
H	-1.729226	0.093297	-0.159719	1
H	0.438284	-1.110243	-0.876569	1
H	0.652934	-1.340633	0.866991	1
H	0.778114	1.021927	1.290441	1
H	1.950984	0.707167	-1.614019	1
H	2.418664	1.997387	-0.401949	1
H	0.210804	2.651867	-0.245769	1
Es	2.170011	1.768167	-0.517059	99
Es	-1.614825	-3.132562	0.959944	99
Es	1.863513	0.897759	-1.332387	99
Es	-1.306066	-0.745792	0.406682	99
Es	-1.584136	-2.465379	1.010063	99
Es	0.760437	0.928383	0.954909	99
Es	0.205330	-0.689720	0.108234	99
Es	-0.628950	-0.710778	0.160916	99
Es	0.711431	0.712158	0.253949	99
Es	-2.668931	-1.703227	0.542890	99
Es	1.671006	1.295315	-0.748672	99
Es	-1.921651	-1.823638	0.571186	99
Es	-1.535001	-0.224099	0.006556	99
Es	1.362964	0.864085	-0.152890	99
Es	-1.231502	-0.689518	0.246710	99
Es	0.366962	-0.964828	-0.561525	99
Es	-1.423876	-2.897770	0.876189	99
Es	0.451621	0.016816	0.162850	99
Es	0.334027	1.292119	-0.223248	99
Es	-1.129249	-2.852598	0.855715	99
Es	-1.522030	-1.189771	0.364121	99
Es	0.080377	1.643991	-0.938498	99
Es	0.232350	2.291499	-0.431030	99
Es	0.901468	1.657258	-0.830641	99
Es	0.279632	1.739100	-0.700877	99
Es	0.509069	-1.117740	0.623276	99
Es	-1.600381	-2.612902	0.531173	99
42
Properties=species:S:1:pos:R:3:Z:I:1 energy=-339.9776260781187 field_type=dipole dipole="0.000000 0.000000 0.000000" charge=0
O	-1.423666	-2.898073	0.876271	8
C	-1.921716	-1.823793	0.571221	6
N	-1.231446	-0.689163	0.247241	7
C	0.205524	-0.689773	0.108211	6
C	0.711464	0.712007	0.254151	6
C	1.671264	1.295267	-0.748739	6
N	0.279194	1.739037	-0.701359	7
H	-3.011186	-1.666283	0.533591	1
H	-1.729226	0.093297	-0.159719	1
H	0.438284	-1.110243	-0.876569	1
H	0.652934	-1.340633	0.866991	1
H	0.778114	1.021927	1.290441	1
H	1.950984	0.707167	-1.614019	1
H	2.418664	1.997387	-0.401949	1
H	0.210804	2.651867	-0.245769	1
Es	-1.231442	-0.689326	0.246958	99
Es	0.509046	-1.117780	0.623247	99
Es	-1.612479	-3.134522	0.959509	99
Es	0.232095	2.291524	-0.431256	99
Es	-1.423826	-2.897777	0.876190	99
Es	2.169844	1.768023	-0.517055	99
Es	0.367003	-0.964788	-0.561446	99
Es	-1.600661	-2.612082	0.530901	99
Es	1.863642	0.897724	-1.332298	99
Es	-1.921652	-1.823638	0.571186	99
Es	-0.628951	-0.710632	0.161036	99
Es	-1.306230	-0.746741	0.404371	99
Es	-1.585139	-2.466764	1.010627	99
Es	1.363189	0.864124	-0.152926	99
Es	0.711432	0.712158	0.253952	99
Es	0.080543	1.643957	-0.937771	99
Es	0.760359	0.928416	0.955018	99
Es	-1.534986	-0.223650	0.007307	99
Es	-1.130279	-2.850035	0.855885	99
Es	0.334451	1.291976	-0.223279	99
Es	0.205329	-0.689720	0.108230	99
Es	0.279630	1.739095	-0.700889	99
Es	1.671004	1.295316	-0.748671	99
Es	0.451690	0.016850	0.162834	99
Es	-1.522045	-1.189649	0.365188	99
Es	-2.668958	-1.703198	0.542935	99
Es	0.900986	1.657469	-0.831247	99
