35
Properties=species:S:1:pos:R:3:Z:I:1 energy=-357.37535544583045 field_type=dipole dipole="0.000000 0.000000 0.000000" charge=0
O	-2.640136	0.588987	1.193904	8
C	-2.195556	1.294557	0.301334	6
O	-1.007236	1.186067	-0.369326	8
N	-0.280766	0.079987	0.110314	7
C	0.828704	0.001507	-0.530866	6
C	1.634314	-1.105413	-0.102716	6
C	2.311354	-2.031543	0.252844	6
H	-2.729186	2.167377	-0.106026	1
H	1.177604	0.675717	-1.327816	1
H	2.900904	-2.857243	0.578354	1
Es	-2.460775	0.362196	1.273785	99
Es	-2.640014	0.589194	1.193647	99
Es	-0.702520	0.716100	-0.162557	99
Es	-2.545779	1.885664	0.018247	99
Es	-0.280526	0.080405	0.109807	99
Es	-0.430583	-0.116920	0.373971	99
Es	2.311477	-2.031717	0.252911	99
Es	1.690390	-1.701411	0.238774	99
Es	-2.909400	0.704783	1.266707	99
Es	2.694764	-2.565766	0.462558	99
Es	-2.587299	0.684485	0.704980	99
Es	-2.364952	0.982898	1.051733	99
Es	2.168236	-1.317848	0.233945	99
Es	-0.872954	1.430367	-0.287881	99
Es	1.250824	-0.561089	-0.321931	99
Es	-1.101218	1.126694	-0.636764	99
Es	0.092773	-0.122007	-0.374374	99
Es	-1.007380	1.185845	-0.369047	99
Es	1.059731	0.441299	-1.053065	99
Es	1.634160	-1.105196	-0.102807	99
Es	0.828776	0.001391	-0.530857	99
Es	0.343051	0.212255	0.017843	99
Es	-1.445064	1.193199	-0.092668	99
Es	-2.195298	1.294516	0.301205	99
Es	2.032651	-1.634028	-0.273815	99
35
Properties=species:S:1:pos:R:3:Z:I:1 energy=-357.37535544583045 field_type=dipole dipole="0.000000 0.000000 0.000000" charge=0
O	-2.640136	0.588987	1.193904	8
C	-2.195556	1.294557	0.301334	6
O	-1.007236	1.186067	-0.369326	8
N	-0.280766	0.079987	0.110314	7
C	0.828704	0.001507	-0.530866	6
C	1.634314	-1.105413	-0.102716	6
C	2.311354	-2.031543	0.252844	6
H	-2.729186	2.167377	-0.106026	1
H	1.177604	0.675717	-1.327816	1
H	2.900904	-2.857243	0.578354	1
Es	0.828793	0.001407	-0.530839	99
Es	1.249799	-0.562424	-0.320292	99
Es	-0.693792	0.717674	-0.161737	99
Es	-2.444999	0.354116	1.273593	99
Es	-2.640011	0.589166	1.193669	99
Es	-0.866544	1.423693	-0.529225	99
Es	1.634146	-1.105176	-0.102813	99
Es	0.340707	0.210488	0.012858	99
Es	-1.442986	1.222825	-0.076725	99
Es	2.311485	-2.031722	0.252914	99
Es	-1.119268	1.102984	-0.411521	99
Es	1.712159	-1.755584	-0.027174	99
Es	-0.280530	0.080421	0.109793	99
Es	-2.581794	0.695396	0.718237	99
Es	0.095300	-0.117694	-0.371832	99
Es	1.057688	0.441315	-1.052462	99
Es	-2.377461	0.970159	1.039517	99
Es	-2.195292	1.294521	0.301204	99
Es	-1.007917	1.185267	-0.369292	99
Es	2.697407	-2.566449	0.461489	99
Es	-2.917484	0.714997	1.265591	99
Es	-0.428461	-0.118359	0.374761	99
Es	-2.546723	1.886247	0.018153	99
Es	2.236255	-1.465891	-0.163179	99
Es	1.942596	-1.432071	0.389658	99
35
Properties=species:S:1:pos:R:3:Z:I:1 energy=-357.37535544583045 field_type=dipole dipole="0.000000 0.000000 0.000000" charge=0
O	-2.640136	0.588987	1.193904	8
C	-2.195556	1.294557	0.301334	6
O	-1.007236	1.186067	-0.369326	8
N	-0.280766	0.079987	0.110314	7
C	0.828704	0.001507	-0.530866	6
C	1.634314	-1.105413	-0.102716	6
C	2.311354	-2.031543	0.252844	6
H	-2.729186	2.167377	-0.106026	1
H	1.177604	0.675717	-1.327816	1
H	2.900904	-2.857243	0.578354	1
Es	-0.280538	0.080429	0.109792	99
Es	-2.640008	0.589169	1.193668	99
Es	1.249654	-0.562710	-0.318849	99
Es	2.311494	-2.031722	0.252903	99
Es	-2.576434	0.703063	0.732622	99
Es	1.857832	-1.504980	0.402124	99
Es	0.095562	-0.117013	-0.371072	99
Es	1.056940	0.441490	-1.051068	99
Es	-0.695588	0.713884	-0.166354	99
Es	-2.195293	1.294516	0.301196	99
Es	-2.923165	0.722191	1.258645	99
Es	-2.547075	1.886694	0.018509	99
Es	-0.893982	1.386885	-0.590895	99
Es	0.828785	0.001401	-0.530843	99
Es	0.340352	0.209867	0.012079	99
Es	1.634145	-1.105167	-0.102800	99
Es	2.698793	-2.566877	0.459455	99
Es	2.260907	-1.423963	-0.107263	99
Es	-2.438194	0.347474	1.270004	99
Es	-1.007371	1.185796	-0.368981	99
Es	-1.074904	1.155730	-0.324213	99
Es	-1.459358	1.210159	-0.097167	99
Es	-2.383858	0.961997	1.034806	99
Es	-0.427561	-0.118375	0.373142	99
Es	1.771939	-1.724629	-0.095095	99
35
Properties=species:S:1:pos:R:3:Z:I:1 energy=-357.37535544583045 field_type=dipole dipole="0.000000 0.000000 0.000000" charge=0
O	-2.640136	0.588987	1.193904	8
C	-2.195556	1.294557	0.301334	6
O	-1.007236	1.186067	-0.369326	8
N	-0.280766	0.079987	0.110314	7
C	0.828704	0.001507	-0.530866	6
C	1.634314	-1.105413	-0.102716	6
C	2.311354	-2.031543	0.252844	6
H	-2.729186	2.167377	-0.106026	1
H	1.177604	0.675717	-1.327816	1
H	2.900904	-2.857243	0.578354	1
Es	0.828795	0.001407	-0.530842	99
Es	-2.547665	1.886520	0.018349	99
Es	-2.925271	0.734573	1.253275	99
Es	-2.572164	0.704905	0.741041	99
Es	-2.391622	0.948754	1.028946	99
Es	0.095779	-0.117125	-0.370775	99
Es	-2.195293	1.294515	0.301194	99
Es	1.671517	-1.739411	0.161726	99
Es	1.634137	-1.105170	-0.102807	99
Es	-0.426664	-0.117369	0.372432	99
Es	-1.460519	1.211272	-0.099481	99
Es	2.179742	-1.529979	-0.230047	99
Es	-0.905892	1.369125	-0.608020	99
Es	2.700384	-2.565737	0.460145	99
Es	-1.007434	1.185710	-0.369047	99
Es	-2.640028	0.589157	1.193655	99
Es	-1.062949	1.171334	-0.305342	99
Es	2.311500	-2.031720	0.252907	99
Es	-0.694898	0.714736	-0.165348	99
Es	1.055966	0.440957	-1.050751	99
Es	0.340115	0.209569	0.011945	99
Es	2.038626	-1.385052	0.267357	99
Es	-2.432079	0.347125	1.272695	99
Es	1.249524	-0.563217	-0.318650	99
Es	-0.280531	0.080427	0.109789	99
35
Properties=species:S:1:pos:R:3:Z:I:1 energy=-357.37535544583045 field_type=dipole dipole="0.000000 0.000000 0.000000" charge=0
O	-2.640136	0.588987	1.193904	8
C	-2.195556	1.294557	0.301334	6
O	-1.007236	1.186067	-0.369326	8
N	-0.280766	0.079987	0.110314	7
C	0.828704	0.001507	-0.530866	6
C	1.634314	-1.105413	-0.102716	6
C	2.311354	-2.031543	0.252844	6
H	-2.729186	2.167377	-0.106026	1
H	1.177604	0.675717	-1.327816	1
H	2.900904	-2.857243	0.578354	1
Es	-2.567493	0.706692	0.751081	99
Es	0.096020	-0.116887	-0.370440	99
Es	1.249643	-0.563430	-0.318662	99
Es	-1.036831	1.174256	-0.344679	99
Es	2.700889	-2.565641	0.459776	99
Es	-1.033571	1.182545	-0.329813	99
Es	2.182410	-1.527886	-0.228512	99
Es	-0.426232	-0.117015	0.371552	99
Es	0.828789	0.001403	-0.530845	99
Es	-2.640023	0.589150	1.193695	99
Es	2.033302	-1.397927	0.234867	99
Es	-2.547909	1.886534	0.018400	99
Es	1.634138	-1.105162	-0.102806	99
Es	-0.694640	0.714885	-0.165270	99
Es	2.311506	-2.031723	0.252900	99
Es	1.673919	-1.728728	0.193061	99
Es	-2.395752	0.938694	1.026434	99
Es	-2.926934	0.745525	1.244881	99
Es	-1.460612	1.213119	-0.100306	99
Es	0.340041	0.209209	0.011996	99
Es	-0.280578	0.080433	0.109813	99
Es	-0.906339	1.367265	-0.606910	99
Es	-2.430718	0.344734	1.273252	99
Es	-2.195298	1.294511	0.301189	99
Es	1.055344	0.440751	-1.050306	99
35
Properties=species:S:1:pos:R:3:Z:I:1 energy=-357.37535544583045 field_type=dipole dipole="0.000000 0.000000 0.000000" charge=0
O	-2.640136	0.588987	1.193904	8
C	-2.195556	1.294557	0.301334	6
O	-1.007236	1.186067	-0.369326	8
N	-0.280766	0.079987	0.110314	7
C	0.828704	0.001507	-0.530866	6
C	1.634314	-1.105413	-0.102716	6
C	2.311354	-2.031543	0.252844	6
H	-2.729186	2.167377	-0.106026	1
H	1.177604	0.675717	-1.327816	1
H	2.900904	-2.857243	0.578354	1
Es	-2.547725	1.887046	0.019026	99
Es	1.055244	0.441076	-1.049335	99
Es	-1.460947	1.214427	-0.101515	99
Es	-2.195288	1.294526	0.301207	99
Es	-1.072266	1.158476	-0.319866	99
Es	-0.280538	0.080446	0.109776	99
Es	-0.426105	-0.116061	0.370447	99
Es	-2.567261	0.707261	0.767347	99
Es	-1.007380	1.185786	-0.368987	99
Es	-2.928398	0.752797	1.236851	99
Es	0.095685	-0.117796	-0.370324	99
Es	-2.431002	0.340404	1.269097	99
Es	1.841928	-1.653962	-0.072971	99
Es	-0.896138	1.379548	-0.589508	99
Es	1.786951	-1.574574	0.382916	99
Es	-2.394465	0.934949	1.021368	99
Es	-0.695218	0.713841	-0.166746	99
Es	0.340278	0.208959	0.012361	99
Es	2.261145	-1.425400	-0.109589	99
Es	2.311496	-2.031725	0.252902	99
Es	0.828793	0.001407	-0.530840	99
Es	1.249949	-0.563325	-0.318579	99
Es	2.700233	-2.566777	0.458432	99
Es	-2.640030	0.589145	1.193689	99
Es	1.634131	-1.105168	-0.102811	99
35
Properties=species:S:1:pos:R:3:Z:I:1 energy=-357.37535544583045 field_type=dipole dipole="0.000000 0.000000 0.000000" charge=0
O	-2.640136	0.588987	1.193904	8
C	-2.195556	1.294557	0.301334	6
O	-1.007236	1.186067	-0.369326	8
N	-0.280766	0.079987	0.110314	7
C	0.828704	0.001507	-0.530866	6
C	1.634314	-1.105413	-0.102716	6
C	2.311354	-2.031543	0.252844	6
H	-2.729186	2.167377	-0.106026	1
H	1.177604	0.675717	-1.327816	1
H	2.900904	-2.857243	0.578354	1
Es	0.095716	-0.117924	-0.370291	99
Es	1.250000	-0.563395	-0.318548	99
Es	-2.928580	0.763079	1.227538	99
Es	-2.430698	0.339544	1.270324	99
Es	-2.547793	1.887120	0.019172	99
Es	-2.640013	0.589143	1.193692	99
Es	-2.396928	0.926261	1.018028	99
Es	1.634136	-1.105169	-0.102815	99
Es	-0.426010	-0.115539	0.369618	99
Es	-2.564855	0.706660	0.778456	99
Es	-0.897654	1.376472	-0.591345	99
Es	1.776489	-1.585805	0.376375	99
Es	0.828785	0.001397	-0.530851	99
Es	2.700298	-2.566805	0.458411	99
Es	2.258683	-1.430783	-0.117452	99
Es	-0.280530	0.080445	0.109770	99
Es	-2.195292	1.294519	0.301199	99
Es	-0.695339	0.713717	-0.166742	99
Es	1.854701	-1.637439	-0.058454	99
Es	0.340436	0.208801	0.012927	99
Es	-1.070498	1.160686	-0.316918	99
Es	1.055050	0.440925	-1.049143	99
Es	2.311501	-2.031725	0.252905	99
Es	-1.007344	1.185837	-0.368904	99
Es	-1.461189	1.215285	-0.102605	99
35
Properties=species:S:1:pos:R:3:Z:I:1 energy=-357.37535544583045 field_type=dipole dipole="0.000000 0.000000 0.000000" charge=0
O	-2.640136	0.588987	1.193904	8
C	-2.195556	1.294557	0.301334	6
O	-1.007236	1.186067	-0.369326	8
N	-0.280766	0.079987	0.110314	7
C	0.828704	0.001507	-0.530866	6
C	1.634314	-1.105413	-0.102716	6
C	2.311354	-2.031543	0.252844	6
H	-2.729186	2.167377	-0.106026	1
H	1.177604	0.675717	-1.327816	1
H	2.900904	-2.857243	0.578354	1
Es	-2.429969	0.340924	1.275124	99
Es	-2.405752	0.912836	1.021471	99
Es	-1.007666	1.185466	-0.369287	99
Es	0.828794	0.001407	-0.530839	99
Es	0.340616	0.208731	0.013687	99
Es	2.701033	-2.565914	0.459490	99
Es	1.685788	-1.703629	0.245466	99
Es	-2.558394	0.707351	0.778730	99
Es	-1.063415	1.170005	-0.306018	99
Es	-0.694691	0.714680	-0.165292	99
Es	-2.926418	0.775072	1.219453	99
Es	2.311499	-2.031724	0.252909	99
Es	2.006963	-1.436800	0.170337	99
Es	1.054519	0.440395	-1.049402	99
Es	0.095596	-0.118434	-0.370391	99
Es	-0.280539	0.080450	0.109774	99
Es	-0.904027	1.366324	-0.600594	99
Es	-2.548240	1.886634	0.018625	99
Es	-2.195294	1.294522	0.301215	99
Es	2.196696	-1.514083	-0.215737	99
Es	-0.425755	-0.114655	0.369060	99
Es	1.634129	-1.105170	-0.102807	99
Es	1.250048	-0.563533	-0.318880	99
Es	-1.462424	1.215301	-0.105446	99
Es	-2.640024	0.589151	1.193702	99
35
Properties=species:S:1:pos:R:3:Z:I:1 energy=-357.37535544583045 field_type=dipole dipole="0.000000 0.000000 0.000000" charge=0
O	-2.640136	0.588987	1.193904	8
C	-2.195556	1.294557	0.301334	6
O	-1.007236	1.186067	-0.369326	8
N	-0.280766	0.079987	0.110314	7
C	0.828704	0.001507	-0.530866	6
C	1.634314	-1.105413	-0.102716	6
C	2.311354	-2.031543	0.252844	6
H	-2.729186	2.167377	-0.106026	1
H	1.177604	0.675717	-1.327816	1
H	2.900904	-2.857243	0.578354	1
Es	-2.431038	0.338259	1.272294	99
Es	1.634135	-1.105163	-0.102801	99
Es	0.095388	-0.119263	-0.370106	99
Es	0.340675	0.208963	0.013497	99
Es	-0.280578	0.080445	0.109800	99
Es	-0.896685	1.375885	-0.588630	99
Es	-1.007400	1.185748	-0.369022	99
Es	1.880567	-1.604923	-0.029472	99
Es	2.254448	-1.438867	-0.128585	99
Es	-0.425489	-0.114002	0.368766	99
Es	-2.195291	1.294525	0.301207	99
Es	1.250244	-0.563394	-0.318745	99
Es	-2.548012	1.887009	0.019079	99
Es	2.700467	-2.566700	0.458627	99
Es	-2.924804	0.783406	1.213147	99
Es	-2.640017	0.589167	1.193679	99
Es	0.828793	0.001405	-0.530842	99
Es	-1.461001	1.217502	-0.103496	99
Es	1.054504	0.440472	-1.049034	99
Es	2.311500	-2.031725	0.252908	99
Es	-0.695360	0.713739	-0.166493	99
Es	1.754596	-1.610450	0.358575	99
Es	-2.559623	0.707216	0.790490	99
Es	-2.405308	0.907048	1.018279	99
Es	-1.071638	1.159006	-0.318773	99
35
Properties=species:S:1:pos:R:3:Z:I:1 energy=-357.37535544583045 field_type=dipole dipole="0.000000 0.000000 0.000000" charge=0
O	-2.640136	0.588987	1.193904	8
C	-2.195556	1.294557	0.301334	6
O	-1.007236	1.186067	-0.369326	8
N	-0.280766	0.079987	0.110314	7
C	0.828704	0.001507	-0.530866	6
C	1.634314	-1.105413	-0.102716	6
C	2.311354	-2.031543	0.252844	6
H	-2.729186	2.167377	-0.106026	1
H	1.177604	0.675717	-1.327816	1
H	2.900904	-2.857243	0.578354	1
Es	1.986279	-1.463680	0.134861	99
Es	-2.556254	0.706851	0.793514	99
Es	-0.425879	-0.113975	0.367581	99
Es	-1.461299	1.218293	-0.104696	99
Es	2.700926	-2.566093	0.459440	99
Es	2.311498	-2.031728	0.252905	99
Es	-2.548259	1.886730	0.018769	99
Es	-2.410882	0.900413	1.019492	99
Es	1.250143	-0.563572	-0.318899	99
Es	-0.694703	0.714599	-0.165479	99
Es	-2.923774	0.789109	1.206081	99
Es	-1.007325	1.185857	-0.368864	99
Es	1.054279	0.440407	-1.049062	99
Es	1.634128	-1.105168	-0.102803	99
Es	-0.280526	0.080453	0.109759	99
Es	-2.640036	0.589142	1.193720	99
Es	-1.065289	1.167375	-0.308727	99
Es	0.095583	-0.118634	-0.370366	99
Es	0.340893	0.208229	0.014992	99
Es	1.694091	-1.689960	0.267949	99
Es	-0.903553	1.365593	-0.598844	99
Es	2.209091	-1.500839	-0.202643	99
Es	0.828788	0.001399	-0.530850	99
Es	-2.429555	0.339987	1.275317	99
Es	-2.195295	1.294520	0.301201	99
35
Properties=species:S:1:pos:R:3:Z:I:1 energy=-357.37535544583045 field_type=dipole dipole="0.000000 0.000000 0.000000" charge=0
O	-2.640136	0.588987	1.193904	8
C	-2.195556	1.294557	0.301334	6
O	-1.007236	1.186067	-0.369326	8
N	-0.280766	0.079987	0.110314	7
C	0.828704	0.001507	-0.530866	6
C	1.634314	-1.105413	-0.102716	6
C	2.311354	-2.031543	0.252844	6
H	-2.729186	2.167377	-0.106026	1
H	1.177604	0.675717	-1.327816	1
H	2.900904	-2.857243	0.578354	1
Es	-2.640063	0.589114	1.193761	99
Es	1.250277	-0.563494	-0.318958	99
Es	-1.068089	1.163504	-0.313223	99
Es	2.700859	-2.566175	0.459414	99
Es	1.701987	-1.678021	0.285472	99
Es	2.311503	-2.031722	0.252910	99
Es	1.634132	-1.105168	-0.102812	99
Es	-0.280520	0.080450	0.109764	99
Es	1.054288	0.440435	-1.048817	99
Es	-2.922050	0.795182	1.200044	99
Es	-0.694873	0.714440	-0.165502	99
Es	1.973238	-1.481396	0.111405	99
Es	-1.462269	1.217603	-0.106615	99
Es	-2.195296	1.294519	0.301203	99
Es	0.095220	-0.119478	-0.370376	99
Es	-0.425858	-0.113483	0.366744	99
Es	-2.415486	0.894240	1.021110	99
Es	-2.548347	1.886661	0.018711	99
Es	-2.429571	0.339550	1.275336	99
Es	-2.553218	0.707567	0.797849	99
Es	2.214194	-1.495070	-0.196577	99
Es	0.828797	0.001411	-0.530836	99
Es	-1.007730	1.185404	-0.369262	99
Es	0.341227	0.208523	0.015476	99
Es	-0.899278	1.370712	-0.591872	99
35
Properties=species:S:1:pos:R:3:Z:I:1 energy=-357.37535544583045 field_type=dipole dipole="0.000000 0.000000 0.000000" charge=0
O	-2.640136	0.588987	1.193904	8
C	-2.195556	1.294557	0.301334	6
O	-1.007236	1.186067	-0.369326	8
N	-0.280766	0.079987	0.110314	7
C	0.828704	0.001507	-0.530866	6
C	1.634314	-1.105413	-0.102716	6
C	2.311354	-2.031543	0.252844	6
H	-2.729186	2.167377	-0.106026	1
H	1.177604	0.675717	-1.327816	1
H	2.900904	-2.857243	0.578354	1
Es	0.340949	0.208192	0.014995	99
Es	1.250222	-0.563540	-0.318839	99
Es	-2.640072	0.589114	1.193761	99
Es	1.966384	-1.490190	0.100814	99
Es	-1.007740	1.185407	-0.369240	99
Es	-0.903310	1.364820	-0.597401	99
Es	-2.410628	0.889060	1.011273	99
Es	2.700763	-2.566273	0.459385	99
Es	2.218167	-1.490464	-0.191756	99
Es	-0.280544	0.080456	0.109771	99
Es	1.054265	0.440451	-1.048825	99
Es	-1.064522	1.168229	-0.307774	99
Es	0.095459	-0.118999	-0.370358	99
Es	-2.560197	0.706564	0.813353	99
Es	2.311499	-2.031726	0.252909	99
Es	-0.425707	-0.113587	0.367189	99
Es	1.634131	-1.105169	-0.102812	99
Es	1.704927	-1.673794	0.291199	99
Es	-2.548256	1.886825	0.018937	99
Es	-2.430218	0.338511	1.274678	99
Es	-2.919427	0.802263	1.194694	99
Es	-0.694801	0.714404	-0.165754	99
Es	0.828797	0.001410	-0.530836	99
Es	-2.195294	1.294520	0.301201	99
Es	-1.461778	1.218822	-0.106218	99
35
Properties=species:S:1:pos:R:3:Z:I:1 energy=-357.37535544583045 field_type=dipole dipole="0.000000 0.000000 0.000000" charge=0
O	-2.640136	0.588987	1.193904	8
C	-2.195556	1.294557	0.301334	6
O	-1.007236	1.186067	-0.369326	8
N	-0.280766	0.079987	0.110314	7
C	0.828704	0.001507	-0.530866	6
C	1.634314	-1.105413	-0.102716	6
C	2.311354	-2.031543	0.252844	6
H	-2.729186	2.167377	-0.106026	1
H	1.177604	0.675717	-1.327816	1
H	2.900904	-2.857243	0.578354	1
Es	-2.550630	0.707635	0.812737	99
Es	-2.419917	0.887292	1.021420	99
Es	-2.548284	1.886815	0.018917	99
Es	0.095572	-0.119164	-0.369804	99
Es	-2.195295	1.294518	0.301197	99
Es	1.054116	0.440395	-1.048816	99
Es	-0.695011	0.714180	-0.165882	99
Es	1.939692	-1.525192	0.059191	99
Es	0.340647	0.208491	0.013663	99
Es	-1.069155	1.162120	-0.314563	99
Es	-1.460360	1.221189	-0.104456	99
Es	-0.900286	1.368311	-0.592578	99
Es	1.250327	-0.563499	-0.318915	99
Es	-0.280533	0.080459	0.109765	99
Es	0.828798	0.001413	-0.530833	99
Es	1.717743	-1.656161	0.313273	99
Es	-2.920622	0.803026	1.186075	99
Es	-0.425443	-0.113680	0.368089	99
Es	-1.007367	1.185795	-0.368945	99
Es	2.232047	-1.473047	-0.172088	99
Es	-2.429198	0.338622	1.273833	99
Es	2.311500	-2.031726	0.252908	99
Es	1.634132	-1.105168	-0.102811	99
Es	-2.640056	0.589117	1.193733	99
Es	2.700655	-2.566433	0.459238	99
35
Properties=species:S:1:pos:R:3:Z:I:1 energy=-357.37535544583045 field_type=dipole dipole="0.000000 0.000000 0.000000" charge=0
O	-2.640136	0.588987	1.193904	8
C	-2.195556	1.294557	0.301334	6
O	-1.007236	1.186067	-0.369326	8
N	-0.280766	0.079987	0.110314	7
C	0.828704	0.001507	-0.530866	6
C	1.634314	-1.105413	-0.102716	6
C	2.311354	-2.031543	0.252844	6
H	-2.729186	2.167377	-0.106026	1
H	1.177604	0.675717	-1.327816	1
H	2.900904	-2.857243	0.578354	1
Es	-2.918179	0.807852	1.184471	99
Es	1.053920	0.440791	-1.048971	99
Es	1.935345	-1.530924	0.052603	99
Es	1.250279	-0.563526	-0.318759	99
Es	-2.418116	0.883417	1.017655	99
Es	-1.461687	1.219903	-0.106725	99
Es	-0.900136	1.368064	-0.591950	99
Es	-1.067346	1.164360	-0.312194	99
Es	2.232292	-1.472682	-0.171604	99
Es	1.721864	-1.650781	0.319374	99
Es	2.700640	-2.566495	0.459090	99
Es	1.634139	-1.105159	-0.102804	99
Es	0.096689	-0.116780	-0.369801	99
Es	2.311499	-2.031726	0.252909	99
Es	-2.429213	0.337771	1.272274	99
Es	-2.548244	1.886898	0.019059	99
Es	-0.280543	0.080455	0.109770	99
Es	-0.695137	0.713986	-0.166224	99
Es	-1.007838	1.185325	-0.369273	99
Es	-0.426037	-0.114799	0.367301	99
Es	0.828800	0.001413	-0.530834	99
Es	-2.554972	0.707400	0.819454	99
Es	-2.195292	1.294518	0.301198	99
Es	-2.640039	0.589131	1.193726	99
Es	0.340383	0.206895	0.014601	99
35
Properties=species:S:1:pos:R:3:Z:I:1 energy=-357.37535544583045 field_type=dipole dipole="0.000000 0.000000 0.000000" charge=0
O	-2.640136	0.588987	1.193904	8
C	-2.195556	1.294557	0.301334	6
O	-1.007236	1.186067	-0.369326	8
N	-0.280766	0.079987	0.110314	7
C	0.828704	0.001507	-0.530866	6
C	1.634314	-1.105413	-0.102716	6
C	2.311354	-2.031543	0.252844	6
H	-2.729186	2.167377	-0.106026	1
H	1.177604	0.675717	-1.327816	1
H	2.900904	-2.857243	0.578354	1
Es	1.719946	-1.653300	0.316512	99
Es	-0.694957	0.714143	-0.166212	99
Es	2.311500	-2.031726	0.252908	99
Es	-2.915071	0.813739	1.182791	99
Es	-0.425566	-0.114620	0.368293	99
Es	-1.067253	1.164092	-0.312933	99
Es	0.828793	0.001405	-0.530844	99
Es	-2.195291	1.294518	0.301195	99
Es	0.096598	-0.117323	-0.369414	99
Es	-2.548274	1.886875	0.019033	99
Es	-2.416836	0.875596	1.009195	99
Es	-1.462235	1.218781	-0.107381	99
Es	2.230149	-1.475485	-0.174834	99
Es	1.250302	-0.563531	-0.318731	99
Es	1.939368	-1.525629	0.058707	99
Es	0.340119	0.207230	0.013173	99
Es	-2.560044	0.709363	0.830287	99
Es	2.700712	-2.566429	0.459114	99
Es	-2.428514	0.337846	1.271560	99
Es	-0.280564	0.080451	0.109794	99
Es	1.053799	0.440801	-1.049001	99
Es	-2.640035	0.589134	1.193719	99
Es	-1.007355	1.186326	-0.367574	99
Es	1.634131	-1.105168	-0.102810	99
Es	-0.900351	1.368220	-0.592200	99
35
Properties=species:S:1:pos:R:3:Z:I:1 energy=-357.37535544583045 field_type=dipole dipole="0.000000 0.000000 0.000000" charge=0
O	-2.640136	0.588987	1.193904	8
C	-2.195556	1.294557	0.301334	6
O	-1.007236	1.186067	-0.369326	8
N	-0.280766	0.079987	0.110314	7
C	0.828704	0.001507	-0.530866	6
C	1.634314	-1.105413	-0.102716	6
C	2.311354	-2.031543	0.252844	6
H	-2.729186	2.167377	-0.106026	1
H	1.177604	0.675717	-1.327816	1
H	2.900904	-2.857243	0.578354	1
Es	-2.195296	1.294519	0.301197	99
Es	1.250214	-0.563604	-0.318630	99
Es	-2.640025	0.589156	1.193720	99
Es	2.231987	-1.473066	-0.172043	99
Es	-2.551306	0.707845	0.826904	99
Es	-2.427829	0.874033	1.020540	99
Es	-1.067037	1.164932	-0.311295	99
Es	1.634134	-1.105167	-0.102813	99
Es	2.700783	-2.566382	0.459046	99
Es	-1.460988	1.220704	-0.105511	99
Es	1.053727	0.441184	-1.049093	99
Es	0.828798	0.001413	-0.530833	99
Es	-2.426190	0.339045	1.270679	99
Es	-0.901907	1.365895	-0.594464	99
Es	0.097443	-0.115814	-0.368659	99
Es	1.716455	-1.657900	0.311248	99
Es	-1.007376	1.185781	-0.368997	99
Es	-2.548298	1.886860	0.019039	99
Es	-0.280536	0.080461	0.109764	99
Es	-2.915144	0.815548	1.175727	99
Es	-0.425464	-0.115951	0.369840	99
Es	0.339288	0.206728	0.010933	99
Es	1.940967	-1.523494	0.061180	99
Es	-0.694825	0.714311	-0.166041	99
Es	2.311498	-2.031728	0.252907	99
35
Properties=species:S:1:pos:R:3:Z:I:1 energy=-357.37535544583045 field_type=dipole dipole="0.000000 0.000000 0.000000" charge=0
O	-2.640136	0.588987	1.193904	8
C	-2.195556	1.294557	0.301334	6
O	-1.007236	1.186067	-0.369326	8
N	-0.280766	0.079987	0.110314	7
C	0.828704	0.001507	-0.530866	6
C	1.634314	-1.105413	-0.102716	6
C	2.311354	-2.031543	0.252844	6
H	-2.729186	2.167377	-0.106026	1
H	1.177604	0.675717	-1.327816	1
H	2.900904	-2.857243	0.578354	1
Es	-0.425666	-0.116059	0.369251	99
Es	-1.007339	1.185833	-0.368894	99
Es	-1.461607	1.219951	-0.106699	99
Es	0.338355	0.203937	0.012021	99
Es	-2.913356	0.818452	1.174263	99
Es	0.098603	-0.112775	-0.369213	99
Es	1.939664	-1.525242	0.059142	99
Es	2.311496	-2.031726	0.252912	99
Es	-0.899863	1.368472	-0.591023	99
Es	0.828791	0.001402	-0.530846	99
Es	-2.640025	0.589141	1.193708	99
Es	-2.558546	0.710104	0.838023	99
Es	1.053741	0.441094	-1.048980	99
Es	-2.427228	0.338127	1.270537	99
Es	2.230139	-1.475448	-0.174726	99
Es	-0.694940	0.714151	-0.166221	99
Es	-0.280529	0.080464	0.109764	99
Es	2.700785	-2.566429	0.458921	99
Es	1.250140	-0.563675	-0.318610	99
Es	-2.195295	1.294519	0.301196	99
Es	-1.068380	1.163082	-0.313386	99
Es	-2.421346	0.869940	1.010903	99
Es	1.719638	-1.653737	0.315996	99
Es	-2.548288	1.886901	0.019116	99
Es	1.634125	-1.105172	-0.102808	99
35
Properties=species:S:1:pos:R:3:Z:I:1 energy=-357.37535544583045 field_type=dipole dipole="0.000000 0.000000 0.000000" charge=0
O	-2.640136	0.588987	1.193904	8
C	-2.195556	1.294557	0.301334	6
O	-1.007236	1.186067	-0.369326	8
N	-0.280766	0.079987	0.110314	7
C	0.828704	0.001507	-0.530866	6
C	1.634314	-1.105413	-0.102716	6
C	2.311354	-2.031543	0.252844	6
H	-2.729186	2.167377	-0.106026	1
H	1.177604	0.675717	-1.327816	1
H	2.900904	-2.857243	0.578354	1
Es	-1.067923	1.163684	-0.312628	99
Es	0.828796	0.001408	-0.530840	99
Es	-2.548323	1.886879	0.019119	99
Es	0.339114	0.206671	0.011102	99
Es	-2.911269	0.822223	1.171084	99
Es	-0.424969	-0.115091	0.370212	99
Es	-0.900950	1.367224	-0.592732	99
Es	-2.427031	0.338297	1.270839	99
Es	-2.195295	1.294517	0.301197	99
Es	2.700833	-2.566404	0.458880	99
Es	-2.560371	0.716887	0.853093	99
Es	0.097565	-0.116013	-0.368747	99
Es	-2.421749	0.859240	0.998726	99
Es	1.250081	-0.563708	-0.318556	99
Es	-0.694853	0.714267	-0.166097	99
Es	-2.640024	0.589143	1.193709	99
Es	2.231888	-1.473116	-0.171980	99
Es	1.053373	0.440674	-1.049552	99
Es	-0.280510	0.080451	0.109754	99
Es	1.718934	-1.654679	0.314895	99
Es	2.311501	-2.031726	0.252905	99
Es	-1.007401	1.185765	-0.369009	99
Es	1.938608	-1.526633	0.057504	99
Es	1.634133	-1.105166	-0.102808	99
Es	-1.461086	1.220511	-0.105723	99
35
Properties=species:S:1:pos:R:3:Z:I:1 energy=-357.37535544583045 field_type=dipole dipole="0.000000 0.000000 0.000000" charge=0
O	-2.640136	0.588987	1.193904	8
C	-2.195556	1.294557	0.301334	6
O	-1.007236	1.186067	-0.369326	8
N	-0.280766	0.079987	0.110314	7
C	0.828704	0.001507	-0.530866	6
C	1.634314	-1.105413	-0.102716	6
C	2.311354	-2.031543	0.252844	6
H	-2.729186	2.167377	-0.106026	1
H	1.177604	0.675717	-1.327816	1
H	2.900904	-2.857243	0.578354	1
Es	-0.694905	0.714266	-0.165894	99
Es	0.339623	0.207254	0.011716	99
Es	-2.428902	0.337173	1.271244	99
Es	1.940808	-1.523718	0.060912	99
Es	0.828798	0.001411	-0.530836	99
Es	-2.422952	0.848045	0.984414	99
Es	-1.461018	1.221228	-0.106239	99
Es	-2.195294	1.294518	0.301198	99
Es	-0.280554	0.080462	0.109774	99
Es	2.311500	-2.031726	0.252911	99
Es	-2.558980	0.726455	0.868641	99
Es	-0.902557	1.364399	-0.594964	99
Es	0.096752	-0.117522	-0.369010	99
Es	1.053533	0.440733	-1.049114	99
Es	1.250192	-0.563659	-0.318710	99
Es	-2.640053	0.589122	1.193713	99
Es	1.634133	-1.105166	-0.102807	99
Es	-1.066398	1.165619	-0.310419	99
Es	2.700883	-2.566355	0.458906	99
Es	2.230622	-1.474757	-0.173820	99
Es	-2.909556	0.825004	1.169375	99
Es	-1.007296	1.185954	-0.368669	99
Es	1.717971	-1.655975	0.313349	99
Es	-2.548322	1.886884	0.019127	99
Es	-0.424955	-0.114340	0.369546	99
35
Properties=species:S:1:pos:R:3:Z:I:1 energy=-357.37535544583045 field_type=dipole dipole="0.000000 0.000000 0.000000" charge=0
O	-2.640136	0.588987	1.193904	8
C	-2.195556	1.294557	0.301334	6
O	-1.007236	1.186067	-0.369326	8
N	-0.280766	0.079987	0.110314	7
C	0.828704	0.001507	-0.530866	6
C	1.634314	-1.105413	-0.102716	6
C	2.311354	-2.031543	0.252844	6
H	-2.729186	2.167377	-0.106026	1
H	1.177604	0.675717	-1.327816	1
H	2.900904	-2.857243	0.578354	1
Es	2.700769	-2.566453	0.458931	99
Es	-0.280553	0.080462	0.109774	99
Es	-2.640024	0.589154	1.193705	99
Es	2.311499	-2.031727	0.252908	99
Es	0.339401	0.206912	0.011137	99
Es	-2.909629	0.825142	1.167743	99
Es	-1.007239	1.186295	-0.367865	99
Es	2.231098	-1.474136	-0.173088	99
Es	-2.557909	0.729160	0.873499	99
Es	-2.548369	1.886858	0.019126	99
Es	-2.428018	0.337395	1.270447	99
Es	1.250137	-0.563713	-0.318655	99
Es	-1.461022	1.221834	-0.106590	99
Es	-1.067654	1.163679	-0.313029	99
Es	-0.901485	1.365292	-0.592651	99
Es	1.053522	0.440983	-1.049056	99
Es	0.828795	0.001407	-0.530841	99
Es	-0.694823	0.714285	-0.166082	99
Es	-0.424971	-0.114738	0.369750	99
Es	0.097084	-0.116962	-0.368730	99
Es	-2.195294	1.294519	0.301198	99
Es	-2.424789	0.845047	0.982008	99
Es	1.720372	-1.652850	0.316827	99
Es	1.938036	-1.527378	0.056684	99
Es	1.634138	-1.105160	-0.102802	99
35
Properties=species:S:1:pos:R:3:Z:I:1 energy=-357.37535544583045 field_type=dipole dipole="0.000000 0.000000 0.000000" charge=0
O	-2.640136	0.588987	1.193904	8
C	-2.195556	1.294557	0.301334	6
O	-1.007236	1.186067	-0.369326	8
N	-0.280766	0.079987	0.110314	7
C	0.828704	0.001507	-0.530866	6
C	1.634314	-1.105413	-0.102716	6
C	2.311354	-2.031543	0.252844	6
H	-2.729186	2.167377	-0.106026	1
H	1.177604	0.675717	-1.327816	1
H	2.900904	-2.857243	0.578354	1
Es	-2.640070	0.589106	1.193746	99
Es	-2.529780	0.780175	0.940001	99
Es	-2.195293	1.294520	0.301199	99
Es	-1.007320	1.186180	-0.368050	99
Es	-0.280524	0.080461	0.109754	99
Es	-1.461107	1.221928	-0.106906	99
Es	1.250398	-0.563506	-0.318972	99
Es	-2.451799	0.791724	0.915456	99
Es	-0.694876	0.714438	-0.165420	99
Es	-0.900740	1.366018	-0.591882	99
Es	1.715738	-1.659029	0.309507	99
Es	0.341369	0.208468	0.016062	99
Es	-1.068216	1.162934	-0.313915	99
Es	1.944380	-1.518962	0.066553	99
Es	-2.548413	1.886823	0.019100	99
Es	0.828795	0.001408	-0.530840	99
Es	2.311502	-2.031724	0.252912	99
Es	1.053931	0.440253	-1.048534	99
Es	2.229395	-1.476386	-0.175681	99
Es	-2.908379	0.827111	1.163111	99
Es	-2.430299	0.337666	1.275081	99
Es	0.094774	-0.120824	-0.370330	99
Es	2.700649	-2.566483	0.459180	99
Es	1.634134	-1.105168	-0.102812	99
Es	-0.425177	-0.111822	0.366026	99
35
Properties=species:S:1:pos:R:3:Z:I:1 energy=-357.37535544583045 field_type=dipole dipole="0.000000 0.000000 0.000000" charge=0
O	-2.640136	0.588987	1.193904	8
C	-2.195556	1.294557	0.301334	6
O	-1.007236	1.186067	-0.369326	8
N	-0.280766	0.079987	0.110314	7
C	0.828704	0.001507	-0.530866	6
C	1.634314	-1.105413	-0.102716	6
C	2.311354	-2.031543	0.252844	6
H	-2.729186	2.167377	-0.106026	1
H	1.177604	0.675717	-1.327816	1
H	2.900904	-2.857243	0.578354	1
Es	1.250179	-0.563670	-0.318680	99
Es	2.232267	-1.472547	-0.171184	99
Es	0.340258	0.206883	0.013939	99
Es	-2.548457	1.886740	0.018981	99
Es	1.053660	0.440836	-1.048803	99
Es	-0.425669	-0.114383	0.367462	99
Es	2.700884	-2.566341	0.458983	99
Es	-1.068694	1.162551	-0.313804	99
Es	-2.195297	1.294521	0.301208	99
Es	-0.280533	0.080462	0.109760	99
Es	0.096653	-0.117259	-0.369509	99
Es	1.634130	-1.105167	-0.102804	99
Es	-2.428277	0.338799	1.274528	99
Es	-2.640023	0.589139	1.193707	99
Es	-2.491919	0.825893	0.990427	99
Es	-2.909401	0.826189	1.158996	99
Es	0.828797	0.001410	-0.530838	99
Es	-2.490708	0.746012	0.869749	99
Es	-1.461566	1.221171	-0.107527	99
Es	-1.007351	1.185817	-0.368922	99
Es	-0.899814	1.367463	-0.589872	99
Es	-0.694749	0.714376	-0.165936	99
Es	1.940953	-1.523497	0.061221	99
Es	1.716248	-1.658363	0.310357	99
Es	2.311499	-2.031727	0.252908	99
35
Properties=species:S:1:pos:R:3:Z:I:1 energy=-357.37535544583045 field_type=dipole dipole="0.000000 0.000000 0.000000" charge=0
O	-2.640136	0.588987	1.193904	8
C	-2.195556	1.294557	0.301334	6
O	-1.007236	1.186067	-0.369326	8
N	-0.280766	0.079987	0.110314	7
C	0.828704	0.001507	-0.530866	6
C	1.634314	-1.105413	-0.102716	6
C	2.311354	-2.031543	0.252844	6
H	-2.729186	2.167377	-0.106026	1
H	1.177604	0.675717	-1.327816	1
H	2.900904	-2.857243	0.578354	1
Es	-0.694942	0.714212	-0.165928	99
Es	-2.640044	0.589131	1.193725	99
Es	2.232557	-1.472141	-0.170629	99
Es	-1.064503	1.167094	-0.310035	99
Es	1.053749	0.440696	-1.048656	99
Es	-2.905332	0.831772	1.162370	99
Es	-2.445644	0.802599	0.937433	99
Es	1.937924	-1.527537	0.056468	99
Es	-1.461690	1.221443	-0.108085	99
Es	1.250284	-0.563600	-0.318755	99
Es	-0.901786	1.364384	-0.592813	99
Es	1.634137	-1.105170	-0.102823	99
Es	-2.540337	0.764810	0.920812	99
Es	2.700843	-2.566395	0.458920	99
Es	0.096084	-0.118596	-0.369382	99
Es	0.828796	0.001408	-0.530839	99
Es	1.718882	-1.654801	0.314619	99
Es	0.340419	0.207745	0.013392	99
Es	-2.429036	0.337552	1.272968	99
Es	-0.280529	0.080464	0.109753	99
Es	-2.195301	1.294510	0.301190	99
Es	2.311501	-2.031727	0.252905	99
Es	-2.548360	1.886871	0.019133	99
Es	-0.425291	-0.113695	0.367816	99
Es	-1.009308	1.184277	-0.369211	99
35
Properties=species:S:1:pos:R:3:Z:I:1 energy=-357.37535544583045 field_type=dipole dipole="0.000000 0.000000 0.000000" charge=0
O	-2.640136	0.588987	1.193904	8
C	-2.195556	1.294557	0.301334	6
O	-1.007236	1.186067	-0.369326	8
N	-0.280766	0.079987	0.110314	7
C	0.828704	0.001507	-0.530866	6
C	1.634314	-1.105413	-0.102716	6
C	2.311354	-2.031543	0.252844	6
H	-2.729186	2.167377	-0.106026	1
H	1.177604	0.675717	-1.327816	1
H	2.900904	-2.857243	0.578354	1
Es	-0.695001	0.714106	-0.166121	99
Es	0.096083	-0.118425	-0.369874	99
Es	-1.067569	1.163973	-0.312210	99
Es	0.828798	0.001411	-0.530839	99
Es	-0.425345	-0.113243	0.367175	99
Es	1.250237	-0.563631	-0.318718	99
Es	-2.429010	0.337922	1.273714	99
Es	2.700895	-2.566352	0.458932	99
Es	2.231064	-1.474101	-0.172890	99
Es	0.340509	0.207145	0.014583	99
Es	2.311503	-2.031723	0.252906	99
Es	1.941689	-1.522523	0.062359	99
Es	-0.280538	0.080461	0.109772	99
Es	-2.548451	1.886788	0.019080	99
Es	-2.195296	1.294513	0.301192	99
Es	1.634128	-1.105171	-0.102811	99
Es	1.053694	0.440638	-1.048766	99
Es	-2.527248	0.783770	0.944119	99
Es	-2.906037	0.831181	1.158781	99
Es	-2.457966	0.783971	0.916993	99
Es	1.716618	-1.657839	0.311015	99
Es	-1.461427	1.221558	-0.107451	99
Es	-2.640048	0.589126	1.193721	99
Es	-1.007268	1.185996	-0.368610	99
Es	-0.900943	1.365757	-0.591705	99
35
Properties=species:S:1:pos:R:3:Z:I:1 energy=-357.37535544583045 field_type=dipole dipole="0.000000 0.000000 0.000000" charge=0
O	-2.640136	0.588987	1.193904	8
C	-2.195556	1.294557	0.301334	6
O	-1.007236	1.186067	-0.369326	8
N	-0.280766	0.079987	0.110314	7
C	0.828704	0.001507	-0.530866	6
C	1.634314	-1.105413	-0.102716	6
C	2.311354	-2.031543	0.252844	6
H	-2.729186	2.167377	-0.106026	1
H	1.177604	0.675717	-1.327816	1
H	2.900904	-2.857243	0.578354	1
Es	-0.694895	0.714199	-0.166118	99
Es	-2.427666	0.338381	1.272713	99
Es	-0.900479	1.366299	-0.590563	99
Es	1.053734	0.441031	-1.048513	99
Es	-2.513219	0.802053	0.964882	99
Es	-2.195292	1.294517	0.301194	99
Es	-2.907546	0.829287	1.154403	99
Es	-0.425114	-0.114117	0.368629	99
Es	-1.067911	1.163534	-0.312516	99
Es	2.231849	-1.473058	-0.171682	99
Es	-1.007368	1.185823	-0.368998	99
Es	1.938390	-1.526914	0.057206	99
Es	2.311498	-2.031728	0.252907	99
Es	0.096346	-0.118310	-0.368773	99
Es	-0.280534	0.080466	0.109758	99
Es	-2.548462	1.886788	0.019091	99
Es	0.828802	0.001417	-0.530828	99
Es	0.339977	0.207513	0.011758	99
Es	-2.640020	0.589187	1.193745	99
Es	2.700910	-2.566354	0.458882	99
Es	1.250215	-0.563666	-0.318669	99
Es	1.719178	-1.654446	0.314976	99
Es	1.634132	-1.105167	-0.102810	99
Es	-2.471849	0.767162	0.901518	99
Es	-1.461602	1.221411	-0.107846	99
35
Properties=species:S:1:pos:R:3:Z:I:1 energy=-357.37535544583045 field_type=dipole dipole="0.000000 0.000000 0.000000" charge=0
O	-2.640136	0.588987	1.193904	8
C	-2.195556	1.294557	0.301334	6
O	-1.007236	1.186067	-0.369326	8
N	-0.280766	0.079987	0.110314	7
C	0.828704	0.001507	-0.530866	6
C	1.634314	-1.105413	-0.102716	6
C	2.311354	-2.031543	0.252844	6
H	-2.729186	2.167377	-0.106026	1
H	1.177604	0.675717	-1.327816	1
H	2.900904	-2.857243	0.578354	1
Es	2.700956	-2.566312	0.458920	99
Es	-1.461420	1.222309	-0.108130	99
Es	-2.480690	0.757356	0.892147	99
Es	0.828795	0.001407	-0.530841	99
Es	-2.195294	1.294520	0.301199	99
Es	-0.901382	1.364414	-0.591619	99
Es	1.250099	-0.563733	-0.318525	99
Es	-2.426287	0.339337	1.272800	99
Es	2.232765	-1.471807	-0.170181	99
Es	0.097038	-0.117862	-0.367011	99
Es	-1.007163	1.186293	-0.368071	99
Es	0.339522	0.207973	0.009561	99
Es	1.053534	0.440935	-1.048805	99
Es	2.311499	-2.031727	0.252909	99
Es	-0.694809	0.714385	-0.165766	99
Es	1.939469	-1.525483	0.058873	99
Es	-1.067436	1.163946	-0.312398	99
Es	-0.280526	0.080462	0.109758	99
Es	-2.906498	0.830798	1.155318	99
Es	1.717252	-1.657087	0.311734	99
Es	1.634131	-1.105169	-0.102811	99
Es	-2.506854	0.809373	0.973274	99
Es	-2.640025	0.589145	1.193692	99
Es	-0.425146	-0.114938	0.369257	99
Es	-2.548460	1.886772	0.019064	99
35
Properties=species:S:1:pos:R:3:Z:I:1 energy=-357.37535544583045 field_type=dipole dipole="0.000000 0.000000 0.000000" charge=0
O	-2.640136	0.588987	1.193904	8
C	-2.195556	1.294557	0.301334	6
O	-1.007236	1.186067	-0.369326	8
N	-0.280766	0.079987	0.110314	7
C	0.828704	0.001507	-0.530866	6
C	1.634314	-1.105413	-0.102716	6
C	2.311354	-2.031543	0.252844	6
H	-2.729186	2.167377	-0.106026	1
H	1.177604	0.675717	-1.327816	1
H	2.900904	-2.857243	0.578354	1
Es	-2.548473	1.886788	0.019117	99
Es	-0.280532	0.080464	0.109758	99
Es	1.634130	-1.105167	-0.102806	99
Es	-1.009745	1.183946	-0.369286	99
Es	1.718784	-1.655033	0.314212	99
Es	-2.427239	0.338734	1.272881	99
Es	2.701070	-2.566257	0.458770	99
Es	-2.195291	1.294523	0.301203	99
Es	1.053452	0.441183	-1.048804	99
Es	-2.640042	0.589128	1.193726	99
Es	-2.508950	0.806911	0.970509	99
Es	-1.462058	1.221495	-0.108944	99
Es	-2.905436	0.832410	1.154393	99
Es	-0.425369	-0.115500	0.368924	99
Es	0.097405	-0.117193	-0.366740	99
Es	1.250054	-0.563775	-0.318471	99
Es	1.937669	-1.527889	0.056035	99
Es	-2.478666	0.758877	0.895622	99
Es	0.828797	0.001409	-0.530838	99
Es	-0.901595	1.364336	-0.591375	99
Es	-0.694726	0.714303	-0.166257	99
Es	-1.064151	1.167172	-0.310046	99
Es	2.232987	-1.471470	-0.169736	99
Es	2.311496	-2.031726	0.252916	99
Es	0.339501	0.207639	0.009583	99
35
Properties=species:S:1:pos:R:3:Z:I:1 energy=-357.37535544583045 field_type=dipole dipole="0.000000 0.000000 0.000000" charge=0
O	-2.640136	0.588987	1.193904	8
C	-2.195556	1.294557	0.301334	6
O	-1.007236	1.186067	-0.369326	8
N	-0.280766	0.079987	0.110314	7
C	0.828704	0.001507	-0.530866	6
C	1.634314	-1.105413	-0.102716	6
C	2.311354	-2.031543	0.252844	6
H	-2.729186	2.167377	-0.106026	1
H	1.177604	0.675717	-1.327816	1
H	2.900904	-2.857243	0.578354	1
Es	-1.461741	1.221978	-0.107185	99
Es	2.231233	-1.473122	-0.171788	99
Es	-2.349429	0.390379	1.176334	99
Es	-2.668060	0.948490	0.908245	99
Es	2.704156	-2.564355	0.454712	99
Es	1.248885	-0.564547	-0.316754	99
Es	-2.195289	1.294526	0.301206	99
Es	1.053771	0.438410	-1.046224	99
Es	-1.007479	1.186214	-0.367661	99
Es	-2.639987	0.589218	1.193608	99
Es	-2.548218	1.886857	0.019199	99
Es	0.328892	0.187928	0.004869	99
Es	2.311511	-2.031721	0.252895	99
Es	-0.280526	0.080459	0.109764	99
Es	-2.778223	0.612395	1.261378	99
Es	-1.069080	1.161231	-0.315330	99
Es	1.941424	-1.523090	0.060769	99
Es	-0.901374	1.365085	-0.584812	99
Es	1.634123	-1.105171	-0.102798	99
Es	-2.525436	0.786506	0.946962	99
Es	-0.424320	-0.114540	0.366685	99
Es	-0.694006	0.714485	-0.167859	99
Es	1.716610	-1.658268	0.311455	99
Es	0.106840	-0.095447	-0.362485	99
Es	0.828795	0.001407	-0.530840	99
