41
Properties=species:S:1:pos:R:3:Z:I:1 energy=-359.7320985325912 field_type=dipole dipole="0.000000 0.000000 0.000000" charge=0
O	-2.955461	-0.822420	1.470849	8
N	-1.569101	-0.995740	1.402389	7
C	-1.161251	-0.616550	0.234359	6
C	0.296409	-0.659550	-0.126771	6
C	0.886119	0.711970	-0.119271	6
C	1.928079	1.126270	-1.123441	6
O	0.550919	1.508950	-1.262881	8
H	-3.158031	-1.096380	2.384619	1
H	-1.855001	-0.218440	-0.527221	1
H	0.380669	-1.125310	-1.114861	1
H	0.831949	-1.289990	0.590799	1
H	0.877509	1.183900	0.855229	1
H	2.314659	0.392910	-1.820131	1
H	2.632539	1.900380	-0.843671	1
Es	1.927764	1.126341	-1.123453	99
Es	0.573792	1.218381	-0.794004	99
Es	0.296350	-0.659518	-0.126754	99
Es	-1.425455	-1.101681	0.786015	99
Es	2.187017	0.629770	-1.603104	99
Es	-1.391104	-1.136496	1.708319	99
Es	-2.955276	-0.822531	1.471098	99
Es	-2.998816	-0.518713	1.439924	99
Es	-0.436196	-0.635877	0.062298	99
Es	-3.065284	-1.030768	1.275816	99
Es	1.579538	0.791396	-0.497746	99
Es	2.404118	1.656943	-0.939803	99
Es	-1.161193	-0.616548	0.234350	99
Es	-1.347251	-0.559777	0.992078	99
Es	-1.569442	-0.995513	1.401922	99
Es	0.886054	0.712111	-0.119545	99
Es	0.350010	-0.966327	-0.794235	99
Es	-2.349765	-0.896867	1.442133	99
Es	0.417224	1.320590	-1.469507	99
Es	-1.623052	-0.352117	-0.275757	99
Es	1.100040	1.416036	-1.303701	99
Es	0.580441	0.019566	-0.128711	99
Es	-3.058590	-0.969443	1.961939	99
Es	0.551072	1.508821	-1.262751	99
Es	0.873815	1.038283	0.539521	99
Es	0.658105	-1.075307	0.358594	99
Es	0.519354	1.804201	-1.182446	99
41
Properties=species:S:1:pos:R:3:Z:I:1 energy=-359.7320985325912 field_type=dipole dipole="0.000000 0.000000 0.000000" charge=0
O	-2.955461	-0.822420	1.470849	8
N	-1.569101	-0.995740	1.402389	7
C	-1.161251	-0.616550	0.234359	6
C	0.296409	-0.659550	-0.126771	6
C	0.886119	0.711970	-0.119271	6
C	1.928079	1.126270	-1.123441	6
O	0.550919	1.508950	-1.262881	8
H	-3.158031	-1.096380	2.384619	1
H	-1.855001	-0.218440	-0.527221	1
H	0.380669	-1.125310	-1.114861	1
H	0.831949	-1.289990	0.590799	1
H	0.877509	1.183900	0.855229	1
H	2.314659	0.392910	-1.820131	1
H	2.632539	1.900380	-0.843671	1
Es	2.186965	0.632300	-1.604453	99
Es	-1.569467	-0.995516	1.401935	99
Es	-1.161191	-0.616550	0.234342	99
Es	0.565273	1.218336	-0.784184	99
Es	-1.623254	-0.352150	-0.274746	99
Es	0.417198	1.331816	-1.464112	99
Es	1.927771	1.126341	-1.123453	99
Es	0.659592	-1.074124	0.358111	99
Es	2.402126	1.656483	-0.942386	99
Es	-0.437418	-0.634723	0.062855	99
Es	-2.955265	-0.822512	1.471119	99
Es	-3.066936	-0.974436	1.965910	99
Es	0.523646	1.787551	-1.187254	99
Es	0.872149	1.037995	0.539406	99
Es	-1.349082	-0.561852	0.990051	99
Es	0.886052	0.712110	-0.119544	99
Es	-1.388242	-1.138285	1.707734	99
Es	-3.059080	-1.017634	1.280508	99
Es	0.296348	-0.659516	-0.126754	99
Es	1.582243	0.788368	-0.494416	99
Es	0.551168	1.508628	-1.262749	99
Es	-1.426912	-1.097128	0.786289	99
Es	-2.347643	-0.895890	1.438329	99
Es	0.351436	-0.965180	-0.794577	99
Es	1.106212	1.420672	-1.313474	99
Es	-2.999152	-0.528790	1.437058	99
Es	0.578734	0.018642	-0.129058	99
41
Properties=species:S:1:pos:R:3:Z:I:1 energy=-359.7320985325912 field_type=dipole dipole="0.000000 0.000000 0.000000" charge=0
O	-2.955461	-0.822420	1.470849	8
N	-1.569101	-0.995740	1.402389	7
C	-1.161251	-0.616550	0.234359	6
C	0.296409	-0.659550	-0.126771	6
C	0.886119	0.711970	-0.119271	6
C	1.928079	1.126270	-1.123441	6
O	0.550919	1.508950	-1.262881	8
H	-3.158031	-1.096380	2.384619	1
H	-1.855001	-0.218440	-0.527221	1
H	0.380669	-1.125310	-1.114861	1
H	0.831949	-1.289990	0.590799	1
H	0.877509	1.183900	0.855229	1
H	2.314659	0.392910	-1.820131	1
H	2.632539	1.900380	-0.843671	1
Es	-1.569457	-0.995508	1.401917	99
Es	0.577265	0.017449	-0.128367	99
Es	-3.040049	-1.017506	1.303675	99
Es	-1.386864	-1.139080	1.707035	99
Es	1.109250	1.425151	-1.320595	99
Es	-0.438168	-0.634243	0.063320	99
Es	-1.427683	-1.094972	0.786409	99
Es	1.927775	1.126337	-1.123449	99
Es	-1.349953	-0.562795	0.989041	99
Es	0.352920	-0.963727	-0.795676	99
Es	0.551178	1.508425	-1.262816	99
Es	0.409861	1.346693	-1.464990	99
Es	0.296349	-0.659518	-0.126754	99
Es	0.535537	1.766105	-1.183633	99
Es	2.187085	0.633900	-1.605382	99
Es	0.886045	0.712113	-0.119544	99
Es	-1.161191	-0.616555	0.234339	99
Es	-2.955227	-0.822503	1.471153	99
Es	0.660385	-1.073205	0.357442	99
Es	2.400612	1.656021	-0.943554	99
Es	-1.623386	-0.352211	-0.274107	99
Es	-3.071380	-0.973865	1.967707	99
Es	0.559375	1.219703	-0.779135	99
Es	0.871137	1.037749	0.539476	99
Es	-3.014778	-0.532961	1.415470	99
Es	-2.346646	-0.893060	1.436383	99
Es	1.583278	0.787017	-0.492875	99
41
Properties=species:S:1:pos:R:3:Z:I:1 energy=-359.7320985325912 field_type=dipole dipole="0.000000 0.000000 0.000000" charge=0
O	-2.955461	-0.822420	1.470849	8
N	-1.569101	-0.995740	1.402389	7
C	-1.161251	-0.616550	0.234359	6
C	0.296409	-0.659550	-0.126771	6
C	0.886119	0.711970	-0.119271	6
C	1.928079	1.126270	-1.123441	6
O	0.550919	1.508950	-1.262881	8
H	-3.158031	-1.096380	2.384619	1
H	-1.855001	-0.218440	-0.527221	1
H	0.380669	-1.125310	-1.114861	1
H	0.831949	-1.289990	0.590799	1
H	0.877509	1.183900	0.855229	1
H	2.314659	0.392910	-1.820131	1
H	2.632539	1.900380	-0.843671	1
Es	0.551178	1.508432	-1.262813	99
Es	0.402586	1.361016	-1.466376	99
Es	0.296349	-0.659517	-0.126755	99
Es	1.583164	0.786824	-0.492445	99
Es	0.870410	1.037652	0.539797	99
Es	-0.438402	-0.634089	0.063770	99
Es	-3.037560	-0.541202	1.384002	99
Es	2.187249	0.634841	-1.606116	99
Es	-1.386171	-1.139023	1.706226	99
Es	-2.955244	-0.822446	1.471138	99
Es	-2.346232	-0.890362	1.435580	99
Es	0.353910	-0.963033	-0.796668	99
Es	1.927769	1.126342	-1.123457	99
Es	2.399558	1.655867	-0.944175	99
Es	0.886050	0.712107	-0.119540	99
Es	1.111068	1.429350	-1.325144	99
Es	-1.569476	-0.995509	1.401926	99
Es	0.660688	-1.072173	0.356793	99
Es	0.576298	0.016576	-0.128068	99
Es	-3.074447	-0.973007	1.968357	99
Es	-1.161191	-0.616554	0.234340	99
Es	-1.428203	-1.094419	0.786249	99
Es	-1.623166	-0.352490	-0.273454	99
Es	-1.350561	-0.562818	0.988610	99
Es	0.555337	1.221807	-0.775652	99
Es	-3.014535	-1.013468	1.336614	99
Es	0.546844	1.744253	-1.180249	99
41
Properties=species:S:1:pos:R:3:Z:I:1 energy=-359.7320985325912 field_type=dipole dipole="0.000000 0.000000 0.000000" charge=0
O	-2.955461	-0.822420	1.470849	8
N	-1.569101	-0.995740	1.402389	7
C	-1.161251	-0.616550	0.234359	6
C	0.296409	-0.659550	-0.126771	6
C	0.886119	0.711970	-0.119271	6
C	1.928079	1.126270	-1.123441	6
O	0.550919	1.508950	-1.262881	8
H	-3.158031	-1.096380	2.384619	1
H	-1.855001	-0.218440	-0.527221	1
H	0.380669	-1.125310	-1.114861	1
H	0.831949	-1.289990	0.590799	1
H	0.877509	1.183900	0.855229	1
H	2.314659	0.392910	-1.820131	1
H	2.632539	1.900380	-0.843671	1
Es	0.296347	-0.659516	-0.126754	99
Es	2.187118	0.635322	-1.606972	99
Es	-1.622835	-0.353023	-0.272759	99
Es	1.927783	1.126340	-1.123454	99
Es	1.112710	1.433249	-1.327018	99
Es	2.399134	1.656133	-0.944432	99
Es	0.551105	1.508783	-1.262748	99
Es	-3.073171	-0.571831	1.332100	99
Es	0.659985	-1.071071	0.355465	99
Es	0.575996	0.016471	-0.127413	99
Es	-3.076735	-0.970933	1.968956	99
Es	0.354571	-0.963236	-0.797307	99
Es	0.870198	1.037934	0.539895	99
Es	-2.345937	-0.886209	1.435818	99
Es	-1.350759	-0.561632	0.988581	99
Es	-2.976717	-0.989907	1.389109	99
Es	-1.386634	-1.137898	1.705088	99
Es	-2.955191	-0.822389	1.471199	99
Es	-1.569466	-0.995510	1.401922	99
Es	-0.438462	-0.634503	0.064284	99
Es	0.554112	1.223067	-0.773273	99
Es	0.886048	0.712105	-0.119543	99
Es	1.582056	0.787384	-0.492881	99
Es	-1.161191	-0.616553	0.234340	99
Es	0.545899	1.738567	-1.182347	99
Es	-1.428172	-1.095823	0.785909	99
Es	0.405478	1.359631	-1.463278	99
41
Properties=species:S:1:pos:R:3:Z:I:1 energy=-359.7320985325912 field_type=dipole dipole="0.000000 0.000000 0.000000" charge=0
O	-2.955461	-0.822420	1.470849	8
N	-1.569101	-0.995740	1.402389	7
C	-1.161251	-0.616550	0.234359	6
C	0.296409	-0.659550	-0.126771	6
C	0.886119	0.711970	-0.119271	6
C	1.928079	1.126270	-1.123441	6
O	0.550919	1.508950	-1.262881	8
H	-3.158031	-1.096380	2.384619	1
H	-1.855001	-0.218440	-0.527221	1
H	0.380669	-1.125310	-1.114861	1
H	0.831949	-1.289990	0.590799	1
H	0.877509	1.183900	0.855229	1
H	2.314659	0.392910	-1.820131	1
H	2.632539	1.900380	-0.843671	1
Es	-0.438607	-0.634626	0.064539	99
Es	0.869881	1.037935	0.540051	99
Es	1.927771	1.126349	-1.123461	99
Es	0.355056	-0.963099	-0.797640	99
Es	-3.080803	-0.583956	1.320286	99
Es	-3.078178	-0.972863	1.968202	99
Es	-1.622592	-0.353053	-0.272276	99
Es	0.296349	-0.659516	-0.126754	99
Es	2.187195	0.635831	-1.607449	99
Es	2.398519	1.656015	-0.944733	99
Es	-2.346025	-0.886964	1.434640	99
Es	0.552006	1.726823	-1.180293	99
Es	0.551329	1.222704	-0.772486	99
Es	1.581537	0.787599	-0.492824	99
Es	-2.954613	-0.821382	1.471791	99
Es	-1.428630	-1.095649	0.785600	99
Es	-1.386798	-1.138566	1.704212	99
Es	-1.161191	-0.616554	0.234341	99
Es	0.659688	-1.070472	0.354762	99
Es	1.112921	1.434758	-1.331197	99
Es	-1.569457	-0.995504	1.401911	99
Es	0.886044	0.712109	-0.119546	99
Es	-2.967960	-0.976400	1.402995	99
Es	-1.350538	-0.561014	0.988956	99
Es	0.575921	0.016307	-0.127168	99
Es	0.403324	1.369387	-1.461228	99
Es	0.551121	1.508757	-1.262742	99
41
Properties=species:S:1:pos:R:3:Z:I:1 energy=-359.7320985325912 field_type=dipole dipole="0.000000 0.000000 0.000000" charge=0
O	-2.955461	-0.822420	1.470849	8
N	-1.569101	-0.995740	1.402389	7
C	-1.161251	-0.616550	0.234359	6
C	0.296409	-0.659550	-0.126771	6
C	0.886119	0.711970	-0.119271	6
C	1.928079	1.126270	-1.123441	6
O	0.550919	1.508950	-1.262881	8
H	-3.158031	-1.096380	2.384619	1
H	-1.855001	-0.218440	-0.527221	1
H	0.380669	-1.125310	-1.114861	1
H	0.831949	-1.289990	0.590799	1
H	0.877509	1.183900	0.855229	1
H	2.314659	0.392910	-1.820131	1
H	2.632539	1.900380	-0.843671	1
Es	-1.387470	-1.138881	1.703012	99
Es	2.187072	0.636023	-1.607781	99
Es	2.398169	1.656212	-0.945178	99
Es	0.659168	-1.070189	0.354020	99
Es	-0.438523	-0.634722	0.064550	99
Es	0.576118	0.016240	-0.126829	99
Es	-3.079609	-0.974796	1.967317	99
Es	0.296348	-0.659515	-0.126754	99
Es	-1.349987	-0.560033	0.989805	99
Es	0.355111	-0.963222	-0.797883	99
Es	0.550768	1.727498	-1.181192	99
Es	0.550185	1.221801	-0.772040	99
Es	1.580971	0.788270	-0.492985	99
Es	0.869762	1.038074	0.540024	99
Es	-1.569439	-0.995507	1.401908	99
Es	-1.622264	-0.353069	-0.271570	99
Es	1.927773	1.126343	-1.123456	99
Es	-1.161190	-0.616552	0.234341	99
Es	-2.346069	-0.886310	1.434057	99
Es	-2.949540	-0.946024	1.431793	99
Es	1.112692	1.434301	-1.335189	99
Es	0.886047	0.712104	-0.119539	99
Es	-2.955081	-0.822175	1.471321	99
Es	0.407145	1.369367	-1.455728	99
Es	0.551176	1.508525	-1.262786	99
Es	-1.429020	-1.096116	0.784941	99
Es	-3.097042	-0.612692	1.294309	99
41
Properties=species:S:1:pos:R:3:Z:I:1 energy=-359.7320985325912 field_type=dipole dipole="0.000000 0.000000 0.000000" charge=0
O	-2.955461	-0.822420	1.470849	8
N	-1.569101	-0.995740	1.402389	7
C	-1.161251	-0.616550	0.234359	6
C	0.296409	-0.659550	-0.126771	6
C	0.886119	0.711970	-0.119271	6
C	1.928079	1.126270	-1.123441	6
O	0.550919	1.508950	-1.262881	8
H	-3.158031	-1.096380	2.384619	1
H	-1.855001	-0.218440	-0.527221	1
H	0.380669	-1.125310	-1.114861	1
H	0.831949	-1.289990	0.590799	1
H	0.877509	1.183900	0.855229	1
H	2.314659	0.392910	-1.820131	1
H	2.632539	1.900380	-0.843671	1
Es	1.112571	1.437357	-1.337732	99
Es	-0.438612	-0.634777	0.064720	99
Es	0.659405	-1.069863	0.353721	99
Es	0.408039	1.371712	-1.453446	99
Es	-2.955211	-0.822193	1.471078	99
Es	-3.098403	-0.616792	1.291989	99
Es	-1.429332	-1.095664	0.784942	99
Es	0.355760	-0.962293	-0.798509	99
Es	-1.350218	-0.560204	0.989514	99
Es	-1.622224	-0.352996	-0.271234	99
Es	-2.946898	-0.939148	1.436186	99
Es	-2.346198	-0.886673	1.434000	99
Es	1.927772	1.126352	-1.123456	99
Es	0.869565	1.038049	0.540092	99
Es	-1.161191	-0.616552	0.234342	99
Es	-1.387117	-1.139115	1.702469	99
Es	2.187386	0.636534	-1.608207	99
Es	0.575328	0.015491	-0.126358	99
Es	1.580588	0.788364	-0.493073	99
Es	0.296347	-0.659515	-0.126755	99
Es	-3.080468	-0.977498	1.966279	99
Es	2.397500	1.655932	-0.945182	99
Es	0.548951	1.221621	-0.771567	99
Es	0.552139	1.721353	-1.181077	99
Es	0.886046	0.712104	-0.119542	99
Es	-1.569455	-0.995506	1.401910	99
Es	0.551198	1.508875	-1.262618	99
41
Properties=species:S:1:pos:R:3:Z:I:1 energy=-359.7320985325912 field_type=dipole dipole="0.000000 0.000000 0.000000" charge=0
O	-2.955461	-0.822420	1.470849	8
N	-1.569101	-0.995740	1.402389	7
C	-1.161251	-0.616550	0.234359	6
C	0.296409	-0.659550	-0.126771	6
C	0.886119	0.711970	-0.119271	6
C	1.928079	1.126270	-1.123441	6
O	0.550919	1.508950	-1.262881	8
H	-3.158031	-1.096380	2.384619	1
H	-1.855001	-0.218440	-0.527221	1
H	0.380669	-1.125310	-1.114861	1
H	0.831949	-1.289990	0.590799	1
H	0.877509	1.183900	0.855229	1
H	2.314659	0.392910	-1.820131	1
H	2.632539	1.900380	-0.843671	1
Es	-1.621918	-0.352729	-0.270596	99
Es	0.869477	1.038112	0.540011	99
Es	0.886044	0.712108	-0.119542	99
Es	-3.081959	-0.982353	1.964095	99
Es	-0.438641	-0.634600	0.064520	99
Es	-1.349955	-0.559617	0.989581	99
Es	0.545195	1.731147	-1.183840	99
Es	1.111677	1.436326	-1.341100	99
Es	2.187423	0.636722	-1.608425	99
Es	0.355682	-0.962581	-0.798378	99
Es	0.296347	-0.659515	-0.126754	99
Es	-3.112095	-0.654067	1.267826	99
Es	-1.429602	-1.096118	0.784894	99
Es	-2.944058	-0.867495	1.464885	99
Es	0.417183	1.365169	-1.446065	99
Es	0.551199	1.508851	-1.262627	99
Es	-1.387519	-1.139541	1.701370	99
Es	-2.942322	-0.849141	1.471387	99
Es	2.397060	1.655878	-0.945521	99
Es	-2.346572	-0.889538	1.432142	99
Es	1.580317	0.788732	-0.492860	99
Es	-1.569457	-0.995505	1.401906	99
Es	0.575657	0.015568	-0.126375	99
Es	1.927772	1.126344	-1.123455	99
Es	0.659124	-1.069764	0.353445	99
Es	0.548402	1.219112	-0.772377	99
Es	-1.161190	-0.616550	0.234343	99
41
Properties=species:S:1:pos:R:3:Z:I:1 energy=-359.7320985325912 field_type=dipole dipole="0.000000 0.000000 0.000000" charge=0
O	-2.955461	-0.822420	1.470849	8
N	-1.569101	-0.995740	1.402389	7
C	-1.161251	-0.616550	0.234359	6
C	0.296409	-0.659550	-0.126771	6
C	0.886119	0.711970	-0.119271	6
C	1.928079	1.126270	-1.123441	6
O	0.550919	1.508950	-1.262881	8
H	-3.158031	-1.096380	2.384619	1
H	-1.855001	-0.218440	-0.527221	1
H	0.380669	-1.125310	-1.114861	1
H	0.831949	-1.289990	0.590799	1
H	0.877509	1.183900	0.855229	1
H	2.314659	0.392910	-1.820131	1
H	2.632539	1.900380	-0.843671	1
Es	-1.569448	-0.995506	1.401906	99
Es	0.551113	1.508737	-1.262758	99
Es	0.869476	1.038086	0.539950	99
Es	-3.107756	-0.641182	1.276115	99
Es	0.659450	-1.069439	0.353142	99
Es	1.111269	1.439526	-1.342688	99
Es	0.549337	1.721270	-1.183394	99
Es	-1.429869	-1.095116	0.785029	99
Es	1.580487	0.788408	-0.492808	99
Es	-1.161190	-0.616550	0.234342	99
Es	0.415756	1.369017	-1.445635	99
Es	0.546510	1.221747	-0.771339	99
Es	-1.622034	-0.352642	-0.270532	99
Es	-1.387099	-1.140211	1.701324	99
Es	-0.438778	-0.634676	0.064913	99
Es	0.356442	-0.961359	-0.799032	99
Es	-3.081366	-0.980750	1.964997	99
Es	2.396451	1.655590	-0.945450	99
Es	0.574532	0.014510	-0.125769	99
Es	-2.955052	-0.822128	1.471352	99
Es	0.886044	0.712107	-0.119542	99
Es	-2.936199	-0.911489	1.455188	99
Es	1.927771	1.126348	-1.123461	99
Es	0.296348	-0.659517	-0.126755	99
Es	2.187732	0.637341	-1.608765	99
Es	-1.350073	-0.560012	0.989387	99
Es	-2.346585	-0.887156	1.432768	99
41
Properties=species:S:1:pos:R:3:Z:I:1 energy=-359.7320985325912 field_type=dipole dipole="0.000000 0.000000 0.000000" charge=0
O	-2.955461	-0.822420	1.470849	8
N	-1.569101	-0.995740	1.402389	7
C	-1.161251	-0.616550	0.234359	6
C	0.296409	-0.659550	-0.126771	6
C	0.886119	0.711970	-0.119271	6
C	1.928079	1.126270	-1.123441	6
O	0.550919	1.508950	-1.262881	8
H	-3.158031	-1.096380	2.384619	1
H	-1.855001	-0.218440	-0.527221	1
H	0.380669	-1.125310	-1.114861	1
H	0.831949	-1.289990	0.590799	1
H	0.877509	1.183900	0.855229	1
H	2.314659	0.392910	-1.820131	1
H	2.632539	1.900380	-0.843671	1
Es	-2.949056	-0.848171	1.467610	99
Es	0.546390	1.220285	-0.771716	99
Es	0.869188	1.037957	0.540097	99
Es	0.551240	1.508915	-1.262566	99
Es	-0.438785	-0.634504	0.064659	99
Es	0.659442	-1.069590	0.353024	99
Es	1.580190	0.788754	-0.492705	99
Es	-2.937823	-0.870121	1.467726	99
Es	-2.346743	-0.888975	1.431860	99
Es	2.187794	0.637493	-1.608930	99
Es	-1.350102	-0.559667	0.988889	99
Es	-3.082249	-0.983361	1.963709	99
Es	2.396097	1.655598	-0.945690	99
Es	0.296348	-0.659516	-0.126754	99
Es	0.415741	1.372083	-1.443707	99
Es	0.574675	0.014252	-0.125732	99
Es	1.110570	1.439077	-1.345137	99
Es	-1.569467	-0.995505	1.401910	99
Es	-1.387275	-1.140509	1.700539	99
Es	-1.621897	-0.352517	-0.270073	99
Es	0.550652	1.719581	-1.182335	99
Es	0.886046	0.712106	-0.119541	99
Es	0.356516	-0.960952	-0.799226	99
Es	-1.429876	-1.095273	0.785552	99
Es	1.927775	1.126345	-1.123457	99
Es	-1.161189	-0.616547	0.234344	99
Es	-3.110933	-0.652283	1.270141	99
41
Properties=species:S:1:pos:R:3:Z:I:1 energy=-359.7320985325912 field_type=dipole dipole="0.000000 0.000000 0.000000" charge=0
O	-2.955461	-0.822420	1.470849	8
N	-1.569101	-0.995740	1.402389	7
C	-1.161251	-0.616550	0.234359	6
C	0.296409	-0.659550	-0.126771	6
C	0.886119	0.711970	-0.119271	6
C	1.928079	1.126270	-1.123441	6
O	0.550919	1.508950	-1.262881	8
H	-3.158031	-1.096380	2.384619	1
H	-1.855001	-0.218440	-0.527221	1
H	0.380669	-1.125310	-1.114861	1
H	0.831949	-1.289990	0.590799	1
H	0.877509	1.183900	0.855229	1
H	2.314659	0.392910	-1.820131	1
H	2.632539	1.900380	-0.843671	1
Es	-1.569456	-0.995502	1.401903	99
Es	-3.113435	-0.660688	1.265455	99
Es	0.419410	1.370701	-1.439833	99
Es	-0.438887	-0.634398	0.064560	99
Es	0.886045	0.712106	-0.119541	99
Es	-2.346860	-0.889633	1.431815	99
Es	0.574304	0.013724	-0.125542	99
Es	0.551279	1.508975	-1.262496	99
Es	0.549077	1.719522	-1.183560	99
Es	1.580170	0.788821	-0.492757	99
Es	2.188178	0.637923	-1.609103	99
Es	-2.939457	-0.850315	1.473127	99
Es	2.395561	1.655256	-0.945598	99
Es	-3.082536	-0.985308	1.962877	99
Es	1.109473	1.440315	-1.347864	99
Es	0.659569	-1.069604	0.352964	99
Es	0.356903	-0.960252	-0.799462	99
Es	0.869055	1.037846	0.540131	99
Es	-1.161190	-0.616545	0.234345	99
Es	-1.621911	-0.352340	-0.269831	99
Es	-2.944448	-0.857215	1.468114	99
Es	-1.387182	-1.140941	1.700081	99
Es	-1.430157	-1.094805	0.785337	99
Es	-1.349971	-0.559799	0.989109	99
Es	0.296349	-0.659516	-0.126755	99
Es	0.545615	1.220284	-0.771530	99
Es	1.927773	1.126343	-1.123455	99
41
Properties=species:S:1:pos:R:3:Z:I:1 energy=-359.7320985325912 field_type=dipole dipole="0.000000 0.000000 0.000000" charge=0
O	-2.955461	-0.822420	1.470849	8
N	-1.569101	-0.995740	1.402389	7
C	-1.161251	-0.616550	0.234359	6
C	0.296409	-0.659550	-0.126771	6
C	0.886119	0.711970	-0.119271	6
C	1.928079	1.126270	-1.123441	6
O	0.550919	1.508950	-1.262881	8
H	-3.158031	-1.096380	2.384619	1
H	-1.855001	-0.218440	-0.527221	1
H	0.380669	-1.125310	-1.114861	1
H	0.831949	-1.289990	0.590799	1
H	0.877509	1.183900	0.855229	1
H	2.314659	0.392910	-1.820131	1
H	2.632539	1.900380	-0.843671	1
Es	1.109246	1.441548	-1.348399	99
Es	0.405439	1.392955	-1.445035	99
Es	0.886045	0.712105	-0.119542	99
Es	-3.103677	-0.633619	1.283845	99
Es	-1.161190	-0.616551	0.234342	99
Es	-2.955132	-0.822275	1.471248	99
Es	2.395177	1.655215	-0.945750	99
Es	-0.438868	-0.634657	0.065121	99
Es	0.357388	-0.959669	-0.799941	99
Es	1.927773	1.126347	-1.123457	99
Es	0.296349	-0.659518	-0.126755	99
Es	2.188204	0.638259	-1.609427	99
Es	-2.938986	-0.918246	1.450270	99
Es	-1.621858	-0.352568	-0.269895	99
Es	-1.569480	-0.995505	1.401929	99
Es	0.564404	1.695767	-1.177267	99
Es	-1.386890	-1.140916	1.700129	99
Es	-2.346878	-0.886607	1.431914	99
Es	-1.350128	-0.559863	0.989311	99
Es	-3.081968	-0.982471	1.964263	99
Es	0.659547	-1.069113	0.352508	99
Es	1.580143	0.788684	-0.492652	99
Es	0.573894	0.013152	-0.125346	99
Es	0.551146	1.508636	-1.262764	99
Es	0.545085	1.220531	-0.771513	99
Es	-1.430414	-1.094429	0.785004	99
Es	0.868899	1.037764	0.540347	99
41
Properties=species:S:1:pos:R:3:Z:I:1 energy=-359.7320985325912 field_type=dipole dipole="0.000000 0.000000 0.000000" charge=0
O	-2.955461	-0.822420	1.470849	8
N	-1.569101	-0.995740	1.402389	7
C	-1.161251	-0.616550	0.234359	6
C	0.296409	-0.659550	-0.126771	6
C	0.886119	0.711970	-0.119271	6
C	1.928079	1.126270	-1.123441	6
O	0.550919	1.508950	-1.262881	8
H	-3.158031	-1.096380	2.384619	1
H	-1.855001	-0.218440	-0.527221	1
H	0.380669	-1.125310	-1.114861	1
H	0.831949	-1.289990	0.590799	1
H	0.877509	1.183900	0.855229	1
H	2.314659	0.392910	-1.820131	1
H	2.632539	1.900380	-0.843671	1
Es	0.415166	1.379312	-1.440664	99
Es	-2.346793	-0.887360	1.432178	99
Es	0.296348	-0.659515	-0.126755	99
Es	1.108689	1.443732	-1.349371	99
Es	0.556333	1.706023	-1.180858	99
Es	0.868855	1.037766	0.540187	99
Es	-1.569454	-0.995503	1.401904	99
Es	2.188562	0.638720	-1.609575	99
Es	-0.438963	-0.634568	0.065165	99
Es	-3.082603	-0.984351	1.963258	99
Es	0.550924	1.509385	-1.262677	99
Es	-1.386915	-1.141471	1.699886	99
Es	2.394616	1.654910	-0.945743	99
Es	0.886044	0.712107	-0.119541	99
Es	1.927775	1.126345	-1.123454	99
Es	-1.430502	-1.094158	0.785267	99
Es	-3.109053	-0.648297	1.273667	99
Es	0.659713	-1.069129	0.352346	99
Es	-2.932996	-0.899896	1.461541	99
Es	1.580236	0.788606	-0.492447	99
Es	-1.621875	-0.352292	-0.269649	99
Es	-1.161190	-0.616549	0.234343	99
Es	0.544425	1.220840	-0.771429	99
Es	0.358021	-0.958449	-0.800340	99
Es	-1.350055	-0.560018	0.989061	99
Es	-2.955189	-0.823371	1.470953	99
Es	0.573149	0.012135	-0.124765	99
41
Properties=species:S:1:pos:R:3:Z:I:1 energy=-359.7320985325912 field_type=dipole dipole="0.000000 0.000000 0.000000" charge=0
O	-2.955461	-0.822420	1.470849	8
N	-1.569101	-0.995740	1.402389	7
C	-1.161251	-0.616550	0.234359	6
C	0.296409	-0.659550	-0.126771	6
C	0.886119	0.711970	-0.119271	6
C	1.928079	1.126270	-1.123441	6
O	0.550919	1.508950	-1.262881	8
H	-3.158031	-1.096380	2.384619	1
H	-1.855001	-0.218440	-0.527221	1
H	0.380669	-1.125310	-1.114861	1
H	0.831949	-1.289990	0.590799	1
H	0.877509	1.183900	0.855229	1
H	2.314659	0.392910	-1.820131	1
H	2.632539	1.900380	-0.843671	1
Es	-3.082691	-0.984743	1.963110	99
Es	0.868822	1.037730	0.540199	99
Es	0.551156	1.508604	-1.262768	99
Es	2.188621	0.638917	-1.609700	99
Es	0.561136	1.698527	-1.178949	99
Es	1.107947	1.443864	-1.351204	99
Es	-2.954071	-0.822493	1.471838	99
Es	-1.621802	-0.352291	-0.269372	99
Es	-1.386955	-1.141762	1.699495	99
Es	0.572911	0.011705	-0.124609	99
Es	0.358248	-0.958068	-0.800570	99
Es	0.886051	0.712107	-0.119540	99
Es	-3.108109	-0.646313	1.275594	99
Es	0.411702	1.387374	-1.440379	99
Es	-1.430734	-1.093944	0.785048	99
Es	-1.161190	-0.616549	0.234343	99
Es	-2.346901	-0.887407	1.431829	99
Es	1.927770	1.126341	-1.123457	99
Es	0.296347	-0.659515	-0.126754	99
Es	2.394448	1.654811	-0.945728	99
Es	1.580136	0.788805	-0.492602	99
Es	-1.569466	-0.995503	1.401905	99
Es	0.659709	-1.069160	0.352426	99
Es	-2.934747	-0.902480	1.459517	99
Es	0.543788	1.220734	-0.771412	99
Es	-1.349903	-0.559828	0.989365	99
Es	-0.438953	-0.634509	0.064862	99
