45
Properties=species:S:1:pos:R:3:Z:I:1 energy=-739.2634254194287 field_type=dipole dipole="0.000000 0.000000 0.000000" charge=0
C	-1.678107	0.391223	-0.484088	6
C	-0.176907	0.230263	-0.577118	6
O	0.506753	1.212943	0.235022	8
C	1.542593	0.327863	0.706902	6
S	0.572913	-1.081037	0.326602	16
O	-0.220487	-1.529087	1.455252	8
O	1.274053	-2.007867	-0.541658	8
H	-2.184857	-0.430817	-1.000758	1
H	-1.994047	1.327183	-0.955448	1
H	-2.023597	0.405123	0.553712	1
H	0.174983	0.272793	-1.614018	1
H	2.463033	0.422463	0.123472	1
H	1.743673	0.458953	1.772122	1
Es	1.676483	0.408869	1.415076	99
Es	-1.678026	0.391205	-0.484119	99
Es	-0.176790	0.230344	-0.576925	99
Es	1.542382	0.327922	0.706809	99
Es	0.677914	-1.132138	0.320834	99
Es	0.064312	-1.358023	1.024556	99
Es	1.273942	-2.007684	-0.541502	99
Es	-2.002669	-0.166289	-0.836750	99
Es	0.069361	0.241562	-1.265737	99
Es	0.506787	1.212664	0.234995	99
Es	0.632466	1.415375	0.051399	99
Es	0.098639	-0.443351	-0.200540	99
Es	0.567877	-0.990312	0.247498	99
Es	-0.276155	-1.236739	1.512593	99
Es	0.573145	-1.081085	0.326920	99
Es	1.356604	-1.742628	-0.685387	99
Es	-0.220454	-1.529049	1.455132	99
Es	0.556335	-1.039587	0.434729	99
Es	0.323947	1.260985	0.475175	99
Es	-0.912267	0.296876	-0.525999	99
Es	2.149313	0.373507	0.307957	99
Es	-0.384483	-1.683478	1.265284	99
Es	1.431541	-2.082718	-0.302829	99
Es	0.044897	-1.637637	1.543181	99
Es	0.489279	-1.162100	0.303069	99
Es	0.251035	0.837386	-0.077432	99
Es	0.995067	-1.686656	-0.207933	99
Es	-1.872393	1.019460	-0.806028	99
Es	-1.896976	0.399364	0.208881	99
Es	1.022266	-2.137066	-0.612927	99
Es	1.169254	-0.375675	0.583558	99
Es	0.911364	0.873133	0.414455	99
45
Properties=species:S:1:pos:R:3:Z:I:1 energy=-739.2634254194287 field_type=dipole dipole="0.000000 0.000000 0.000000" charge=0
C	-1.678107	0.391223	-0.484088	6
C	-0.176907	0.230263	-0.577118	6
O	0.506753	1.212943	0.235022	8
C	1.542593	0.327863	0.706902	6
S	0.572913	-1.081037	0.326602	16
O	-0.220487	-1.529087	1.455252	8
O	1.274053	-2.007867	-0.541658	8
H	-2.184857	-0.430817	-1.000758	1
H	-1.994047	1.327183	-0.955448	1
H	-2.023597	0.405123	0.553712	1
H	0.174983	0.272793	-1.614018	1
H	2.463033	0.422463	0.123472	1
H	1.743673	0.458953	1.772122	1
Es	-0.176789	0.230344	-0.576925	99
Es	0.319386	1.264204	0.479159	99
Es	1.169042	-0.374984	0.583718	99
Es	1.273926	-2.007688	-0.541503	99
Es	0.909655	0.872315	0.412779	99
Es	0.069584	0.241531	-1.266612	99
Es	0.623549	-1.076328	0.431942	99
Es	2.149951	0.373290	0.307437	99
Es	-2.001759	-0.165290	-0.836690	99
Es	-0.912233	0.296491	-0.526104	99
Es	0.634902	1.411747	0.050072	99
Es	0.254500	0.838384	-0.078046	99
Es	1.542376	0.327922	0.706809	99
Es	0.655539	-1.111047	0.239905	99
Es	-1.678024	0.391205	-0.484118	99
Es	-0.318559	-1.254962	1.536852	99
Es	0.506869	1.212553	0.234894	99
Es	0.572686	-1.081738	0.326245	99
Es	1.053815	-2.169850	-0.602131	99
Es	0.969879	-1.688402	-0.221110	99
Es	-1.872278	1.019098	-0.806764	99
Es	-0.342965	-1.705299	1.265437	99
Es	1.675992	0.408460	1.415165	99
Es	0.488905	-1.159510	0.331345	99
Es	0.098369	-0.442943	-0.200139	99
Es	-0.220332	-1.528979	1.455020	99
Es	1.364089	-1.748592	-0.697821	99
Es	0.053155	-1.340794	1.019895	99
Es	0.056782	-1.614901	1.523600	99
Es	-1.897637	0.399043	0.210201	99
Es	0.523862	-0.976621	0.303608	99
Es	1.417761	-2.042223	-0.288126	99
45
Properties=species:S:1:pos:R:3:Z:I:1 energy=-739.2634254194287 field_type=dipole dipole="0.000000 0.000000 0.000000" charge=0
C	-1.678107	0.391223	-0.484088	6
C	-0.176907	0.230263	-0.577118	6
O	0.506753	1.212943	0.235022	8
C	1.542593	0.327863	0.706902	6
S	0.572913	-1.081037	0.326602	16
O	-0.220487	-1.529087	1.455252	8
O	1.274053	-2.007867	-0.541658	8
H	-2.184857	-0.430817	-1.000758	1
H	-1.994047	1.327183	-0.955448	1
H	-2.023597	0.405123	0.553712	1
H	0.174983	0.272793	-1.614018	1
H	2.463033	0.422463	0.123472	1
H	1.743673	0.458953	1.772122	1
Es	-0.288430	-1.242379	1.547922	99
Es	1.041591	-1.682887	-0.168598	99
Es	1.168871	-0.374849	0.583818	99
Es	0.069789	0.241319	-1.266963	99
Es	-0.176790	0.230344	-0.576925	99
Es	-1.898072	0.399289	0.210738	99
Es	0.098214	-0.442605	-0.200128	99
Es	0.989797	-2.032412	-0.592419	99
Es	0.908266	0.872682	0.411595	99
Es	1.675580	0.408400	1.415014	99
Es	1.273874	-2.007629	-0.541445	99
Es	0.461187	-1.063617	0.373887	99
Es	-0.220202	-1.528939	1.455004	99
Es	1.389876	-2.179014	-0.355125	99
Es	-1.871917	1.018434	-0.806716	99
Es	-0.366507	-1.687387	1.270279	99
Es	0.041951	-1.632560	1.511474	99
Es	0.636839	1.407578	0.047787	99
Es	0.506791	1.212574	0.234978	99
Es	-2.001680	-0.165066	-0.837072	99
Es	1.384335	-1.754844	-0.693128	99
Es	-1.678026	0.391205	-0.484119	99
Es	1.542376	0.327925	0.706807	99
Es	-0.912221	0.296544	-0.526013	99
Es	0.640423	-0.997166	0.360215	99
Es	0.570588	-1.081881	0.205920	99
Es	0.061241	-1.353582	1.016195	99
Es	0.572892	-1.081058	0.326627	99
Es	0.317724	1.268447	0.481769	99
Es	0.255730	0.837667	-0.077076	99
Es	2.150422	0.373436	0.307295	99
Es	0.619486	-1.181530	0.366399	99
45
Properties=species:S:1:pos:R:3:Z:I:1 energy=-739.2634254194287 field_type=dipole dipole="0.000000 0.000000 0.000000" charge=0
C	-1.678107	0.391223	-0.484088	6
C	-0.176907	0.230263	-0.577118	6
O	0.506753	1.212943	0.235022	8
C	1.542593	0.327863	0.706902	6
S	0.572913	-1.081037	0.326602	16
O	-0.220487	-1.529087	1.455252	8
O	1.274053	-2.007867	-0.541658	8
H	-2.184857	-0.430817	-1.000758	1
H	-1.994047	1.327183	-0.955448	1
H	-2.023597	0.405123	0.553712	1
H	0.174983	0.272793	-1.614018	1
H	2.463033	0.422463	0.123472	1
H	1.743673	0.458953	1.772122	1
Es	0.315264	1.268783	0.482668	99
Es	0.528766	-0.968113	0.352986	99
Es	0.907594	0.872292	0.411300	99
Es	1.168805	-0.374675	0.584050	99
Es	-2.001159	-0.164684	-0.836540	99
Es	0.976466	-1.684052	-0.210991	99
Es	0.257850	0.838534	-0.076180	99
Es	-1.678025	0.391200	-0.484120	99
Es	-0.220249	-1.528954	1.454991	99
Es	1.049521	-2.161741	-0.585653	99
Es	1.542379	0.327923	0.706808	99
Es	1.675638	0.408221	1.414772	99
Es	1.416123	-2.045695	-0.298903	99
Es	-0.912158	0.296241	-0.526059	99
Es	0.572865	-1.081047	0.326564	99
Es	0.637488	1.406860	0.046339	99
Es	0.560665	-1.106684	0.211506	99
Es	-1.872162	1.018856	-0.807339	99
Es	-0.306637	-1.249146	1.551717	99
Es	0.058781	-1.348796	1.015644	99
Es	-0.348943	-1.684696	1.265189	99
Es	-1.898121	0.398947	0.210917	99
Es	0.045053	-1.633304	1.513297	99
Es	2.150506	0.373164	0.307185	99
Es	0.098238	-0.442782	-0.199909	99
Es	0.506842	1.212651	0.234950	99
Es	0.522495	-1.167760	0.394622	99
Es	0.069699	0.241536	-1.267120	99
Es	1.363513	-1.757643	-0.713648	99
Es	0.679770	-1.081666	0.347366	99
Es	1.273916	-2.007677	-0.541494	99
Es	-0.176786	0.230345	-0.576924	99
45
Properties=species:S:1:pos:R:3:Z:I:1 energy=-739.2634254194287 field_type=dipole dipole="0.000000 0.000000 0.000000" charge=0
C	-1.678107	0.391223	-0.484088	6
C	-0.176907	0.230263	-0.577118	6
O	0.506753	1.212943	0.235022	8
C	1.542593	0.327863	0.706902	6
S	0.572913	-1.081037	0.326602	16
O	-0.220487	-1.529087	1.455252	8
O	1.274053	-2.007867	-0.541658	8
H	-2.184857	-0.430817	-1.000758	1
H	-1.994047	1.327183	-0.955448	1
H	-2.023597	0.405123	0.553712	1
H	0.174983	0.272793	-1.614018	1
H	2.463033	0.422463	0.123472	1
H	1.743673	0.458953	1.772122	1
Es	-0.176788	0.230345	-0.576925	99
Es	-0.912183	0.296300	-0.526245	99
Es	0.996674	-2.022841	-0.586894	99
Es	-1.898158	0.399412	0.211111	99
Es	1.384458	-2.186543	-0.359725	99
Es	-2.001714	-0.164724	-0.836983	99
Es	0.098144	-0.442277	-0.200099	99
Es	0.487699	-1.160013	0.363188	99
Es	0.256741	0.837826	-0.076749	99
Es	1.542386	0.327921	0.706813	99
Es	2.150625	0.373347	0.307102	99
Es	0.649512	-1.113624	0.364048	99
Es	0.558957	-0.967125	0.375962	99
Es	1.273945	-2.007742	-0.541541	99
Es	-0.349177	-1.686732	1.254170	99
Es	0.907009	0.872348	0.411545	99
Es	0.573467	-1.081039	0.327073	99
Es	-1.678025	0.391205	-0.484118	99
Es	0.069970	0.241187	-1.267172	99
Es	0.036405	-1.632622	1.509078	99
Es	0.594925	-1.083498	0.202770	99
Es	0.506809	1.212637	0.234954	99
Es	1.385953	-1.755140	-0.696442	99
Es	-1.871865	1.018089	-0.806770	99
Es	0.069870	-1.343327	1.024831	99
Es	1.038501	-1.684506	-0.166144	99
Es	0.316280	1.270972	0.482721	99
Es	0.638446	1.405055	0.046714	99
Es	1.168765	-0.374682	0.584021	99
Es	1.675448	0.408381	1.414914	99
Es	-0.220374	-1.529029	1.454993	99
Es	-0.308706	-1.253122	1.557792	99
45
Properties=species:S:1:pos:R:3:Z:I:1 energy=-739.2634254194287 field_type=dipole dipole="0.000000 0.000000 0.000000" charge=0
C	-1.678107	0.391223	-0.484088	6
C	-0.176907	0.230263	-0.577118	6
O	0.506753	1.212943	0.235022	8
C	1.542593	0.327863	0.706902	6
S	0.572913	-1.081037	0.326602	16
O	-0.220487	-1.529087	1.455252	8
O	1.274053	-2.007867	-0.541658	8
H	-2.184857	-0.430817	-1.000758	1
H	-1.994047	1.327183	-0.955448	1
H	-2.023597	0.405123	0.553712	1
H	0.174983	0.272793	-1.614018	1
H	2.463033	0.422463	0.123472	1
H	1.743673	0.458953	1.772122	1
Es	0.572983	-1.081029	0.326650	99
Es	1.675458	0.408099	1.415319	99
Es	1.352436	-1.752815	-0.716305	99
Es	0.506815	1.212586	0.234959	99
Es	-0.176789	0.230343	-0.576924	99
Es	2.150552	0.372968	0.306902	99
Es	-1.898436	0.398781	0.211407	99
Es	1.273981	-2.007715	-0.541521	99
Es	0.497115	-1.062281	0.425333	99
Es	-1.872165	1.018490	-0.807418	99
Es	-0.912116	0.296144	-0.526234	99
Es	-0.319363	-1.257025	1.556263	99
Es	-2.000872	-0.164164	-0.836612	99
Es	0.315231	1.271016	0.482848	99
Es	0.098074	-0.442563	-0.199895	99
Es	0.671367	-1.043336	0.350400	99
Es	0.257361	0.839077	-0.076913	99
Es	1.104198	-2.222664	-0.572288	99
Es	-0.336114	-1.656320	1.240081	99
Es	0.948266	-1.699363	-0.226271	99
Es	0.585763	-1.197263	0.298807	99
Es	1.542378	0.327922	0.706805	99
Es	1.400673	-1.974232	-0.294341	99
Es	-1.678024	0.391205	-0.484119	99
Es	0.028828	-1.662049	1.520894	99
Es	0.069845	0.241440	-1.267385	99
Es	0.074968	-1.340399	1.028642	99
Es	1.168936	-0.374188	0.583925	99
Es	-0.220306	-1.528979	1.455022	99
Es	0.637429	1.404449	0.047112	99
Es	0.908185	0.871650	0.410989	99
Es	0.537341	-1.021347	0.231861	99
45
Properties=species:S:1:pos:R:3:Z:I:1 energy=-739.2634254194287 field_type=dipole dipole="0.000000 0.000000 0.000000" charge=0
C	-1.678107	0.391223	-0.484088	6
C	-0.176907	0.230263	-0.577118	6
O	0.506753	1.212943	0.235022	8
C	1.542593	0.327863	0.706902	6
S	0.572913	-1.081037	0.326602	16
O	-0.220487	-1.529087	1.455252	8
O	1.274053	-2.007867	-0.541658	8
H	-2.184857	-0.430817	-1.000758	1
H	-1.994047	1.327183	-0.955448	1
H	-2.023597	0.405123	0.553712	1
H	0.174983	0.272793	-1.614018	1
H	2.463033	0.422463	0.123472	1
H	1.743673	0.458953	1.772122	1
Es	-0.176790	0.230344	-0.576928	99
Es	1.675299	0.408358	1.415116	99
Es	0.316102	1.268402	0.484583	99
Es	0.537270	-1.000940	0.257888	99
Es	0.547923	-1.185096	0.275361	99
Es	-2.001589	-0.164349	-0.837251	99
Es	1.400771	-1.747516	-0.674569	99
Es	-0.911982	0.296327	-0.526130	99
Es	1.168747	-0.374420	0.584081	99
Es	-1.871784	1.017495	-0.806618	99
Es	0.257492	0.837946	-0.077850	99
Es	0.688775	-1.069518	0.334637	99
Es	0.573116	-1.081081	0.326382	99
Es	-0.310421	-1.259497	1.567432	99
Es	0.506784	1.212701	0.234954	99
Es	0.517419	-1.068650	0.438763	99
Es	0.997426	-1.972004	-0.588305	99
Es	0.070145	0.241009	-1.267405	99
Es	0.907432	0.872979	0.409519	99
Es	1.052958	-1.700829	-0.148084	99
Es	-1.678022	0.391207	-0.484120	99
Es	0.032578	-1.643599	1.504805	99
Es	0.098006	-0.441958	-0.200144	99
Es	1.354557	-2.228737	-0.398381	99
Es	-0.346155	-1.675093	1.246122	99
Es	2.150779	0.373257	0.306801	99
Es	1.273867	-2.007633	-0.541456	99
Es	-0.220217	-1.529007	1.454958	99
Es	1.542376	0.327925	0.706806	99
Es	0.072250	-1.337529	1.027621	99
Es	0.637553	1.406505	0.048045	99
Es	-1.898669	0.399440	0.211358	99
45
Properties=species:S:1:pos:R:3:Z:I:1 energy=-739.2634254194287 field_type=dipole dipole="0.000000 0.000000 0.000000" charge=0
C	-1.678107	0.391223	-0.484088	6
C	-0.176907	0.230263	-0.577118	6
O	0.506753	1.212943	0.235022	8
C	1.542593	0.327863	0.706902	6
S	0.572913	-1.081037	0.326602	16
O	-0.220487	-1.529087	1.455252	8
O	1.274053	-2.007867	-0.541658	8
H	-2.184857	-0.430817	-1.000758	1
H	-1.994047	1.327183	-0.955448	1
H	-2.023597	0.405123	0.553712	1
H	0.174983	0.272793	-1.614018	1
H	2.463033	0.422463	0.123472	1
H	1.743673	0.458953	1.772122	1
Es	-1.678025	0.391205	-0.484118	99
Es	0.061549	-1.344905	1.017338	99
Es	0.042117	-1.614870	1.499846	99
Es	0.907442	0.873349	0.410121	99
Es	-1.898329	0.399491	0.211477	99
Es	1.038438	-1.687588	-0.162157	99
Es	-2.001602	-0.164594	-0.837174	99
Es	0.637470	1.406251	0.047522	99
Es	0.069983	0.241140	-1.267457	99
Es	1.542373	0.327923	0.706806	99
Es	-0.176789	0.230344	-0.576925	99
Es	0.315356	1.268907	0.484160	99
Es	0.480683	-1.153479	0.341204	99
Es	1.000616	-2.010087	-0.585563	99
Es	0.644645	-1.113496	0.227510	99
Es	0.506833	1.212544	0.234952	99
Es	-0.912181	0.296226	-0.526181	99
Es	0.098050	-0.442142	-0.199993	99
Es	-0.313260	-1.254879	1.561440	99
Es	-1.871615	1.017852	-0.806832	99
Es	-0.220331	-1.528985	1.455028	99
Es	0.535882	-0.965302	0.324875	99
Es	1.675542	0.408375	1.415111	99
Es	1.375375	-2.196722	-0.367193	99
Es	0.572886	-1.081041	0.326589	99
Es	1.273910	-2.007659	-0.541485	99
Es	1.391174	-1.754690	-0.694430	99
Es	0.258165	0.837704	-0.077455	99
Es	2.150561	0.373176	0.306768	99
Es	1.168666	-0.374436	0.584078	99
Es	0.630417	-1.091977	0.412865	99
Es	-0.342005	-1.701199	1.267265	99
45
Properties=species:S:1:pos:R:3:Z:I:1 energy=-739.2634254194287 field_type=dipole dipole="0.000000 0.000000 0.000000" charge=0
C	-1.678107	0.391223	-0.484088	6
C	-0.176907	0.230263	-0.577118	6
O	0.506753	1.212943	0.235022	8
C	1.542593	0.327863	0.706902	6
S	0.572913	-1.081037	0.326602	16
O	-0.220487	-1.529087	1.455252	8
O	1.274053	-2.007867	-0.541658	8
H	-2.184857	-0.430817	-1.000758	1
H	-1.994047	1.327183	-0.955448	1
H	-2.023597	0.405123	0.553712	1
H	0.174983	0.272793	-1.614018	1
H	2.463033	0.422463	0.123472	1
H	1.743673	0.458953	1.772122	1
Es	0.636149	1.406472	0.047586	99
Es	-0.912123	0.296492	-0.526081	99
Es	1.542379	0.327923	0.706806	99
Es	2.150596	0.373297	0.306803	99
Es	-0.176790	0.230343	-0.576926	99
Es	1.360709	-2.220600	-0.388504	99
Es	0.661297	-1.039578	0.382075	99
Es	-1.898549	0.399667	0.211467	99
Es	1.397496	-1.749097	-0.682448	99
Es	-0.337164	-1.694566	1.256345	99
Es	0.070136	0.240977	-1.267471	99
Es	0.316581	1.268432	0.484775	99
Es	0.481718	-1.005089	0.340614	99
Es	-2.001712	-0.164627	-0.837460	99
Es	0.039161	-1.621650	1.499818	99
Es	0.257179	0.837312	-0.077054	99
Es	0.908630	0.873753	0.409024	99
Es	-1.871574	1.017364	-0.806528	99
Es	-0.220298	-1.528986	1.455001	99
Es	1.044714	-1.696516	-0.153062	99
Es	0.572884	-1.080848	0.326940	99
Es	1.002754	-1.982830	-0.585419	99
Es	0.065892	-1.337674	1.022787	99
Es	-0.319568	-1.261898	1.566962	99
Es	0.506823	1.212606	0.234955	99
Es	1.273865	-2.007678	-0.541400	99
Es	1.675410	0.408301	1.415284	99
Es	1.168796	-0.374410	0.583895	99
Es	0.602586	-1.098493	0.206092	99
Es	0.546078	-1.181257	0.377314	99
Es	0.097969	-0.441909	-0.200083	99
Es	-1.678026	0.391205	-0.484118	99
45
Properties=species:S:1:pos:R:3:Z:I:1 energy=-739.2634254194287 field_type=dipole dipole="0.000000 0.000000 0.000000" charge=0
C	-1.678107	0.391223	-0.484088	6
C	-0.176907	0.230263	-0.577118	6
O	0.506753	1.212943	0.235022	8
C	1.542593	0.327863	0.706902	6
S	0.572913	-1.081037	0.326602	16
O	-0.220487	-1.529087	1.455252	8
O	1.274053	-2.007867	-0.541658	8
H	-2.184857	-0.430817	-1.000758	1
H	-1.994047	1.327183	-0.955448	1
H	-2.023597	0.405123	0.553712	1
H	0.174983	0.272793	-1.614018	1
H	2.463033	0.422463	0.123472	1
H	1.743673	0.458953	1.772122	1
Es	1.048960	-1.698570	-0.150561	99
Es	0.097992	-0.441913	-0.200107	99
Es	-0.315506	-1.255403	1.558875	99
Es	0.060871	-1.345787	1.014857	99
Es	1.542382	0.327922	0.706809	99
Es	1.168765	-0.374282	0.584047	99
Es	-1.871645	1.017464	-0.806629	99
Es	1.273846	-2.007690	-0.541363	99
Es	0.632547	-0.984095	0.312038	99
Es	0.998622	-1.984791	-0.584390	99
Es	0.070210	0.240975	-1.267431	99
Es	-1.898675	0.399459	0.211532	99
Es	0.257447	0.837457	-0.076836	99
Es	2.150665	0.373140	0.306700	99
Es	-0.912136	0.296289	-0.526196	99
Es	-0.220282	-1.528939	1.454983	99
Es	0.042583	-1.610557	1.501035	99
Es	-0.339651	-1.704050	1.271188	99
Es	1.364586	-2.218832	-0.390973	99
Es	1.393574	-1.746838	-0.683506	99
Es	0.315989	1.270533	0.485292	99
Es	0.521839	-1.088465	0.443642	99
Es	0.635577	1.404039	0.047308	99
Es	-1.678025	0.391205	-0.484118	99
Es	0.496226	-1.073685	0.258913	99
Es	0.506867	1.212596	0.234925	99
Es	0.909410	0.873916	0.408524	99
Es	-0.176789	0.230346	-0.576923	99
Es	1.675411	0.408280	1.415230	99
Es	0.640995	-1.177811	0.291800	99
Es	-2.001597	-0.164264	-0.837314	99
Es	0.572938	-1.081209	0.326641	99
45
Properties=species:S:1:pos:R:3:Z:I:1 energy=-739.2634254194287 field_type=dipole dipole="0.000000 0.000000 0.000000" charge=0
C	-1.678107	0.391223	-0.484088	6
C	-0.176907	0.230263	-0.577118	6
O	0.506753	1.212943	0.235022	8
C	1.542593	0.327863	0.706902	6
S	0.572913	-1.081037	0.326602	16
O	-0.220487	-1.529087	1.455252	8
O	1.274053	-2.007867	-0.541658	8
H	-2.184857	-0.430817	-1.000758	1
H	-1.994047	1.327183	-0.955448	1
H	-2.023597	0.405123	0.553712	1
H	0.174983	0.272793	-1.614018	1
H	2.463033	0.422463	0.123472	1
H	1.743673	0.458953	1.772122	1
Es	0.098024	-0.441966	-0.200011	99
Es	-1.898513	0.399526	0.211502	99
Es	2.150694	0.373210	0.306774	99
Es	1.401340	-1.760688	-0.692192	99
Es	0.257581	0.837896	-0.076487	99
Es	0.506824	1.212693	0.234976	99
Es	0.066444	-1.338390	1.023437	99
Es	1.675450	0.408355	1.414997	99
Es	0.070209	0.241037	-1.267432	99
Es	0.569076	-0.981754	0.391639	99
Es	0.476848	-1.150992	0.350380	99
Es	-0.315081	-1.260807	1.570589	99
Es	0.906692	0.872786	0.409407	99
Es	0.572836	-1.081012	0.326621	99
Es	1.542375	0.327925	0.706807	99
Es	1.043673	-1.685949	-0.159855	99
Es	-0.176792	0.230342	-0.576928	99
Es	-0.912134	0.296406	-0.526248	99
Es	0.638773	1.402202	0.046044	99
Es	-0.340658	-1.690557	1.254824	99
Es	-1.678028	0.391208	-0.484119	99
Es	-1.871767	1.017548	-0.806781	99
Es	1.168658	-0.374445	0.584142	99
Es	0.579460	-1.054054	0.208644	99
Es	0.315342	1.273084	0.485376	99
Es	0.037632	-1.626043	1.497031	99
Es	0.666314	-1.137504	0.355757	99
Es	-0.220323	-1.528971	1.455008	99
Es	1.273891	-2.007738	-0.541522	99
Es	-2.001507	-0.164516	-0.837175	99
Es	1.357145	-2.213120	-0.374721	99
Es	1.003517	-1.989274	-0.582491	99
45
Properties=species:S:1:pos:R:3:Z:I:1 energy=-739.2634254194287 field_type=dipole dipole="0.000000 0.000000 0.000000" charge=0
C	-1.678107	0.391223	-0.484088	6
C	-0.176907	0.230263	-0.577118	6
O	0.506753	1.212943	0.235022	8
C	1.542593	0.327863	0.706902	6
S	0.572913	-1.081037	0.326602	16
O	-0.220487	-1.529087	1.455252	8
O	1.274053	-2.007867	-0.541658	8
H	-2.184857	-0.430817	-1.000758	1
H	-1.994047	1.327183	-0.955448	1
H	-2.023597	0.405123	0.553712	1
H	0.174983	0.272793	-1.614018	1
H	2.463033	0.422463	0.123472	1
H	1.743673	0.458953	1.772122	1
Es	0.599122	-1.170649	0.402979	99
Es	1.356952	-1.756899	-0.718328	99
Es	0.097884	-0.442444	-0.199730	99
Es	0.572415	-1.080779	0.326451	99
Es	0.030150	-1.665744	1.507259	99
Es	0.071075	-1.334372	1.028090	99
Es	0.259008	0.839216	-0.077576	99
Es	1.168992	-0.373694	0.583814	99
Es	-1.898621	0.398943	0.211809	99
Es	-0.329636	-1.650095	1.238668	99
Es	-2.000803	-0.163922	-0.836662	99
Es	0.615773	-1.101068	0.209829	99
Es	-1.678025	0.391205	-0.484119	99
Es	0.506835	1.212599	0.234959	99
Es	0.908726	0.872318	0.409900	99
Es	-0.323224	-1.265579	1.571919	99
Es	-0.176792	0.230342	-0.576928	99
Es	-0.220300	-1.528970	1.455002	99
Es	1.387663	-1.954642	-0.292093	99
Es	1.675541	0.407921	1.415779	99
Es	1.273753	-2.007563	-0.541511	99
Es	0.636535	1.405042	0.047761	99
Es	2.150374	0.372738	0.306571	99
Es	0.069934	0.241349	-1.267645	99
Es	0.938484	-1.700832	-0.236377	99
Es	1.122677	-2.236811	-0.562538	99
Es	0.616096	-0.985747	0.368074	99
Es	0.313837	1.269425	0.483953	99
Es	-0.912086	0.296102	-0.526303	99
Es	0.461204	-1.067062	0.325736	99
Es	-1.871922	1.018185	-0.807559	99
Es	1.542376	0.327925	0.706806	99
45
Properties=species:S:1:pos:R:3:Z:I:1 energy=-739.2634254194287 field_type=dipole dipole="0.000000 0.000000 0.000000" charge=0
C	-1.678107	0.391223	-0.484088	6
C	-0.176907	0.230263	-0.577118	6
O	0.506753	1.212943	0.235022	8
C	1.542593	0.327863	0.706902	6
S	0.572913	-1.081037	0.326602	16
O	-0.220487	-1.529087	1.455252	8
O	1.274053	-2.007867	-0.541658	8
H	-2.184857	-0.430817	-1.000758	1
H	-1.994047	1.327183	-0.955448	1
H	-2.023597	0.405123	0.553712	1
H	0.174983	0.272793	-1.614018	1
H	2.463033	0.422463	0.123472	1
H	1.743673	0.458953	1.772122	1
Es	1.126332	-2.237273	-0.558254	99
Es	0.572848	-1.172896	0.406369	99
Es	0.571998	-1.081035	0.326674	99
Es	0.615821	-0.983403	0.376803	99
Es	0.258789	0.838471	-0.075739	99
Es	1.542376	0.327925	0.706806	99
Es	-0.334811	-1.652084	1.244036	99
Es	-1.678025	0.391205	-0.484119	99
Es	0.636946	1.403030	0.045645	99
Es	-1.898799	0.398838	0.211881	99
Es	-1.872058	1.017998	-0.807526	99
Es	1.273930	-2.007697	-0.541516	99
Es	1.395285	-1.950990	-0.296304	99
Es	2.150619	0.372784	0.306557	99
Es	0.471878	-1.059645	0.303779	99
Es	0.506854	1.212586	0.234960	99
Es	-0.176788	0.230346	-0.576922	99
Es	-0.911963	0.295944	-0.526459	99
Es	0.938848	-1.704350	-0.231442	99
Es	0.075063	-1.344979	1.024654	99
Es	0.097944	-0.442344	-0.199797	99
Es	0.070023	0.241336	-1.267637	99
Es	0.313834	1.271978	0.483966	99
Es	1.345195	-1.756412	-0.723304	99
Es	-0.220321	-1.528975	1.455012	99
Es	1.675371	0.407977	1.415564	99
Es	0.908490	0.872440	0.410206	99
Es	0.632052	-1.108301	0.219419	99
Es	-0.317631	-1.255751	1.561929	99
Es	1.168942	-0.373767	0.584007	99
Es	0.025708	-1.662960	1.515312	99
Es	-2.000754	-0.163558	-0.836564	99
45
Properties=species:S:1:pos:R:3:Z:I:1 energy=-739.2634254194287 field_type=dipole dipole="0.000000 0.000000 0.000000" charge=0
C	-1.678107	0.391223	-0.484088	6
C	-0.176907	0.230263	-0.577118	6
O	0.506753	1.212943	0.235022	8
C	1.542593	0.327863	0.706902	6
S	0.572913	-1.081037	0.326602	16
O	-0.220487	-1.529087	1.455252	8
O	1.274053	-2.007867	-0.541658	8
H	-2.184857	-0.430817	-1.000758	1
H	-1.994047	1.327183	-0.955448	1
H	-2.023597	0.405123	0.553712	1
H	0.174983	0.272793	-1.614018	1
H	2.463033	0.422463	0.123472	1
H	1.743673	0.458953	1.772122	1
Es	1.273912	-2.007660	-0.541463	99
Es	1.397065	-1.940958	-0.299567	99
Es	0.907982	0.871945	0.409837	99
Es	0.637404	1.405156	0.048764	99
Es	1.168940	-0.373710	0.583861	99
Es	0.259288	0.839708	-0.078775	99
Es	-0.321670	-1.265039	1.572640	99
Es	2.150414	0.372704	0.306546	99
Es	-2.000803	-0.163834	-0.836747	99
Es	0.097970	-0.442208	-0.199859	99
Es	1.675477	0.408002	1.415834	99
Es	-1.898884	0.399082	0.211822	99
Es	0.070061	0.241259	-1.267639	99
Es	0.073966	-1.334954	1.029390	99
Es	0.494139	-1.105263	0.259465	99
Es	-0.331488	-1.650491	1.237401	99
Es	0.531870	-1.100995	0.442822	99
Es	0.506835	1.212599	0.234987	99
Es	-0.912020	0.296088	-0.526247	99
Es	0.936412	-1.711305	-0.229663	99
Es	1.542381	0.327922	0.706809	99
Es	-0.176789	0.230344	-0.576925	99
Es	1.137672	-2.244600	-0.556352	99
Es	0.313525	1.269117	0.484153	99
Es	0.596235	-0.969280	0.309415	99
Es	-0.220325	-1.528980	1.455020	99
Es	0.572656	-1.079539	0.325216	99
Es	0.027573	-1.665252	1.506508	99
Es	-1.871939	1.017796	-0.807465	99
Es	0.669661	-1.150229	0.296139	99
Es	1.334506	-1.752191	-0.723815	99
Es	-1.678027	0.391204	-0.484120	99
