50
Properties=species:S:1:pos:R:3:Z:I:1 energy=-704.6453315024488 field_type=dipole dipole="0.000000 0.000000 0.000000" charge=0
C	-2.279668	-1.303090	0.136516	6
C	-0.761688	-1.249340	0.178716	6
C	-0.250878	0.171320	-0.022204	6
S	1.533562	0.240450	0.036586	16
C	1.871933	1.953880	-0.284364	6
O	1.951962	-0.041290	1.396096	8
O	2.053473	-0.522280	-1.082524	8
H	-2.626368	-2.332450	0.269996	1
H	-2.658698	-0.938750	-0.823534	1
H	-2.715758	-0.691650	0.932966	1
H	-0.355508	-1.907100	-0.598274	1
H	-0.411438	-1.642730	1.139886	1
H	-0.626288	0.836560	0.761316	1
H	-0.557548	0.559140	-0.999134	1
H	1.473463	2.213800	-1.266663	1
H	2.954153	2.095420	-0.270984	1
H	1.405292	2.558110	0.495596	1
Es	1.552568	2.343245	0.236224	99
Es	-2.279628	-1.303081	0.136516	99
Es	2.325799	-0.423500	-1.021909	99
Es	-0.250744	0.171323	-0.022200	99
Es	1.546579	0.215787	-0.079487	99
Es	-0.526721	-1.505117	0.829412	99
Es	2.231060	0.026811	1.327684	99
Es	-2.533462	-1.050068	-0.519891	99
Es	1.935226	-0.772463	-0.982273	99
Es	-0.761695	-1.249231	0.178701	99
Es	1.812251	0.043612	0.882860	99
Es	1.864999	-0.323700	-1.236309	99
Es	2.053405	-0.522165	-1.082358	99
Es	1.834277	-0.312558	1.378714	99
Es	1.597859	2.114223	-0.935349	99
Es	-2.572757	-0.881201	0.679985	99
Es	1.871896	1.953765	-0.284343	99
Es	1.460274	0.161526	0.086113	99
Es	1.637678	0.233394	0.089088	99
Es	-1.516308	-1.258089	0.155223	99
Es	-2.510153	-2.001561	0.227268	99
Es	-0.441521	0.436447	-0.678726	99
Es	1.489594	0.351224	0.050565	99
Es	2.580866	2.029911	-0.272130	99
Es	-0.487801	0.622899	0.503364	99
Es	0.577630	0.208678	0.003768	99
Es	-0.489116	-1.684573	-0.350101	99
Es	1.873081	-0.260612	-0.647476	99
Es	1.756113	0.195012	1.454382	99
Es	1.705925	1.175002	-0.138513	99
Es	1.533565	0.240441	0.036594	99
Es	-0.474094	-0.513108	0.076165	99
Es	1.951873	-0.041230	1.395818	99
50
Properties=species:S:1:pos:R:3:Z:I:1 energy=-704.6453315024488 field_type=dipole dipole="0.000000 0.000000 0.000000" charge=0
C	-2.279668	-1.303090	0.136516	6
C	-0.761688	-1.249340	0.178716	6
C	-0.250878	0.171320	-0.022204	6
S	1.533562	0.240450	0.036586	16
C	1.871933	1.953880	-0.284364	6
O	1.951962	-0.041290	1.396096	8
O	2.053473	-0.522280	-1.082524	8
H	-2.626368	-2.332450	0.269996	1
H	-2.658698	-0.938750	-0.823534	1
H	-2.715758	-0.691650	0.932966	1
H	-0.355508	-1.907100	-0.598274	1
H	-0.411438	-1.642730	1.139886	1
H	-0.626288	0.836560	0.761316	1
H	-0.557548	0.559140	-0.999134	1
H	1.473463	2.213800	-1.266663	1
H	2.954153	2.095420	-0.270984	1
H	1.405292	2.558110	0.495596	1
Es	1.867707	-0.258378	-0.644057	99
Es	1.641166	0.242254	0.077478	99
Es	-0.473853	-0.512913	0.076179	99
Es	1.805744	0.040751	0.878606	99
Es	1.468921	0.321347	0.096079	99
Es	-2.572900	-0.881032	0.681394	99
Es	2.053351	-0.522109	-1.082300	99
Es	1.756213	0.193893	1.472550	99
Es	-0.250743	0.171323	-0.022201	99
Es	1.490135	0.135395	0.057872	99
Es	-0.487986	0.623057	0.504763	99
Es	1.951849	-0.041274	1.395741	99
Es	-2.508952	-2.000683	0.227132	99
Es	-0.489320	-1.684840	-0.351611	99
Es	1.707140	1.175721	-0.138600	99
Es	-2.533418	-1.050376	-0.521204	99
Es	-2.279629	-1.303080	0.136516	99
Es	2.222834	0.026336	1.317721	99
Es	1.598117	2.114076	-0.936904	99
Es	1.871897	1.953766	-0.284343	99
Es	1.533447	0.240731	0.036493	99
Es	2.314314	-0.412720	-1.020267	99
Es	2.579319	2.028759	-0.271977	99
Es	1.858380	-0.341206	-1.252879	99
Es	-0.761697	-1.249229	0.178700	99
Es	1.958637	-0.767989	-0.970998	99
Es	-0.526878	-1.505109	0.830703	99
Es	1.848830	-0.308009	1.374971	99
Es	0.576559	0.207821	0.003990	99
Es	-0.441380	0.436234	-0.680183	99
Es	-1.516097	-1.257862	0.155290	99
Es	1.534086	0.262660	-0.085002	99
Es	1.552721	2.343730	0.237728	99
50
Properties=species:S:1:pos:R:3:Z:I:1 energy=-704.6453315024488 field_type=dipole dipole="0.000000 0.000000 0.000000" charge=0
C	-2.279668	-1.303090	0.136516	6
C	-0.761688	-1.249340	0.178716	6
C	-0.250878	0.171320	-0.022204	6
S	1.533562	0.240450	0.036586	16
C	1.871933	1.953880	-0.284364	6
O	1.951962	-0.041290	1.396096	8
O	2.053473	-0.522280	-1.082524	8
H	-2.626368	-2.332450	0.269996	1
H	-2.658698	-0.938750	-0.823534	1
H	-2.715758	-0.691650	0.932966	1
H	-0.355508	-1.907100	-0.598274	1
H	-0.411438	-1.642730	1.139886	1
H	-0.626288	0.836560	0.761316	1
H	-0.557548	0.559140	-0.999134	1
H	1.473463	2.213800	-1.266663	1
H	2.954153	2.095420	-0.270984	1
H	1.405292	2.558110	0.495596	1
Es	1.865311	-0.253523	-0.645207	99
Es	1.874295	-0.338245	-1.268075	99
Es	1.436215	0.213209	0.096173	99
Es	-2.508248	-1.999964	0.227012	99
Es	-2.533449	-1.050697	-0.521889	99
Es	-0.441374	0.436036	-0.680738	99
Es	-0.761697	-1.249230	0.178701	99
Es	1.625180	0.188540	0.088561	99
Es	1.951861	-0.041307	1.395756	99
Es	1.848744	-0.303896	1.376298	99
Es	1.598241	2.114056	-0.937560	99
Es	1.523939	0.203199	-0.079227	99
Es	-0.526945	-1.504971	0.831247	99
Es	-0.250742	0.171323	-0.022201	99
Es	-0.488034	0.623157	0.505403	99
Es	2.053379	-0.522130	-1.082302	99
Es	0.576105	0.207396	0.003989	99
Es	-2.279630	-1.303082	0.136516	99
Es	-0.489317	-1.684952	-0.352233	99
Es	1.552796	2.343838	0.238390	99
Es	2.217721	0.020014	1.314049	99
Es	-1.516030	-1.257958	0.155298	99
Es	1.871896	1.953767	-0.284343	99
Es	2.309918	-0.427040	-1.005316	99
Es	1.548834	0.356973	0.040791	99
Es	1.806316	0.037888	0.875700	99
Es	1.707514	1.176207	-0.138726	99
Es	-2.573077	-0.881003	0.682203	99
Es	-0.473809	-0.512818	0.076184	99
Es	2.578771	2.028137	-0.271846	99
Es	1.533608	0.240459	0.036585	99
Es	1.760751	0.199072	1.477866	99
Es	1.949475	-0.761412	-0.969678	99
50
Properties=species:S:1:pos:R:3:Z:I:1 energy=-704.6453315024488 field_type=dipole dipole="0.000000 0.000000 0.000000" charge=0
C	-2.279668	-1.303090	0.136516	6
C	-0.761688	-1.249340	0.178716	6
C	-0.250878	0.171320	-0.022204	6
S	1.533562	0.240450	0.036586	16
C	1.871933	1.953880	-0.284364	6
O	1.951962	-0.041290	1.396096	8
O	2.053473	-0.522280	-1.082524	8
H	-2.626368	-2.332450	0.269996	1
H	-2.658698	-0.938750	-0.823534	1
H	-2.715758	-0.691650	0.932966	1
H	-0.355508	-1.907100	-0.598274	1
H	-0.411438	-1.642730	1.139886	1
H	-0.626288	0.836560	0.761316	1
H	-0.557548	0.559140	-0.999134	1
H	1.473463	2.213800	-1.266663	1
H	2.954153	2.095420	-0.270984	1
H	1.405292	2.558110	0.495596	1
Es	1.764834	0.195034	1.494482	99
Es	-0.761696	-1.249230	0.178700	99
Es	-0.527154	-1.504981	0.831502	99
Es	1.707796	1.176270	-0.138691	99
Es	1.951887	-0.041209	1.395800	99
Es	1.807132	0.048221	0.874700	99
Es	2.213912	0.010517	1.312762	99
Es	1.533404	0.240262	0.036517	99
Es	-2.508010	-1.999903	0.226993	99
Es	1.552954	2.343935	0.238663	99
Es	1.592469	0.150014	-0.014015	99
Es	2.306152	-0.415341	-1.008830	99
Es	2.578295	2.027916	-0.271788	99
Es	-0.250745	0.171323	-0.022201	99
Es	-0.441249	0.436017	-0.680969	99
Es	1.862353	-0.253831	-0.645101	99
Es	2.053403	-0.522209	-1.082323	99
Es	1.465403	0.201176	0.129331	99
Es	-0.473707	-0.512808	0.076166	99
Es	1.847565	-0.300732	1.361964	99
Es	1.964967	-0.759107	-0.961533	99
Es	1.466092	0.293980	-0.044311	99
Es	-1.515920	-1.257868	0.155233	99
Es	1.871897	1.953764	-0.284342	99
Es	-2.572992	-0.880977	0.682492	99
Es	1.865443	-0.351846	-1.272834	99
Es	-2.533430	-1.050700	-0.522107	99
Es	-0.488021	0.623243	0.505644	99
Es	1.598347	2.114107	-0.937918	99
Es	1.610414	0.316912	0.075391	99
Es	0.575789	0.207292	0.003976	99
Es	-0.489439	-1.685118	-0.352489	99
Es	-2.279629	-1.303080	0.136515	99
50
Properties=species:S:1:pos:R:3:Z:I:1 energy=-704.6453315024488 field_type=dipole dipole="0.000000 0.000000 0.000000" charge=0
C	-2.279668	-1.303090	0.136516	6
C	-0.761688	-1.249340	0.178716	6
C	-0.250878	0.171320	-0.022204	6
S	1.533562	0.240450	0.036586	16
C	1.871933	1.953880	-0.284364	6
O	1.951962	-0.041290	1.396096	8
O	2.053473	-0.522280	-1.082524	8
H	-2.626368	-2.332450	0.269996	1
H	-2.658698	-0.938750	-0.823534	1
H	-2.715758	-0.691650	0.932966	1
H	-0.355508	-1.907100	-0.598274	1
H	-0.411438	-1.642730	1.139886	1
H	-0.626288	0.836560	0.761316	1
H	-0.557548	0.559140	-0.999134	1
H	1.473463	2.213800	-1.266663	1
H	2.954153	2.095420	-0.270984	1
H	1.405292	2.558110	0.495596	1
Es	2.306495	-0.435053	-1.002747	99
Es	2.214502	0.013895	1.315808	99
Es	1.707901	1.176463	-0.138843	99
Es	1.528899	0.333695	0.117168	99
Es	-0.473752	-0.512740	0.076156	99
Es	1.850346	-0.300784	1.359546	99
Es	1.867290	-0.249977	-0.643566	99
Es	-0.488069	0.623299	0.505889	99
Es	-0.441221	0.435917	-0.681079	99
Es	-2.533308	-1.050841	-0.522216	99
Es	1.877687	-0.342106	-1.277164	99
Es	-0.527167	-1.504930	0.831634	99
Es	-1.515862	-1.257950	0.155270	99
Es	1.534045	0.239916	0.036538	99
Es	-0.489389	-1.685120	-0.352714	99
Es	1.458832	0.160639	0.066939	99
Es	1.951980	-0.041195	1.395910	99
Es	-2.507905	-1.999760	0.226937	99
Es	-2.279631	-1.303081	0.136515	99
Es	-0.761696	-1.249230	0.178700	99
Es	1.598475	2.114035	-0.938038	99
Es	2.578193	2.027679	-0.271769	99
Es	1.947496	-0.753031	-0.964940	99
Es	-0.250745	0.171325	-0.022202	99
Es	1.552850	2.344010	0.238928	99
Es	1.760039	0.191453	1.494159	99
Es	1.808468	0.048527	0.874283	99
Es	1.630959	0.193569	0.045346	99
Es	1.515027	0.274524	-0.083094	99
Es	-2.573096	-0.880860	0.682645	99
Es	0.575637	0.207096	0.003993	99
Es	1.871897	1.953766	-0.284343	99
Es	2.053340	-0.522104	-1.082270	99
50
Properties=species:S:1:pos:R:3:Z:I:1 energy=-704.6453315024488 field_type=dipole dipole="0.000000 0.000000 0.000000" charge=0
C	-2.279668	-1.303090	0.136516	6
C	-0.761688	-1.249340	0.178716	6
C	-0.250878	0.171320	-0.022204	6
S	1.533562	0.240450	0.036586	16
C	1.871933	1.953880	-0.284364	6
O	1.951962	-0.041290	1.396096	8
O	2.053473	-0.522280	-1.082524	8
H	-2.626368	-2.332450	0.269996	1
H	-2.658698	-0.938750	-0.823534	1
H	-2.715758	-0.691650	0.932966	1
H	-0.355508	-1.907100	-0.598274	1
H	-0.411438	-1.642730	1.139886	1
H	-0.626288	0.836560	0.761316	1
H	-0.557548	0.559140	-0.999134	1
H	1.473463	2.213800	-1.266663	1
H	2.954153	2.095420	-0.270984	1
H	1.405292	2.558110	0.495596	1
Es	2.053375	-0.522130	-1.082338	99
Es	1.552981	2.343994	0.239022	99
Es	1.490982	0.339933	0.012011	99
Es	1.955219	-0.753839	-0.965912	99
Es	1.525053	0.220581	0.160252	99
Es	-2.507655	-1.999645	0.226937	99
Es	1.760546	0.190010	1.499252	99
Es	-0.473760	-0.512798	0.076186	99
Es	-0.250743	0.171323	-0.022201	99
Es	1.707961	1.176619	-0.138781	99
Es	-0.441210	0.435961	-0.681198	99
Es	1.642488	0.244728	0.004541	99
Es	2.302476	-0.429090	-1.001911	99
Es	-0.489424	-1.685193	-0.352831	99
Es	-2.533341	-1.050908	-0.522407	99
Es	-2.573128	-0.880899	0.682831	99
Es	1.871896	1.953766	-0.284343	99
Es	-0.527226	-1.504889	0.831744	99
Es	1.598277	2.113974	-0.938108	99
Es	2.210978	0.018288	1.309550	99
Es	-0.487972	0.623308	0.505970	99
Es	1.864679	-0.252637	-0.641607	99
Es	1.951926	-0.041238	1.395933	99
Es	1.876536	-0.344594	-1.278916	99
Es	1.857793	-0.301663	1.360357	99
Es	0.575508	0.207042	0.003970	99
Es	1.804038	0.046499	0.874641	99
Es	1.475556	0.156599	-0.030438	99
Es	-0.761697	-1.249232	0.178700	99
Es	1.533724	0.240515	0.036542	99
Es	-1.515908	-1.257851	0.155283	99
Es	-2.279628	-1.303079	0.136516	99
Es	2.578215	2.027589	-0.271867	99
50
Properties=species:S:1:pos:R:3:Z:I:1 energy=-704.6453315024488 field_type=dipole dipole="0.000000 0.000000 0.000000" charge=0
C	-2.279668	-1.303090	0.136516	6
C	-0.761688	-1.249340	0.178716	6
C	-0.250878	0.171320	-0.022204	6
S	1.533562	0.240450	0.036586	16
C	1.871933	1.953880	-0.284364	6
O	1.951962	-0.041290	1.396096	8
O	2.053473	-0.522280	-1.082524	8
H	-2.626368	-2.332450	0.269996	1
H	-2.658698	-0.938750	-0.823534	1
H	-2.715758	-0.691650	0.932966	1
H	-0.355508	-1.907100	-0.598274	1
H	-0.411438	-1.642730	1.139886	1
H	-0.626288	0.836560	0.761316	1
H	-0.557548	0.559140	-0.999134	1
H	1.473463	2.213800	-1.266663	1
H	2.954153	2.095420	-0.270984	1
H	1.405292	2.558110	0.495596	1
Es	1.964877	-0.750229	-0.956904	99
Es	1.861559	-0.251453	-0.644139	99
Es	2.053358	-0.522116	-1.082295	99
Es	-0.473611	-0.512710	0.076158	99
Es	1.533572	0.240403	0.036591	99
Es	1.521455	0.150811	-0.049952	99
Es	-0.250744	0.171326	-0.022201	99
Es	-0.761697	-1.249230	0.178700	99
Es	-2.533301	-1.050993	-0.522436	99
Es	2.302158	-0.421265	-1.003354	99
Es	1.871895	1.953765	-0.284342	99
Es	1.870302	-0.357215	-1.284007	99
Es	1.550832	0.199166	0.153389	99
Es	1.806035	0.051968	0.874992	99
Es	-0.527321	-1.504860	0.831706	99
Es	-2.573154	-0.880818	0.682826	99
Es	0.575434	0.207067	0.003964	99
Es	-2.507618	-1.999654	0.226976	99
Es	1.951824	-0.041196	1.395703	99
Es	1.766413	0.192057	1.504122	99
Es	-2.279628	-1.303080	0.136516	99
Es	-0.488078	0.623332	0.506042	99
Es	-1.515884	-1.257866	0.155303	99
Es	1.616494	0.314222	0.007158	99
Es	1.445422	0.297750	0.035729	99
Es	2.210579	0.008957	1.309199	99
Es	1.552919	2.344066	0.239072	99
Es	1.598453	2.113963	-0.938211	99
Es	1.850411	-0.299834	1.355718	99
Es	-0.489414	-1.685290	-0.352826	99
Es	2.578050	2.027537	-0.271785	99
Es	-0.441170	0.435872	-0.681225	99
Es	1.708092	1.176589	-0.138802	99
50
Properties=species:S:1:pos:R:3:Z:I:1 energy=-704.6453315024488 field_type=dipole dipole="0.000000 0.000000 0.000000" charge=0
C	-2.279668	-1.303090	0.136516	6
C	-0.761688	-1.249340	0.178716	6
C	-0.250878	0.171320	-0.022204	6
S	1.533562	0.240450	0.036586	16
C	1.871933	1.953880	-0.284364	6
O	1.951962	-0.041290	1.396096	8
O	2.053473	-0.522280	-1.082524	8
H	-2.626368	-2.332450	0.269996	1
H	-2.658698	-0.938750	-0.823534	1
H	-2.715758	-0.691650	0.932966	1
H	-0.355508	-1.907100	-0.598274	1
H	-0.411438	-1.642730	1.139886	1
H	-0.626288	0.836560	0.761316	1
H	-0.557548	0.559140	-0.999134	1
H	1.473463	2.213800	-1.266663	1
H	2.954153	2.095420	-0.270984	1
H	1.405292	2.558110	0.495596	1
Es	1.606855	0.274508	-0.054643	99
Es	2.577947	2.027493	-0.271755	99
Es	2.206965	0.010152	1.301739	99
Es	1.533566	0.240446	0.036589	99
Es	1.800332	0.052716	0.875855	99
Es	-0.527308	-1.504947	0.831800	99
Es	-0.761697	-1.249232	0.178700	99
Es	-0.250744	0.171323	-0.022201	99
Es	-2.507583	-1.999717	0.226902	99
Es	-2.573132	-0.880831	0.682910	99
Es	1.595529	0.212816	0.140664	99
Es	2.053382	-0.522167	-1.082337	99
Es	-1.515838	-1.257849	0.155467	99
Es	-2.279628	-1.303080	0.136516	99
Es	-2.533157	-1.050877	-0.522527	99
Es	-0.473610	-0.512761	0.076065	99
Es	1.871896	1.953766	-0.284343	99
Es	1.876484	-0.348900	-1.282167	99
Es	1.857934	-0.297167	1.349834	99
Es	1.768138	0.187514	1.516557	99
Es	1.468280	0.323430	0.057656	99
Es	-0.441030	0.435957	-0.681306	99
Es	-0.487991	0.623396	0.506062	99
Es	1.868526	-0.246226	-0.644154	99
Es	1.951877	-0.041241	1.395771	99
Es	1.708087	1.176534	-0.138720	99
Es	1.598476	2.114007	-0.938291	99
Es	1.463527	0.151147	0.002663	99
Es	1.553036	2.344114	0.239035	99
Es	-0.489683	-1.685344	-0.352899	99
Es	1.949457	-0.749047	-0.958576	99
Es	0.575245	0.206995	0.004017	99
Es	2.304379	-0.435885	-1.003502	99
50
Properties=species:S:1:pos:R:3:Z:I:1 energy=-704.6453315024488 field_type=dipole dipole="0.000000 0.000000 0.000000" charge=0
C	-2.279668	-1.303090	0.136516	6
C	-0.761688	-1.249340	0.178716	6
C	-0.250878	0.171320	-0.022204	6
S	1.533562	0.240450	0.036586	16
C	1.871933	1.953880	-0.284364	6
O	1.951962	-0.041290	1.396096	8
O	2.053473	-0.522280	-1.082524	8
H	-2.626368	-2.332450	0.269996	1
H	-2.658698	-0.938750	-0.823534	1
H	-2.715758	-0.691650	0.932966	1
H	-0.355508	-1.907100	-0.598274	1
H	-0.411438	-1.642730	1.139886	1
H	-0.626288	0.836560	0.761316	1
H	-0.557548	0.559140	-0.999134	1
H	1.473463	2.213800	-1.266663	1
H	2.954153	2.095420	-0.270984	1
H	1.405292	2.558110	0.495596	1
Es	1.871909	1.953761	-0.284343	99
Es	1.864079	-0.249185	-0.643020	99
Es	-1.515769	-1.257802	0.155255	99
Es	1.873040	-0.356513	-1.286291	99
Es	-0.527380	-1.504920	0.831839	99
Es	2.207979	0.013335	1.309350	99
Es	1.444341	0.296645	0.045455	99
Es	1.551442	0.182467	0.144289	99
Es	-0.441098	0.435914	-0.681235	99
Es	1.552865	2.343949	0.239067	99
Es	-0.250743	0.171323	-0.022201	99
Es	1.856422	-0.297857	1.358902	99
Es	1.762544	0.192408	1.503017	99
Es	1.951921	-0.041236	1.395832	99
Es	1.960150	-0.746407	-0.956289	99
Es	2.301575	-0.427967	-1.002841	99
Es	-2.573104	-0.880921	0.682986	99
Es	2.578027	2.027566	-0.271650	99
Es	-2.279630	-1.303081	0.136516	99
Es	-2.507589	-1.999760	0.226790	99
Es	1.598501	2.114041	-0.938289	99
Es	1.533486	0.240505	0.036569	99
Es	1.522190	0.164026	-0.062878	99
Es	-0.488014	0.623390	0.506050	99
Es	0.575331	0.207010	0.003973	99
Es	-0.489580	-1.685345	-0.352883	99
Es	1.708191	1.176569	-0.138839	99
Es	2.053351	-0.522124	-1.082321	99
Es	-0.473618	-0.512779	0.076101	99
Es	-2.533258	-1.050797	-0.522362	99
Es	1.806337	0.045322	0.872661	99
Es	-0.761696	-1.249229	0.178700	99
Es	1.616314	0.318734	0.019470	99
50
Properties=species:S:1:pos:R:3:Z:I:1 energy=-704.6453315024488 field_type=dipole dipole="0.000000 0.000000 0.000000" charge=0
C	-2.279668	-1.303090	0.136516	6
C	-0.761688	-1.249340	0.178716	6
C	-0.250878	0.171320	-0.022204	6
S	1.533562	0.240450	0.036586	16
C	1.871933	1.953880	-0.284364	6
O	1.951962	-0.041290	1.396096	8
O	2.053473	-0.522280	-1.082524	8
H	-2.626368	-2.332450	0.269996	1
H	-2.658698	-0.938750	-0.823534	1
H	-2.715758	-0.691650	0.932966	1
H	-0.355508	-1.907100	-0.598274	1
H	-0.411438	-1.642730	1.139886	1
H	-0.626288	0.836560	0.761316	1
H	-0.557548	0.559140	-0.999134	1
H	1.473463	2.213800	-1.266663	1
H	2.954153	2.095420	-0.270984	1
H	1.405292	2.558110	0.495596	1
Es	2.208345	0.023947	1.304589	99
Es	-2.533339	-1.050946	-0.522551	99
Es	-0.527305	-1.505019	0.831817	99
Es	-2.507630	-1.999597	0.227050	99
Es	1.552961	2.343830	0.239033	99
Es	1.512371	0.229321	0.161210	99
Es	2.578192	2.027649	-0.271753	99
Es	-0.441142	0.435909	-0.681385	99
Es	1.530499	0.134633	-0.025454	99
Es	1.871896	1.953767	-0.284343	99
Es	1.757626	0.182915	1.509680	99
Es	1.869038	-0.298156	1.355059	99
Es	1.949773	-0.747001	-0.959049	99
Es	1.798430	0.044517	0.874698	99
Es	-1.515796	-1.257945	0.155293	99
Es	-0.761696	-1.249230	0.178700	99
Es	-0.489640	-1.685243	-0.352848	99
Es	2.298022	-0.438261	-0.996451	99
Es	-0.250743	0.171323	-0.022201	99
Es	1.951751	-0.041216	1.395745	99
Es	-0.487988	0.623335	0.506011	99
Es	1.708226	1.176634	-0.138761	99
Es	1.632580	0.297180	0.014351	99
Es	1.533548	0.240459	0.036596	99
Es	2.053304	-0.521974	-1.082286	99
Es	1.867315	-0.246400	-0.643301	99
Es	1.883775	-0.348564	-1.289673	99
Es	-2.279628	-1.303081	0.136516	99
Es	0.575287	0.207035	0.004045	99
Es	1.458815	0.300748	-0.003765	99
Es	-2.573007	-0.880823	0.682866	99
Es	1.598205	2.113992	-0.938257	99
Es	-0.473531	-0.512694	0.076197	99
50
Properties=species:S:1:pos:R:3:Z:I:1 energy=-704.6453315024488 field_type=dipole dipole="0.000000 0.000000 0.000000" charge=0
C	-2.279668	-1.303090	0.136516	6
C	-0.761688	-1.249340	0.178716	6
C	-0.250878	0.171320	-0.022204	6
S	1.533562	0.240450	0.036586	16
C	1.871933	1.953880	-0.284364	6
O	1.951962	-0.041290	1.396096	8
O	2.053473	-0.522280	-1.082524	8
H	-2.626368	-2.332450	0.269996	1
H	-2.658698	-0.938750	-0.823534	1
H	-2.715758	-0.691650	0.932966	1
H	-0.355508	-1.907100	-0.598274	1
H	-0.411438	-1.642730	1.139886	1
H	-0.626288	0.836560	0.761316	1
H	-0.557548	0.559140	-0.999134	1
H	1.473463	2.213800	-1.266663	1
H	2.954153	2.095420	-0.270984	1
H	1.405292	2.558110	0.495596	1
Es	1.553015	2.343896	0.239115	99
Es	1.937493	-0.741391	-0.957965	99
Es	1.600663	0.227516	-0.071403	99
Es	-0.761696	-1.249230	0.178700	99
Es	1.778871	0.195030	1.515282	99
Es	-2.507495	-1.999566	0.226927	99
Es	-2.533400	-1.050836	-0.522578	99
Es	1.533577	0.240552	0.036601	99
Es	1.847236	-0.295662	1.353368	99
Es	1.952016	-0.041164	1.395811	99
Es	1.882213	-0.345238	-1.285372	99
Es	-0.527296	-1.504962	0.831929	99
Es	-0.473513	-0.512816	0.076123	99
Es	-2.279628	-1.303080	0.136516	99
Es	1.481956	0.143064	0.065704	99
Es	2.205460	-0.001095	1.300251	99
Es	1.873650	-0.242864	-0.643481	99
Es	1.871896	1.953765	-0.284343	99
Es	2.578036	2.027450	-0.271650	99
Es	-1.515824	-1.257771	0.155279	99
Es	2.053364	-0.522120	-1.082301	99
Es	1.801640	0.054892	0.875052	99
Es	-0.441167	0.435955	-0.681409	99
Es	0.575270	0.206960	0.004056	99
Es	-0.489631	-1.685254	-0.352907	99
Es	1.708189	1.176754	-0.138721	99
Es	2.305508	-0.450517	-1.001662	99
Es	1.593666	0.290295	0.135452	99
Es	-0.250742	0.171318	-0.022200	99
Es	-0.487976	0.623271	0.506097	99
Es	-2.573046	-0.881012	0.683002	99
Es	1.598330	2.114033	-0.938440	99
Es	1.457882	0.300869	0.016547	99
