45
Properties=species:S:1:pos:R:3:Z:I:1 energy=-739.2940932049956 field_type=dipole dipole="0.000000 0.000000 0.000000" charge=0
C	-1.667399	-0.248639	-0.253973	6
C	-0.232689	-0.328489	0.149167	6
C	0.378521	-1.465409	0.525637	6
S	0.686221	1.153971	0.130027	16
O	1.717711	0.816171	-1.063523	8
O	-0.130739	2.258992	-0.319823	8
O	1.507571	1.261861	1.316807	8
H	-2.213929	0.432851	0.405877	1
H	-2.159599	-1.225579	-0.201593	1
H	-1.757779	0.113311	-1.283113	1
H	-0.155719	-2.409778	0.553597	1
H	1.424891	-1.483459	0.818607	1
H	2.602941	1.124192	-0.777693	1
Es	0.188948	1.857350	-0.162766	99
Es	2.158750	0.990847	-0.895526	99
Es	1.717755	0.816310	-1.063264	99
Es	-2.018715	0.204228	0.192196	99
Es	0.098716	2.438837	-0.317914	99
Es	0.686209	1.153973	0.130037	99
Es	0.378548	-1.465451	0.525652	99
Es	-0.130571	2.258743	-0.319729	99
Es	-0.232652	-0.328266	0.149137	99
Es	0.713762	1.190051	0.239526	99
Es	0.019950	-2.094135	0.542237	99
Es	-0.210666	2.079420	-0.551002	99
Es	-1.713850	-0.009925	-0.938399	99
Es	1.391160	0.943310	-0.652398	99
Es	-1.980893	-0.915044	-0.212228	99
Es	1.719527	0.531565	-1.037282	99
Es	1.599944	0.976924	1.247428	99
Es	-0.923346	-0.273653	-0.049419	99
Es	1.179962	1.221834	0.891787	99
Es	1.074664	-1.480857	0.718081	99
Es	0.780387	1.101196	0.080978	99
Es	-1.667292	-0.248653	-0.253942	99
Es	0.189790	0.368493	0.136196	99
Es	-0.274575	2.189932	-0.053853	99
Es	0.596315	1.076906	0.134988	99
Es	1.639587	1.480526	1.152408	99
Es	1.612123	0.964422	-1.294717	99
Es	1.279971	1.316595	1.491821	99
Es	-0.015044	-0.792372	0.636994	99
Es	0.654759	1.247492	0.064167	99
Es	1.507421	1.261836	1.316567	99
Es	0.154523	-0.903571	0.023900	99
45
Properties=species:S:1:pos:R:3:Z:I:1 energy=-739.2940932049956 field_type=dipole dipole="0.000000 0.000000 0.000000" charge=0
C	-1.667399	-0.248639	-0.253973	6
C	-0.232689	-0.328489	0.149167	6
C	0.378521	-1.465409	0.525637	6
S	0.686221	1.153971	0.130027	16
O	1.717711	0.816171	-1.063523	8
O	-0.130739	2.258992	-0.319823	8
O	1.507571	1.261861	1.316807	8
H	-2.213929	0.432851	0.405877	1
H	-2.159599	-1.225579	-0.201593	1
H	-1.757779	0.113311	-1.283113	1
H	-0.155719	-2.409778	0.553597	1
H	1.424891	-1.483459	0.818607	1
H	2.602941	1.124192	-0.777693	1
Es	1.619349	1.484096	1.172012	99
Es	0.769602	1.205548	0.073041	99
Es	-1.667300	-0.248654	-0.253943	99
Es	0.189349	0.367644	0.136384	99
Es	-2.018750	0.203501	0.191833	99
Es	2.157913	0.982837	-0.890146	99
Es	1.507422	1.261834	1.316568	99
Es	-1.714461	-0.009667	-0.938670	99
Es	0.378550	-1.465453	0.525644	99
Es	-0.223853	2.078901	-0.541881	99
Es	1.075288	-1.481486	0.719049	99
Es	0.020366	-2.092748	0.542282	99
Es	1.622944	0.963012	1.282037	99
Es	-0.015470	-0.792889	0.637623	99
Es	1.184436	1.231308	0.881900	99
Es	-1.981003	-0.913955	-0.212283	99
Es	1.710549	0.523951	-1.033649	99
Es	1.717763	0.816326	-1.063225	99
Es	-0.130541	2.258735	-0.319727	99
Es	0.717660	1.151829	0.241485	99
Es	1.615391	0.971874	-1.297481	99
Es	0.578170	1.215730	0.114574	99
Es	1.272737	1.317225	1.447385	99
Es	-0.232648	-0.328266	0.149130	99
Es	1.397519	0.951485	-0.658483	99
Es	0.060714	2.468965	-0.309477	99
Es	0.154990	-0.903420	0.023014	99
Es	0.679517	1.042631	0.090895	99
Es	-0.245039	2.159687	-0.073897	99
Es	0.686415	1.154001	0.129705	99
Es	-0.922945	-0.273938	-0.049595	99
Es	0.210533	1.858225	-0.160441	99
