40
Properties=species:S:1:pos:R:3:Z:I:1 energy=-717.057509810519 field_type=dipole dipole="0.000000 0.000000 0.000000" charge=0
C	-1.204713	-1.115012	0.561581	6
C	0.057397	-0.892472	0.170201	6
S	0.768607	0.671808	0.314311	16
O	-0.023523	1.600908	1.091191	8
O	2.212687	0.600828	0.364001	8
C	0.568377	1.408128	-1.325129	6
N	0.420577	1.842778	-2.396889	7
H	-1.644223	-2.104712	0.475141	1
H	-1.831923	-0.332122	0.982901	1
H	0.676737	-1.680132	-0.237309	1
Es	2.284046	0.427233	0.562489	99
Es	0.606722	1.900112	-1.775653	99
Es	0.568426	1.407964	-1.324735	99
Es	0.186212	1.584644	-1.879048	99
Es	0.780841	0.761954	0.391372	99
Es	0.420627	1.842613	-2.396490	99
Es	0.869969	0.655544	0.256581	99
Es	-0.384821	-1.023833	0.642530	99
Es	2.056274	0.472419	0.089295	99
Es	-0.598659	-0.880961	0.060635	99
Es	-0.201004	1.471838	0.847552	99
Es	-0.036273	1.493312	1.345126	99
Es	0.768581	0.671766	0.314459	99
Es	0.676090	1.423321	-2.013405	99
Es	-0.023389	1.600723	1.091049	99
Es	0.477596	-1.386760	-0.101528	99
Es	0.301580	1.221109	0.886073	99
Es	0.057542	-0.892276	0.170230	99
Es	0.683437	0.697703	0.237114	99
Es	-1.616378	-0.605702	0.835189	99
Es	2.193843	0.897666	0.326356	99
Es	-1.491212	-1.769188	0.502523	99
Es	1.685504	0.614480	0.465822	99
Es	0.632422	1.083906	-0.672108	99
Es	2.212378	0.600819	0.363996	99
Es	0.376402	1.981187	-2.728061	99
Es	-1.204741	-1.115024	0.561594	99
Es	0.168681	1.792351	0.960429	99
Es	0.740016	0.572103	0.371528	99
Es	0.389092	-0.152774	0.234466	99
40
Properties=species:S:1:pos:R:3:Z:I:1 energy=-717.057509810519 field_type=dipole dipole="0.000000 0.000000 0.000000" charge=0
C	-1.204713	-1.115012	0.561581	6
C	0.057397	-0.892472	0.170201	6
S	0.768607	0.671808	0.314311	16
O	-0.023523	1.600908	1.091191	8
O	2.212687	0.600828	0.364001	8
C	0.568377	1.408128	-1.325129	6
N	0.420577	1.842778	-2.396889	7
H	-1.644223	-2.104712	0.475141	1
H	-1.831923	-0.332122	0.982901	1
H	0.676737	-1.680132	-0.237309	1
Es	2.152095	0.889316	0.297871	99
Es	0.665087	1.417788	-2.012851	99
Es	-0.383741	-1.024593	0.645655	99
Es	-0.023461	1.600760	1.091079	99
Es	0.768439	0.672413	0.313684	99
Es	0.320125	1.230443	0.926295	99
Es	0.756586	0.564776	0.284497	99
Es	2.344162	0.451196	0.539155	99
Es	-1.491168	-1.767790	0.503223	99
Es	0.568424	1.407972	-1.324739	99
Es	1.688517	0.594901	0.498199	99
Es	2.212366	0.600829	0.364008	99
Es	0.631095	1.084196	-0.671863	99
Es	0.057527	-0.892282	0.170218	99
Es	-0.599344	-0.880785	0.057973	99
Es	0.625843	1.884162	-1.783705	99
Es	0.388848	-0.153404	0.233386	99
Es	0.870904	0.681799	0.377070	99
Es	0.173312	1.604898	-1.871655	99
Es	0.169878	1.785827	0.982126	99
Es	0.420634	1.842604	-2.396465	99
Es	2.035092	0.476590	0.108491	99
Es	-1.204744	-1.115024	0.561591	99
Es	-0.117077	1.496770	1.335399	99
Es	0.777115	0.733358	0.215666	99
Es	-1.616654	-0.606511	0.835337	99
Es	0.382646	1.982150	-2.728119	99
Es	0.477602	-1.385902	-0.101563	99
Es	0.669897	0.706760	0.380110	99
Es	-0.140201	1.465033	0.795310	99
40
Properties=species:S:1:pos:R:3:Z:I:1 energy=-717.057509810519 field_type=dipole dipole="0.000000 0.000000 0.000000" charge=0
C	-1.204713	-1.115012	0.561581	6
C	0.057397	-0.892472	0.170201	6
S	0.768607	0.671808	0.314311	16
O	-0.023523	1.600908	1.091191	8
O	2.212687	0.600828	0.364001	8
C	0.568377	1.408128	-1.325129	6
N	0.420577	1.842778	-2.396889	7
H	-1.644223	-2.104712	0.475141	1
H	-1.831923	-0.332122	0.982901	1
H	0.676737	-1.680132	-0.237309	1
Es	0.158245	1.789081	0.972110	99
Es	2.386522	0.467343	0.509324	99
Es	-0.023369	1.600675	1.091019	99
Es	0.663557	1.420435	-2.011325	99
Es	0.568426	1.407968	-1.324724	99
Es	0.385380	1.981827	-2.728198	99
Es	-0.599322	-0.880385	0.057150	99
Es	2.212279	0.600783	0.364063	99
Es	0.477400	-1.385352	-0.101897	99
Es	-0.383686	-1.025122	0.646693	99
Es	0.630368	1.084355	-0.671735	99
Es	0.420633	1.842605	-2.396472	99
Es	2.014317	0.485648	0.117834	99
Es	0.629126	1.881223	-1.785155	99
Es	1.701152	0.579479	0.524959	99
Es	0.388782	-0.153454	0.233006	99
Es	0.895163	0.668141	0.345127	99
Es	0.332973	1.244493	0.968243	99
Es	0.737299	0.712234	0.200303	99
Es	2.118019	0.879712	0.291461	99
Es	0.768852	0.668456	0.313040	99
Es	0.169637	1.605337	-1.871761	99
Es	-1.616577	-0.606991	0.835568	99
Es	-1.491125	-1.767555	0.503499	99
Es	0.768610	0.671776	0.314284	99
Es	-1.204746	-1.115024	0.561586	99
Es	0.673000	0.638486	0.398264	99
Es	0.057520	-0.892269	0.170179	99
Es	-0.098331	1.434911	0.778853	99
Es	-0.160297	1.509435	1.320081	99
40
Properties=species:S:1:pos:R:3:Z:I:1 energy=-717.057509810519 field_type=dipole dipole="0.000000 0.000000 0.000000" charge=0
C	-1.204713	-1.115012	0.561581	6
C	0.057397	-0.892472	0.170201	6
S	0.768607	0.671808	0.314311	16
O	-0.023523	1.600908	1.091191	8
O	2.212687	0.600828	0.364001	8
C	0.568377	1.408128	-1.325129	6
N	0.420577	1.842778	-2.396889	7
H	-1.644223	-2.104712	0.475141	1
H	-1.831923	-0.332122	0.982901	1
H	0.676737	-1.680132	-0.237309	1
Es	0.871386	0.736374	0.272986	99
Es	0.057527	-0.892276	0.170202	99
Es	-0.383890	-1.025712	0.648324	99
Es	2.099787	0.871094	0.298591	99
Es	-1.204744	-1.115023	0.561590	99
Es	0.336974	1.247301	0.960191	99
Es	0.168211	1.651797	-1.854657	99
Es	2.212301	0.600800	0.364025	99
Es	0.420634	1.842604	-2.396465	99
Es	0.768494	0.671945	0.314207	99
Es	0.388564	-0.153657	0.232329	99
Es	0.629564	1.083855	-0.671793	99
Es	-0.598900	-0.880110	0.055899	99
Es	-0.088631	1.450722	0.772489	99
Es	-1.616572	-0.607427	0.835649	99
Es	0.771437	0.644014	0.431123	99
Es	0.387373	1.979718	-2.729730	99
Es	1.699384	0.565231	0.524239	99
Es	2.018056	0.495714	0.119346	99
Es	0.771613	0.588022	0.271195	99
Es	-0.023367	1.600702	1.091033	99
Es	2.402778	0.480210	0.501302	99
Es	0.568409	1.407943	-1.324753	99
Es	-1.491012	-1.767126	0.504024	99
Es	0.477239	-1.384736	-0.102112	99
Es	0.660042	0.718738	0.281552	99
Es	0.156256	1.783316	0.990827	99
Es	-0.172102	1.496348	1.315725	99
Es	0.681498	1.857961	-1.803069	99
Es	0.611497	1.399909	-2.008888	99
40
Properties=species:S:1:pos:R:3:Z:I:1 energy=-717.057509810519 field_type=dipole dipole="0.000000 0.000000 0.000000" charge=0
C	-1.204713	-1.115012	0.561581	6
C	0.057397	-0.892472	0.170201	6
S	0.768607	0.671808	0.314311	16
O	-0.023523	1.600908	1.091191	8
O	2.212687	0.600828	0.364001	8
C	0.568377	1.408128	-1.325129	6
N	0.420577	1.842778	-2.396889	7
H	-1.644223	-2.104712	0.475141	1
H	-1.831923	-0.332122	0.982901	1
H	0.676737	-1.680132	-0.237309	1
Es	0.627864	1.083051	-0.671719	99
Es	-1.204742	-1.115026	0.561593	99
Es	0.390050	1.979809	-2.730951	99
Es	0.386836	-0.153657	0.229398	99
Es	-1.490174	-1.766697	0.504963	99
Es	-0.309230	1.502726	1.064290	99
Es	2.000772	0.498158	0.120326	99
Es	-1.616780	-0.607660	0.836638	99
Es	-0.598427	-0.880725	0.056352	99
Es	0.883409	0.623685	0.311781	99
Es	2.408563	0.475787	0.481646	99
Es	0.178897	1.704510	-1.835741	99
Es	-0.023366	1.600680	1.091017	99
Es	0.137632	1.786427	0.983100	99
Es	1.710958	0.565946	0.542564	99
Es	2.099558	0.872291	0.298671	99
Es	0.476869	-1.384259	-0.103595	99
Es	0.568411	1.407960	-1.324739	99
Es	0.768449	0.672141	0.314621	99
Es	-0.383180	-1.025759	0.650304	99
Es	0.720408	0.674539	0.207061	99
Es	0.189861	1.403571	1.250734	99
Es	0.550230	1.387998	-2.000314	99
Es	0.689200	0.626309	0.404223	99
Es	0.214612	1.284820	0.741524	99
Es	0.420632	1.842605	-2.396476	99
Es	0.731155	1.818037	-1.829467	99
Es	2.212289	0.600813	0.364017	99
Es	0.781526	0.762450	0.333357	99
Es	0.057525	-0.892281	0.170202	99
40
Properties=species:S:1:pos:R:3:Z:I:1 energy=-717.057509810519 field_type=dipole dipole="0.000000 0.000000 0.000000" charge=0
C	-1.204713	-1.115012	0.561581	6
C	0.057397	-0.892472	0.170201	6
S	0.768607	0.671808	0.314311	16
O	-0.023523	1.600908	1.091191	8
O	2.212687	0.600828	0.364001	8
C	0.568377	1.408128	-1.325129	6
N	0.420577	1.842778	-2.396889	7
H	-1.644223	-2.104712	0.475141	1
H	-1.831923	-0.332122	0.982901	1
H	0.676737	-1.680132	-0.237309	1
Es	0.198275	1.414926	1.245169	99
Es	-0.023384	1.600605	1.090978	99
Es	0.859525	0.637288	0.388873	99
Es	-0.598115	-0.880208	0.055838	99
Es	0.803677	0.712788	0.196391	99
Es	0.768622	0.671942	0.314361	99
Es	0.057526	-0.892275	0.170198	99
Es	-1.204742	-1.115025	0.561592	99
Es	2.092083	0.871095	0.278187	99
Es	0.178497	1.556850	-1.890500	99
Es	-1.490660	-1.767010	0.504951	99
Es	2.212262	0.600805	0.364074	99
Es	-0.308993	1.498688	1.079002	99
Es	2.012013	0.481802	0.132130	99
Es	0.420634	1.842603	-2.396464	99
Es	0.476716	-1.384151	-0.103181	99
Es	0.568428	1.407971	-1.324730	99
Es	0.557812	1.879687	-1.776955	99
Es	-1.616337	-0.607807	0.836303	99
Es	2.408814	0.491746	0.495349	99
Es	-0.383852	-1.026016	0.650070	99
Es	0.387331	-0.153579	0.230044	99
Es	0.207798	1.275408	0.748296	99
Es	1.706994	0.567655	0.537545	99
Es	0.628393	1.084330	-0.671136	99
Es	0.643722	0.674485	0.360219	99
Es	0.388784	1.984891	-2.728728	99
Es	0.724699	1.467605	-2.000892	99
Es	0.135808	1.788548	0.967199	99
Es	0.767475	0.662600	0.311197	99
40
Properties=species:S:1:pos:R:3:Z:I:1 energy=-717.057509810519 field_type=dipole dipole="0.000000 0.000000 0.000000" charge=0
C	-1.204713	-1.115012	0.561581	6
C	0.057397	-0.892472	0.170201	6
S	0.768607	0.671808	0.314311	16
O	-0.023523	1.600908	1.091191	8
O	2.212687	0.600828	0.364001	8
C	0.568377	1.408128	-1.325129	6
N	0.420577	1.842778	-2.396889	7
H	-1.644223	-2.104712	0.475141	1
H	-1.831923	-0.332122	0.982901	1
H	0.676737	-1.680132	-0.237309	1
Es	0.388648	-0.153645	0.231619	99
Es	0.697174	0.624485	0.410736	99
Es	2.074797	0.858447	0.284691	99
Es	-0.077603	1.463088	0.765218	99
Es	-0.382944	-1.025657	0.649709	99
Es	2.015685	0.488186	0.132785	99
Es	0.341195	1.253151	0.957508	99
Es	0.476887	-1.384079	-0.101663	99
Es	-1.204745	-1.115022	0.561582	99
Es	-0.599629	-0.880305	0.054931	99
Es	0.896100	0.667060	0.323243	99
Es	0.420634	1.842603	-2.396463	99
Es	0.736573	0.629711	0.219047	99
Es	2.423584	0.508294	0.490885	99
Es	0.568428	1.407970	-1.324735	99
Es	-1.616101	-0.608002	0.835303	99
Es	0.385596	1.985364	-2.727417	99
Es	2.212329	0.600841	0.363998	99
Es	0.768585	0.671808	0.314271	99
Es	0.524369	1.880186	-1.774730	99
Es	0.057521	-0.892282	0.170204	99
Es	0.152004	1.783508	1.011054	99
Es	0.751160	1.495921	-1.993273	99
Es	-1.491452	-1.767040	0.504316	99
Es	0.629265	1.084857	-0.671238	99
Es	-0.183136	1.477828	1.305420	99
Es	1.705913	0.557373	0.535180	99
Es	0.187734	1.526908	-1.901534	99
Es	-0.023310	1.600647	1.091032	99
Es	0.744544	0.766044	0.303699	99
40
Properties=species:S:1:pos:R:3:Z:I:1 energy=-717.057509810519 field_type=dipole dipole="0.000000 0.000000 0.000000" charge=0
C	-1.204713	-1.115012	0.561581	6
C	0.057397	-0.892472	0.170201	6
S	0.768607	0.671808	0.314311	16
O	-0.023523	1.600908	1.091191	8
O	2.212687	0.600828	0.364001	8
C	0.568377	1.408128	-1.325129	6
N	0.420577	1.842778	-2.396889	7
H	-1.644223	-2.104712	0.475141	1
H	-1.831923	-0.332122	0.982901	1
H	0.676737	-1.680132	-0.237309	1
Es	-0.302266	1.512395	1.143645	99
Es	2.411179	0.482060	0.486394	99
Es	-1.204744	-1.115025	0.561592	99
Es	0.568424	1.407980	-1.324725	99
Es	-1.616331	-0.608036	0.836211	99
Es	0.785723	0.744459	0.356314	99
Es	0.476673	-1.384006	-0.102730	99
Es	0.768645	0.671839	0.314372	99
Es	2.094339	0.867247	0.303814	99
Es	0.628230	1.084241	-0.671233	99
Es	-1.490690	-1.766876	0.504990	99
Es	0.420634	1.842603	-2.396463	99
Es	1.703754	0.559911	0.533282	99
Es	0.735943	1.478649	-1.997798	99
Es	0.708094	0.712101	0.221744	99
Es	-0.597967	-0.879984	0.055074	99
Es	-0.023370	1.600644	1.090996	99
Es	0.148590	1.782762	1.001831	99
Es	-0.384177	-1.026184	0.650388	99
Es	0.883283	0.628118	0.281702	99
Es	2.010525	0.503194	0.119741	99
Es	0.137041	1.337659	0.710390	99
Es	0.179198	1.549595	-1.893257	99
Es	0.388841	1.985606	-2.728157	99
Es	0.697289	0.602553	0.396882	99
Es	0.387554	-0.153520	0.230066	99
Es	0.545980	1.875215	-1.777785	99
Es	0.057521	-0.892282	0.170215	99
Es	0.249483	1.344505	1.183895	99
Es	2.212406	0.600827	0.363989	99
40
Properties=species:S:1:pos:R:3:Z:I:1 energy=-717.057509810519 field_type=dipole dipole="0.000000 0.000000 0.000000" charge=0
C	-1.204713	-1.115012	0.561581	6
C	0.057397	-0.892472	0.170201	6
S	0.768607	0.671808	0.314311	16
O	-0.023523	1.600908	1.091191	8
O	2.212687	0.600828	0.364001	8
C	0.568377	1.408128	-1.325129	6
N	0.420577	1.842778	-2.396889	7
H	-1.644223	-2.104712	0.475141	1
H	-1.831923	-0.332122	0.982901	1
H	0.676737	-1.680132	-0.237309	1
Es	0.769795	0.647890	0.436597	99
Es	0.388637	1.978243	-2.730447	99
Es	0.768572	0.671985	0.314359	99
Es	0.476825	-1.384358	-0.102662	99
Es	-0.195018	1.496528	1.303400	99
Es	-1.204744	-1.115023	0.561587	99
Es	-0.067797	1.455026	0.766719	99
Es	0.771541	0.629312	0.301024	99
Es	0.654999	0.692945	0.263909	99
Es	2.079759	0.857208	0.293009	99
Es	0.057527	-0.892274	0.170200	99
Es	0.627789	1.083377	-0.671823	99
Es	-1.490818	-1.766842	0.504486	99
Es	-0.383550	-1.025935	0.649614	99
Es	0.162573	1.780576	0.998263	99
Es	1.708649	0.560171	0.541194	99
Es	0.752242	1.803870	-1.840464	99
Es	0.568435	1.407964	-1.324736	99
Es	2.212155	0.600644	0.364177	99
Es	0.179674	1.712292	-1.832696	99
Es	0.529833	1.395452	-1.992708	99
Es	-0.023256	1.600581	1.091057	99
Es	0.332613	1.245495	0.970867	99
Es	0.878048	0.716973	0.255169	99
Es	-0.598817	-0.880116	0.055628	99
Es	0.388310	-0.153671	0.231150	99
Es	0.420631	1.842621	-2.396494	99
Es	-1.616524	-0.607773	0.835986	99
Es	2.006879	0.495389	0.128248	99
Es	2.424842	0.499700	0.480766	99
40
Properties=species:S:1:pos:R:3:Z:I:1 energy=-717.057509810519 field_type=dipole dipole="0.000000 0.000000 0.000000" charge=0
C	-1.204713	-1.115012	0.561581	6
C	0.057397	-0.892472	0.170201	6
S	0.768607	0.671808	0.314311	16
O	-0.023523	1.600908	1.091191	8
O	2.212687	0.600828	0.364001	8
C	0.568377	1.408128	-1.325129	6
N	0.420577	1.842778	-2.396889	7
H	-1.644223	-2.104712	0.475141	1
H	-1.831923	-0.332122	0.982901	1
H	0.676737	-1.680132	-0.237309	1
Es	-0.023327	1.600671	1.091015	99
Es	0.746748	0.666270	0.197295	99
Es	0.568421	1.408002	-1.324725	99
Es	0.518012	1.870471	-1.778338	99
Es	0.844895	0.759003	0.335289	99
Es	0.758397	1.504937	-1.989698	99
Es	0.820091	0.584190	0.337282	99
Es	0.628973	1.084529	-0.671283	99
Es	-0.071287	1.449713	0.762329	99
Es	-0.383260	-1.025802	0.650107	99
Es	0.476651	-1.383947	-0.101693	99
Es	2.430399	0.520975	0.487673	99
Es	0.185912	1.527714	-1.901336	99
Es	0.057527	-0.892277	0.170204	99
Es	0.420635	1.842604	-2.396465	99
Es	0.386894	1.985593	-2.727519	99
Es	-0.186790	1.481068	1.304618	99
Es	-0.599247	-0.880218	0.054742	99
Es	0.347441	1.262639	0.968893	99
Es	-1.491486	-1.767045	0.504548	99
Es	0.768621	0.671781	0.314308	99
Es	2.017908	0.483880	0.143061	99
Es	0.143052	1.783947	1.003391	99
Es	2.064796	0.853282	0.275140	99
Es	-1.615939	-0.608136	0.835397	99
Es	2.212302	0.600782	0.363993	99
Es	0.662628	0.677904	0.386798	99
Es	-1.204744	-1.115025	0.561592	99
Es	1.706901	0.554279	0.537607	99
Es	0.388682	-0.153535	0.231153	99
40
Properties=species:S:1:pos:R:3:Z:I:1 energy=-717.057509810519 field_type=dipole dipole="0.000000 0.000000 0.000000" charge=0
C	-1.204713	-1.115012	0.561581	6
C	0.057397	-0.892472	0.170201	6
S	0.768607	0.671808	0.314311	16
O	-0.023523	1.600908	1.091191	8
O	2.212687	0.600828	0.364001	8
C	0.568377	1.408128	-1.325129	6
N	0.420577	1.842778	-2.396889	7
H	-1.644223	-2.104712	0.475141	1
H	-1.831923	-0.332122	0.982901	1
H	0.676737	-1.680132	-0.237309	1
Es	-0.383097	-1.025764	0.649424	99
Es	-1.204742	-1.115026	0.561594	99
Es	0.476706	-1.384232	-0.102119	99
Es	0.420634	1.842604	-2.396464	99
Es	2.011392	0.491294	0.130978	99
Es	-0.023346	1.600633	1.091010	99
Es	0.639926	0.682572	0.327656	99
Es	-0.599457	-0.880129	0.055411	99
Es	0.502591	1.876137	-1.775768	99
Es	1.710888	0.551943	0.541861	99
Es	2.212287	0.600794	0.364024	99
Es	0.628711	1.085306	-0.671066	99
Es	0.385947	1.984371	-2.727699	99
Es	2.064932	0.850752	0.289608	99
Es	2.432793	0.518398	0.481049	99
Es	-1.491202	-1.767041	0.504255	99
Es	0.768564	0.672423	0.314644	99
Es	0.836362	0.739186	0.224289	99
Es	0.153450	1.784660	0.997450	99
Es	0.830856	0.625286	0.409593	99
Es	0.194797	1.510838	-1.908018	99
Es	-0.192975	1.490263	1.303265	99
Es	0.388682	-0.153557	0.231553	99
Es	-0.066792	1.447848	0.764642	99
Es	0.568430	1.407979	-1.324751	99
Es	0.338779	1.254755	0.973923	99
Es	0.767308	0.639618	0.294874	99
Es	0.766141	1.516556	-1.985623	99
Es	0.057528	-0.892280	0.170208	99
Es	-1.616287	-0.607937	0.835578	99
40
Properties=species:S:1:pos:R:3:Z:I:1 energy=-717.057509810519 field_type=dipole dipole="0.000000 0.000000 0.000000" charge=0
C	-1.204713	-1.115012	0.561581	6
C	0.057397	-0.892472	0.170201	6
S	0.768607	0.671808	0.314311	16
O	-0.023523	1.600908	1.091191	8
O	2.212687	0.600828	0.364001	8
C	0.568377	1.408128	-1.325129	6
N	0.420577	1.842778	-2.396889	7
H	-1.644223	-2.104712	0.475141	1
H	-1.831923	-0.332122	0.982901	1
H	0.676737	-1.680132	-0.237309	1
Es	-0.384766	-1.026229	0.650126	99
Es	-1.204743	-1.115025	0.561592	99
Es	1.726148	0.542458	0.563096	99
Es	0.702371	0.646504	0.425152	99
Es	-0.023390	1.600715	1.091042	99
Es	2.049329	0.851412	0.278574	99
Es	-0.596955	-0.880355	0.056568	99
Es	0.300316	1.281475	0.792283	99
Es	0.420634	1.842604	-2.396466	99
Es	0.179676	1.545111	-1.896336	99
Es	0.057519	-0.892272	0.170186	99
Es	1.997001	0.496515	0.157523	99
Es	0.535980	1.871496	-1.778303	99
Es	2.212246	0.600900	0.364106	99
Es	0.392373	1.986321	-2.727458	99
Es	-1.490318	-1.767124	0.505359	99
Es	2.447429	0.521837	0.443769	99
Es	-0.271868	1.485612	0.921921	99
Es	0.626302	1.083753	-0.671509	99
Es	0.897555	0.695548	0.308366	99
Es	0.127011	1.788289	1.007061	99
Es	0.568419	1.407973	-1.324723	99
Es	-1.616284	-0.607907	0.836814	99
Es	0.744046	1.486800	-1.994470	99
Es	0.768587	0.670890	0.313851	99
Es	0.768106	0.622168	0.292524	99
Es	0.706363	0.723969	0.231179	99
Es	0.077170	1.422079	1.317957	99
Es	0.387097	-0.153149	0.229324	99
Es	0.476450	-1.384118	-0.103728	99
40
Properties=species:S:1:pos:R:3:Z:I:1 energy=-717.057509810519 field_type=dipole dipole="0.000000 0.000000 0.000000" charge=0
C	-1.204713	-1.115012	0.561581	6
C	0.057397	-0.892472	0.170201	6
S	0.768607	0.671808	0.314311	16
O	-0.023523	1.600908	1.091191	8
O	2.212687	0.600828	0.364001	8
C	0.568377	1.408128	-1.325129	6
N	0.420577	1.842778	-2.396889	7
H	-1.644223	-2.104712	0.475141	1
H	-1.831923	-0.332122	0.982901	1
H	0.676737	-1.680132	-0.237309	1
Es	2.196313	0.426199	0.582602	99
Es	0.568421	1.407978	-1.324733	99
Es	-1.204744	-1.115025	0.561591	99
Es	-0.599125	-0.880688	0.056522	99
Es	-0.312559	1.499235	1.045911	99
Es	0.164549	1.415824	1.250118	99
Es	-1.490938	-1.767185	0.504023	99
Es	0.732045	0.600436	0.412071	99
Es	-0.023285	1.600604	1.091059	99
Es	0.057520	-0.892276	0.170193	99
Es	0.176942	1.553203	-1.892109	99
Es	0.731192	1.469365	-2.001902	99
Es	2.212307	0.600792	0.364029	99
Es	-1.616680	-0.607184	0.835615	99
Es	0.553799	1.881318	-1.776017	99
Es	0.768281	0.672367	0.314155	99
Es	0.893511	0.670095	0.279962	99
Es	0.387968	-0.153687	0.231938	99
Es	0.705042	0.650429	0.228585	99
Es	0.143020	1.789658	0.986209	99
Es	2.076151	0.745468	0.423309	99
Es	0.420635	1.842604	-2.396464	99
Es	0.744129	0.765691	0.336415	99
Es	0.237679	1.272972	0.757103	99
Es	1.650090	0.591347	0.346301	99
Es	2.297390	0.649669	0.091111	99
Es	0.387037	1.985126	-2.726403	99
Es	0.477448	-1.385185	-0.101906	99
Es	-0.383588	-1.025045	0.647830	99
Es	0.629254	1.084144	-0.671738	99
40
Properties=species:S:1:pos:R:3:Z:I:1 energy=-717.057509810519 field_type=dipole dipole="0.000000 0.000000 0.000000" charge=0
C	-1.204713	-1.115012	0.561581	6
C	0.057397	-0.892472	0.170201	6
S	0.768607	0.671808	0.314311	16
O	-0.023523	1.600908	1.091191	8
O	2.212687	0.600828	0.364001	8
C	0.568377	1.408128	-1.325129	6
N	0.420577	1.842778	-2.396889	7
H	-1.644223	-2.104712	0.475141	1
H	-1.831923	-0.332122	0.982901	1
H	0.676737	-1.680132	-0.237309	1
Es	0.153173	1.782857	0.999984	99
Es	-1.616485	-0.607934	0.835930	99
Es	0.768246	0.676365	0.315585	99
Es	0.420634	1.842603	-2.396465	99
Es	0.388192	-0.153467	0.230579	99
Es	-0.023332	1.600645	1.091005	99
Es	-0.598718	-0.880369	0.055439	99
Es	0.476739	-1.384255	-0.102388	99
Es	0.181305	1.716611	-1.831087	99
Es	-0.383538	-1.025752	0.650037	99
Es	0.627570	1.082503	-0.672162	99
Es	0.868304	0.658231	0.394200	99
Es	0.568422	1.407959	-1.324736	99
Es	2.067735	0.849037	0.306981	99
Es	0.769101	0.668623	0.313231	99
Es	0.525451	1.395643	-1.991757	99
Es	0.388939	1.978706	-2.730524	99
Es	2.438471	0.506806	0.458015	99
Es	0.791553	0.710726	0.195326	99
Es	2.212184	0.600718	0.364046	99
Es	-1.204744	-1.115023	0.561592	99
Es	1.993377	0.507938	0.124195	99
Es	1.720505	0.548590	0.554207	99
Es	-1.490771	-1.766871	0.504688	99
Es	0.645790	0.645166	0.352629	99
Es	0.754959	1.799825	-1.842635	99
Es	-0.060716	1.450266	0.764651	99
Es	0.057521	-0.892278	0.170196	99
Es	0.339859	1.253912	0.975949	99
Es	-0.199921	1.490469	1.298666	99
40
Properties=species:S:1:pos:R:3:Z:I:1 energy=-717.057509810519 field_type=dipole dipole="0.000000 0.000000 0.000000" charge=0
C	-1.204713	-1.115012	0.561581	6
C	0.057397	-0.892472	0.170201	6
S	0.768607	0.671808	0.314311	16
O	-0.023523	1.600908	1.091191	8
O	2.212687	0.600828	0.364001	8
C	0.568377	1.408128	-1.325129	6
N	0.420577	1.842778	-2.396889	7
H	-1.644223	-2.104712	0.475141	1
H	-1.831923	-0.332122	0.982901	1
H	0.676737	-1.680132	-0.237309	1
Es	0.769386	0.662680	0.311547	99
Es	0.389451	1.978149	-2.730892	99
Es	0.476950	-1.384081	-0.102828	99
Es	2.006363	0.488064	0.138108	99
Es	2.062892	0.850836	0.282586	99
Es	1.715007	0.554356	0.549095	99
Es	-0.201854	1.499689	1.299705	99
Es	0.420634	1.842605	-2.396469	99
Es	0.336116	1.250089	0.980074	99
Es	0.756715	1.797813	-1.843951	99
Es	0.684785	0.693198	0.225126	99
Es	2.212264	0.600912	0.364059	99
Es	0.896507	0.692654	0.288470	99
Es	0.387953	-0.153736	0.230815	99
Es	-0.023356	1.600680	1.091020	99
Es	0.768480	0.673571	0.314746	99
Es	0.180562	1.715614	-1.831479	99
Es	-1.616591	-0.607891	0.836086	99
Es	-0.059621	1.445821	0.767544	99
Es	-0.598896	-0.880234	0.055297	99
Es	-1.204744	-1.115025	0.561591	99
Es	2.435745	0.518948	0.473534	99
Es	-0.383309	-1.026068	0.650178	99
Es	0.723822	0.637022	0.431136	99
Es	0.157800	1.781835	0.991991	99
Es	0.627632	1.083072	-0.671885	99
Es	0.568423	1.407961	-1.324733	99
Es	-1.490681	-1.766628	0.504674	99
Es	0.057531	-0.892275	0.170206	99
Es	0.523838	1.398617	-1.989972	99
40
Properties=species:S:1:pos:R:3:Z:I:1 energy=-717.057509810519 field_type=dipole dipole="0.000000 0.000000 0.000000" charge=0
C	-1.204713	-1.115012	0.561581	6
C	0.057397	-0.892472	0.170201	6
S	0.768607	0.671808	0.314311	16
O	-0.023523	1.600908	1.091191	8
O	2.212687	0.600828	0.364001	8
C	0.568377	1.408128	-1.325129	6
N	0.420577	1.842778	-2.396889	7
H	-1.644223	-2.104712	0.475141	1
H	-1.831923	-0.332122	0.982901	1
H	0.676737	-1.680132	-0.237309	1
Es	-0.200159	1.511966	1.303809	99
Es	0.568433	1.407963	-1.324730	99
Es	0.388007	-0.153805	0.230554	99
Es	0.390695	1.978964	-2.730792	99
Es	0.705886	0.622542	0.419665	99
Es	0.057524	-0.892276	0.170196	99
Es	-1.490596	-1.766476	0.504750	99
Es	0.171049	1.684682	-1.842741	99
Es	0.768635	0.674825	0.315636	99
Es	0.343222	1.263210	0.995559	99
Es	-0.056434	1.418440	0.773679	99
Es	0.476899	-1.384005	-0.102510	99
Es	1.713313	0.551114	0.547232	99
Es	0.730374	1.824508	-1.826241	99
Es	2.212300	0.600869	0.364024	99
Es	-0.383382	-1.026058	0.650602	99
Es	-0.598858	-0.880199	0.054766	99
Es	0.145799	1.783758	0.966268	99
Es	-1.616674	-0.608034	0.836070	99
Es	-0.023362	1.600630	1.091019	99
Es	0.768597	0.672791	0.314670	99
Es	2.437667	0.510284	0.465834	99
Es	0.627991	1.083196	-0.671805	99
Es	-1.204743	-1.115025	0.561592	99
Es	0.899541	0.680944	0.299300	99
Es	0.700324	0.708021	0.221725	99
Es	2.067704	0.846209	0.301824	99
Es	0.420635	1.842604	-2.396464	99
Es	0.558102	1.401909	-1.996588	99
Es	2.001317	0.504698	0.128478	99
40
Properties=species:S:1:pos:R:3:Z:I:1 energy=-717.057509810519 field_type=dipole dipole="0.000000 0.000000 0.000000" charge=0
C	-1.204713	-1.115012	0.561581	6
C	0.057397	-0.892472	0.170201	6
S	0.768607	0.671808	0.314311	16
O	-0.023523	1.600908	1.091191	8
O	2.212687	0.600828	0.364001	8
C	0.568377	1.408128	-1.325129	6
N	0.420577	1.842778	-2.396889	7
H	-1.644223	-2.104712	0.475141	1
H	-1.831923	-0.332122	0.982901	1
H	0.676737	-1.680132	-0.237309	1
Es	0.640424	0.680771	0.326882	99
Es	-0.383327	-1.025646	0.650547	99
Es	-0.598877	-0.880567	0.054900	99
Es	0.057522	-0.892279	0.170206	99
Es	0.779451	0.596454	0.300274	99
Es	0.826655	0.681924	0.415730	99
Es	2.061831	0.837798	0.327649	99
Es	0.150073	1.785493	0.990636	99
Es	0.387867	1.979790	-2.730523	99
Es	1.726509	0.536384	0.556607	99
Es	-0.201740	1.495384	1.297907	99
Es	1.986429	0.525753	0.111785	99
Es	-1.616401	-0.608069	0.835779	99
Es	0.568425	1.407968	-1.324727	99
Es	-1.204745	-1.115023	0.561593	99
Es	0.827938	0.728402	0.213941	99
Es	-1.490837	-1.766826	0.504862	99
Es	0.341535	1.256722	0.983556	99
Es	0.768531	0.671575	0.314167	99
Es	0.514942	1.398545	-1.988302	99
Es	-0.057473	1.439794	0.767095	99
Es	2.212271	0.600868	0.364094	99
Es	-0.023361	1.600687	1.091012	99
Es	0.388090	-0.153524	0.230255	99
Es	0.762852	1.789637	-1.849027	99
Es	0.476806	-1.384023	-0.102045	99
Es	0.184813	1.723213	-1.828105	99
Es	0.420633	1.842605	-2.396467	99
Es	0.627740	1.082116	-0.672234	99
Es	2.445228	0.512322	0.447336	99
40
Properties=species:S:1:pos:R:3:Z:I:1 energy=-717.057509810519 field_type=dipole dipole="0.000000 0.000000 0.000000" charge=0
C	-1.204713	-1.115012	0.561581	6
C	0.057397	-0.892472	0.170201	6
S	0.768607	0.671808	0.314311	16
O	-0.023523	1.600908	1.091191	8
O	2.212687	0.600828	0.364001	8
C	0.568377	1.408128	-1.325129	6
N	0.420577	1.842778	-2.396889	7
H	-1.644223	-2.104712	0.475141	1
H	-1.831923	-0.332122	0.982901	1
H	0.676737	-1.680132	-0.237309	1
Es	0.637764	0.668038	0.319243	99
Es	0.627642	1.082974	-0.671922	99
Es	0.771186	0.646512	0.305006	99
Es	1.998994	0.495452	0.139277	99
Es	0.568412	1.407957	-1.324736	99
Es	-1.616489	-0.608089	0.835943	99
Es	0.476777	-1.384034	-0.102422	99
Es	2.212296	0.600808	0.363990	99
Es	0.525794	1.397129	-1.991024	99
Es	0.768816	0.669893	0.313598	99
Es	0.754981	1.800080	-1.842618	99
Es	1.720195	0.549637	0.554786	99
Es	-1.204744	-1.115025	0.561592	99
Es	0.343889	1.255976	0.969087	99
Es	-0.193122	1.489471	1.304197	99
Es	0.388940	1.977960	-2.731007	99
Es	0.388199	-0.153711	0.230732	99
Es	2.442320	0.518757	0.460447	99
Es	0.829054	0.648670	0.418026	99
Es	-0.383541	-1.026023	0.650408	99
Es	0.148745	1.781232	0.998300	99
Es	0.420634	1.842604	-2.396465	99
Es	-0.067100	1.450801	0.767673	99
Es	-1.490767	-1.766675	0.504744	99
Es	-0.023333	1.600630	1.091005	99
Es	0.057522	-0.892279	0.170201	99
Es	2.058475	0.848463	0.288937	99
Es	0.836191	0.725988	0.215155	99
Es	-0.598789	-0.880082	0.054825	99
Es	0.180865	1.715136	-1.831599	99
40
Properties=species:S:1:pos:R:3:Z:I:1 energy=-717.057509810519 field_type=dipole dipole="0.000000 0.000000 0.000000" charge=0
C	-1.204713	-1.115012	0.561581	6
C	0.057397	-0.892472	0.170201	6
S	0.768607	0.671808	0.314311	16
O	-0.023523	1.600908	1.091191	8
O	2.212687	0.600828	0.364001	8
C	0.568377	1.408128	-1.325129	6
N	0.420577	1.842778	-2.396889	7
H	-1.644223	-2.104712	0.475141	1
H	-1.831923	-0.332122	0.982901	1
H	0.676737	-1.680132	-0.237309	1
Es	2.057825	0.841501	0.303298	99
Es	0.568428	1.407972	-1.324725	99
Es	-1.491429	-1.766832	0.504868	99
Es	0.349436	1.265777	0.974347	99
Es	2.004664	0.502463	0.124937	99
Es	0.496618	1.863037	-1.780693	99
Es	2.212179	0.600827	0.364217	99
Es	0.628401	1.084443	-0.671144	99
Es	0.420629	1.842605	-2.396475	99
Es	-0.599398	-0.880316	0.054304	99
Es	0.745243	0.565211	0.361069	99
Es	-0.023366	1.600683	1.091036	99
Es	0.879599	0.677979	0.247582	99
Es	0.476467	-1.383711	-0.101780	99
Es	2.441557	0.524712	0.467382	99
Es	-1.615878	-0.608267	0.835502	99
Es	0.773102	1.527690	-1.981282	99
Es	0.386028	1.986425	-2.727503	99
Es	-0.382910	-1.025859	0.650869	99
Es	0.139565	1.786368	0.997402	99
Es	-0.190913	1.483008	1.302789	99
Es	1.716061	0.543720	0.547621	99
Es	-1.204743	-1.115024	0.561592	99
Es	0.388592	-0.153642	0.230598	99
Es	0.194052	1.511700	-1.907579	99
Es	0.768607	0.671803	0.314325	99
Es	0.672885	0.711750	0.255013	99
Es	-0.065653	1.442157	0.764624	99
Es	0.057523	-0.892276	0.170195	99
Es	0.776635	0.732346	0.392989	99
40
Properties=species:S:1:pos:R:3:Z:I:1 energy=-717.057509810519 field_type=dipole dipole="0.000000 0.000000 0.000000" charge=0
C	-1.204713	-1.115012	0.561581	6
C	0.057397	-0.892472	0.170201	6
S	0.768607	0.671808	0.314311	16
O	-0.023523	1.600908	1.091191	8
O	2.212687	0.600828	0.364001	8
C	0.568377	1.408128	-1.325129	6
N	0.420577	1.842778	-2.396889	7
H	-1.644223	-2.104712	0.475141	1
H	-1.831923	-0.332122	0.982901	1
H	0.676737	-1.680132	-0.237309	1
Es	-1.204743	-1.115025	0.561592	99
Es	0.420633	1.842604	-2.396467	99
Es	0.766679	0.608081	0.260652	99
Es	0.354785	1.270359	0.967299	99
Es	-0.383093	-1.026088	0.650522	99
Es	0.476605	-1.383862	-0.102842	99
Es	-0.023345	1.600673	1.090995	99
Es	0.183762	1.723502	-1.828539	99
Es	-0.598977	-0.880352	0.055298	99
Es	-1.616217	-0.608051	0.836058	99
Es	-0.066107	1.445105	0.767872	99
Es	2.437120	0.522271	0.471769	99
Es	2.212356	0.600827	0.364002	99
Es	-0.189678	1.478473	1.304900	99
Es	0.660390	0.657273	0.386571	99
Es	0.133407	1.783452	0.999207	99
Es	1.715252	0.550878	0.549429	99
Es	2.061705	0.845868	0.292923	99
Es	0.388020	-0.153529	0.230366	99
Es	0.768570	0.764866	0.239632	99
Es	0.878716	0.657205	0.369864	99
Es	0.568411	1.407954	-1.324732	99
Es	0.512338	1.401775	-1.986070	99
Es	-1.490929	-1.766761	0.504896	99
Es	0.627030	1.082997	-0.671881	99
Es	0.768640	0.671702	0.314283	99
Es	0.389405	1.978639	-2.730779	99
Es	2.005828	0.493305	0.129268	99
Es	0.765724	1.786382	-1.850897	99
Es	0.057521	-0.892273	0.170191	99
40
Properties=species:S:1:pos:R:3:Z:I:1 energy=-717.057509810519 field_type=dipole dipole="0.000000 0.000000 0.000000" charge=0
C	-1.204713	-1.115012	0.561581	6
C	0.057397	-0.892472	0.170201	6
S	0.768607	0.671808	0.314311	16
O	-0.023523	1.600908	1.091191	8
O	2.212687	0.600828	0.364001	8
C	0.568377	1.408128	-1.325129	6
N	0.420577	1.842778	-2.396889	7
H	-1.644223	-2.104712	0.475141	1
H	-1.831923	-0.332122	0.982901	1
H	0.676737	-1.680132	-0.237309	1
Es	-0.599449	-0.880292	0.054714	99
Es	0.190212	1.518014	-1.905243	99
Es	0.145496	1.780780	1.016442	99
Es	0.690595	0.673530	0.226814	99
Es	0.346809	1.260144	0.965403	99
Es	-0.382864	-1.025949	0.650518	99
Es	-0.063036	1.463162	0.760829	99
Es	0.386928	1.985726	-2.727546	99
Es	0.767533	1.518616	-1.984566	99
Es	0.891785	0.666110	0.274155	99
Es	0.057523	-0.892276	0.170197	99
Es	0.568433	1.407969	-1.324725	99
Es	-1.615900	-0.608235	0.835529	99
Es	1.712007	0.545088	0.542600	99
Es	0.505147	1.866202	-1.779691	99
Es	2.437342	0.522058	0.474612	99
Es	2.212300	0.600875	0.364022	99
Es	2.010744	0.496918	0.132246	99
Es	2.059896	0.848273	0.293943	99
Es	0.420634	1.842610	-2.396475	99
Es	0.768554	0.671851	0.314358	99
Es	0.730809	0.599897	0.413180	99
Es	-0.023389	1.600783	1.091047	99
Es	-0.196775	1.473179	1.296509	99
Es	-1.491457	-1.766928	0.504654	99
Es	0.388460	-0.153518	0.230882	99
Es	0.476582	-1.383712	-0.101979	99
Es	0.628373	1.084704	-0.671140	99
Es	-1.204744	-1.115025	0.561592	99
Es	0.761259	0.747695	0.342498	99
40
Properties=species:S:1:pos:R:3:Z:I:1 energy=-717.057509810519 field_type=dipole dipole="0.000000 0.000000 0.000000" charge=0
C	-1.204713	-1.115012	0.561581	6
C	0.057397	-0.892472	0.170201	6
S	0.768607	0.671808	0.314311	16
O	-0.023523	1.600908	1.091191	8
O	2.212687	0.600828	0.364001	8
C	0.568377	1.408128	-1.325129	6
N	0.420577	1.842778	-2.396889	7
H	-1.644223	-2.104712	0.475141	1
H	-1.831923	-0.332122	0.982901	1
H	0.676737	-1.680132	-0.237309	1
Es	-1.204745	-1.115024	0.561589	99
Es	0.420633	1.842604	-2.396468	99
Es	-1.615988	-0.608237	0.835632	99
Es	0.568430	1.407996	-1.324719	99
Es	0.768268	1.519807	-1.984327	99
Es	0.889702	0.705538	0.275449	99
Es	0.057525	-0.892277	0.170201	99
Es	2.055154	0.845501	0.288356	99
Es	0.769247	0.625696	0.298134	99
Es	-0.599432	-0.880175	0.054646	99
Es	0.768736	0.673594	0.315204	99
Es	0.388632	-0.153607	0.230951	99
Es	2.007143	0.493072	0.137599	99
Es	0.671676	0.710007	0.246851	99
Es	-0.023360	1.600665	1.091028	99
Es	-0.058008	1.449315	0.760994	99
Es	2.441729	0.527218	0.468855	99
Es	0.386109	1.985837	-2.727551	99
Es	0.502645	1.868474	-1.778669	99
Es	-0.382968	-1.025932	0.650384	99
Es	0.628306	1.084751	-0.671074	99
Es	1.715963	0.546566	0.548601	99
Es	0.476510	-1.383794	-0.102033	99
Es	-0.202195	1.489494	1.296159	99
Es	0.153830	1.783488	1.001860	99
Es	0.192845	1.514383	-1.906579	99
Es	2.212300	0.600846	0.364038	99
Es	0.338827	1.255073	0.980216	99
Es	0.743602	0.644292	0.435339	99
Es	-1.491311	-1.766920	0.504715	99
40
Properties=species:S:1:pos:R:3:Z:I:1 energy=-717.057509810519 field_type=dipole dipole="0.000000 0.000000 0.000000" charge=0
C	-1.204713	-1.115012	0.561581	6
C	0.057397	-0.892472	0.170201	6
S	0.768607	0.671808	0.314311	16
O	-0.023523	1.600908	1.091191	8
O	2.212687	0.600828	0.364001	8
C	0.568377	1.408128	-1.325129	6
N	0.420577	1.842778	-2.396889	7
H	-1.644223	-2.104712	0.475141	1
H	-1.831923	-0.332122	0.982901	1
H	0.676737	-1.680132	-0.237309	1
Es	0.784901	1.760296	-1.869406	99
Es	-1.204744	-1.115025	0.561591	99
Es	0.777922	0.683351	0.431381	99
Es	-0.183457	1.487182	1.311517	99
Es	0.420635	1.842604	-2.396465	99
Es	0.653831	0.703548	0.271518	99
Es	0.195463	1.753359	-1.817372	99
Es	-0.600748	-0.879786	0.054475	99
Es	0.361221	1.268757	0.958062	99
Es	0.384733	1.972523	-2.731288	99
Es	0.484376	1.401142	-1.979057	99
Es	0.057524	-0.892280	0.170206	99
Es	-1.617931	-0.607594	0.835916	99
Es	-0.023328	1.600620	1.091027	99
Es	0.132826	1.759532	1.007240	99
Es	0.768449	0.591215	0.307009	99
Es	0.568417	1.407958	-1.324742	99
Es	2.212362	0.600844	0.363987	99
Es	2.054425	0.440590	0.202200	99
Es	0.874099	0.709150	0.247019	99
Es	2.171744	0.456139	0.590819	99
Es	0.388358	-0.155206	0.233272	99
Es	2.332159	0.834953	0.247916	99
Es	0.477946	-1.384592	-0.102367	99
Es	1.661624	0.680674	0.402527	99
Es	0.768668	0.671826	0.314167	99
Es	0.628686	1.085805	-0.671023	99
Es	-0.382047	-1.026098	0.649331	99
Es	-1.490133	-1.765374	0.503448	99
Es	-0.078177	1.462133	0.762473	99
40
Properties=species:S:1:pos:R:3:Z:I:1 energy=-717.057509810519 field_type=dipole dipole="0.000000 0.000000 0.000000" charge=0
C	-1.204713	-1.115012	0.561581	6
C	0.057397	-0.892472	0.170201	6
S	0.768607	0.671808	0.314311	16
O	-0.023523	1.600908	1.091191	8
O	2.212687	0.600828	0.364001	8
C	0.568377	1.408128	-1.325129	6
N	0.420577	1.842778	-2.396889	7
H	-1.644223	-2.104712	0.475141	1
H	-1.831923	-0.332122	0.982901	1
H	0.676737	-1.680132	-0.237309	1
Es	0.386838	-0.154801	0.231098	99
Es	1.665300	0.647078	0.457925	99
Es	0.884072	0.637397	0.345599	99
Es	0.188715	1.741105	-1.822810	99
Es	0.774186	1.773560	-1.859527	99
Es	0.627263	1.084803	-0.671138	99
Es	0.498549	1.400370	-1.982747	99
Es	2.249228	0.859565	0.215197	99
Es	0.128081	1.757206	1.012839	99
Es	0.188543	1.393951	1.232997	99
Es	-1.617963	-0.607761	0.836824	99
Es	0.772421	0.752832	0.321084	99
Es	0.057524	-0.892277	0.170201	99
Es	0.768632	0.671791	0.314291	99
Es	-0.382608	-1.026293	0.650358	99
Es	0.389519	1.973469	-2.731862	99
Es	-0.317077	1.511060	1.073785	99
Es	0.750104	0.660592	0.198503	99
Es	-0.023354	1.600688	1.091018	99
Es	0.667793	0.636459	0.391579	99
Es	0.420635	1.842609	-2.396480	99
Es	-1.489452	-1.765397	0.504308	99
Es	0.568406	1.407956	-1.324745	99
Es	-1.204744	-1.115025	0.561592	99
Es	0.233297	1.315139	0.720133	99
Es	2.266457	0.448781	0.572838	99
Es	0.477599	-1.384340	-0.103768	99
Es	2.038856	0.456956	0.197080	99
Es	-0.599399	-0.880060	0.055227	99
Es	2.212385	0.600835	0.363982	99
40
Properties=species:S:1:pos:R:3:Z:I:1 energy=-717.057509810519 field_type=dipole dipole="0.000000 0.000000 0.000000" charge=0
C	-1.204713	-1.115012	0.561581	6
C	0.057397	-0.892472	0.170201	6
S	0.768607	0.671808	0.314311	16
O	-0.023523	1.600908	1.091191	8
O	2.212687	0.600828	0.364001	8
C	0.568377	1.408128	-1.325129	6
N	0.420577	1.842778	-2.396889	7
H	-1.644223	-2.104712	0.475141	1
H	-1.831923	-0.332122	0.982901	1
H	0.676737	-1.680132	-0.237309	1
Es	-1.204744	-1.115025	0.561592	99
Es	0.140571	1.785139	1.003970	99
Es	-0.190322	1.476903	1.303262	99
Es	2.439623	0.516055	0.464050	99
Es	2.063416	0.843195	0.308275	99
Es	0.183975	1.724050	-1.828185	99
Es	-1.616205	-0.608174	0.835892	99
Es	0.627041	1.082654	-0.672012	99
Es	0.568418	1.407968	-1.324731	99
Es	2.000243	0.507400	0.121627	99
Es	0.510002	1.403874	-1.984775	99
Es	2.212296	0.600843	0.364056	99
Es	0.388266	-0.153500	0.230431	99
Es	0.476524	-1.383928	-0.102405	99
Es	0.710765	0.649514	0.427935	99
Es	0.768203	1.783629	-1.852704	99
Es	0.389018	1.979089	-2.730493	99
Es	0.759069	0.607500	0.279141	99
Es	0.420634	1.842603	-2.396464	99
Es	0.707298	0.741560	0.243575	99
Es	-0.067248	1.452066	0.768378	99
Es	-1.490956	-1.766949	0.504839	99
Es	-0.383438	-1.025906	0.650469	99
Es	1.716692	0.545670	0.549386	99
Es	0.057531	-0.892276	0.170210	99
Es	-0.598793	-0.880214	0.055097	99
Es	0.349425	1.263286	0.963613	99
Es	0.768994	0.671717	0.314896	99
Es	0.896853	0.688832	0.305439	99
Es	-0.023348	1.600672	1.091017	99
40
Properties=species:S:1:pos:R:3:Z:I:1 energy=-717.057509810519 field_type=dipole dipole="0.000000 0.000000 0.000000" charge=0
C	-1.204713	-1.115012	0.561581	6
C	0.057397	-0.892472	0.170201	6
S	0.768607	0.671808	0.314311	16
O	-0.023523	1.600908	1.091191	8
O	2.212687	0.600828	0.364001	8
C	0.568377	1.408128	-1.325129	6
N	0.420577	1.842778	-2.396889	7
H	-1.644223	-2.104712	0.475141	1
H	-1.831923	-0.332122	0.982901	1
H	0.676737	-1.680132	-0.237309	1
Es	0.386476	1.986040	-2.727798	99
Es	0.476521	-1.383588	-0.101657	99
Es	2.014409	0.485810	0.148621	99
Es	-0.023269	1.600605	1.091027	99
Es	0.738848	0.618725	0.238273	99
Es	-0.071735	1.444135	0.766830	99
Es	0.768622	0.671849	0.314318	99
Es	0.710980	0.623636	0.418581	99
Es	0.057526	-0.892278	0.170203	99
Es	2.212277	0.600840	0.364094	99
Es	0.726137	0.765184	0.291544	99
Es	0.189043	1.521627	-1.903512	99
Es	0.898413	0.679711	0.308278	99
Es	-0.185688	1.486287	1.308864	99
Es	0.144073	1.784445	0.994825	99
Es	-1.204744	-1.115025	0.561592	99
Es	0.388659	-0.153868	0.230817	99
Es	1.712217	0.548045	0.544986	99
Es	0.345702	1.262469	0.968647	99
Es	0.506480	1.862613	-1.781205	99
Es	-0.599267	-0.879978	0.053625	99
Es	0.628691	1.084732	-0.671005	99
Es	0.568426	1.407965	-1.324731	99
Es	2.049980	0.841468	0.275820	99
Es	-1.491390	-1.766612	0.504890	99
Es	-1.615943	-0.608418	0.835490	99
Es	0.767491	1.518288	-1.984672	99
Es	-0.383179	-1.026127	0.651160	99
Es	0.420634	1.842613	-2.396479	99
Es	2.443415	0.537059	0.473953	99
