48
Properties=species:S:1:pos:R:3:Z:I:1 energy=-740.4758853297742 field_type=dipole dipole="0.000000 0.000000 0.000000" charge=0
C	-1.975257	-1.016404	-0.123665	6
C	-0.471007	-0.840284	-0.173425	6
S	-0.008347	0.882006	-0.106225	16
O	-0.473597	1.525596	-1.319475	8
O	-0.370657	1.400396	1.201945	8
C	1.788122	0.811816	-0.160865	6
O	2.412792	0.236936	0.994865	8
H	-2.235917	-2.078014	-0.171825	1
H	-2.460337	-0.506944	-0.962395	1
H	-2.389807	-0.604304	0.801905	1
H	-0.068617	-1.251854	-1.103685	1
H	0.000313	-1.342404	0.676325	1
H	2.147413	1.839216	-0.270195	1
H	2.078093	0.239296	-1.045685	1
H	2.026813	0.704946	1.762395	1
Es	-2.245003	-0.741410	0.499509	99
Es	-2.133297	-1.734277	-0.156974	99
Es	1.999618	1.504701	-0.236914	99
Es	2.202042	0.494949	1.387566	99
Es	-0.149530	-1.158045	0.392893	99
Es	2.135275	0.465168	0.562685	99
Es	-0.306576	1.296207	-1.449161	99
Es	-0.117665	0.836397	-0.091888	99
Es	-0.252445	-0.037020	-0.141736	99
Es	0.952838	0.827738	-0.126071	99
Es	1.962127	0.423454	-0.751953	99
Es	0.032049	0.925278	-0.002309	99
Es	-0.261328	1.226083	0.704142	99
Es	1.788061	0.811703	-0.160638	99
Es	-0.196880	1.151514	1.288096	99
Es	-0.296112	1.313052	-0.855869	99
Es	-0.653486	1.364174	1.159629	99
Es	-1.975153	-1.016399	-0.123669	99
Es	-0.346943	1.781546	-1.257014	99
Es	-2.293036	-0.675967	-0.689404	99
Es	-0.211320	1.646434	1.143141	99
Es	-0.370571	1.400255	1.201652	99
Es	2.320424	-0.056219	1.009914	99
Es	2.412565	0.237147	0.994869	99
Es	-0.473471	1.525454	-1.319205	99
Es	-0.015467	0.967689	-0.180219	99
Es	-0.470994	-0.840141	-0.173425	99
Es	0.066885	0.798394	-0.150591	99
Es	-0.191580	-1.098023	-0.797174	99
Es	-0.743764	1.444440	-1.229369	99
Es	2.695227	0.325078	0.960500	99
Es	-1.197688	-0.898690	-0.148725	99
Es	-0.007449	0.882173	-0.106157	99
48
Properties=species:S:1:pos:R:3:Z:I:1 energy=-740.4758853297742 field_type=dipole dipole="0.000000 0.000000 0.000000" charge=0
C	-1.975257	-1.016404	-0.123665	6
C	-0.471007	-0.840284	-0.173425	6
S	-0.008347	0.882006	-0.106225	16
O	-0.473597	1.525596	-1.319475	8
O	-0.370657	1.400396	1.201945	8
C	1.788122	0.811816	-0.160865	6
O	2.412792	0.236936	0.994865	8
H	-2.235917	-2.078014	-0.171825	1
H	-2.460337	-0.506944	-0.962395	1
H	-2.389807	-0.604304	0.801905	1
H	-0.068617	-1.251854	-1.103685	1
H	0.000313	-1.342404	0.676325	1
H	2.147413	1.839216	-0.270195	1
H	2.078093	0.239296	-1.045685	1
H	2.026813	0.704946	1.762395	1
Es	-0.473499	1.525456	-1.319227	99
Es	-0.149481	-1.158172	0.394748	99
Es	1.788059	0.811701	-0.160640	99
Es	2.690864	0.319698	0.960874	99
Es	-1.197438	-0.898781	-0.148888	99
Es	-0.645122	1.351513	1.161345	99
Es	-0.191660	-1.097920	-0.798773	99
Es	-1.975151	-1.016400	-0.123669	99
Es	0.953442	0.828447	-0.125934	99
Es	-0.177429	1.165841	1.306093	99
Es	2.412603	0.237124	0.994861	99
Es	-0.075895	0.789783	-0.096463	99
Es	1.962376	0.423475	-0.753269	99
Es	-0.286369	1.304116	-0.856505	99
Es	0.036653	0.911904	0.003912	99
Es	0.078029	0.853514	-0.177039	99
Es	1.998650	1.503804	-0.236369	99
Es	2.203829	0.495143	1.391956	99
Es	-0.008352	0.881997	-0.106202	99
Es	2.135990	0.465222	0.558969	99
Es	-0.370643	1.400264	1.201736	99
Es	-0.072101	0.972779	-0.155354	99
Es	-0.361048	1.772356	-1.238133	99
Es	-2.293360	-0.676107	-0.691398	99
Es	2.322292	-0.050959	1.009508	99
Es	-2.131715	-1.732503	-0.156905	99
Es	-0.238923	1.645528	1.129030	99
Es	-0.261360	1.225240	0.698620	99
Es	-0.314881	1.310932	-1.483223	99
Es	-2.245113	-0.741787	0.501445	99
Es	-0.470998	-0.840147	-0.173424	99
Es	-0.253831	-0.037994	-0.141866	99
Es	-0.731069	1.447768	-1.213684	99
48
Properties=species:S:1:pos:R:3:Z:I:1 energy=-740.4758853297742 field_type=dipole dipole="0.000000 0.000000 0.000000" charge=0
C	-1.975257	-1.016404	-0.123665	6
C	-0.471007	-0.840284	-0.173425	6
S	-0.008347	0.882006	-0.106225	16
O	-0.473597	1.525596	-1.319475	8
O	-0.370657	1.400396	1.201945	8
C	1.788122	0.811816	-0.160865	6
O	2.412792	0.236936	0.994865	8
H	-2.235917	-2.078014	-0.171825	1
H	-2.460337	-0.506944	-0.962395	1
H	-2.389807	-0.604304	0.801905	1
H	-0.068617	-1.251854	-1.103685	1
H	0.000313	-1.342404	0.676325	1
H	2.147413	1.839216	-0.270195	1
H	2.078093	0.239296	-1.045685	1
H	2.026813	0.704946	1.762395	1
Es	-2.130961	-1.731637	-0.156784	99
Es	-0.639040	1.344251	1.154805	99
Es	2.328119	-0.051115	1.008749	99
Es	-0.149459	-1.158274	0.395558	99
Es	1.788060	0.811704	-0.160642	99
Es	-0.008485	0.882140	-0.106283	99
Es	-0.174280	1.168892	1.314749	99
Es	-0.318429	1.308350	-1.488084	99
Es	-0.254362	-0.038566	-0.141909	99
Es	-0.256404	1.231516	0.694125	99
Es	-0.362868	1.766568	-1.241036	99
Es	0.052608	0.970674	-0.126207	99
Es	1.998159	1.503375	-0.236132	99
Es	-1.975151	-1.016400	-0.123669	99
Es	-0.285656	1.308294	-0.851684	99
Es	-0.470995	-0.840141	-0.173425	99
Es	-0.370537	1.400312	1.201685	99
Es	0.065921	0.795695	-0.094467	99
Es	-0.191880	-1.097840	-0.799593	99
Es	2.202763	0.493716	1.393910	99
Es	-0.080783	0.861731	-0.204024	99
Es	-2.245181	-0.742044	0.502169	99
Es	1.962534	0.423502	-0.753835	99
Es	-2.293560	-0.676283	-0.692297	99
Es	-0.253207	1.643389	1.131516	99
Es	-1.197176	-0.898585	-0.148797	99
Es	2.136640	0.464733	0.556824	99
Es	-0.726415	1.451904	-1.210842	99
Es	-0.070921	0.899782	-0.000140	99
Es	2.685344	0.321503	0.962153	99
Es	2.412749	0.237534	0.994800	99
Es	0.953679	0.828708	-0.125835	99
Es	-0.473478	1.525448	-1.319224	99
48
Properties=species:S:1:pos:R:3:Z:I:1 energy=-740.4758853297742 field_type=dipole dipole="0.000000 0.000000 0.000000" charge=0
C	-1.975257	-1.016404	-0.123665	6
C	-0.471007	-0.840284	-0.173425	6
S	-0.008347	0.882006	-0.106225	16
O	-0.473597	1.525596	-1.319475	8
O	-0.370657	1.400396	1.201945	8
C	1.788122	0.811816	-0.160865	6
O	2.412792	0.236936	0.994865	8
H	-2.235917	-2.078014	-0.171825	1
H	-2.460337	-0.506944	-0.962395	1
H	-2.389807	-0.604304	0.801905	1
H	-0.068617	-1.251854	-1.103685	1
H	0.000313	-1.342404	0.676325	1
H	2.147413	1.839216	-0.270195	1
H	2.078093	0.239296	-1.045685	1
H	2.026813	0.704946	1.762395	1
Es	-2.293631	-0.676239	-0.692611	99
Es	0.953848	0.828872	-0.125852	99
Es	-0.283040	1.302920	-0.853640	99
Es	2.137217	0.465289	0.556132	99
Es	2.687799	0.315552	0.961742	99
Es	2.412444	0.237193	0.994847	99
Es	2.323397	-0.046435	1.008930	99
Es	-0.254647	-0.038861	-0.141934	99
Es	-0.191942	-1.097809	-0.799958	99
Es	2.204640	0.494738	1.394898	99
Es	-0.367143	1.763401	-1.232012	99
Es	0.054173	0.954284	-0.036853	99
Es	-0.173046	1.172282	1.320753	99
Es	-2.245155	-0.742273	0.502671	99
Es	-0.149467	-1.158270	0.395960	99
Es	0.019449	0.772887	-0.080093	99
Es	-0.249258	1.635959	1.121564	99
Es	-0.113618	0.894606	-0.077716	99
Es	-2.130583	-1.731232	-0.156922	99
Es	-0.719567	1.452348	-1.204515	99
Es	-0.473497	1.525461	-1.319241	99
Es	1.962607	0.423510	-0.754088	99
Es	-0.470996	-0.840140	-0.173425	99
Es	-0.009368	0.881728	-0.106688	99
Es	-0.638631	1.354065	1.159361	99
Es	1.998003	1.503271	-0.235952	99
Es	0.007672	0.906505	-0.229796	99
Es	-0.261903	1.225747	0.693501	99
Es	-0.323587	1.316405	-1.501498	99
Es	1.788060	0.811700	-0.160639	99
Es	-1.197146	-0.898528	-0.148854	99
Es	-0.370579	1.400300	1.201730	99
Es	-1.975153	-1.016400	-0.123669	99
48
Properties=species:S:1:pos:R:3:Z:I:1 energy=-740.4758853297742 field_type=dipole dipole="0.000000 0.000000 0.000000" charge=0
C	-1.975257	-1.016404	-0.123665	6
C	-0.471007	-0.840284	-0.173425	6
S	-0.008347	0.882006	-0.106225	16
O	-0.473597	1.525596	-1.319475	8
O	-0.370657	1.400396	1.201945	8
C	1.788122	0.811816	-0.160865	6
O	2.412792	0.236936	0.994865	8
H	-2.235917	-2.078014	-0.171825	1
H	-2.460337	-0.506944	-0.962395	1
H	-2.389807	-0.604304	0.801905	1
H	-0.068617	-1.251854	-1.103685	1
H	0.000313	-1.342404	0.676325	1
H	2.147413	1.839216	-0.270195	1
H	2.078093	0.239296	-1.045685	1
H	2.026813	0.704946	1.762395	1
Es	-0.248951	1.226177	0.695359	99
Es	-1.197190	-0.898571	-0.148928	99
Es	-0.470993	-0.840143	-0.173425	99
Es	-1.975152	-1.016399	-0.123669	99
Es	-0.254709	-0.039117	-0.141949	99
Es	2.136676	0.464731	0.556146	99
Es	-0.281202	1.293308	-0.858333	99
Es	-2.293607	-0.676387	-0.692864	99
Es	-2.130493	-1.730916	-0.156836	99
Es	2.325645	-0.046590	1.008566	99
Es	1.788061	0.811702	-0.160642	99
Es	-0.020753	0.946004	-0.212860	99
Es	-0.109508	0.868160	-0.057503	99
Es	-0.716579	1.470576	-1.192762	99
Es	-0.370546	1.400232	1.201654	99
Es	0.066544	0.935604	-0.026580	99
Es	0.953862	0.829026	-0.125811	99
Es	-0.473383	1.525270	-1.319197	99
Es	-0.149537	-1.158221	0.396138	99
Es	2.412385	0.237120	0.994856	99
Es	-0.632076	1.336075	1.144737	99
Es	-0.191835	-1.097785	-0.800104	99
Es	-2.245198	-0.742212	0.502853	99
Es	1.997787	1.502931	-0.235817	99
Es	2.203981	0.493911	1.395446	99
Es	0.030349	0.778363	-0.127941	99
Es	-0.269666	1.643463	1.121827	99
Es	-0.172192	1.182381	1.333354	99
Es	1.962770	0.423604	-0.754362	99
Es	2.686848	0.317242	0.961634	99
Es	-0.353527	1.751430	-1.224138	99
Es	-0.342133	1.319992	-1.516459	99
Es	-0.008322	0.881874	-0.106256	99
48
Properties=species:S:1:pos:R:3:Z:I:1 energy=-740.4758853297742 field_type=dipole dipole="0.000000 0.000000 0.000000" charge=0
C	-1.975257	-1.016404	-0.123665	6
C	-0.471007	-0.840284	-0.173425	6
S	-0.008347	0.882006	-0.106225	16
O	-0.473597	1.525596	-1.319475	8
O	-0.370657	1.400396	1.201945	8
C	1.788122	0.811816	-0.160865	6
O	2.412792	0.236936	0.994865	8
H	-2.235917	-2.078014	-0.171825	1
H	-2.460337	-0.506944	-0.962395	1
H	-2.389807	-0.604304	0.801905	1
H	-0.068617	-1.251854	-1.103685	1
H	0.000313	-1.342404	0.676325	1
H	2.147413	1.839216	-0.270195	1
H	2.078093	0.239296	-1.045685	1
H	2.026813	0.704946	1.762395	1
Es	-0.251583	1.215171	0.698293	99
Es	1.788060	0.811701	-0.160639	99
Es	-2.293709	-0.676287	-0.692875	99
Es	-0.473391	1.525384	-1.319200	99
Es	-0.182680	1.182126	1.344405	99
Es	0.026248	0.858077	0.013800	99
Es	2.684611	0.317375	0.961814	99
Es	1.997833	1.503107	-0.235904	99
Es	-2.130493	-1.730930	-0.156802	99
Es	-0.008327	0.882029	-0.106179	99
Es	-0.118617	0.870111	-0.117901	99
Es	2.204614	0.493839	1.396148	99
Es	-0.714416	1.457236	-1.192354	99
Es	0.012514	0.988152	-0.131780	99
Es	0.953898	0.828877	-0.125916	99
Es	1.962693	0.423628	-0.754209	99
Es	-0.254785	-0.039064	-0.142018	99
Es	-0.255996	1.635726	1.111344	99
Es	-0.470993	-0.840143	-0.173425	99
Es	-0.334955	1.331506	-1.522574	99
Es	-1.197088	-0.898533	-0.148791	99
Es	-0.149398	-1.158267	0.396162	99
Es	-0.367290	1.753159	-1.216077	99
Es	-0.632623	1.354964	1.141266	99
Es	-0.276771	1.293268	-0.860704	99
Es	-2.245161	-0.742354	0.502744	99
Es	-0.370511	1.400295	1.201618	99
Es	2.412488	0.237182	0.994848	99
Es	-1.975154	-1.016399	-0.123669	99
Es	2.326935	-0.046652	1.008604	99
Es	2.136894	0.464627	0.555252	99
Es	-0.191990	-1.097749	-0.800086	99
Es	0.046498	0.811674	-0.189060	99
48
Properties=species:S:1:pos:R:3:Z:I:1 energy=-740.4758853297742 field_type=dipole dipole="0.000000 0.000000 0.000000" charge=0
C	-1.975257	-1.016404	-0.123665	6
C	-0.471007	-0.840284	-0.173425	6
S	-0.008347	0.882006	-0.106225	16
O	-0.473597	1.525596	-1.319475	8
O	-0.370657	1.400396	1.201945	8
C	1.788122	0.811816	-0.160865	6
O	2.412792	0.236936	0.994865	8
H	-2.235917	-2.078014	-0.171825	1
H	-2.460337	-0.506944	-0.962395	1
H	-2.389807	-0.604304	0.801905	1
H	-0.068617	-1.251854	-1.103685	1
H	0.000313	-1.342404	0.676325	1
H	2.147413	1.839216	-0.270195	1
H	2.078093	0.239296	-1.045685	1
H	2.026813	0.704946	1.762395	1
Es	-0.254972	-0.039197	-0.141895	99
Es	-0.067982	0.817785	-0.190993	99
Es	-0.179025	1.185033	1.346786	99
Es	-2.245166	-0.742305	0.503057	99
Es	-0.275507	1.300528	-0.856053	99
Es	0.954119	0.828952	-0.125820	99
Es	1.997691	1.503097	-0.235902	99
Es	-2.293664	-0.676424	-0.693273	99
Es	2.204496	0.493973	1.396258	99
Es	2.137423	0.465068	0.555456	99
Es	-1.197066	-0.898547	-0.148845	99
Es	-0.191996	-1.097692	-0.800403	99
Es	2.683799	0.317710	0.961893	99
Es	-0.714319	1.451155	-1.196002	99
Es	-0.001715	0.988856	-0.140271	99
Es	-0.473610	1.525534	-1.319496	99
Es	-0.149555	-1.158369	0.396397	99
Es	-0.008340	0.882000	-0.106231	99
Es	0.095610	0.846182	-0.103601	99
Es	-2.130187	-1.730644	-0.156719	99
Es	-0.373496	1.756253	-1.223886	99
Es	-0.259074	1.631570	1.108626	99
Es	-0.252312	1.216462	0.697089	99
Es	-0.370492	1.400339	1.201734	99
Es	-0.632498	1.354876	1.142714	99
Es	1.962572	0.423496	-0.754373	99
Es	-0.470995	-0.840143	-0.173425	99
Es	-0.059239	0.875242	0.009982	99
Es	-1.975151	-1.016400	-0.123669	99
Es	1.788061	0.811701	-0.160641	99
Es	2.327294	-0.047560	1.008292	99
Es	2.412539	0.237249	0.994859	99
Es	-0.329889	1.327055	-1.515510	99
48
Properties=species:S:1:pos:R:3:Z:I:1 energy=-740.4758853297742 field_type=dipole dipole="0.000000 0.000000 0.000000" charge=0
C	-1.975257	-1.016404	-0.123665	6
C	-0.471007	-0.840284	-0.173425	6
S	-0.008347	0.882006	-0.106225	16
O	-0.473597	1.525596	-1.319475	8
O	-0.370657	1.400396	1.201945	8
C	1.788122	0.811816	-0.160865	6
O	2.412792	0.236936	0.994865	8
H	-2.235917	-2.078014	-0.171825	1
H	-2.460337	-0.506944	-0.962395	1
H	-2.389807	-0.604304	0.801905	1
H	-0.068617	-1.251854	-1.103685	1
H	0.000313	-1.342404	0.676325	1
H	2.147413	1.839216	-0.270195	1
H	2.078093	0.239296	-1.045685	1
H	2.026813	0.704946	1.762395	1
Es	-0.008350	0.882009	-0.106230	99
Es	-0.470995	-0.840144	-0.173425	99
Es	-0.712828	1.457988	-1.197442	99
Es	-1.197034	-0.898484	-0.148873	99
Es	1.962802	0.423734	-0.754577	99
Es	-0.149501	-1.158364	0.396516	99
Es	1.788060	0.811703	-0.160641	99
Es	-0.332965	1.319306	-1.512541	99
Es	0.099607	0.902657	-0.092846	99
Es	-2.293694	-0.676525	-0.693348	99
Es	-0.283511	1.637089	1.107012	99
Es	0.954088	0.828973	-0.125869	99
Es	1.997472	1.502884	-0.235695	99
Es	-0.192129	-1.097736	-0.800449	99
Es	2.323194	-0.043946	1.008241	99
Es	-0.280580	1.301333	-0.853068	99
Es	-0.626973	1.330887	1.143890	99
Es	2.687040	0.313417	0.962540	99
Es	-0.366954	1.756387	-1.228631	99
Es	-0.024406	0.808156	-0.206372	99
Es	-0.473498	1.525506	-1.319273	99
Es	-0.255063	-0.039151	-0.142005	99
Es	-2.245211	-0.742340	0.503238	99
Es	-0.054997	0.836805	0.000458	99
Es	-2.129977	-1.730544	-0.156763	99
Es	2.138405	0.465632	0.555034	99
Es	-0.370584	1.400318	1.201727	99
Es	-0.053500	0.980400	-0.126123	99
Es	-1.975147	-1.016398	-0.123670	99
Es	-0.163695	1.199293	1.348376	99
Es	2.412566	0.237284	0.994850	99
Es	2.204365	0.494011	1.396133	99
Es	-0.248652	1.220695	0.695959	99
48
Properties=species:S:1:pos:R:3:Z:I:1 energy=-740.4758853297742 field_type=dipole dipole="0.000000 0.000000 0.000000" charge=0
C	-1.975257	-1.016404	-0.123665	6
C	-0.471007	-0.840284	-0.173425	6
S	-0.008347	0.882006	-0.106225	16
O	-0.473597	1.525596	-1.319475	8
O	-0.370657	1.400396	1.201945	8
C	1.788122	0.811816	-0.160865	6
O	2.412792	0.236936	0.994865	8
H	-2.235917	-2.078014	-0.171825	1
H	-2.460337	-0.506944	-0.962395	1
H	-2.389807	-0.604304	0.801905	1
H	-0.068617	-1.251854	-1.103685	1
H	0.000313	-1.342404	0.676325	1
H	2.147413	1.839216	-0.270195	1
H	2.078093	0.239296	-1.045685	1
H	2.026813	0.704946	1.762395	1
Es	-1.975151	-1.016399	-0.123669	99
Es	-0.251411	1.223902	0.693871	99
Es	-0.041550	0.924399	-0.220572	99
Es	-0.174359	1.183788	1.341328	99
Es	-0.035929	0.957613	-0.016284	99
Es	-0.057956	0.785085	-0.085815	99
Es	-2.293681	-0.676465	-0.693194	99
Es	-2.245169	-0.742326	0.503228	99
Es	0.102721	0.860750	-0.102258	99
Es	-2.130100	-1.730624	-0.156837	99
Es	1.788061	0.811702	-0.160640	99
Es	-0.349025	1.324989	-1.526508	99
Es	2.324267	-0.045010	1.008765	99
Es	1.962736	0.423580	-0.754374	99
Es	0.953964	0.829118	-0.125878	99
Es	2.137397	0.464823	0.555378	99
Es	-0.265763	1.633804	1.115478	99
Es	2.686581	0.315028	0.961856	99
Es	-0.149533	-1.158295	0.396519	99
Es	-1.196981	-0.898453	-0.148908	99
Es	2.412585	0.237146	0.994855	99
Es	-0.473514	1.525383	-1.319179	99
Es	-0.192038	-1.097728	-0.800558	99
Es	-0.008968	0.882163	-0.106219	99
Es	-0.631292	1.346474	1.144635	99
Es	2.204660	0.494461	1.395920	99
Es	-0.276893	1.293426	-0.858459	99
Es	-0.359438	1.748134	-1.221052	99
Es	-0.470993	-0.840144	-0.173426	99
Es	-0.707896	1.468573	-1.185765	99
Es	-0.255141	-0.039250	-0.141908	99
Es	1.997743	1.502903	-0.235866	99
Es	-0.370575	1.400285	1.201666	99
48
Properties=species:S:1:pos:R:3:Z:I:1 energy=-740.4758853297742 field_type=dipole dipole="0.000000 0.000000 0.000000" charge=0
C	-1.975257	-1.016404	-0.123665	6
C	-0.471007	-0.840284	-0.173425	6
S	-0.008347	0.882006	-0.106225	16
O	-0.473597	1.525596	-1.319475	8
O	-0.370657	1.400396	1.201945	8
C	1.788122	0.811816	-0.160865	6
O	2.412792	0.236936	0.994865	8
H	-2.235917	-2.078014	-0.171825	1
H	-2.460337	-0.506944	-0.962395	1
H	-2.389807	-0.604304	0.801905	1
H	-0.068617	-1.251854	-1.103685	1
H	0.000313	-1.342404	0.676325	1
H	2.147413	1.839216	-0.270195	1
H	2.078093	0.239296	-1.045685	1
H	2.026813	0.704946	1.762395	1
Es	0.044357	0.885733	-0.221237	99
Es	-0.103209	0.827387	-0.111280	99
Es	-0.707551	1.467105	-1.185878	99
Es	-0.149729	-1.158263	0.396482	99
Es	-0.277045	1.293437	-0.858684	99
Es	-0.370556	1.400274	1.201652	99
Es	-0.186218	1.182025	1.350196	99
Es	-0.348348	1.324985	-1.526272	99
Es	1.997603	1.503081	-0.235837	99
Es	-0.008351	0.882012	-0.106223	99
Es	-1.196997	-0.898192	-0.148779	99
Es	-0.250884	1.215808	0.696946	99
Es	-2.293594	-0.676486	-0.693197	99
Es	2.323928	-0.042886	1.009274	99
Es	-0.254854	-0.039248	-0.141951	99
Es	-0.360331	1.749491	-1.220897	99
Es	1.962678	0.423514	-0.754431	99
Es	2.205303	0.494792	1.396366	99
Es	2.136533	0.463749	0.555053	99
Es	-1.975150	-1.016399	-0.123667	99
Es	-0.255404	1.630656	1.110390	99
Es	2.412509	0.237140	0.994840	99
Es	-2.130054	-1.730628	-0.156910	99
Es	0.062844	0.833783	-0.013635	99
Es	-2.245335	-0.742371	0.503197	99
Es	-0.473497	1.525458	-1.319236	99
Es	0.954141	0.828942	-0.125862	99
Es	2.687240	0.313694	0.961245	99
Es	-0.192059	-1.097963	-0.800511	99
Es	-0.037351	0.981117	-0.078737	99
Es	-0.630332	1.359536	1.137780	99
Es	-0.470995	-0.840142	-0.173425	99
Es	1.788061	0.811698	-0.160638	99
48
Properties=species:S:1:pos:R:3:Z:I:1 energy=-740.4758853297742 field_type=dipole dipole="0.000000 0.000000 0.000000" charge=0
C	-1.975257	-1.016404	-0.123665	6
C	-0.471007	-0.840284	-0.173425	6
S	-0.008347	0.882006	-0.106225	16
O	-0.473597	1.525596	-1.319475	8
O	-0.370657	1.400396	1.201945	8
C	1.788122	0.811816	-0.160865	6
O	2.412792	0.236936	0.994865	8
H	-2.235917	-2.078014	-0.171825	1
H	-2.460337	-0.506944	-0.962395	1
H	-2.389807	-0.604304	0.801905	1
H	-0.068617	-1.251854	-1.103685	1
H	0.000313	-1.342404	0.676325	1
H	2.147413	1.839216	-0.270195	1
H	2.078093	0.239296	-1.045685	1
H	2.026813	0.704946	1.762395	1
Es	-1.975150	-1.016400	-0.123669	99
Es	2.137805	0.464899	0.554596	99
Es	1.962630	0.423572	-0.754397	99
Es	2.327182	-0.045312	1.007873	99
Es	-0.273049	1.632558	1.107914	99
Es	-0.020881	0.924436	-0.226328	99
Es	0.954052	0.829094	-0.125840	99
Es	-0.470998	-0.840147	-0.173425	99
Es	-0.708225	1.480057	-1.186007	99
Es	-2.245273	-0.742269	0.503182	99
Es	-0.247906	1.219540	0.695960	99
Es	-0.347686	1.745195	-1.221196	99
Es	0.103314	0.866423	-0.075315	99
Es	2.204411	0.493363	1.397261	99
Es	-0.473498	1.525461	-1.319244	99
Es	-0.008350	0.881997	-0.106228	99
Es	-0.283095	1.289616	-0.858586	99
Es	-0.054298	0.785768	-0.097666	99
Es	1.997721	1.502995	-0.235851	99
Es	-0.061471	0.951393	-0.025588	99
Es	-0.255096	-0.039303	-0.141878	99
Es	2.683585	0.316239	0.962178	99
Es	-0.149592	-1.158255	0.396490	99
Es	-2.293729	-0.676663	-0.693254	99
Es	-1.196985	-0.898468	-0.149000	99
Es	-0.354258	1.320163	-1.525937	99
Es	-2.130087	-1.730486	-0.156723	99
Es	-0.629100	1.342663	1.140416	99
Es	-0.172748	1.193197	1.350933	99
Es	1.788063	0.811704	-0.160649	99
Es	-0.191880	-1.097708	-0.800481	99
Es	2.412534	0.237207	0.994850	99
Es	-0.370589	1.400307	1.201746	99
48
Properties=species:S:1:pos:R:3:Z:I:1 energy=-740.4758853297742 field_type=dipole dipole="0.000000 0.000000 0.000000" charge=0
C	-1.975257	-1.016404	-0.123665	6
C	-0.471007	-0.840284	-0.173425	6
S	-0.008347	0.882006	-0.106225	16
O	-0.473597	1.525596	-1.319475	8
O	-0.370657	1.400396	1.201945	8
C	1.788122	0.811816	-0.160865	6
O	2.412792	0.236936	0.994865	8
H	-2.235917	-2.078014	-0.171825	1
H	-2.460337	-0.506944	-0.962395	1
H	-2.389807	-0.604304	0.801905	1
H	-0.068617	-1.251854	-1.103685	1
H	0.000313	-1.342404	0.676325	1
H	2.147413	1.839216	-0.270195	1
H	2.078093	0.239296	-1.045685	1
H	2.026813	0.704946	1.762395	1
Es	2.325573	-0.043779	1.007598	99
Es	-2.293765	-0.676405	-0.693359	99
Es	1.997630	1.502780	-0.235769	99
Es	-0.111694	0.851566	-0.145493	99
Es	-1.975149	-1.016397	-0.123669	99
Es	2.203652	0.492811	1.396991	99
Es	-0.255159	1.220518	0.694293	99
Es	-0.358823	1.747396	-1.217916	99
Es	-0.191968	-1.097703	-0.800551	99
Es	-0.149606	-1.158312	0.396692	99
Es	-0.370575	1.400293	1.201714	99
Es	-0.360320	1.328767	-1.534254	99
Es	-2.245194	-0.742567	0.503404	99
Es	-1.196955	-0.898509	-0.149000	99
Es	-0.261245	1.630088	1.110739	99
Es	0.031754	0.969804	-0.173733	99
Es	0.057595	0.795343	-0.124337	99
Es	-0.255099	-0.039418	-0.141978	99
Es	-0.473460	1.525458	-1.319194	99
Es	-2.130010	-1.730250	-0.156888	99
Es	1.788061	0.811698	-0.160634	99
Es	2.412485	0.237145	0.994856	99
Es	-0.701541	1.469552	-1.176963	99
Es	0.954032	0.829156	-0.125913	99
Es	-0.008327	0.881974	-0.106265	99
Es	1.962759	0.423674	-0.754539	99
Es	-0.174033	1.184513	1.342629	99
Es	2.685886	0.315043	0.962506	99
Es	-0.470994	-0.840142	-0.173425	99
Es	-0.011027	0.911343	0.018727	99
Es	-0.632400	1.352827	1.147612	99
Es	2.137894	0.465169	0.554874	99
Es	-0.272628	1.289399	-0.862621	99
48
Properties=species:S:1:pos:R:3:Z:I:1 energy=-740.4758853297742 field_type=dipole dipole="0.000000 0.000000 0.000000" charge=0
C	-1.975257	-1.016404	-0.123665	6
C	-0.471007	-0.840284	-0.173425	6
S	-0.008347	0.882006	-0.106225	16
O	-0.473597	1.525596	-1.319475	8
O	-0.370657	1.400396	1.201945	8
C	1.788122	0.811816	-0.160865	6
O	2.412792	0.236936	0.994865	8
H	-2.235917	-2.078014	-0.171825	1
H	-2.460337	-0.506944	-0.962395	1
H	-2.389807	-0.604304	0.801905	1
H	-0.068617	-1.251854	-1.103685	1
H	0.000313	-1.342404	0.676325	1
H	2.147413	1.839216	-0.270195	1
H	2.078093	0.239296	-1.045685	1
H	2.026813	0.704946	1.762395	1
Es	-1.975150	-1.016400	-0.123670	99
Es	-2.293613	-0.676596	-0.693573	99
Es	-0.372598	1.750752	-1.222122	99
Es	1.997468	1.502818	-0.235726	99
Es	-0.255166	-0.039392	-0.141916	99
Es	-0.260086	1.629498	1.108450	99
Es	-0.274833	1.300356	-0.855284	99
Es	-1.197135	-0.898570	-0.148741	99
Es	-0.064417	0.813006	-0.189186	99
Es	-0.339329	1.327516	-1.525029	99
Es	-0.252209	1.216826	0.695846	99
Es	1.962827	0.423669	-0.754591	99
Es	-0.042216	0.986446	-0.120100	99
Es	-0.628482	1.356623	1.139029	99
Es	2.138365	0.465825	0.554903	99
Es	-2.129940	-1.730308	-0.156704	99
Es	0.101019	0.883277	-0.129704	99
Es	2.686773	0.313335	0.962570	99
Es	2.412391	0.237119	0.994860	99
Es	-0.182019	1.184995	1.351955	99
Es	-0.192030	-1.097747	-0.800659	99
Es	-0.149521	-1.158230	0.396568	99
Es	0.954097	0.829056	-0.125895	99
Es	-0.370573	1.400290	1.201702	99
Es	-0.008333	0.881999	-0.106231	99
Es	-2.245246	-0.742286	0.503365	99
Es	-0.027712	0.845321	0.014099	99
Es	2.204543	0.493862	1.396321	99
Es	-0.470994	-0.840144	-0.173423	99
Es	1.788060	0.811704	-0.160643	99
Es	-0.473505	1.525465	-1.319244	99
Es	2.323457	-0.043651	1.008204	99
Es	-0.706540	1.456404	-1.189298	99
48
Properties=species:S:1:pos:R:3:Z:I:1 energy=-740.4758853297742 field_type=dipole dipole="0.000000 0.000000 0.000000" charge=0
C	-1.975257	-1.016404	-0.123665	6
C	-0.471007	-0.840284	-0.173425	6
S	-0.008347	0.882006	-0.106225	16
O	-0.473597	1.525596	-1.319475	8
O	-0.370657	1.400396	1.201945	8
C	1.788122	0.811816	-0.160865	6
O	2.412792	0.236936	0.994865	8
H	-2.235917	-2.078014	-0.171825	1
H	-2.460337	-0.506944	-0.962395	1
H	-2.389807	-0.604304	0.801905	1
H	-0.068617	-1.251854	-1.103685	1
H	0.000313	-1.342404	0.676325	1
H	2.147413	1.839216	-0.270195	1
H	2.078093	0.239296	-1.045685	1
H	2.026813	0.704946	1.762395	1
Es	-0.335202	1.323085	-1.519636	99
Es	2.683979	0.317335	0.962647	99
Es	0.039445	0.977264	-0.118716	99
Es	-0.470995	-0.840140	-0.173424	99
Es	1.997638	1.503021	-0.235951	99
Es	-1.196952	-0.898408	-0.148887	99
Es	-2.293786	-0.676565	-0.693498	99
Es	2.412551	0.237230	0.994849	99
Es	-0.627423	1.355941	1.139945	99
Es	-1.975152	-1.016399	-0.123667	99
Es	-0.252789	1.220656	0.693518	99
Es	-0.255235	-0.039450	-0.141961	99
Es	-0.281458	1.300506	-0.851789	99
Es	-0.181550	1.182796	1.349980	99
Es	0.065591	0.816608	-0.040758	99
Es	-0.473533	1.525539	-1.319274	99
Es	-0.261003	1.628492	1.111900	99
Es	-0.149523	-1.158319	0.396723	99
Es	1.788061	0.811701	-0.160641	99
Es	0.954068	0.829026	-0.125947	99
Es	-2.129930	-1.730222	-0.156730	99
Es	-0.105128	0.903153	-0.044434	99
Es	-0.368827	1.751682	-1.224574	99
Es	1.962659	0.423596	-0.754316	99
Es	-0.707724	1.459617	-1.195743	99
Es	2.203197	0.492301	1.397187	99
Es	2.137417	0.464423	0.554475	99
Es	-2.245234	-0.742476	0.503340	99
Es	-0.370558	1.400265	1.201666	99
Es	-0.008331	0.882045	-0.106245	99
Es	2.328404	-0.044801	1.007712	99
Es	-0.033265	0.830999	-0.220977	99
Es	-0.192059	-1.097665	-0.800639	99
48
Properties=species:S:1:pos:R:3:Z:I:1 energy=-740.4758853297742 field_type=dipole dipole="0.000000 0.000000 0.000000" charge=0
C	-1.975257	-1.016404	-0.123665	6
C	-0.471007	-0.840284	-0.173425	6
S	-0.008347	0.882006	-0.106225	16
O	-0.473597	1.525596	-1.319475	8
O	-0.370657	1.400396	1.201945	8
C	1.788122	0.811816	-0.160865	6
O	2.412792	0.236936	0.994865	8
H	-2.235917	-2.078014	-0.171825	1
H	-2.460337	-0.506944	-0.962395	1
H	-2.389807	-0.604304	0.801905	1
H	-0.068617	-1.251854	-1.103685	1
H	0.000313	-1.342404	0.676325	1
H	2.147413	1.839216	-0.270195	1
H	2.078093	0.239296	-1.045685	1
H	2.026813	0.704946	1.762395	1
Es	-0.249536	1.210729	0.698832	99
Es	-0.121366	0.874545	-0.102589	99
Es	-2.293967	-0.676555	-0.693597	99
Es	-2.129923	-1.730092	-0.156580	99
Es	2.327094	-0.043053	1.007604	99
Es	0.032159	0.904711	-0.224009	99
Es	2.136712	0.464413	0.554774	99
Es	0.954061	0.829101	-0.125836	99
Es	-1.196956	-0.898528	-0.148941	99
Es	-0.709981	1.470048	-1.195453	99
Es	-2.245118	-0.742548	0.503286	99
Es	-0.254605	1.626498	1.103853	99
Es	1.788060	0.811702	-0.160641	99
Es	-0.008554	0.881778	-0.106882	99
Es	1.962772	0.423674	-0.754550	99
Es	-0.624984	1.365325	1.129119	99
Es	2.412520	0.237227	0.994860	99
Es	-0.473556	1.525495	-1.319279	99
Es	-0.340045	1.318587	-1.518730	99
Es	2.203303	0.491813	1.397268	99
Es	-0.370579	1.400295	1.201717	99
Es	-0.149363	-1.158258	0.396806	99
Es	2.685936	0.316058	0.962353	99
Es	-1.975159	-1.016401	-0.123668	99
Es	-0.359023	1.747353	-1.226164	99
Es	-0.470994	-0.840143	-0.173425	99
Es	0.026403	0.785539	-0.075429	99
Es	-0.284204	1.299002	-0.851364	99
Es	-0.193646	1.185460	1.363415	99
Es	0.029642	0.963440	-0.022231	99
Es	-0.192055	-1.097612	-0.800535	99
Es	1.997528	1.502790	-0.235766	99
Es	-0.255222	-0.039556	-0.142084	99
48
Properties=species:S:1:pos:R:3:Z:I:1 energy=-740.4758853297742 field_type=dipole dipole="0.000000 0.000000 0.000000" charge=0
C	-1.975257	-1.016404	-0.123665	6
C	-0.471007	-0.840284	-0.173425	6
S	-0.008347	0.882006	-0.106225	16
O	-0.473597	1.525596	-1.319475	8
O	-0.370657	1.400396	1.201945	8
C	1.788122	0.811816	-0.160865	6
O	2.412792	0.236936	0.994865	8
H	-2.235917	-2.078014	-0.171825	1
H	-2.460337	-0.506944	-0.962395	1
H	-2.389807	-0.604304	0.801905	1
H	-0.068617	-1.251854	-1.103685	1
H	0.000313	-1.342404	0.676325	1
H	2.147413	1.839216	-0.270195	1
H	2.078093	0.239296	-1.045685	1
H	2.026813	0.704946	1.762395	1
Es	-0.359639	1.746749	-1.220188	99
Es	0.033657	0.778463	-0.121240	99
Es	-1.197004	-0.898446	-0.148828	99
Es	-0.182355	1.187445	1.354263	99
Es	1.997661	1.503040	-0.235916	99
Es	-0.008353	0.881824	-0.106230	99
Es	-0.255127	-0.039437	-0.141939	99
Es	-0.473511	1.525470	-1.319244	99
Es	-0.100064	0.900601	-0.186318	99
Es	-0.370567	1.400278	1.201686	99
Es	0.072270	0.948382	-0.132695	99
Es	-0.254238	1.212836	0.696471	99
Es	2.138363	0.465630	0.554435	99
Es	0.954076	0.829025	-0.125994	99
Es	-0.257846	1.627247	1.104254	99
Es	-2.245329	-0.742530	0.503417	99
Es	2.325043	-0.043864	1.007916	99
Es	-0.347816	1.325084	-1.527469	99
Es	2.204188	0.493177	1.396807	99
Es	-0.628378	1.360340	1.140325	99
Es	-2.293735	-0.676570	-0.693448	99
Es	-0.039204	0.900794	0.015364	99
Es	1.788062	0.811707	-0.160651	99
Es	-0.149578	-1.158214	0.396616	99
Es	-0.470993	-0.840142	-0.173427	99
Es	-1.975151	-1.016402	-0.123669	99
Es	-2.129925	-1.730154	-0.156845	99
Es	-0.280406	1.293498	-0.856010	99
Es	2.685373	0.314324	0.962862	99
Es	-0.191992	-1.097779	-0.800614	99
Es	2.412512	0.237178	0.994854	99
Es	1.962690	0.423617	-0.754312	99
Es	-0.705331	1.469667	-1.188101	99
48
Properties=species:S:1:pos:R:3:Z:I:1 energy=-740.4758853297742 field_type=dipole dipole="0.000000 0.000000 0.000000" charge=0
C	-1.975257	-1.016404	-0.123665	6
C	-0.471007	-0.840284	-0.173425	6
S	-0.008347	0.882006	-0.106225	16
O	-0.473597	1.525596	-1.319475	8
O	-0.370657	1.400396	1.201945	8
C	1.788122	0.811816	-0.160865	6
O	2.412792	0.236936	0.994865	8
H	-2.235917	-2.078014	-0.171825	1
H	-2.460337	-0.506944	-0.962395	1
H	-2.389807	-0.604304	0.801905	1
H	-0.068617	-1.251854	-1.103685	1
H	0.000313	-1.342404	0.676325	1
H	2.147413	1.839216	-0.270195	1
H	2.078093	0.239296	-1.045685	1
H	2.026813	0.704946	1.762395	1
Es	-0.149581	-1.158191	0.396791	99
Es	-1.975153	-1.016400	-0.123669	99
Es	-0.108334	0.839291	-0.079058	99
Es	-0.624546	1.346616	1.130880	99
Es	-1.197042	-0.898545	-0.148957	99
Es	2.688442	0.311417	0.962371	99
Es	-0.244433	1.220638	0.695983	99
Es	-2.293714	-0.676514	-0.693528	99
Es	-0.705070	1.459649	-1.184770	99
Es	-2.129871	-1.730124	-0.156860	99
Es	0.006055	0.981877	-0.043512	99
Es	-0.473475	1.525458	-1.319209	99
Es	2.137568	0.464513	0.554364	99
Es	0.954049	0.829185	-0.125865	99
Es	1.788060	0.811700	-0.160640	99
Es	1.997667	1.502839	-0.235886	99
Es	-0.008357	0.881982	-0.106239	99
Es	-2.245278	-0.742544	0.503494	99
Es	-0.369216	1.750753	-1.223913	99
Es	-0.183489	1.187345	1.356423	99
Es	-0.370561	1.400298	1.201721	99
Es	-0.270324	1.633321	1.111984	99
Es	0.068225	0.807113	-0.069865	99
Es	2.412450	0.237134	0.994846	99
Es	-0.470993	-0.840146	-0.173425	99
Es	-0.346127	1.324938	-1.526325	99
Es	-0.255271	-0.039471	-0.141989	99
Es	-0.272853	1.299656	-0.856803	99
Es	0.000716	0.899792	-0.232467	99
Es	-0.191910	-1.097725	-0.800595	99
Es	2.323196	-0.039369	1.007833	99
Es	1.962679	0.423575	-0.754451	99
Es	2.203842	0.492776	1.397472	99
48
Properties=species:S:1:pos:R:3:Z:I:1 energy=-740.4758853297742 field_type=dipole dipole="0.000000 0.000000 0.000000" charge=0
C	-1.975257	-1.016404	-0.123665	6
C	-0.471007	-0.840284	-0.173425	6
S	-0.008347	0.882006	-0.106225	16
O	-0.473597	1.525596	-1.319475	8
O	-0.370657	1.400396	1.201945	8
C	1.788122	0.811816	-0.160865	6
O	2.412792	0.236936	0.994865	8
H	-2.235917	-2.078014	-0.171825	1
H	-2.460337	-0.506944	-0.962395	1
H	-2.389807	-0.604304	0.801905	1
H	-0.068617	-1.251854	-1.103685	1
H	0.000313	-1.342404	0.676325	1
H	2.147413	1.839216	-0.270195	1
H	2.078093	0.239296	-1.045685	1
H	2.026813	0.704946	1.762395	1
Es	-0.267512	1.290424	-0.864341	99
Es	-0.270868	1.635675	1.117510	99
Es	1.788060	0.811701	-0.160640	99
Es	-0.254382	1.226842	0.691690	99
Es	1.997501	1.502879	-0.235833	99
Es	-0.149657	-1.158162	0.396853	99
Es	-2.129782	-1.730141	-0.156895	99
Es	-0.699894	1.452297	-1.179313	99
Es	2.137697	0.464828	0.554782	99
Es	-0.192002	-1.097841	-0.800751	99
Es	2.325072	-0.043302	1.008128	99
Es	-1.975152	-1.016400	-0.123669	99
Es	-2.245329	-0.742558	0.503533	99
Es	-0.255311	-0.039496	-0.142037	99
Es	-0.103331	0.826064	-0.135409	99
Es	-0.370562	1.400215	1.201643	99
Es	-0.377515	1.746303	-1.206577	99
Es	-0.169078	1.184640	1.338089	99
Es	-2.293732	-0.676578	-0.693505	99
Es	0.954179	0.829079	-0.125912	99
Es	-0.628412	1.340849	1.148085	99
Es	2.412503	0.237219	0.994868	99
Es	-0.470993	-0.840145	-0.173425	99
Es	1.962715	0.423524	-0.754553	99
Es	-0.008345	0.882006	-0.106220	99
Es	2.685551	0.313993	0.961915	99
Es	-1.196869	-0.898348	-0.148892	99
Es	0.075593	0.819605	-0.142301	99
Es	-0.348329	1.345954	-1.541541	99
Es	-0.000485	0.899112	0.020549	99
Es	-0.005145	0.983283	-0.167697	99
Es	2.204685	0.493821	1.397214	99
Es	-0.473518	1.525495	-1.319213	99
48
Properties=species:S:1:pos:R:3:Z:I:1 energy=-740.4758853297742 field_type=dipole dipole="0.000000 0.000000 0.000000" charge=0
C	-1.975257	-1.016404	-0.123665	6
C	-0.471007	-0.840284	-0.173425	6
S	-0.008347	0.882006	-0.106225	16
O	-0.473597	1.525596	-1.319475	8
O	-0.370657	1.400396	1.201945	8
C	1.788122	0.811816	-0.160865	6
O	2.412792	0.236936	0.994865	8
H	-2.235917	-2.078014	-0.171825	1
H	-2.460337	-0.506944	-0.962395	1
H	-2.389807	-0.604304	0.801905	1
H	-0.068617	-1.251854	-1.103685	1
H	0.000313	-1.342404	0.676325	1
H	2.147413	1.839216	-0.270195	1
H	2.078093	0.239296	-1.045685	1
H	2.026813	0.704946	1.762395	1
Es	2.412331	0.237066	0.994857	99
Es	0.954232	0.828929	-0.125898	99
Es	-1.196980	-0.898345	-0.148820	99
Es	-0.371648	1.747369	-1.216372	99
Es	-0.278933	1.296788	-0.854863	99
Es	2.324862	-0.042686	1.008090	99
Es	-2.293872	-0.676602	-0.693481	99
Es	-0.255223	-0.039419	-0.141982	99
Es	-0.253089	1.216185	0.695415	99
Es	-0.336260	1.332339	-1.527933	99
Es	-2.129838	-1.730224	-0.156730	99
Es	-0.192129	-1.097707	-0.800654	99
Es	2.685577	0.313397	0.962363	99
Es	-1.975152	-1.016399	-0.123669	99
Es	2.138122	0.465129	0.554340	99
Es	-0.470994	-0.840142	-0.173425	99
Es	2.204684	0.493563	1.397208	99
Es	-0.149448	-1.158276	0.396652	99
Es	-0.099324	0.818865	-0.110229	99
Es	-0.008511	0.882050	-0.106192	99
Es	-0.706367	1.458483	-1.192549	99
Es	-0.177509	1.189453	1.352839	99
Es	0.005719	0.932191	0.010022	99
Es	1.962726	0.423657	-0.754569	99
Es	-0.012404	0.963583	-0.198903	99
Es	1.997381	1.503026	-0.235737	99
Es	0.072821	0.813325	-0.125812	99
Es	-0.473531	1.525491	-1.319293	99
Es	-0.370591	1.400308	1.201759	99
Es	-2.245232	-0.742524	0.503364	99
Es	1.788060	0.811704	-0.160647	99
Es	-0.265009	1.629772	1.106058	99
Es	-0.627118	1.352487	1.140924	99
48
Properties=species:S:1:pos:R:3:Z:I:1 energy=-740.4758853297742 field_type=dipole dipole="0.000000 0.000000 0.000000" charge=0
C	-1.975257	-1.016404	-0.123665	6
C	-0.471007	-0.840284	-0.173425	6
S	-0.008347	0.882006	-0.106225	16
O	-0.473597	1.525596	-1.319475	8
O	-0.370657	1.400396	1.201945	8
C	1.788122	0.811816	-0.160865	6
O	2.412792	0.236936	0.994865	8
H	-2.235917	-2.078014	-0.171825	1
H	-2.460337	-0.506944	-0.962395	1
H	-2.389807	-0.604304	0.801905	1
H	-0.068617	-1.251854	-1.103685	1
H	0.000313	-1.342404	0.676325	1
H	2.147413	1.839216	-0.270195	1
H	2.078093	0.239296	-1.045685	1
H	2.026813	0.704946	1.762395	1
Es	1.788061	0.811701	-0.160641	99
Es	-0.000092	0.976925	-0.126975	99
Es	-0.370572	1.400307	1.201725	99
Es	1.997670	1.502970	-0.235932	99
Es	-0.007720	0.884889	-0.106791	99
Es	-2.129900	-1.730097	-0.156933	99
Es	-0.470994	-0.840142	-0.173425	99
Es	2.412564	0.237198	0.994856	99
Es	-0.192085	-1.097684	-0.800621	99
Es	-0.189225	1.186578	1.360613	99
Es	-0.259063	1.628522	1.105386	99
Es	-2.293844	-0.676378	-0.693431	99
Es	-0.704457	1.452239	-1.185663	99
Es	-0.073800	0.830293	-0.200192	99
Es	-0.255252	-0.039460	-0.142036	99
Es	1.962568	0.423536	-0.754407	99
Es	0.954151	0.829083	-0.125881	99
Es	2.203396	0.492617	1.397064	99
Es	-2.245241	-0.742749	0.503466	99
Es	-0.473490	1.525463	-1.319138	99
Es	-0.271111	1.295250	-0.860051	99
Es	-1.196872	-0.898485	-0.148872	99
Es	-1.975152	-1.016399	-0.123669	99
Es	-0.341213	1.337135	-1.531962	99
Es	-0.376522	1.750411	-1.214164	99
Es	-0.056501	0.872183	0.012015	99
Es	2.328155	-0.045482	1.007698	99
Es	0.096461	0.845755	-0.109159	99
Es	2.683801	0.317442	0.962565	99
Es	-0.625667	1.359804	1.131187	99
Es	-0.248849	1.213024	0.698048	99
Es	-0.149469	-1.158282	0.396760	99
Es	2.137618	0.464667	0.554692	99
48
Properties=species:S:1:pos:R:3:Z:I:1 energy=-740.4758853297742 field_type=dipole dipole="0.000000 0.000000 0.000000" charge=0
C	-1.975257	-1.016404	-0.123665	6
C	-0.471007	-0.840284	-0.173425	6
S	-0.008347	0.882006	-0.106225	16
O	-0.473597	1.525596	-1.319475	8
O	-0.370657	1.400396	1.201945	8
C	1.788122	0.811816	-0.160865	6
O	2.412792	0.236936	0.994865	8
H	-2.235917	-2.078014	-0.171825	1
H	-2.460337	-0.506944	-0.962395	1
H	-2.389807	-0.604304	0.801905	1
H	-0.068617	-1.251854	-1.103685	1
H	0.000313	-1.342404	0.676325	1
H	2.147413	1.839216	-0.270195	1
H	2.078093	0.239296	-1.045685	1
H	2.026813	0.704946	1.762395	1
Es	-0.269729	1.627393	1.099622	99
Es	1.997536	1.503033	-0.235795	99
Es	0.071223	0.806678	-0.081054	99
Es	-0.275204	1.291453	-0.859701	99
Es	-0.108496	0.846101	-0.054961	99
Es	2.136537	0.463872	0.555097	99
Es	-0.243629	1.210916	0.699302	99
Es	-0.470994	-0.840141	-0.173424	99
Es	2.204806	0.493893	1.397081	99
Es	-2.293705	-0.676623	-0.693444	99
Es	-0.369035	1.748387	-1.213445	99
Es	-0.370582	1.400294	1.201708	99
Es	0.022844	0.979069	-0.056634	99
Es	-0.018965	0.896194	-0.232311	99
Es	-0.184481	1.198220	1.367094	99
Es	2.325941	-0.043755	1.008513	99
Es	1.788060	0.811700	-0.160642	99
Es	-0.473498	1.525458	-1.319242	99
Es	-0.703550	1.460018	-1.185688	99
Es	2.412576	0.237152	0.994860	99
Es	2.685642	0.315315	0.961285	99
Es	0.954134	0.828924	-0.125908	99
Es	-1.196800	-0.898429	-0.148737	99
Es	-0.008303	0.882002	-0.106167	99
Es	-0.345473	1.335127	-1.532910	99
Es	1.962746	0.423598	-0.754463	99
Es	-0.192036	-1.097773	-0.800678	99
Es	-0.149628	-1.158289	0.396562	99
Es	-0.624935	1.351482	1.129239	99
Es	-0.255153	-0.039321	-0.141845	99
Es	-2.129967	-1.730279	-0.156760	99
Es	-2.245376	-0.742435	0.503251	99
Es	-1.975151	-1.016399	-0.123669	99
48
Properties=species:S:1:pos:R:3:Z:I:1 energy=-740.4758853297742 field_type=dipole dipole="0.000000 0.000000 0.000000" charge=0
C	-1.975257	-1.016404	-0.123665	6
C	-0.471007	-0.840284	-0.173425	6
S	-0.008347	0.882006	-0.106225	16
O	-0.473597	1.525596	-1.319475	8
O	-0.370657	1.400396	1.201945	8
C	1.788122	0.811816	-0.160865	6
O	2.412792	0.236936	0.994865	8
H	-2.235917	-2.078014	-0.171825	1
H	-2.460337	-0.506944	-0.962395	1
H	-2.389807	-0.604304	0.801905	1
H	-0.068617	-1.251854	-1.103685	1
H	0.000313	-1.342404	0.676325	1
H	2.147413	1.839216	-0.270195	1
H	2.078093	0.239296	-1.045685	1
H	2.026813	0.704946	1.762395	1
Es	-0.358582	1.325303	-1.532273	99
Es	0.038859	0.904835	0.010168	99
Es	2.138384	0.465248	0.554515	99
Es	-0.370575	1.400326	1.201709	99
Es	1.788061	0.811700	-0.160640	99
Es	-0.192071	-1.097720	-0.800778	99
Es	0.075825	0.866111	-0.192417	99
Es	-0.279979	1.634146	1.113773	99
Es	-1.975151	-1.016400	-0.123669	99
Es	1.997575	1.502839	-0.235836	99
Es	-0.624594	1.336368	1.135340	99
Es	-0.244343	1.225871	0.693909	99
Es	-0.255235	-0.039563	-0.141941	99
Es	2.685879	0.313933	0.962706	99
Es	2.412487	0.237219	0.994846	99
Es	-2.129808	-1.730194	-0.156721	99
Es	-0.473475	1.525420	-1.319202	99
Es	-1.197055	-0.898355	-0.148726	99
Es	-0.350070	1.741989	-1.217945	99
Es	-0.078943	0.964633	-0.138884	99
Es	0.954142	0.829239	-0.125868	99
Es	1.962677	0.423561	-0.754543	99
Es	-0.149535	-1.158247	0.396724	99
Es	-0.470994	-0.840145	-0.173425	99
Es	2.203637	0.492815	1.397375	99
Es	-0.703198	1.479940	-1.182838	99
Es	-2.293699	-0.676619	-0.693636	99
Es	-0.281421	1.287847	-0.858743	99
Es	-0.173816	1.191480	1.352280	99
Es	2.325102	-0.042729	1.007467	99
Es	-0.008333	0.881957	-0.106226	99
Es	-2.245292	-0.742427	0.503416	99
Es	-0.069109	0.792457	-0.103782	99
