42
Properties=species:S:1:pos:R:3:Z:I:1 energy=-681.3039899303071 field_type=dipole dipole="0.000000 0.000000 0.000000" charge=0
C	-0.596522	-1.903870	0.287245	6
O	-1.353452	-0.736720	0.011235	8
C	-0.619182	0.392530	-0.125135	6
N	-1.348152	1.472790	-0.382285	7
S	-0.334792	2.775990	-0.524945	16
C	1.111148	1.906050	-0.241905	6
C	0.792798	0.579430	-0.033545	6
H	-1.292892	-2.743380	0.375475	1
H	-0.061292	-1.814150	1.238805	1
H	0.096008	-2.130600	-0.530655	1
H	2.078248	2.387650	-0.242205	1
H	1.528088	-0.185720	0.167915	1
Es	1.748840	2.228832	-0.243016	99
Es	-0.326609	2.664002	-0.559533	99
Es	-1.353041	-0.736715	0.011235	99
Es	-1.508025	-0.666867	0.245675	99
Es	0.092635	0.425009	-0.067955	99
Es	-0.449179	2.801674	-0.500687	99
Es	-1.068218	-2.469862	0.346542	99
Es	-1.462466	-0.756213	-0.256041	99
Es	-0.266723	2.791165	-0.428016	99
Es	-0.266524	2.853775	-0.972324	99
Es	-0.976391	1.040573	-0.552473	99
Es	1.111060	1.906178	-0.241931	99
Es	-0.115231	-2.050627	-0.268416	99
Es	-0.619330	0.392327	-0.125119	99
Es	0.905728	1.110535	-0.426860	99
Es	-0.222020	-1.835769	0.933024	99
Es	-1.347573	1.472769	-0.382229	99
Es	-1.024269	1.136663	-0.013331	99
Es	0.792753	0.579414	-0.033540	99
Es	-0.897219	2.005441	-0.437282	99
Es	-1.022364	-0.324453	-0.032568	99
Es	-1.690584	1.529364	-0.422935	99
Es	-0.341034	3.003377	-0.126657	99
Es	0.853343	1.216671	0.166758	99
Es	-0.296179	2.844500	-0.610786	99
Es	-0.596648	-1.903648	0.287196	99
Es	-1.033867	-1.154044	0.114346	99
Es	1.276952	0.059980	0.101981	99
Es	-0.334647	2.775944	-0.524988	99
Es	0.457840	2.345090	-0.378055	99
42
Properties=species:S:1:pos:R:3:Z:I:1 energy=-681.3039899303071 field_type=dipole dipole="0.000000 0.000000 0.000000" charge=0
C	-0.596522	-1.903870	0.287245	6
O	-1.353452	-0.736720	0.011235	8
C	-0.619182	0.392530	-0.125135	6
N	-1.348152	1.472790	-0.382285	7
S	-0.334792	2.775990	-0.524945	16
C	1.111148	1.906050	-0.241905	6
C	0.792798	0.579430	-0.033545	6
H	-1.292892	-2.743380	0.375475	1
H	-0.061292	-1.814150	1.238805	1
H	0.096008	-2.130600	-0.530655	1
H	2.078248	2.387650	-0.242205	1
H	1.528088	-0.185720	0.167915	1
Es	-0.221666	-1.835130	0.930187	99
Es	-1.036588	-1.160628	0.114464	99
Es	1.749080	2.229016	-0.242982	99
Es	-0.334993	2.848437	-0.618214	99
Es	1.111062	1.906180	-0.241935	99
Es	-1.504506	-0.669841	0.234425	99
Es	-0.619333	0.392336	-0.125105	99
Es	0.092009	0.425858	-0.070297	99
Es	1.277612	0.059173	0.101481	99
Es	-1.068928	-2.473099	0.347000	99
Es	-1.023516	-0.316205	-0.034283	99
Es	-0.425831	2.799200	-0.461453	99
Es	-0.439286	3.249070	-0.650438	99
Es	-0.902350	2.009392	-0.440451	99
Es	-0.596648	-1.903657	0.287194	99
Es	-1.461628	-0.754544	-0.243415	99
Es	-0.334462	2.653931	-0.559660	99
Es	-0.115417	-2.048994	-0.265950	99
Es	-1.689045	1.524887	-0.421136	99
Es	-0.334796	2.775972	-0.524942	99
Es	-1.027030	1.137721	-0.017277	99
Es	-0.980364	1.040984	-0.549858	99
Es	-1.353013	-0.736673	0.011334	99
Es	0.792752	0.579410	-0.033554	99
Es	0.903367	1.110146	-0.422999	99
Es	-0.163281	2.609800	-0.427042	99
Es	0.848467	1.213606	0.165224	99
Es	-1.347551	1.472775	-0.382229	99
Es	0.470314	2.345863	-0.394836	99
Es	-0.243417	2.800096	-0.461237	99
42
Properties=species:S:1:pos:R:3:Z:I:1 energy=-681.3039899303071 field_type=dipole dipole="0.000000 0.000000 0.000000" charge=0
C	-0.596522	-1.903870	0.287245	6
O	-1.353452	-0.736720	0.011235	8
C	-0.619182	0.392530	-0.125135	6
N	-1.348152	1.472790	-0.382285	7
S	-0.334792	2.775990	-0.524945	16
C	1.111148	1.906050	-0.241905	6
C	0.792798	0.579430	-0.033545	6
H	-1.292892	-2.743380	0.375475	1
H	-0.061292	-1.814150	1.238805	1
H	0.096008	-2.130600	-0.530655	1
H	2.078248	2.387650	-0.242205	1
H	1.528088	-0.185720	0.167915	1
Es	0.091306	0.427091	-0.068457	99
Es	-1.025200	-0.312443	-0.039165	99
Es	-1.476586	-0.755342	-0.232708	99
Es	-0.334720	2.775794	-0.524779	99
Es	-1.485720	-0.668848	0.230297	99
Es	-0.619334	0.392328	-0.125120	99
Es	-0.115592	-2.048074	-0.264416	99
Es	0.792752	0.579408	-0.033539	99
Es	-1.688528	1.522266	-0.420752	99
Es	-0.346045	2.891840	-0.577844	99
Es	-1.352923	-0.736726	0.010736	99
Es	-0.424073	2.687192	-0.550691	99
Es	-0.227192	2.733183	-0.532974	99
Es	-1.026226	1.136927	-0.019145	99
Es	0.469024	2.347957	-0.380659	99
Es	-0.157289	2.602890	-0.474167	99
Es	-0.441753	3.255780	-0.621281	99
Es	-0.341958	2.789895	-0.438190	99
Es	1.749275	2.228966	-0.243160	99
Es	0.901347	1.110204	-0.422500	99
Es	-1.347553	1.472769	-0.382228	99
Es	-1.068947	-2.474909	0.347482	99
Es	1.111061	1.906182	-0.241929	99
Es	-0.902890	2.011654	-0.438746	99
Es	-0.596647	-1.903650	0.287193	99
Es	0.847545	1.212527	0.162591	99
Es	1.277896	0.058861	0.102040	99
Es	-0.979751	1.040409	-0.547573	99
Es	-1.038572	-1.164332	0.113415	99
Es	-0.221697	-1.834712	0.928282	99
42
Properties=species:S:1:pos:R:3:Z:I:1 energy=-681.3039899303071 field_type=dipole dipole="0.000000 0.000000 0.000000" charge=0
C	-0.596522	-1.903870	0.287245	6
O	-1.353452	-0.736720	0.011235	8
C	-0.619182	0.392530	-0.125135	6
N	-1.348152	1.472790	-0.382285	7
S	-0.334792	2.775990	-0.524945	16
C	1.111148	1.906050	-0.241905	6
C	0.792798	0.579430	-0.033545	6
H	-1.292892	-2.743380	0.375475	1
H	-0.061292	-1.814150	1.238805	1
H	0.096008	-2.130600	-0.530655	1
H	2.078248	2.387650	-0.242205	1
H	1.528088	-0.185720	0.167915	1
Es	-0.619334	0.392334	-0.125114	99
Es	-0.156013	2.604742	-0.473441	99
Es	0.792754	0.579406	-0.033554	99
Es	-1.041195	-1.167893	0.110406	99
Es	0.468995	2.346769	-0.386928	99
Es	-0.903591	2.013242	-0.437181	99
Es	-0.405261	2.879637	-0.547342	99
Es	-0.334785	2.775968	-0.524924	99
Es	-0.389751	2.656646	-0.506242	99
Es	-1.347564	1.472765	-0.382210	99
Es	-1.068961	-2.475582	0.348175	99
Es	-1.352645	-0.736569	0.010749	99
Es	-0.442173	3.256835	-0.617164	99
Es	-0.979649	1.042352	-0.548851	99
Es	0.091200	0.427483	-0.067970	99
Es	1.111060	1.906182	-0.241935	99
Es	-0.305508	2.791264	-0.458602	99
Es	-0.114939	-2.047748	-0.263891	99
Es	-0.238346	2.774322	-0.587483	99
Es	-0.222536	-1.834670	0.926930	99
Es	-1.026257	-0.312629	-0.054497	99
Es	1.277791	0.058500	0.101674	99
Es	-1.025554	1.133311	-0.019279	99
Es	1.749112	2.228931	-0.243754	99
Es	0.844507	1.210146	0.162503	99
Es	-0.596642	-1.903662	0.287197	99
Es	-1.560535	-0.758030	-0.192357	99
Es	-1.687161	1.521410	-0.418656	99
Es	0.902029	1.112022	-0.422760	99
Es	-1.398037	-0.662399	0.208514	99
42
Properties=species:S:1:pos:R:3:Z:I:1 energy=-681.3039899303071 field_type=dipole dipole="0.000000 0.000000 0.000000" charge=0
C	-0.596522	-1.903870	0.287245	6
O	-1.353452	-0.736720	0.011235	8
C	-0.619182	0.392530	-0.125135	6
N	-1.348152	1.472790	-0.382285	7
S	-0.334792	2.775990	-0.524945	16
C	1.111148	1.906050	-0.241905	6
C	0.792798	0.579430	-0.033545	6
H	-1.292892	-2.743380	0.375475	1
H	-0.061292	-1.814150	1.238805	1
H	0.096008	-2.130600	-0.530655	1
H	2.078248	2.387650	-0.242205	1
H	1.528088	-0.185720	0.167915	1
Es	-1.029154	-0.310081	-0.057543	99
Es	0.468765	2.346516	-0.388570	99
Es	-0.596644	-1.903657	0.287197	99
Es	-0.311005	2.782238	-0.467067	99
Es	-0.438805	2.807493	-0.501992	99
Es	0.902280	1.112383	-0.423623	99
Es	0.792753	0.579408	-0.033555	99
Es	-1.348855	-0.666764	0.166039	99
Es	-0.441500	3.256662	-0.619347	99
Es	-1.605803	-0.754782	-0.145588	99
Es	0.842570	1.209236	0.163283	99
Es	-0.267244	2.867515	-0.587684	99
Es	-1.025276	1.133344	-0.017794	99
Es	-0.335000	2.776097	-0.524595	99
Es	-0.155659	2.606433	-0.470405	99
Es	1.748628	2.229012	-0.243891	99
Es	-1.041816	-1.169236	0.109072	99
Es	-0.904715	2.014372	-0.437787	99
Es	-0.980021	1.040761	-0.550745	99
Es	-0.222591	-1.834671	0.926643	99
Es	1.277456	0.058065	0.101898	99
Es	-1.684394	1.521201	-0.417278	99
Es	-1.068851	-2.475712	0.348345	99
Es	0.091589	0.427683	-0.068211	99
Es	-0.322071	2.644713	-0.542619	99
Es	-1.352810	-0.736678	0.010850	99
Es	1.111059	1.906180	-0.241935	99
Es	-0.114974	-2.047746	-0.263737	99
Es	-1.347567	1.472767	-0.382229	99
Es	-0.619335	0.392333	-0.125118	99
42
Properties=species:S:1:pos:R:3:Z:I:1 energy=-681.3039899303071 field_type=dipole dipole="0.000000 0.000000 0.000000" charge=0
C	-0.596522	-1.903870	0.287245	6
O	-1.353452	-0.736720	0.011235	8
C	-0.619182	0.392530	-0.125135	6
N	-1.348152	1.472790	-0.382285	7
S	-0.334792	2.775990	-0.524945	16
C	1.111148	1.906050	-0.241905	6
C	0.792798	0.579430	-0.033545	6
H	-1.292892	-2.743380	0.375475	1
H	-0.061292	-1.814150	1.238805	1
H	0.096008	-2.130600	-0.530655	1
H	2.078248	2.387650	-0.242205	1
H	1.528088	-0.185720	0.167915	1
Es	-0.368870	2.790834	-0.470337	99
Es	0.466744	2.350274	-0.367595	99
Es	1.111062	1.906180	-0.241938	99
Es	-1.347561	1.472774	-0.382221	99
Es	-0.418866	2.781604	-0.596186	99
Es	-0.440920	3.256329	-0.622490	99
Es	-0.153937	2.604685	-0.485679	99
Es	-1.352974	-0.736700	0.011248	99
Es	-1.027527	1.136782	-0.014621	99
Es	-0.334752	2.775953	-0.525022	99
Es	-1.033879	-0.301505	-0.018049	99
Es	-0.117028	-2.047368	-0.262788	99
Es	-0.295849	2.651208	-0.498028	99
Es	0.895344	1.106046	-0.423590	99
Es	-1.306093	-0.717183	-0.122213	99
Es	-1.681548	1.519798	-0.423463	99
Es	-1.068756	-2.476103	0.346667	99
Es	-0.596644	-1.903659	0.287196	99
Es	-0.905170	2.014564	-0.441882	99
Es	1.277129	0.057935	0.102514	99
Es	-1.641017	-0.713980	0.089166	99
Es	-0.619335	0.392332	-0.125113	99
Es	-0.255783	2.878463	-0.533782	99
Es	-1.044222	-1.168270	0.122209	99
Es	0.792752	0.579406	-0.033546	99
Es	-0.978628	1.036880	-0.548250	99
Es	1.748242	2.229256	-0.242389	99
Es	-0.220787	-1.834676	0.927701	99
Es	0.091882	0.427637	-0.069106	99
Es	0.847999	1.215588	0.163604	99
42
Properties=species:S:1:pos:R:3:Z:I:1 energy=-681.3039899303071 field_type=dipole dipole="0.000000 0.000000 0.000000" charge=0
C	-0.596522	-1.903870	0.287245	6
O	-1.353452	-0.736720	0.011235	8
C	-0.619182	0.392530	-0.125135	6
N	-1.348152	1.472790	-0.382285	7
S	-0.334792	2.775990	-0.524945	16
C	1.111148	1.906050	-0.241905	6
C	0.792798	0.579430	-0.033545	6
H	-1.292892	-2.743380	0.375475	1
H	-0.061292	-1.814150	1.238805	1
H	0.096008	-2.130600	-0.530655	1
H	2.078248	2.387650	-0.242205	1
H	1.528088	-0.185720	0.167915	1
Es	1.111061	1.906181	-0.241934	99
Es	-0.370057	2.902421	-0.533299	99
Es	-0.619335	0.392333	-0.125112	99
Es	-1.045489	-1.169227	0.122268	99
Es	-1.641273	-0.714284	0.083943	99
Es	0.792753	0.579404	-0.033556	99
Es	-1.680905	1.519350	-0.422252	99
Es	-0.905554	2.015209	-0.442004	99
Es	-1.033993	-0.301309	-0.018034	99
Es	0.466384	2.350595	-0.366261	99
Es	-0.411620	2.673356	-0.487745	99
Es	-1.027278	1.133583	-0.014979	99
Es	-0.229416	2.762760	-0.496686	99
Es	-1.068619	-2.476661	0.346555	99
Es	-0.441136	3.256300	-0.623095	99
Es	0.091688	0.427934	-0.069002	99
Es	0.849872	1.217416	0.162768	99
Es	-1.352933	-0.736576	0.011643	99
Es	-0.327945	2.763441	-0.581695	99
Es	-0.153410	2.605235	-0.485142	99
Es	0.892696	1.103858	-0.422938	99
Es	-1.304400	-0.716196	-0.117481	99
Es	-0.334827	2.775954	-0.524966	99
Es	1.748205	2.229256	-0.242189	99
Es	-0.596643	-1.903652	0.287190	99
Es	-1.347547	1.472773	-0.382225	99
Es	1.277121	0.057764	0.102738	99
Es	-0.978389	1.039468	-0.549566	99
Es	-0.220536	-1.834559	0.927246	99
Es	-0.117465	-2.047040	-0.262174	99
42
Properties=species:S:1:pos:R:3:Z:I:1 energy=-681.3039899303071 field_type=dipole dipole="0.000000 0.000000 0.000000" charge=0
C	-0.596522	-1.903870	0.287245	6
O	-1.353452	-0.736720	0.011235	8
C	-0.619182	0.392530	-0.125135	6
N	-1.348152	1.472790	-0.382285	7
S	-0.334792	2.775990	-0.524945	16
C	1.111148	1.906050	-0.241905	6
C	0.792798	0.579430	-0.033545	6
H	-1.292892	-2.743380	0.375475	1
H	-0.061292	-1.814150	1.238805	1
H	0.096008	-2.130600	-0.530655	1
H	2.078248	2.387650	-0.242205	1
H	1.528088	-0.185720	0.167915	1
Es	-0.440174	2.725376	-0.476659	99
Es	-0.619335	0.392338	-0.125105	99
Es	1.111061	1.906180	-0.241939	99
Es	-0.319327	2.906948	-0.534528	99
Es	-0.596639	-1.903655	0.287203	99
Es	0.792752	0.579405	-0.033545	99
Es	0.898806	1.110311	-0.424656	99
Es	-1.068765	-2.476458	0.348313	99
Es	-0.344503	2.769278	-0.563795	99
Es	-1.032281	-0.305618	-0.052035	99
Es	0.468001	2.347319	-0.384513	99
Es	1.276880	0.057417	0.102090	99
Es	1.748134	2.228971	-0.243675	99
Es	-0.334781	2.775961	-0.524964	99
Es	-1.314406	-0.676937	0.102503	99
Es	-1.633727	-0.746864	-0.090995	99
Es	-1.679426	1.519845	-0.418348	99
Es	-0.222607	-1.834630	0.925866	99
Es	-0.153923	2.607354	-0.477273	99
Es	-1.044584	-1.171344	0.112214	99
Es	-0.441019	3.257607	-0.616886	99
Es	-1.026194	1.132950	-0.015014	99
Es	-1.347573	1.472781	-0.382232	99
Es	-1.352953	-0.736733	0.011090	99
Es	-0.115303	-2.047324	-0.262849	99
Es	-0.979567	1.038643	-0.551719	99
Es	0.842732	1.210860	0.163853	99
Es	0.091848	0.428261	-0.067943	99
Es	-0.235536	2.700365	-0.524067	99
Es	-0.906581	2.016476	-0.438379	99
42
Properties=species:S:1:pos:R:3:Z:I:1 energy=-681.3039899303071 field_type=dipole dipole="0.000000 0.000000 0.000000" charge=0
C	-0.596522	-1.903870	0.287245	6
O	-1.353452	-0.736720	0.011235	8
C	-0.619182	0.392530	-0.125135	6
N	-1.348152	1.472790	-0.382285	7
S	-0.334792	2.775990	-0.524945	16
C	1.111148	1.906050	-0.241905	6
C	0.792798	0.579430	-0.033545	6
H	-1.292892	-2.743380	0.375475	1
H	-0.061292	-1.814150	1.238805	1
H	0.096008	-2.130600	-0.530655	1
H	2.078248	2.387650	-0.242205	1
H	1.528088	-0.185720	0.167915	1
Es	-0.220798	-1.834521	0.926832	99
Es	-1.347556	1.472775	-0.382232	99
Es	1.276960	0.057503	0.102792	99
Es	-0.335640	2.776809	-0.520151	99
Es	-1.679330	1.518744	-0.422037	99
Es	0.792752	0.579402	-0.033550	99
Es	-1.297945	-0.711345	-0.088441	99
Es	1.111061	1.906179	-0.241939	99
Es	-0.224577	2.759785	-0.502979	99
Es	-0.440880	3.256531	-0.623082	99
Es	-0.410166	2.665293	-0.517920	99
Es	-0.906458	2.016080	-0.441658	99
Es	-0.153476	2.606524	-0.483356	99
Es	-0.596649	-1.903662	0.287197	99
Es	-1.045649	-1.170014	0.120757	99
Es	0.892103	1.104097	-0.423802	99
Es	-0.334457	2.775559	-0.526864	99
Es	-1.352709	-0.736301	0.012052	99
Es	-1.068573	-2.476915	0.346739	99
Es	-0.117339	-2.046930	-0.261899	99
Es	0.466625	2.349962	-0.370226	99
Es	1.747997	2.229097	-0.242363	99
Es	0.091886	0.428248	-0.068241	99
Es	-1.035097	-0.300275	-0.023293	99
Es	-1.027138	1.133688	-0.014362	99
Es	-0.369024	2.900615	-0.555022	99
Es	-0.619335	0.392334	-0.125116	99
Es	-0.978114	1.038306	-0.549976	99
Es	0.848996	1.217163	0.162910	99
Es	-1.646460	-0.719645	0.061243	99
42
Properties=species:S:1:pos:R:3:Z:I:1 energy=-681.3039899303071 field_type=dipole dipole="0.000000 0.000000 0.000000" charge=0
C	-0.596522	-1.903870	0.287245	6
O	-1.353452	-0.736720	0.011235	8
C	-0.619182	0.392530	-0.125135	6
N	-1.348152	1.472790	-0.382285	7
S	-0.334792	2.775990	-0.524945	16
C	1.111148	1.906050	-0.241905	6
C	0.792798	0.579430	-0.033545	6
H	-1.292892	-2.743380	0.375475	1
H	-0.061292	-1.814150	1.238805	1
H	0.096008	-2.130600	-0.530655	1
H	2.078248	2.387650	-0.242205	1
H	1.528088	-0.185720	0.167915	1
Es	-0.362327	2.905802	-0.538611	99
Es	-1.347545	1.472771	-0.382232	99
Es	0.792753	0.579407	-0.033530	99
Es	-0.416076	2.671803	-0.504786	99
Es	-0.441067	3.257160	-0.620004	99
Es	-1.352726	-0.736622	0.010788	99
Es	-1.033858	-0.303228	-0.046479	99
Es	-0.979616	1.038061	-0.552447	99
Es	-0.335111	2.774882	-0.531575	99
Es	-0.596649	-1.903658	0.287196	99
Es	-1.068675	-2.476499	0.348127	99
Es	-0.153821	2.608298	-0.474805	99
Es	0.467666	2.347682	-0.382840	99
Es	-0.115593	-2.047297	-0.262798	99
Es	-1.645322	-0.741348	-0.054240	99
Es	-0.222335	-1.834634	0.925995	99
Es	1.747768	2.229009	-0.243520	99
Es	-0.906961	2.016703	-0.439422	99
Es	0.843776	1.212454	0.164365	99
Es	0.092200	0.428307	-0.068250	99
Es	-1.026336	1.132941	-0.013849	99
Es	-1.045222	-1.171512	0.113985	99
Es	-0.334607	2.776067	-0.522820	99
Es	0.896896	1.108525	-0.425274	99
Es	-0.619335	0.392332	-0.125113	99
Es	1.276622	0.057180	0.102370	99
Es	-1.300775	-0.684814	0.058772	99
Es	1.111061	1.906181	-0.241936	99
Es	-1.677937	1.519759	-0.418498	99
Es	-0.225839	2.749373	-0.526556	99
42
Properties=species:S:1:pos:R:3:Z:I:1 energy=-681.3039899303071 field_type=dipole dipole="0.000000 0.000000 0.000000" charge=0
C	-0.596522	-1.903870	0.287245	6
O	-1.353452	-0.736720	0.011235	8
C	-0.619182	0.392530	-0.125135	6
N	-1.348152	1.472790	-0.382285	7
S	-0.334792	2.775990	-0.524945	16
C	1.111148	1.906050	-0.241905	6
C	0.792798	0.579430	-0.033545	6
H	-1.292892	-2.743380	0.375475	1
H	-0.061292	-1.814150	1.238805	1
H	0.096008	-2.130600	-0.530655	1
H	2.078248	2.387650	-0.242205	1
H	1.528088	-0.185720	0.167915	1
Es	-1.035115	-0.300905	-0.036029	99
Es	-0.282841	2.654472	-0.502545	99
Es	-0.335084	2.775925	-0.523638	99
Es	1.276772	0.057167	0.102556	99
Es	-0.619335	0.392333	-0.125113	99
Es	0.092021	0.428447	-0.068314	99
Es	-0.362105	2.786281	-0.473613	99
Es	-0.221790	-1.834586	0.925990	99
Es	-0.274839	2.892536	-0.544578	99
Es	0.895624	1.107695	-0.424632	99
Es	-1.045654	-1.171439	0.115903	99
Es	-1.026273	1.131924	-0.014218	99
Es	0.467178	2.348391	-0.377628	99
Es	-1.652161	-0.732878	-0.006509	99
Es	-0.596641	-1.903658	0.287200	99
Es	-0.153165	2.607649	-0.479651	99
Es	-1.678241	1.518890	-0.419270	99
Es	-1.347534	1.472775	-0.382241	99
Es	-1.068633	-2.476813	0.347759	99
Es	0.844513	1.213454	0.163610	99
Es	-1.352967	-0.736688	0.011346	99
Es	-0.440377	3.257241	-0.620002	99
Es	1.747946	2.229145	-0.243122	99
Es	-0.907258	2.016908	-0.440369	99
Es	-0.116318	-2.047113	-0.262311	99
Es	-0.419693	2.768774	-0.579428	99
Es	-0.978916	1.039124	-0.551592	99
Es	0.792752	0.579405	-0.033545	99
Es	1.111061	1.906180	-0.241936	99
Es	-1.291920	-0.695551	-0.002066	99
42
Properties=species:S:1:pos:R:3:Z:I:1 energy=-681.3039899303071 field_type=dipole dipole="0.000000 0.000000 0.000000" charge=0
C	-0.596522	-1.903870	0.287245	6
O	-1.353452	-0.736720	0.011235	8
C	-0.619182	0.392530	-0.125135	6
N	-1.348152	1.472790	-0.382285	7
S	-0.334792	2.775990	-0.524945	16
C	1.111148	1.906050	-0.241905	6
C	0.792798	0.579430	-0.033545	6
H	-1.292892	-2.743380	0.375475	1
H	-0.061292	-1.814150	1.238805	1
H	0.096008	-2.130600	-0.530655	1
H	2.078248	2.387650	-0.242205	1
H	1.528088	-0.185720	0.167915	1
Es	-0.222272	-1.834566	0.925465	99
Es	0.792752	0.579405	-0.033544	99
Es	-1.026276	1.132879	-0.014178	99
Es	-1.677922	1.518739	-0.419315	99
Es	-1.352788	-0.736706	0.010783	99
Es	-0.596647	-1.903656	0.287195	99
Es	-0.153632	2.608634	-0.475017	99
Es	-0.438392	2.793852	-0.501112	99
Es	1.276825	0.057047	0.102360	99
Es	-1.034568	-0.302079	-0.042203	99
Es	1.111061	1.906181	-0.241936	99
Es	0.897726	1.109673	-0.424372	99
Es	0.091989	0.428597	-0.068491	99
Es	-0.298791	2.645897	-0.517484	99
Es	1.747941	2.228893	-0.243307	99
Es	-0.115938	-2.046951	-0.262068	99
Es	0.467351	2.348004	-0.380960	99
Es	0.842289	1.211214	0.163679	99
Es	-0.619335	0.392332	-0.125113	99
Es	-0.440413	3.257042	-0.620890	99
Es	-1.646349	-0.740044	-0.047557	99
Es	-1.347528	1.472788	-0.382233	99
Es	-0.334415	2.776280	-0.522673	99
Es	-1.045455	-1.171593	0.114626	99
Es	-0.337282	2.775234	-0.533730	99
Es	-1.298492	-0.687005	0.047060	99
Es	-0.907396	2.017190	-0.439951	99
Es	-1.068603	-2.477082	0.348012	99
Es	-0.265445	2.886586	-0.549907	99
Es	-0.978984	1.038301	-0.551123	99
42
Properties=species:S:1:pos:R:3:Z:I:1 energy=-681.3039899303071 field_type=dipole dipole="0.000000 0.000000 0.000000" charge=0
C	-0.596522	-1.903870	0.287245	6
O	-1.353452	-0.736720	0.011235	8
C	-0.619182	0.392530	-0.125135	6
N	-1.348152	1.472790	-0.382285	7
S	-0.334792	2.775990	-0.524945	16
C	1.111148	1.906050	-0.241905	6
C	0.792798	0.579430	-0.033545	6
H	-1.292892	-2.743380	0.375475	1
H	-0.061292	-1.814150	1.238805	1
H	0.096008	-2.130600	-0.530655	1
H	2.078248	2.387650	-0.242205	1
H	1.528088	-0.185720	0.167915	1
Es	-1.026957	1.132235	-0.013590	99
Es	0.467017	2.348293	-0.378347	99
Es	0.091903	0.428602	-0.068465	99
Es	-1.068541	-2.477228	0.347656	99
Es	-1.650732	-0.734317	-0.015311	99
Es	-1.347543	1.472772	-0.382224	99
Es	0.844074	1.213369	0.163582	99
Es	-0.596647	-1.903657	0.287194	99
Es	-0.153075	2.608818	-0.475657	99
Es	-1.046052	-1.171888	0.114848	99
Es	-0.619334	0.392330	-0.125112	99
Es	-0.978747	1.038163	-0.551242	99
Es	-0.445357	2.773831	-0.527942	99
Es	0.895295	1.107906	-0.424332	99
Es	-0.907616	2.017331	-0.440417	99
Es	0.792752	0.579406	-0.033538	99
Es	-1.676994	1.518531	-0.420133	99
Es	-0.278994	2.656214	-0.502084	99
Es	-0.334501	2.775045	-0.529427	99
Es	-0.334750	2.775716	-0.526607	99
Es	-1.035123	-0.301051	-0.037871	99
Es	-1.325751	-0.719364	0.001410	99
Es	1.276768	0.057058	0.102334	99
Es	-0.280611	2.896872	-0.539217	99
Es	-1.320010	-0.710833	0.019523	99
Es	1.111061	1.906180	-0.241935	99
Es	-0.222069	-1.834554	0.925634	99
Es	-0.116211	-2.046812	-0.261799	99
Es	-0.440149	3.256998	-0.621782	99
Es	1.747908	2.229119	-0.243135	99
42
Properties=species:S:1:pos:R:3:Z:I:1 energy=-681.3039899303071 field_type=dipole dipole="0.000000 0.000000 0.000000" charge=0
C	-0.596522	-1.903870	0.287245	6
O	-1.353452	-0.736720	0.011235	8
C	-0.619182	0.392530	-0.125135	6
N	-1.348152	1.472790	-0.382285	7
S	-0.334792	2.775990	-0.524945	16
C	1.111148	1.906050	-0.241905	6
C	0.792798	0.579430	-0.033545	6
H	-1.292892	-2.743380	0.375475	1
H	-0.061292	-1.814150	1.238805	1
H	0.096008	-2.130600	-0.530655	1
H	2.078248	2.387650	-0.242205	1
H	1.528088	-0.185720	0.167915	1
Es	-0.228693	2.769834	-0.502423	99
Es	0.091948	0.428632	-0.068588	99
Es	0.792753	0.579404	-0.033544	99
Es	1.276863	0.056998	0.102394	99
Es	-1.347544	1.472769	-0.382227	99
Es	-1.650758	-0.732309	-0.004072	99
Es	0.894462	1.107035	-0.424098	99
Es	-1.068481	-2.477466	0.347781	99
Es	-0.441093	3.257497	-0.618698	99
Es	-0.907681	2.017400	-0.441055	99
Es	-1.677204	1.518168	-0.420118	99
Es	-0.596644	-1.903652	0.287196	99
Es	-0.221826	-1.834459	0.925311	99
Es	-0.333485	2.772557	-0.537979	99
Es	-0.619336	0.392333	-0.125111	99
Es	-1.352963	-0.736650	0.011495	99
Es	1.747863	2.228944	-0.243009	99
Es	0.844681	1.213696	0.163422	99
Es	-0.402967	2.663055	-0.496262	99
Es	-1.035741	-0.300505	-0.036186	99
Es	-0.152468	2.607742	-0.482139	99
Es	-1.291723	-0.696128	-0.005106	99
Es	0.466803	2.348960	-0.375957	99
Es	-1.046339	-1.171845	0.116404	99
Es	-0.376290	2.898861	-0.553775	99
Es	-0.978629	1.037322	-0.550703	99
Es	-0.116575	-2.046733	-0.261564	99
Es	-0.332458	2.773714	-0.533367	99
Es	1.111061	1.906181	-0.241933	99
Es	-1.026527	1.133729	-0.014072	99
42
Properties=species:S:1:pos:R:3:Z:I:1 energy=-681.3039899303071 field_type=dipole dipole="0.000000 0.000000 0.000000" charge=0
C	-0.596522	-1.903870	0.287245	6
O	-1.353452	-0.736720	0.011235	8
C	-0.619182	0.392530	-0.125135	6
N	-1.348152	1.472790	-0.382285	7
S	-0.334792	2.775990	-0.524945	16
C	1.111148	1.906050	-0.241905	6
C	0.792798	0.579430	-0.033545	6
H	-1.292892	-2.743380	0.375475	1
H	-0.061292	-1.814150	1.238805	1
H	0.096008	-2.130600	-0.530655	1
H	2.078248	2.387650	-0.242205	1
H	1.528088	-0.185720	0.167915	1
Es	0.841578	1.211163	0.163708	99
Es	-0.907873	2.017653	-0.440518	99
Es	-1.293462	-0.692206	0.016768	99
Es	-0.222000	-1.834485	0.925138	99
Es	-1.025906	1.132621	-0.014807	99
Es	-1.046296	-1.171747	0.116389	99
Es	-1.677531	1.517931	-0.419023	99
Es	-1.035271	-0.301195	-0.039786	99
Es	-0.373848	2.900371	-0.553638	99
Es	-0.978598	1.038306	-0.550955	99
Es	1.111061	1.906180	-0.241936	99
Es	-1.347615	1.472792	-0.382221	99
Es	-0.152676	2.607906	-0.481390	99
Es	1.276824	0.056889	0.102469	99
Es	-0.335347	2.777122	-0.519007	99
Es	1.747870	2.228953	-0.243146	99
Es	0.897638	1.109761	-0.423882	99
Es	-1.068462	-2.477545	0.347837	99
Es	0.092046	0.428687	-0.069245	99
Es	-0.398960	2.657653	-0.508208	99
Es	-0.334225	2.776686	-0.520611	99
Es	-1.352981	-0.736688	0.011369	99
Es	-0.619335	0.392332	-0.125114	99
Es	-0.440973	3.257660	-0.618142	99
Es	0.792755	0.579405	-0.033561	99
Es	-1.649488	-0.735555	-0.022138	99
Es	-0.116450	-2.046672	-0.261486	99
Es	-0.231570	2.766123	-0.522748	99
Es	0.466749	2.348634	-0.377302	99
Es	-0.596645	-1.903650	0.287198	99
42
Properties=species:S:1:pos:R:3:Z:I:1 energy=-681.3039899303071 field_type=dipole dipole="0.000000 0.000000 0.000000" charge=0
C	-0.596522	-1.903870	0.287245	6
O	-1.353452	-0.736720	0.011235	8
C	-0.619182	0.392530	-0.125135	6
N	-1.348152	1.472790	-0.382285	7
S	-0.334792	2.775990	-0.524945	16
C	1.111148	1.906050	-0.241905	6
C	0.792798	0.579430	-0.033545	6
H	-1.292892	-2.743380	0.375475	1
H	-0.061292	-1.814150	1.238805	1
H	0.096008	-2.130600	-0.530655	1
H	2.078248	2.387650	-0.242205	1
H	1.528088	-0.185720	0.167915	1
Es	-1.035274	-0.301254	-0.040361	99
Es	-0.116578	-2.046427	-0.261071	99
Es	-1.648054	-0.737038	-0.030771	99
Es	-1.352986	-0.736671	0.011437	99
Es	0.091787	0.428889	-0.068801	99
Es	-0.619335	0.392332	-0.125115	99
Es	-1.025777	1.133592	-0.015132	99
Es	-0.222075	-1.834384	0.924545	99
Es	-0.285870	2.897716	-0.550275	99
Es	0.842615	1.211991	0.163039	99
Es	-0.978664	1.037270	-0.550093	99
Es	-0.907742	2.017668	-0.440533	99
Es	-0.336336	2.774416	-0.533702	99
Es	-1.068291	-2.477969	0.348019	99
Es	0.792752	0.579404	-0.033546	99
Es	-1.347541	1.472773	-0.382226	99
Es	-0.440266	3.257296	-0.620504	99
Es	0.896220	1.108933	-0.423605	99
Es	-1.046384	-1.171939	0.115368	99
Es	-0.439343	2.775206	-0.504462	99
Es	1.276893	0.056892	0.102424	99
Es	-1.294795	-0.690423	0.026960	99
Es	1.111064	1.906180	-0.241936	99
Es	-0.334852	2.775904	-0.525346	99
Es	-0.596649	-1.903657	0.287197	99
Es	0.466787	2.348397	-0.378147	99
Es	-1.677816	1.517758	-0.419302	99
Es	-0.277910	2.654499	-0.511141	99
Es	-0.152576	2.608771	-0.477708	99
Es	1.748008	2.228961	-0.243197	99
42
Properties=species:S:1:pos:R:3:Z:I:1 energy=-681.3039899303071 field_type=dipole dipole="0.000000 0.000000 0.000000" charge=0
C	-0.596522	-1.903870	0.287245	6
O	-1.353452	-0.736720	0.011235	8
C	-0.619182	0.392530	-0.125135	6
N	-1.348152	1.472790	-0.382285	7
S	-0.334792	2.775990	-0.524945	16
C	1.111148	1.906050	-0.241905	6
C	0.792798	0.579430	-0.033545	6
H	-1.292892	-2.743380	0.375475	1
H	-0.061292	-1.814150	1.238805	1
H	0.096008	-2.130600	-0.530655	1
H	2.078248	2.387650	-0.242205	1
H	1.528088	-0.185720	0.167915	1
Es	1.111062	1.906180	-0.241936	99
Es	0.894459	1.107674	-0.423285	99
Es	-1.025860	1.133378	-0.015348	99
Es	-1.035733	-0.300639	-0.037796	99
Es	0.091795	0.428916	-0.068937	99
Es	-1.321949	-0.713562	0.014006	99
Es	-0.288794	2.900213	-0.542998	99
Es	-0.335180	2.776460	-0.522179	99
Es	-1.650238	-0.732888	-0.007013	99
Es	-0.439845	3.256938	-0.622633	99
Es	-0.619336	0.392331	-0.125113	99
Es	-0.116922	-2.046383	-0.260890	99
Es	0.843981	1.213536	0.162707	99
Es	0.466796	2.348188	-0.379539	99
Es	-0.907569	2.017626	-0.440983	99
Es	-1.046436	-1.171798	0.116176	99
Es	-0.221833	-1.834394	0.924441	99
Es	-0.596645	-1.903643	0.287201	99
Es	-1.068279	-2.478087	0.347924	99
Es	-1.347543	1.472772	-0.382227	99
Es	-0.336176	2.776956	-0.519474	99
Es	0.792752	0.579403	-0.033548	99
Es	-0.275043	2.658576	-0.496535	99
Es	1.748036	2.228960	-0.243054	99
Es	-1.677646	1.517736	-0.419208	99
Es	-1.323105	-0.718365	-0.002789	99
Es	-0.439133	2.765482	-0.544064	99
Es	-0.152729	2.609648	-0.473421	99
Es	-0.978843	1.036991	-0.549875	99
Es	1.276967	0.056875	0.102405	99
