41
Properties=species:S:1:pos:R:3:Z:I:1 energy=-302.9786963483927 field_type=dipole dipole="0.000000 0.000000 0.000000" charge=0
C	-2.378092	-0.248747	-0.012543	6
C	-0.897772	-0.166817	-0.005343	6
C	-0.051642	0.926413	-0.002193	6
C	1.266168	0.432403	0.003667	6
N	2.386958	1.158363	0.007457	7
C	1.213727	-0.935167	0.004317	6
N	-0.110092	-1.295167	-0.001393	7
H	-2.826562	0.749773	-0.003693	1
H	-2.737842	-0.789817	0.868377	1
H	-2.729762	-0.770637	-0.908173	1
H	-0.361232	1.962663	-0.004473	1
H	2.380178	2.172153	0.022197	1
H	3.309298	0.738113	0.026887	1
H	1.989678	-1.686987	0.007727	1
H	-0.453012	-2.246547	-0.002823	1
Es	2.938122	0.896226	0.020454	99
Es	1.266316	0.432531	0.003672	99
Es	-0.110147	-1.295094	-0.001337	99
Es	-2.378038	-0.248750	-0.012542	99
Es	1.894676	0.843444	0.007957	99
Es	1.213576	-0.935300	0.004308	99
Es	2.373576	1.768897	0.017665	99
Es	-0.311532	-1.861776	-0.002085	99
Es	-0.254380	1.635614	-0.003627	99
Es	1.741963	-1.448013	0.006855	99
Es	2.381602	1.154658	-0.001973	99
Es	-0.324275	-0.975691	-0.259912	99
Es	-1.636366	-0.211036	-0.008842	99
Es	-0.389746	0.445395	-0.310569	99
Es	0.635761	0.740758	0.000704	99
Es	-0.319422	-0.980643	0.256471	99
Es	-0.051639	0.926448	-0.002198	99
Es	-2.675257	0.426032	-0.006596	99
Es	-2.606480	-0.605704	-0.616512	99
Es	-2.611760	-0.618455	0.581643	99
Es	-0.391457	0.445919	0.304284	99
Es	2.350708	1.133469	0.003496	99
Es	1.217870	-0.320513	-0.313918	99
Es	0.461923	-1.187341	-0.000721	99
Es	-0.897784	-0.167034	-0.005344	99
Es	1.215219	-0.319790	0.322094	99
41
Properties=species:S:1:pos:R:3:Z:I:1 energy=-302.9786963483927 field_type=dipole dipole="0.000000 0.000000 0.000000" charge=0
C	-2.378092	-0.248747	-0.012543	6
C	-0.897772	-0.166817	-0.005343	6
C	-0.051642	0.926413	-0.002193	6
C	1.266168	0.432403	0.003667	6
N	2.386958	1.158363	0.007457	7
C	1.213727	-0.935167	0.004317	6
N	-0.110092	-1.295167	-0.001393	7
H	-2.826562	0.749773	-0.003693	1
H	-2.737842	-0.789817	0.868377	1
H	-2.729762	-0.770637	-0.908173	1
H	-0.361232	1.962663	-0.004473	1
H	2.380178	2.172153	0.022197	1
H	3.309298	0.738113	0.026887	1
H	1.989678	-1.686987	0.007727	1
H	-0.453012	-2.246547	-0.002823	1
Es	-0.110139	-1.294966	-0.000784	99
Es	-2.605944	-0.605536	-0.614981	99
Es	-0.051634	0.926457	-0.002188	99
Es	-0.391643	0.442405	-0.311404	99
Es	-2.378038	-0.248750	-0.012542	99
Es	1.895304	0.842958	0.005179	99
Es	-0.254788	1.636819	-0.003922	99
Es	-0.398093	0.442706	0.303206	99
Es	-1.636283	-0.213098	-0.008721	99
Es	-0.897785	-0.167040	-0.005343	99
Es	1.213576	-0.935305	0.004301	99
Es	2.356344	1.137565	0.014405	99
Es	1.742620	-1.447674	0.007783	99
Es	2.374743	1.769627	0.013393	99
Es	0.636120	0.738707	0.001385	99
Es	2.936887	0.896678	0.020752	99
Es	1.212863	-0.309639	0.319051	99
Es	-2.611770	-0.618918	0.580008	99
Es	-0.147558	-1.133799	-0.105411	99
Es	2.375803	1.150690	-0.006077	99
Es	0.463608	-1.179888	0.024996	99
Es	-0.318407	-1.865074	0.006605	99
Es	1.266317	0.432536	0.003666	99
Es	1.213608	-0.309681	-0.313586	99
Es	-2.676639	0.427140	-0.006606	99
Es	-0.476046	-0.840670	0.070262	99
41
Properties=species:S:1:pos:R:3:Z:I:1 energy=-302.9786963483927 field_type=dipole dipole="0.000000 0.000000 0.000000" charge=0
C	-2.378092	-0.248747	-0.012543	6
C	-0.897772	-0.166817	-0.005343	6
C	-0.051642	0.926413	-0.002193	6
C	1.266168	0.432403	0.003667	6
N	2.386958	1.158363	0.007457	7
C	1.213727	-0.935167	0.004317	6
N	-0.110092	-1.295167	-0.001393	7
H	-2.826562	0.749773	-0.003693	1
H	-2.737842	-0.789817	0.868377	1
H	-2.729762	-0.770637	-0.908173	1
H	-0.361232	1.962663	-0.004473	1
H	2.380178	2.172153	0.022197	1
H	3.309298	0.738113	0.026887	1
H	1.989678	-1.686987	0.007727	1
H	-0.453012	-2.246547	-0.002823	1
Es	-1.636004	-0.213728	-0.008606	99
Es	-2.677495	0.427816	-0.006754	99
Es	-2.378039	-0.248750	-0.012543	99
Es	1.210562	-0.307746	0.319587	99
Es	1.213576	-0.935309	0.004316	99
Es	-0.051635	0.926456	-0.002189	99
Es	-0.142077	-1.144806	-0.002468	99
Es	-0.254873	1.637461	-0.003683	99
Es	0.465057	-1.178538	0.000593	99
Es	2.384849	1.156950	0.011784	99
Es	2.375570	1.770023	0.018121	99
Es	1.742916	-1.447422	0.006662	99
Es	-2.611661	-0.619014	0.579072	99
Es	-0.319506	-1.865963	-0.002001	99
Es	2.347257	1.131409	-0.015938	99
Es	-0.110102	-1.295165	-0.001406	99
Es	1.895665	0.842554	0.012447	99
Es	1.213887	-0.307534	-0.311300	99
Es	-0.391258	0.442394	-0.309727	99
Es	-0.897788	-0.167036	-0.005325	99
Es	-0.482191	-0.833399	-0.002101	99
Es	0.636067	0.737464	0.001240	99
Es	1.266316	0.432534	0.003667	99
Es	2.935870	0.897185	0.021220	99
Es	-0.396358	0.442039	0.302734	99
Es	-2.605577	-0.605623	-0.613976	99
41
Properties=species:S:1:pos:R:3:Z:I:1 energy=-302.9786963483927 field_type=dipole dipole="0.000000 0.000000 0.000000" charge=0
C	-2.378092	-0.248747	-0.012543	6
C	-0.897772	-0.166817	-0.005343	6
C	-0.051642	0.926413	-0.002193	6
C	1.266168	0.432403	0.003667	6
N	2.386958	1.158363	0.007457	7
C	1.213727	-0.935167	0.004317	6
N	-0.110092	-1.295167	-0.001393	7
H	-2.826562	0.749773	-0.003693	1
H	-2.737842	-0.789817	0.868377	1
H	-2.729762	-0.770637	-0.908173	1
H	-0.361232	1.962663	-0.004473	1
H	2.380178	2.172153	0.022197	1
H	3.309298	0.738113	0.026887	1
H	1.989678	-1.686987	0.007727	1
H	-0.453012	-2.246547	-0.002823	1
Es	1.212832	-0.307027	-0.310499	99
Es	-2.678286	0.428341	-0.006809	99
Es	1.743312	-1.447166	0.007015	99
Es	1.210473	-0.306590	0.318193	99
Es	2.376247	1.770387	0.015590	99
Es	-0.394347	0.442280	0.301308	99
Es	-2.378038	-0.248751	-0.012542	99
Es	2.371672	1.148095	0.016217	99
Es	2.360361	1.140343	-0.012552	99
Es	-0.481603	-0.833634	-0.001466	99
Es	-0.897790	-0.167038	-0.005343	99
Es	-0.255029	1.638021	-0.003531	99
Es	2.935129	0.897446	0.019792	99
Es	-2.611537	-0.619223	0.578226	99
Es	-0.142927	-1.146620	-0.002522	99
Es	-0.319754	-1.866278	-0.002287	99
Es	1.213574	-0.935312	0.004317	99
Es	0.464385	-1.178124	0.001089	99
Es	-0.110145	-1.294927	-0.002127	99
Es	-1.635543	-0.214255	-0.008980	99
Es	1.266319	0.432539	0.003664	99
Es	-2.605470	-0.605346	-0.612705	99
Es	-0.391139	0.442125	-0.307952	99
Es	-0.051635	0.926456	-0.002188	99
Es	1.895890	0.842255	0.008588	99
Es	0.636077	0.736255	0.000929	99
41
Properties=species:S:1:pos:R:3:Z:I:1 energy=-302.9786963483927 field_type=dipole dipole="0.000000 0.000000 0.000000" charge=0
C	-2.378092	-0.248747	-0.012543	6
C	-0.897772	-0.166817	-0.005343	6
C	-0.051642	0.926413	-0.002193	6
C	1.266168	0.432403	0.003667	6
N	2.386958	1.158363	0.007457	7
C	1.213727	-0.935167	0.004317	6
N	-0.110092	-1.295167	-0.001393	7
H	-2.826562	0.749773	-0.003693	1
H	-2.737842	-0.789817	0.868377	1
H	-2.729762	-0.770637	-0.908173	1
H	-0.361232	1.962663	-0.004473	1
H	2.380178	2.172153	0.022197	1
H	3.309298	0.738113	0.026887	1
H	1.989678	-1.686987	0.007727	1
H	-0.453012	-2.246547	-0.002823	1
Es	-0.320052	-1.866444	-0.002310	99
Es	1.896114	0.842037	0.007747	99
Es	1.266320	0.432538	0.003668	99
Es	1.211733	-0.306959	-0.309471	99
Es	2.384234	1.156514	0.001349	99
Es	0.635815	0.735231	0.001230	99
Es	-0.394682	0.441722	0.299834	99
Es	2.934519	0.897674	0.018003	99
Es	2.347706	1.131998	0.005138	99
Es	-2.679129	0.428813	-0.006697	99
Es	1.213573	-0.935316	0.004317	99
Es	-2.378038	-0.248751	-0.012543	99
Es	-2.611259	-0.619014	0.577072	99
Es	0.464036	-1.177870	0.000665	99
Es	-0.388932	0.442534	-0.306692	99
Es	1.743650	-1.446988	0.006755	99
Es	-0.897788	-0.167036	-0.005351	99
Es	-0.110102	-1.295165	-0.001355	99
Es	1.210856	-0.305519	0.317390	99
Es	-2.605408	-0.605457	-0.611749	99
Es	2.376731	1.770662	0.015400	99
Es	-0.481051	-0.833827	-0.005643	99
Es	-0.143920	-1.147333	0.001230	99
Es	-0.051635	0.926457	-0.002192	99
Es	-1.635136	-0.214783	-0.008807	99
Es	-0.255127	1.638533	-0.003562	99
41
Properties=species:S:1:pos:R:3:Z:I:1 energy=-302.9786963483927 field_type=dipole dipole="0.000000 0.000000 0.000000" charge=0
C	-2.378092	-0.248747	-0.012543	6
C	-0.897772	-0.166817	-0.005343	6
C	-0.051642	0.926413	-0.002193	6
C	1.266168	0.432403	0.003667	6
N	2.386958	1.158363	0.007457	7
C	1.213727	-0.935167	0.004317	6
N	-0.110092	-1.295167	-0.001393	7
H	-2.826562	0.749773	-0.003693	1
H	-2.737842	-0.789817	0.868377	1
H	-2.729762	-0.770637	-0.908173	1
H	-0.361232	1.962663	-0.004473	1
H	2.380178	2.172153	0.022197	1
H	3.309298	0.738113	0.026887	1
H	1.989678	-1.686987	0.007727	1
H	-0.453012	-2.246547	-0.002823	1
Es	-2.604805	-0.604538	-0.610637	99
Es	-0.110100	-1.295164	-0.001477	99
Es	2.357012	1.138238	-0.010302	99
Es	1.896233	0.841915	0.008281	99
Es	-1.634778	-0.215344	-0.009047	99
Es	1.212860	-0.305484	-0.308299	99
Es	1.743969	-1.446790	0.006495	99
Es	2.933937	0.897926	0.018517	99
Es	-0.897790	-0.167038	-0.005336	99
Es	-0.144544	-1.148211	0.000361	99
Es	-0.255196	1.638907	-0.003565	99
Es	-0.389390	0.443353	0.298692	99
Es	0.635713	0.734210	0.000895	99
Es	-0.051634	0.926458	-0.002182	99
Es	-2.378038	-0.248751	-0.012542	99
Es	-0.320159	-1.866586	-0.001821	99
Es	-0.480751	-0.833966	-0.004202	99
Es	-2.611582	-0.619742	0.576102	99
Es	1.209024	-0.305964	0.316731	99
Es	1.213574	-0.935315	0.004313	99
Es	0.463630	-1.177654	-0.000415	99
Es	2.377254	1.770804	0.015588	99
Es	-2.679839	0.429237	-0.006704	99
Es	-0.392799	0.440896	-0.305239	99
Es	2.374907	1.150318	0.015558	99
Es	1.266320	0.432537	0.003662	99
41
Properties=species:S:1:pos:R:3:Z:I:1 energy=-302.9786963483927 field_type=dipole dipole="0.000000 0.000000 0.000000" charge=0
C	-2.378092	-0.248747	-0.012543	6
C	-0.897772	-0.166817	-0.005343	6
C	-0.051642	0.926413	-0.002193	6
C	1.266168	0.432403	0.003667	6
N	2.386958	1.158363	0.007457	7
C	1.213727	-0.935167	0.004317	6
N	-0.110092	-1.295167	-0.001393	7
H	-2.826562	0.749773	-0.003693	1
H	-2.737842	-0.789817	0.868377	1
H	-2.729762	-0.770637	-0.908173	1
H	-0.361232	1.962663	-0.004473	1
H	2.380178	2.172153	0.022197	1
H	3.309298	0.738113	0.026887	1
H	1.989678	-1.686987	0.007727	1
H	-0.453012	-2.246547	-0.002823	1
Es	-0.394512	0.440122	-0.303874	99
Es	1.266319	0.432540	0.003671	99
Es	2.374985	1.150384	0.015939	99
Es	-2.680550	0.429449	-0.006813	99
Es	0.463406	-1.177429	-0.000228	99
Es	2.933413	0.898132	0.016795	99
Es	1.213573	-0.935315	0.004311	99
Es	-2.604352	-0.604019	-0.609664	99
Es	-1.634436	-0.215647	-0.009048	99
Es	1.896392	0.841709	0.008174	99
Es	-0.386359	0.444110	0.297753	99
Es	-0.051634	0.926459	-0.002193	99
Es	-2.378038	-0.248750	-0.012543	99
Es	-0.255196	1.639245	-0.003594	99
Es	-0.145167	-1.148827	0.001058	99
Es	0.635451	0.733428	0.000440	99
Es	2.356870	1.138209	-0.008474	99
Es	1.744325	-1.446606	0.006610	99
Es	1.210130	-0.304610	0.315793	99
Es	-2.611707	-0.620106	0.575323	99
Es	2.377681	1.770982	0.015141	99
Es	-0.480410	-0.834217	-0.004916	99
Es	-0.320398	-1.866675	-0.002121	99
Es	-0.897789	-0.167039	-0.005343	99
Es	-0.110104	-1.295158	-0.001256	99
Es	1.211135	-0.306120	-0.307514	99
41
Properties=species:S:1:pos:R:3:Z:I:1 energy=-302.9786963483927 field_type=dipole dipole="0.000000 0.000000 0.000000" charge=0
C	-2.378092	-0.248747	-0.012543	6
C	-0.897772	-0.166817	-0.005343	6
C	-0.051642	0.926413	-0.002193	6
C	1.266168	0.432403	0.003667	6
N	2.386958	1.158363	0.007457	7
C	1.213727	-0.935167	0.004317	6
N	-0.110092	-1.295167	-0.001393	7
H	-2.826562	0.749773	-0.003693	1
H	-2.737842	-0.789817	0.868377	1
H	-2.729762	-0.770637	-0.908173	1
H	-0.361232	1.962663	-0.004473	1
H	2.380178	2.172153	0.022197	1
H	3.309298	0.738113	0.026887	1
H	1.989678	-1.686987	0.007727	1
H	-0.453012	-2.246547	-0.002823	1
Es	-0.897789	-0.167038	-0.005340	99
Es	2.348853	1.132896	-0.006650	99
Es	-0.255228	1.639387	-0.003702	99
Es	-0.110109	-1.295127	-0.001695	99
Es	0.463275	-1.177310	-0.002076	99
Es	-0.320461	-1.866753	-0.002183	99
Es	1.203416	-0.309398	0.315476	99
Es	-0.360498	0.453101	0.290675	99
Es	2.378074	1.771103	0.014723	99
Es	2.932934	0.898352	0.015622	99
Es	0.635521	0.733063	-0.001940	99
Es	-0.145876	-1.149142	-0.004845	99
Es	-0.480201	-0.834405	0.003419	99
Es	-1.634427	-0.215828	-0.008886	99
Es	1.213574	-0.935315	0.004318	99
Es	2.382949	1.155708	0.013217	99
Es	-2.378040	-0.248750	-0.012543	99
Es	-2.612893	-0.622062	0.574893	99
Es	-0.051634	0.926459	-0.002199	99
Es	1.217001	-0.301658	-0.306414	99
Es	-2.603044	-0.602038	-0.608998	99
Es	1.744373	-1.446483	0.006470	99
Es	-0.418874	0.431799	-0.295184	99
Es	1.896503	0.841537	0.010551	99
Es	1.266320	0.432536	0.003667	99
Es	-2.680689	0.429616	-0.006948	99
41
Properties=species:S:1:pos:R:3:Z:I:1 energy=-302.9786963483927 field_type=dipole dipole="0.000000 0.000000 0.000000" charge=0
C	-2.378092	-0.248747	-0.012543	6
C	-0.897772	-0.166817	-0.005343	6
C	-0.051642	0.926413	-0.002193	6
C	1.266168	0.432403	0.003667	6
N	2.386958	1.158363	0.007457	7
C	1.213727	-0.935167	0.004317	6
N	-0.110092	-1.295167	-0.001393	7
H	-2.826562	0.749773	-0.003693	1
H	-2.737842	-0.789817	0.868377	1
H	-2.729762	-0.770637	-0.908173	1
H	-0.361232	1.962663	-0.004473	1
H	2.380178	2.172153	0.022197	1
H	3.309298	0.738113	0.026887	1
H	1.989678	-1.686987	0.007727	1
H	-0.453012	-2.246547	-0.002823	1
Es	-0.255025	1.639444	-0.003034	99
Es	-0.051635	0.926460	-0.002185	99
Es	1.744197	-1.446383	0.007466	99
Es	2.386241	1.157879	0.004610	99
Es	1.896537	0.841580	0.001565	99
Es	1.266320	0.432544	0.003673	99
Es	1.215592	-0.300507	0.314106	99
Es	1.204033	-0.311735	-0.307546	99
Es	1.213574	-0.935315	0.004317	99
Es	-2.680569	0.429616	-0.006481	99
Es	-2.609902	-0.617117	0.574785	99
Es	0.463092	-1.177221	0.007467	99
Es	2.932541	0.898415	0.021838	99
Es	-0.146756	-1.149173	0.001379	99
Es	0.635437	0.732860	0.006542	99
Es	-0.479979	-0.834536	-0.010967	99
Es	-0.336225	0.460531	-0.283400	99
Es	-0.897788	-0.167037	-0.005343	99
Es	-2.606033	-0.607051	-0.610120	99
Es	-0.441452	0.425649	0.272273	99
Es	2.378318	1.771155	0.015427	99
Es	-2.378040	-0.248754	-0.012541	99
Es	2.345597	1.130754	0.004424	99
Es	-0.320460	-1.866813	-0.003906	99
Es	-0.110103	-1.295155	-0.001550	99
Es	-1.634485	-0.215838	-0.009370	99
41
Properties=species:S:1:pos:R:3:Z:I:1 energy=-302.9786963483927 field_type=dipole dipole="0.000000 0.000000 0.000000" charge=0
C	-2.378092	-0.248747	-0.012543	6
C	-0.897772	-0.166817	-0.005343	6
C	-0.051642	0.926413	-0.002193	6
C	1.266168	0.432403	0.003667	6
N	2.386958	1.158363	0.007457	7
C	1.213727	-0.935167	0.004317	6
N	-0.110092	-1.295167	-0.001393	7
H	-2.826562	0.749773	-0.003693	1
H	-2.737842	-0.789817	0.868377	1
H	-2.729762	-0.770637	-0.908173	1
H	-0.361232	1.962663	-0.004473	1
H	2.380178	2.172153	0.022197	1
H	3.309298	0.738113	0.026887	1
H	1.989678	-1.686987	0.007727	1
H	-0.453012	-2.246547	-0.002823	1
Es	1.197425	-0.314659	0.314913	99
Es	2.932268	0.898693	0.012394	99
Es	-0.254841	1.639506	-0.004124	99
Es	2.374996	1.150391	0.016185	99
Es	-0.147577	-1.149073	-0.005871	99
Es	-0.320679	-1.866814	-0.001182	99
Es	0.463140	-1.177306	-0.005975	99
Es	-0.897789	-0.167038	-0.005341	99
Es	-1.634558	-0.215693	-0.008573	99
Es	2.356804	1.138193	-0.007845	99
Es	1.266320	0.432538	0.003666	99
Es	-0.450400	0.421443	-0.267100	99
Es	-2.602439	-0.601082	-0.608941	99
Es	-2.613588	-0.623189	0.575320	99
Es	1.213574	-0.935315	0.004331	99
Es	2.378560	1.771242	0.014509	99
Es	1.743966	-1.446315	0.005997	99
Es	-0.110101	-1.295165	-0.001421	99
Es	0.635609	0.732746	-0.004939	99
Es	-0.051634	0.926459	-0.002204	99
Es	-0.326014	0.465771	0.265123	99
Es	1.896534	0.841396	0.012140	99
Es	-0.479736	-0.834606	0.007134	99
Es	-2.680363	0.429522	-0.007187	99
Es	-2.378038	-0.248751	-0.012543	99
Es	1.221589	-0.298642	-0.305040	99
41
Properties=species:S:1:pos:R:3:Z:I:1 energy=-302.9786963483927 field_type=dipole dipole="0.000000 0.000000 0.000000" charge=0
C	-2.378092	-0.248747	-0.012543	6
C	-0.897772	-0.166817	-0.005343	6
C	-0.051642	0.926413	-0.002193	6
C	1.266168	0.432403	0.003667	6
N	2.386958	1.158363	0.007457	7
C	1.213727	-0.935167	0.004317	6
N	-0.110092	-1.295167	-0.001393	7
H	-2.826562	0.749773	-0.003693	1
H	-2.737842	-0.789817	0.868377	1
H	-2.729762	-0.770637	-0.908173	1
H	-0.361232	1.962663	-0.004473	1
H	2.380178	2.172153	0.022197	1
H	3.309298	0.738113	0.026887	1
H	1.989678	-1.686987	0.007727	1
H	-0.453012	-2.246547	-0.002823	1
Es	-2.680140	0.429540	-0.006504	99
Es	-2.607117	-0.608869	-0.610496	99
Es	1.213573	-0.935315	0.004325	99
Es	1.266321	0.432538	0.003668	99
Es	-0.254777	1.639537	-0.002829	99
Es	-0.897789	-0.167037	-0.005345	99
Es	1.743839	-1.446228	0.007648	99
Es	2.345024	1.130292	0.000535	99
Es	2.386912	1.158330	0.006683	99
Es	-0.479479	-0.834729	-0.015462	99
Es	0.635534	0.732661	0.007940	99
Es	1.200049	-0.315417	-0.307315	99
Es	-0.314440	0.469042	-0.260454	99
Es	2.931904	0.898688	0.024972	99
Es	1.896589	0.841449	0.000247	99
Es	-0.051635	0.926459	-0.002180	99
Es	-0.460642	0.419083	0.248287	99
Es	2.378644	1.771281	0.015490	99
Es	-2.608956	-0.615468	0.575053	99
Es	0.463089	-1.177288	0.006981	99
Es	-2.378039	-0.248751	-0.012544	99
Es	-0.148368	-1.149041	0.005854	99
Es	-1.634716	-0.215698	-0.009347	99
Es	1.218419	-0.298791	0.313322	99
Es	-0.320667	-1.866851	-0.003711	99
Es	-0.110102	-1.295166	-0.001390	99
41
Properties=species:S:1:pos:R:3:Z:I:1 energy=-302.9786963483927 field_type=dipole dipole="0.000000 0.000000 0.000000" charge=0
C	-2.378092	-0.248747	-0.012543	6
C	-0.897772	-0.166817	-0.005343	6
C	-0.051642	0.926413	-0.002193	6
C	1.266168	0.432403	0.003667	6
N	2.386958	1.158363	0.007457	7
C	1.213727	-0.935167	0.004317	6
N	-0.110092	-1.295167	-0.001393	7
H	-2.826562	0.749773	-0.003693	1
H	-2.737842	-0.789817	0.868377	1
H	-2.729762	-0.770637	-0.908173	1
H	-0.361232	1.962663	-0.004473	1
H	2.380178	2.172153	0.022197	1
H	3.309298	0.738113	0.026887	1
H	1.989678	-1.686987	0.007727	1
H	-0.453012	-2.246547	-0.002823	1
Es	1.743734	-1.446198	0.005722	99
Es	0.635693	0.732511	-0.006061	99
Es	-0.110111	-1.295109	-0.001753	99
Es	1.221142	-0.299088	-0.305372	99
Es	-0.463526	0.417094	-0.247742	99
Es	2.370809	1.147575	0.016449	99
Es	-0.479653	-0.834850	0.005441	99
Es	-2.680030	0.429525	-0.007249	99
Es	1.896574	0.841380	0.014356	99
Es	2.931845	0.898884	0.009919	99
Es	-0.310740	0.471508	0.246535	99
Es	-2.602339	-0.600802	-0.609053	99
Es	-0.148564	-1.149289	-0.003794	99
Es	2.360997	1.140973	-0.007968	99
Es	-2.613791	-0.623563	0.575681	99
Es	1.196793	-0.315500	0.315609	99
Es	-0.897789	-0.167037	-0.005342	99
Es	0.463113	-1.177096	-0.006601	99
Es	-0.254651	1.639605	-0.004064	99
Es	2.378832	1.771313	0.014616	99
Es	-1.634765	-0.215647	-0.008537	99
Es	1.266320	0.432538	0.003664	99
Es	-2.378040	-0.248755	-0.012536	99
Es	-0.320765	-1.866865	-0.000605	99
Es	1.213573	-0.935315	0.004310	99
Es	-0.051634	0.926459	-0.002200	99
41
Properties=species:S:1:pos:R:3:Z:I:1 energy=-302.9786963483927 field_type=dipole dipole="0.000000 0.000000 0.000000" charge=0
C	-2.378092	-0.248747	-0.012543	6
C	-0.897772	-0.166817	-0.005343	6
C	-0.051642	0.926413	-0.002193	6
C	1.266168	0.432403	0.003667	6
N	2.386958	1.158363	0.007457	7
C	1.213727	-0.935167	0.004317	6
N	-0.110092	-1.295167	-0.001393	7
H	-2.826562	0.749773	-0.003693	1
H	-2.737842	-0.789817	0.868377	1
H	-2.729762	-0.770637	-0.908173	1
H	-0.361232	1.962663	-0.004473	1
H	2.380178	2.172153	0.022197	1
H	3.309298	0.738113	0.026887	1
H	1.989678	-1.686987	0.007727	1
H	-0.453012	-2.246547	-0.002823	1
Es	-0.479315	-0.834885	-0.015521	99
Es	1.266321	0.432539	0.003669	99
Es	1.213573	-0.935315	0.004317	99
Es	-2.679903	0.429534	-0.006421	99
Es	-1.634847	-0.215630	-0.009374	99
Es	-0.897789	-0.167037	-0.005346	99
Es	-2.378040	-0.248750	-0.012543	99
Es	-2.606940	-0.608547	-0.610852	99
Es	-0.470423	0.415798	0.231731	99
Es	2.931648	0.898799	0.023971	99
Es	2.348203	1.132537	0.008803	99
Es	-2.609185	-0.615881	0.575304	99
Es	-0.320827	-1.866868	-0.003781	99
Es	-0.302952	0.473554	-0.244729	99
Es	2.378924	1.771338	0.014994	99
Es	1.896649	0.841437	-0.000978	99
Es	1.220312	-0.297681	0.312533	99
Es	-0.110106	-1.295147	-0.001183	99
Es	-0.149102	-1.149149	0.002975	99
Es	0.635635	0.732402	0.008859	99
Es	-0.051635	0.926459	-0.002178	99
Es	2.383597	1.156103	0.001142	99
Es	0.462971	-1.177228	0.010016	99
Es	-0.254494	1.639633	-0.002676	99
Es	1.197174	-0.317635	-0.306953	99
Es	1.743578	-1.446129	0.007648	99
