38
Properties=species:S:1:pos:R:3:Z:I:1 energy=-301.742297211529 field_type=dipole dipole="0.000000 0.000000 0.000000" charge=0
C	-1.929580	-0.341116	0.017860	6
C	-0.594320	-0.225516	-0.003000	6
C	0.145040	1.057994	-0.039080	6
C	1.629360	0.843394	0.011410	6
N	2.251820	-0.292326	0.037660	7
N	1.523360	-1.484826	0.024630	7
C	0.232720	-1.444776	0.011120	6
H	-2.566820	0.538524	0.008640	1
H	-2.428190	-1.305526	0.045130	1
H	-0.125500	1.690984	0.813030	1
H	-0.076320	1.611894	-0.957810	1
H	2.248140	1.756274	0.020180	1
H	-0.309710	-2.404976	0.010230	1
Es	-1.237695	-0.295931	0.329978	99
Es	-1.246812	-0.308497	-0.314547	99
Es	-1.929670	-0.341115	0.017861	99
Es	1.721509	-1.804438	0.026878	99
Es	0.955059	-1.423056	-0.265873	99
Es	1.940118	0.180994	0.313138	99
Es	1.523004	-1.484269	0.024624	99
Es	-0.594169	-0.225514	-0.002989	99
Es	-2.265009	-0.990651	0.035709	99
Es	-0.032752	1.471940	0.529483	99
Es	1.957414	0.175765	-0.260626	99
Es	-2.363421	0.253117	0.012011	99
Es	0.000850	1.417577	-0.650802	99
Es	2.624876	-0.322095	0.049224	99
Es	1.834819	-0.856777	0.028949	99
Es	0.949590	-1.421557	0.302221	99
Es	0.232671	-1.444739	0.011121	99
Es	0.145077	1.057940	-0.039077	99
Es	0.880524	0.935847	-0.013273	99
Es	2.036638	1.464897	0.017184	99
Es	1.629301	0.843428	0.011407	99
Es	2.251162	-0.292197	0.037639	99
Es	-0.226028	0.416025	-0.020776	99
Es	-0.174556	-0.825181	0.004010	99
Es	-0.141178	-2.086469	0.010307	99
38
Properties=species:S:1:pos:R:3:Z:I:1 energy=-301.742297211529 field_type=dipole dipole="0.000000 0.000000 0.000000" charge=0
C	-1.929580	-0.341116	0.017860	6
C	-0.594320	-0.225516	-0.003000	6
C	0.145040	1.057994	-0.039080	6
C	1.629360	0.843394	0.011410	6
N	2.251820	-0.292326	0.037660	7
N	1.523360	-1.484826	0.024630	7
C	0.232720	-1.444776	0.011120	6
H	-2.566820	0.538524	0.008640	1
H	-2.428190	-1.305526	0.045130	1
H	-0.125500	1.690984	0.813030	1
H	-0.076320	1.611894	-0.957810	1
H	2.248140	1.756274	0.020180	1
H	-0.309710	-2.404976	0.010230	1
Es	-0.174278	-0.826167	0.004319	99
Es	0.884447	0.936781	-0.013360	99
Es	1.937795	0.177775	0.299268	99
Es	-0.140793	-2.086842	0.010517	99
Es	2.636808	-0.317877	0.048423	99
Es	2.251152	-0.292278	0.037646	99
Es	2.038179	1.464253	0.017107	99
Es	-1.247332	-0.307585	-0.310330	99
Es	1.629301	0.843431	0.011407	99
Es	-0.230882	0.416872	-0.021064	99
Es	-1.929675	-0.341115	0.017862	99
Es	-2.364114	0.254615	0.011697	99
Es	0.000292	1.415735	-0.644097	99
Es	0.948615	-1.418143	0.295944	99
Es	-0.033866	1.471406	0.523505	99
Es	1.522978	-1.484304	0.024625	99
Es	0.145076	1.057941	-0.039080	99
Es	1.720512	-1.810238	0.026832	99
Es	0.954174	-1.419827	-0.259759	99
Es	1.953411	0.172141	-0.245989	99
Es	1.832880	-0.854233	0.028701	99
Es	-2.263988	-0.991514	0.035515	99
Es	-1.237872	-0.295528	0.325961	99
Es	-0.594166	-0.225513	-0.003000	99
Es	0.232666	-1.444739	0.011130	99
38
Properties=species:S:1:pos:R:3:Z:I:1 energy=-301.742297211529 field_type=dipole dipole="0.000000 0.000000 0.000000" charge=0
C	-1.929580	-0.341116	0.017860	6
C	-0.594320	-0.225516	-0.003000	6
C	0.145040	1.057994	-0.039080	6
C	1.629360	0.843394	0.011410	6
N	2.251820	-0.292326	0.037660	7
N	1.523360	-1.484826	0.024630	7
C	0.232720	-1.444776	0.011120	6
H	-2.566820	0.538524	0.008640	1
H	-2.428190	-1.305526	0.045130	1
H	-0.125500	1.690984	0.813030	1
H	-0.076320	1.611894	-0.957810	1
H	2.248140	1.756274	0.020180	1
H	-0.309710	-2.404976	0.010230	1
Es	1.523009	-1.484257	0.024627	99
Es	-0.140459	-2.087088	0.010626	99
Es	1.952595	0.168913	-0.237478	99
Es	0.001187	1.413386	-0.638410	99
Es	1.719907	-1.813752	0.026554	99
Es	-0.033783	1.471261	0.518716	99
Es	-1.247802	-0.306893	-0.307791	99
Es	2.641631	-0.314839	0.048324	99
Es	-0.594162	-0.225511	-0.003006	99
Es	1.830887	-0.852467	0.028965	99
Es	0.948328	-1.415985	0.292188	99
Es	0.886241	0.937991	-0.013702	99
Es	0.953626	-1.417702	-0.255669	99
Es	1.629300	0.843432	0.011404	99
Es	1.937079	0.175975	0.290363	99
Es	-1.929676	-0.341116	0.017865	99
Es	0.145077	1.057940	-0.039078	99
Es	-2.262994	-0.991920	0.035432	99
Es	-2.364809	0.255360	0.011445	99
Es	2.251163	-0.292254	0.037641	99
Es	-0.235046	0.417565	-0.021287	99
Es	-1.237826	-0.295318	0.323443	99
Es	2.039251	1.463751	0.016950	99
Es	0.232666	-1.444739	0.011113	99
Es	-0.174067	-0.826688	0.004545	99
38
Properties=species:S:1:pos:R:3:Z:I:1 energy=-301.742297211529 field_type=dipole dipole="0.000000 0.000000 0.000000" charge=0
C	-1.929580	-0.341116	0.017860	6
C	-0.594320	-0.225516	-0.003000	6
C	0.145040	1.057994	-0.039080	6
C	1.629360	0.843394	0.011410	6
N	2.251820	-0.292326	0.037660	7
N	1.523360	-1.484826	0.024630	7
C	0.232720	-1.444776	0.011120	6
H	-2.566820	0.538524	0.008640	1
H	-2.428190	-1.305526	0.045130	1
H	-0.125500	1.690984	0.813030	1
H	-0.076320	1.611894	-0.957810	1
H	2.248140	1.756274	0.020180	1
H	-0.309710	-2.404976	0.010230	1
Es	2.040000	1.463344	0.016533	99
Es	0.004319	1.407352	-0.632713	99
Es	0.947805	-1.414353	0.289505	99
Es	0.232666	-1.444739	0.011118	99
Es	2.644144	-0.312728	0.048755	99
Es	0.887299	0.939388	-0.013929	99
Es	2.251176	-0.292235	0.037640	99
Es	1.523036	-1.484265	0.024628	99
Es	0.953685	-1.416203	-0.253112	99
Es	-1.929675	-0.341116	0.017864	99
Es	1.829496	-0.851128	0.029433	99
Es	-0.594161	-0.225511	-0.003003	99
Es	1.629299	0.843434	0.011417	99
Es	1.719389	-1.816057	0.026634	99
Es	-2.262306	-0.992148	0.035391	99
Es	-0.140002	-2.087150	0.010886	99
Es	-1.248041	-0.306646	-0.306121	99
Es	1.952066	0.167061	-0.231922	99
Es	-2.365231	0.255913	0.011232	99
Es	-0.238757	0.418505	-0.021160	99
Es	0.145076	1.057940	-0.039080	99
Es	1.937159	0.173941	0.284442	99
Es	-1.237898	-0.295057	0.321515	99
Es	-0.035243	1.474473	0.513050	99
Es	-0.173980	-0.826969	0.004776	99
38
Properties=species:S:1:pos:R:3:Z:I:1 energy=-301.742297211529 field_type=dipole dipole="0.000000 0.000000 0.000000" charge=0
C	-1.929580	-0.341116	0.017860	6
C	-0.594320	-0.225516	-0.003000	6
C	0.145040	1.057994	-0.039080	6
C	1.629360	0.843394	0.011410	6
N	2.251820	-0.292326	0.037660	7
N	1.523360	-1.484826	0.024630	7
C	0.232720	-1.444776	0.011120	6
H	-2.566820	0.538524	0.008640	1
H	-2.428190	-1.305526	0.045130	1
H	-0.125500	1.690984	0.813030	1
H	-0.076320	1.611894	-0.957810	1
H	2.248140	1.756274	0.020180	1
H	-0.309710	-2.404976	0.010230	1
Es	2.040324	1.462922	0.014950	99
Es	-0.594162	-0.225509	-0.003003	99
Es	-2.261691	-0.991871	0.035565	99
Es	0.946732	-1.413125	0.288321	99
Es	-1.251320	-0.302702	-0.300174	99
Es	-0.139779	-2.086973	0.011141	99
Es	0.145076	1.057943	-0.039074	99
Es	0.953993	-1.415652	-0.253088	99
Es	1.944756	0.164829	0.275347	99
Es	0.232666	-1.444739	0.011120	99
Es	-1.929676	-0.341116	0.017860	99
Es	-2.365854	0.255840	0.010802	99
Es	0.013732	1.388508	-0.617207	99
Es	-0.240806	0.419084	-0.020483	99
Es	-0.043455	1.491451	0.496124	99
Es	2.645265	-0.311945	0.049936	99
Es	2.251176	-0.292250	0.037645	99
Es	1.828576	-0.850276	0.030729	99
Es	-0.173840	-0.827035	0.004889	99
Es	-1.234851	-0.298470	0.315577	99
Es	0.887646	0.939856	-0.013900	99
Es	1.945215	0.173671	-0.223362	99
Es	1.629299	0.843434	0.011401	99
Es	1.719322	-1.816576	0.028042	99
Es	1.522976	-1.484252	0.024625	99
38
Properties=species:S:1:pos:R:3:Z:I:1 energy=-301.742297211529 field_type=dipole dipole="0.000000 0.000000 0.000000" charge=0
C	-1.929580	-0.341116	0.017860	6
C	-0.594320	-0.225516	-0.003000	6
C	0.145040	1.057994	-0.039080	6
C	1.629360	0.843394	0.011410	6
N	2.251820	-0.292326	0.037660	7
N	1.523360	-1.484826	0.024630	7
C	0.232720	-1.444776	0.011120	6
H	-2.566820	0.538524	0.008640	1
H	-2.428190	-1.305526	0.045130	1
H	-0.125500	1.690984	0.813030	1
H	-0.076320	1.611894	-0.957810	1
H	2.248140	1.756274	0.020180	1
H	-0.309710	-2.404976	0.010230	1
Es	-0.139617	-2.086644	0.011253	99
Es	-0.241564	0.418948	-0.020085	99
Es	0.954199	-1.415005	-0.253420	99
Es	2.040593	1.462568	0.014387	99
Es	1.935793	0.182826	-0.191947	99
Es	-2.366450	0.255514	0.010766	99
Es	0.232666	-1.444739	0.011124	99
Es	-0.594161	-0.225510	-0.002999	99
Es	-2.261263	-0.991302	0.035710	99
Es	-1.252655	-0.300930	-0.295618	99
Es	1.719419	-1.816092	0.028140	99
Es	0.945516	-1.412790	0.288583	99
Es	1.828530	-0.849684	0.031553	99
Es	0.017067	1.381434	-0.607482	99
Es	2.251175	-0.292275	0.037640	99
Es	1.523021	-1.484258	0.024625	99
Es	-1.929676	-0.341116	0.017860	99
Es	0.145076	1.057941	-0.039078	99
Es	1.629300	0.843435	0.011405	99
Es	1.954609	0.153928	0.243783	99
Es	2.645843	-0.311998	0.049751	99
Es	-0.173581	-0.826862	0.004834	99
Es	0.887694	0.939925	-0.013848	99
Es	-1.233697	-0.299959	0.311055	99
Es	-0.046514	1.497690	0.485791	99
38
Properties=species:S:1:pos:R:3:Z:I:1 energy=-301.742297211529 field_type=dipole dipole="0.000000 0.000000 0.000000" charge=0
C	-1.929580	-0.341116	0.017860	6
C	-0.594320	-0.225516	-0.003000	6
C	0.145040	1.057994	-0.039080	6
C	1.629360	0.843394	0.011410	6
N	2.251820	-0.292326	0.037660	7
N	1.523360	-1.484826	0.024630	7
C	0.232720	-1.444776	0.011120	6
H	-2.566820	0.538524	0.008640	1
H	-2.428190	-1.305526	0.045130	1
H	-0.125500	1.690984	0.813030	1
H	-0.076320	1.611894	-0.957810	1
H	2.248140	1.756274	0.020180	1
H	-0.309710	-2.404976	0.010230	1
Es	0.020788	1.373471	-0.593723	99
Es	-1.234084	-0.299133	0.313362	99
Es	1.957943	0.150349	0.230698	99
Es	0.953984	-1.414550	-0.253832	99
Es	0.944975	-1.412211	0.288923	99
Es	1.828286	-0.849154	0.032638	99
Es	-0.139523	-2.086374	0.011362	99
Es	1.719502	-1.815808	0.028524	99
Es	2.040669	1.462232	0.013382	99
Es	-0.173440	-0.826717	0.004977	99
Es	-1.252398	-0.301563	-0.298106	99
Es	0.145070	1.057956	-0.039079	99
Es	-2.260887	-0.990791	0.035838	99
Es	0.887750	0.939911	-0.013810	99
Es	1.522978	-1.484261	0.024625	99
Es	-0.242252	0.419062	-0.019099	99
Es	2.251174	-0.292260	0.037641	99
Es	-0.049821	1.504795	0.470554	99
Es	2.646156	-0.312224	0.050573	99
Es	0.232665	-1.444739	0.011122	99
Es	1.933283	0.185053	-0.179573	99
Es	-0.594163	-0.225511	-0.003009	99
Es	1.629300	0.843434	0.011398	99
Es	-2.366960	0.255194	0.010538	99
Es	-1.929676	-0.341116	0.017860	99
38
Properties=species:S:1:pos:R:3:Z:I:1 energy=-301.742297211529 field_type=dipole dipole="0.000000 0.000000 0.000000" charge=0
C	-1.929580	-0.341116	0.017860	6
C	-0.594320	-0.225516	-0.003000	6
C	0.145040	1.057994	-0.039080	6
C	1.629360	0.843394	0.011410	6
N	2.251820	-0.292326	0.037660	7
N	1.523360	-1.484826	0.024630	7
C	0.232720	-1.444776	0.011120	6
H	-2.566820	0.538524	0.008640	1
H	-2.428190	-1.305526	0.045130	1
H	-0.125500	1.690984	0.813030	1
H	-0.076320	1.611894	-0.957810	1
H	2.248140	1.756274	0.020180	1
H	-0.309710	-2.404976	0.010230	1
Es	-0.173244	-0.826574	0.005130	99
Es	1.955207	0.152918	0.246973	99
Es	-2.367445	0.254842	0.010388	99
Es	1.936596	0.181175	-0.197188	99
Es	1.629299	0.843434	0.011398	99
Es	2.040662	1.461946	0.012624	99
Es	1.522975	-1.484258	0.024627	99
Es	-2.260510	-0.990394	0.035887	99
Es	-1.253877	-0.299573	-0.290755	99
Es	0.945161	-1.411723	0.290393	99
Es	-0.139383	-2.086146	0.011415	99
Es	-0.594162	-0.225510	-0.003003	99
Es	2.251178	-0.292249	0.037639	99
Es	0.145076	1.057942	-0.039076	99
Es	0.953202	-1.414335	-0.255173	99
Es	2.646457	-0.312370	0.052112	99
Es	0.887792	0.939975	-0.013621	99
Es	1.828563	-0.848646	0.033410	99
Es	1.719156	-1.815302	0.028662	99
Es	0.024419	1.365631	-0.576479	99
Es	-0.242912	0.419041	-0.018141	99
Es	0.232666	-1.444739	0.011124	99
Es	-0.053164	1.511865	0.451634	99
Es	-1.232715	-0.300791	0.305942	99
Es	-1.929676	-0.341116	0.017859	99
38
Properties=species:S:1:pos:R:3:Z:I:1 energy=-301.742297211529 field_type=dipole dipole="0.000000 0.000000 0.000000" charge=0
C	-1.929580	-0.341116	0.017860	6
C	-0.594320	-0.225516	-0.003000	6
C	0.145040	1.057994	-0.039080	6
C	1.629360	0.843394	0.011410	6
N	2.251820	-0.292326	0.037660	7
N	1.523360	-1.484826	0.024630	7
C	0.232720	-1.444776	0.011120	6
H	-2.566820	0.538524	0.008640	1
H	-2.428190	-1.305526	0.045130	1
H	-0.125500	1.690984	0.813030	1
H	-0.076320	1.611894	-0.957810	1
H	2.248140	1.756274	0.020180	1
H	-0.309710	-2.404976	0.010230	1
Es	-1.232357	-0.301583	0.303234	99
Es	-0.594163	-0.225511	-0.003005	99
Es	0.018019	1.379161	-0.603861	99
Es	2.251179	-0.292253	0.037641	99
Es	0.953635	-1.413356	-0.254560	99
Es	1.522982	-1.484246	0.024626	99
Es	-0.139283	-2.085936	0.011360	99
Es	0.944149	-1.411876	0.290020	99
Es	0.232666	-1.444739	0.011122	99
Es	1.629300	0.843433	0.011406	99
Es	1.920993	0.195328	-0.076095	99
Es	-2.367822	0.254665	0.010740	99
Es	-1.929675	-0.341116	0.017855	99
Es	2.040959	1.461970	0.013521	99
Es	-1.254311	-0.298558	-0.287972	99
Es	-0.173122	-0.826558	0.005005	99
Es	0.145076	1.057939	-0.039079	99
Es	-0.046252	1.498118	0.480976	99
Es	-2.260199	-0.990066	0.035843	99
Es	-0.243681	0.419017	-0.019154	99
Es	1.719401	-1.815125	0.027917	99
Es	1.829090	-0.848737	0.032796	99
Es	0.887778	0.939700	-0.013741	99
Es	2.646829	-0.311994	0.049691	99
Es	1.970132	0.137370	0.127493	99
38
Properties=species:S:1:pos:R:3:Z:I:1 energy=-301.742297211529 field_type=dipole dipole="0.000000 0.000000 0.000000" charge=0
C	-1.929580	-0.341116	0.017860	6
C	-0.594320	-0.225516	-0.003000	6
C	0.145040	1.057994	-0.039080	6
C	1.629360	0.843394	0.011410	6
N	2.251820	-0.292326	0.037660	7
N	1.523360	-1.484826	0.024630	7
C	0.232720	-1.444776	0.011120	6
H	-2.566820	0.538524	0.008640	1
H	-2.428190	-1.305526	0.045130	1
H	-0.125500	1.690984	0.813030	1
H	-0.076320	1.611894	-0.957810	1
H	2.248140	1.756274	0.020180	1
H	-0.309710	-2.404976	0.010230	1
Es	0.943765	-1.411201	0.289667	99
Es	-0.053138	1.512479	0.446593	99
Es	1.629299	0.843434	0.011406	99
Es	-1.235031	-0.297442	0.318414	99
Es	-0.172948	-0.826350	0.005135	99
Es	1.719204	-1.814884	0.029055	99
Es	-0.139175	-2.085784	0.011522	99
Es	-2.259918	-0.989651	0.036004	99
Es	0.025179	1.363887	-0.572361	99
Es	-2.368184	0.254383	0.010318	99
Es	2.040995	1.461581	0.011801	99
Es	0.145073	1.057948	-0.039088	99
Es	2.646839	-0.312400	0.051924	99
Es	1.926645	0.190288	-0.137851	99
Es	1.522972	-1.484260	0.024626	99
Es	-0.244253	0.419228	-0.017351	99
Es	0.887820	0.939891	-0.013417	99
Es	1.965557	0.141666	0.187553	99
Es	-1.929675	-0.341116	0.017855	99
Es	2.251177	-0.292268	0.037641	99
Es	0.953596	-1.413134	-0.254777	99
Es	0.232666	-1.444739	0.011121	99
Es	-1.251694	-0.302784	-0.303370	99
Es	-0.594163	-0.225511	-0.003008	99
Es	1.828711	-0.848218	0.034369	99
38
Properties=species:S:1:pos:R:3:Z:I:1 energy=-301.742297211529 field_type=dipole dipole="0.000000 0.000000 0.000000" charge=0
C	-1.929580	-0.341116	0.017860	6
C	-0.594320	-0.225516	-0.003000	6
C	0.145040	1.057994	-0.039080	6
C	1.629360	0.843394	0.011410	6
N	2.251820	-0.292326	0.037660	7
N	1.523360	-1.484826	0.024630	7
C	0.232720	-1.444776	0.011120	6
H	-2.566820	0.538524	0.008640	1
H	-2.428190	-1.305526	0.045130	1
H	-0.125500	1.690984	0.813030	1
H	-0.076320	1.611894	-0.957810	1
H	2.248140	1.756274	0.020180	1
H	-0.309710	-2.404976	0.010230	1
Es	1.923802	0.192327	-0.112387	99
Es	-0.594163	-0.225510	-0.003004	99
Es	-0.244493	0.419087	-0.017566	99
Es	0.943338	-1.411282	0.289494	99
Es	1.828779	-0.847978	0.034484	99
Es	-2.368533	0.254167	0.010430	99
Es	0.232666	-1.444739	0.011123	99
Es	1.522972	-1.484258	0.024626	99
Es	-0.139084	-2.085647	0.011474	99
Es	0.887831	0.939824	-0.013502	99
Es	-1.254009	-0.299261	-0.291458	99
Es	-2.259617	-0.989389	0.035945	99
Es	1.629300	0.843433	0.011397	99
Es	-0.051646	1.509416	0.454247	99
Es	-0.172921	-0.826353	0.005066	99
Es	-1.929676	-0.341116	0.017860	99
Es	2.041099	1.461504	0.011951	99
Es	-1.232773	-0.300636	0.306636	99
Es	2.647074	-0.312214	0.051130	99
Es	1.719270	-1.814648	0.028825	99
Es	0.953652	-1.412622	-0.254606	99
Es	1.968413	0.138529	0.162587	99
Es	2.251184	-0.292236	0.037641	99
Es	0.145075	1.057945	-0.039084	99
Es	0.023781	1.366702	-0.579533	99
38
Properties=species:S:1:pos:R:3:Z:I:1 energy=-301.742297211529 field_type=dipole dipole="0.000000 0.000000 0.000000" charge=0
C	-1.929580	-0.341116	0.017860	6
C	-0.594320	-0.225516	-0.003000	6
C	0.145040	1.057994	-0.039080	6
C	1.629360	0.843394	0.011410	6
N	2.251820	-0.292326	0.037660	7
N	1.523360	-1.484826	0.024630	7
C	0.232720	-1.444776	0.011120	6
H	-2.566820	0.538524	0.008640	1
H	-2.428190	-1.305526	0.045130	1
H	-0.125500	1.690984	0.813030	1
H	-0.076320	1.611894	-0.957810	1
H	2.248140	1.756274	0.020180	1
H	-0.309710	-2.404976	0.010230	1
Es	1.931489	0.184755	-0.173093	99
Es	-1.254138	-0.299269	-0.291440	99
Es	0.887840	0.939809	-0.013352	99
Es	-0.594163	-0.225510	-0.003005	99
Es	-1.232718	-0.300473	0.306494	99
Es	-0.055965	1.518592	0.425896	99
Es	-0.244877	0.419120	-0.016509	99
Es	1.629300	0.843433	0.011398	99
Es	0.952955	-1.412698	-0.256253	99
Es	1.828623	-0.847608	0.035355	99
Es	2.251181	-0.292271	0.037640	99
Es	0.145076	1.057939	-0.039078	99
Es	0.943782	-1.410796	0.291160	99
Es	-2.259451	-0.989118	0.036019	99
Es	-1.929675	-0.341116	0.017861	99
Es	1.961631	0.145568	0.222361	99
Es	0.232666	-1.444738	0.011122	99
Es	2.040977	1.461276	0.011082	99
Es	1.718971	-1.814274	0.029081	99
Es	0.028324	1.356959	-0.552838	99
Es	-2.368756	0.253943	0.010231	99
Es	1.522969	-1.484259	0.024626	99
Es	-0.172826	-0.826234	0.005225	99
Es	-0.138997	-2.085483	0.011514	99
Es	2.647107	-0.312501	0.052282	99
38
Properties=species:S:1:pos:R:3:Z:I:1 energy=-301.742297211529 field_type=dipole dipole="0.000000 0.000000 0.000000" charge=0
C	-1.929580	-0.341116	0.017860	6
C	-0.594320	-0.225516	-0.003000	6
C	0.145040	1.057994	-0.039080	6
C	1.629360	0.843394	0.011410	6
N	2.251820	-0.292326	0.037660	7
N	1.523360	-1.484826	0.024630	7
C	0.232720	-1.444776	0.011120	6
H	-2.566820	0.538524	0.008640	1
H	-2.428190	-1.305526	0.045130	1
H	-0.125500	1.690984	0.813030	1
H	-0.076320	1.611894	-0.957810	1
H	2.248140	1.756274	0.020180	1
H	-0.309710	-2.404976	0.010230	1
Es	1.718882	-1.814249	0.028820	99
Es	-1.232072	-0.301579	0.301597	99
Es	2.647270	-0.312525	0.051384	99
Es	-0.053329	1.513221	0.441841	99
Es	0.232665	-1.444739	0.011121	99
Es	-1.929676	-0.341114	0.017865	99
Es	-0.594163	-0.225509	-0.002999	99
Es	1.924600	0.191246	-0.120778	99
Es	-0.138943	-2.085418	0.011512	99
Es	2.251183	-0.292248	0.037640	99
Es	0.943894	-1.410436	0.291774	99
Es	0.025805	1.362116	-0.568254	99
Es	1.522964	-1.484241	0.024626	99
Es	-2.369005	0.253816	0.010405	99
Es	1.828921	-0.847485	0.035108	99
Es	-1.254818	-0.298099	-0.286441	99
Es	-2.259230	-0.988925	0.035935	99
Es	0.145076	1.057941	-0.039076	99
Es	0.952561	-1.412414	-0.256687	99
Es	1.629300	0.843433	0.011396	99
Es	-0.172699	-0.826164	0.005111	99
Es	2.041151	1.461233	0.011177	99
Es	-0.245212	0.419080	-0.016705	99
Es	1.968342	0.138331	0.170784	99
Es	0.887852	0.939771	-0.013377	99
38
Properties=species:S:1:pos:R:3:Z:I:1 energy=-301.742297211529 field_type=dipole dipole="0.000000 0.000000 0.000000" charge=0
C	-1.929580	-0.341116	0.017860	6
C	-0.594320	-0.225516	-0.003000	6
C	0.145040	1.057994	-0.039080	6
C	1.629360	0.843394	0.011410	6
N	2.251820	-0.292326	0.037660	7
N	1.523360	-1.484826	0.024630	7
C	0.232720	-1.444776	0.011120	6
H	-2.566820	0.538524	0.008640	1
H	-2.428190	-1.305526	0.045130	1
H	-0.125500	1.690984	0.813030	1
H	-0.076320	1.611894	-0.957810	1
H	2.248140	1.756274	0.020180	1
H	-0.309710	-2.404976	0.010230	1
Es	0.942942	-1.410762	0.290224	99
Es	-0.172666	-0.826121	0.005131	99
Es	0.145075	1.057941	-0.039084	99
Es	1.522961	-1.484262	0.024626	99
Es	2.251184	-0.292255	0.037641	99
Es	1.718717	-1.814025	0.029032	99
Es	-1.929675	-0.341115	0.017859	99
Es	-2.369251	0.253660	0.010322	99
Es	1.924328	0.191091	-0.120866	99
Es	0.026637	1.360399	-0.563502	99
Es	1.968577	0.137818	0.170673	99
Es	-0.245756	0.419222	-0.016380	99
Es	2.647362	-0.312490	0.051557	99
Es	2.041249	1.461109	0.011009	99
Es	-0.138838	-2.085270	0.011515	99
Es	-0.594163	-0.225510	-0.003005	99
Es	-0.053768	1.514505	0.436661	99
Es	0.887860	0.939788	-0.013389	99
Es	1.629300	0.843433	0.011397	99
Es	0.232666	-1.444738	0.011124	99
Es	-1.232349	-0.301074	0.303867	99
Es	-2.259009	-0.988712	0.035929	99
Es	-1.254576	-0.298504	-0.288692	99
Es	1.829217	-0.847292	0.035500	99
Es	0.953298	-1.411791	-0.255365	99
38
Properties=species:S:1:pos:R:3:Z:I:1 energy=-301.742297211529 field_type=dipole dipole="0.000000 0.000000 0.000000" charge=0
C	-1.929580	-0.341116	0.017860	6
C	-0.594320	-0.225516	-0.003000	6
C	0.145040	1.057994	-0.039080	6
C	1.629360	0.843394	0.011410	6
N	2.251820	-0.292326	0.037660	7
N	1.523360	-1.484826	0.024630	7
C	0.232720	-1.444776	0.011120	6
H	-2.566820	0.538524	0.008640	1
H	-2.428190	-1.305526	0.045130	1
H	-0.125500	1.690984	0.813030	1
H	-0.076320	1.611894	-0.957810	1
H	2.248140	1.756274	0.020180	1
H	-0.309710	-2.404976	0.010230	1
Es	-1.255129	-0.278432	0.199487	99
Es	2.041294	1.461523	0.013763	99
Es	0.951167	-1.412092	-0.257789	99
Es	1.829730	-0.847909	0.032698	99
Es	-0.036155	1.478553	0.499783	99
Es	2.647581	-0.312142	0.049872	99
Es	2.251188	-0.292238	0.037642	99
Es	0.232666	-1.444738	0.011120	99
Es	-0.172450	-0.825998	0.005317	99
Es	-1.231819	-0.321511	-0.184470	99
Es	1.917008	0.196915	-0.016190	99
Es	1.629299	0.843433	0.011401	99
Es	0.009587	1.396472	-0.623375	99
Es	-0.594162	-0.225511	-0.003004	99
Es	1.719028	-1.814470	0.028283	99
Es	-0.138640	-2.085224	0.010934	99
Es	1.974886	0.131445	0.067699	99
Es	0.145072	1.057944	-0.039077	99
Es	-1.929679	-0.341119	0.017860	99
Es	0.945050	-1.409771	0.293086	99
Es	0.887855	0.939549	-0.013622	99
Es	-0.246761	0.419266	-0.018525	99
Es	1.522955	-1.484278	0.024625	99
Es	-2.258674	-0.988325	0.035805	99
Es	-2.369577	0.253703	0.010459	99
