41
Properties=species:S:1:pos:R:3:Z:I:1 energy=-302.9348963288324 field_type=dipole dipole="0.000000 0.000000 0.000000" charge=0
C	-2.224246	-0.419646	-0.142451	6
C	-0.906555	-0.280206	0.046709	6
C	-0.193745	1.021304	0.263909	6
C	1.262525	0.915604	-0.187181	6
N	1.853314	-0.296896	0.381559	7
N	1.261584	-1.497396	0.139309	7
C	-0.029866	-1.484556	0.008049	6
H	-2.883525	0.444204	-0.128481	1
H	-2.686646	-1.388256	-0.305481	1
H	-0.686956	1.834164	-0.282101	1
H	-0.230335	1.269664	1.332279	1
H	1.820525	1.793434	0.155249	1
H	1.329995	0.884434	-1.280791	1
H	2.851435	-0.348036	0.170999	1
H	-0.537506	-2.447816	-0.171571	1
Es	1.853234	-0.297113	0.380781	99
Es	-1.519728	-0.332738	-0.368983	99
Es	-0.459302	-0.873127	0.033393	99
Es	-2.224345	-0.419650	-0.142460	99
Es	-0.029867	-1.484519	0.008047	99
Es	-0.379716	-2.133917	-0.111642	99
Es	-0.555858	0.367666	0.148765	99
Es	-0.906395	-0.280215	0.046727	99
Es	1.299562	0.890719	-0.941597	99
Es	1.261227	-1.496856	0.139331	99
Es	-0.531347	1.569930	-0.109317	99
Es	-2.674894	0.164248	-0.135351	99
Es	0.530229	0.964103	0.034836	99
Es	1.793481	-0.302670	0.691955	99
Es	-2.537920	-1.074625	-0.251319	99
Es	0.622131	-1.501029	0.357025	99
Es	2.447618	-0.328970	0.229431	99
Es	-0.193734	1.021248	0.263881	99
Es	-0.219779	1.179380	0.983149	99
Es	1.588412	0.207792	0.103585	99
Es	1.647821	1.508797	0.047884	99
Es	1.537874	-0.867237	0.212353	99
Es	-1.598041	-0.397966	0.270249	99
Es	1.486368	-1.794792	0.131740	99
Es	0.682775	-1.432439	-0.213926	99
Es	1.262544	0.915471	-0.187098	99
41
Properties=species:S:1:pos:R:3:Z:I:1 energy=-302.9348963288324 field_type=dipole dipole="0.000000 0.000000 0.000000" charge=0
C	-2.224246	-0.419646	-0.142451	6
C	-0.906555	-0.280206	0.046709	6
C	-0.193745	1.021304	0.263909	6
C	1.262525	0.915604	-0.187181	6
N	1.853314	-0.296896	0.381559	7
N	1.261584	-1.497396	0.139309	7
C	-0.029866	-1.484556	0.008049	6
H	-2.883525	0.444204	-0.128481	1
H	-2.686646	-1.388256	-0.305481	1
H	-0.686956	1.834164	-0.282101	1
H	-0.230335	1.269664	1.332279	1
H	1.820525	1.793434	0.155249	1
H	1.329995	0.884434	-1.280791	1
H	2.851435	-0.348036	0.170999	1
H	-0.537506	-2.447816	-0.171571	1
Es	-2.674801	0.163582	-0.135464	99
Es	-0.557579	0.366917	0.150290	99
Es	-0.531626	1.569236	-0.105986	99
Es	-2.538056	-1.074217	-0.251879	99
Es	1.787276	-0.307211	0.659966	99
Es	-2.224346	-0.419652	-0.142454	99
Es	-0.221950	1.178297	0.977403	99
Es	-0.380072	-2.133804	-0.112387	99
Es	1.539960	-0.871272	0.217163	99
Es	-0.029872	-1.484518	0.008042	99
Es	1.853258	-0.297088	0.380788	99
Es	-0.459327	-0.872724	0.033040	99
Es	1.587520	0.209856	0.106950	99
Es	-0.906388	-0.280213	0.046731	99
Es	0.620786	-1.499169	0.358212	99
Es	-1.519888	-0.331978	-0.370640	99
Es	1.481401	-1.794063	0.131608	99
Es	1.651092	1.509405	0.045676	99
Es	-1.598436	-0.398091	0.272190	99
Es	1.261227	-1.496862	0.139328	99
Es	1.300909	0.889324	-0.935977	99
Es	2.460279	-0.325654	0.251828	99
Es	0.531046	0.964794	0.034622	99
Es	0.681129	-1.430128	-0.214397	99
Es	1.262544	0.915473	-0.187098	99
Es	-0.193735	1.021248	0.263881	99
41
Properties=species:S:1:pos:R:3:Z:I:1 energy=-302.9348963288324 field_type=dipole dipole="0.000000 0.000000 0.000000" charge=0
C	-2.224246	-0.419646	-0.142451	6
C	-0.906555	-0.280206	0.046709	6
C	-0.193745	1.021304	0.263909	6
C	1.262525	0.915604	-0.187181	6
N	1.853314	-0.296896	0.381559	7
N	1.261584	-1.497396	0.139309	7
C	-0.029866	-1.484556	0.008049	6
H	-2.883525	0.444204	-0.128481	1
H	-2.686646	-1.388256	-0.305481	1
H	-0.686956	1.834164	-0.282101	1
H	-0.230335	1.269664	1.332279	1
H	1.820525	1.793434	0.155249	1
H	1.329995	0.884434	-1.280791	1
H	2.851435	-0.348036	0.170999	1
H	-0.537506	-2.447816	-0.171571	1
Es	-0.531026	1.568691	-0.103549	99
Es	1.261224	-1.496824	0.139333	99
Es	-0.193736	1.021248	0.263882	99
Es	-0.029876	-1.484517	0.008038	99
Es	0.679906	-1.428062	-0.215164	99
Es	1.586522	0.211798	0.111152	99
Es	0.620286	-1.497712	0.359025	99
Es	1.653592	1.509288	0.044332	99
Es	1.475315	-1.792425	0.131387	99
Es	1.301971	0.888587	-0.930736	99
Es	1.787576	-0.311875	0.639072	99
Es	-2.675051	0.163148	-0.135604	99
Es	-0.459261	-0.872584	0.033012	99
Es	2.464052	-0.323346	0.265664	99
Es	-1.519967	-0.331355	-0.371785	99
Es	-1.598727	-0.398246	0.273769	99
Es	1.543786	-0.874415	0.219105	99
Es	-2.224348	-0.419651	-0.142450	99
Es	-0.223439	1.177104	0.971795	99
Es	0.531608	0.965110	0.035054	99
Es	-0.906386	-0.280215	0.046725	99
Es	1.262544	0.915468	-0.187101	99
Es	-2.537828	-1.073676	-0.252184	99
Es	-0.559313	0.366539	0.150958	99
Es	1.853224	-0.297149	0.380734	99
Es	-0.380296	-2.133442	-0.113029	99
41
Properties=species:S:1:pos:R:3:Z:I:1 energy=-302.9348963288324 field_type=dipole dipole="0.000000 0.000000 0.000000" charge=0
C	-2.224246	-0.419646	-0.142451	6
C	-0.906555	-0.280206	0.046709	6
C	-0.193745	1.021304	0.263909	6
C	1.262525	0.915604	-0.187181	6
N	1.853314	-0.296896	0.381559	7
N	1.261584	-1.497396	0.139309	7
C	-0.029866	-1.484556	0.008049	6
H	-2.883525	0.444204	-0.128481	1
H	-2.686646	-1.388256	-0.305481	1
H	-0.686956	1.834164	-0.282101	1
H	-0.230335	1.269664	1.332279	1
H	1.820525	1.793434	0.155249	1
H	1.329995	0.884434	-1.280791	1
H	2.851435	-0.348036	0.170999	1
H	-0.537506	-2.447816	-0.171571	1
Es	1.853259	-0.297053	0.380894	99
Es	1.549639	-0.878432	0.219587	99
Es	-0.561853	0.366389	0.150776	99
Es	1.788927	-0.315911	0.625470	99
Es	-0.224158	1.175781	0.966648	99
Es	-0.458667	-0.872350	0.032870	99
Es	-0.193735	1.021245	0.263880	99
Es	-0.029877	-1.484517	0.008042	99
Es	-2.675979	0.162876	-0.135623	99
Es	-2.536946	-1.072998	-0.252288	99
Es	1.585168	0.213374	0.114384	99
Es	0.679718	-1.426214	-0.215340	99
Es	1.467870	-1.788666	0.130731	99
Es	-2.224347	-0.419653	-0.142456	99
Es	0.619202	-1.496793	0.359713	99
Es	-1.519975	-0.330939	-0.372641	99
Es	1.261288	-1.496854	0.139342	99
Es	-1.598940	-0.398397	0.274834	99
Es	0.531920	0.965397	0.035309	99
Es	1.262545	0.915476	-0.187099	99
Es	1.656169	1.508839	0.043425	99
Es	2.465203	-0.321973	0.274282	99
Es	-0.380416	-2.133086	-0.113501	99
Es	-0.529854	1.568264	-0.101098	99
Es	1.302581	0.887897	-0.925435	99
Es	-0.906388	-0.280213	0.046734	99
41
Properties=species:S:1:pos:R:3:Z:I:1 energy=-302.9348963288324 field_type=dipole dipole="0.000000 0.000000 0.000000" charge=0
C	-2.224246	-0.419646	-0.142451	6
C	-0.906555	-0.280206	0.046709	6
C	-0.193745	1.021304	0.263909	6
C	1.262525	0.915604	-0.187181	6
N	1.853314	-0.296896	0.381559	7
N	1.261584	-1.497396	0.139309	7
C	-0.029866	-1.484556	0.008049	6
H	-2.883525	0.444204	-0.128481	1
H	-2.686646	-1.388256	-0.305481	1
H	-0.686956	1.834164	-0.282101	1
H	-0.230335	1.269664	1.332279	1
H	1.820525	1.793434	0.155249	1
H	1.329995	0.884434	-1.280791	1
H	2.851435	-0.348036	0.170999	1
H	-0.537506	-2.447816	-0.171571	1
Es	1.459347	-1.782452	0.130675	99
Es	1.556735	-0.885021	0.220191	99
Es	-2.677808	0.162445	-0.135803	99
Es	2.465506	-0.321193	0.279548	99
Es	-2.535162	-1.072165	-0.252083	99
Es	-2.224347	-0.419652	-0.142456	99
Es	-0.528376	1.567984	-0.098653	99
Es	1.302795	0.887287	-0.920609	99
Es	1.582824	0.216279	0.118758	99
Es	0.619327	-1.495585	0.359669	99
Es	-0.564926	0.366553	0.149955	99
Es	-0.029876	-1.484514	0.008025	99
Es	0.532163	0.965618	0.036009	99
Es	-0.457704	-0.872204	0.032971	99
Es	-0.224430	1.174304	0.961972	99
Es	1.261240	-1.496822	0.139336	99
Es	1.853264	-0.297060	0.380873	99
Es	1.658820	1.507732	0.043042	99
Es	-0.193734	1.021247	0.263881	99
Es	-0.906389	-0.280212	0.046727	99
Es	-1.519948	-0.330697	-0.373198	99
Es	-0.380490	-2.132811	-0.113710	99
Es	-1.599101	-0.398293	0.275391	99
Es	1.791339	-0.320055	0.613715	99
Es	1.262544	0.915470	-0.187097	99
Es	0.678737	-1.424694	-0.215694	99
41
Properties=species:S:1:pos:R:3:Z:I:1 energy=-302.9348963288324 field_type=dipole dipole="0.000000 0.000000 0.000000" charge=0
C	-2.224246	-0.419646	-0.142451	6
C	-0.906555	-0.280206	0.046709	6
C	-0.193745	1.021304	0.263909	6
C	1.262525	0.915604	-0.187181	6
N	1.853314	-0.296896	0.381559	7
N	1.261584	-1.497396	0.139309	7
C	-0.029866	-1.484556	0.008049	6
H	-2.883525	0.444204	-0.128481	1
H	-2.686646	-1.388256	-0.305481	1
H	-0.686956	1.834164	-0.282101	1
H	-0.230335	1.269664	1.332279	1
H	1.820525	1.793434	0.155249	1
H	1.329995	0.884434	-1.280791	1
H	2.851435	-0.348036	0.170999	1
H	-0.537506	-2.447816	-0.171571	1
Es	-0.906390	-0.280212	0.046732	99
Es	-0.224278	1.172937	0.957900	99
Es	-0.456518	-0.871948	0.032953	99
Es	0.532279	0.965845	0.036250	99
Es	1.565538	-0.895215	0.219784	99
Es	-0.029878	-1.484515	0.008036	99
Es	1.793723	-0.324341	0.601882	99
Es	1.262545	0.915477	-0.187101	99
Es	2.465496	-0.320511	0.283902	99
Es	1.661212	1.506338	0.042836	99
Es	-1.599163	-0.398250	0.275611	99
Es	-2.224348	-0.419652	-0.142455	99
Es	-0.380390	-2.132649	-0.113789	99
Es	-1.519998	-0.330551	-0.373150	99
Es	-0.193734	1.021246	0.263881	99
Es	-0.568530	0.367061	0.148725	99
Es	1.261197	-1.496828	0.139327	99
Es	-0.526712	1.567584	-0.096052	99
Es	-2.533082	-1.071210	-0.251789	99
Es	1.449976	-1.772816	0.131081	99
Es	0.619146	-1.494431	0.359248	99
Es	1.302791	0.886644	-0.916044	99
Es	0.678335	-1.423424	-0.215743	99
Es	-2.679901	0.161842	-0.136197	99
Es	1.853241	-0.296975	0.381435	99
Es	1.579795	0.220043	0.124173	99
41
Properties=species:S:1:pos:R:3:Z:I:1 energy=-302.9348963288324 field_type=dipole dipole="0.000000 0.000000 0.000000" charge=0
C	-2.224246	-0.419646	-0.142451	6
C	-0.906555	-0.280206	0.046709	6
C	-0.193745	1.021304	0.263909	6
C	1.262525	0.915604	-0.187181	6
N	1.853314	-0.296896	0.381559	7
N	1.261584	-1.497396	0.139309	7
C	-0.029866	-1.484556	0.008049	6
H	-2.883525	0.444204	-0.128481	1
H	-2.686646	-1.388256	-0.305481	1
H	-0.686956	1.834164	-0.282101	1
H	-0.230335	1.269664	1.332279	1
H	1.820525	1.793434	0.155249	1
H	1.329995	0.884434	-1.280791	1
H	2.851435	-0.348036	0.170999	1
H	-0.537506	-2.447816	-0.171571	1
Es	1.572163	-0.905426	0.219926	99
Es	-0.906389	-0.280207	0.046730	99
Es	0.619338	-1.493563	0.358751	99
Es	0.677768	-1.422402	-0.215572	99
Es	1.795917	-0.326847	0.592635	99
Es	-2.681469	0.161265	-0.136449	99
Es	-0.380053	-2.132588	-0.113806	99
Es	-0.572203	0.367862	0.147306	99
Es	-0.029878	-1.484514	0.008039	99
Es	-0.525035	1.567202	-0.093102	99
Es	-1.520077	-0.330282	-0.373056	99
Es	1.442829	-1.763285	0.131548	99
Es	-2.531538	-1.070353	-0.251493	99
Es	1.262545	0.915479	-0.187106	99
Es	-1.599133	-0.398349	0.275552	99
Es	-0.223852	1.171377	0.953822	99
Es	1.302651	0.886229	-0.912187	99
Es	-0.455600	-0.871653	0.033049	99
Es	-2.224348	-0.419653	-0.142453	99
Es	-0.193733	1.021244	0.263882	99
Es	1.853115	-0.297349	0.380732	99
Es	0.532372	0.966096	0.036707	99
Es	1.261199	-1.496807	0.139331	99
Es	1.663213	1.504720	0.042866	99
Es	2.465363	-0.320162	0.287220	99
Es	1.577188	0.223454	0.128566	99
41
Properties=species:S:1:pos:R:3:Z:I:1 energy=-302.9348963288324 field_type=dipole dipole="0.000000 0.000000 0.000000" charge=0
C	-2.224246	-0.419646	-0.142451	6
C	-0.906555	-0.280206	0.046709	6
C	-0.193745	1.021304	0.263909	6
C	1.262525	0.915604	-0.187181	6
N	1.853314	-0.296896	0.381559	7
N	1.261584	-1.497396	0.139309	7
C	-0.029866	-1.484556	0.008049	6
H	-2.883525	0.444204	-0.128481	1
H	-2.686646	-1.388256	-0.305481	1
H	-0.686956	1.834164	-0.282101	1
H	-0.230335	1.269664	1.332279	1
H	1.820525	1.793434	0.155249	1
H	1.329995	0.884434	-1.280791	1
H	2.851435	-0.348036	0.170999	1
H	-0.537506	-2.447816	-0.171571	1
Es	1.578310	-0.915927	0.220034	99
Es	1.797500	-0.329141	0.584031	99
Es	-0.029879	-1.484516	0.008038	99
Es	-0.379894	-2.132588	-0.113928	99
Es	-2.529833	-1.069408	-0.251203	99
Es	1.574822	0.226261	0.133252	99
Es	0.619811	-1.492902	0.358136	99
Es	1.261188	-1.496807	0.139328	99
Es	-0.906390	-0.280213	0.046732	99
Es	-2.683169	0.160338	-0.136766	99
Es	-0.223481	1.170642	0.950356	99
Es	1.853241	-0.297137	0.380781	99
Es	1.664427	1.503891	0.042244	99
Es	2.465211	-0.319829	0.289568	99
Es	-0.193734	1.021245	0.263882	99
Es	-2.224349	-0.419653	-0.142456	99
Es	1.262546	0.915478	-0.187109	99
Es	-1.599168	-0.398107	0.275404	99
Es	-0.454693	-0.871238	0.033115	99
Es	1.302410	0.885684	-0.908660	99
Es	1.436881	-1.753510	0.132293	99
Es	-0.575239	0.368511	0.146710	99
Es	-0.523590	1.566398	-0.091181	99
Es	0.677078	-1.421886	-0.215341	99
Es	0.532418	0.966275	0.037042	99
Es	-1.520075	-0.330372	-0.372864	99
41
Properties=species:S:1:pos:R:3:Z:I:1 energy=-302.9348963288324 field_type=dipole dipole="0.000000 0.000000 0.000000" charge=0
C	-2.224246	-0.419646	-0.142451	6
C	-0.906555	-0.280206	0.046709	6
C	-0.193745	1.021304	0.263909	6
C	1.262525	0.915604	-0.187181	6
N	1.853314	-0.296896	0.381559	7
N	1.261584	-1.497396	0.139309	7
C	-0.029866	-1.484556	0.008049	6
H	-2.883525	0.444204	-0.128481	1
H	-2.686646	-1.388256	-0.305481	1
H	-0.686956	1.834164	-0.282101	1
H	-0.230335	1.269664	1.332279	1
H	1.820525	1.793434	0.155249	1
H	1.329995	0.884434	-1.280791	1
H	2.851435	-0.348036	0.170999	1
H	-0.537506	-2.447816	-0.171571	1
Es	-0.223061	1.169472	0.947084	99
Es	1.302130	0.885586	-0.905800	99
Es	-0.193735	1.021244	0.263881	99
Es	-2.684045	0.159874	-0.137081	99
Es	-2.528956	-1.068818	-0.250960	99
Es	0.619810	-1.492475	0.357902	99
Es	-1.599208	-0.397704	0.275085	99
Es	1.262544	0.915467	-0.187101	99
Es	1.581942	-0.923621	0.220174	99
Es	0.676952	-1.421527	-0.215270	99
Es	-0.906390	-0.280210	0.046731	99
Es	1.665694	1.502532	0.042226	99
Es	-0.453656	-0.870779	0.033191	99
Es	1.798937	-0.330744	0.575866	99
Es	0.532467	0.966529	0.037496	99
Es	1.853209	-0.296948	0.381722	99
Es	-0.379858	-2.132560	-0.113883	99
Es	-0.029878	-1.484514	0.008037	99
Es	-1.520042	-0.330747	-0.372566	99
Es	-2.224348	-0.419653	-0.142455	99
Es	1.432975	-1.746200	0.132911	99
Es	-0.578377	0.369662	0.145409	99
Es	1.573035	0.228682	0.136916	99
Es	2.465083	-0.319810	0.291260	99
Es	1.261184	-1.496783	0.139330	99
Es	-0.522059	1.565532	-0.088668	99
41
Properties=species:S:1:pos:R:3:Z:I:1 energy=-302.9348963288324 field_type=dipole dipole="0.000000 0.000000 0.000000" charge=0
C	-2.224246	-0.419646	-0.142451	6
C	-0.906555	-0.280206	0.046709	6
C	-0.193745	1.021304	0.263909	6
C	1.262525	0.915604	-0.187181	6
N	1.853314	-0.296896	0.381559	7
N	1.261584	-1.497396	0.139309	7
C	-0.029866	-1.484556	0.008049	6
H	-2.883525	0.444204	-0.128481	1
H	-2.686646	-1.388256	-0.305481	1
H	-0.686956	1.834164	-0.282101	1
H	-0.230335	1.269664	1.332279	1
H	1.820525	1.793434	0.155249	1
H	1.329995	0.884434	-1.280791	1
H	2.851435	-0.348036	0.170999	1
H	-0.537506	-2.447816	-0.171571	1
Es	0.532488	0.966706	0.037646	99
Es	2.464961	-0.319654	0.292621	99
Es	1.301917	0.885344	-0.903117	99
Es	1.262546	0.915479	-0.187112	99
Es	-2.224348	-0.419652	-0.142456	99
Es	-0.193737	1.021250	0.263887	99
Es	-0.906390	-0.280209	0.046732	99
Es	-0.380119	-2.132601	-0.113916	99
Es	-0.452936	-0.870528	0.033192	99
Es	1.666366	1.501883	0.041884	99
Es	-1.599186	-0.397754	0.275081	99
Es	1.571546	0.230352	0.140884	99
Es	-1.520084	-0.330626	-0.372518	99
Es	1.261193	-1.496813	0.139329	99
Es	1.853184	-0.297262	0.380701	99
Es	1.585239	-0.930765	0.220641	99
Es	-2.685195	0.159034	-0.137349	99
Es	-0.029878	-1.484513	0.008037	99
Es	1.800209	-0.331487	0.569921	99
Es	0.619926	-1.492017	0.357582	99
Es	-0.579940	0.370399	0.144794	99
Es	-0.521307	1.565058	-0.087100	99
Es	-2.527798	-1.067980	-0.250743	99
Es	-0.222744	1.168596	0.944487	99
Es	1.429715	-1.739449	0.133532	99
Es	0.676722	-1.421302	-0.215199	99
41
Properties=species:S:1:pos:R:3:Z:I:1 energy=-302.9348963288324 field_type=dipole dipole="0.000000 0.000000 0.000000" charge=0
C	-2.224246	-0.419646	-0.142451	6
C	-0.906555	-0.280206	0.046709	6
C	-0.193745	1.021304	0.263909	6
C	1.262525	0.915604	-0.187181	6
N	1.853314	-0.296896	0.381559	7
N	1.261584	-1.497396	0.139309	7
C	-0.029866	-1.484556	0.008049	6
H	-2.883525	0.444204	-0.128481	1
H	-2.686646	-1.388256	-0.305481	1
H	-0.686956	1.834164	-0.282101	1
H	-0.230335	1.269664	1.332279	1
H	1.820525	1.793434	0.155249	1
H	1.329995	0.884434	-1.280791	1
H	2.851435	-0.348036	0.170999	1
H	-0.537506	-2.447816	-0.171571	1
Es	-0.452335	-0.870199	0.033311	99
Es	1.667291	1.500892	0.041594	99
Es	0.620602	-1.491541	0.356854	99
Es	-0.380042	-2.132601	-0.113924	99
Es	0.675986	-1.421026	-0.214937	99
Es	-0.193732	1.021244	0.263890	99
Es	-0.906392	-0.280209	0.046734	99
Es	-0.582236	0.371643	0.143771	99
Es	-2.527487	-1.067757	-0.250703	99
Es	-0.029878	-1.484514	0.008038	99
Es	2.464851	-0.319541	0.293768	99
Es	-2.224348	-0.419652	-0.142456	99
Es	1.427572	-1.734780	0.133939	99
Es	1.301633	0.885168	-0.900620	99
Es	-0.520094	1.564035	-0.084953	99
Es	-2.685493	0.158841	-0.137474	99
Es	0.532500	0.966748	0.037622	99
Es	1.262545	0.915476	-0.187099	99
Es	1.261189	-1.496805	0.139328	99
Es	-1.599121	-0.397965	0.275056	99
Es	-0.222367	1.167778	0.942243	99
Es	1.587727	-0.936392	0.222276	99
Es	1.853131	-0.297374	0.380645	99
Es	1.569851	0.231986	0.141903	99
Es	1.801165	-0.331597	0.565050	99
Es	-1.520166	-0.330370	-0.372418	99
41
Properties=species:S:1:pos:R:3:Z:I:1 energy=-302.9348963288324 field_type=dipole dipole="0.000000 0.000000 0.000000" charge=0
C	-2.224246	-0.419646	-0.142451	6
C	-0.906555	-0.280206	0.046709	6
C	-0.193745	1.021304	0.263909	6
C	1.262525	0.915604	-0.187181	6
N	1.853314	-0.296896	0.381559	7
N	1.261584	-1.497396	0.139309	7
C	-0.029866	-1.484556	0.008049	6
H	-2.883525	0.444204	-0.128481	1
H	-2.686646	-1.388256	-0.305481	1
H	-0.686956	1.834164	-0.282101	1
H	-0.230335	1.269664	1.332279	1
H	1.820525	1.793434	0.155249	1
H	1.329995	0.884434	-1.280791	1
H	2.851435	-0.348036	0.170999	1
H	-0.537506	-2.447816	-0.171571	1
Es	-1.520118	-0.330647	-0.372247	99
Es	-2.526868	-1.067294	-0.250510	99
Es	0.532515	0.966884	0.038016	99
Es	-0.452130	-0.869865	0.033301	99
Es	-0.906390	-0.280205	0.046730	99
Es	1.262544	0.915471	-0.187096	99
Es	-0.222067	1.167284	0.940051	99
Es	1.425588	-1.730247	0.134297	99
Es	1.301470	0.884804	-0.898896	99
Es	-1.599174	-0.397639	0.274856	99
Es	-2.686122	0.158341	-0.137583	99
Es	-0.583098	0.371536	0.144088	99
Es	1.667729	1.500421	0.041269	99
Es	1.569876	0.232612	0.144720	99
Es	1.853263	-0.297109	0.380814	99
Es	0.674851	-1.420864	-0.214238	99
Es	0.621669	-1.491143	0.355928	99
Es	-0.379780	-2.132603	-0.113847	99
Es	-0.029878	-1.484514	0.008040	99
Es	-0.520002	1.564045	-0.084370	99
Es	2.464739	-0.319499	0.294846	99
Es	1.801761	-0.332188	0.560538	99
Es	1.588860	-0.940903	0.221976	99
Es	1.261192	-1.496784	0.139332	99
Es	-2.224348	-0.419651	-0.142456	99
Es	-0.193734	1.021245	0.263881	99
41
Properties=species:S:1:pos:R:3:Z:I:1 energy=-302.9348963288324 field_type=dipole dipole="0.000000 0.000000 0.000000" charge=0
C	-2.224246	-0.419646	-0.142451	6
C	-0.906555	-0.280206	0.046709	6
C	-0.193745	1.021304	0.263909	6
C	1.262525	0.915604	-0.187181	6
N	1.853314	-0.296896	0.381559	7
N	1.261584	-1.497396	0.139309	7
C	-0.029866	-1.484556	0.008049	6
H	-2.883525	0.444204	-0.128481	1
H	-2.686646	-1.388256	-0.305481	1
H	-0.686956	1.834164	-0.282101	1
H	-0.230335	1.269664	1.332279	1
H	1.820525	1.793434	0.155249	1
H	1.329995	0.884434	-1.280791	1
H	2.851435	-0.348036	0.170999	1
H	-0.537506	-2.447816	-0.171571	1
Es	1.802255	-0.332298	0.557750	99
Es	-0.379875	-2.132640	-0.113894	99
Es	-2.686458	0.158108	-0.137684	99
Es	-0.584530	0.372733	0.143242	99
Es	-0.519017	1.562934	-0.082944	99
Es	-0.029879	-1.484514	0.008042	99
Es	-1.520130	-0.330719	-0.372112	99
Es	1.423709	-1.725680	0.134614	99
Es	0.622241	-1.490722	0.355290	99
Es	1.568706	0.233380	0.145622	99
Es	-1.599156	-0.397601	0.274689	99
Es	1.853234	-0.297172	0.380718	99
Es	1.261187	-1.496785	0.139330	99
Es	0.674223	-1.420806	-0.213543	99
Es	1.262545	0.915471	-0.187097	99
Es	-0.193732	1.021242	0.263884	99
Es	-2.526527	-1.067011	-0.250448	99
Es	-0.221886	1.166775	0.938362	99
Es	0.532538	0.967066	0.038193	99
Es	2.464707	-0.319428	0.295123	99
Es	-0.451759	-0.869722	0.033314	99
Es	1.591333	-0.946227	0.222585	99
Es	1.301181	0.884953	-0.896823	99
Es	-2.224348	-0.419653	-0.142456	99
Es	-0.906391	-0.280208	0.046731	99
Es	1.668178	1.500014	0.040952	99
41
Properties=species:S:1:pos:R:3:Z:I:1 energy=-302.9348963288324 field_type=dipole dipole="0.000000 0.000000 0.000000" charge=0
C	-2.224246	-0.419646	-0.142451	6
C	-0.906555	-0.280206	0.046709	6
C	-0.193745	1.021304	0.263909	6
C	1.262525	0.915604	-0.187181	6
N	1.853314	-0.296896	0.381559	7
N	1.261584	-1.497396	0.139309	7
C	-0.029866	-1.484556	0.008049	6
H	-2.883525	0.444204	-0.128481	1
H	-2.686646	-1.388256	-0.305481	1
H	-0.686956	1.834164	-0.282101	1
H	-0.230335	1.269664	1.332279	1
H	1.820525	1.793434	0.155249	1
H	1.329995	0.884434	-1.280791	1
H	2.851435	-0.348036	0.170999	1
H	-0.537506	-2.447816	-0.171571	1
Es	0.622511	-1.490607	0.354919	99
Es	0.532537	0.967102	0.038193	99
Es	-0.585581	0.373440	0.142801	99
Es	2.464621	-0.319387	0.295901	99
Es	-2.525742	-1.066306	-0.250231	99
Es	-2.687240	0.157365	-0.137916	99
Es	-0.029879	-1.484514	0.008036	99
Es	1.261189	-1.496797	0.139329	99
Es	1.592047	-0.948813	0.223578	99
Es	1.262545	0.915477	-0.187100	99
Es	1.803360	-0.331765	0.553404	99
Es	-0.221625	1.166261	0.936722	99
Es	0.673920	-1.420720	-0.213273	99
Es	-1.599217	-0.397178	0.274512	99
Es	-0.380259	-2.132637	-0.113930	99
Es	1.422815	-1.723318	0.134796	99
Es	-2.224348	-0.419652	-0.142456	99
Es	1.301074	0.884883	-0.895498	99
Es	-0.906390	-0.280209	0.046732	99
Es	1.668533	1.499422	0.040962	99
Es	-0.451111	-0.869563	0.033431	99
Es	-0.193735	1.021246	0.263881	99
Es	-1.520085	-0.331002	-0.371911	99
Es	-0.518457	1.562374	-0.081791	99
Es	1.852798	-0.297787	0.381138	99
Es	1.568070	0.234174	0.147211	99
41
Properties=species:S:1:pos:R:3:Z:I:1 energy=-302.9348963288324 field_type=dipole dipole="0.000000 0.000000 0.000000" charge=0
C	-2.224246	-0.419646	-0.142451	6
C	-0.906555	-0.280206	0.046709	6
C	-0.193745	1.021304	0.263909	6
C	1.262525	0.915604	-0.187181	6
N	1.853314	-0.296896	0.381559	7
N	1.261584	-1.497396	0.139309	7
C	-0.029866	-1.484556	0.008049	6
H	-2.883525	0.444204	-0.128481	1
H	-2.686646	-1.388256	-0.305481	1
H	-0.686956	1.834164	-0.282101	1
H	-0.230335	1.269664	1.332279	1
H	1.820525	1.793434	0.155249	1
H	1.329995	0.884434	-1.280791	1
H	2.851435	-0.348036	0.170999	1
H	-0.537506	-2.447816	-0.171571	1
Es	0.532541	0.967238	0.038572	99
Es	0.675163	-1.420387	-0.214243	99
Es	-0.029879	-1.484514	0.008037	99
Es	-0.193740	1.021254	0.263908	99
Es	-0.451014	-0.869204	0.033414	99
Es	-0.517435	1.561185	-0.080108	99
Es	1.592839	-0.950867	0.223829	99
Es	-1.599149	-0.397498	0.274550	99
Es	1.261183	-1.496771	0.139332	99
Es	-0.379830	-2.132622	-0.113941	99
Es	-2.224348	-0.419652	-0.142456	99
Es	-2.687093	0.157593	-0.137965	99
Es	1.567684	0.234547	0.147840	99
Es	1.422071	-1.721411	0.135003	99
Es	1.668817	1.499115	0.040661	99
Es	1.300885	0.884788	-0.893848	99
Es	0.621204	-1.490648	0.355919	99
Es	1.853270	-0.297055	0.380968	99
Es	2.464545	-0.319426	0.296577	99
Es	-0.221352	1.165598	0.934670	99
Es	1.803219	-0.332574	0.551423	99
Es	-2.525876	-1.066437	-0.250292	99
Es	-1.520154	-0.330808	-0.371919	99
Es	-0.906391	-0.280209	0.046732	99
Es	1.262545	0.915472	-0.187097	99
Es	-0.587354	0.374781	0.141874	99
41
Properties=species:S:1:pos:R:3:Z:I:1 energy=-302.9348963288324 field_type=dipole dipole="0.000000 0.000000 0.000000" charge=0
C	-2.224246	-0.419646	-0.142451	6
C	-0.906555	-0.280206	0.046709	6
C	-0.193745	1.021304	0.263909	6
C	1.262525	0.915604	-0.187181	6
N	1.853314	-0.296896	0.381559	7
N	1.261584	-1.497396	0.139309	7
C	-0.029866	-1.484556	0.008049	6
H	-2.883525	0.444204	-0.128481	1
H	-2.686646	-1.388256	-0.305481	1
H	-0.686956	1.834164	-0.282101	1
H	-0.230335	1.269664	1.332279	1
H	1.820525	1.793434	0.155249	1
H	1.329995	0.884434	-1.280791	1
H	2.851435	-0.348036	0.170999	1
H	-0.537506	-2.447816	-0.171571	1
Es	-1.520086	-0.331194	-0.371666	99
Es	-2.687929	0.156782	-0.138105	99
Es	1.300696	0.884629	-0.892425	99
Es	-0.587299	0.374229	0.142192	99
Es	0.674233	-1.420449	-0.213595	99
Es	1.853008	-0.297498	0.380822	99
Es	-0.029878	-1.484513	0.008037	99
Es	1.262544	0.915473	-0.187096	99
Es	-2.525054	-1.065617	-0.250061	99
Es	1.593138	-0.953283	0.223619	99
Es	0.622141	-1.490195	0.354895	99
Es	1.261192	-1.496795	0.139330	99
Es	1.803747	-0.332133	0.549787	99
Es	-1.599211	-0.397070	0.274252	99
Es	2.464510	-0.319462	0.296870	99
Es	-0.450416	-0.869109	0.033485	99
Es	-0.380262	-2.132662	-0.113935	99
Es	-0.906391	-0.280208	0.046730	99
Es	-0.221187	1.165216	0.933570	99
Es	1.669240	1.498622	0.040356	99
Es	1.567871	0.234975	0.148910	99
Es	-0.517802	1.561803	-0.079920	99
Es	1.421085	-1.718974	0.135352	99
Es	0.532540	0.967328	0.038599	99
Es	-2.224348	-0.419652	-0.142458	99
Es	-0.193731	1.021244	0.263893	99
41
Properties=species:S:1:pos:R:3:Z:I:1 energy=-302.9348963288324 field_type=dipole dipole="0.000000 0.000000 0.000000" charge=0
C	-2.224246	-0.419646	-0.142451	6
C	-0.906555	-0.280206	0.046709	6
C	-0.193745	1.021304	0.263909	6
C	1.262525	0.915604	-0.187181	6
N	1.853314	-0.296896	0.381559	7
N	1.261584	-1.497396	0.139309	7
C	-0.029866	-1.484556	0.008049	6
H	-2.883525	0.444204	-0.128481	1
H	-2.686646	-1.388256	-0.305481	1
H	-0.686956	1.834164	-0.282101	1
H	-0.230335	1.269664	1.332279	1
H	1.820525	1.793434	0.155249	1
H	1.329995	0.884434	-1.280791	1
H	2.851435	-0.348036	0.170999	1
H	-0.537506	-2.447816	-0.171571	1
Es	1.300642	0.884650	-0.891572	99
Es	-0.193732	1.021244	0.263883	99
Es	1.804613	-0.332563	0.542711	99
Es	0.674528	-1.420224	-0.213708	99
Es	1.594625	-0.956659	0.224471	99
Es	0.532561	0.967364	0.038469	99
Es	2.464439	-0.319290	0.297448	99
Es	0.621786	-1.490315	0.355260	99
Es	-2.525161	-1.065832	-0.250111	99
Es	1.420087	-1.716055	0.135400	99
Es	-2.687802	0.156892	-0.138138	99
Es	1.566690	0.235859	0.149776	99
Es	-1.599168	-0.397253	0.274361	99
Es	1.669599	1.497897	0.040727	99
Es	-0.220997	1.164825	0.932456	99
Es	-0.906390	-0.280209	0.046730	99
Es	-0.380001	-2.132658	-0.113966	99
Es	-0.450493	-0.868947	0.033470	99
Es	1.262552	0.915493	-0.187202	99
Es	1.261184	-1.496778	0.139331	99
Es	-1.520137	-0.330944	-0.371771	99
Es	-2.224348	-0.419652	-0.142459	99
Es	-0.587999	0.374793	0.141961	99
Es	-0.517454	1.561436	-0.079020	99
Es	1.852605	-0.297073	0.384894	99
Es	-0.029878	-1.484514	0.008037	99
41
Properties=species:S:1:pos:R:3:Z:I:1 energy=-302.9348963288324 field_type=dipole dipole="0.000000 0.000000 0.000000" charge=0
C	-2.224246	-0.419646	-0.142451	6
C	-0.906555	-0.280206	0.046709	6
C	-0.193745	1.021304	0.263909	6
C	1.262525	0.915604	-0.187181	6
N	1.853314	-0.296896	0.381559	7
N	1.261584	-1.497396	0.139309	7
C	-0.029866	-1.484556	0.008049	6
H	-2.883525	0.444204	-0.128481	1
H	-2.686646	-1.388256	-0.305481	1
H	-0.686956	1.834164	-0.282101	1
H	-0.230335	1.269664	1.332279	1
H	1.820525	1.793434	0.155249	1
H	1.329995	0.884434	-1.280791	1
H	2.851435	-0.348036	0.170999	1
H	-0.537506	-2.447816	-0.171571	1
Es	0.532552	0.967501	0.038729	99
Es	0.674871	-1.420118	-0.213785	99
Es	1.300429	0.884663	-0.890128	99
Es	1.804003	-0.332901	0.545854	99
Es	-1.520141	-0.331038	-0.371657	99
Es	1.261203	-1.496786	0.139334	99
Es	2.464392	-0.319387	0.297833	99
Es	-0.220739	1.164311	0.930720	99
Es	-1.599162	-0.397220	0.274250	99
Es	-0.029878	-1.484513	0.008036	99
Es	-0.588602	0.375559	0.141729	99
Es	1.853270	-0.297029	0.381068	99
Es	-0.906391	-0.280208	0.046731	99
Es	1.419250	-1.713906	0.135583	99
Es	-0.517061	1.560989	-0.077983	99
Es	1.595688	-0.958804	0.223715	99
Es	-2.525120	-1.065776	-0.250098	99
Es	1.262544	0.915464	-0.187104	99
Es	-0.193738	1.021250	0.263895	99
Es	-0.450347	-0.868928	0.033521	99
Es	-0.380145	-2.132668	-0.113983	99
Es	-2.224348	-0.419653	-0.142457	99
Es	1.566534	0.236003	0.150366	99
Es	1.669709	1.497837	0.040213	99
Es	0.621418	-1.490060	0.355240	99
Es	-2.687841	0.156908	-0.138183	99
41
Properties=species:S:1:pos:R:3:Z:I:1 energy=-302.9348963288324 field_type=dipole dipole="0.000000 0.000000 0.000000" charge=0
C	-2.224246	-0.419646	-0.142451	6
C	-0.906555	-0.280206	0.046709	6
C	-0.193745	1.021304	0.263909	6
C	1.262525	0.915604	-0.187181	6
N	1.853314	-0.296896	0.381559	7
N	1.261584	-1.497396	0.139309	7
C	-0.029866	-1.484556	0.008049	6
H	-2.883525	0.444204	-0.128481	1
H	-2.686646	-1.388256	-0.305481	1
H	-0.686956	1.834164	-0.282101	1
H	-0.230335	1.269664	1.332279	1
H	1.820525	1.793434	0.155249	1
H	1.329995	0.884434	-1.280791	1
H	2.851435	-0.348036	0.170999	1
H	-0.537506	-2.447816	-0.171571	1
Es	-0.516320	1.559798	-0.077550	99
Es	1.418896	-1.713025	0.135715	99
Es	1.804454	-0.332638	0.543138	99
Es	1.262545	0.915473	-0.187097	99
Es	0.621876	-1.489855	0.354810	99
Es	1.595776	-0.960199	0.225020	99
Es	1.300333	0.884588	-0.889185	99
Es	-1.599213	-0.396819	0.273896	99
Es	-0.029878	-1.484513	0.008036	99
Es	1.566450	0.235934	0.150857	99
Es	0.532567	0.967486	0.038639	99
Es	-2.688059	0.156710	-0.138204	99
Es	-0.380084	-2.132663	-0.113951	99
Es	0.674409	-1.420081	-0.213486	99
Es	-2.524910	-1.065530	-0.250036	99
Es	-2.224348	-0.419651	-0.142456	99
Es	-0.906391	-0.280210	0.046733	99
Es	-0.220700	1.164362	0.930179	99
Es	-0.193738	1.021251	0.263895	99
Es	-0.450025	-0.868665	0.033554	99
Es	1.261209	-1.496791	0.139335	99
Es	1.669737	1.497878	0.040004	99
Es	2.464356	-0.319256	0.298102	99
Es	-0.589730	0.376284	0.141234	99
Es	-1.520089	-0.331421	-0.371320	99
Es	1.853229	-0.296958	0.381576	99
41
Properties=species:S:1:pos:R:3:Z:I:1 energy=-302.9348963288324 field_type=dipole dipole="0.000000 0.000000 0.000000" charge=0
C	-2.224246	-0.419646	-0.142451	6
C	-0.906555	-0.280206	0.046709	6
C	-0.193745	1.021304	0.263909	6
C	1.262525	0.915604	-0.187181	6
N	1.853314	-0.296896	0.381559	7
N	1.261584	-1.497396	0.139309	7
C	-0.029866	-1.484556	0.008049	6
H	-2.883525	0.444204	-0.128481	1
H	-2.686646	-1.388256	-0.305481	1
H	-0.686956	1.834164	-0.282101	1
H	-0.230335	1.269664	1.332279	1
H	1.820525	1.793434	0.155249	1
H	1.329995	0.884434	-1.280791	1
H	2.851435	-0.348036	0.170999	1
H	-0.537506	-2.447816	-0.171571	1
Es	0.672420	-1.420581	-0.211631	99
Es	1.262545	0.915472	-0.187096	99
Es	-0.516495	1.559921	-0.078072	99
Es	1.820404	-0.322801	0.483719	99
Es	1.565852	0.236292	0.150990	99
Es	0.623919	-1.490035	0.353114	99
Es	-0.193732	1.021246	0.263886	99
Es	-0.589158	0.376165	0.141214	99
Es	-2.688518	0.156120	-0.138215	99
Es	1.837450	-0.306717	0.440256	99
Es	-0.906391	-0.280209	0.046731	99
Es	-0.220898	1.164806	0.931894	99
Es	-2.524490	-1.065116	-0.249728	99
Es	-0.449913	-0.868829	0.033544	99
Es	-2.224349	-0.419652	-0.142456	99
Es	1.417378	-1.707970	0.135964	99
Es	-0.029878	-1.484513	0.008037	99
Es	1.669746	1.497705	0.040383	99
Es	1.261191	-1.496793	0.139330	99
Es	-0.380493	-2.132645	-0.113813	99
Es	0.532553	0.967430	0.038682	99
Es	1.300535	0.884754	-0.891409	99
Es	-1.520095	-0.331186	-0.371726	99
Es	-1.599202	-0.397041	0.274278	99
Es	1.597576	-0.965104	0.225745	99
Es	2.464393	-0.319231	0.297815	99
41
Properties=species:S:1:pos:R:3:Z:I:1 energy=-302.9348963288324 field_type=dipole dipole="0.000000 0.000000 0.000000" charge=0
C	-2.224246	-0.419646	-0.142451	6
C	-0.906555	-0.280206	0.046709	6
C	-0.193745	1.021304	0.263909	6
C	1.262525	0.915604	-0.187181	6
N	1.853314	-0.296896	0.381559	7
N	1.261584	-1.497396	0.139309	7
C	-0.029866	-1.484556	0.008049	6
H	-2.883525	0.444204	-0.128481	1
H	-2.686646	-1.388256	-0.305481	1
H	-0.686956	1.834164	-0.282101	1
H	-0.230335	1.269664	1.332279	1
H	1.820525	1.793434	0.155249	1
H	1.329995	0.884434	-1.280791	1
H	2.851435	-0.348036	0.170999	1
H	-0.537506	-2.447816	-0.171571	1
Es	-0.380111	-2.132688	-0.113949	99
Es	1.300161	0.884510	-0.888000	99
Es	-0.590613	0.377050	0.140775	99
Es	1.597347	-0.963878	0.225281	99
Es	-1.520077	-0.331795	-0.370794	99
Es	1.262545	0.915477	-0.187102	99
Es	1.261187	-1.496779	0.139331	99
Es	-2.524802	-1.065476	-0.249947	99
Es	1.804698	-0.332705	0.541296	99
Es	0.532563	0.967608	0.038802	99
Es	-1.599233	-0.396411	0.273401	99
Es	-0.220486	1.163894	0.928718	99
Es	-2.688175	0.156617	-0.138215	99
Es	1.565520	0.236798	0.151641	99
Es	0.672612	-1.420322	-0.211770	99
Es	-0.906391	-0.280208	0.046732	99
Es	-2.224348	-0.419652	-0.142456	99
Es	-0.515856	1.559188	-0.076434	99
Es	0.623654	-1.489605	0.353044	99
Es	1.417730	-1.709375	0.136042	99
Es	2.464317	-0.319293	0.298429	99
Es	-0.449743	-0.868495	0.033546	99
Es	-0.029878	-1.484513	0.008038	99
Es	1.670212	1.497261	0.039696	99
Es	1.853247	-0.296969	0.381415	99
Es	-0.193729	1.021250	0.263918	99
41
Properties=species:S:1:pos:R:3:Z:I:1 energy=-302.9348963288324 field_type=dipole dipole="0.000000 0.000000 0.000000" charge=0
C	-2.224246	-0.419646	-0.142451	6
C	-0.906555	-0.280206	0.046709	6
C	-0.193745	1.021304	0.263909	6
C	1.262525	0.915604	-0.187181	6
N	1.853314	-0.296896	0.381559	7
N	1.261584	-1.497396	0.139309	7
C	-0.029866	-1.484556	0.008049	6
H	-2.883525	0.444204	-0.128481	1
H	-2.686646	-1.388256	-0.305481	1
H	-0.686956	1.834164	-0.282101	1
H	-0.230335	1.269664	1.332279	1
H	1.820525	1.793434	0.155249	1
H	1.329995	0.884434	-1.280791	1
H	2.851435	-0.348036	0.170999	1
H	-0.537506	-2.447816	-0.171571	1
Es	1.597847	-0.966016	0.225561	99
Es	1.805936	-0.331015	0.539844	99
Es	1.670093	1.497470	0.039573	99
Es	2.464367	-0.319371	0.298062	99
Es	-0.591204	0.377325	0.140512	99
Es	-0.193737	1.021248	0.263887	99
Es	1.565695	0.236587	0.151997	99
Es	-0.220431	1.163841	0.928609	99
Es	-1.599183	-0.397026	0.274108	99
Es	0.626321	-1.489023	0.349087	99
Es	-1.520118	-0.331195	-0.371577	99
Es	-0.029878	-1.484513	0.008036	99
Es	-0.515564	1.558722	-0.075999	99
Es	-2.224348	-0.419652	-0.142458	99
Es	1.852100	-0.298541	0.382490	99
Es	1.417077	-1.707341	0.136025	99
Es	1.261186	-1.496797	0.139329	99
Es	-0.906391	-0.280208	0.046732	99
Es	1.300155	0.884496	-0.888023	99
Es	-0.449316	-0.868252	0.033633	99
Es	1.262545	0.915476	-0.187102	99
Es	0.532560	0.967603	0.038820	99
Es	0.669945	-1.420772	-0.207815	99
Es	-2.688084	0.156689	-0.138147	99
Es	-0.380312	-2.132692	-0.113844	99
Es	-2.524912	-1.065554	-0.249903	99
41
Properties=species:S:1:pos:R:3:Z:I:1 energy=-302.9348963288324 field_type=dipole dipole="0.000000 0.000000 0.000000" charge=0
C	-2.224246	-0.419646	-0.142451	6
C	-0.906555	-0.280206	0.046709	6
C	-0.193745	1.021304	0.263909	6
C	1.262525	0.915604	-0.187181	6
N	1.853314	-0.296896	0.381559	7
N	1.261584	-1.497396	0.139309	7
C	-0.029866	-1.484556	0.008049	6
H	-2.883525	0.444204	-0.128481	1
H	-2.686646	-1.388256	-0.305481	1
H	-0.686956	1.834164	-0.282101	1
H	-0.230335	1.269664	1.332279	1
H	1.820525	1.793434	0.155249	1
H	1.329995	0.884434	-1.280791	1
H	2.851435	-0.348036	0.170999	1
H	-0.537506	-2.447816	-0.171571	1
Es	-0.591736	0.377951	0.140150	99
Es	-0.220341	1.163670	0.927994	99
Es	1.417303	-1.708166	0.136004	99
Es	1.300094	0.884493	-0.887718	99
Es	-0.449299	-0.868165	0.033628	99
Es	-0.906390	-0.280208	0.046730	99
Es	1.566075	0.236476	0.151861	99
Es	2.464356	-0.319202	0.298123	99
Es	0.532550	0.967632	0.038996	99
Es	-2.524021	-1.064612	-0.249677	99
Es	1.261200	-1.496820	0.139326	99
Es	-2.224348	-0.419653	-0.142457	99
Es	1.262546	0.915476	-0.187099	99
Es	-0.029878	-1.484513	0.008037	99
Es	0.627605	-1.488575	0.346602	99
Es	-1.599159	-0.397164	0.274194	99
Es	1.853270	-0.297074	0.380890	99
Es	1.804737	-0.332531	0.541728	99
Es	-0.515185	1.558131	-0.075400	99
Es	1.597183	-0.965129	0.225286	99
Es	-1.520145	-0.331044	-0.371639	99
Es	-0.193748	1.021271	0.263982	99
Es	-2.688978	0.155732	-0.138350	99
Es	1.670236	1.497327	0.039433	99
Es	0.668658	-1.421102	-0.205353	99
Es	-0.380234	-2.132713	-0.113832	99
41
Properties=species:S:1:pos:R:3:Z:I:1 energy=-302.9348963288324 field_type=dipole dipole="0.000000 0.000000 0.000000" charge=0
C	-2.224246	-0.419646	-0.142451	6
C	-0.906555	-0.280206	0.046709	6
C	-0.193745	1.021304	0.263909	6
C	1.262525	0.915604	-0.187181	6
N	1.853314	-0.296896	0.381559	7
N	1.261584	-1.497396	0.139309	7
C	-0.029866	-1.484556	0.008049	6
H	-2.883525	0.444204	-0.128481	1
H	-2.686646	-1.388256	-0.305481	1
H	-0.686956	1.834164	-0.282101	1
H	-0.230335	1.269664	1.332279	1
H	1.820525	1.793434	0.155249	1
H	1.329995	0.884434	-1.280791	1
H	2.851435	-0.348036	0.170999	1
H	-0.537506	-2.447816	-0.171571	1
Es	1.261184	-1.496774	0.139331	99
Es	1.416534	-1.705774	0.136335	99
Es	1.300046	0.884358	-0.887175	99
Es	-0.449344	-0.868261	0.033625	99
Es	-0.193734	1.021245	0.263881	99
Es	1.670491	1.496858	0.039462	99
Es	-0.220248	1.163494	0.927495	99
Es	-2.688757	0.155989	-0.138282	99
Es	-0.906391	-0.280207	0.046730	99
Es	-2.224348	-0.419652	-0.142456	99
Es	1.807988	-0.331335	0.526452	99
Es	-0.591534	0.377691	0.140457	99
Es	1.565437	0.237077	0.152348	99
Es	-0.515420	1.558536	-0.075299	99
Es	0.625901	-1.488980	0.349700	99
Es	2.464270	-0.319182	0.298760	99
Es	-1.599126	-0.397336	0.274266	99
Es	0.670352	-1.420591	-0.208674	99
Es	-0.380234	-2.132703	-0.113874	99
Es	0.532549	0.967712	0.039008	99
Es	1.262545	0.915479	-0.187108	99
Es	1.850265	-0.298302	0.394338	99
Es	-2.524238	-1.064881	-0.249754	99
Es	-1.520190	-0.330845	-0.371650	99
Es	1.598235	-0.967617	0.225488	99
Es	-0.029879	-1.484511	0.008032	99
