44
Properties=species:S:1:pos:R:3:Z:I:1 energy=-304.1133289332881 field_type=dipole dipole="0.000000 0.000000 0.000000" charge=0
C	-2.170252	0.088968	-0.675641	6
C	-0.661732	0.085978	-0.843241	6
C	0.133588	0.931708	0.157829	6
N	0.638988	-0.280012	0.738059	7
C	0.079648	-1.129022	-0.276571	6
C	1.983577	-0.368242	0.969169	6
N	2.744347	0.514568	1.519359	7
H	-2.628712	-0.667232	-1.320451	1
H	-2.585032	1.063348	-0.954841	1
H	-2.465242	-0.121742	0.357579	1
H	-0.388412	0.299068	-1.885391	1
H	-0.451473	1.513128	0.875169	1
H	0.898288	1.565778	-0.302411	1
H	0.816548	-1.562872	-0.961391	1
H	-0.540402	-1.920582	0.152419	1
H	2.424767	-1.333332	0.666259	1
H	2.171508	1.320498	1.784099	1
Es	-0.661722	0.085966	-0.843195	99
Es	0.133640	0.931565	0.157884	99
Es	-0.476825	0.231960	-1.557092	99
Es	-0.302361	0.585143	-0.365444	99
Es	0.445124	-0.690970	0.313043	99
Es	2.383087	0.999651	1.671127	99
Es	1.230245	-0.299807	0.781143	99
Es	-2.447348	0.754516	-0.865522	99
Es	0.575919	-0.343770	1.033218	99
Es	0.592387	-1.424949	-0.743107	99
Es	0.079713	-1.128923	-0.276473	99
Es	2.479295	0.283866	1.034349	99
Es	0.471942	0.273736	0.526439	99
Es	-2.170225	0.088969	-0.675648	99
Es	-0.331266	-0.581462	-0.613681	99
Es	0.660599	1.360239	-0.154377	99
Es	-2.362341	-0.055359	0.029922	99
Es	-0.270218	1.338072	0.643967	99
Es	3.097631	0.496386	1.578863	99
Es	-2.477352	-0.428509	-1.115546	99
Es	0.639391	-0.279920	0.737549	99
Es	-1.416969	0.085277	-0.751377	99
Es	-0.348402	-1.675886	0.009357	99
Es	2.382952	0.056002	1.547714	99
Es	1.983438	-0.368295	0.969142	99
Es	2.270609	-1.029768	0.755544	99
Es	2.743830	0.514548	1.519258	99
44
Properties=species:S:1:pos:R:3:Z:I:1 energy=-304.1133289332881 field_type=dipole dipole="0.000000 0.000000 0.000000" charge=0
C	-2.170252	0.088968	-0.675641	6
C	-0.661732	0.085978	-0.843241	6
C	0.133588	0.931708	0.157829	6
N	0.638988	-0.280012	0.738059	7
C	0.079648	-1.129022	-0.276571	6
C	1.983577	-0.368242	0.969169	6
N	2.744347	0.514568	1.519359	7
H	-2.628712	-0.667232	-1.320451	1
H	-2.585032	1.063348	-0.954841	1
H	-2.465242	-0.121742	0.357579	1
H	-0.388412	0.299068	-1.885391	1
H	-0.451473	1.513128	0.875169	1
H	0.898288	1.565778	-0.302411	1
H	0.816548	-1.562872	-0.961391	1
H	-0.540402	-1.920582	0.152419	1
H	2.424767	-1.333332	0.666259	1
H	2.171508	1.320498	1.784099	1
Es	2.270596	-1.029679	0.755402	99
Es	3.099292	0.495997	1.577547	99
Es	-0.477391	0.230737	-1.555609	99
Es	0.661074	1.360546	-0.153455	99
Es	2.743827	0.514565	1.519243	99
Es	-0.302282	0.586299	-0.365770	99
Es	1.983436	-0.368294	0.969139	99
Es	-2.446660	0.754051	-0.863985	99
Es	-0.349097	-1.676317	0.008848	99
Es	0.440134	-0.694994	0.316029	99
Es	0.470270	0.274436	0.528522	99
Es	0.591803	-1.424395	-0.743261	99
Es	-0.330606	-0.581789	-0.614512	99
Es	-2.170224	0.088969	-0.675648	99
Es	0.079712	-1.128923	-0.276474	99
Es	-1.417169	0.085414	-0.751401	99
Es	2.383039	0.057774	1.548635	99
Es	-0.269313	1.337412	0.644077	99
Es	-0.661721	0.085965	-0.843196	99
Es	-2.361352	-0.053738	0.028356	99
Es	0.580824	-0.339270	1.022947	99
Es	0.133640	0.931566	0.157884	99
Es	1.232224	-0.300466	0.786585	99
Es	2.476780	0.282943	1.035555	99
Es	0.639423	-0.279914	0.737512	99
Es	2.383683	0.999857	1.670569	99
Es	-2.479167	-0.430470	-1.116484	99
44
Properties=species:S:1:pos:R:3:Z:I:1 energy=-304.1133289332881 field_type=dipole dipole="0.000000 0.000000 0.000000" charge=0
C	-2.170252	0.088968	-0.675641	6
C	-0.661732	0.085978	-0.843241	6
C	0.133588	0.931708	0.157829	6
N	0.638988	-0.280012	0.738059	7
C	0.079648	-1.129022	-0.276571	6
C	1.983577	-0.368242	0.969169	6
N	2.744347	0.514568	1.519359	7
H	-2.628712	-0.667232	-1.320451	1
H	-2.585032	1.063348	-0.954841	1
H	-2.465242	-0.121742	0.357579	1
H	-0.388412	0.299068	-1.885391	1
H	-0.451473	1.513128	0.875169	1
H	0.898288	1.565778	-0.302411	1
H	0.816548	-1.562872	-0.961391	1
H	-0.540402	-1.920582	0.152419	1
H	2.424767	-1.333332	0.666259	1
H	2.171508	1.320498	1.784099	1
Es	-1.417189	0.085321	-0.751246	99
Es	0.661413	1.360679	-0.152887	99
Es	1.983433	-0.368298	0.969141	99
Es	-0.349649	-1.676604	0.008508	99
Es	-0.661722	0.085965	-0.843195	99
Es	0.583848	-0.336626	1.015733	99
Es	0.133641	0.931563	0.157884	99
Es	2.743864	0.514562	1.519250	99
Es	-2.446276	0.753772	-0.862959	99
Es	2.270571	-1.029667	0.755413	99
Es	-0.268755	1.336982	0.644306	99
Es	-2.480183	-0.431583	-1.117010	99
Es	2.476705	0.284335	1.036427	99
Es	-2.170225	0.088968	-0.675649	99
Es	0.079713	-1.128924	-0.276477	99
Es	-0.302241	0.587069	-0.365968	99
Es	-0.477859	0.229901	-1.554616	99
Es	0.469291	0.275014	0.529576	99
Es	1.233173	-0.300947	0.790574	99
Es	-2.360784	-0.052874	0.027096	99
Es	0.639446	-0.279911	0.737496	99
Es	0.437253	-0.697272	0.318126	99
Es	2.381914	0.057414	1.547986	99
Es	0.591404	-1.423995	-0.743321	99
Es	-0.329992	-0.581956	-0.615022	99
Es	3.099569	0.495222	1.576951	99
Es	2.384411	1.000168	1.670940	99
44
Properties=species:S:1:pos:R:3:Z:I:1 energy=-304.1133289332881 field_type=dipole dipole="0.000000 0.000000 0.000000" charge=0
C	-2.170252	0.088968	-0.675641	6
C	-0.661732	0.085978	-0.843241	6
C	0.133588	0.931708	0.157829	6
N	0.638988	-0.280012	0.738059	7
C	0.079648	-1.129022	-0.276571	6
C	1.983577	-0.368242	0.969169	6
N	2.744347	0.514568	1.519359	7
H	-2.628712	-0.667232	-1.320451	1
H	-2.585032	1.063348	-0.954841	1
H	-2.465242	-0.121742	0.357579	1
H	-0.388412	0.299068	-1.885391	1
H	-0.451473	1.513128	0.875169	1
H	0.898288	1.565778	-0.302411	1
H	0.816548	-1.562872	-0.961391	1
H	-0.540402	-1.920582	0.152419	1
H	2.424767	-1.333332	0.666259	1
H	2.171508	1.320498	1.784099	1
Es	0.586409	-0.334746	1.011160	99
Es	1.233799	-0.300848	0.792346	99
Es	0.661705	1.360595	-0.152528	99
Es	-2.360324	-0.052334	0.026149	99
Es	1.983433	-0.368296	0.969139	99
Es	-0.661723	0.085966	-0.843195	99
Es	-0.478189	0.229390	-1.553817	99
Es	0.468543	0.275123	0.530295	99
Es	-2.446027	0.753445	-0.862098	99
Es	-0.329316	-0.582307	-0.615099	99
Es	3.099584	0.494979	1.576281	99
Es	0.079710	-1.128921	-0.276476	99
Es	-2.480976	-0.432240	-1.117357	99
Es	2.476090	0.284416	1.036548	99
Es	0.133637	0.931565	0.157888	99
Es	2.384853	1.000447	1.671179	99
Es	2.270552	-1.029672	0.755411	99
Es	-1.417195	0.085418	-0.751208	99
Es	0.591098	-1.423517	-0.743592	99
Es	0.639426	-0.279921	0.737552	99
Es	2.743825	0.514566	1.519243	99
Es	-0.350225	-1.676921	0.008260	99
Es	0.434876	-0.698852	0.320070	99
Es	2.381959	0.057699	1.548335	99
Es	-2.170225	0.088968	-0.675649	99
Es	-0.268394	1.336849	0.644395	99
Es	-0.302131	0.587428	-0.366176	99
44
Properties=species:S:1:pos:R:3:Z:I:1 energy=-304.1133289332881 field_type=dipole dipole="0.000000 0.000000 0.000000" charge=0
C	-2.170252	0.088968	-0.675641	6
C	-0.661732	0.085978	-0.843241	6
C	0.133588	0.931708	0.157829	6
N	0.638988	-0.280012	0.738059	7
C	0.079648	-1.129022	-0.276571	6
C	1.983577	-0.368242	0.969169	6
N	2.744347	0.514568	1.519359	7
H	-2.628712	-0.667232	-1.320451	1
H	-2.585032	1.063348	-0.954841	1
H	-2.465242	-0.121742	0.357579	1
H	-0.388412	0.299068	-1.885391	1
H	-0.451473	1.513128	0.875169	1
H	0.898288	1.565778	-0.302411	1
H	0.816548	-1.562872	-0.961391	1
H	-0.540402	-1.920582	0.152419	1
H	2.424767	-1.333332	0.666259	1
H	2.171508	1.320498	1.784099	1
Es	-0.350654	-1.677173	0.008009	99
Es	2.475389	0.284315	1.036932	99
Es	1.983432	-0.368297	0.969141	99
Es	-0.268142	1.336527	0.644511	99
Es	-0.478423	0.228987	-1.553204	99
Es	3.099424	0.494932	1.575242	99
Es	2.270593	-1.029553	0.755170	99
Es	-2.170225	0.088969	-0.675649	99
Es	-1.417269	0.085419	-0.751217	99
Es	0.661966	1.360712	-0.152203	99
Es	0.639318	-0.279919	0.737563	99
Es	2.743831	0.514573	1.519245	99
Es	-2.360007	-0.051793	0.025562	99
Es	0.433677	-0.699547	0.320959	99
Es	-2.445748	0.753098	-0.861618	99
Es	0.133640	0.931566	0.157884	99
Es	-0.661721	0.085967	-0.843195	99
Es	-0.328788	-0.582451	-0.615221	99
Es	0.588923	-0.334365	1.007602	99
Es	2.385278	1.000862	1.671324	99
Es	0.590778	-1.423129	-0.743686	99
Es	1.234025	-0.300820	0.793479	99
Es	-2.481500	-0.432817	-1.117589	99
Es	0.467165	0.275689	0.531721	99
Es	0.079711	-1.128923	-0.276476	99
Es	2.382231	0.057669	1.549033	99
Es	-0.302129	0.587785	-0.366264	99
44
Properties=species:S:1:pos:R:3:Z:I:1 energy=-304.1133289332881 field_type=dipole dipole="0.000000 0.000000 0.000000" charge=0
C	-2.170252	0.088968	-0.675641	6
C	-0.661732	0.085978	-0.843241	6
C	0.133588	0.931708	0.157829	6
N	0.638988	-0.280012	0.738059	7
C	0.079648	-1.129022	-0.276571	6
C	1.983577	-0.368242	0.969169	6
N	2.744347	0.514568	1.519359	7
H	-2.628712	-0.667232	-1.320451	1
H	-2.585032	1.063348	-0.954841	1
H	-2.465242	-0.121742	0.357579	1
H	-0.388412	0.299068	-1.885391	1
H	-0.451473	1.513128	0.875169	1
H	0.898288	1.565778	-0.302411	1
H	0.816548	-1.562872	-0.961391	1
H	-0.540402	-1.920582	0.152419	1
H	2.424767	-1.333332	0.666259	1
H	2.171508	1.320498	1.784099	1
Es	0.590560	-1.422912	-0.743858	99
Es	0.662187	1.360720	-0.151987	99
Es	2.385905	1.001190	1.671545	99
Es	0.079711	-1.128923	-0.276475	99
Es	3.099219	0.494472	1.574849	99
Es	-2.445649	0.752908	-0.861224	99
Es	0.589677	-0.333691	1.004482	99
Es	-0.302094	0.587850	-0.366335	99
Es	0.133640	0.931565	0.157885	99
Es	-0.661720	0.085966	-0.843195	99
Es	-1.417206	0.085461	-0.751201	99
Es	1.234200	-0.300686	0.795214	99
Es	2.270544	-1.029613	0.755159	99
Es	0.433095	-0.700084	0.321433	99
Es	-0.328558	-0.582607	-0.615111	99
Es	1.983433	-0.368296	0.969138	99
Es	-2.481960	-0.433274	-1.117575	99
Es	2.475420	0.285014	1.037166	99
Es	-2.359658	-0.051393	0.024954	99
Es	-0.478579	0.228580	-1.552895	99
Es	-2.170224	0.088968	-0.675650	99
Es	0.466514	0.275961	0.532385	99
Es	-0.267906	1.336366	0.644570	99
Es	2.743827	0.514582	1.519256	99
Es	2.381647	0.057387	1.548943	99
Es	-0.350956	-1.677267	0.007873	99
Es	0.639705	-0.279963	0.737708	99
44
Properties=species:S:1:pos:R:3:Z:I:1 energy=-304.1133289332881 field_type=dipole dipole="0.000000 0.000000 0.000000" charge=0
C	-2.170252	0.088968	-0.675641	6
C	-0.661732	0.085978	-0.843241	6
C	0.133588	0.931708	0.157829	6
N	0.638988	-0.280012	0.738059	7
C	0.079648	-1.129022	-0.276571	6
C	1.983577	-0.368242	0.969169	6
N	2.744347	0.514568	1.519359	7
H	-2.628712	-0.667232	-1.320451	1
H	-2.585032	1.063348	-0.954841	1
H	-2.465242	-0.121742	0.357579	1
H	-0.388412	0.299068	-1.885391	1
H	-0.451473	1.513128	0.875169	1
H	0.898288	1.565778	-0.302411	1
H	0.816548	-1.562872	-0.961391	1
H	-0.540402	-1.920582	0.152419	1
H	2.424767	-1.333332	0.666259	1
H	2.171508	1.320498	1.784099	1
Es	0.590918	-0.332658	1.002087	99
Es	0.133640	0.931566	0.157885	99
Es	1.234350	-0.300734	0.795980	99
Es	-2.445469	0.752774	-0.860920	99
Es	0.662357	1.360700	-0.151772	99
Es	0.639764	-0.280018	0.737880	99
Es	1.983433	-0.368296	0.969136	99
Es	-2.482289	-0.433624	-1.117661	99
Es	0.466307	0.276090	0.532343	99
Es	2.270535	-1.029590	0.755075	99
Es	-1.417289	0.085345	-0.751088	99
Es	-0.302004	0.588048	-0.366444	99
Es	0.079710	-1.128924	-0.276478	99
Es	0.590426	-1.422740	-0.743945	99
Es	-0.351288	-1.677318	0.007686	99
Es	3.099017	0.494200	1.574483	99
Es	-0.478846	0.228404	-1.552516	99
Es	-2.170224	0.088968	-0.675649	99
Es	2.743825	0.514561	1.519248	99
Es	-2.359398	-0.051086	0.024539	99
Es	2.382000	0.057918	1.549373	99
Es	-0.328068	-0.582796	-0.615226	99
Es	2.386306	1.001427	1.671839	99
Es	-0.661721	0.085965	-0.843195	99
Es	0.431808	-0.700866	0.322813	99
Es	2.474759	0.284730	1.036900	99
Es	-0.267784	1.336233	0.644681	99
44
Properties=species:S:1:pos:R:3:Z:I:1 energy=-304.1133289332881 field_type=dipole dipole="0.000000 0.000000 0.000000" charge=0
C	-2.170252	0.088968	-0.675641	6
C	-0.661732	0.085978	-0.843241	6
C	0.133588	0.931708	0.157829	6
N	0.638988	-0.280012	0.738059	7
C	0.079648	-1.129022	-0.276571	6
C	1.983577	-0.368242	0.969169	6
N	2.744347	0.514568	1.519359	7
H	-2.628712	-0.667232	-1.320451	1
H	-2.585032	1.063348	-0.954841	1
H	-2.465242	-0.121742	0.357579	1
H	-0.388412	0.299068	-1.885391	1
H	-0.451473	1.513128	0.875169	1
H	0.898288	1.565778	-0.302411	1
H	0.816548	-1.562872	-0.961391	1
H	-0.540402	-1.920582	0.152419	1
H	2.424767	-1.333332	0.666259	1
H	2.171508	1.320498	1.784099	1
Es	1.983432	-0.368297	0.969139	99
Es	-2.445427	0.752673	-0.860653	99
Es	0.590255	-1.422394	-0.744049	99
Es	2.474096	0.284265	1.036892	99
Es	-2.170224	0.088968	-0.675649	99
Es	0.592731	-0.332639	1.000180	99
Es	-1.417364	0.085432	-0.751310	99
Es	-0.478767	0.228097	-1.552245	99
Es	2.743826	0.514571	1.519242	99
Es	-2.359159	-0.050929	0.024220	99
Es	0.639050	-0.279982	0.737926	99
Es	2.270514	-1.029553	0.754971	99
Es	0.431308	-0.701027	0.323062	99
Es	-0.661722	0.085966	-0.843195	99
Es	0.662501	1.360797	-0.151600	99
Es	2.382421	0.058294	1.550004	99
Es	-0.351597	-1.677552	0.007555	99
Es	2.386733	1.001862	1.672014	99
Es	-2.482505	-0.433860	-1.117692	99
Es	0.079711	-1.128924	-0.276476	99
Es	-0.327768	-0.582974	-0.614942	99
Es	-0.302081	0.588042	-0.366484	99
Es	3.098747	0.493980	1.573785	99
Es	1.234569	-0.300551	0.796561	99
Es	0.465500	0.276443	0.533180	99
Es	0.133641	0.931566	0.157885	99
Es	-0.267648	1.336009	0.644735	99
44
Properties=species:S:1:pos:R:3:Z:I:1 energy=-304.1133289332881 field_type=dipole dipole="0.000000 0.000000 0.000000" charge=0
C	-2.170252	0.088968	-0.675641	6
C	-0.661732	0.085978	-0.843241	6
C	0.133588	0.931708	0.157829	6
N	0.638988	-0.280012	0.738059	7
C	0.079648	-1.129022	-0.276571	6
C	1.983577	-0.368242	0.969169	6
N	2.744347	0.514568	1.519359	7
H	-2.628712	-0.667232	-1.320451	1
H	-2.585032	1.063348	-0.954841	1
H	-2.465242	-0.121742	0.357579	1
H	-0.388412	0.299068	-1.885391	1
H	-0.451473	1.513128	0.875169	1
H	0.898288	1.565778	-0.302411	1
H	0.816548	-1.562872	-0.961391	1
H	-0.540402	-1.920582	0.152419	1
H	2.424767	-1.333332	0.666259	1
H	2.171508	1.320498	1.784099	1
Es	-2.445415	0.752577	-0.860333	99
Es	0.466419	0.276258	0.532031	99
Es	0.430860	-0.701314	0.323600	99
Es	0.639244	-0.279930	0.737627	99
Es	2.474602	0.285006	1.037049	99
Es	-2.482757	-0.434120	-1.117689	99
Es	1.983436	-0.368292	0.969132	99
Es	-1.417295	0.085477	-0.751215	99
Es	-2.359051	-0.050720	0.023547	99
Es	-0.327460	-0.583221	-0.614991	99
Es	3.098262	0.493124	1.573826	99
Es	-0.267487	1.335917	0.644857	99
Es	2.743822	0.514567	1.519243	99
Es	-0.661719	0.085964	-0.843194	99
Es	0.662614	1.360752	-0.151400	99
Es	0.133640	0.931565	0.157887	99
Es	2.270523	-1.029572	0.754997	99
Es	-0.478915	0.227906	-1.551696	99
Es	2.387254	1.002391	1.672525	99
Es	-0.302025	0.588209	-0.366671	99
Es	-0.351812	-1.677531	0.007455	99
Es	0.590190	-1.422323	-0.744156	99
Es	0.079712	-1.128923	-0.276476	99
Es	-2.170224	0.088968	-0.675649	99
Es	0.591943	-0.331756	0.999871	99
Es	2.381771	0.058046	1.549300	99
Es	1.234641	-0.300746	0.797578	99
44
Properties=species:S:1:pos:R:3:Z:I:1 energy=-304.1133289332881 field_type=dipole dipole="0.000000 0.000000 0.000000" charge=0
C	-2.170252	0.088968	-0.675641	6
C	-0.661732	0.085978	-0.843241	6
C	0.133588	0.931708	0.157829	6
N	0.638988	-0.280012	0.738059	7
C	0.079648	-1.129022	-0.276571	6
C	1.983577	-0.368242	0.969169	6
N	2.744347	0.514568	1.519359	7
H	-2.628712	-0.667232	-1.320451	1
H	-2.585032	1.063348	-0.954841	1
H	-2.465242	-0.121742	0.357579	1
H	-0.388412	0.299068	-1.885391	1
H	-0.451473	1.513128	0.875169	1
H	0.898288	1.565778	-0.302411	1
H	0.816548	-1.562872	-0.961391	1
H	-0.540402	-1.920582	0.152419	1
H	2.424767	-1.333332	0.666259	1
H	2.171508	1.320498	1.784099	1
Es	1.983432	-0.368295	0.969136	99
Es	0.589976	-1.422010	-0.744281	99
Es	-2.358834	-0.050612	0.023396	99
Es	-0.267436	1.335761	0.644838	99
Es	-2.445219	0.752543	-0.860095	99
Es	0.079712	-1.128924	-0.276475	99
Es	-1.417424	0.085278	-0.751186	99
Es	0.430323	-0.701656	0.324134	99
Es	0.464524	0.276691	0.533915	99
Es	-0.478979	0.227774	-1.551662	99
Es	-0.351930	-1.677718	0.007314	99
Es	2.270485	-1.029580	0.754993	99
Es	2.381048	0.057313	1.548794	99
Es	3.097953	0.493113	1.574340	99
Es	-0.327312	-0.583138	-0.614858	99
Es	0.133641	0.931566	0.157886	99
Es	-0.301996	0.588203	-0.366700	99
Es	-2.482993	-0.434237	-1.117805	99
Es	0.594397	-0.332369	0.998541	99
Es	2.387317	1.002212	1.672657	99
Es	1.234678	-0.300123	0.796480	99
Es	2.743843	0.514572	1.519251	99
Es	-2.170224	0.088968	-0.675649	99
Es	-0.661720	0.085965	-0.843195	99
Es	0.662694	1.360810	-0.151202	99
Es	2.475479	0.286090	1.036930	99
Es	0.639337	-0.279917	0.737561	99
44
Properties=species:S:1:pos:R:3:Z:I:1 energy=-304.1133289332881 field_type=dipole dipole="0.000000 0.000000 0.000000" charge=0
C	-2.170252	0.088968	-0.675641	6
C	-0.661732	0.085978	-0.843241	6
C	0.133588	0.931708	0.157829	6
N	0.638988	-0.280012	0.738059	7
C	0.079648	-1.129022	-0.276571	6
C	1.983577	-0.368242	0.969169	6
N	2.744347	0.514568	1.519359	7
H	-2.628712	-0.667232	-1.320451	1
H	-2.585032	1.063348	-0.954841	1
H	-2.465242	-0.121742	0.357579	1
H	-0.388412	0.299068	-1.885391	1
H	-0.451473	1.513128	0.875169	1
H	0.898288	1.565778	-0.302411	1
H	0.816548	-1.562872	-0.961391	1
H	-0.540402	-1.920582	0.152419	1
H	2.424767	-1.333332	0.666259	1
H	2.171508	1.320498	1.784099	1
Es	-0.301976	0.588183	-0.366708	99
Es	0.429928	-0.701795	0.324512	99
Es	2.381647	0.057863	1.549500	99
Es	-0.267339	1.335762	0.644948	99
Es	2.474455	0.285551	1.036796	99
Es	3.097772	0.492923	1.573446	99
Es	0.589946	-1.421947	-0.744252	99
Es	-0.479186	0.227727	-1.551431	99
Es	2.387831	1.002525	1.673018	99
Es	0.639707	-0.279973	0.737675	99
Es	-1.417337	0.085443	-0.751049	99
Es	1.983432	-0.368296	0.969138	99
Es	0.465063	0.276782	0.533222	99
Es	-0.661720	0.085965	-0.843195	99
Es	-2.445263	0.752348	-0.859998	99
Es	-0.352158	-1.677739	0.007220	99
Es	0.079713	-1.128923	-0.276477	99
Es	-2.358781	-0.050446	0.023145	99
Es	0.662833	1.360712	-0.151180	99
Es	2.270497	-1.029620	0.754925	99
Es	-2.483025	-0.434455	-1.117802	99
Es	2.743826	0.514570	1.519239	99
Es	-2.170223	0.088968	-0.675649	99
Es	-0.326953	-0.583401	-0.614964	99
Es	0.593554	-0.331441	0.996648	99
Es	0.133640	0.931566	0.157885	99
Es	1.234892	-0.300572	0.798446	99
44
Properties=species:S:1:pos:R:3:Z:I:1 energy=-304.1133289332881 field_type=dipole dipole="0.000000 0.000000 0.000000" charge=0
C	-2.170252	0.088968	-0.675641	6
C	-0.661732	0.085978	-0.843241	6
C	0.133588	0.931708	0.157829	6
N	0.638988	-0.280012	0.738059	7
C	0.079648	-1.129022	-0.276571	6
C	1.983577	-0.368242	0.969169	6
N	2.744347	0.514568	1.519359	7
H	-2.628712	-0.667232	-1.320451	1
H	-2.585032	1.063348	-0.954841	1
H	-2.465242	-0.121742	0.357579	1
H	-0.388412	0.299068	-1.885391	1
H	-0.451473	1.513128	0.875169	1
H	0.898288	1.565778	-0.302411	1
H	0.816548	-1.562872	-0.961391	1
H	-0.540402	-1.920582	0.152419	1
H	2.424767	-1.333332	0.666259	1
H	2.171508	1.320498	1.784099	1
Es	2.270472	-1.029583	0.754893	99
Es	-2.483243	-0.434472	-1.117923	99
Es	-0.302073	0.588284	-0.366692	99
Es	-0.267275	1.335557	0.644917	99
Es	2.475298	0.286269	1.036875	99
Es	-0.352271	-1.677817	0.007105	99
Es	-1.417391	0.085298	-0.751272	99
Es	-2.445050	0.752228	-0.859833	99
Es	0.594643	-0.331824	0.995627	99
Es	0.079711	-1.128924	-0.276475	99
Es	-0.479141	0.227546	-1.551176	99
Es	0.464044	0.276998	0.534301	99
Es	-0.661721	0.085964	-0.843195	99
Es	-0.326802	-0.583402	-0.614884	99
Es	0.133641	0.931565	0.157886	99
Es	1.234847	-0.300196	0.798290	99
Es	-2.170224	0.088969	-0.675649	99
Es	3.097357	0.492349	1.573897	99
Es	2.743804	0.514574	1.519234	99
Es	0.589795	-1.421786	-0.744280	99
Es	1.983432	-0.368297	0.969138	99
Es	2.388290	1.002874	1.672991	99
Es	0.639748	-0.279989	0.737759	99
Es	0.662911	1.360850	-0.151043	99
Es	0.429925	-0.701874	0.324496	99
Es	-2.358708	-0.050334	0.023059	99
Es	2.380757	0.057452	1.549010	99
44
Properties=species:S:1:pos:R:3:Z:I:1 energy=-304.1133289332881 field_type=dipole dipole="0.000000 0.000000 0.000000" charge=0
C	-2.170252	0.088968	-0.675641	6
C	-0.661732	0.085978	-0.843241	6
C	0.133588	0.931708	0.157829	6
N	0.638988	-0.280012	0.738059	7
C	0.079648	-1.129022	-0.276571	6
C	1.983577	-0.368242	0.969169	6
N	2.744347	0.514568	1.519359	7
H	-2.628712	-0.667232	-1.320451	1
H	-2.585032	1.063348	-0.954841	1
H	-2.465242	-0.121742	0.357579	1
H	-0.388412	0.299068	-1.885391	1
H	-0.451473	1.513128	0.875169	1
H	0.898288	1.565778	-0.302411	1
H	0.816548	-1.562872	-0.961391	1
H	-0.540402	-1.920582	0.152419	1
H	2.424767	-1.333332	0.666259	1
H	2.171508	1.320498	1.784099	1
Es	0.594806	-0.331283	0.994688	99
Es	0.133641	0.931566	0.157885	99
Es	-0.661722	0.085965	-0.843196	99
Es	3.097088	0.492321	1.573352	99
Es	-2.170224	0.088968	-0.675649	99
Es	0.464535	0.276980	0.533824	99
Es	-0.479115	0.227473	-1.550912	99
Es	-1.417427	0.085354	-0.751372	99
Es	-2.358597	-0.050194	0.022793	99
Es	2.474713	0.286015	1.036637	99
Es	0.429508	-0.701964	0.324738	99
Es	0.079711	-1.128923	-0.276476	99
Es	1.983433	-0.368294	0.969132	99
Es	1.234912	-0.300479	0.799503	99
Es	0.639342	-0.279922	0.737566	99
Es	2.270471	-1.029573	0.754891	99
Es	0.663000	1.360800	-0.151027	99
Es	-0.352406	-1.677823	0.007095	99
Es	0.589809	-1.421746	-0.744359	99
Es	-2.445081	0.752185	-0.859761	99
Es	2.381371	0.057710	1.549355	99
Es	2.388418	1.003016	1.673438	99
Es	-0.267189	1.335544	0.644970	99
Es	2.743839	0.514574	1.519249	99
Es	-2.483385	-0.434623	-1.117780	99
Es	-0.326640	-0.583601	-0.614856	99
Es	-0.302036	0.588234	-0.366675	99
44
Properties=species:S:1:pos:R:3:Z:I:1 energy=-304.1133289332881 field_type=dipole dipole="0.000000 0.000000 0.000000" charge=0
C	-2.170252	0.088968	-0.675641	6
C	-0.661732	0.085978	-0.843241	6
C	0.133588	0.931708	0.157829	6
N	0.638988	-0.280012	0.738059	7
C	0.079648	-1.129022	-0.276571	6
C	1.983577	-0.368242	0.969169	6
N	2.744347	0.514568	1.519359	7
H	-2.628712	-0.667232	-1.320451	1
H	-2.585032	1.063348	-0.954841	1
H	-2.465242	-0.121742	0.357579	1
H	-0.388412	0.299068	-1.885391	1
H	-0.451473	1.513128	0.875169	1
H	0.898288	1.565778	-0.302411	1
H	0.816548	-1.562872	-0.961391	1
H	-0.540402	-1.920582	0.152419	1
H	2.424767	-1.333332	0.666259	1
H	2.171508	1.320498	1.784099	1
Es	3.096810	0.492127	1.573337	99
Es	0.079711	-1.128924	-0.276475	99
Es	0.133640	0.931565	0.157886	99
Es	2.388649	1.003279	1.673450	99
Es	-0.326350	-0.583667	-0.614670	99
Es	0.464428	0.277057	0.533664	99
Es	2.270420	-1.029561	0.754809	99
Es	0.429264	-0.702141	0.325119	99
Es	-1.417413	0.085280	-0.751105	99
Es	-0.352608	-1.677924	0.006912	99
Es	-0.479282	0.227295	-1.550827	99
Es	0.663137	1.360702	-0.150830	99
Es	-2.170224	0.088968	-0.675649	99
Es	-2.358493	-0.050065	0.022429	99
Es	-0.301961	0.588363	-0.366887	99
Es	1.235036	-0.300413	0.799609	99
Es	1.983432	-0.368297	0.969139	99
Es	-2.445058	0.752223	-0.859636	99
Es	-0.661722	0.085965	-0.843195	99
Es	0.594882	-0.331033	0.994422	99
Es	0.639380	-0.279914	0.737524	99
Es	-2.483421	-0.434859	-1.117786	99
Es	2.381148	0.057533	1.549325	99
Es	-0.267179	1.335546	0.644932	99
Es	0.589730	-1.421511	-0.744424	99
Es	2.474954	0.286150	1.036743	99
Es	2.743863	0.514536	1.519239	99
44
Properties=species:S:1:pos:R:3:Z:I:1 energy=-304.1133289332881 field_type=dipole dipole="0.000000 0.000000 0.000000" charge=0
C	-2.170252	0.088968	-0.675641	6
C	-0.661732	0.085978	-0.843241	6
C	0.133588	0.931708	0.157829	6
N	0.638988	-0.280012	0.738059	7
C	0.079648	-1.129022	-0.276571	6
C	1.983577	-0.368242	0.969169	6
N	2.744347	0.514568	1.519359	7
H	-2.628712	-0.667232	-1.320451	1
H	-2.585032	1.063348	-0.954841	1
H	-2.465242	-0.121742	0.357579	1
H	-0.388412	0.299068	-1.885391	1
H	-0.451473	1.513128	0.875169	1
H	0.898288	1.565778	-0.302411	1
H	0.816548	-1.562872	-0.961391	1
H	-0.540402	-1.920582	0.152419	1
H	2.424767	-1.333332	0.666259	1
H	2.171508	1.320498	1.784099	1
Es	-0.301855	0.588266	-0.366858	99
Es	0.589661	-1.421528	-0.744453	99
Es	-0.267185	1.335543	0.645173	99
Es	0.133641	0.931565	0.157886	99
Es	1.983430	-0.368297	0.969138	99
Es	0.594497	-0.330126	0.992690	99
Es	0.639100	-0.279968	0.737842	99
Es	-2.483571	-0.434867	-1.117846	99
Es	0.429079	-0.702336	0.325491	99
Es	0.079710	-1.128926	-0.276478	99
Es	2.743804	0.514550	1.519231	99
Es	2.474897	0.286086	1.036805	99
Es	2.381276	0.057524	1.549390	99
Es	-2.170224	0.088968	-0.675649	99
Es	2.270416	-1.029594	0.754786	99
Es	-2.445016	0.752075	-0.859447	99
Es	0.663101	1.360660	-0.150862	99
Es	0.465071	0.276816	0.532730	99
Es	-0.479341	0.227283	-1.550715	99
Es	-1.417414	0.085367	-0.751188	99
Es	-0.661723	0.085964	-0.843194	99
Es	2.388918	1.003644	1.673644	99
Es	-0.326265	-0.583778	-0.614724	99
Es	-2.358377	-0.050040	0.022361	99
Es	3.096489	0.491906	1.573001	99
Es	1.235327	-0.300600	0.801388	99
Es	-0.352672	-1.677880	0.006914	99
