38
Properties=species:S:1:pos:R:3:Z:I:1 energy=-301.82068033987423 field_type=dipole dipole="0.000000 0.000000 0.000000" charge=0
C	-2.063146	-0.054197	0.113219	6
C	-0.570556	-0.020807	0.042699	6
C	0.125654	1.183663	-0.003311	6
N	1.476294	1.251003	-0.081921	7
C	2.110094	0.058783	-0.118271	6
C	1.427484	-1.144587	-0.078711	6
N	0.078384	-1.211007	0.001219	7
H	-2.483816	0.942383	0.283299	1
H	-2.384626	-0.700907	0.936479	1
H	-2.471126	-0.445487	-0.824421	1
H	-0.385006	2.139703	0.022589	1
H	3.191244	0.095123	-0.181681	1
H	1.949124	-2.093667	-0.111191	1
Es	0.822451	1.081394	-0.296932	99
Es	-0.104956	-1.542629	0.011868	99
Es	0.078663	-1.210473	0.001203	99
Es	2.110060	0.058876	-0.118274	99
Es	-0.086543	-0.629256	-0.240051	99
Es	1.742324	0.711191	-0.097097	99
Es	1.657428	-0.431137	0.198076	99
Es	-1.315800	-0.026715	0.081068	99
Es	-0.229641	0.585931	0.020067	99
Es	-2.323726	-0.315046	-0.516596	99
Es	1.624635	-0.430638	-0.379525	99
Es	-2.339117	0.627304	0.226476	99
Es	-2.063090	-0.054180	0.113215	99
Es	0.851015	1.081533	0.209183	99
Es	-0.058151	-0.628696	0.264724	99
Es	1.665893	1.576072	-0.093732	99
Es	0.678624	-1.162071	-0.034360	99
Es	1.475977	1.250480	-0.081902	99
Es	1.789382	-1.784123	-0.101220	99
Es	2.844638	0.073803	-0.161222	99
Es	-2.269380	-0.486786	0.664465	99
Es	1.427379	-1.144617	-0.078703	99
Es	0.125770	1.183685	-0.003320	99
Es	-0.235350	1.826395	0.015248	99
Es	-0.570552	-0.020915	0.042696	99
38
Properties=species:S:1:pos:R:3:Z:I:1 energy=-301.82068033987423 field_type=dipole dipole="0.000000 0.000000 0.000000" charge=0
C	-2.063146	-0.054197	0.113219	6
C	-0.570556	-0.020807	0.042699	6
C	0.125654	1.183663	-0.003311	6
N	1.476294	1.251003	-0.081921	7
C	2.110094	0.058783	-0.118271	6
C	1.427484	-1.144587	-0.078711	6
N	0.078384	-1.211007	0.001219	7
H	-2.483816	0.942383	0.283299	1
H	-2.384626	-0.700907	0.936479	1
H	-2.471126	-0.445487	-0.824421	1
H	-0.385006	2.139703	0.022589	1
H	3.191244	0.095123	-0.181681	1
H	1.949124	-2.093667	-0.111191	1
Es	-2.274180	-0.491744	0.653981	99
Es	1.427378	-1.144615	-0.078703	99
Es	0.875474	1.195249	-0.043967	99
Es	-0.108449	-1.545167	0.011821	99
Es	-0.223369	0.582186	0.021262	99
Es	-0.570558	-0.020909	0.042695	99
Es	0.623317	-1.042996	-0.269113	99
Es	0.654496	-1.050821	0.204483	99
Es	1.475999	1.250458	-0.081903	99
Es	2.110063	0.058885	-0.118267	99
Es	0.078669	-1.210487	0.001202	99
Es	1.639030	0.553927	-0.324678	99
Es	0.155444	0.533595	-0.003926	99
Es	2.846687	0.071412	-0.161322	99
Es	1.697111	0.618189	0.135759	99
Es	-2.063091	-0.054190	0.113214	99
Es	-1.311613	-0.032160	0.078141	99
Es	1.792605	-1.784439	-0.101189	99
Es	-2.348235	0.630889	0.223658	99
Es	-2.315395	-0.308458	-0.500194	99
Es	0.125763	1.183687	-0.003316	99
Es	-0.190391	-0.666366	0.019466	99
Es	-0.235492	1.828374	0.015253	99
Es	1.664309	1.581068	-0.094040	99
Es	1.772361	-0.546184	-0.094964	99
38
Properties=species:S:1:pos:R:3:Z:I:1 energy=-301.82068033987423 field_type=dipole dipole="0.000000 0.000000 0.000000" charge=0
C	-2.063146	-0.054197	0.113219	6
C	-0.570556	-0.020807	0.042699	6
C	0.125654	1.183663	-0.003311	6
N	1.476294	1.251003	-0.081921	7
C	2.110094	0.058783	-0.118271	6
C	1.427484	-1.144587	-0.078711	6
N	0.078384	-1.211007	0.001219	7
H	-2.483816	0.942383	0.283299	1
H	-2.384626	-0.700907	0.936479	1
H	-2.471126	-0.445487	-0.824421	1
H	-0.385006	2.139703	0.022589	1
H	3.191244	0.095123	-0.181681	1
H	1.949124	-2.093667	-0.111191	1
Es	-2.063090	-0.054180	0.113213	99
Es	-0.570558	-0.020911	0.042703	99
Es	-0.111196	-1.542614	0.011123	99
Es	0.683433	-1.151079	-0.035220	99
Es	1.476005	1.250484	-0.081903	99
Es	-2.277425	-0.495302	0.648648	99
Es	0.274877	-0.851079	-0.006493	99
Es	0.078684	-1.210476	0.001201	99
Es	1.735268	0.702705	-0.092495	99
Es	0.873086	1.190411	-0.043145	99
Es	-0.223629	0.582129	0.017329	99
Es	-1.310934	-0.033202	0.077617	99
Es	-2.350410	0.630831	0.222740	99
Es	2.846905	0.071263	-0.160870	99
Es	0.125764	1.183687	-0.003314	99
Es	1.792687	-1.784535	-0.101409	99
Es	-2.310826	-0.303795	-0.493605	99
Es	1.658373	0.076916	-0.093693	99
Es	-0.235568	1.828284	0.015500	99
Es	0.423854	0.830734	-0.019717	99
Es	2.110064	0.058884	-0.118267	99
Es	-0.187173	-0.662131	0.017075	99
Es	1.427377	-1.144618	-0.078710	99
Es	1.662932	1.581622	-0.092630	99
Es	1.769433	-0.544643	-0.100325	99
38
Properties=species:S:1:pos:R:3:Z:I:1 energy=-301.82068033987423 field_type=dipole dipole="0.000000 0.000000 0.000000" charge=0
C	-2.063146	-0.054197	0.113219	6
C	-0.570556	-0.020807	0.042699	6
C	0.125654	1.183663	-0.003311	6
N	1.476294	1.251003	-0.081921	7
C	2.110094	0.058783	-0.118271	6
C	1.427484	-1.144587	-0.078711	6
N	0.078384	-1.211007	0.001219	7
H	-2.483816	0.942383	0.283299	1
H	-2.384626	-0.700907	0.936479	1
H	-2.471126	-0.445487	-0.824421	1
H	-0.385006	2.139703	0.022589	1
H	3.191244	0.095123	-0.181681	1
H	1.949124	-2.093667	-0.111191	1
Es	-2.063091	-0.054180	0.113214	99
Es	-0.223797	0.582112	0.012040	99
Es	-0.235685	1.828263	0.015691	99
Es	1.735981	0.702736	-0.086838	99
Es	0.078683	-1.210477	0.001202	99
Es	1.769327	-0.544600	-0.100723	99
Es	-2.297314	-0.514981	0.604839	99
Es	0.873092	1.190834	-0.037797	99
Es	1.792854	-1.784475	-0.101558	99
Es	0.418620	0.828230	-0.020254	99
Es	-0.188254	-0.662296	0.013485	99
Es	-0.110547	-1.541808	0.008491	99
Es	0.683686	-1.151533	-0.033697	99
Es	-1.310498	-0.034186	0.077484	99
Es	1.427378	-1.144618	-0.078705	99
Es	1.662760	1.580877	-0.091460	99
Es	-2.289641	-0.282908	-0.449046	99
Es	2.110063	0.058884	-0.118267	99
Es	0.125764	1.183687	-0.003315	99
Es	-2.352225	0.630752	0.221768	99
Es	1.660231	0.078568	-0.098980	99
Es	0.278111	-0.850162	-0.002689	99
Es	-0.570558	-0.020909	0.042698	99
Es	2.846996	0.071102	-0.160327	99
Es	1.475997	1.250471	-0.081903	99
38
Properties=species:S:1:pos:R:3:Z:I:1 energy=-301.82068033987423 field_type=dipole dipole="0.000000 0.000000 0.000000" charge=0
C	-2.063146	-0.054197	0.113219	6
C	-0.570556	-0.020807	0.042699	6
C	0.125654	1.183663	-0.003311	6
N	1.476294	1.251003	-0.081921	7
C	2.110094	0.058783	-0.118271	6
C	1.427484	-1.144587	-0.078711	6
N	0.078384	-1.211007	0.001219	7
H	-2.483816	0.942383	0.283299	1
H	-2.384626	-0.700907	0.936479	1
H	-2.471126	-0.445487	-0.824421	1
H	-0.385006	2.139703	0.022589	1
H	3.191244	0.095123	-0.181681	1
H	1.949124	-2.093667	-0.111191	1
Es	1.475999	1.250465	-0.081903	99
Es	-0.110704	-1.541132	0.007657	99
Es	0.873018	1.191122	-0.035310	99
Es	-1.310428	-0.034234	0.077716	99
Es	-0.223822	0.582082	0.011008	99
Es	-0.235783	1.828222	0.015446	99
Es	0.279905	-0.849048	-0.003842	99
Es	0.125763	1.183685	-0.003338	99
Es	-2.308376	-0.522632	0.564455	99
Es	-2.278193	-0.274987	-0.408697	99
Es	-0.570559	-0.020910	0.042697	99
Es	-2.352731	0.630664	0.221344	99
Es	2.110061	0.058886	-0.118290	99
Es	2.847084	0.070927	-0.160008	99
Es	-0.188246	-0.662194	0.012741	99
Es	0.078674	-1.210467	0.001201	99
Es	1.662242	1.580281	-0.091080	99
Es	1.736623	0.702940	-0.087830	99
Es	-2.063101	-0.054187	0.113198	99
Es	1.427377	-1.144619	-0.078704	99
Es	0.415408	0.827155	-0.021200	99
Es	1.661493	0.078523	-0.099862	99
Es	1.792973	-1.784450	-0.101530	99
Es	1.769304	-0.544510	-0.099114	99
Es	0.683951	-1.152199	-0.031403	99
38
Properties=species:S:1:pos:R:3:Z:I:1 energy=-301.82068033987423 field_type=dipole dipole="0.000000 0.000000 0.000000" charge=0
C	-2.063146	-0.054197	0.113219	6
C	-0.570556	-0.020807	0.042699	6
C	0.125654	1.183663	-0.003311	6
N	1.476294	1.251003	-0.081921	7
C	2.110094	0.058783	-0.118271	6
C	1.427484	-1.144587	-0.078711	6
N	0.078384	-1.211007	0.001219	7
H	-2.483816	0.942383	0.283299	1
H	-2.384626	-0.700907	0.936479	1
H	-2.471126	-0.445487	-0.824421	1
H	-0.385006	2.139703	0.022589	1
H	3.191244	0.095123	-0.181681	1
H	1.949124	-2.093667	-0.111191	1
Es	0.683967	-1.151913	-0.031667	99
Es	0.125763	1.183687	-0.003318	99
Es	-2.271687	-0.271670	-0.380324	99
Es	2.847127	0.070849	-0.159664	99
Es	-0.188815	-0.662407	0.011346	99
Es	-2.063106	-0.054192	0.113185	99
Es	1.427378	-1.144618	-0.078706	99
Es	2.110063	0.058885	-0.118263	99
Es	1.769267	-0.544514	-0.099385	99
Es	0.078684	-1.210475	0.001202	99
Es	0.417710	0.829334	-0.020150	99
Es	0.277268	-0.845829	-0.002162	99
Es	-0.570559	-0.020910	0.042698	99
Es	1.662030	1.579953	-0.090746	99
Es	-1.310393	-0.034326	0.077925	99
Es	-2.314590	-0.525753	0.536193	99
Es	-0.110186	-1.541086	0.007764	99
Es	0.872900	1.191371	-0.036122	99
Es	1.736786	0.703044	-0.089651	99
Es	-2.353089	0.630621	0.220877	99
Es	1.476002	1.250461	-0.081903	99
Es	1.793067	-1.784444	-0.101324	99
Es	-0.223774	0.582050	0.010353	99
Es	1.662034	0.073069	-0.098099	99
Es	-0.235916	1.828196	0.015292	99
38
Properties=species:S:1:pos:R:3:Z:I:1 energy=-301.82068033987423 field_type=dipole dipole="0.000000 0.000000 0.000000" charge=0
C	-2.063146	-0.054197	0.113219	6
C	-0.570556	-0.020807	0.042699	6
C	0.125654	1.183663	-0.003311	6
N	1.476294	1.251003	-0.081921	7
C	2.110094	0.058783	-0.118271	6
C	1.427484	-1.144587	-0.078711	6
N	0.078384	-1.211007	0.001219	7
H	-2.483816	0.942383	0.283299	1
H	-2.384626	-0.700907	0.936479	1
H	-2.471126	-0.445487	-0.824421	1
H	-0.385006	2.139703	0.022589	1
H	3.191244	0.095123	-0.181681	1
H	1.949124	-2.093667	-0.111191	1
Es	-2.353145	0.630595	0.220391	99
Es	0.125766	1.183686	-0.003297	99
Es	1.736866	0.703006	-0.089210	99
Es	-0.223805	0.582019	0.008966	99
Es	0.684100	-1.152162	-0.030164	99
Es	1.427378	-1.144619	-0.078708	99
Es	0.872824	1.191559	-0.036465	99
Es	1.661963	1.579704	-0.091001	99
Es	-0.570559	-0.020909	0.042698	99
Es	1.475992	1.250470	-0.081903	99
Es	-0.235957	1.828199	0.015148	99
Es	-2.267564	-0.270011	-0.359977	99
Es	-1.310409	-0.034190	0.077995	99
Es	0.078693	-1.210468	0.001203	99
Es	1.769326	-0.544524	-0.098587	99
Es	-0.189289	-0.662487	0.010896	99
Es	0.278168	-0.845193	-0.003117	99
Es	2.847141	0.070879	-0.159532	99
Es	0.416162	0.828779	-0.018435	99
Es	2.110063	0.058885	-0.118264	99
Es	-2.318684	-0.527443	0.516226	99
Es	1.662618	0.072973	-0.099293	99
Es	-0.109763	-1.540762	0.007813	99
Es	1.793139	-1.784419	-0.101235	99
Es	-2.063096	-0.054184	0.113205	99
38
Properties=species:S:1:pos:R:3:Z:I:1 energy=-301.82068033987423 field_type=dipole dipole="0.000000 0.000000 0.000000" charge=0
C	-2.063146	-0.054197	0.113219	6
C	-0.570556	-0.020807	0.042699	6
C	0.125654	1.183663	-0.003311	6
N	1.476294	1.251003	-0.081921	7
C	2.110094	0.058783	-0.118271	6
C	1.427484	-1.144587	-0.078711	6
N	0.078384	-1.211007	0.001219	7
H	-2.483816	0.942383	0.283299	1
H	-2.384626	-0.700907	0.936479	1
H	-2.471126	-0.445487	-0.824421	1
H	-0.385006	2.139703	0.022589	1
H	3.191244	0.095123	-0.181681	1
H	1.949124	-2.093667	-0.111191	1
Es	1.475989	1.250462	-0.081902	99
Es	0.872813	1.191657	-0.036265	99
Es	-0.189516	-0.662534	0.010180	99
Es	1.663009	0.073285	-0.099899	99
Es	1.793152	-1.784430	-0.101112	99
Es	1.661885	1.579601	-0.091031	99
Es	0.414882	0.828244	-0.019061	99
Es	-1.310359	-0.034289	0.077998	99
Es	-2.321419	-0.528259	0.501053	99
Es	-2.264608	-0.269052	-0.344355	99
Es	-0.109697	-1.540196	0.008203	99
Es	2.847166	0.070827	-0.159419	99
Es	1.736924	0.703023	-0.089311	99
Es	-0.570559	-0.020910	0.042696	99
Es	2.110064	0.058886	-0.118256	99
Es	-2.063093	-0.054183	0.113213	99
Es	1.427377	-1.144619	-0.078701	99
Es	0.278995	-0.844967	-0.003666	99
Es	0.125763	1.183687	-0.003313	99
Es	-2.353414	0.630555	0.219885	99
Es	0.078684	-1.210483	0.001203	99
Es	1.769380	-0.544511	-0.097941	99
Es	-0.236025	1.828176	0.015008	99
Es	-0.223773	0.582029	0.009554	99
Es	0.684313	-1.152616	-0.029409	99
38
Properties=species:S:1:pos:R:3:Z:I:1 energy=-301.82068033987423 field_type=dipole dipole="0.000000 0.000000 0.000000" charge=0
C	-2.063146	-0.054197	0.113219	6
C	-0.570556	-0.020807	0.042699	6
C	0.125654	1.183663	-0.003311	6
N	1.476294	1.251003	-0.081921	7
C	2.110094	0.058783	-0.118271	6
C	1.427484	-1.144587	-0.078711	6
N	0.078384	-1.211007	0.001219	7
H	-2.483816	0.942383	0.283299	1
H	-2.384626	-0.700907	0.936479	1
H	-2.471126	-0.445487	-0.824421	1
H	-0.385006	2.139703	0.022589	1
H	3.191244	0.095123	-0.181681	1
H	1.949124	-2.093667	-0.111191	1
Es	0.278482	-0.843793	-0.003038	99
Es	-0.236052	1.828173	0.014919	99
Es	-2.063092	-0.054182	0.113214	99
Es	1.736965	0.702969	-0.089689	99
Es	0.125764	1.183687	-0.003317	99
Es	0.078686	-1.210475	0.001201	99
Es	1.793122	-1.784446	-0.101067	99
Es	1.663290	0.071646	-0.100083	99
Es	1.661888	1.579212	-0.091222	99
Es	-0.223794	0.581995	0.008646	99
Es	0.415132	0.828717	-0.018133	99
Es	-2.262410	-0.268447	-0.331813	99
Es	1.427377	-1.144618	-0.078695	99
Es	-2.323603	-0.528836	0.488682	99
Es	2.110063	0.058885	-0.118255	99
Es	1.769474	-0.544526	-0.097193	99
Es	-2.353436	0.630558	0.219736	99
Es	-0.570559	-0.020911	0.042695	99
Es	0.684252	-1.152412	-0.028946	99
Es	-0.189409	-0.662497	0.008807	99
Es	0.872739	1.192071	-0.036368	99
Es	-0.109742	-1.540386	0.008676	99
Es	-1.310376	-0.034240	0.078030	99
Es	1.475989	1.250463	-0.081902	99
Es	2.847182	0.070778	-0.159532	99
38
Properties=species:S:1:pos:R:3:Z:I:1 energy=-301.82068033987423 field_type=dipole dipole="0.000000 0.000000 0.000000" charge=0
C	-2.063146	-0.054197	0.113219	6
C	-0.570556	-0.020807	0.042699	6
C	0.125654	1.183663	-0.003311	6
N	1.476294	1.251003	-0.081921	7
C	2.110094	0.058783	-0.118271	6
C	1.427484	-1.144587	-0.078711	6
N	0.078384	-1.211007	0.001219	7
H	-2.483816	0.942383	0.283299	1
H	-2.384626	-0.700907	0.936479	1
H	-2.471126	-0.445487	-0.824421	1
H	-0.385006	2.139703	0.022589	1
H	3.191244	0.095123	-0.181681	1
H	1.949124	-2.093667	-0.111191	1
Es	-0.223761	0.581962	0.008325	99
Es	-2.260821	-0.268104	-0.322584	99
Es	-0.109709	-1.540310	0.008002	99
Es	-0.236067	1.828182	0.014899	99
Es	0.684315	-1.152441	-0.028225	99
Es	-2.063091	-0.054179	0.113214	99
Es	1.737164	0.703099	-0.090832	99
Es	0.125763	1.183686	-0.003334	99
Es	-2.325196	-0.529191	0.479553	99
Es	-2.353439	0.630549	0.219521	99
Es	1.793271	-1.784413	-0.101003	99
Es	-0.570559	-0.020911	0.042696	99
Es	1.663710	0.073134	-0.100444	99
Es	0.413033	0.827586	-0.017175	99
Es	0.872691	1.191966	-0.036820	99
Es	1.475989	1.250461	-0.081902	99
Es	1.661662	1.579215	-0.091262	99
Es	2.847212	0.070693	-0.159399	99
Es	-0.189459	-0.662554	0.010101	99
Es	0.078682	-1.210480	0.001201	99
Es	-1.310380	-0.034170	0.078067	99
Es	1.769364	-0.544458	-0.095923	99
Es	0.280115	-0.844202	-0.004364	99
Es	2.110064	0.058884	-0.118256	99
Es	1.427378	-1.144619	-0.078703	99
38
Properties=species:S:1:pos:R:3:Z:I:1 energy=-301.82068033987423 field_type=dipole dipole="0.000000 0.000000 0.000000" charge=0
C	-2.063146	-0.054197	0.113219	6
C	-0.570556	-0.020807	0.042699	6
C	0.125654	1.183663	-0.003311	6
N	1.476294	1.251003	-0.081921	7
C	2.110094	0.058783	-0.118271	6
C	1.427484	-1.144587	-0.078711	6
N	0.078384	-1.211007	0.001219	7
H	-2.483816	0.942383	0.283299	1
H	-2.384626	-0.700907	0.936479	1
H	-2.471126	-0.445487	-0.824421	1
H	-0.385006	2.139703	0.022589	1
H	3.191244	0.095123	-0.181681	1
H	1.949124	-2.093667	-0.111191	1
Es	0.870546	1.190029	-0.074898	99
Es	-2.354851	0.630122	0.213127	99
Es	-1.310436	-0.035857	0.073766	99
Es	1.661811	1.580392	-0.100968	99
Es	-0.109052	-1.540947	0.025702	99
Es	1.427378	-1.144618	-0.078699	99
Es	-0.570558	-0.020910	0.042704	99
Es	0.125764	1.183687	-0.003316	99
Es	-0.235947	1.828132	0.012164	99
Es	-2.063113	-0.054199	0.113174	99
Es	0.684332	-1.151371	-0.023489	99
Es	1.793162	-1.784391	-0.098498	99
Es	0.422154	0.832968	-0.002683	99
Es	0.274687	-0.847839	-0.029585	99
Es	1.475990	1.250464	-0.081903	99
Es	2.846749	0.070982	-0.163312	99
Es	-0.221981	0.582125	0.034785	99
Es	1.733459	0.701530	-0.123692	99
Es	1.770368	-0.543502	-0.070985	99
Es	2.110062	0.058885	-0.118283	99
Es	1.660732	0.071766	-0.090116	99
Es	0.078692	-1.210467	0.001207	99
Es	-2.223140	-0.374494	0.460536	99
Es	-0.187804	-0.662161	0.019147	99
Es	-2.361072	-0.420944	-0.290533	99
38
Properties=species:S:1:pos:R:3:Z:I:1 energy=-301.82068033987423 field_type=dipole dipole="0.000000 0.000000 0.000000" charge=0
C	-2.063146	-0.054197	0.113219	6
C	-0.570556	-0.020807	0.042699	6
C	0.125654	1.183663	-0.003311	6
N	1.476294	1.251003	-0.081921	7
C	2.110094	0.058783	-0.118271	6
C	1.427484	-1.144587	-0.078711	6
N	0.078384	-1.211007	0.001219	7
H	-2.483816	0.942383	0.283299	1
H	-2.384626	-0.700907	0.936479	1
H	-2.471126	-0.445487	-0.824421	1
H	-0.385006	2.139703	0.022589	1
H	3.191244	0.095123	-0.181681	1
H	1.949124	-2.093667	-0.111191	1
Es	0.078678	-1.210470	0.001203	99
Es	1.793274	-1.784413	-0.100874	99
Es	0.684490	-1.152812	-0.027919	99
Es	-0.236151	1.828156	0.014636	99
Es	1.427378	-1.144618	-0.078704	99
Es	1.661290	1.578960	-0.091429	99
Es	1.769427	-0.544460	-0.095693	99
Es	1.737494	0.703198	-0.091797	99
Es	-0.570559	-0.020911	0.042696	99
Es	0.872625	1.192082	-0.037285	99
Es	0.416776	0.830291	-0.016213	99
Es	0.276551	-0.841404	-0.004177	99
Es	-2.258345	-0.267669	-0.307397	99
Es	1.663600	0.067624	-0.099729	99
Es	-0.109359	-1.539789	0.008637	99
Es	-2.327572	-0.529555	0.464758	99
Es	-1.310365	-0.034268	0.078063	99
Es	1.475995	1.250478	-0.081903	99
Es	-2.353545	0.630552	0.219158	99
Es	-0.189945	-0.662691	0.009421	99
Es	-0.223765	0.582022	0.007628	99
Es	0.125763	1.183687	-0.003330	99
Es	2.110063	0.058885	-0.118266	99
Es	2.847226	0.070686	-0.159345	99
Es	-2.063092	-0.054179	0.113214	99
38
Properties=species:S:1:pos:R:3:Z:I:1 energy=-301.82068033987423 field_type=dipole dipole="0.000000 0.000000 0.000000" charge=0
C	-2.063146	-0.054197	0.113219	6
C	-0.570556	-0.020807	0.042699	6
C	0.125654	1.183663	-0.003311	6
N	1.476294	1.251003	-0.081921	7
C	2.110094	0.058783	-0.118271	6
C	1.427484	-1.144587	-0.078711	6
N	0.078384	-1.211007	0.001219	7
H	-2.483816	0.942383	0.283299	1
H	-2.384626	-0.700907	0.936479	1
H	-2.471126	-0.445487	-0.824421	1
H	-0.385006	2.139703	0.022589	1
H	3.191244	0.095123	-0.181681	1
H	1.949124	-2.093667	-0.111191	1
Es	0.684457	-1.152729	-0.028079	99
Es	-0.109475	-1.539894	0.009110	99
Es	1.661525	1.578975	-0.091531	99
Es	-1.310361	-0.034227	0.078063	99
Es	0.413091	0.828138	-0.016125	99
Es	1.475991	1.250465	-0.081903	99
Es	2.110063	0.058884	-0.118260	99
Es	1.737308	0.703216	-0.091561	99
Es	1.769511	-0.544497	-0.094544	99
Es	1.664065	0.071113	-0.100894	99
Es	-0.236080	1.828183	0.014638	99
Es	0.279716	-0.842733	-0.004133	99
Es	-2.328419	-0.529637	0.459059	99
Es	-2.353624	0.630513	0.219092	99
Es	1.793269	-1.784430	-0.100805	99
Es	-0.570559	-0.020911	0.042697	99
Es	-2.257442	-0.267548	-0.301669	99
Es	2.847218	0.070702	-0.159418	99
Es	-0.223837	0.582003	0.008076	99
Es	0.125761	1.183686	-0.003321	99
Es	-2.063095	-0.054185	0.113205	99
Es	1.427380	-1.144618	-0.078698	99
Es	-0.189786	-0.662628	0.008657	99
Es	0.872569	1.192014	-0.037504	99
Es	0.078686	-1.210473	0.001202	99
38
Properties=species:S:1:pos:R:3:Z:I:1 energy=-301.82068033987423 field_type=dipole dipole="0.000000 0.000000 0.000000" charge=0
C	-2.063146	-0.054197	0.113219	6
C	-0.570556	-0.020807	0.042699	6
C	0.125654	1.183663	-0.003311	6
N	1.476294	1.251003	-0.081921	7
C	2.110094	0.058783	-0.118271	6
C	1.427484	-1.144587	-0.078711	6
N	0.078384	-1.211007	0.001219	7
H	-2.483816	0.942383	0.283299	1
H	-2.384626	-0.700907	0.936479	1
H	-2.471126	-0.445487	-0.824421	1
H	-0.385006	2.139703	0.022589	1
H	3.191244	0.095123	-0.181681	1
H	1.949124	-2.093667	-0.111191	1
Es	1.793312	-1.784423	-0.100788	99
Es	0.684497	-1.152811	-0.027482	99
Es	1.664421	0.074221	-0.100505	99
Es	0.410461	0.826340	-0.015441	99
Es	2.110059	0.058884	-0.118290	99
Es	-2.353597	0.630516	0.219002	99
Es	0.282025	-0.844070	-0.004388	99
Es	-0.189914	-0.662638	0.008463	99
Es	-0.109352	-1.539788	0.008924	99
Es	1.769455	-0.544473	-0.094528	99
Es	1.737561	0.703244	-0.092070	99
Es	0.125763	1.183687	-0.003323	99
Es	1.475987	1.250463	-0.081902	99
Es	0.872501	1.192323	-0.038013	99
Es	0.078686	-1.210471	0.001199	99
Es	-0.236156	1.828166	0.014542	99
Es	-0.223777	0.581966	0.008182	99
Es	-1.310371	-0.034198	0.078170	99
Es	2.847226	0.070662	-0.159366	99
Es	-0.570559	-0.020910	0.042696	99
Es	-2.329213	-0.529707	0.454186	99
Es	1.661310	1.578679	-0.091604	99
Es	-2.063090	-0.054180	0.113214	99
Es	-2.256683	-0.267482	-0.296823	99
Es	1.427378	-1.144618	-0.078704	99
38
Properties=species:S:1:pos:R:3:Z:I:1 energy=-301.82068033987423 field_type=dipole dipole="0.000000 0.000000 0.000000" charge=0
C	-2.063146	-0.054197	0.113219	6
C	-0.570556	-0.020807	0.042699	6
C	0.125654	1.183663	-0.003311	6
N	1.476294	1.251003	-0.081921	7
C	2.110094	0.058783	-0.118271	6
C	1.427484	-1.144587	-0.078711	6
N	0.078384	-1.211007	0.001219	7
H	-2.483816	0.942383	0.283299	1
H	-2.384626	-0.700907	0.936479	1
H	-2.471126	-0.445487	-0.824421	1
H	-0.385006	2.139703	0.022589	1
H	3.191244	0.095123	-0.181681	1
H	1.949124	-2.093667	-0.111191	1
Es	0.413556	0.828551	-0.015777	99
Es	1.661441	1.578679	-0.091543	99
Es	-0.189914	-0.662641	0.009270	99
Es	0.078687	-1.210473	0.001201	99
Es	0.125764	1.183687	-0.003307	99
Es	0.872494	1.192412	-0.038408	99
Es	1.427378	-1.144618	-0.078705	99
Es	1.769509	-0.544505	-0.093975	99
Es	1.737439	0.703171	-0.091503	99
Es	-0.223774	0.581942	0.008492	99
Es	2.110061	0.058885	-0.118286	99
Es	2.847211	0.070687	-0.159373	99
Es	1.664165	0.069936	-0.101446	99
Es	1.793327	-1.784407	-0.100750	99
Es	-0.109337	-1.539710	0.009104	99
Es	-2.063100	-0.054188	0.113200	99
Es	-2.255989	-0.267402	-0.292464	99
Es	-0.236156	1.828166	0.014499	99
Es	-1.310364	-0.034162	0.078042	99
Es	0.279084	-0.842004	-0.005756	99
Es	-2.353776	0.630464	0.218693	99
Es	-2.329732	-0.529757	0.450204	99
Es	-0.570558	-0.020910	0.042697	99
Es	1.475987	1.250458	-0.081902	99
Es	0.684529	-1.152877	-0.026858	99
38
Properties=species:S:1:pos:R:3:Z:I:1 energy=-301.82068033987423 field_type=dipole dipole="0.000000 0.000000 0.000000" charge=0
C	-2.063146	-0.054197	0.113219	6
C	-0.570556	-0.020807	0.042699	6
C	0.125654	1.183663	-0.003311	6
N	1.476294	1.251003	-0.081921	7
C	2.110094	0.058783	-0.118271	6
C	1.427484	-1.144587	-0.078711	6
N	0.078384	-1.211007	0.001219	7
H	-2.483816	0.942383	0.283299	1
H	-2.384626	-0.700907	0.936479	1
H	-2.471126	-0.445487	-0.824421	1
H	-0.385006	2.139703	0.022589	1
H	3.191244	0.095123	-0.181681	1
H	1.949124	-2.093667	-0.111191	1
Es	0.279189	-0.841760	-0.004818	99
Es	-0.236147	1.828169	0.014486	99
Es	-0.223806	0.581978	0.007910	99
Es	0.078688	-1.210479	0.001201	99
Es	1.427378	-1.144619	-0.078700	99
Es	-2.255408	-0.267372	-0.288508	99
Es	-1.310352	-0.034266	0.078193	99
Es	-2.353684	0.630502	0.218646	99
Es	1.737630	0.703275	-0.092529	99
Es	-0.189965	-0.662657	0.008312	99
Es	-0.109306	-1.539741	0.009155	99
Es	1.793319	-1.784412	-0.100683	99
Es	1.661180	1.578722	-0.091607	99
Es	2.847227	0.070659	-0.159357	99
Es	1.475989	1.250473	-0.081902	99
Es	-2.063091	-0.054180	0.113215	99
Es	-0.570559	-0.020910	0.042696	99
Es	0.684535	-1.152823	-0.026890	99
Es	1.769491	-0.544471	-0.094201	99
Es	0.125763	1.183687	-0.003322	99
Es	2.110064	0.058885	-0.118260	99
Es	0.872491	1.192240	-0.038664	99
Es	1.664344	0.069695	-0.100398	99
Es	0.413381	0.828530	-0.014857	99
Es	-2.330421	-0.529742	0.446235	99
38
Properties=species:S:1:pos:R:3:Z:I:1 energy=-301.82068033987423 field_type=dipole dipole="0.000000 0.000000 0.000000" charge=0
C	-2.063146	-0.054197	0.113219	6
C	-0.570556	-0.020807	0.042699	6
C	0.125654	1.183663	-0.003311	6
N	1.476294	1.251003	-0.081921	7
C	2.110094	0.058783	-0.118271	6
C	1.427484	-1.144587	-0.078711	6
N	0.078384	-1.211007	0.001219	7
H	-2.483816	0.942383	0.283299	1
H	-2.384626	-0.700907	0.936479	1
H	-2.471126	-0.445487	-0.824421	1
H	-0.385006	2.139703	0.022589	1
H	3.191244	0.095123	-0.181681	1
H	1.949124	-2.093667	-0.111191	1
Es	-2.353649	0.630471	0.218688	99
Es	0.410585	0.826722	-0.013849	99
Es	-0.109212	-1.539595	0.009247	99
Es	1.769568	-0.544425	-0.093499	99
Es	1.737552	0.703225	-0.092977	99
Es	-0.190039	-0.662661	0.009210	99
Es	0.684545	-1.152971	-0.027190	99
Es	1.661226	1.578510	-0.091640	99
Es	-0.223787	0.581971	0.007952	99
Es	1.793310	-1.784417	-0.100652	99
Es	0.281733	-0.843231	-0.005704	99
Es	1.427378	-1.144618	-0.078702	99
Es	1.664603	0.072964	-0.100615	99
Es	2.110063	0.058885	-0.118269	99
Es	0.125763	1.183687	-0.003320	99
Es	-2.063103	-0.054196	0.113183	99
Es	0.872427	1.192517	-0.039390	99
Es	2.847249	0.070641	-0.159306	99
Es	0.078686	-1.210476	0.001205	99
Es	-0.570559	-0.020910	0.042693	99
Es	-0.236195	1.828141	0.014352	99
Es	-2.331004	-0.529710	0.442643	99
Es	-2.254886	-0.267373	-0.285401	99
Es	-1.310317	-0.034240	0.078595	99
Es	1.475994	1.250473	-0.081902	99
38
Properties=species:S:1:pos:R:3:Z:I:1 energy=-301.82068033987423 field_type=dipole dipole="0.000000 0.000000 0.000000" charge=0
C	-2.063146	-0.054197	0.113219	6
C	-0.570556	-0.020807	0.042699	6
C	0.125654	1.183663	-0.003311	6
N	1.476294	1.251003	-0.081921	7
C	2.110094	0.058783	-0.118271	6
C	1.427484	-1.144587	-0.078711	6
N	0.078384	-1.211007	0.001219	7
H	-2.483816	0.942383	0.283299	1
H	-2.384626	-0.700907	0.936479	1
H	-2.471126	-0.445487	-0.824421	1
H	-0.385006	2.139703	0.022589	1
H	3.191244	0.095123	-0.181681	1
H	1.949124	-2.093667	-0.111191	1
Es	2.110064	0.058885	-0.118262	99
Es	-2.353755	0.630469	0.218473	99
Es	0.078684	-1.210462	0.001201	99
Es	-2.254469	-0.267327	-0.282262	99
Es	0.872403	1.192584	-0.038261	99
Es	-0.190138	-0.662702	0.009291	99
Es	2.847272	0.070558	-0.159291	99
Es	-0.236192	1.828143	0.014362	99
Es	-2.063096	-0.054184	0.113219	99
Es	-0.109102	-1.539594	0.009290	99
Es	-2.331292	-0.529792	0.440088	99
Es	0.125763	1.183687	-0.003321	99
Es	1.475989	1.250465	-0.081902	99
Es	1.664459	0.070524	-0.101071	99
Es	1.661194	1.578413	-0.091745	99
Es	0.412470	0.828015	-0.015659	99
Es	-0.570558	-0.020910	0.042693	99
Es	1.793386	-1.784407	-0.100602	99
Es	1.737623	0.703278	-0.092581	99
Es	-1.310335	-0.034227	0.078181	99
Es	0.684574	-1.152910	-0.026263	99
Es	1.427378	-1.144618	-0.078702	99
Es	-0.223778	0.581951	0.008456	99
Es	1.769511	-0.544387	-0.093523	99
Es	0.279876	-0.842068	-0.006457	99
38
Properties=species:S:1:pos:R:3:Z:I:1 energy=-301.82068033987423 field_type=dipole dipole="0.000000 0.000000 0.000000" charge=0
C	-2.063146	-0.054197	0.113219	6
C	-0.570556	-0.020807	0.042699	6
C	0.125654	1.183663	-0.003311	6
N	1.476294	1.251003	-0.081921	7
C	2.110094	0.058783	-0.118271	6
C	1.427484	-1.144587	-0.078711	6
N	0.078384	-1.211007	0.001219	7
H	-2.483816	0.942383	0.283299	1
H	-2.384626	-0.700907	0.936479	1
H	-2.471126	-0.445487	-0.824421	1
H	-0.385006	2.139703	0.022589	1
H	3.191244	0.095123	-0.181681	1
H	1.949124	-2.093667	-0.111191	1
Es	2.110063	0.058885	-0.118246	99
Es	1.475994	1.250468	-0.081902	99
Es	-2.331637	-0.529767	0.437503	99
Es	-0.236242	1.828128	0.014427	99
Es	-0.570559	-0.020910	0.042696	99
Es	0.078699	-1.210459	0.001201	99
Es	0.411764	0.827598	-0.013639	99
Es	-1.310340	-0.034292	0.078116	99
Es	1.793391	-1.784390	-0.100598	99
Es	-0.223785	0.582028	0.007822	99
Es	0.125768	1.183674	-0.003388	99
Es	0.872411	1.192533	-0.039530	99
Es	0.684551	-1.152953	-0.027203	99
Es	2.847244	0.070620	-0.159337	99
Es	-0.190149	-0.662710	0.006912	99
Es	1.664684	0.071042	-0.099735	99
Es	1.769439	-0.544463	-0.094150	99
Es	1.737615	0.703265	-0.093167	99
Es	1.661207	1.578460	-0.091799	99
Es	0.280560	-0.842164	-0.003823	99
Es	-2.254083	-0.267289	-0.279575	99
Es	1.427378	-1.144618	-0.078702	99
Es	-2.353782	0.630482	0.218477	99
Es	-0.109153	-1.539579	0.009788	99
Es	-2.063108	-0.054204	0.113204	99
38
Properties=species:S:1:pos:R:3:Z:I:1 energy=-301.82068033987423 field_type=dipole dipole="0.000000 0.000000 0.000000" charge=0
C	-2.063146	-0.054197	0.113219	6
C	-0.570556	-0.020807	0.042699	6
C	0.125654	1.183663	-0.003311	6
N	1.476294	1.251003	-0.081921	7
C	2.110094	0.058783	-0.118271	6
C	1.427484	-1.144587	-0.078711	6
N	0.078384	-1.211007	0.001219	7
H	-2.483816	0.942383	0.283299	1
H	-2.384626	-0.700907	0.936479	1
H	-2.471126	-0.445487	-0.824421	1
H	-0.385006	2.139703	0.022589	1
H	3.191244	0.095123	-0.181681	1
H	1.949124	-2.093667	-0.111191	1
Es	0.684562	-1.152818	-0.025963	99
Es	2.847257	0.070634	-0.159305	99
Es	1.664907	0.073863	-0.101081	99
Es	-2.353800	0.630515	0.218255	99
Es	0.078683	-1.210479	0.001201	99
Es	0.125763	1.183687	-0.003321	99
Es	0.872415	1.192639	-0.038808	99
Es	-2.331962	-0.529806	0.435241	99
Es	-0.109245	-1.539697	0.009528	99
Es	-0.223756	0.581953	0.008143	99
Es	-0.189994	-0.662645	0.008156	99
Es	1.769530	-0.544440	-0.093031	99
Es	0.282785	-0.843404	-0.006272	99
Es	1.427378	-1.144619	-0.078701	99
Es	2.110063	0.058885	-0.118261	99
Es	-2.063137	-0.054238	0.113127	99
Es	1.737691	0.703261	-0.093030	99
Es	-0.236229	1.828123	0.014253	99
Es	0.409162	0.825956	-0.014171	99
Es	1.661139	1.578349	-0.091909	99
Es	1.475989	1.250462	-0.081902	99
Es	1.793369	-1.784406	-0.100636	99
Es	-2.253675	-0.267233	-0.276989	99
Es	-0.570559	-0.020910	0.042699	99
Es	-1.310408	-0.034249	0.078130	99
38
Properties=species:S:1:pos:R:3:Z:I:1 energy=-301.82068033987423 field_type=dipole dipole="0.000000 0.000000 0.000000" charge=0
C	-2.063146	-0.054197	0.113219	6
C	-0.570556	-0.020807	0.042699	6
C	0.125654	1.183663	-0.003311	6
N	1.476294	1.251003	-0.081921	7
C	2.110094	0.058783	-0.118271	6
C	1.427484	-1.144587	-0.078711	6
N	0.078384	-1.211007	0.001219	7
H	-2.483816	0.942383	0.283299	1
H	-2.384626	-0.700907	0.936479	1
H	-2.471126	-0.445487	-0.824421	1
H	-0.385006	2.139703	0.022589	1
H	3.191244	0.095123	-0.181681	1
H	1.949124	-2.093667	-0.111191	1
Es	0.684662	-1.152924	-0.024653	99
Es	0.872402	1.192561	-0.039079	99
Es	-1.310355	-0.034199	0.078125	99
Es	-0.109143	-1.539532	0.008924	99
Es	1.737644	0.703266	-0.093208	99
Es	0.078686	-1.210474	0.001202	99
Es	-2.253411	-0.267296	-0.274871	99
Es	1.427378	-1.144619	-0.078702	99
Es	2.847247	0.070629	-0.159377	99
Es	0.404817	0.823138	-0.013925	99
Es	-0.570559	-0.020910	0.042696	99
Es	2.110064	0.058885	-0.118259	99
Es	-0.236220	1.828144	0.014351	99
Es	0.286667	-0.845647	-0.008437	99
Es	-0.190126	-0.662713	0.009632	99
Es	1.665304	0.078910	-0.101189	99
Es	0.125763	1.183687	-0.003321	99
Es	-2.353802	0.630461	0.218310	99
Es	-2.332314	-0.529786	0.432926	99
Es	-0.223757	0.581948	0.008129	99
Es	1.475989	1.250462	-0.081902	99
Es	1.793379	-1.784397	-0.100562	99
Es	1.769545	-0.544449	-0.092749	99
Es	1.661163	1.578419	-0.091923	99
Es	-2.063090	-0.054180	0.113214	99
38
Properties=species:S:1:pos:R:3:Z:I:1 energy=-301.82068033987423 field_type=dipole dipole="0.000000 0.000000 0.000000" charge=0
C	-2.063146	-0.054197	0.113219	6
C	-0.570556	-0.020807	0.042699	6
C	0.125654	1.183663	-0.003311	6
N	1.476294	1.251003	-0.081921	7
C	2.110094	0.058783	-0.118271	6
C	1.427484	-1.144587	-0.078711	6
N	0.078384	-1.211007	0.001219	7
H	-2.483816	0.942383	0.283299	1
H	-2.384626	-0.700907	0.936479	1
H	-2.471126	-0.445487	-0.824421	1
H	-0.385006	2.139703	0.022589	1
H	3.191244	0.095123	-0.181681	1
H	1.949124	-2.093667	-0.111191	1
Es	2.847245	0.070663	-0.159329	99
Es	-0.190206	-0.662727	0.007959	99
Es	-0.236237	1.828138	0.014307	99
Es	1.769574	-0.544432	-0.092684	99
Es	-0.109100	-1.539457	0.009380	99
Es	-2.332595	-0.529806	0.430816	99
Es	0.078675	-1.210488	0.001202	99
Es	-2.353837	0.630443	0.218231	99
Es	1.664687	0.069503	-0.100595	99
Es	-0.570559	-0.020910	0.042699	99
Es	-2.253048	-0.267236	-0.272559	99
Es	-0.223728	0.581911	0.008188	99
Es	-1.310361	-0.034123	0.078132	99
Es	0.872394	1.192597	-0.038954	99
Es	0.279751	-0.841315	-0.005053	99
Es	1.661128	1.578344	-0.091913	99
Es	-2.063140	-0.054242	0.113114	99
Es	2.110063	0.058885	-0.118268	99
Es	1.737604	0.703253	-0.093781	99
Es	1.476012	1.250503	-0.081903	99
Es	1.793381	-1.784387	-0.100538	99
Es	0.684615	-1.153067	-0.026458	99
Es	0.125769	1.183684	-0.003277	99
Es	0.412467	0.828266	-0.014664	99
Es	1.427378	-1.144619	-0.078700	99
38
Properties=species:S:1:pos:R:3:Z:I:1 energy=-301.82068033987423 field_type=dipole dipole="0.000000 0.000000 0.000000" charge=0
C	-2.063146	-0.054197	0.113219	6
C	-0.570556	-0.020807	0.042699	6
C	0.125654	1.183663	-0.003311	6
N	1.476294	1.251003	-0.081921	7
C	2.110094	0.058783	-0.118271	6
C	1.427484	-1.144587	-0.078711	6
N	0.078384	-1.211007	0.001219	7
H	-2.483816	0.942383	0.283299	1
H	-2.384626	-0.700907	0.936479	1
H	-2.471126	-0.445487	-0.824421	1
H	-0.385006	2.139703	0.022589	1
H	3.191244	0.095123	-0.181681	1
H	1.949124	-2.093667	-0.111191	1
Es	0.280266	-0.841572	-0.007117	99
Es	1.427378	-1.144618	-0.078702	99
Es	0.684647	-1.153029	-0.024770	99
Es	1.661088	1.578336	-0.091944	99
Es	-2.332810	-0.529801	0.429058	99
Es	-1.310357	-0.034154	0.078058	99
Es	2.847255	0.070623	-0.159301	99
Es	1.793400	-1.784396	-0.100543	99
Es	-0.190141	-0.662663	0.008580	99
Es	-2.252858	-0.267288	-0.270900	99
Es	-2.063098	-0.054189	0.113195	99
Es	1.475990	1.250461	-0.081903	99
Es	1.664814	0.070193	-0.101142	99
Es	-0.236228	1.828140	0.014202	99
Es	-0.109113	-1.539463	0.009277	99
Es	-0.570559	-0.020910	0.042696	99
Es	0.872398	1.192666	-0.039402	99
Es	2.110063	0.058885	-0.118261	99
Es	-2.353852	0.630440	0.218296	99
Es	0.078683	-1.210478	0.001201	99
Es	0.411735	0.827785	-0.014560	99
Es	1.737706	0.703235	-0.093201	99
Es	1.769525	-0.544448	-0.092788	99
Es	0.125763	1.183687	-0.003319	99
Es	-0.223761	0.581940	0.008642	99
38
Properties=species:S:1:pos:R:3:Z:I:1 energy=-301.82068033987423 field_type=dipole dipole="0.000000 0.000000 0.000000" charge=0
C	-2.063146	-0.054197	0.113219	6
C	-0.570556	-0.020807	0.042699	6
C	0.125654	1.183663	-0.003311	6
N	1.476294	1.251003	-0.081921	7
C	2.110094	0.058783	-0.118271	6
C	1.427484	-1.144587	-0.078711	6
N	0.078384	-1.211007	0.001219	7
H	-2.483816	0.942383	0.283299	1
H	-2.384626	-0.700907	0.936479	1
H	-2.471126	-0.445487	-0.824421	1
H	-0.385006	2.139703	0.022589	1
H	3.191244	0.095123	-0.181681	1
H	1.949124	-2.093667	-0.111191	1
Es	2.847261	0.070590	-0.159322	99
Es	-0.190208	-0.662697	0.007801	99
Es	0.872406	1.192579	-0.038415	99
Es	1.793414	-1.784386	-0.100502	99
Es	-0.109071	-1.539435	0.009799	99
Es	2.110064	0.058885	-0.118261	99
Es	1.737664	0.703287	-0.094005	99
Es	-0.570559	-0.020910	0.042696	99
Es	-2.353839	0.630487	0.218080	99
Es	1.475991	1.250463	-0.081902	99
Es	0.411133	0.827489	-0.015239	99
Es	-2.333047	-0.529783	0.427637	99
Es	1.664897	0.070777	-0.100435	99
Es	-1.310395	-0.034240	0.078107	99
Es	-0.223735	0.581951	0.008437	99
Es	-2.063091	-0.054179	0.113214	99
Es	-0.236248	1.828138	0.014245	99
Es	0.280854	-0.841793	-0.005479	99
Es	0.078674	-1.210496	0.001202	99
Es	1.769526	-0.544421	-0.092673	99
Es	1.427378	-1.144619	-0.078703	99
Es	0.684616	-1.153041	-0.026312	99
Es	1.661098	1.578344	-0.091988	99
Es	0.125763	1.183687	-0.003321	99
Es	-2.252615	-0.267294	-0.269309	99
38
Properties=species:S:1:pos:R:3:Z:I:1 energy=-301.82068033987423 field_type=dipole dipole="0.000000 0.000000 0.000000" charge=0
C	-2.063146	-0.054197	0.113219	6
C	-0.570556	-0.020807	0.042699	6
C	0.125654	1.183663	-0.003311	6
N	1.476294	1.251003	-0.081921	7
C	2.110094	0.058783	-0.118271	6
C	1.427484	-1.144587	-0.078711	6
N	0.078384	-1.211007	0.001219	7
H	-2.483816	0.942383	0.283299	1
H	-2.384626	-0.700907	0.936479	1
H	-2.471126	-0.445487	-0.824421	1
H	-0.385006	2.139703	0.022589	1
H	3.191244	0.095123	-0.181681	1
H	1.949124	-2.093667	-0.111191	1
Es	-0.570559	-0.020910	0.042696	99
Es	-0.109088	-1.539376	0.009176	99
Es	2.847252	0.070633	-0.159325	99
Es	0.872380	1.192651	-0.039048	99
Es	1.769615	-0.544448	-0.091791	99
Es	1.793395	-1.784397	-0.100489	99
Es	-0.236223	1.828142	0.014228	99
Es	1.664899	0.070983	-0.101589	99
Es	-2.063092	-0.054181	0.113212	99
Es	1.475988	1.250461	-0.081902	99
Es	0.078690	-1.210459	0.001191	99
Es	-1.310353	-0.034202	0.078105	99
Es	2.110064	0.058884	-0.118258	99
Es	0.125763	1.183687	-0.003318	99
Es	1.737736	0.703282	-0.093686	99
Es	-2.353865	0.630439	0.218041	99
Es	-0.223772	0.581938	0.007985	99
Es	0.280985	-0.841890	-0.008114	99
Es	-2.252372	-0.267299	-0.267576	99
Es	-0.190154	-0.662650	0.009945	99
Es	-2.333302	-0.529746	0.425925	99
Es	1.427378	-1.144618	-0.078698	99
Es	1.661035	1.578282	-0.092007	99
Es	0.684646	-1.153127	-0.025023	99
Es	0.410886	0.827305	-0.014328	99
38
Properties=species:S:1:pos:R:3:Z:I:1 energy=-301.82068033987423 field_type=dipole dipole="0.000000 0.000000 0.000000" charge=0
C	-2.063146	-0.054197	0.113219	6
C	-0.570556	-0.020807	0.042699	6
C	0.125654	1.183663	-0.003311	6
N	1.476294	1.251003	-0.081921	7
C	2.110094	0.058783	-0.118271	6
C	1.427484	-1.144587	-0.078711	6
N	0.078384	-1.211007	0.001219	7
H	-2.483816	0.942383	0.283299	1
H	-2.384626	-0.700907	0.936479	1
H	-2.471126	-0.445487	-0.824421	1
H	-0.385006	2.139703	0.022589	1
H	3.191244	0.095123	-0.181681	1
H	1.949124	-2.093667	-0.111191	1
Es	-2.333469	-0.529737	0.424512	99
Es	0.125763	1.183687	-0.003321	99
Es	1.769565	-0.544433	-0.092448	99
Es	-0.190183	-0.662784	0.007613	99
Es	0.684741	-1.153093	-0.025711	99
Es	0.078681	-1.210474	0.001207	99
Es	-1.310352	-0.034186	0.078204	99
Es	-2.063090	-0.054179	0.113214	99
Es	1.427378	-1.144619	-0.078702	99
Es	0.281091	-0.841779	-0.005985	99
Es	-0.570559	-0.020910	0.042696	99
Es	1.661044	1.578328	-0.092011	99
Es	-2.252193	-0.267313	-0.266294	99
Es	-0.109198	-1.539309	0.009914	99
Es	-0.223746	0.581935	0.008511	99
Es	-2.353874	0.630442	0.218105	99
Es	2.847256	0.070605	-0.159361	99
Es	0.872385	1.192593	-0.038982	99
Es	-0.236249	1.828134	0.014262	99
Es	0.410862	0.827431	-0.014780	99
Es	1.737721	0.703308	-0.094010	99
Es	1.475989	1.250463	-0.081902	99
Es	2.110063	0.058885	-0.118261	99
Es	1.664913	0.070784	-0.100648	99
Es	1.793391	-1.784397	-0.100470	99
38
Properties=species:S:1:pos:R:3:Z:I:1 energy=-301.82068033987423 field_type=dipole dipole="0.000000 0.000000 0.000000" charge=0
C	-2.063146	-0.054197	0.113219	6
C	-0.570556	-0.020807	0.042699	6
C	0.125654	1.183663	-0.003311	6
N	1.476294	1.251003	-0.081921	7
C	2.110094	0.058783	-0.118271	6
C	1.427484	-1.144587	-0.078711	6
N	0.078384	-1.211007	0.001219	7
H	-2.483816	0.942383	0.283299	1
H	-2.384626	-0.700907	0.936479	1
H	-2.471126	-0.445487	-0.824421	1
H	-0.385006	2.139703	0.022589	1
H	3.191244	0.095123	-0.181681	1
H	1.949124	-2.093667	-0.111191	1
Es	-0.570559	-0.020910	0.042683	99
Es	0.078686	-1.210471	0.001201	99
Es	1.664928	0.070243	-0.101132	99
Es	-0.190069	-0.662691	0.008018	99
Es	-2.251996	-0.267300	-0.264922	99
Es	-2.063091	-0.054179	0.113214	99
Es	-2.333579	-0.529706	0.423412	99
Es	0.125763	1.183687	-0.003319	99
Es	0.872348	1.192728	-0.039678	99
Es	1.427378	-1.144618	-0.078701	99
Es	1.475999	1.250468	-0.081902	99
Es	1.769527	-0.544419	-0.092042	99
Es	1.737773	0.703293	-0.093937	99
Es	-1.310342	-0.034202	0.078151	99
Es	0.411257	0.827634	-0.013731	99
Es	1.660999	1.578264	-0.091950	99
Es	-2.353977	0.630410	0.217914	99
Es	0.280699	-0.841448	-0.005922	99
Es	2.110064	0.058885	-0.118260	99
Es	0.684630	-1.153036	-0.026035	99
Es	2.847254	0.070612	-0.159291	99
Es	1.793444	-1.784376	-0.100437	99
Es	-0.109211	-1.539506	0.009768	99
Es	-0.223674	0.581909	0.008027	99
Es	-0.236320	1.828113	0.014223	99
38
Properties=species:S:1:pos:R:3:Z:I:1 energy=-301.82068033987423 field_type=dipole dipole="0.000000 0.000000 0.000000" charge=0
C	-2.063146	-0.054197	0.113219	6
C	-0.570556	-0.020807	0.042699	6
C	0.125654	1.183663	-0.003311	6
N	1.476294	1.251003	-0.081921	7
C	2.110094	0.058783	-0.118271	6
C	1.427484	-1.144587	-0.078711	6
N	0.078384	-1.211007	0.001219	7
H	-2.483816	0.942383	0.283299	1
H	-2.384626	-0.700907	0.936479	1
H	-2.471126	-0.445487	-0.824421	1
H	-0.385006	2.139703	0.022589	1
H	3.191244	0.095123	-0.181681	1
H	1.949124	-2.093667	-0.111191	1
Es	2.847261	0.070597	-0.159391	99
Es	0.078683	-1.210471	0.001202	99
Es	0.872351	1.192673	-0.039658	99
Es	0.410684	0.827293	-0.014052	99
Es	-2.353868	0.630429	0.217860	99
Es	1.793438	-1.784386	-0.100479	99
Es	-0.190213	-0.662698	0.007379	99
Es	-0.236256	1.828134	0.014172	99
Es	-0.109075	-1.539361	0.009938	99
Es	-1.310366	-0.034136	0.078128	99
Es	-2.333864	-0.529778	0.422027	99
Es	1.475991	1.250462	-0.081903	99
Es	-0.223757	0.581926	0.008429	99
Es	-2.251779	-0.267294	-0.263440	99
Es	1.427378	-1.144619	-0.078702	99
Es	1.737714	0.703274	-0.093438	99
Es	1.664984	0.070804	-0.101474	99
Es	2.110063	0.058885	-0.118264	99
Es	-2.063105	-0.054194	0.113193	99
Es	0.684657	-1.153115	-0.025664	99
Es	0.281178	-0.841673	-0.005859	99
Es	0.125764	1.183687	-0.003330	99
Es	-0.570559	-0.020910	0.042696	99
Es	1.661060	1.578287	-0.092031	99
Es	1.769567	-0.544433	-0.091988	99
