40
Properties=species:S:1:pos:R:3:Z:I:1 energy=-269.7666998038468 field_type=dipole dipole="0.000000 0.000000 0.000000" charge=0
C	0.913035	-1.288209	0.079816	6
C	-0.573235	-1.432739	0.000066	6
C	-1.554755	-0.526239	-0.048064	6
C	-1.461255	0.906941	-0.014334	6
C	-0.371945	1.679431	-0.014334	6
C	1.011255	1.292771	-0.048514	6
C	1.541985	0.066481	-0.000344	6
H	1.337695	-1.887769	-0.735734	1
H	1.246785	-1.758859	1.012956	1
H	-0.890955	-2.475809	-0.021284	1
H	-2.577245	-0.899939	-0.104894	1
H	-2.427105	1.411221	0.011426	1
H	-0.528485	2.757951	0.011226	1
H	1.702625	2.134251	-0.105724	1
H	2.631595	0.020511	-0.022264	1
Es	-2.122110	1.245901	0.003215	99
Es	-0.779863	-2.147011	-0.014344	99
Es	-0.573122	-1.432809	0.000080	99
Es	1.011204	1.292853	-0.048518	99
Es	-1.461340	0.906865	-0.014321	99
Es	1.132915	-1.598368	0.708982	99
Es	0.314245	1.466675	-0.033078	99
Es	-1.080128	-0.942657	0.298776	99
Es	1.542016	0.066347	-0.000341	99
Es	-2.252197	-0.777768	-0.087028	99
Es	-0.890525	1.256572	0.304279	99
Es	-0.371847	1.679487	-0.014331	99
Es	2.284438	0.024800	-0.015123	99
Es	-1.487879	0.189012	-0.033025	99
Es	1.194352	-0.592991	0.041035	99
Es	-1.043360	-0.939961	-0.349646	99
Es	-0.900633	1.270723	-0.332738	99
Es	1.479588	1.867810	-0.087589	99
Es	1.195610	-1.687140	-0.471635	99
Es	1.232462	0.673092	-0.350197	99
Es	0.163979	-1.323109	0.041146	99
Es	0.912999	-1.288159	0.079810	99
Es	-0.473277	2.415398	0.003240	99
Es	-1.554812	-0.526167	-0.048051	99
Es	1.247373	0.707062	0.298325	99
40
Properties=species:S:1:pos:R:3:Z:I:1 energy=-269.7666998038468 field_type=dipole dipole="0.000000 0.000000 0.000000" charge=0
C	0.913035	-1.288209	0.079816	6
C	-0.573235	-1.432739	0.000066	6
C	-1.554755	-0.526239	-0.048064	6
C	-1.461255	0.906941	-0.014334	6
C	-0.371945	1.679431	-0.014334	6
C	1.011255	1.292771	-0.048514	6
C	1.541985	0.066481	-0.000344	6
H	1.337695	-1.887769	-0.735734	1
H	1.246785	-1.758859	1.012956	1
H	-0.890955	-2.475809	-0.021284	1
H	-2.577245	-0.899939	-0.104894	1
H	-2.427105	1.411221	0.011426	1
H	-0.528485	2.757951	0.011226	1
H	1.702625	2.134251	-0.105724	1
H	2.631595	0.020511	-0.022264	1
Es	1.196062	-1.687842	-0.468438	99
Es	-1.042684	-0.940240	-0.344817	99
Es	-0.891669	1.258128	0.291985	99
Es	-2.123633	1.249791	0.002498	99
Es	-2.251961	-0.779316	-0.086750	99
Es	0.161943	-1.324165	0.041806	99
Es	-0.371845	1.679489	-0.014329	99
Es	1.246705	0.705644	0.293551	99
Es	-1.078452	-0.942537	0.293924	99
Es	1.132387	-1.597571	0.704463	99
Es	0.313253	1.463198	-0.033027	99
Es	-1.554820	-0.526158	-0.048059	99
Es	1.011200	1.292861	-0.048516	99
Es	1.232447	0.672283	-0.345162	99
Es	1.195960	-0.591303	0.041543	99
Es	-0.476400	2.418048	0.002426	99
Es	-1.461343	0.906868	-0.014341	99
Es	2.286097	0.025650	-0.014962	99
Es	1.481003	1.867102	-0.087552	99
Es	-0.781283	-2.148204	-0.014185	99
Es	-1.484345	0.188876	-0.032761	99
Es	-0.573116	-1.432814	0.000069	99
Es	0.913001	-1.288162	0.079810	99
Es	-0.900438	1.270487	-0.319914	99
Es	1.542016	0.066345	-0.000338	99
40
Properties=species:S:1:pos:R:3:Z:I:1 energy=-269.7666998038468 field_type=dipole dipole="0.000000 0.000000 0.000000" charge=0
C	0.913035	-1.288209	0.079816	6
C	-0.573235	-1.432739	0.000066	6
C	-1.554755	-0.526239	-0.048064	6
C	-1.461255	0.906941	-0.014334	6
C	-0.371945	1.679431	-0.014334	6
C	1.011255	1.292771	-0.048514	6
C	1.541985	0.066481	-0.000344	6
H	1.337695	-1.887769	-0.735734	1
H	1.246785	-1.758859	1.012956	1
H	-0.890955	-2.475809	-0.021284	1
H	-2.577245	-0.899939	-0.104894	1
H	-2.427105	1.411221	0.011426	1
H	-0.528485	2.757951	0.011226	1
H	1.702625	2.134251	-0.105724	1
H	2.631595	0.020511	-0.022264	1
Es	1.542015	0.066344	-0.000356	99
Es	-1.481680	0.188674	-0.032797	99
Es	1.197146	-0.590386	0.042129	99
Es	1.130181	-1.594371	0.700282	99
Es	0.912999	-1.288161	0.079811	99
Es	-1.554821	-0.526159	-0.048071	99
Es	-0.478910	2.419157	0.001647	99
Es	1.481904	1.866581	-0.087566	99
Es	-2.251787	-0.780303	-0.086854	99
Es	-1.461342	0.906867	-0.014341	99
Es	-1.042460	-0.940044	-0.341764	99
Es	-0.900343	1.270330	-0.310571	99
Es	1.197928	-1.690463	-0.465420	99
Es	0.312572	1.460740	-0.032927	99
Es	-0.892456	1.259258	0.283171	99
Es	0.160672	-1.325141	0.042499	99
Es	2.286914	0.026192	-0.014634	99
Es	1.011200	1.292861	-0.048519	99
Es	-0.573117	-1.432814	0.000062	99
Es	-2.123884	1.252522	0.001786	99
Es	-0.782072	-2.148886	-0.013912	99
Es	-0.371845	1.679489	-0.014332	99
Es	1.232276	0.672202	-0.342211	99
Es	-1.077242	-0.942475	0.291090	99
Es	1.246237	0.704445	0.290720	99
40
Properties=species:S:1:pos:R:3:Z:I:1 energy=-269.7666998038468 field_type=dipole dipole="0.000000 0.000000 0.000000" charge=0
C	0.913035	-1.288209	0.079816	6
C	-0.573235	-1.432739	0.000066	6
C	-1.554755	-0.526239	-0.048064	6
C	-1.461255	0.906941	-0.014334	6
C	-0.371945	1.679431	-0.014334	6
C	1.011255	1.292771	-0.048514	6
C	1.541985	0.066481	-0.000344	6
H	1.337695	-1.887769	-0.735734	1
H	1.246785	-1.758859	1.012956	1
H	-0.890955	-2.475809	-0.021284	1
H	-2.577245	-0.899939	-0.104894	1
H	-2.427105	1.411221	0.011426	1
H	-0.528485	2.757951	0.011226	1
H	1.702625	2.134251	-0.105724	1
H	2.631595	0.020511	-0.022264	1
Es	1.121392	-1.581957	0.689953	99
Es	2.287410	0.026436	-0.013869	99
Es	-0.893251	1.260397	0.276798	99
Es	0.159938	-1.325891	0.042824	99
Es	1.542015	0.066342	-0.000338	99
Es	1.231986	0.672446	-0.340245	99
Es	-1.461345	0.906864	-0.014336	99
Es	-1.554822	-0.526157	-0.048070	99
Es	-1.042380	-0.939892	-0.339881	99
Es	-0.573113	-1.432814	0.000071	99
Es	-0.782495	-2.149161	-0.013162	99
Es	1.482450	1.866027	-0.088229	99
Es	-1.479690	0.188657	-0.032845	99
Es	-2.251520	-0.780943	-0.087528	99
Es	0.913001	-1.288160	0.079811	99
Es	1.197994	-0.589840	0.042397	99
Es	1.011199	1.292860	-0.048530	99
Es	-0.480749	2.419593	0.000552	99
Es	-1.076525	-0.942517	0.289528	99
Es	-0.371843	1.679490	-0.014335	99
Es	1.206275	-1.702200	-0.454607	99
Es	-0.900157	1.270008	-0.303717	99
Es	0.311973	1.458978	-0.033042	99
Es	1.246055	0.703466	0.289111	99
Es	-2.123714	1.254429	0.000613	99
40
Properties=species:S:1:pos:R:3:Z:I:1 energy=-269.7666998038468 field_type=dipole dipole="0.000000 0.000000 0.000000" charge=0
C	0.913035	-1.288209	0.079816	6
C	-0.573235	-1.432739	0.000066	6
C	-1.554755	-0.526239	-0.048064	6
C	-1.461255	0.906941	-0.014334	6
C	-0.371945	1.679431	-0.014334	6
C	1.011255	1.292771	-0.048514	6
C	1.541985	0.066481	-0.000344	6
H	1.337695	-1.887769	-0.735734	1
H	1.246785	-1.758859	1.012956	1
H	-0.890955	-2.475809	-0.021284	1
H	-2.577245	-0.899939	-0.104894	1
H	-2.427105	1.411221	0.011426	1
H	-0.528485	2.757951	0.011226	1
H	1.702625	2.134251	-0.105724	1
H	2.631595	0.020511	-0.022264	1
Es	-1.461332	0.906873	-0.014374	99
Es	-0.893923	1.261364	0.274520	99
Es	1.109020	-1.564505	0.659618	99
Es	-2.250893	-0.780847	-0.088506	99
Es	-1.043936	-0.938611	-0.339289	99
Es	0.311816	1.458502	-0.033348	99
Es	0.913001	-1.288161	0.079811	99
Es	1.542016	0.066343	-0.000334	99
Es	-0.481616	2.419685	-0.000690	99
Es	1.218569	-1.719597	-0.422744	99
Es	-0.573113	-1.432814	0.000074	99
Es	-0.782365	-2.149255	-0.012063	99
Es	-1.479360	0.188630	-0.033313	99
Es	1.011200	1.292859	-0.048535	99
Es	0.159661	-1.325791	0.042816	99
Es	1.482095	1.865551	-0.089245	99
Es	-2.123471	1.255272	-0.000598	99
Es	1.246753	0.701037	0.288676	99
Es	2.287423	0.026389	-0.012819	99
Es	-0.371843	1.679490	-0.014340	99
Es	-0.899795	1.269505	-0.300563	99
Es	1.231225	0.674332	-0.339514	99
Es	-1.554821	-0.526157	-0.048073	99
Es	-1.074426	-0.943899	0.289325	99
Es	1.198203	-0.589735	0.042431	99
40
Properties=species:S:1:pos:R:3:Z:I:1 energy=-269.7666998038468 field_type=dipole dipole="0.000000 0.000000 0.000000" charge=0
C	0.913035	-1.288209	0.079816	6
C	-0.573235	-1.432739	0.000066	6
C	-1.554755	-0.526239	-0.048064	6
C	-1.461255	0.906941	-0.014334	6
C	-0.371945	1.679431	-0.014334	6
C	1.011255	1.292771	-0.048514	6
C	1.541985	0.066481	-0.000344	6
H	1.337695	-1.887769	-0.735734	1
H	1.246785	-1.758859	1.012956	1
H	-0.890955	-2.475809	-0.021284	1
H	-2.577245	-0.899939	-0.104894	1
H	-2.427105	1.411221	0.011426	1
H	-0.528485	2.757951	0.011226	1
H	1.702625	2.134251	-0.105724	1
H	2.631595	0.020511	-0.022264	1
Es	-0.782185	-2.149271	-0.011526	99
Es	-0.371844	1.679490	-0.014341	99
Es	-2.250435	-0.780672	-0.088956	99
Es	-1.461345	0.906865	-0.014338	99
Es	1.198245	-0.589556	0.042528	99
Es	1.231046	0.674085	-0.340077	99
Es	1.103366	-1.556660	0.636187	99
Es	0.159544	-1.325743	0.042754	99
Es	1.011200	1.292861	-0.048525	99
Es	-1.045662	-0.937105	-0.336750	99
Es	-0.894344	1.261804	0.272917	99
Es	1.542015	0.066342	-0.000337	99
Es	-1.554821	-0.526157	-0.048074	99
Es	0.913001	-1.288162	0.079811	99
Es	1.481777	1.865089	-0.089759	99
Es	-0.899696	1.269432	-0.298679	99
Es	-1.072190	-0.945424	0.286778	99
Es	1.246819	0.700862	0.289536	99
Es	1.224186	-1.727527	-0.398471	99
Es	-0.573113	-1.432814	0.000073	99
Es	0.311775	1.458405	-0.033563	99
Es	-2.123318	1.255819	-0.001178	99
Es	-1.479157	0.188616	-0.033220	99
Es	2.287378	0.026176	-0.012425	99
Es	-0.482155	2.419705	-0.001441	99
40
Properties=species:S:1:pos:R:3:Z:I:1 energy=-269.7666998038468 field_type=dipole dipole="0.000000 0.000000 0.000000" charge=0
C	0.913035	-1.288209	0.079816	6
C	-0.573235	-1.432739	0.000066	6
C	-1.554755	-0.526239	-0.048064	6
C	-1.461255	0.906941	-0.014334	6
C	-0.371945	1.679431	-0.014334	6
C	1.011255	1.292771	-0.048514	6
C	1.541985	0.066481	-0.000344	6
H	1.337695	-1.887769	-0.735734	1
H	1.246785	-1.758859	1.012956	1
H	-0.890955	-2.475809	-0.021284	1
H	-2.577245	-0.899939	-0.104894	1
H	-2.427105	1.411221	0.011426	1
H	-0.528485	2.757951	0.011226	1
H	1.702625	2.134251	-0.105724	1
H	2.631595	0.020511	-0.022264	1
Es	1.542016	0.066342	-0.000336	99
Es	-0.371843	1.679491	-0.014337	99
Es	-1.461345	0.906865	-0.014338	99
Es	1.230614	0.675060	-0.339378	99
Es	0.311695	1.458331	-0.033473	99
Es	-0.899717	1.269395	-0.297108	99
Es	-2.123199	1.256131	-0.001784	99
Es	2.287291	0.026008	-0.012027	99
Es	-0.781987	-2.149292	-0.011308	99
Es	1.198165	-0.589499	0.042491	99
Es	-0.573114	-1.432814	0.000076	99
Es	1.099972	-1.551868	0.617901	99
Es	0.913001	-1.288161	0.079813	99
Es	-1.072918	-0.945097	0.289032	99
Es	1.481434	1.864688	-0.090127	99
Es	1.011201	1.292860	-0.048509	99
Es	-2.249858	-0.780481	-0.089385	99
Es	-0.894552	1.262232	0.271723	99
Es	1.247264	0.699591	0.288849	99
Es	-1.044730	-0.937549	-0.338645	99
Es	-0.482520	2.419721	-0.001878	99
Es	-1.479107	0.188701	-0.033352	99
Es	-1.554822	-0.526158	-0.048068	99
Es	1.227701	-1.732377	-0.379547	99
Es	0.159443	-1.325663	0.042638	99
40
Properties=species:S:1:pos:R:3:Z:I:1 energy=-269.7666998038468 field_type=dipole dipole="0.000000 0.000000 0.000000" charge=0
C	0.913035	-1.288209	0.079816	6
C	-0.573235	-1.432739	0.000066	6
C	-1.554755	-0.526239	-0.048064	6
C	-1.461255	0.906941	-0.014334	6
C	-0.371945	1.679431	-0.014334	6
C	1.011255	1.292771	-0.048514	6
C	1.541985	0.066481	-0.000344	6
H	1.337695	-1.887769	-0.735734	1
H	1.246785	-1.758859	1.012956	1
H	-0.890955	-2.475809	-0.021284	1
H	-2.577245	-0.899939	-0.104894	1
H	-2.427105	1.411221	0.011426	1
H	-0.528485	2.757951	0.011226	1
H	1.702625	2.134251	-0.105724	1
H	2.631595	0.020511	-0.022264	1
Es	-0.573114	-1.432813	0.000078	99
Es	1.230126	-1.735812	-0.363515	99
Es	-0.781808	-2.149280	-0.010985	99
Es	1.011200	1.292860	-0.048527	99
Es	1.230719	0.674187	-0.340659	99
Es	-2.123094	1.256491	-0.002171	99
Es	-1.043826	-0.938071	-0.340237	99
Es	-1.073632	-0.944636	0.290830	99
Es	1.542015	0.066342	-0.000333	99
Es	0.159373	-1.325657	0.042586	99
Es	-1.461345	0.906864	-0.014330	99
Es	-0.482895	2.419755	-0.002275	99
Es	1.198158	-0.589370	0.042418	99
Es	-2.249423	-0.780347	-0.089735	99
Es	-1.478982	0.188763	-0.033350	99
Es	-0.894814	1.262610	0.270559	99
Es	-0.371844	1.679490	-0.014334	99
Es	0.913005	-1.288167	0.079825	99
Es	-0.899597	1.269232	-0.295965	99
Es	2.287246	0.025850	-0.011825	99
Es	1.247123	0.700228	0.290406	99
Es	1.097552	-1.548468	0.602389	99
Es	-1.554821	-0.526157	-0.048076	99
Es	1.481171	1.864297	-0.090441	99
Es	0.311595	1.458267	-0.033411	99
40
Properties=species:S:1:pos:R:3:Z:I:1 energy=-269.7666998038468 field_type=dipole dipole="0.000000 0.000000 0.000000" charge=0
C	0.913035	-1.288209	0.079816	6
C	-0.573235	-1.432739	0.000066	6
C	-1.554755	-0.526239	-0.048064	6
C	-1.461255	0.906941	-0.014334	6
C	-0.371945	1.679431	-0.014334	6
C	1.011255	1.292771	-0.048514	6
C	1.541985	0.066481	-0.000344	6
H	1.337695	-1.887769	-0.735734	1
H	1.246785	-1.758859	1.012956	1
H	-0.890955	-2.475809	-0.021284	1
H	-2.577245	-0.899939	-0.104894	1
H	-2.427105	1.411221	0.011426	1
H	-0.528485	2.757951	0.011226	1
H	1.702625	2.134251	-0.105724	1
H	2.631595	0.020511	-0.022264	1
Es	-1.045796	-0.936453	-0.336485	99
Es	-2.249035	-0.780244	-0.089761	99
Es	1.011200	1.292861	-0.048522	99
Es	1.231315	-1.737455	-0.355524	99
Es	1.542014	0.066341	-0.000331	99
Es	0.159274	-1.325484	0.042592	99
Es	2.287205	0.025650	-0.011818	99
Es	-0.781603	-2.149314	-0.010928	99
Es	1.247281	0.699518	0.290107	99
Es	-0.573112	-1.432813	0.000071	99
Es	-0.899475	1.269214	-0.295059	99
Es	-0.894983	1.262777	0.269743	99
Es	-1.554821	-0.526157	-0.048076	99
Es	1.230360	0.674608	-0.340329	99
Es	1.198097	-0.589322	0.042395	99
Es	0.311645	1.458454	-0.033426	99
Es	-1.461342	0.906867	-0.014321	99
Es	1.481019	1.863983	-0.090506	99
Es	-1.479159	0.188814	-0.033111	99
Es	0.913002	-1.288162	0.079816	99
Es	-1.071416	-0.946282	0.286921	99
Es	-0.483183	2.419737	-0.002501	99
Es	-2.123022	1.256738	-0.002287	99
Es	1.096465	-1.546906	0.594609	99
Es	-0.371844	1.679491	-0.014345	99
40
Properties=species:S:1:pos:R:3:Z:I:1 energy=-269.7666998038468 field_type=dipole dipole="0.000000 0.000000 0.000000" charge=0
C	0.913035	-1.288209	0.079816	6
C	-0.573235	-1.432739	0.000066	6
C	-1.554755	-0.526239	-0.048064	6
C	-1.461255	0.906941	-0.014334	6
C	-0.371945	1.679431	-0.014334	6
C	1.011255	1.292771	-0.048514	6
C	1.541985	0.066481	-0.000344	6
H	1.337695	-1.887769	-0.735734	1
H	1.246785	-1.758859	1.012956	1
H	-0.890955	-2.475809	-0.021284	1
H	-2.577245	-0.899939	-0.104894	1
H	-2.427105	1.411221	0.011426	1
H	-0.528485	2.757951	0.011226	1
H	1.702625	2.134251	-0.105724	1
H	2.631595	0.020511	-0.022264	1
Es	-0.483380	2.419735	-0.002709	99
Es	1.230141	0.675201	-0.339628	99
Es	0.159304	-1.325471	0.042418	99
Es	-1.072484	-0.945656	0.289698	99
Es	1.095179	-1.545184	0.585167	99
Es	-1.044606	-0.937141	-0.339109	99
Es	1.247572	0.698810	0.289375	99
Es	-0.781463	-2.149303	-0.010959	99
Es	1.542015	0.066342	-0.000333	99
Es	-0.899458	1.269061	-0.294108	99
Es	-0.895163	1.263069	0.268767	99
Es	0.311535	1.458405	-0.033186	99
Es	-1.554821	-0.526157	-0.048075	99
Es	-2.248717	-0.780153	-0.089859	99
Es	2.287177	0.025523	-0.011595	99
Es	1.480762	1.863714	-0.090648	99
Es	0.913001	-1.288161	0.079811	99
Es	1.011200	1.292861	-0.048523	99
Es	-0.371843	1.679490	-0.014341	99
Es	1.198075	-0.589205	0.042265	99
Es	-1.461346	0.906864	-0.014338	99
Es	-1.479134	0.188881	-0.033030	99
Es	-2.122915	1.256977	-0.002624	99
Es	-0.573114	-1.432813	0.000077	99
Es	1.232570	-1.739233	-0.345590	99
40
Properties=species:S:1:pos:R:3:Z:I:1 energy=-269.7666998038468 field_type=dipole dipole="0.000000 0.000000 0.000000" charge=0
C	0.913035	-1.288209	0.079816	6
C	-0.573235	-1.432739	0.000066	6
C	-1.554755	-0.526239	-0.048064	6
C	-1.461255	0.906941	-0.014334	6
C	-0.371945	1.679431	-0.014334	6
C	1.011255	1.292771	-0.048514	6
C	1.541985	0.066481	-0.000344	6
H	1.337695	-1.887769	-0.735734	1
H	1.246785	-1.758859	1.012956	1
H	-0.890955	-2.475809	-0.021284	1
H	-2.577245	-0.899939	-0.104894	1
H	-2.427105	1.411221	0.011426	1
H	-0.528485	2.757951	0.011226	1
H	1.702625	2.134251	-0.105724	1
H	2.631595	0.020511	-0.022264	1
Es	-2.122834	1.257159	-0.002947	99
Es	-1.554821	-0.526156	-0.048077	99
Es	1.542015	0.066343	-0.000331	99
Es	1.230406	0.673870	-0.341445	99
Es	0.913001	-1.288160	0.079812	99
Es	1.198104	-0.589161	0.042245	99
Es	1.247166	0.699944	0.291422	99
Es	-1.072620	-0.945528	0.290500	99
Es	1.094283	-1.543825	0.577075	99
Es	-0.371844	1.679490	-0.014334	99
Es	-1.461345	0.906865	-0.014338	99
Es	-0.573114	-1.432813	0.000075	99
Es	-0.483621	2.419678	-0.003113	99
Es	1.480659	1.863507	-0.090830	99
Es	-2.248323	-0.780099	-0.090130	99
Es	0.311533	1.458272	-0.033308	99
Es	-1.044291	-0.937270	-0.339745	99
Es	1.011199	1.292860	-0.048526	99
Es	0.159183	-1.325403	0.042502	99
Es	-0.895194	1.263154	0.268012	99
Es	2.287204	0.025465	-0.011505	99
Es	-0.781409	-2.149341	-0.010699	99
Es	-1.479137	0.188905	-0.033102	99
Es	1.233493	-1.740615	-0.337494	99
Es	-0.899607	1.269318	-0.292795	99
40
Properties=species:S:1:pos:R:3:Z:I:1 energy=-269.7666998038468 field_type=dipole dipole="0.000000 0.000000 0.000000" charge=0
C	0.913035	-1.288209	0.079816	6
C	-0.573235	-1.432739	0.000066	6
C	-1.554755	-0.526239	-0.048064	6
C	-1.461255	0.906941	-0.014334	6
C	-0.371945	1.679431	-0.014334	6
C	1.011255	1.292771	-0.048514	6
C	1.541985	0.066481	-0.000344	6
H	1.337695	-1.887769	-0.735734	1
H	1.246785	-1.758859	1.012956	1
H	-0.890955	-2.475809	-0.021284	1
H	-2.577245	-0.899939	-0.104894	1
H	-2.427105	1.411221	0.011426	1
H	-0.528485	2.757951	0.011226	1
H	1.702625	2.134251	-0.105724	1
H	2.631595	0.020511	-0.022264	1
Es	1.093629	-1.542928	0.571565	99
Es	-2.248189	-0.779838	-0.090173	99
Es	-2.122768	1.257323	-0.002977	99
Es	1.247644	0.698934	0.290323	99
Es	-1.044429	-0.937098	-0.339540	99
Es	1.230159	0.674826	-0.340488	99
Es	0.159208	-1.325386	0.042446	99
Es	-1.461345	0.906864	-0.014339	99
Es	1.234164	-1.741551	-0.331758	99
Es	1.011200	1.292860	-0.048527	99
Es	-0.895384	1.263320	0.267656	99
Es	1.542015	0.066341	-0.000335	99
Es	-1.554821	-0.526157	-0.048077	99
Es	-0.573114	-1.432813	0.000077	99
Es	-0.371843	1.679491	-0.014338	99
Es	-0.781342	-2.149336	-0.010723	99
Es	-1.072431	-0.945844	0.290312	99
Es	-0.899520	1.269194	-0.292926	99
Es	0.913005	-1.288166	0.079818	99
Es	-1.478925	0.188879	-0.032823	99
Es	1.198047	-0.589127	0.042164	99
Es	1.480284	1.863344	-0.090752	99
Es	-0.483799	2.419687	-0.003146	99
Es	0.311479	1.458261	-0.033060	99
Es	2.287164	0.025375	-0.011456	99
40
Properties=species:S:1:pos:R:3:Z:I:1 energy=-269.7666998038468 field_type=dipole dipole="0.000000 0.000000 0.000000" charge=0
C	0.913035	-1.288209	0.079816	6
C	-0.573235	-1.432739	0.000066	6
C	-1.554755	-0.526239	-0.048064	6
C	-1.461255	0.906941	-0.014334	6
C	-0.371945	1.679431	-0.014334	6
C	1.011255	1.292771	-0.048514	6
C	1.541985	0.066481	-0.000344	6
H	1.337695	-1.887769	-0.735734	1
H	1.246785	-1.758859	1.012956	1
H	-0.890955	-2.475809	-0.021284	1
H	-2.577245	-0.899939	-0.104894	1
H	-2.427105	1.411221	0.011426	1
H	-0.528485	2.757951	0.011226	1
H	1.702625	2.134251	-0.105724	1
H	2.631595	0.020511	-0.022264	1
Es	-1.461345	0.906864	-0.014333	99
Es	1.093072	-1.542152	0.566352	99
Es	-0.895339	1.263381	0.267432	99
Es	-1.072528	-0.945619	0.290955	99
Es	0.311502	1.458466	-0.033154	99
Es	-2.122673	1.257508	-0.003182	99
Es	0.159112	-1.325375	0.042437	99
Es	-0.899549	1.269179	-0.292305	99
Es	1.230034	0.674736	-0.340620	99
Es	-1.479213	0.188921	-0.033003	99
Es	1.234784	-1.742350	-0.326524	99
Es	2.287123	0.025281	-0.011417	99
Es	1.011199	1.292860	-0.048526	99
Es	-1.554821	-0.526158	-0.048080	99
Es	0.913002	-1.288162	0.079809	99
Es	1.247668	0.698887	0.290536	99
Es	-0.573113	-1.432813	0.000077	99
Es	1.480242	1.863025	-0.090887	99
Es	-0.781209	-2.149382	-0.010604	99
Es	-1.044102	-0.937201	-0.340179	99
Es	-0.371843	1.679490	-0.014338	99
Es	-0.483937	2.419680	-0.003272	99
Es	1.197951	-0.589054	0.042283	99
Es	1.542015	0.066342	-0.000331	99
Es	-2.247944	-0.779894	-0.090201	99
40
Properties=species:S:1:pos:R:3:Z:I:1 energy=-269.7666998038468 field_type=dipole dipole="0.000000 0.000000 0.000000" charge=0
C	0.913035	-1.288209	0.079816	6
C	-0.573235	-1.432739	0.000066	6
C	-1.554755	-0.526239	-0.048064	6
C	-1.461255	0.906941	-0.014334	6
C	-0.371945	1.679431	-0.014334	6
C	1.011255	1.292771	-0.048514	6
C	1.541985	0.066481	-0.000344	6
H	1.337695	-1.887769	-0.735734	1
H	1.246785	-1.758859	1.012956	1
H	-0.890955	-2.475809	-0.021284	1
H	-2.577245	-0.899939	-0.104894	1
H	-2.427105	1.411221	0.011426	1
H	-0.528485	2.757951	0.011226	1
H	1.702625	2.134251	-0.105724	1
H	2.631595	0.020511	-0.022264	1
Es	-1.461344	0.906864	-0.014326	99
Es	0.159045	-1.325319	0.042438	99
Es	-1.554821	-0.526157	-0.048074	99
Es	-0.899609	1.269328	-0.290939	99
Es	-0.573113	-1.432813	0.000077	99
Es	1.230329	0.673573	-0.342243	99
Es	-0.371843	1.679491	-0.014338	99
Es	1.198012	-0.589014	0.042223	99
Es	-0.895520	1.263528	0.266296	99
Es	0.913004	-1.288162	0.079805	99
Es	1.011199	1.292860	-0.048528	99
Es	-1.479050	0.188957	-0.032851	99
Es	1.092630	-1.541542	0.562144	99
Es	2.287128	0.025156	-0.011340	99
Es	0.311433	1.458297	-0.033009	99
Es	-0.781185	-2.149366	-0.010533	99
Es	-1.072115	-0.945929	0.290213	99
Es	-2.247742	-0.779894	-0.090236	99
Es	1.480188	1.862911	-0.091023	99
Es	1.542015	0.066342	-0.000334	99
Es	-2.122621	1.257600	-0.003382	99
Es	1.235183	-1.742979	-0.322184	99
Es	-0.484047	2.419653	-0.003634	99
Es	-1.044399	-0.936881	-0.339523	99
Es	1.247332	0.699957	0.292223	99
40
Properties=species:S:1:pos:R:3:Z:I:1 energy=-269.7666998038468 field_type=dipole dipole="0.000000 0.000000 0.000000" charge=0
C	0.913035	-1.288209	0.079816	6
C	-0.573235	-1.432739	0.000066	6
C	-1.554755	-0.526239	-0.048064	6
C	-1.461255	0.906941	-0.014334	6
C	-0.371945	1.679431	-0.014334	6
C	1.011255	1.292771	-0.048514	6
C	1.541985	0.066481	-0.000344	6
H	1.337695	-1.887769	-0.735734	1
H	1.246785	-1.758859	1.012956	1
H	-0.890955	-2.475809	-0.021284	1
H	-2.577245	-0.899939	-0.104894	1
H	-2.427105	1.411221	0.011426	1
H	-0.528485	2.757951	0.011226	1
H	1.702625	2.134251	-0.105724	1
H	2.631595	0.020511	-0.022264	1
Es	0.913002	-1.288162	0.079809	99
Es	1.235754	-1.743694	-0.316750	99
Es	-0.895559	1.263681	0.266205	99
Es	-1.479123	0.188962	-0.032807	99
Es	1.480081	1.862710	-0.091109	99
Es	1.197998	-0.588938	0.042268	99
Es	1.230184	0.673689	-0.342176	99
Es	0.311433	1.458400	-0.032880	99
Es	-2.122534	1.257820	-0.003451	99
Es	2.287108	0.025108	-0.011310	99
Es	-0.484262	2.419644	-0.003553	99
Es	1.542016	0.066344	-0.000331	99
Es	-2.247566	-0.779853	-0.090320	99
Es	-1.073068	-0.945244	0.292303	99
Es	-0.371844	1.679491	-0.014337	99
Es	-0.899516	1.269086	-0.291298	99
Es	-1.043380	-0.937576	-0.341500	99
Es	1.247430	0.699774	0.292230	99
Es	-0.781061	-2.149405	-0.010528	99
Es	1.092103	-1.540800	0.556879	99
Es	0.158969	-1.325332	0.042428	99
Es	1.011199	1.292860	-0.048527	99
Es	-1.461342	0.906867	-0.014324	99
Es	-1.554820	-0.526157	-0.048077	99
Es	-0.573115	-1.432813	0.000083	99
40
Properties=species:S:1:pos:R:3:Z:I:1 energy=-269.7666998038468 field_type=dipole dipole="0.000000 0.000000 0.000000" charge=0
C	0.913035	-1.288209	0.079816	6
C	-0.573235	-1.432739	0.000066	6
C	-1.554755	-0.526239	-0.048064	6
C	-1.461255	0.906941	-0.014334	6
C	-0.371945	1.679431	-0.014334	6
C	1.011255	1.292771	-0.048514	6
C	1.541985	0.066481	-0.000344	6
H	1.337695	-1.887769	-0.735734	1
H	1.246785	-1.758859	1.012956	1
H	-0.890955	-2.475809	-0.021284	1
H	-2.577245	-0.899939	-0.104894	1
H	-2.427105	1.411221	0.011426	1
H	-0.528485	2.757951	0.011226	1
H	1.702625	2.134251	-0.105724	1
H	2.631595	0.020511	-0.022264	1
Es	0.311380	1.458418	-0.033033	99
Es	1.247883	0.698465	0.290300	99
Es	-2.247388	-0.779735	-0.090329	99
Es	1.479936	1.862591	-0.090992	99
Es	-2.122452	1.257946	-0.003593	99
Es	1.091994	-1.540647	0.555850	99
Es	-0.371844	1.679491	-0.014342	99
Es	2.287104	0.025029	-0.011294	99
Es	1.542014	0.066341	-0.000333	99
Es	-1.043922	-0.937124	-0.340543	99
Es	1.235861	-1.743879	-0.315731	99
Es	-0.895512	1.263600	0.266030	99
Es	1.011200	1.292860	-0.048527	99
Es	-0.573114	-1.432813	0.000077	99
Es	0.158979	-1.325328	0.042406	99
Es	-0.484355	2.419665	-0.003585	99
Es	-1.461342	0.906866	-0.014354	99
Es	-1.554820	-0.526157	-0.048077	99
Es	1.229808	0.674938	-0.340400	99
Es	0.913008	-1.288168	0.079814	99
Es	1.197947	-0.588869	0.042207	99
Es	-1.479174	0.188980	-0.032868	99
Es	-0.899605	1.269183	-0.290579	99
Es	-1.072488	-0.945777	0.291362	99
Es	-0.781009	-2.149415	-0.010541	99
40
Properties=species:S:1:pos:R:3:Z:I:1 energy=-269.7666998038468 field_type=dipole dipole="0.000000 0.000000 0.000000" charge=0
C	0.913035	-1.288209	0.079816	6
C	-0.573235	-1.432739	0.000066	6
C	-1.554755	-0.526239	-0.048064	6
C	-1.461255	0.906941	-0.014334	6
C	-0.371945	1.679431	-0.014334	6
C	1.011255	1.292771	-0.048514	6
C	1.541985	0.066481	-0.000344	6
H	1.337695	-1.887769	-0.735734	1
H	1.246785	-1.758859	1.012956	1
H	-0.890955	-2.475809	-0.021284	1
H	-2.577245	-0.899939	-0.104894	1
H	-2.427105	1.411221	0.011426	1
H	-0.528485	2.757951	0.011226	1
H	1.702625	2.134251	-0.105724	1
H	2.631595	0.020511	-0.022264	1
Es	-0.899607	1.269228	-0.290445	99
Es	-2.122499	1.257933	-0.003596	99
Es	1.197974	-0.588821	0.042172	99
Es	-0.484449	2.419646	-0.003609	99
Es	-2.247275	-0.779759	-0.090337	99
Es	-0.781008	-2.149419	-0.010591	99
Es	1.248009	0.697801	0.289248	99
Es	-0.573115	-1.432814	0.000084	99
Es	0.913002	-1.288162	0.079815	99
Es	-1.461345	0.906866	-0.014345	99
Es	0.311388	1.458397	-0.032891	99
Es	-1.554826	-0.526161	-0.048078	99
Es	-1.043534	-0.937276	-0.341112	99
Es	2.287116	0.024992	-0.011232	99
Es	-1.072684	-0.945512	0.292049	99
Es	1.542015	0.066342	-0.000335	99
Es	1.479849	1.862472	-0.090985	99
Es	0.158952	-1.325380	0.042308	99
Es	-0.895591	1.263768	0.265597	99
Es	1.011200	1.292860	-0.048526	99
Es	1.236126	-1.744209	-0.313208	99
Es	-1.479084	0.189013	-0.032806	99
Es	1.091757	-1.540321	0.553441	99
Es	1.229557	0.675486	-0.339363	99
Es	-0.371843	1.679491	-0.014330	99
40
Properties=species:S:1:pos:R:3:Z:I:1 energy=-269.7666998038468 field_type=dipole dipole="0.000000 0.000000 0.000000" charge=0
C	0.913035	-1.288209	0.079816	6
C	-0.573235	-1.432739	0.000066	6
C	-1.554755	-0.526239	-0.048064	6
C	-1.461255	0.906941	-0.014334	6
C	-0.371945	1.679431	-0.014334	6
C	1.011255	1.292771	-0.048514	6
C	1.541985	0.066481	-0.000344	6
H	1.337695	-1.887769	-0.735734	1
H	1.246785	-1.758859	1.012956	1
H	-0.890955	-2.475809	-0.021284	1
H	-2.577245	-0.899939	-0.104894	1
H	-2.427105	1.411221	0.011426	1
H	-0.528485	2.757951	0.011226	1
H	1.702625	2.134251	-0.105724	1
H	2.631595	0.020511	-0.022264	1
Es	0.158920	-1.325191	0.042465	99
Es	-0.484575	2.419625	-0.003769	99
Es	-0.899566	1.269287	-0.289998	99
Es	1.229799	0.674675	-0.340910	99
Es	-0.573107	-1.432811	0.000079	99
Es	1.197892	-0.588861	0.042242	99
Es	1.479809	1.862404	-0.091035	99
Es	0.311374	1.458340	-0.032887	99
Es	1.542015	0.066342	-0.000333	99
Es	-2.122463	1.257958	-0.003729	99
Es	-0.895688	1.263856	0.265216	99
Es	1.011200	1.292860	-0.048527	99
Es	-1.554820	-0.526157	-0.048076	99
Es	0.913001	-1.288164	0.079822	99
Es	1.247842	0.698591	0.290899	99
Es	-1.461345	0.906868	-0.014336	99
Es	1.091498	-1.539957	0.550636	99
Es	-2.247160	-0.779705	-0.090342	99
Es	2.287066	0.024917	-0.011283	99
Es	-0.780905	-2.149452	-0.010506	99
Es	-0.371844	1.679491	-0.014338	99
Es	1.236391	-1.744645	-0.310506	99
Es	-1.072142	-0.946008	0.290904	99
Es	-1.044081	-0.936827	-0.340121	99
Es	-1.479024	0.189026	-0.032644	99
