41
Properties=species:S:1:pos:R:3:Z:I:1 energy=-302.9727002984491 field_type=dipole dipole="0.000000 0.000000 0.000000" charge=0
C	-2.188602	0.120767	0.361465	6
C	-0.851112	0.141737	0.256305	6
C	-0.011042	1.390777	0.154725	6
N	1.148138	0.894627	-0.539185	7
C	1.267828	-0.454863	-0.438405	6
N	2.349118	-1.099743	-0.708025	7
C	0.001248	-1.094183	0.081455	6
H	-2.737602	-0.816153	0.375065	1
H	-2.765692	1.037657	0.429215	1
H	0.265878	1.751697	1.150135	1
H	-0.501392	2.185147	-0.413875	1
H	2.007178	1.427997	-0.539395	1
H	2.210718	-2.103233	-0.550675	1
H	-0.400992	-1.794863	-0.654365	1
H	0.206328	-1.587373	1.035555	1
Es	2.010405	-0.836678	-0.331057	99
Es	0.140014	-1.416926	0.715868	99
Es	1.232346	0.343036	-0.396966	99
Es	1.062538	0.774185	-0.814003	99
Es	-0.443392	-0.490889	0.183635	99
Es	-1.507589	0.126467	0.642815	99
Es	1.148265	0.894439	-0.538661	99
Es	-0.441392	0.776560	0.216125	99
Es	0.668378	1.123611	-0.224264	99
Es	1.836148	-0.892054	-0.868324	99
Es	0.001261	-1.094105	0.081446	99
Es	0.630209	-0.784943	-0.183613	99
Es	0.172552	1.633937	0.835122	99
Es	2.245934	-1.706859	-0.607972	99
Es	-2.188690	0.120767	0.361489	99
Es	-0.268521	-1.559358	-0.406565	99
Es	-0.850958	0.141740	0.256295	99
Es	-0.010921	1.390675	0.154653	99
Es	1.267720	-0.454711	-0.438407	99
Es	-2.583664	0.741105	0.408486	99
Es	2.348666	-1.099856	-0.707869	99
Es	-0.349277	1.931218	-0.224540	99
Es	1.652942	1.212729	-0.522096	99
Es	2.669935	-0.957039	-0.823455	99
Es	-1.564592	0.142200	-0.013273	99
Es	-2.563525	-0.512750	0.372770	99
41
Properties=species:S:1:pos:R:3:Z:I:1 energy=-302.9727002984491 field_type=dipole dipole="0.000000 0.000000 0.000000" charge=0
C	-2.188602	0.120767	0.361465	6
C	-0.851112	0.141737	0.256305	6
C	-0.011042	1.390777	0.154725	6
N	1.148138	0.894627	-0.539185	7
C	1.267828	-0.454863	-0.438405	6
N	2.349118	-1.099743	-0.708025	7
C	0.001248	-1.094183	0.081455	6
H	-2.737602	-0.816153	0.375065	1
H	-2.765692	1.037657	0.429215	1
H	0.265878	1.751697	1.150135	1
H	-0.501392	2.185147	-0.413875	1
H	2.007178	1.427997	-0.539395	1
H	2.210718	-2.103233	-0.550675	1
H	-0.400992	-1.794863	-0.654365	1
H	0.206328	-1.587373	1.035555	1
Es	-0.350284	1.932241	-0.224100	99
Es	1.267716	-0.454710	-0.438412	99
Es	1.228960	0.332358	-0.409614	99
Es	2.348654	-1.099887	-0.707862	99
Es	0.171864	1.632739	0.833403	99
Es	1.653842	1.212353	-0.523379	99
Es	-0.850956	0.141741	0.256290	99
Es	2.672355	-0.954105	-0.818880	99
Es	-0.267023	-1.559688	-0.404540	99
Es	-0.445413	-0.490772	0.184913	99
Es	0.001265	-1.094107	0.081449	99
Es	-2.562083	-0.512232	0.372073	99
Es	-1.564607	0.142325	-0.011293	99
Es	0.139962	-1.416628	0.712572	99
Es	2.246797	-1.706860	-0.608063	99
Es	1.835542	-0.890943	-0.868891	99
Es	-1.507735	0.126130	0.640949	99
Es	-2.584979	0.742743	0.408537	99
Es	1.074306	0.779630	-0.788730	99
Es	1.148252	0.894480	-0.538698	99
Es	0.659661	1.128376	-0.235462	99
Es	-2.188691	0.120765	0.361485	99
Es	-0.010923	1.390678	0.154659	99
Es	2.008769	-0.840411	-0.334111	99
Es	-0.441832	0.776496	0.217965	99
Es	0.631374	-0.786208	-0.184619	99
41
Properties=species:S:1:pos:R:3:Z:I:1 energy=-302.9727002984491 field_type=dipole dipole="0.000000 0.000000 0.000000" charge=0
C	-2.188602	0.120767	0.361465	6
C	-0.851112	0.141737	0.256305	6
C	-0.011042	1.390777	0.154725	6
N	1.148138	0.894627	-0.539185	7
C	1.267828	-0.454863	-0.438405	6
N	2.349118	-1.099743	-0.708025	7
C	0.001248	-1.094183	0.081455	6
H	-2.737602	-0.816153	0.375065	1
H	-2.765692	1.037657	0.429215	1
H	0.265878	1.751697	1.150135	1
H	-0.501392	2.185147	-0.413875	1
H	2.007178	1.427997	-0.539395	1
H	2.210718	-2.103233	-0.550675	1
H	-0.400992	-1.794863	-0.654365	1
H	0.206328	-1.587373	1.035555	1
Es	-0.010915	1.390674	0.154655	99
Es	1.148272	0.894429	-0.538633	99
Es	-2.585984	0.743418	0.408619	99
Es	-1.564684	0.142331	-0.010849	99
Es	-0.446517	-0.490660	0.185668	99
Es	2.348664	-1.099885	-0.707867	99
Es	1.081185	0.784690	-0.769665	99
Es	1.225997	0.325232	-0.421049	99
Es	-2.188695	0.120768	0.361475	99
Es	2.247345	-1.706506	-0.608216	99
Es	1.654540	1.211551	-0.523756	99
Es	-1.507823	0.125804	0.640324	99
Es	0.632313	-0.786973	-0.185018	99
Es	0.001262	-1.094107	0.081449	99
Es	0.655388	1.130672	-0.242619	99
Es	-0.442062	0.776401	0.219051	99
Es	0.139606	-1.416023	0.710269	99
Es	1.267717	-0.454709	-0.438409	99
Es	1.834069	-0.889918	-0.868503	99
Es	-0.850951	0.141740	0.256299	99
Es	-2.560969	-0.511495	0.371705	99
Es	0.171311	1.631847	0.832296	99
Es	-0.265973	-1.559928	-0.403149	99
Es	2.008966	-0.843316	-0.335742	99
Es	2.673690	-0.952382	-0.816957	99
Es	-0.350961	1.932848	-0.223737	99
41
Properties=species:S:1:pos:R:3:Z:I:1 energy=-302.9727002984491 field_type=dipole dipole="0.000000 0.000000 0.000000" charge=0
C	-2.188602	0.120767	0.361465	6
C	-0.851112	0.141737	0.256305	6
C	-0.011042	1.390777	0.154725	6
N	1.148138	0.894627	-0.539185	7
C	1.267828	-0.454863	-0.438405	6
N	2.349118	-1.099743	-0.708025	7
C	0.001248	-1.094183	0.081455	6
H	-2.737602	-0.816153	0.375065	1
H	-2.765692	1.037657	0.429215	1
H	0.265878	1.751697	1.150135	1
H	-0.501392	2.185147	-0.413875	1
H	2.007178	1.427997	-0.539395	1
H	2.210718	-2.103233	-0.550675	1
H	-0.400992	-1.794863	-0.654365	1
H	0.206328	-1.587373	1.035555	1
Es	-0.447139	-0.490694	0.185982	99
Es	2.247489	-1.705843	-0.608233	99
Es	-0.265310	-1.559956	-0.402062	99
Es	0.652506	1.131891	-0.248549	99
Es	-1.507788	0.125547	0.640140	99
Es	-0.351508	1.933373	-0.223426	99
Es	-2.188695	0.120768	0.361481	99
Es	-0.010923	1.390676	0.154649	99
Es	-2.560117	-0.510855	0.371459	99
Es	0.139075	-1.415499	0.708548	99
Es	1.267716	-0.454709	-0.438410	99
Es	-1.564823	0.142521	-0.010827	99
Es	1.832998	-0.889312	-0.868615	99
Es	2.674951	-0.951514	-0.815462	99
Es	-0.442191	0.776355	0.219774	99
Es	1.086250	0.788688	-0.756475	99
Es	0.170873	1.631021	0.831465	99
Es	1.223741	0.320725	-0.429863	99
Es	2.348650	-1.099884	-0.707861	99
Es	2.009023	-0.845319	-0.336906	99
Es	1.148305	0.894364	-0.538547	99
Es	0.001261	-1.094105	0.081446	99
Es	1.654858	1.210316	-0.522058	99
Es	-2.586750	0.743666	0.408873	99
Es	-0.850949	0.141740	0.256299	99
Es	0.633289	-0.787461	-0.185185	99
41
Properties=species:S:1:pos:R:3:Z:I:1 energy=-302.9727002984491 field_type=dipole dipole="0.000000 0.000000 0.000000" charge=0
C	-2.188602	0.120767	0.361465	6
C	-0.851112	0.141737	0.256305	6
C	-0.011042	1.390777	0.154725	6
N	1.148138	0.894627	-0.539185	7
C	1.267828	-0.454863	-0.438405	6
N	2.349118	-1.099743	-0.708025	7
C	0.001248	-1.094183	0.081455	6
H	-2.737602	-0.816153	0.375065	1
H	-2.765692	1.037657	0.429215	1
H	0.265878	1.751697	1.150135	1
H	-0.501392	2.185147	-0.413875	1
H	2.007178	1.427997	-0.539395	1
H	2.210718	-2.103233	-0.550675	1
H	-0.400992	-1.794863	-0.654365	1
H	0.206328	-1.587373	1.035555	1
Es	-0.010922	1.390675	0.154652	99
Es	-2.188696	0.120767	0.361490	99
Es	0.138677	-1.414912	0.706902	99
Es	-0.850952	0.141738	0.256300	99
Es	0.633967	-0.787914	-0.185185	99
Es	1.267715	-0.454708	-0.438412	99
Es	-0.447678	-0.490705	0.186391	99
Es	-1.564926	0.142724	-0.010868	99
Es	-1.507756	0.125344	0.640079	99
Es	-2.587448	0.743758	0.408986	99
Es	-0.352150	1.933594	-0.223377	99
Es	2.009867	-0.846619	-0.337771	99
Es	2.675363	-0.951103	-0.814941	99
Es	-0.264738	-1.560045	-0.401175	99
Es	0.170598	1.630557	0.830824	99
Es	2.247673	-1.705597	-0.608102	99
Es	1.088969	0.790407	-0.746735	99
Es	-0.442055	0.776197	0.220531	99
Es	2.348643	-1.099884	-0.707850	99
Es	1.831870	-0.888527	-0.868253	99
Es	-2.559359	-0.510265	0.371201	99
Es	0.650861	1.132546	-0.252209	99
Es	1.148354	0.894095	-0.538375	99
Es	0.001263	-1.094104	0.081449	99
Es	1.222515	0.318399	-0.435313	99
Es	1.655139	1.210085	-0.522600	99
41
Properties=species:S:1:pos:R:3:Z:I:1 energy=-302.9727002984491 field_type=dipole dipole="0.000000 0.000000 0.000000" charge=0
C	-2.188602	0.120767	0.361465	6
C	-0.851112	0.141737	0.256305	6
C	-0.011042	1.390777	0.154725	6
N	1.148138	0.894627	-0.539185	7
C	1.267828	-0.454863	-0.438405	6
N	2.349118	-1.099743	-0.708025	7
C	0.001248	-1.094183	0.081455	6
H	-2.737602	-0.816153	0.375065	1
H	-2.765692	1.037657	0.429215	1
H	0.265878	1.751697	1.150135	1
H	-0.501392	2.185147	-0.413875	1
H	2.007178	1.427997	-0.539395	1
H	2.210718	-2.103233	-0.550675	1
H	-0.400992	-1.794863	-0.654365	1
H	0.206328	-1.587373	1.035555	1
Es	-0.850951	0.141741	0.256301	99
Es	0.634517	-0.788414	-0.185193	99
Es	0.170258	1.629971	0.830102	99
Es	2.009398	-0.847039	-0.337793	99
Es	2.348620	-1.099867	-0.707856	99
Es	1.267715	-0.454710	-0.438413	99
Es	1.091598	0.792234	-0.737416	99
Es	-2.587955	0.743838	0.409056	99
Es	1.220801	0.315973	-0.441227	99
Es	-0.352554	1.933942	-0.223167	99
Es	1.831763	-0.888983	-0.868480	99
Es	-1.507850	0.125052	0.640318	99
Es	-0.010912	1.390676	0.154660	99
Es	-1.564890	0.142941	-0.010857	99
Es	-0.447879	-0.490648	0.186555	99
Es	-0.442154	0.776019	0.221067	99
Es	2.676095	-0.950820	-0.814553	99
Es	0.001263	-1.094105	0.081448	99
Es	-0.264281	-1.559896	-0.400526	99
Es	1.655463	1.209433	-0.522433	99
Es	0.649810	1.133247	-0.255433	99
Es	2.247787	-1.704866	-0.608097	99
Es	-2.558804	-0.509647	0.370709	99
Es	0.138301	-1.414612	0.705841	99
Es	1.148328	0.894277	-0.538463	99
Es	-2.188695	0.120768	0.361488	99
41
Properties=species:S:1:pos:R:3:Z:I:1 energy=-302.9727002984491 field_type=dipole dipole="0.000000 0.000000 0.000000" charge=0
C	-2.188602	0.120767	0.361465	6
C	-0.851112	0.141737	0.256305	6
C	-0.011042	1.390777	0.154725	6
N	1.148138	0.894627	-0.539185	7
C	1.267828	-0.454863	-0.438405	6
N	2.349118	-1.099743	-0.708025	7
C	0.001248	-1.094183	0.081455	6
H	-2.737602	-0.816153	0.375065	1
H	-2.765692	1.037657	0.429215	1
H	0.265878	1.751697	1.150135	1
H	-0.501392	2.185147	-0.413875	1
H	2.007178	1.427997	-0.539395	1
H	2.210718	-2.103233	-0.550675	1
H	-0.400992	-1.794863	-0.654365	1
H	0.206328	-1.587373	1.035555	1
Es	1.267715	-0.454709	-0.438413	99
Es	-0.850952	0.141739	0.256299	99
Es	-0.263820	-1.559777	-0.399969	99
Es	0.001262	-1.094106	0.081448	99
Es	2.676508	-0.950565	-0.814062	99
Es	0.137841	-1.414263	0.704634	99
Es	1.093818	0.794044	-0.730809	99
Es	2.247659	-1.704701	-0.608335	99
Es	0.648804	1.133672	-0.258254	99
Es	2.010673	-0.848775	-0.338666	99
Es	1.219751	0.314102	-0.446083	99
Es	-2.188696	0.120767	0.361488	99
Es	0.635153	-0.788617	-0.185010	99
Es	1.830333	-0.887583	-0.867731	99
Es	1.148310	0.894364	-0.538517	99
Es	-0.442081	0.775852	0.221087	99
Es	-0.352899	1.934142	-0.223032	99
Es	-0.448319	-0.490788	0.186761	99
Es	-0.010921	1.390675	0.154653	99
Es	-2.588486	0.743767	0.409227	99
Es	2.348643	-1.099893	-0.707857	99
Es	1.655417	1.208709	-0.521170	99
Es	0.170074	1.629561	0.829730	99
Es	-2.558221	-0.508980	0.370799	99
Es	-1.507918	0.125007	0.640635	99
Es	-1.564856	0.142859	-0.011215	99
41
Properties=species:S:1:pos:R:3:Z:I:1 energy=-302.9727002984491 field_type=dipole dipole="0.000000 0.000000 0.000000" charge=0
C	-2.188602	0.120767	0.361465	6
C	-0.851112	0.141737	0.256305	6
C	-0.011042	1.390777	0.154725	6
N	1.148138	0.894627	-0.539185	7
C	1.267828	-0.454863	-0.438405	6
N	2.349118	-1.099743	-0.708025	7
C	0.001248	-1.094183	0.081455	6
H	-2.737602	-0.816153	0.375065	1
H	-2.765692	1.037657	0.429215	1
H	0.265878	1.751697	1.150135	1
H	-0.501392	2.185147	-0.413875	1
H	2.007178	1.427997	-0.539395	1
H	2.210718	-2.103233	-0.550675	1
H	-0.400992	-1.794863	-0.654365	1
H	0.206328	-1.587373	1.035555	1
Es	1.219103	0.313314	-0.448688	99
Es	1.827940	-0.885852	-0.865794	99
Es	1.148361	0.893829	-0.538360	99
Es	-0.850951	0.141740	0.256300	99
Es	2.676379	-0.950419	-0.814913	99
Es	2.247856	-1.704584	-0.608263	99
Es	0.169831	1.629207	0.829241	99
Es	1.267715	-0.454710	-0.438414	99
Es	-0.353172	1.934306	-0.222912	99
Es	-1.507916	0.124870	0.640863	99
Es	-0.010920	1.390674	0.154652	99
Es	0.001263	-1.094105	0.081447	99
Es	0.137505	-1.413640	0.703590	99
Es	-0.442135	0.775706	0.221463	99
Es	-1.564887	0.143048	-0.011369	99
Es	0.635628	-0.789036	-0.184805	99
Es	2.013133	-0.850682	-0.339780	99
Es	0.648406	1.133951	-0.259761	99
Es	-2.188697	0.120767	0.361494	99
Es	1.655462	1.208437	-0.521407	99
Es	-0.263563	-1.560010	-0.399509	99
Es	-2.588927	0.743666	0.409298	99
Es	-2.557755	-0.508546	0.370641	99
Es	2.348650	-1.099891	-0.707857	99
Es	-0.448416	-0.490664	0.186798	99
Es	1.094897	0.795124	-0.726319	99
41
Properties=species:S:1:pos:R:3:Z:I:1 energy=-302.9727002984491 field_type=dipole dipole="0.000000 0.000000 0.000000" charge=0
C	-2.188602	0.120767	0.361465	6
C	-0.851112	0.141737	0.256305	6
C	-0.011042	1.390777	0.154725	6
N	1.148138	0.894627	-0.539185	7
C	1.267828	-0.454863	-0.438405	6
N	2.349118	-1.099743	-0.708025	7
C	0.001248	-1.094183	0.081455	6
H	-2.737602	-0.816153	0.375065	1
H	-2.765692	1.037657	0.429215	1
H	0.265878	1.751697	1.150135	1
H	-0.501392	2.185147	-0.413875	1
H	2.007178	1.427997	-0.539395	1
H	2.210718	-2.103233	-0.550675	1
H	-0.400992	-1.794863	-0.654365	1
H	0.206328	-1.587373	1.035555	1
Es	0.001263	-1.094105	0.081448	99
Es	-0.010916	1.390674	0.154655	99
Es	2.012991	-0.851643	-0.340283	99
Es	-1.507971	0.124794	0.640826	99
Es	1.827777	-0.885292	-0.865994	99
Es	0.647864	1.134220	-0.261676	99
Es	0.137015	-1.413260	0.702616	99
Es	-2.557341	-0.508146	0.370640	99
Es	-2.589279	0.743658	0.409381	99
Es	2.247611	-1.704335	-0.608737	99
Es	-0.850951	0.141739	0.256306	99
Es	2.348641	-1.099886	-0.707864	99
Es	1.148357	0.894024	-0.538414	99
Es	-0.442124	0.775681	0.221559	99
Es	-0.353433	1.934525	-0.222725	99
Es	1.655460	1.208004	-0.520797	99
Es	1.218537	0.312426	-0.451178	99
Es	-0.263358	-1.559927	-0.399024	99
Es	-2.188697	0.120767	0.361490	99
Es	0.636285	-0.789327	-0.184450	99
Es	-0.448539	-0.490723	0.186881	99
Es	1.096081	0.795752	-0.722389	99
Es	-1.564862	0.143069	-0.011391	99
Es	0.169659	1.628769	0.828969	99
Es	2.677006	-0.950243	-0.813793	99
Es	1.267715	-0.454712	-0.438416	99
41
Properties=species:S:1:pos:R:3:Z:I:1 energy=-302.9727002984491 field_type=dipole dipole="0.000000 0.000000 0.000000" charge=0
C	-2.188602	0.120767	0.361465	6
C	-0.851112	0.141737	0.256305	6
C	-0.011042	1.390777	0.154725	6
N	1.148138	0.894627	-0.539185	7
C	1.267828	-0.454863	-0.438405	6
N	2.349118	-1.099743	-0.708025	7
C	0.001248	-1.094183	0.081455	6
H	-2.737602	-0.816153	0.375065	1
H	-2.765692	1.037657	0.429215	1
H	0.265878	1.751697	1.150135	1
H	-0.501392	2.185147	-0.413875	1
H	2.007178	1.427997	-0.539395	1
H	2.210718	-2.103233	-0.550675	1
H	-0.400992	-1.794863	-0.654365	1
H	0.206328	-1.587373	1.035555	1
Es	-2.557105	-0.507865	0.370525	99
Es	-0.441814	0.775659	0.221839	99
Es	-0.850953	0.141739	0.256294	99
Es	-0.448708	-0.490680	0.186913	99
Es	2.247794	-1.704061	-0.608319	99
Es	-2.589472	0.743626	0.409595	99
Es	0.169500	1.628435	0.828645	99
Es	-2.188697	0.120768	0.361495	99
Es	2.348639	-1.099887	-0.707856	99
Es	0.001263	-1.094106	0.081449	99
Es	1.655439	1.207806	-0.520523	99
Es	1.827372	-0.885531	-0.865838	99
Es	2.677096	-0.950201	-0.814084	99
Es	2.013215	-0.851675	-0.340453	99
Es	1.097427	0.796415	-0.717352	99
Es	-0.263125	-1.559650	-0.398541	99
Es	-0.353871	1.934639	-0.222689	99
Es	0.636651	-0.789696	-0.184525	99
Es	0.647395	1.134180	-0.263077	99
Es	-1.565075	0.143241	-0.011666	99
Es	-0.010923	1.390676	0.154656	99
Es	-1.507810	0.124710	0.640905	99
Es	1.267715	-0.454709	-0.438414	99
Es	1.217829	0.311385	-0.454783	99
Es	1.148302	0.894406	-0.538543	99
Es	0.136703	-1.413121	0.701987	99
41
Properties=species:S:1:pos:R:3:Z:I:1 energy=-302.9727002984491 field_type=dipole dipole="0.000000 0.000000 0.000000" charge=0
C	-2.188602	0.120767	0.361465	6
C	-0.851112	0.141737	0.256305	6
C	-0.011042	1.390777	0.154725	6
N	1.148138	0.894627	-0.539185	7
C	1.267828	-0.454863	-0.438405	6
N	2.349118	-1.099743	-0.708025	7
C	0.001248	-1.094183	0.081455	6
H	-2.737602	-0.816153	0.375065	1
H	-2.765692	1.037657	0.429215	1
H	0.265878	1.751697	1.150135	1
H	-0.501392	2.185147	-0.413875	1
H	2.007178	1.427997	-0.539395	1
H	2.210718	-2.103233	-0.550675	1
H	-0.400992	-1.794863	-0.654365	1
H	0.206328	-1.587373	1.035555	1
Es	0.001259	-1.094108	0.081444	99
Es	2.348637	-1.099881	-0.707856	99
Es	1.655660	1.207439	-0.520590	99
Es	-2.188697	0.120768	0.361489	99
Es	0.136487	-1.412683	0.701306	99
Es	-0.010920	1.390674	0.154652	99
Es	-0.262922	-1.559774	-0.398166	99
Es	1.098149	0.797295	-0.714025	99
Es	-1.565103	0.143106	-0.011835	99
Es	-2.589841	0.743534	0.409541	99
Es	1.148363	0.894081	-0.538354	99
Es	1.216961	0.310768	-0.457274	99
Es	-0.441870	0.775558	0.222076	99
Es	0.647213	1.134439	-0.263931	99
Es	1.826524	-0.884746	-0.865144	99
Es	2.677529	-0.950295	-0.814044	99
Es	-0.448838	-0.490813	0.187071	99
Es	-2.556700	-0.507316	0.370539	99
Es	-0.850951	0.141739	0.256300	99
Es	-0.354044	1.934798	-0.222603	99
Es	0.169452	1.628240	0.828266	99
Es	2.247449	-1.703830	-0.608346	99
Es	-1.507793	0.124650	0.641040	99
Es	1.267714	-0.454711	-0.438419	99
Es	0.637062	-0.789795	-0.184362	99
Es	2.014011	-0.852635	-0.341136	99
41
Properties=species:S:1:pos:R:3:Z:I:1 energy=-302.9727002984491 field_type=dipole dipole="0.000000 0.000000 0.000000" charge=0
C	-2.188602	0.120767	0.361465	6
C	-0.851112	0.141737	0.256305	6
C	-0.011042	1.390777	0.154725	6
N	1.148138	0.894627	-0.539185	7
C	1.267828	-0.454863	-0.438405	6
N	2.349118	-1.099743	-0.708025	7
C	0.001248	-1.094183	0.081455	6
H	-2.737602	-0.816153	0.375065	1
H	-2.765692	1.037657	0.429215	1
H	0.265878	1.751697	1.150135	1
H	-0.501392	2.185147	-0.413875	1
H	2.007178	1.427997	-0.539395	1
H	2.210718	-2.103233	-0.550675	1
H	-0.400992	-1.794863	-0.654365	1
H	0.206328	-1.587373	1.035555	1
Es	2.248261	-1.704209	-0.609128	99
Es	2.348641	-1.099875	-0.707857	99
Es	-2.590054	0.743485	0.409652	99
Es	-0.448855	-0.490756	0.187084	99
Es	0.001263	-1.094105	0.081448	99
Es	-0.010921	1.390675	0.154650	99
Es	0.169273	1.628143	0.828160	99
Es	1.267716	-0.454709	-0.438412	99
Es	1.148153	0.894593	-0.539001	99
Es	-2.188696	0.120768	0.361498	99
Es	0.637616	-0.790204	-0.183907	99
Es	-0.262799	-1.559743	-0.397907	99
Es	-1.564899	0.143314	-0.011740	99
Es	-0.850952	0.141737	0.256301	99
Es	-0.441810	0.775469	0.222086	99
Es	-2.556460	-0.507158	0.370293	99
Es	-1.508025	0.124545	0.641225	99
Es	0.136023	-1.412304	0.700408	99
Es	1.655489	1.207630	-0.521052	99
Es	1.825754	-0.883771	-0.864438	99
Es	2.676924	-0.949536	-0.813488	99
Es	1.098601	0.796463	-0.711860	99
Es	1.217185	0.310737	-0.457247	99
Es	-0.354291	1.934662	-0.222638	99
Es	2.014685	-0.853857	-0.341668	99
Es	0.646972	1.134509	-0.264824	99
41
Properties=species:S:1:pos:R:3:Z:I:1 energy=-302.9727002984491 field_type=dipole dipole="0.000000 0.000000 0.000000" charge=0
C	-2.188602	0.120767	0.361465	6
C	-0.851112	0.141737	0.256305	6
C	-0.011042	1.390777	0.154725	6
N	1.148138	0.894627	-0.539185	7
C	1.267828	-0.454863	-0.438405	6
N	2.349118	-1.099743	-0.708025	7
C	0.001248	-1.094183	0.081455	6
H	-2.737602	-0.816153	0.375065	1
H	-2.765692	1.037657	0.429215	1
H	0.265878	1.751697	1.150135	1
H	-0.501392	2.185147	-0.413875	1
H	2.007178	1.427997	-0.539395	1
H	2.210718	-2.103233	-0.550675	1
H	-0.400992	-1.794863	-0.654365	1
H	0.206328	-1.587373	1.035555	1
Es	2.015700	-0.854687	-0.342581	99
Es	-0.354518	1.934890	-0.222444	99
Es	0.169186	1.627813	0.827706	99
Es	-2.188697	0.120768	0.361489	99
Es	0.646971	1.134698	-0.265333	99
Es	2.247691	-1.703741	-0.608768	99
Es	-0.262643	-1.559818	-0.397543	99
Es	-1.508083	0.124540	0.641227	99
Es	0.637861	-0.790361	-0.183810	99
Es	-0.850951	0.141740	0.256300	99
Es	0.135908	-1.411967	0.699959	99
Es	1.148314	0.894377	-0.538512	99
Es	1.216409	0.309982	-0.460017	99
Es	-0.010920	1.390674	0.154653	99
Es	-2.590246	0.743421	0.409654	99
Es	-0.449019	-0.490839	0.187028	99
Es	2.677529	-0.949955	-0.813879	99
Es	1.655482	1.206906	-0.519693	99
Es	1.267716	-0.454710	-0.438410	99
Es	1.824709	-0.883006	-0.863490	99
Es	-2.556240	-0.506860	0.370492	99
Es	-1.564832	0.143271	-0.011937	99
Es	0.001263	-1.094106	0.081448	99
Es	-0.441721	0.775447	0.222358	99
Es	1.099285	0.797913	-0.710399	99
Es	2.348637	-1.099888	-0.707859	99
41
Properties=species:S:1:pos:R:3:Z:I:1 energy=-302.9727002984491 field_type=dipole dipole="0.000000 0.000000 0.000000" charge=0
C	-2.188602	0.120767	0.361465	6
C	-0.851112	0.141737	0.256305	6
C	-0.011042	1.390777	0.154725	6
N	1.148138	0.894627	-0.539185	7
C	1.267828	-0.454863	-0.438405	6
N	2.349118	-1.099743	-0.708025	7
C	0.001248	-1.094183	0.081455	6
H	-2.737602	-0.816153	0.375065	1
H	-2.765692	1.037657	0.429215	1
H	0.265878	1.751697	1.150135	1
H	-0.501392	2.185147	-0.413875	1
H	2.007178	1.427997	-0.539395	1
H	2.210718	-2.103233	-0.550675	1
H	-0.400992	-1.794863	-0.654365	1
H	0.206328	-1.587373	1.035555	1
Es	-1.507986	0.124606	0.641278	99
Es	0.001263	-1.094103	0.081447	99
Es	1.655566	1.206777	-0.519615	99
Es	-0.448968	-0.490804	0.187012	99
Es	0.638058	-0.790571	-0.183612	99
Es	1.099875	0.797965	-0.708106	99
Es	1.823977	-0.882424	-0.862747	99
Es	-0.441726	0.775475	0.222176	99
Es	0.135635	-1.411841	0.699509	99
Es	1.267714	-0.454711	-0.438415	99
Es	-0.850952	0.141739	0.256297	99
Es	-0.262579	-1.559735	-0.397470	99
Es	-1.564917	0.143263	-0.011867	99
Es	0.169051	1.627441	0.827603	99
Es	2.348639	-1.099885	-0.707857	99
Es	-2.555948	-0.506623	0.370515	99
Es	-0.354592	1.935118	-0.222265	99
Es	0.646725	1.134724	-0.266261	99
Es	2.677595	-0.950113	-0.814271	99
Es	-2.590510	0.743339	0.409650	99
Es	2.016525	-0.855208	-0.343029	99
Es	-2.188697	0.120768	0.361489	99
Es	1.216112	0.309700	-0.461097	99
Es	-0.010918	1.390674	0.154653	99
Es	2.247598	-1.703578	-0.608672	99
Es	1.148252	0.894511	-0.538703	99
41
Properties=species:S:1:pos:R:3:Z:I:1 energy=-302.9727002984491 field_type=dipole dipole="0.000000 0.000000 0.000000" charge=0
C	-2.188602	0.120767	0.361465	6
C	-0.851112	0.141737	0.256305	6
C	-0.011042	1.390777	0.154725	6
N	1.148138	0.894627	-0.539185	7
C	1.267828	-0.454863	-0.438405	6
N	2.349118	-1.099743	-0.708025	7
C	0.001248	-1.094183	0.081455	6
H	-2.737602	-0.816153	0.375065	1
H	-2.765692	1.037657	0.429215	1
H	0.265878	1.751697	1.150135	1
H	-0.501392	2.185147	-0.413875	1
H	2.007178	1.427997	-0.539395	1
H	2.210718	-2.103233	-0.550675	1
H	-0.400992	-1.794863	-0.654365	1
H	0.206328	-1.587373	1.035555	1
Es	1.100300	0.798397	-0.705728	99
Es	-0.010924	1.390677	0.154658	99
Es	1.267715	-0.454710	-0.438413	99
Es	0.638418	-0.790817	-0.183569	99
Es	-0.354831	1.935149	-0.222236	99
Es	-2.590631	0.743335	0.409754	99
Es	0.168989	1.627301	0.827241	99
Es	0.001265	-1.094107	0.081451	99
Es	-1.564955	0.143334	-0.011965	99
Es	1.825281	-0.883672	-0.864384	99
Es	-2.555787	-0.506377	0.370321	99
Es	-0.441614	0.775428	0.222493	99
Es	2.677732	-0.949953	-0.813514	99
Es	1.655514	1.206837	-0.520015	99
Es	-0.850952	0.141737	0.256300	99
Es	1.215888	0.309345	-0.462341	99
Es	0.135408	-1.411614	0.698870	99
Es	2.247703	-1.703553	-0.608557	99
Es	-1.508009	0.124432	0.641296	99
Es	-2.188697	0.120768	0.361489	99
Es	-0.449125	-0.490861	0.187189	99
Es	1.148354	0.894139	-0.538353	99
Es	-0.262413	-1.559563	-0.397019	99
Es	0.646510	1.134871	-0.267251	99
Es	2.014997	-0.854132	-0.342221	99
Es	2.348654	-1.099890	-0.707859	99
