46
Properties=species:S:1:pos:R:3:Z:I:1 energy=-272.1038919581078 field_type=dipole dipole="0.000000 0.000000 0.000000" charge=0
C	-2.430393	-1.052102	0.874857	6
C	-0.939994	-1.025952	0.853227	6
C	-0.184184	-1.658892	-0.286503	6
C	-0.216734	-0.155552	-0.146453	6
C	1.007426	0.604738	0.275107	6
C	1.791496	1.160538	-0.880143	6
C	2.010487	2.465638	-1.083063	6
H	-2.811224	-0.234682	1.495157	1
H	-2.784994	-1.996562	1.298867	1
H	-2.858963	-0.946202	-0.127313	1
H	-0.523574	-1.124162	1.849727	1
H	-0.746264	-2.102872	-1.100573	1
H	0.734296	-2.185192	-0.051213	1
H	-0.822284	0.409108	-0.848203	1
H	1.674747	-0.039332	0.861287	1
H	0.693387	1.414668	0.944987	1
H	2.199226	0.438498	-1.584633	1
H	1.622726	3.221338	-0.406303	1
H	2.584816	2.806978	-1.938813	1
Es	0.793452	1.163098	0.726805	99
Es	1.396870	0.884409	-0.310220	99
Es	-2.716856	-0.979676	0.187828	99
Es	1.462026	0.162972	0.666782	99
Es	-0.609660	-1.519565	0.338602	99
Es	-0.644924	-1.089459	1.529087	99
Es	0.444592	-2.009384	-0.125840	99
Es	-0.939919	-1.025940	0.853074	99
Es	-0.087626	-0.896393	-0.377959	99
Es	-2.670704	-1.696668	1.164660	99
Es	-0.184229	-1.658754	-0.286423	99
Es	-0.572285	-1.959806	-0.836536	99
Es	-0.216737	-0.155712	-0.146388	99
Es	-0.631583	-0.431652	0.449836	99
Es	-2.430378	-1.052101	0.874857	99
Es	2.010501	2.465741	-1.083081	99
Es	1.628594	1.848355	-1.161662	99
Es	-1.685295	-1.038632	0.847562	99
Es	0.409243	0.214055	0.057168	99
Es	2.177202	1.810816	-0.807251	99
Es	2.400034	2.705385	-1.662060	99
Es	1.791468	1.160421	-0.880110	99
Es	1.748625	2.982955	-0.625298	99
Es	-2.688104	-0.493709	1.298642	99
Es	2.064766	0.662580	-1.354880	99
Es	1.007437	0.604736	0.275060	99
Es	-0.635656	0.220730	-0.623521	99
46
Properties=species:S:1:pos:R:3:Z:I:1 energy=-272.1038919581078 field_type=dipole dipole="0.000000 0.000000 0.000000" charge=0
C	-2.430393	-1.052102	0.874857	6
C	-0.939994	-1.025952	0.853227	6
C	-0.184184	-1.658892	-0.286503	6
C	-0.216734	-0.155552	-0.146453	6
C	1.007426	0.604738	0.275107	6
C	1.791496	1.160538	-0.880143	6
C	2.010487	2.465638	-1.083063	6
H	-2.811224	-0.234682	1.495157	1
H	-2.784994	-1.996562	1.298867	1
H	-2.858963	-0.946202	-0.127313	1
H	-0.523574	-1.124162	1.849727	1
H	-0.746264	-2.102872	-1.100573	1
H	0.734296	-2.185192	-0.051213	1
H	-0.822284	0.409108	-0.848203	1
H	1.674747	-0.039332	0.861287	1
H	0.693387	1.414668	0.944987	1
H	2.199226	0.438498	-1.584633	1
H	1.622726	3.221338	-0.406303	1
H	2.584816	2.806978	-1.938813	1
Es	-1.685514	-1.038739	0.847272	99
Es	0.409648	0.214317	0.058080	99
Es	0.442245	-2.009980	-0.125675	99
Es	1.748060	2.982969	-0.625033	99
Es	-0.571604	-1.960547	-0.834298	99
Es	2.176060	1.810818	-0.808092	99
Es	-0.086412	-0.893133	-0.379547	99
Es	-2.687340	-0.491466	1.297812	99
Es	1.629805	1.848481	-1.160638	99
Es	-0.630527	-0.426719	0.448475	99
Es	1.007436	0.604736	0.275064	99
Es	2.399620	2.705321	-1.662978	99
Es	1.791467	1.160418	-0.880108	99
Es	0.792734	1.163251	0.727573	99
Es	-0.216736	-0.155707	-0.146386	99
Es	-0.939917	-1.025948	0.853071	99
Es	-0.184230	-1.658744	-0.286424	99
Es	1.397224	0.884199	-0.310735	99
Es	-0.646738	-1.090174	1.527583	99
Es	2.010515	2.465749	-1.083076	99
Es	-2.671375	-1.700231	1.164964	99
Es	-0.610215	-1.525507	0.338804	99
Es	-2.714128	-0.979002	0.189563	99
Es	-0.635446	0.221118	-0.622640	99
Es	-2.430376	-1.052100	0.874853	99
Es	2.065370	0.662711	-1.354998	99
Es	1.461232	0.162713	0.666247	99
46
Properties=species:S:1:pos:R:3:Z:I:1 energy=-272.1038919581078 field_type=dipole dipole="0.000000 0.000000 0.000000" charge=0
C	-2.430393	-1.052102	0.874857	6
C	-0.939994	-1.025952	0.853227	6
C	-0.184184	-1.658892	-0.286503	6
C	-0.216734	-0.155552	-0.146453	6
C	1.007426	0.604738	0.275107	6
C	1.791496	1.160538	-0.880143	6
C	2.010487	2.465638	-1.083063	6
H	-2.811224	-0.234682	1.495157	1
H	-2.784994	-1.996562	1.298867	1
H	-2.858963	-0.946202	-0.127313	1
H	-0.523574	-1.124162	1.849727	1
H	-0.746264	-2.102872	-1.100573	1
H	0.734296	-2.185192	-0.051213	1
H	-0.822284	0.409108	-0.848203	1
H	1.674747	-0.039332	0.861287	1
H	0.693387	1.414668	0.944987	1
H	2.199226	0.438498	-1.584633	1
H	1.622726	3.221338	-0.406303	1
H	2.584816	2.806978	-1.938813	1
Es	2.175403	1.810838	-0.808632	99
Es	1.007437	0.604736	0.275060	99
Es	0.792343	1.163259	0.728268	99
Es	1.397677	0.883985	-0.311025	99
Es	1.460377	0.162724	0.665715	99
Es	-0.610506	-1.529196	0.338577	99
Es	1.630549	1.848526	-1.160027	99
Es	1.791470	1.160418	-0.880107	99
Es	0.440578	-2.010188	-0.125528	99
Es	-2.712171	-0.978868	0.190911	99
Es	-2.430379	-1.052100	0.874857	99
Es	-2.686835	-0.489787	1.297218	99
Es	-0.630245	-0.422838	0.448057	99
Es	-0.648057	-1.090578	1.526444	99
Es	2.399527	2.705289	-1.663414	99
Es	2.010503	2.465748	-1.083082	99
Es	-0.635266	0.221195	-0.622334	99
Es	-2.671292	-1.702462	1.164969	99
Es	-0.570955	-1.960852	-0.832856	99
Es	0.409930	0.214364	0.058430	99
Es	1.747765	2.982944	-0.624862	99
Es	2.065558	0.662906	-1.355168	99
Es	-0.184229	-1.658754	-0.286425	99
Es	-0.939919	-1.025941	0.853072	99
Es	-0.085878	-0.892030	-0.379940	99
Es	-0.216731	-0.155706	-0.146393	99
Es	-1.685798	-1.038827	0.846950	99
46
Properties=species:S:1:pos:R:3:Z:I:1 energy=-272.1038919581078 field_type=dipole dipole="0.000000 0.000000 0.000000" charge=0
C	-2.430393	-1.052102	0.874857	6
C	-0.939994	-1.025952	0.853227	6
C	-0.184184	-1.658892	-0.286503	6
C	-0.216734	-0.155552	-0.146453	6
C	1.007426	0.604738	0.275107	6
C	1.791496	1.160538	-0.880143	6
C	2.010487	2.465638	-1.083063	6
H	-2.811224	-0.234682	1.495157	1
H	-2.784994	-1.996562	1.298867	1
H	-2.858963	-0.946202	-0.127313	1
H	-0.523574	-1.124162	1.849727	1
H	-0.746264	-2.102872	-1.100573	1
H	0.734296	-2.185192	-0.051213	1
H	-0.822284	0.409108	-0.848203	1
H	1.674747	-0.039332	0.861287	1
H	0.693387	1.414668	0.944987	1
H	2.199226	0.438498	-1.584633	1
H	1.622726	3.221338	-0.406303	1
H	2.584816	2.806978	-1.938813	1
Es	-0.939911	-1.025942	0.853067	99
Es	1.791459	1.160416	-0.880111	99
Es	-0.570484	-1.961099	-0.831787	99
Es	1.459819	0.162537	0.665496	99
Es	2.010504	2.465747	-1.083081	99
Es	-1.686072	-1.038904	0.846901	99
Es	1.397935	0.883758	-0.311243	99
Es	-2.671206	-1.703900	1.164958	99
Es	-2.686389	-0.488410	1.296548	99
Es	2.174998	1.810820	-0.808859	99
Es	-0.630070	-0.420170	0.447889	99
Es	-0.085628	-0.891309	-0.380267	99
Es	-0.216732	-0.155704	-0.146392	99
Es	-0.635133	0.221152	-0.622014	99
Es	1.747560	2.982794	-0.624824	99
Es	-0.610750	-1.532091	0.338753	99
Es	-0.184229	-1.658750	-0.286426	99
Es	2.065737	0.663114	-1.355137	99
Es	0.410340	0.214701	0.058586	99
Es	-2.710542	-0.978954	0.191957	99
Es	1.630957	1.848630	-1.159697	99
Es	2.399452	2.705367	-1.663810	99
Es	1.007438	0.604736	0.275060	99
Es	-2.430376	-1.052098	0.874859	99
Es	0.791975	1.163236	0.728611	99
Es	0.439336	-2.010053	-0.125604	99
Es	-0.649132	-1.090819	1.525301	99
46
Properties=species:S:1:pos:R:3:Z:I:1 energy=-272.1038919581078 field_type=dipole dipole="0.000000 0.000000 0.000000" charge=0
C	-2.430393	-1.052102	0.874857	6
C	-0.939994	-1.025952	0.853227	6
C	-0.184184	-1.658892	-0.286503	6
C	-0.216734	-0.155552	-0.146453	6
C	1.007426	0.604738	0.275107	6
C	1.791496	1.160538	-0.880143	6
C	2.010487	2.465638	-1.083063	6
H	-2.811224	-0.234682	1.495157	1
H	-2.784994	-1.996562	1.298867	1
H	-2.858963	-0.946202	-0.127313	1
H	-0.523574	-1.124162	1.849727	1
H	-0.746264	-2.102872	-1.100573	1
H	0.734296	-2.185192	-0.051213	1
H	-0.822284	0.409108	-0.848203	1
H	1.674747	-0.039332	0.861287	1
H	0.693387	1.414668	0.944987	1
H	2.199226	0.438498	-1.584633	1
H	1.622726	3.221338	-0.406303	1
H	2.584816	2.806978	-1.938813	1
Es	-0.629997	-0.418194	0.447713	99
Es	-0.635002	0.221270	-0.621824	99
Es	-0.611092	-1.534269	0.339040	99
Es	1.747354	2.982702	-0.624757	99
Es	0.791739	1.163132	0.728948	99
Es	0.438362	-2.010094	-0.125716	99
Es	0.410578	0.214685	0.058852	99
Es	2.010494	2.465748	-1.083088	99
Es	-0.216731	-0.155704	-0.146392	99
Es	1.459410	0.162541	0.665223	99
Es	-0.650131	-1.090913	1.524518	99
Es	-0.184231	-1.658746	-0.286425	99
Es	-0.939913	-1.025944	0.853062	99
Es	2.399553	2.705415	-1.663951	99
Es	1.791470	1.160417	-0.880106	99
Es	1.398051	0.883618	-0.311415	99
Es	2.174602	1.810795	-0.809102	99
Es	-2.430377	-1.052101	0.874857	99
Es	-0.570098	-1.961074	-0.830778	99
Es	-1.686010	-1.038967	0.846418	99
Es	1.631340	1.848675	-1.159596	99
Es	2.065837	0.663334	-1.355126	99
Es	1.007435	0.604735	0.275060	99
Es	-2.685985	-0.487295	1.296112	99
Es	-2.671114	-1.705054	1.164613	99
Es	-2.709298	-0.978969	0.193245	99
Es	-0.085388	-0.890939	-0.380654	99
46
Properties=species:S:1:pos:R:3:Z:I:1 energy=-272.1038919581078 field_type=dipole dipole="0.000000 0.000000 0.000000" charge=0
C	-2.430393	-1.052102	0.874857	6
C	-0.939994	-1.025952	0.853227	6
C	-0.184184	-1.658892	-0.286503	6
C	-0.216734	-0.155552	-0.146453	6
C	1.007426	0.604738	0.275107	6
C	1.791496	1.160538	-0.880143	6
C	2.010487	2.465638	-1.083063	6
H	-2.811224	-0.234682	1.495157	1
H	-2.784994	-1.996562	1.298867	1
H	-2.858963	-0.946202	-0.127313	1
H	-0.523574	-1.124162	1.849727	1
H	-0.746264	-2.102872	-1.100573	1
H	0.734296	-2.185192	-0.051213	1
H	-0.822284	0.409108	-0.848203	1
H	1.674747	-0.039332	0.861287	1
H	0.693387	1.414668	0.944987	1
H	2.199226	0.438498	-1.584633	1
H	1.622726	3.221338	-0.406303	1
H	2.584816	2.806978	-1.938813	1
Es	-0.939914	-1.025943	0.853063	99
Es	-0.569631	-1.961118	-0.829971	99
Es	-2.671043	-1.705897	1.164387	99
Es	-1.686136	-1.039057	0.846362	99
Es	-0.216730	-0.155700	-0.146393	99
Es	2.065871	0.663550	-1.355164	99
Es	0.437411	-2.009902	-0.125792	99
Es	-2.430375	-1.052101	0.874857	99
Es	2.399500	2.705537	-1.664228	99
Es	1.747205	2.982520	-0.624772	99
Es	-0.650817	-1.090941	1.523699	99
Es	2.010502	2.465747	-1.083083	99
Es	1.791468	1.160417	-0.880106	99
Es	-0.634953	0.221163	-0.621609	99
Es	-2.685475	-0.486421	1.295690	99
Es	-0.085231	-0.890896	-0.380905	99
Es	0.410808	0.214998	0.058990	99
Es	1.631578	1.848505	-1.159207	99
Es	2.174534	1.811025	-0.809244	99
Es	-0.184226	-1.658743	-0.286428	99
Es	-0.611481	-1.536167	0.339271	99
Es	1.007436	0.604736	0.275059	99
Es	0.791593	1.163081	0.729086	99
Es	-0.630011	-0.416469	0.447555	99
Es	1.459094	0.162439	0.665123	99
Es	-2.708217	-0.978955	0.194111	99
Es	1.398094	0.883397	-0.311616	99
46
Properties=species:S:1:pos:R:3:Z:I:1 energy=-272.1038919581078 field_type=dipole dipole="0.000000 0.000000 0.000000" charge=0
C	-2.430393	-1.052102	0.874857	6
C	-0.939994	-1.025952	0.853227	6
C	-0.184184	-1.658892	-0.286503	6
C	-0.216734	-0.155552	-0.146453	6
C	1.007426	0.604738	0.275107	6
C	1.791496	1.160538	-0.880143	6
C	2.010487	2.465638	-1.083063	6
H	-2.811224	-0.234682	1.495157	1
H	-2.784994	-1.996562	1.298867	1
H	-2.858963	-0.946202	-0.127313	1
H	-0.523574	-1.124162	1.849727	1
H	-0.746264	-2.102872	-1.100573	1
H	0.734296	-2.185192	-0.051213	1
H	-0.822284	0.409108	-0.848203	1
H	1.674747	-0.039332	0.861287	1
H	0.693387	1.414668	0.944987	1
H	2.199226	0.438498	-1.584633	1
H	1.622726	3.221338	-0.406303	1
H	2.584816	2.806978	-1.938813	1
Es	1.791463	1.160415	-0.880109	99
Es	0.791373	1.162872	0.729276	99
Es	-0.085075	-0.890546	-0.381205	99
Es	-0.216733	-0.155701	-0.146390	99
Es	0.436793	-2.009902	-0.125846	99
Es	2.010504	2.465748	-1.083081	99
Es	2.399568	2.705646	-1.664388	99
Es	1.747190	2.982351	-0.624740	99
Es	-2.707070	-0.979136	0.195026	99
Es	1.458703	0.162324	0.665022	99
Es	-2.430376	-1.052101	0.874856	99
Es	2.065947	0.663821	-1.355145	99
Es	-2.670969	-1.706569	1.164112	99
Es	-1.686284	-1.039183	0.846315	99
Es	-0.651465	-1.090952	1.522965	99
Es	-0.630188	-0.415422	0.447698	99
Es	1.007436	0.604737	0.275060	99
Es	2.174195	1.810804	-0.809282	99
Es	1.631763	1.848769	-1.159194	99
Es	-0.939911	-1.025947	0.853059	99
Es	-0.184231	-1.658743	-0.286422	99
Es	-0.569329	-1.961026	-0.829333	99
Es	0.411141	0.215335	0.059036	99
Es	-0.634908	0.221036	-0.621416	99
Es	1.398292	0.883282	-0.311732	99
Es	-0.611742	-1.537578	0.339453	99
Es	-2.685231	-0.485531	1.295141	99
46
Properties=species:S:1:pos:R:3:Z:I:1 energy=-272.1038919581078 field_type=dipole dipole="0.000000 0.000000 0.000000" charge=0
C	-2.430393	-1.052102	0.874857	6
C	-0.939994	-1.025952	0.853227	6
C	-0.184184	-1.658892	-0.286503	6
C	-0.216734	-0.155552	-0.146453	6
C	1.007426	0.604738	0.275107	6
C	1.791496	1.160538	-0.880143	6
C	2.010487	2.465638	-1.083063	6
H	-2.811224	-0.234682	1.495157	1
H	-2.784994	-1.996562	1.298867	1
H	-2.858963	-0.946202	-0.127313	1
H	-0.523574	-1.124162	1.849727	1
H	-0.746264	-2.102872	-1.100573	1
H	0.734296	-2.185192	-0.051213	1
H	-0.822284	0.409108	-0.848203	1
H	1.674747	-0.039332	0.861287	1
H	0.693387	1.414668	0.944987	1
H	2.199226	0.438498	-1.584633	1
H	1.622726	3.221338	-0.406303	1
H	2.584816	2.806978	-1.938813	1
Es	-2.670833	-1.707061	1.163992	99
Es	-1.686510	-1.039178	0.846140	99
Es	1.791468	1.160417	-0.880107	99
Es	2.399633	2.705764	-1.664516	99
Es	1.458408	0.162203	0.664969	99
Es	-0.630101	-0.414456	0.447805	99
Es	1.398348	0.883233	-0.311859	99
Es	0.411305	0.215649	0.059058	99
Es	-2.430367	-1.052101	0.874856	99
Es	-0.216731	-0.155702	-0.146391	99
Es	-0.085010	-0.890392	-0.381363	99
Es	-0.939913	-1.025942	0.853060	99
Es	0.791279	1.162740	0.729378	99
Es	-0.184230	-1.658745	-0.286424	99
Es	0.436203	-2.009682	-0.125982	99
Es	2.065936	0.663957	-1.355108	99
Es	-2.684846	-0.484761	1.294669	99
Es	-0.634859	0.220898	-0.621299	99
Es	-0.652132	-1.090943	1.522269	99
Es	2.010503	2.465748	-1.083082	99
Es	1.747158	2.982184	-0.624728	99
Es	1.632016	1.848944	-1.159162	99
Es	-2.706240	-0.979324	0.195760	99
Es	1.007435	0.604736	0.275060	99
Es	-0.568998	-1.961017	-0.828775	99
Es	2.173959	1.810656	-0.809317	99
Es	-0.612024	-1.539020	0.339832	99
46
Properties=species:S:1:pos:R:3:Z:I:1 energy=-272.1038919581078 field_type=dipole dipole="0.000000 0.000000 0.000000" charge=0
C	-2.430393	-1.052102	0.874857	6
C	-0.939994	-1.025952	0.853227	6
C	-0.184184	-1.658892	-0.286503	6
C	-0.216734	-0.155552	-0.146453	6
C	1.007426	0.604738	0.275107	6
C	1.791496	1.160538	-0.880143	6
C	2.010487	2.465638	-1.083063	6
H	-2.811224	-0.234682	1.495157	1
H	-2.784994	-1.996562	1.298867	1
H	-2.858963	-0.946202	-0.127313	1
H	-0.523574	-1.124162	1.849727	1
H	-0.746264	-2.102872	-1.100573	1
H	0.734296	-2.185192	-0.051213	1
H	-0.822284	0.409108	-0.848203	1
H	1.674747	-0.039332	0.861287	1
H	0.693387	1.414668	0.944987	1
H	2.199226	0.438498	-1.584633	1
H	1.622726	3.221338	-0.406303	1
H	2.584816	2.806978	-1.938813	1
Es	1.398406	0.883222	-0.312079	99
Es	-0.184219	-1.658746	-0.286418	99
Es	0.411648	0.216020	0.059057	99
Es	-2.705450	-0.979469	0.196528	99
Es	1.791467	1.160417	-0.880106	99
Es	-0.652742	-1.090866	1.521649	99
Es	2.399625	2.705875	-1.664618	99
Es	1.007436	0.604735	0.275060	99
Es	-0.216729	-0.155704	-0.146392	99
Es	2.174026	1.810924	-0.809368	99
Es	-0.085006	-0.890354	-0.381563	99
Es	1.458141	0.162080	0.664915	99
Es	-2.670782	-1.707487	1.163778	99
Es	0.791094	1.162452	0.729499	99
Es	-2.430377	-1.052101	0.874857	99
Es	1.747043	2.982052	-0.624768	99
Es	-0.634896	0.220737	-0.621092	99
Es	1.632010	1.848703	-1.159018	99
Es	-0.939910	-1.025940	0.853060	99
Es	-2.684549	-0.484111	1.294218	99
Es	0.435695	-2.009480	-0.126244	99
Es	-0.630085	-0.413614	0.447864	99
Es	2.066013	0.664190	-1.355075	99
Es	-0.568717	-1.960905	-0.828260	99
Es	-0.612341	-1.540386	0.340328	99
Es	2.010505	2.465748	-1.083081	99
Es	-1.686449	-1.039191	0.846001	99
46
Properties=species:S:1:pos:R:3:Z:I:1 energy=-272.1038919581078 field_type=dipole dipole="0.000000 0.000000 0.000000" charge=0
C	-2.430393	-1.052102	0.874857	6
C	-0.939994	-1.025952	0.853227	6
C	-0.184184	-1.658892	-0.286503	6
C	-0.216734	-0.155552	-0.146453	6
C	1.007426	0.604738	0.275107	6
C	1.791496	1.160538	-0.880143	6
C	2.010487	2.465638	-1.083063	6
H	-2.811224	-0.234682	1.495157	1
H	-2.784994	-1.996562	1.298867	1
H	-2.858963	-0.946202	-0.127313	1
H	-0.523574	-1.124162	1.849727	1
H	-0.746264	-2.102872	-1.100573	1
H	0.734296	-2.185192	-0.051213	1
H	-0.822284	0.409108	-0.848203	1
H	1.674747	-0.039332	0.861287	1
H	0.693387	1.414668	0.944987	1
H	2.199226	0.438498	-1.584633	1
H	1.622726	3.221338	-0.406303	1
H	2.584816	2.806978	-1.938813	1
Es	1.457880	0.161839	0.664948	99
Es	-2.430377	-1.052101	0.874858	99
Es	2.065985	0.664368	-1.355053	99
Es	-0.634847	0.220592	-0.621053	99
Es	-0.216726	-0.155705	-0.146397	99
Es	2.010504	2.465748	-1.083082	99
Es	-0.184233	-1.658745	-0.286427	99
Es	0.791002	1.162401	0.729521	99
Es	-2.684303	-0.483497	1.293735	99
Es	-0.568393	-1.960725	-0.827842	99
Es	1.007436	0.604736	0.275060	99
Es	1.632066	1.848676	-1.158951	99
Es	1.791468	1.160417	-0.880105	99
Es	-2.704663	-0.979649	0.197198	99
Es	2.173947	1.810968	-0.809470	99
Es	0.411872	0.216445	0.059062	99
Es	-2.670822	-1.707796	1.163594	99
Es	1.747062	2.981870	-0.624727	99
Es	-0.653222	-1.090746	1.521181	99
Es	0.435242	-2.009482	-0.126250	99
Es	-0.612703	-1.541402	0.340537	99
Es	-0.084900	-0.890359	-0.381596	99
Es	2.399691	2.706019	-1.664701	99
Es	-0.630249	-0.412883	0.447837	99
Es	-1.686408	-1.039299	0.845956	99
Es	-0.939911	-1.025942	0.853058	99
Es	1.398457	0.883055	-0.312156	99
46
Properties=species:S:1:pos:R:3:Z:I:1 energy=-272.1038919581078 field_type=dipole dipole="0.000000 0.000000 0.000000" charge=0
C	-2.430393	-1.052102	0.874857	6
C	-0.939994	-1.025952	0.853227	6
C	-0.184184	-1.658892	-0.286503	6
C	-0.216734	-0.155552	-0.146453	6
C	1.007426	0.604738	0.275107	6
C	1.791496	1.160538	-0.880143	6
C	2.010487	2.465638	-1.083063	6
H	-2.811224	-0.234682	1.495157	1
H	-2.784994	-1.996562	1.298867	1
H	-2.858963	-0.946202	-0.127313	1
H	-0.523574	-1.124162	1.849727	1
H	-0.746264	-2.102872	-1.100573	1
H	0.734296	-2.185192	-0.051213	1
H	-0.822284	0.409108	-0.848203	1
H	1.674747	-0.039332	0.861287	1
H	0.693387	1.414668	0.944987	1
H	2.199226	0.438498	-1.584633	1
H	1.622726	3.221338	-0.406303	1
H	2.584816	2.806978	-1.938813	1
Es	1.007436	0.604736	0.275059	99
Es	-0.653766	-1.090680	1.520678	99
Es	0.791025	1.162208	0.729608	99
Es	-2.704011	-0.979811	0.197713	99
Es	1.457644	0.161727	0.664888	99
Es	-1.686585	-1.039254	0.845845	99
Es	2.066034	0.664552	-1.355132	99
Es	1.746969	2.981693	-0.624720	99
Es	-0.184230	-1.658742	-0.286423	99
Es	-2.430376	-1.052101	0.874857	99
Es	-0.630084	-0.412350	0.447859	99
Es	1.398560	0.882992	-0.312283	99
Es	-0.085072	-0.890264	-0.381668	99
Es	0.434940	-2.009329	-0.126418	99
Es	-0.216732	-0.155702	-0.146394	99
Es	-0.568112	-1.960595	-0.827464	99
Es	-2.684064	-0.482976	1.293360	99
Es	-0.613006	-1.542509	0.340971	99
Es	1.791467	1.160417	-0.880106	99
Es	2.010504	2.465748	-1.083082	99
Es	-0.634864	0.220362	-0.620852	99
Es	1.632270	1.848838	-1.158850	99
Es	0.412039	0.216851	0.059001	99
Es	2.399764	2.706159	-1.664787	99
Es	-2.670687	-1.708080	1.163452	99
Es	-0.939899	-1.025936	0.853061	99
Es	2.173693	1.810849	-0.809439	99
46
Properties=species:S:1:pos:R:3:Z:I:1 energy=-272.1038919581078 field_type=dipole dipole="0.000000 0.000000 0.000000" charge=0
C	-2.430393	-1.052102	0.874857	6
C	-0.939994	-1.025952	0.853227	6
C	-0.184184	-1.658892	-0.286503	6
C	-0.216734	-0.155552	-0.146453	6
C	1.007426	0.604738	0.275107	6
C	1.791496	1.160538	-0.880143	6
C	2.010487	2.465638	-1.083063	6
H	-2.811224	-0.234682	1.495157	1
H	-2.784994	-1.996562	1.298867	1
H	-2.858963	-0.946202	-0.127313	1
H	-0.523574	-1.124162	1.849727	1
H	-0.746264	-2.102872	-1.100573	1
H	0.734296	-2.185192	-0.051213	1
H	-0.822284	0.409108	-0.848203	1
H	1.674747	-0.039332	0.861287	1
H	0.693387	1.414668	0.944987	1
H	2.199226	0.438498	-1.584633	1
H	1.622726	3.221338	-0.406303	1
H	2.584816	2.806978	-1.938813	1
Es	-0.654188	-1.090593	1.520298	99
Es	0.412207	0.217597	0.058811	99
Es	-0.084798	-0.890393	-0.381865	99
Es	1.398504	0.882967	-0.312324	99
Es	-1.686742	-1.039336	0.845852	99
Es	-0.613297	-1.543265	0.341347	99
Es	-0.184229	-1.658744	-0.286424	99
Es	-2.670641	-1.708291	1.163364	99
Es	2.010504	2.465748	-1.083081	99
Es	-0.634883	0.220005	-0.620671	99
Es	2.399831	2.706288	-1.664778	99
Es	2.173734	1.810964	-0.809475	99
Es	-0.216729	-0.155702	-0.146390	99
Es	1.791467	1.160417	-0.880106	99
Es	1.007434	0.604737	0.275058	99
Es	1.746992	2.981553	-0.624742	99
Es	1.457429	0.161350	0.664866	99
Es	-0.630144	-0.411819	0.447893	99
Es	-0.939934	-1.025941	0.853049	99
Es	1.632189	1.848708	-1.158994	99
Es	-2.430376	-1.052101	0.874858	99
Es	2.066081	0.664762	-1.354956	99
Es	0.434503	-2.009285	-0.126530	99
Es	-2.683856	-0.482437	1.292886	99
Es	0.790964	1.162036	0.729700	99
Es	-0.567870	-1.960401	-0.827098	99
Es	-2.703295	-0.980023	0.198185	99
46
Properties=species:S:1:pos:R:3:Z:I:1 energy=-272.1038919581078 field_type=dipole dipole="0.000000 0.000000 0.000000" charge=0
C	-2.430393	-1.052102	0.874857	6
C	-0.939994	-1.025952	0.853227	6
C	-0.184184	-1.658892	-0.286503	6
C	-0.216734	-0.155552	-0.146453	6
C	1.007426	0.604738	0.275107	6
C	1.791496	1.160538	-0.880143	6
C	2.010487	2.465638	-1.083063	6
H	-2.811224	-0.234682	1.495157	1
H	-2.784994	-1.996562	1.298867	1
H	-2.858963	-0.946202	-0.127313	1
H	-0.523574	-1.124162	1.849727	1
H	-0.746264	-2.102872	-1.100573	1
H	0.734296	-2.185192	-0.051213	1
H	-0.822284	0.409108	-0.848203	1
H	1.674747	-0.039332	0.861287	1
H	0.693387	1.414668	0.944987	1
H	2.199226	0.438498	-1.584633	1
H	1.622726	3.221338	-0.406303	1
H	2.584816	2.806978	-1.938813	1
Es	-0.613400	-1.544052	0.341545	99
Es	2.399918	2.706443	-1.664828	99
Es	-0.939896	-1.025938	0.853065	99
Es	1.791467	1.160417	-0.880106	99
Es	-0.654884	-1.090639	1.520172	99
Es	0.412600	0.218643	0.058506	99
Es	-0.567570	-1.960336	-0.826837	99
Es	2.173513	1.810703	-0.809340	99
Es	-0.184233	-1.658758	-0.286426	99
Es	-0.084989	-0.890541	-0.381796	99
Es	1.457126	0.160860	0.664914	99
Es	-0.630084	-0.411189	0.447989	99
Es	1.398571	0.882907	-0.312353	99
Es	0.790854	1.161928	0.729733	99
Es	-0.634905	0.219470	-0.620391	99
Es	1.746952	2.981365	-0.624794	99
Es	-2.702697	-0.980134	0.198716	99
Es	-0.216732	-0.155701	-0.146393	99
Es	2.010499	2.465749	-1.083086	99
Es	-2.430381	-1.052101	0.874851	99
Es	1.632373	1.848994	-1.159087	99
Es	-2.683743	-0.482067	1.292499	99
Es	2.066094	0.664911	-1.354907	99
Es	0.434226	-2.009042	-0.126653	99
Es	-2.670663	-1.708502	1.163175	99
Es	1.007434	0.604737	0.275059	99
Es	-1.686592	-1.039324	0.845507	99
