48
Properties=species:S:1:pos:R:3:Z:I:1 energy=-289.28007317184904 field_type=dipole dipole="0.000000 0.000000 0.000000" charge=0
C	-1.401532	-2.044346	0.959370	6
C	-1.261022	-1.588756	-0.484040	6
C	-0.035932	-0.748036	-0.681250	6
C	-0.067682	0.437104	-1.616330	6
N	-0.027582	0.620914	-0.167110	7
C	1.284178	1.017653	0.351410	6
C	1.221498	2.464254	0.818570	6
H	-2.267772	-2.704376	1.068890	1
H	-1.540092	-1.188516	1.629460	1
H	-0.509912	-2.587616	1.291500	1
H	-2.165832	-1.045136	-0.779120	1
H	-1.191602	-2.467247	-1.135260	1
H	0.878758	-1.327127	-0.615880	1
H	-1.004052	0.702193	-2.093210	1
H	0.816528	0.662934	-2.199360	1
H	2.093658	0.910594	-0.382390	1
H	1.542298	0.384323	1.209420	1
H	0.967368	3.138134	-0.005580	1
H	2.192528	2.772103	1.220520	1
H	0.476198	2.590954	1.610390	1
Es	0.540084	0.597948	-2.007292	99
Es	1.838665	0.937968	-0.164750	99
Es	-1.325398	-1.817149	0.240590	99
Es	-1.260998	-1.588761	-0.484006	99
Es	-0.319027	0.740922	-0.001592	99
Es	-1.401522	-2.044353	0.959348	99
Es	-0.027108	0.620644	-0.167459	99
Es	-0.035944	-0.747794	-0.681239	99
Es	1.459220	0.579556	0.939246	99
Es	1.049717	2.920091	0.252666	99
Es	-0.067664	0.437081	-1.616093	99
Es	-0.009368	-0.028219	-0.258186	99
Es	-0.787848	-2.417260	1.181385	99
Es	-0.704734	0.616352	-1.944177	99
Es	1.889656	2.670865	1.091124	99
Es	0.555740	0.774369	0.025943	99
Es	-1.993060	-2.496951	1.032007	99
Es	0.597282	-1.135558	-0.630454	99
Es	-0.058737	-0.288398	-1.333178	99
Es	1.221518	2.464238	0.818561	99
Es	-0.019972	0.687182	-0.821316	99
Es	0.716286	2.547137	1.357151	99
Es	-1.876043	-1.212397	-0.685922	99
Es	1.254582	1.747184	0.581875	99
Es	-1.205742	-2.189912	-0.930705	99
Es	-1.495174	-1.463468	1.412828	99
Es	-0.651089	-1.155849	-0.578461	99
Es	1.284057	1.017651	0.351370	99
48
Properties=species:S:1:pos:R:3:Z:I:1 energy=-289.28007317184904 field_type=dipole dipole="0.000000 0.000000 0.000000" charge=0
C	-1.401532	-2.044346	0.959370	6
C	-1.261022	-1.588756	-0.484040	6
C	-0.035932	-0.748036	-0.681250	6
C	-0.067682	0.437104	-1.616330	6
N	-0.027582	0.620914	-0.167110	7
C	1.284178	1.017653	0.351410	6
C	1.221498	2.464254	0.818570	6
H	-2.267772	-2.704376	1.068890	1
H	-1.540092	-1.188516	1.629460	1
H	-0.509912	-2.587616	1.291500	1
H	-2.165832	-1.045136	-0.779120	1
H	-1.191602	-2.467247	-1.135260	1
H	0.878758	-1.327127	-0.615880	1
H	-1.004052	0.702193	-2.093210	1
H	0.816528	0.662934	-2.199360	1
H	2.093658	0.910594	-0.382390	1
H	1.542298	0.384323	1.209420	1
H	0.967368	3.138134	-0.005580	1
H	2.192528	2.772103	1.220520	1
H	0.476198	2.590954	1.610390	1
Es	-0.020898	0.689603	-0.822918	99
Es	0.596833	-1.135639	-0.629820	99
Es	-0.010015	-0.029926	-0.256142	99
Es	-0.027074	0.620647	-0.167451	99
Es	0.554890	0.775092	0.026374	99
Es	-0.651380	-1.155873	-0.578218	99
Es	1.221518	2.464236	0.818560	99
Es	-1.325448	-1.817201	0.240448	99
Es	1.284054	1.017651	0.351368	99
Es	-0.035942	-0.747794	-0.681234	99
Es	-1.205455	-2.189966	-0.931467	99
Es	-1.260998	-1.588760	-0.484010	99
Es	-0.788522	-2.417809	1.181491	99
Es	-1.495420	-1.463420	1.413619	99
Es	-1.991974	-2.496302	1.032094	99
Es	0.539331	0.598241	-2.006793	99
Es	0.717251	2.546980	1.356920	99
Es	1.459659	0.578669	0.939717	99
Es	1.888067	2.670285	1.091626	99
Es	-0.704343	0.616824	-1.944194	99
Es	-0.058660	-0.289494	-1.334680	99
Es	1.255080	1.747015	0.581800	99
Es	-1.401525	-2.044351	0.959344	99
Es	1.837570	0.938106	-0.164467	99
Es	-1.875385	-1.212091	-0.686015	99
Es	-0.316020	0.739692	-0.002495	99
Es	-0.067659	0.437089	-1.616089	99
Es	1.049840	2.921615	0.251893	99
48
Properties=species:S:1:pos:R:3:Z:I:1 energy=-289.28007317184904 field_type=dipole dipole="0.000000 0.000000 0.000000" charge=0
C	-1.401532	-2.044346	0.959370	6
C	-1.261022	-1.588756	-0.484040	6
C	-0.035932	-0.748036	-0.681250	6
C	-0.067682	0.437104	-1.616330	6
N	-0.027582	0.620914	-0.167110	7
C	1.284178	1.017653	0.351410	6
C	1.221498	2.464254	0.818570	6
H	-2.267772	-2.704376	1.068890	1
H	-1.540092	-1.188516	1.629460	1
H	-0.509912	-2.587616	1.291500	1
H	-2.165832	-1.045136	-0.779120	1
H	-1.191602	-2.467247	-1.135260	1
H	0.878758	-1.327127	-0.615880	1
H	-1.004052	0.702193	-2.093210	1
H	0.816528	0.662934	-2.199360	1
H	2.093658	0.910594	-0.382390	1
H	1.542298	0.384323	1.209420	1
H	0.967368	3.138134	-0.005580	1
H	2.192528	2.772103	1.220520	1
H	0.476198	2.590954	1.610390	1
Es	-0.027068	0.620625	-0.167478	99
Es	-0.703988	0.617239	-1.944310	99
Es	1.459881	0.577996	0.939959	99
Es	0.718205	2.546918	1.357155	99
Es	0.538793	0.598508	-2.006227	99
Es	-0.010463	-0.031116	-0.254454	99
Es	-1.260997	-1.588760	-0.484009	99
Es	0.596425	-1.135647	-0.629377	99
Es	-0.035943	-0.747798	-0.681235	99
Es	1.284054	1.017651	0.351369	99
Es	-0.314196	0.739343	-0.003461	99
Es	-1.401526	-2.044350	0.959345	99
Es	1.887100	2.670078	1.091343	99
Es	-0.651560	-1.155988	-0.578124	99
Es	-0.067664	0.437085	-1.616090	99
Es	1.255367	1.746775	0.581862	99
Es	-1.205307	-2.189937	-0.931994	99
Es	-0.788851	-2.417918	1.181520	99
Es	-1.874974	-1.211803	-0.686024	99
Es	-1.325428	-1.817268	0.240428	99
Es	1.221515	2.464235	0.818561	99
Es	1.836884	0.938294	-0.164317	99
Es	0.554111	0.775712	0.026590	99
Es	-0.058465	-0.290433	-1.336015	99
Es	1.049500	2.922446	0.251605	99
Es	-1.991149	-2.496130	1.032034	99
Es	-1.495804	-1.463408	1.414165	99
Es	-0.021077	0.690770	-0.823556	99
48
Properties=species:S:1:pos:R:3:Z:I:1 energy=-289.28007317184904 field_type=dipole dipole="0.000000 0.000000 0.000000" charge=0
C	-1.401532	-2.044346	0.959370	6
C	-1.261022	-1.588756	-0.484040	6
C	-0.035932	-0.748036	-0.681250	6
C	-0.067682	0.437104	-1.616330	6
N	-0.027582	0.620914	-0.167110	7
C	1.284178	1.017653	0.351410	6
C	1.221498	2.464254	0.818570	6
H	-2.267772	-2.704376	1.068890	1
H	-1.540092	-1.188516	1.629460	1
H	-0.509912	-2.587616	1.291500	1
H	-2.165832	-1.045136	-0.779120	1
H	-1.191602	-2.467247	-1.135260	1
H	0.878758	-1.327127	-0.615880	1
H	-1.004052	0.702193	-2.093210	1
H	0.816528	0.662934	-2.199360	1
H	2.093658	0.910594	-0.382390	1
H	1.542298	0.384323	1.209420	1
H	0.967368	3.138134	-0.005580	1
H	2.192528	2.772103	1.220520	1
H	0.476198	2.590954	1.610390	1
Es	1.886424	2.669704	1.091463	99
Es	-0.010360	-0.031914	-0.254088	99
Es	-0.027097	0.620633	-0.167471	99
Es	1.284054	1.017651	0.351369	99
Es	-1.874644	-1.211788	-0.685965	99
Es	-0.021398	0.692459	-0.824132	99
Es	-0.067666	0.437078	-1.616101	99
Es	-0.035943	-0.747796	-0.681234	99
Es	-0.789129	-2.418094	1.181519	99
Es	-1.401525	-2.044351	0.959344	99
Es	1.049585	2.923183	0.251438	99
Es	-1.325440	-1.817287	0.240410	99
Es	-0.313129	0.738592	-0.003582	99
Es	-0.651750	-1.155877	-0.577964	99
Es	1.221517	2.464238	0.818561	99
Es	-1.495963	-1.463417	1.414543	99
Es	-1.990575	-2.495872	1.032074	99
Es	0.718758	2.546927	1.357036	99
Es	-1.260996	-1.588758	-0.484008	99
Es	0.553709	0.775836	0.026751	99
Es	0.538398	0.598446	-2.005902	99
Es	1.836330	0.938369	-0.164136	99
Es	1.460091	0.577552	0.940059	99
Es	-1.205178	-2.189939	-0.932408	99
Es	-0.703786	0.617438	-1.944444	99
Es	0.596232	-1.135692	-0.629247	99
Es	-0.058555	-0.290905	-1.336432	99
Es	1.255413	1.746704	0.581809	99
48
Properties=species:S:1:pos:R:3:Z:I:1 energy=-289.28007317184904 field_type=dipole dipole="0.000000 0.000000 0.000000" charge=0
C	-1.401532	-2.044346	0.959370	6
C	-1.261022	-1.588756	-0.484040	6
C	-0.035932	-0.748036	-0.681250	6
C	-0.067682	0.437104	-1.616330	6
N	-0.027582	0.620914	-0.167110	7
C	1.284178	1.017653	0.351410	6
C	1.221498	2.464254	0.818570	6
H	-2.267772	-2.704376	1.068890	1
H	-1.540092	-1.188516	1.629460	1
H	-0.509912	-2.587616	1.291500	1
H	-2.165832	-1.045136	-0.779120	1
H	-1.191602	-2.467247	-1.135260	1
H	0.878758	-1.327127	-0.615880	1
H	-1.004052	0.702193	-2.093210	1
H	0.816528	0.662934	-2.199360	1
H	2.093658	0.910594	-0.382390	1
H	1.542298	0.384323	1.209420	1
H	0.967368	3.138134	-0.005580	1
H	2.192528	2.772103	1.220520	1
H	0.476198	2.590954	1.610390	1
Es	-0.058479	-0.291494	-1.337135	99
Es	-0.011178	-0.032402	-0.253186	99
Es	-0.311351	0.737787	-0.004777	99
Es	1.049593	2.923638	0.251344	99
Es	-0.651855	-1.156059	-0.577797	99
Es	-1.401526	-2.044351	0.959346	99
Es	-1.496086	-1.463370	1.414839	99
Es	-1.325491	-1.817306	0.240397	99
Es	1.255631	1.746618	0.581739	99
Es	0.719104	2.546882	1.357152	99
Es	1.221518	2.464239	0.818561	99
Es	0.553477	0.776252	0.027501	99
Es	1.284056	1.017651	0.351370	99
Es	-1.990147	-2.495589	1.032034	99
Es	-1.874372	-1.211477	-0.686033	99
Es	0.538056	0.598676	-2.005665	99
Es	1.460126	0.577319	0.940174	99
Es	-1.260996	-1.588760	-0.484009	99
Es	1.885813	2.669535	1.091349	99
Es	-1.205086	-2.189972	-0.932691	99
Es	-0.789348	-2.418327	1.181526	99
Es	-0.035937	-0.747793	-0.681237	99
Es	-0.703609	0.617567	-1.944410	99
Es	0.596097	-1.135761	-0.629107	99
Es	-0.021895	0.693509	-0.824400	99
Es	1.836068	0.938378	-0.164073	99
Es	-0.067664	0.437087	-1.616090	99
Es	-0.027141	0.620642	-0.167456	99
48
Properties=species:S:1:pos:R:3:Z:I:1 energy=-289.28007317184904 field_type=dipole dipole="0.000000 0.000000 0.000000" charge=0
C	-1.401532	-2.044346	0.959370	6
C	-1.261022	-1.588756	-0.484040	6
C	-0.035932	-0.748036	-0.681250	6
C	-0.067682	0.437104	-1.616330	6
N	-0.027582	0.620914	-0.167110	7
C	1.284178	1.017653	0.351410	6
C	1.221498	2.464254	0.818570	6
H	-2.267772	-2.704376	1.068890	1
H	-1.540092	-1.188516	1.629460	1
H	-0.509912	-2.587616	1.291500	1
H	-2.165832	-1.045136	-0.779120	1
H	-1.191602	-2.467247	-1.135260	1
H	0.878758	-1.327127	-0.615880	1
H	-1.004052	0.702193	-2.093210	1
H	0.816528	0.662934	-2.199360	1
H	2.093658	0.910594	-0.382390	1
H	1.542298	0.384323	1.209420	1
H	0.967368	3.138134	-0.005580	1
H	2.192528	2.772103	1.220520	1
H	0.476198	2.590954	1.610390	1
Es	-1.989786	-2.495480	1.032064	99
Es	1.049737	2.924017	0.251182	99
Es	-0.067665	0.437083	-1.616094	99
Es	0.537848	0.598571	-2.005491	99
Es	-0.035944	-0.747794	-0.681236	99
Es	-0.703427	0.617656	-1.944496	99
Es	-1.401525	-2.044349	0.959343	99
Es	1.885370	2.669281	1.091369	99
Es	0.553095	0.776617	0.027737	99
Es	-0.310832	0.737107	-0.004955	99
Es	-0.651949	-1.156059	-0.577793	99
Es	1.835755	0.938390	-0.163946	99
Es	-0.010864	-0.032769	-0.252848	99
Es	-0.027108	0.620623	-0.167491	99
Es	1.460213	0.577074	0.940219	99
Es	-0.789553	-2.418379	1.181479	99
Es	1.255607	1.746522	0.581837	99
Es	-1.205032	-2.189998	-0.932847	99
Es	-1.874229	-1.211442	-0.686022	99
Es	-0.022138	0.694476	-0.824914	99
Es	-1.496168	-1.463244	1.415073	99
Es	1.221518	2.464237	0.818561	99
Es	-1.260997	-1.588760	-0.484010	99
Es	-1.325470	-1.817412	0.240371	99
Es	1.284054	1.017651	0.351368	99
Es	0.719444	2.547038	1.357063	99
Es	-0.058499	-0.291782	-1.337294	99
Es	0.595924	-1.135757	-0.628964	99
48
Properties=species:S:1:pos:R:3:Z:I:1 energy=-289.28007317184904 field_type=dipole dipole="0.000000 0.000000 0.000000" charge=0
C	-1.401532	-2.044346	0.959370	6
C	-1.261022	-1.588756	-0.484040	6
C	-0.035932	-0.748036	-0.681250	6
C	-0.067682	0.437104	-1.616330	6
N	-0.027582	0.620914	-0.167110	7
C	1.284178	1.017653	0.351410	6
C	1.221498	2.464254	0.818570	6
H	-2.267772	-2.704376	1.068890	1
H	-1.540092	-1.188516	1.629460	1
H	-0.509912	-2.587616	1.291500	1
H	-2.165832	-1.045136	-0.779120	1
H	-1.191602	-2.467247	-1.135260	1
H	0.878758	-1.327127	-0.615880	1
H	-1.004052	0.702193	-2.093210	1
H	0.816528	0.662934	-2.199360	1
H	2.093658	0.910594	-0.382390	1
H	1.542298	0.384323	1.209420	1
H	0.967368	3.138134	-0.005580	1
H	2.192528	2.772103	1.220520	1
H	0.476198	2.590954	1.610390	1
Es	-0.058364	-0.291995	-1.337940	99
Es	-0.703368	0.617661	-1.944381	99
Es	1.835424	0.938370	-0.163856	99
Es	-0.027104	0.620635	-0.167475	99
Es	-0.067664	0.437081	-1.616093	99
Es	-0.310175	0.736763	-0.005356	99
Es	-0.651927	-1.156039	-0.577670	99
Es	1.049736	2.924289	0.251183	99
Es	0.537643	0.598895	-2.005396	99
Es	0.719742	2.547104	1.357105	99
Es	-1.874104	-1.211393	-0.686031	99
Es	1.460281	0.576801	0.940211	99
Es	-0.789773	-2.418508	1.181497	99
Es	-0.035944	-0.747796	-0.681238	99
Es	0.553009	0.777002	0.027864	99
Es	-1.401525	-2.044350	0.959344	99
Es	1.221517	2.464239	0.818562	99
Es	1.884937	2.669213	1.091242	99
Es	1.255779	1.746470	0.581827	99
Es	-1.496213	-1.463433	1.415334	99
Es	-1.325418	-1.817182	0.240254	99
Es	-0.022470	0.694668	-0.824976	99
Es	0.595805	-1.135727	-0.628799	99
Es	-1.260997	-1.588760	-0.484009	99
Es	-0.010986	-0.033164	-0.252311	99
Es	-1.989570	-2.495327	1.031992	99
Es	-1.204949	-2.190050	-0.932988	99
Es	1.284054	1.017651	0.351369	99
48
Properties=species:S:1:pos:R:3:Z:I:1 energy=-289.28007317184904 field_type=dipole dipole="0.000000 0.000000 0.000000" charge=0
C	-1.401532	-2.044346	0.959370	6
C	-1.261022	-1.588756	-0.484040	6
C	-0.035932	-0.748036	-0.681250	6
C	-0.067682	0.437104	-1.616330	6
N	-0.027582	0.620914	-0.167110	7
C	1.284178	1.017653	0.351410	6
C	1.221498	2.464254	0.818570	6
H	-2.267772	-2.704376	1.068890	1
H	-1.540092	-1.188516	1.629460	1
H	-0.509912	-2.587616	1.291500	1
H	-2.165832	-1.045136	-0.779120	1
H	-1.191602	-2.467247	-1.135260	1
H	0.878758	-1.327127	-0.615880	1
H	-1.004052	0.702193	-2.093210	1
H	0.816528	0.662934	-2.199360	1
H	2.093658	0.910594	-0.382390	1
H	1.542298	0.384323	1.209420	1
H	0.967368	3.138134	-0.005580	1
H	2.192528	2.772103	1.220520	1
H	0.476198	2.590954	1.610390	1
Es	1.884732	2.669143	1.091336	99
Es	-0.027171	0.620668	-0.167435	99
Es	-0.022696	0.695283	-0.825082	99
Es	-0.067665	0.437080	-1.616093	99
Es	-1.989324	-2.495119	1.031999	99
Es	0.537528	0.598836	-2.005171	99
Es	1.255778	1.746456	0.581791	99
Es	1.049751	2.924499	0.251138	99
Es	1.835249	0.938489	-0.163820	99
Es	-0.703242	0.617868	-1.944493	99
Es	-0.309409	0.736413	-0.005691	99
Es	0.595689	-1.135751	-0.628775	99
Es	-0.035943	-0.747796	-0.681242	99
Es	-0.058411	-0.292343	-1.338154	99
Es	1.221516	2.464235	0.818559	99
Es	1.284050	1.017653	0.351364	99
Es	-1.496245	-1.463359	1.415484	99
Es	-1.204970	-2.190026	-0.933211	99
Es	-0.789884	-2.418676	1.181471	99
Es	1.460396	0.576662	0.940262	99
Es	-1.325458	-1.817284	0.240309	99
Es	-0.652034	-1.156037	-0.577681	99
Es	-1.401525	-2.044350	0.959344	99
Es	-1.873895	-1.211353	-0.685958	99
Es	-1.260997	-1.588760	-0.484010	99
Es	0.719847	2.547018	1.357024	99
Es	-0.011107	-0.033423	-0.251970	99
Es	0.552816	0.777091	0.027967	99
48
Properties=species:S:1:pos:R:3:Z:I:1 energy=-289.28007317184904 field_type=dipole dipole="0.000000 0.000000 0.000000" charge=0
C	-1.401532	-2.044346	0.959370	6
C	-1.261022	-1.588756	-0.484040	6
C	-0.035932	-0.748036	-0.681250	6
C	-0.067682	0.437104	-1.616330	6
N	-0.027582	0.620914	-0.167110	7
C	1.284178	1.017653	0.351410	6
C	1.221498	2.464254	0.818570	6
H	-2.267772	-2.704376	1.068890	1
H	-1.540092	-1.188516	1.629460	1
H	-0.509912	-2.587616	1.291500	1
H	-2.165832	-1.045136	-0.779120	1
H	-1.191602	-2.467247	-1.135260	1
H	0.878758	-1.327127	-0.615880	1
H	-1.004052	0.702193	-2.093210	1
H	0.816528	0.662934	-2.199360	1
H	2.093658	0.910594	-0.382390	1
H	1.542298	0.384323	1.209420	1
H	0.967368	3.138134	-0.005580	1
H	2.192528	2.772103	1.220520	1
H	0.476198	2.590954	1.610390	1
Es	1.460385	0.576580	0.940302	99
Es	1.284054	1.017651	0.351369	99
Es	1.221520	2.464236	0.818561	99
Es	1.049772	2.924753	0.251042	99
Es	0.552583	0.777279	0.028154	99
Es	1.255843	1.746437	0.581830	99
Es	-0.308972	0.736077	-0.006004	99
Es	1.884369	2.668981	1.091193	99
Es	0.720103	2.547055	1.357128	99
Es	1.835144	0.938455	-0.163740	99
Es	-1.204937	-2.190014	-0.933333	99
Es	-0.652263	-1.156189	-0.577774	99
Es	-0.035949	-0.747796	-0.681237	99
Es	-0.058160	-0.292563	-1.338249	99
Es	-1.989200	-2.495109	1.032039	99
Es	-0.027171	0.620664	-0.167444	99
Es	-0.022728	0.695867	-0.825194	99
Es	-1.325425	-1.817279	0.240340	99
Es	-0.789968	-2.418659	1.181429	99
Es	-1.873797	-1.211272	-0.685959	99
Es	-1.496244	-1.463362	1.415585	99
Es	-1.260997	-1.588759	-0.484010	99
Es	-0.011131	-0.033639	-0.251806	99
Es	-0.703187	0.617889	-1.944519	99
Es	-0.067665	0.437082	-1.616094	99
Es	0.595597	-1.135697	-0.628624	99
Es	-1.401526	-2.044350	0.959345	99
Es	0.537328	0.598799	-2.005070	99
48
Properties=species:S:1:pos:R:3:Z:I:1 energy=-289.28007317184904 field_type=dipole dipole="0.000000 0.000000 0.000000" charge=0
C	-1.401532	-2.044346	0.959370	6
C	-1.261022	-1.588756	-0.484040	6
C	-0.035932	-0.748036	-0.681250	6
C	-0.067682	0.437104	-1.616330	6
N	-0.027582	0.620914	-0.167110	7
C	1.284178	1.017653	0.351410	6
C	1.221498	2.464254	0.818570	6
H	-2.267772	-2.704376	1.068890	1
H	-1.540092	-1.188516	1.629460	1
H	-0.509912	-2.587616	1.291500	1
H	-2.165832	-1.045136	-0.779120	1
H	-1.191602	-2.467247	-1.135260	1
H	0.878758	-1.327127	-0.615880	1
H	-1.004052	0.702193	-2.093210	1
H	0.816528	0.662934	-2.199360	1
H	2.093658	0.910594	-0.382390	1
H	1.542298	0.384323	1.209420	1
H	0.967368	3.138134	-0.005580	1
H	2.192528	2.772103	1.220520	1
H	0.476198	2.590954	1.610390	1
Es	-1.401525	-2.044349	0.959343	99
Es	1.049776	2.924872	0.251048	99
Es	-0.790071	-2.418776	1.181506	99
Es	1.460434	0.576471	0.940363	99
Es	-0.058327	-0.292661	-1.338449	99
Es	1.834951	0.938434	-0.163704	99
Es	-0.035946	-0.747790	-0.681235	99
Es	-1.989046	-2.494938	1.032027	99
Es	1.284052	1.017651	0.351366	99
Es	1.884236	2.668917	1.091141	99
Es	1.255905	1.746434	0.581724	99
Es	-0.022590	0.696188	-0.825248	99
Es	-0.703130	0.617972	-1.944594	99
Es	-1.260997	-1.588760	-0.484010	99
Es	-0.027101	0.620635	-0.167473	99
Es	-0.067659	0.437088	-1.616096	99
Es	0.552463	0.777228	0.028331	99
Es	0.595565	-1.135716	-0.628750	99
Es	-0.011135	-0.033754	-0.251666	99
Es	-0.308891	0.736011	-0.006051	99
Es	-1.204975	-2.190027	-0.933441	99
Es	1.221518	2.464237	0.818560	99
Es	-1.873670	-1.211247	-0.685915	99
Es	0.537200	0.598767	-2.004927	99
Es	-0.652185	-1.156177	-0.577696	99
Es	-1.325400	-1.817238	0.240288	99
Es	0.720219	2.547075	1.357159	99
Es	-1.496295	-1.463427	1.415662	99
48
Properties=species:S:1:pos:R:3:Z:I:1 energy=-289.28007317184904 field_type=dipole dipole="0.000000 0.000000 0.000000" charge=0
C	-1.401532	-2.044346	0.959370	6
C	-1.261022	-1.588756	-0.484040	6
C	-0.035932	-0.748036	-0.681250	6
C	-0.067682	0.437104	-1.616330	6
N	-0.027582	0.620914	-0.167110	7
C	1.284178	1.017653	0.351410	6
C	1.221498	2.464254	0.818570	6
H	-2.267772	-2.704376	1.068890	1
H	-1.540092	-1.188516	1.629460	1
H	-0.509912	-2.587616	1.291500	1
H	-2.165832	-1.045136	-0.779120	1
H	-1.191602	-2.467247	-1.135260	1
H	0.878758	-1.327127	-0.615880	1
H	-1.004052	0.702193	-2.093210	1
H	0.816528	0.662934	-2.199360	1
H	2.093658	0.910594	-0.382390	1
H	1.542298	0.384323	1.209420	1
H	0.967368	3.138134	-0.005580	1
H	2.192528	2.772103	1.220520	1
H	0.476198	2.590954	1.610390	1
Es	-1.325401	-1.817227	0.240356	99
Es	-0.067669	0.437082	-1.616097	99
Es	-0.011345	-0.033785	-0.251071	99
Es	0.537147	0.598915	-2.004976	99
Es	0.595532	-1.135797	-0.628602	99
Es	-1.873571	-1.211203	-0.685945	99
Es	1.834848	0.938625	-0.163588	99
Es	-0.058425	-0.293019	-1.338818	99
Es	-1.401525	-2.044350	0.959344	99
Es	-0.022865	0.696074	-0.825352	99
Es	0.552371	0.777505	0.028104	99
Es	-0.790186	-2.418769	1.181391	99
Es	1.221520	2.464237	0.818561	99
Es	-1.988864	-2.494953	1.032003	99
Es	-0.652158	-1.156117	-0.577674	99
Es	-1.260997	-1.588760	-0.484010	99
Es	1.884055	2.668906	1.091216	99
Es	-0.703030	0.618006	-1.944424	99
Es	1.255877	1.746288	0.581858	99
Es	-0.308307	0.735960	-0.006456	99
Es	1.284050	1.017653	0.351367	99
Es	0.720319	2.547104	1.357027	99
Es	-1.496326	-1.463353	1.415853	99
Es	-0.035942	-0.747787	-0.681213	99
Es	1.049810	2.924964	0.250955	99
Es	1.460531	0.576318	0.940398	99
Es	-0.027096	0.620648	-0.167459	99
Es	-1.204972	-2.190048	-0.933485	99
48
Properties=species:S:1:pos:R:3:Z:I:1 energy=-289.28007317184904 field_type=dipole dipole="0.000000 0.000000 0.000000" charge=0
C	-1.401532	-2.044346	0.959370	6
C	-1.261022	-1.588756	-0.484040	6
C	-0.035932	-0.748036	-0.681250	6
C	-0.067682	0.437104	-1.616330	6
N	-0.027582	0.620914	-0.167110	7
C	1.284178	1.017653	0.351410	6
C	1.221498	2.464254	0.818570	6
H	-2.267772	-2.704376	1.068890	1
H	-1.540092	-1.188516	1.629460	1
H	-0.509912	-2.587616	1.291500	1
H	-2.165832	-1.045136	-0.779120	1
H	-1.191602	-2.467247	-1.135260	1
H	0.878758	-1.327127	-0.615880	1
H	-1.004052	0.702193	-2.093210	1
H	0.816528	0.662934	-2.199360	1
H	2.093658	0.910594	-0.382390	1
H	1.542298	0.384323	1.209420	1
H	0.967368	3.138134	-0.005580	1
H	2.192528	2.772103	1.220520	1
H	0.476198	2.590954	1.610390	1
Es	1.460427	0.576286	0.940430	99
Es	-0.035945	-0.747797	-0.681238	99
Es	-0.027098	0.620638	-0.167467	99
Es	0.720471	2.547087	1.357078	99
Es	-1.325305	-1.817237	0.240216	99
Es	1.256029	1.746247	0.581695	99
Es	1.221520	2.464237	0.818561	99
Es	-0.790321	-2.418870	1.181470	99
Es	-0.011338	-0.034129	-0.251106	99
Es	-1.204877	-2.190090	-0.933633	99
Es	0.552221	0.777662	0.028469	99
Es	-0.067662	0.437080	-1.616094	99
Es	0.537059	0.598941	-2.004953	99
Es	0.595447	-1.135740	-0.628499	99
Es	-1.988790	-2.494800	1.032004	99
Es	1.883778	2.668865	1.091134	99
Es	-0.022847	0.696550	-0.825383	99
Es	1.284055	1.017651	0.351369	99
Es	-1.260999	-1.588761	-0.484011	99
Es	-1.873547	-1.211164	-0.685876	99
Es	-0.703097	0.617931	-1.944452	99
Es	-0.308041	0.735611	-0.006731	99
Es	-1.401525	-2.044350	0.959344	99
Es	-1.496315	-1.463385	1.415897	99
Es	-0.652308	-1.156137	-0.577542	99
Es	1.834797	0.938493	-0.163563	99
Es	-0.058232	-0.292874	-1.338922	99
Es	1.049819	2.925174	0.251066	99
48
Properties=species:S:1:pos:R:3:Z:I:1 energy=-289.28007317184904 field_type=dipole dipole="0.000000 0.000000 0.000000" charge=0
C	-1.401532	-2.044346	0.959370	6
C	-1.261022	-1.588756	-0.484040	6
C	-0.035932	-0.748036	-0.681250	6
C	-0.067682	0.437104	-1.616330	6
N	-0.027582	0.620914	-0.167110	7
C	1.284178	1.017653	0.351410	6
C	1.221498	2.464254	0.818570	6
H	-2.267772	-2.704376	1.068890	1
H	-1.540092	-1.188516	1.629460	1
H	-0.509912	-2.587616	1.291500	1
H	-2.165832	-1.045136	-0.779120	1
H	-1.191602	-2.467247	-1.135260	1
H	0.878758	-1.327127	-0.615880	1
H	-1.004052	0.702193	-2.093210	1
H	0.816528	0.662934	-2.199360	1
H	2.093658	0.910594	-0.382390	1
H	1.542298	0.384323	1.209420	1
H	0.967368	3.138134	-0.005580	1
H	2.192528	2.772103	1.220520	1
H	0.476198	2.590954	1.610390	1
Es	0.552237	0.777624	0.028456	99
Es	-0.011499	-0.034222	-0.250717	99
Es	-1.873418	-1.211144	-0.685970	99
Es	-0.023005	0.696715	-0.825461	99
Es	-1.204894	-2.190061	-0.933639	99
Es	-0.027100	0.620636	-0.167471	99
Es	1.221517	2.464237	0.818561	99
Es	-0.652191	-1.156143	-0.577629	99
Es	-1.325430	-1.817267	0.240326	99
Es	0.536957	0.598893	-2.004677	99
Es	-1.988773	-2.494836	1.032030	99
Es	1.460416	0.576272	0.940393	99
Es	1.284054	1.017652	0.351368	99
Es	-1.496336	-1.463343	1.415868	99
Es	1.883764	2.668767	1.091076	99
Es	1.049783	2.925228	0.250968	99
Es	-1.260997	-1.588760	-0.484010	99
Es	1.255916	1.746363	0.581807	99
Es	0.595340	-1.135761	-0.628486	99
Es	-0.067666	0.437082	-1.616094	99
Es	-0.702946	0.618176	-1.944583	99
Es	-0.307646	0.735531	-0.006779	99
Es	-0.790285	-2.418826	1.181466	99
Es	-0.035942	-0.747794	-0.681228	99
Es	-1.401525	-2.044350	0.959344	99
Es	0.720572	2.547096	1.357133	99
Es	-0.058285	-0.293111	-1.339200	99
Es	1.834760	0.938466	-0.163589	99
48
Properties=species:S:1:pos:R:3:Z:I:1 energy=-289.28007317184904 field_type=dipole dipole="0.000000 0.000000 0.000000" charge=0
C	-1.401532	-2.044346	0.959370	6
C	-1.261022	-1.588756	-0.484040	6
C	-0.035932	-0.748036	-0.681250	6
C	-0.067682	0.437104	-1.616330	6
N	-0.027582	0.620914	-0.167110	7
C	1.284178	1.017653	0.351410	6
C	1.221498	2.464254	0.818570	6
H	-2.267772	-2.704376	1.068890	1
H	-1.540092	-1.188516	1.629460	1
H	-0.509912	-2.587616	1.291500	1
H	-2.165832	-1.045136	-0.779120	1
H	-1.191602	-2.467247	-1.135260	1
H	0.878758	-1.327127	-0.615880	1
H	-1.004052	0.702193	-2.093210	1
H	0.816528	0.662934	-2.199360	1
H	2.093658	0.910594	-0.382390	1
H	1.542298	0.384323	1.209420	1
H	0.967368	3.138134	-0.005580	1
H	2.192528	2.772103	1.220520	1
H	0.476198	2.590954	1.610390	1
Es	0.720660	2.547105	1.357205	99
Es	-1.496264	-1.463344	1.416048	99
Es	-0.307438	0.735256	-0.007143	99
Es	-0.702862	0.618214	-1.944713	99
Es	1.255997	1.746369	0.581828	99
Es	-1.873335	-1.211095	-0.685931	99
Es	0.536964	0.598811	-2.004563	99
Es	-1.401525	-2.044351	0.959344	99
Es	-0.652241	-1.156165	-0.577596	99
Es	0.552035	0.777966	0.028742	99
Es	0.595330	-1.135784	-0.628480	99
Es	-1.260997	-1.588760	-0.484010	99
Es	-0.067667	0.437083	-1.616093	99
Es	1.883601	2.668676	1.091002	99
Es	1.284056	1.017651	0.351370	99
Es	-1.988665	-2.494741	1.032026	99
Es	-0.027097	0.620625	-0.167486	99
Es	1.221518	2.464237	0.818560	99
Es	-0.790410	-2.418931	1.181351	99
Es	-0.023097	0.696956	-0.825382	99
Es	1.049815	2.925334	0.250911	99
Es	1.460494	0.576157	0.940398	99
Es	-1.325471	-1.817321	0.240332	99
Es	-0.035944	-0.747797	-0.681234	99
Es	-0.058346	-0.293175	-1.339210	99
Es	-0.011413	-0.034360	-0.250689	99
Es	1.834616	0.938493	-0.163585	99
Es	-1.204937	-2.189991	-0.933738	99
