41
Properties=species:S:1:pos:R:3:Z:I:1 energy=-302.99633313338745 field_type=dipole dipole="0.000000 0.000000 0.000000" charge=0
C	-0.641631	-1.673943	-1.034476	6
C	-0.520321	-1.121303	0.376734	6
C	-0.051631	0.288227	0.374974	6
C	-0.731401	1.487377	0.365754	6
N	0.140179	2.545197	0.369214	7
C	1.337479	2.007807	0.381434	6
N	1.274599	0.643747	0.386464	7
H	-0.993001	-2.710303	-1.007046	1
H	0.323669	-1.656213	-1.552256	1
H	-1.352251	-1.089923	-1.629616	1
H	0.170739	-1.745333	0.955374	1
H	-1.494831	-1.182973	0.875034	1
H	-1.802551	1.644537	0.355994	1
H	2.274838	2.547467	0.387284	1
H	2.066119	0.015637	0.395134	1
Es	-0.574110	-1.384941	-0.326891	99
Es	-0.383812	0.900247	0.050988	99
Es	-0.879969	-2.381896	-1.010895	99
Es	-0.251690	2.081186	0.363140	99
Es	1.337521	2.007630	0.381432	99
Es	1.739407	0.267993	0.380217	99
Es	0.608860	2.284958	0.106076	99
Es	0.732203	0.442530	0.345844	99
Es	-0.520288	-1.121247	0.376703	99
Es	-0.731377	1.487462	0.365744	99
Es	0.021662	-1.660202	-1.381740	99
Es	1.316914	1.118290	0.175025	99
Es	-0.051405	0.288152	0.374970	99
Es	-0.383057	0.913760	0.693447	99
Es	1.226174	0.901414	0.635690	99
Es	-1.460583	1.588196	0.359375	99
Es	-0.641619	-1.673936	-1.034439	99
Es	-1.124955	-1.275675	-1.433652	99
Es	0.597968	2.282354	0.646266	99
Es	0.140335	2.544642	0.369215	99
Es	-0.271718	-0.409289	0.376137	99
Es	-1.179897	-1.155753	0.711226	99
Es	1.274602	0.643750	0.386405	99
Es	1.977918	2.359838	0.385203	99
Es	-0.039474	-1.539087	0.768292	99
Es	0.049390	2.906252	0.367523	99
41
Properties=species:S:1:pos:R:3:Z:I:1 energy=-302.99633313338745 field_type=dipole dipole="0.000000 0.000000 0.000000" charge=0
C	-0.641631	-1.673943	-1.034476	6
C	-0.520321	-1.121303	0.376734	6
C	-0.051631	0.288227	0.374974	6
C	-0.731401	1.487377	0.365754	6
N	0.140179	2.545197	0.369214	7
C	1.337479	2.007807	0.381434	6
N	1.274599	0.643747	0.386464	7
H	-0.993001	-2.710303	-1.007046	1
H	0.323669	-1.656213	-1.552256	1
H	-1.352251	-1.089923	-1.629616	1
H	0.170739	-1.745333	0.955374	1
H	-1.494831	-1.182973	0.875034	1
H	-1.802551	1.644537	0.355994	1
H	2.274838	2.547467	0.387284	1
H	2.066119	0.015637	0.395134	1
Es	0.051832	2.911357	0.368487	99
Es	0.023857	-1.659181	-1.380586	99
Es	1.346680	1.222849	0.384056	99
Es	-0.272257	-0.408421	0.374121	99
Es	0.606390	2.281678	0.638678	99
Es	-0.641619	-1.673936	-1.034438	99
Es	-1.182434	-1.156946	0.709739	99
Es	-1.462476	1.587358	0.359699	99
Es	-0.251214	2.078698	0.365580	99
Es	-0.038161	-1.541411	0.766885	99
Es	1.745935	0.268085	0.391460	99
Es	0.140348	2.544654	0.369216	99
Es	-0.573975	-1.384367	-0.326238	99
Es	-0.520289	-1.121247	0.376703	99
Es	-0.386552	0.920360	0.686092	99
Es	-0.051400	0.288149	0.374976	99
Es	1.274313	0.644170	0.387446	99
Es	-0.731381	1.487465	0.365741	99
Es	-0.384306	0.912007	0.054322	99
Es	0.722501	0.446191	0.373706	99
Es	-0.880574	-2.383064	-1.008876	99
Es	0.609383	2.281354	0.108646	99
Es	-1.125995	-1.273795	-1.432439	99
Es	1.193682	0.776885	0.391037	99
Es	1.979189	2.360107	0.385857	99
Es	1.337523	2.007630	0.381435	99
41
Properties=species:S:1:pos:R:3:Z:I:1 energy=-302.99633313338745 field_type=dipole dipole="0.000000 0.000000 0.000000" charge=0
C	-0.641631	-1.673943	-1.034476	6
C	-0.520321	-1.121303	0.376734	6
C	-0.051631	0.288227	0.374974	6
C	-0.731401	1.487377	0.365754	6
N	0.140179	2.545197	0.369214	7
C	1.337479	2.007807	0.381434	6
N	1.274599	0.643747	0.386464	7
H	-0.993001	-2.710303	-1.007046	1
H	0.323669	-1.656213	-1.552256	1
H	-1.352251	-1.089923	-1.629616	1
H	0.170739	-1.745333	0.955374	1
H	-1.494831	-1.182973	0.875034	1
H	-1.802551	1.644537	0.355994	1
H	2.274838	2.547467	0.387284	1
H	2.066119	0.015637	0.395134	1
Es	-0.051397	0.288146	0.374965	99
Es	1.979316	2.360511	0.386093	99
Es	-0.520288	-1.121247	0.376703	99
Es	-0.250245	2.077166	0.365529	99
Es	-0.731381	1.487466	0.365748	99
Es	0.722807	0.446978	0.374560	99
Es	-0.641619	-1.673937	-1.034438	99
Es	-0.385429	0.911224	0.057516	99
Es	0.608551	2.279985	0.113020	99
Es	1.337524	2.007630	0.381431	99
Es	0.604671	2.279722	0.634303	99
Es	0.140342	2.544648	0.369216	99
Es	-0.880865	-2.383694	-1.007358	99
Es	-1.463410	1.586805	0.359675	99
Es	-1.126978	-1.271867	-1.431024	99
Es	1.194920	0.776502	0.387948	99
Es	0.053395	2.914580	0.368852	99
Es	-0.574047	-1.383758	-0.325375	99
Es	1.346132	1.222354	0.387721	99
Es	0.025624	-1.658227	-1.379124	99
Es	-0.272608	-0.407870	0.371977	99
Es	-0.036917	-1.543820	0.764877	99
Es	1.746368	0.268054	0.391016	99
Es	-1.184415	-1.158088	0.708122	99
Es	-0.385638	0.923592	0.683140	99
Es	1.274588	0.643775	0.386208	99
41
Properties=species:S:1:pos:R:3:Z:I:1 energy=-302.99633313338745 field_type=dipole dipole="0.000000 0.000000 0.000000" charge=0
C	-0.641631	-1.673943	-1.034476	6
C	-0.520321	-1.121303	0.376734	6
C	-0.051631	0.288227	0.374974	6
C	-0.731401	1.487377	0.365754	6
N	0.140179	2.545197	0.369214	7
C	1.337479	2.007807	0.381434	6
N	1.274599	0.643747	0.386464	7
H	-0.993001	-2.710303	-1.007046	1
H	0.323669	-1.656213	-1.552256	1
H	-1.352251	-1.089923	-1.629616	1
H	0.170739	-1.745333	0.955374	1
H	-1.494831	-1.182973	0.875034	1
H	-1.802551	1.644537	0.355994	1
H	2.274838	2.547467	0.387284	1
H	2.066119	0.015637	0.395134	1
Es	0.027075	-1.657374	-1.377632	99
Es	-0.641619	-1.673937	-1.034437	99
Es	1.196031	0.775927	0.384892	99
Es	-1.463938	1.586429	0.359807	99
Es	0.723084	0.447371	0.372561	99
Es	-0.035991	-1.546084	0.762652	99
Es	-0.573645	-1.383052	-0.324079	99
Es	1.345734	1.221980	0.392403	99
Es	-0.051399	0.288147	0.374971	99
Es	-0.249882	2.076498	0.366073	99
Es	1.274494	0.643907	0.387045	99
Es	0.140339	2.544631	0.369217	99
Es	0.055059	2.916750	0.369693	99
Es	1.337524	2.007630	0.381438	99
Es	-1.186351	-1.159319	0.705831	99
Es	1.979354	2.360817	0.386382	99
Es	-1.127718	-1.269972	-1.429231	99
Es	1.746636	0.268065	0.390252	99
Es	0.606352	2.278667	0.115649	99
Es	-0.386319	0.909946	0.059577	99
Es	-0.520288	-1.121249	0.376694	99
Es	-0.272916	-0.407533	0.370546	99
Es	-0.881164	-2.384021	-1.006311	99
Es	-0.384685	0.926506	0.680701	99
Es	0.604619	2.278431	0.630867	99
Es	-0.731383	1.487468	0.365745	99
41
Properties=species:S:1:pos:R:3:Z:I:1 energy=-302.99633313338745 field_type=dipole dipole="0.000000 0.000000 0.000000" charge=0
C	-0.641631	-1.673943	-1.034476	6
C	-0.520321	-1.121303	0.376734	6
C	-0.051631	0.288227	0.374974	6
C	-0.731401	1.487377	0.365754	6
N	0.140179	2.545197	0.369214	7
C	1.337479	2.007807	0.381434	6
N	1.274599	0.643747	0.386464	7
H	-0.993001	-2.710303	-1.007046	1
H	0.323669	-1.656213	-1.552256	1
H	-1.352251	-1.089923	-1.629616	1
H	0.170739	-1.745333	0.955374	1
H	-1.494831	-1.182973	0.875034	1
H	-1.802551	1.644537	0.355994	1
H	2.274838	2.547467	0.387284	1
H	2.066119	0.015637	0.395134	1
Es	-1.464269	1.586222	0.360165	99
Es	1.345400	1.221641	0.396703	99
Es	0.140331	2.544628	0.369219	99
Es	1.337527	2.007631	0.381435	99
Es	-0.051397	0.288147	0.374963	99
Es	0.028365	-1.656421	-1.376081	99
Es	-0.386480	0.909567	0.060869	99
Es	-0.641619	-1.673937	-1.034438	99
Es	-0.520288	-1.121247	0.376702	99
Es	-0.384522	0.927904	0.678943	99
Es	1.196677	0.775878	0.382567	99
Es	-0.035273	-1.548038	0.760056	99
Es	0.054800	2.917819	0.370742	99
Es	-0.248629	2.075319	0.366987	99
Es	0.723232	0.447688	0.371905	99
Es	-1.128425	-1.268361	-1.427209	99
Es	0.612395	2.279757	0.627098	99
Es	1.746776	0.268074	0.389134	99
Es	0.597476	2.276753	0.118025	99
Es	-1.187694	-1.160297	0.704028	99
Es	-0.573704	-1.382710	-0.323131	99
Es	-0.881246	-2.384161	-1.005627	99
Es	1.979358	2.360962	0.386536	99
Es	-0.731382	1.487469	0.365760	99
Es	1.274593	0.643760	0.386642	99
Es	-0.273002	-0.407419	0.369312	99
41
Properties=species:S:1:pos:R:3:Z:I:1 energy=-302.99633313338745 field_type=dipole dipole="0.000000 0.000000 0.000000" charge=0
C	-0.641631	-1.673943	-1.034476	6
C	-0.520321	-1.121303	0.376734	6
C	-0.051631	0.288227	0.374974	6
C	-0.731401	1.487377	0.365754	6
N	0.140179	2.545197	0.369214	7
C	1.337479	2.007807	0.381434	6
N	1.274599	0.643747	0.386464	7
H	-0.993001	-2.710303	-1.007046	1
H	0.323669	-1.656213	-1.552256	1
H	-1.352251	-1.089923	-1.629616	1
H	0.170739	-1.745333	0.955374	1
H	-1.494831	-1.182973	0.875034	1
H	-1.802551	1.644537	0.355994	1
H	2.274838	2.547467	0.387284	1
H	2.066119	0.015637	0.395134	1
Es	1.337525	2.007629	0.381443	99
Es	-0.273136	-0.407271	0.368562	99
Es	-0.051398	0.288147	0.374970	99
Es	1.274576	0.643802	0.386107	99
Es	-0.034742	-1.549775	0.757545	99
Es	1.197199	0.775632	0.383593	99
Es	-0.382793	0.931475	0.677042	99
Es	0.029143	-1.655854	-1.374872	99
Es	-0.881354	-2.384225	-1.005195	99
Es	-1.464450	1.586108	0.360461	99
Es	1.746912	0.268057	0.388091	99
Es	1.345218	1.221411	0.398332	99
Es	-0.248282	2.074834	0.367555	99
Es	1.979377	2.361042	0.386546	99
Es	0.615777	2.280155	0.624310	99
Es	-0.731383	1.487470	0.365746	99
Es	0.055248	2.918556	0.371278	99
Es	0.593042	2.275519	0.120208	99
Es	-0.573487	-1.382052	-0.321657	99
Es	-0.641619	-1.673937	-1.034439	99
Es	0.140336	2.544648	0.369217	99
Es	-1.128821	-1.266991	-1.425433	99
Es	0.723337	0.448000	0.370468	99
Es	-0.520288	-1.121246	0.376702	99
Es	-1.188719	-1.161228	0.702086	99
Es	-0.388215	0.906722	0.062636	99
41
Properties=species:S:1:pos:R:3:Z:I:1 energy=-302.99633313338745 field_type=dipole dipole="0.000000 0.000000 0.000000" charge=0
C	-0.641631	-1.673943	-1.034476	6
C	-0.520321	-1.121303	0.376734	6
C	-0.051631	0.288227	0.374974	6
C	-0.731401	1.487377	0.365754	6
N	0.140179	2.545197	0.369214	7
C	1.337479	2.007807	0.381434	6
N	1.274599	0.643747	0.386464	7
H	-0.993001	-2.710303	-1.007046	1
H	0.323669	-1.656213	-1.552256	1
H	-1.352251	-1.089923	-1.629616	1
H	0.170739	-1.745333	0.955374	1
H	-1.494831	-1.182973	0.875034	1
H	-1.802551	1.644537	0.355994	1
H	2.274838	2.547467	0.387284	1
H	2.066119	0.015637	0.395134	1
Es	-0.641618	-1.673936	-1.034437	99
Es	-0.034318	-1.551213	0.755097	99
Es	0.592396	2.275275	0.121285	99
Es	-0.881377	-2.384197	-1.004829	99
Es	-0.381120	0.934876	0.674722	99
Es	1.337526	2.007629	0.381435	99
Es	-1.189358	-1.161777	0.700827	99
Es	0.029790	-1.655402	-1.373750	99
Es	0.723481	0.447981	0.370403	99
Es	-1.129171	-1.265858	-1.423814	99
Es	-0.573531	-1.381666	-0.320712	99
Es	-0.248090	2.074494	0.367485	99
Es	1.979368	2.361092	0.386637	99
Es	-0.520288	-1.121248	0.376701	99
Es	1.274602	0.643751	0.386353	99
Es	1.746963	0.268068	0.387876	99
Es	-0.051398	0.288146	0.374969	99
Es	-0.273337	-0.407226	0.368001	99
Es	-1.464584	1.585976	0.360668	99
Es	0.615758	2.279828	0.623373	99
Es	0.055651	2.919065	0.371469	99
Es	-0.731382	1.487470	0.365749	99
Es	0.140341	2.544646	0.369216	99
Es	-0.389889	0.904050	0.064721	99
Es	1.197664	0.775685	0.378990	99
Es	1.344924	1.221120	0.402870	99
41
Properties=species:S:1:pos:R:3:Z:I:1 energy=-302.99633313338745 field_type=dipole dipole="0.000000 0.000000 0.000000" charge=0
C	-0.641631	-1.673943	-1.034476	6
C	-0.520321	-1.121303	0.376734	6
C	-0.051631	0.288227	0.374974	6
C	-0.731401	1.487377	0.365754	6
N	0.140179	2.545197	0.369214	7
C	1.337479	2.007807	0.381434	6
N	1.274599	0.643747	0.386464	7
H	-0.993001	-2.710303	-1.007046	1
H	0.323669	-1.656213	-1.552256	1
H	-1.352251	-1.089923	-1.629616	1
H	0.170739	-1.745333	0.955374	1
H	-1.494831	-1.182973	0.875034	1
H	-1.802551	1.644537	0.355994	1
H	2.274838	2.547467	0.387284	1
H	2.066119	0.015637	0.395134	1
Es	-0.573609	-1.381752	-0.320428	99
Es	1.747035	0.267978	0.387205	99
Es	1.198093	0.775620	0.379967	99
Es	-1.189618	-1.161961	0.700462	99
Es	0.579486	2.272470	0.128500	99
Es	1.337525	2.007629	0.381442	99
Es	-0.273211	-0.407228	0.367657	99
Es	0.140351	2.544642	0.369216	99
Es	1.274603	0.643746	0.386495	99
Es	-0.379965	0.937034	0.672934	99
Es	-0.247806	2.074280	0.368757	99
Es	-1.464625	1.585997	0.361100	99
Es	-1.129317	-1.265108	-1.422404	99
Es	-0.731383	1.487471	0.365749	99
Es	-0.051400	0.288146	0.374969	99
Es	-0.641619	-1.673936	-1.034437	99
Es	1.979367	2.361124	0.386367	99
Es	0.723446	0.448259	0.370941	99
Es	-0.390932	0.902083	0.066074	99
Es	0.055330	2.919000	0.372309	99
Es	1.344901	1.221021	0.401558	99
Es	-0.881483	-2.384176	-1.004760	99
Es	0.628168	2.282650	0.614706	99
Es	0.030148	-1.655102	-1.373298	99
Es	-0.520290	-1.121251	0.376695	99
Es	-0.034193	-1.552007	0.753525	99
41
Properties=species:S:1:pos:R:3:Z:I:1 energy=-302.99633313338745 field_type=dipole dipole="0.000000 0.000000 0.000000" charge=0
C	-0.641631	-1.673943	-1.034476	6
C	-0.520321	-1.121303	0.376734	6
C	-0.051631	0.288227	0.374974	6
C	-0.731401	1.487377	0.365754	6
N	0.140179	2.545197	0.369214	7
C	1.337479	2.007807	0.381434	6
N	1.274599	0.643747	0.386464	7
H	-0.993001	-2.710303	-1.007046	1
H	0.323669	-1.656213	-1.552256	1
H	-1.352251	-1.089923	-1.629616	1
H	0.170739	-1.745333	0.955374	1
H	-1.494831	-1.182973	0.875034	1
H	-1.802551	1.644537	0.355994	1
H	2.274838	2.547467	0.387284	1
H	2.066119	0.015637	0.395134	1
Es	-0.273051	-0.407290	0.367515	99
Es	-1.464625	1.586035	0.361478	99
Es	-0.520288	-1.121248	0.376700	99
Es	-0.881556	-2.384057	-1.004631	99
Es	0.642984	2.286177	0.597169	99
Es	0.140326	2.544645	0.369218	99
Es	0.054875	2.918917	0.373014	99
Es	-0.380570	0.935905	0.673685	99
Es	-1.189702	-1.161910	0.700599	99
Es	-0.247522	2.073910	0.369804	99
Es	1.979391	2.361096	0.386167	99
Es	1.198718	0.775747	0.382650	99
Es	-0.389681	0.902823	0.064932	99
Es	-0.731383	1.487470	0.365753	99
Es	-0.641619	-1.673937	-1.034438	99
Es	0.563470	2.269422	0.144927	99
Es	-1.129364	-1.265082	-1.422208	99
Es	-0.034172	-1.552202	0.752972	99
Es	1.747074	0.268034	0.386126	99
Es	1.274602	0.643747	0.386429	99
Es	1.337525	2.007629	0.381432	99
Es	1.344988	1.221115	0.398406	99
Es	-0.573580	-1.381534	-0.320158	99
Es	0.030197	-1.655221	-1.373504	99
Es	-0.051398	0.288147	0.374963	99
Es	0.723360	0.448292	0.372304	99
41
Properties=species:S:1:pos:R:3:Z:I:1 energy=-302.99633313338745 field_type=dipole dipole="0.000000 0.000000 0.000000" charge=0
C	-0.641631	-1.673943	-1.034476	6
C	-0.520321	-1.121303	0.376734	6
C	-0.051631	0.288227	0.374974	6
C	-0.731401	1.487377	0.365754	6
N	0.140179	2.545197	0.369214	7
C	1.337479	2.007807	0.381434	6
N	1.274599	0.643747	0.386464	7
H	-0.993001	-2.710303	-1.007046	1
H	0.323669	-1.656213	-1.552256	1
H	-1.352251	-1.089923	-1.629616	1
H	0.170739	-1.745333	0.955374	1
H	-1.494831	-1.182973	0.875034	1
H	-1.802551	1.644537	0.355994	1
H	2.274838	2.547467	0.387284	1
H	2.066119	0.015637	0.395134	1
Es	-0.573577	-1.381693	-0.320414	99
Es	0.550601	2.266941	0.164706	99
Es	-0.520289	-1.121248	0.376701	99
Es	-1.189595	-1.161581	0.701162	99
Es	-0.272964	-0.407403	0.367457	99
Es	-1.464598	1.586090	0.361757	99
Es	1.337525	2.007629	0.381430	99
Es	1.747141	0.268035	0.385826	99
Es	1.199403	0.776142	0.380811	99
Es	0.054405	2.918580	0.373257	99
Es	-0.051398	0.288146	0.374967	99
Es	-0.390159	0.901537	0.065483	99
Es	0.654807	2.289348	0.576514	99
Es	-0.034135	-1.551864	0.753517	99
Es	0.030122	-1.655547	-1.374037	99
Es	-1.129534	-1.265358	-1.422480	99
Es	-0.731383	1.487470	0.365755	99
Es	1.979383	2.361089	0.385846	99
Es	-0.881483	-2.383811	-1.004462	99
Es	0.140336	2.544652	0.369215	99
Es	-0.247361	2.073813	0.370472	99
Es	1.344843	1.221027	0.398468	99
Es	1.274601	0.643747	0.386514	99
Es	-0.379413	0.936598	0.673041	99
Es	-0.641618	-1.673933	-1.034433	99
Es	0.723342	0.448223	0.374230	99
41
Properties=species:S:1:pos:R:3:Z:I:1 energy=-302.99633313338745 field_type=dipole dipole="0.000000 0.000000 0.000000" charge=0
C	-0.641631	-1.673943	-1.034476	6
C	-0.520321	-1.121303	0.376734	6
C	-0.051631	0.288227	0.374974	6
C	-0.731401	1.487377	0.365754	6
N	0.140179	2.545197	0.369214	7
C	1.337479	2.007807	0.381434	6
N	1.274599	0.643747	0.386464	7
H	-0.993001	-2.710303	-1.007046	1
H	0.323669	-1.656213	-1.552256	1
H	-1.352251	-1.089923	-1.629616	1
H	0.170739	-1.745333	0.955374	1
H	-1.494831	-1.182973	0.875034	1
H	-1.802551	1.644537	0.355994	1
H	2.274838	2.547467	0.387284	1
H	2.066119	0.015637	0.395134	1
Es	-0.247079	2.073641	0.370408	99
Es	-1.189814	-1.161671	0.700945	99
Es	0.656964	2.289645	0.571549	99
Es	-0.273012	-0.407475	0.367318	99
Es	0.054343	2.918813	0.373450	99
Es	-1.129471	-1.264953	-1.421981	99
Es	0.140325	2.544660	0.369215	99
Es	-0.881620	-2.383816	-1.004437	99
Es	-0.051399	0.288145	0.374965	99
Es	-0.378763	0.937875	0.672039	99
Es	-0.731383	1.487468	0.365762	99
Es	-1.464650	1.586108	0.361761	99
Es	1.344915	1.221001	0.398412	99
Es	1.199633	0.775971	0.381612	99
Es	0.548061	2.266374	0.169656	99
Es	-0.573551	-1.381543	-0.320160	99
Es	-0.520290	-1.121247	0.376701	99
Es	-0.390812	0.900484	0.066561	99
Es	-0.033962	-1.552207	0.752679	99
Es	1.274558	0.643835	0.386016	99
Es	1.747119	0.268006	0.385532	99
Es	0.723383	0.448257	0.374247	99
Es	-0.641618	-1.673936	-1.034437	99
Es	1.979348	2.361088	0.385807	99
Es	1.337525	2.007629	0.381433	99
Es	0.030251	-1.655525	-1.373751	99
41
Properties=species:S:1:pos:R:3:Z:I:1 energy=-302.99633313338745 field_type=dipole dipole="0.000000 0.000000 0.000000" charge=0
C	-0.641631	-1.673943	-1.034476	6
C	-0.520321	-1.121303	0.376734	6
C	-0.051631	0.288227	0.374974	6
C	-0.731401	1.487377	0.365754	6
N	0.140179	2.545197	0.369214	7
C	1.337479	2.007807	0.381434	6
N	1.274599	0.643747	0.386464	7
H	-0.993001	-2.710303	-1.007046	1
H	0.323669	-1.656213	-1.552256	1
H	-1.352251	-1.089923	-1.629616	1
H	0.170739	-1.745333	0.955374	1
H	-1.494831	-1.182973	0.875034	1
H	-1.802551	1.644537	0.355994	1
H	2.274838	2.547467	0.387284	1
H	2.066119	0.015637	0.395134	1
Es	-0.880593	-2.383262	-1.005548	99
Es	1.274589	0.643766	0.386671	99
Es	-0.573895	-1.382751	-0.323253	99
Es	1.747383	0.268126	0.390187	99
Es	1.337525	2.007629	0.381438	99
Es	-0.731382	1.487469	0.365747	99
Es	1.344372	1.220354	0.404223	99
Es	-1.187726	-1.159511	0.704128	99
Es	0.506909	2.259860	0.412401	99
Es	-1.129198	-1.268528	-1.427959	99
Es	-1.464383	1.586586	0.359585	99
Es	0.691440	2.298659	0.335311	99
Es	1.202913	0.779885	0.378922	99
Es	0.053998	2.918251	0.371296	99
Es	-0.034661	-1.548059	0.760607	99
Es	-0.641619	-1.673936	-1.034438	99
Es	-0.386239	0.904981	0.061615	99
Es	-0.273140	-0.407710	0.368870	99
Es	-0.379605	0.928130	0.679231	99
Es	-0.247684	2.072990	0.363191	99
Es	1.979353	2.361252	0.387290	99
Es	-0.520289	-1.121247	0.376702	99
Es	0.723428	0.448015	0.366794	99
Es	0.028569	-1.657105	-1.375895	99
Es	-0.051399	0.288146	0.374971	99
Es	0.140336	2.544638	0.369215	99
41
Properties=species:S:1:pos:R:3:Z:I:1 energy=-302.99633313338745 field_type=dipole dipole="0.000000 0.000000 0.000000" charge=0
C	-0.641631	-1.673943	-1.034476	6
C	-0.520321	-1.121303	0.376734	6
C	-0.051631	0.288227	0.374974	6
C	-0.731401	1.487377	0.365754	6
N	0.140179	2.545197	0.369214	7
C	1.337479	2.007807	0.381434	6
N	1.274599	0.643747	0.386464	7
H	-0.993001	-2.710303	-1.007046	1
H	0.323669	-1.656213	-1.552256	1
H	-1.352251	-1.089923	-1.629616	1
H	0.170739	-1.745333	0.955374	1
H	-1.494831	-1.182973	0.875034	1
H	-1.802551	1.644537	0.355994	1
H	2.274838	2.547467	0.387284	1
H	2.066119	0.015637	0.395134	1
Es	1.979318	2.361139	0.388594	99
Es	-0.520289	-1.121249	0.376698	99
Es	0.055278	2.919346	0.371623	99
Es	-0.880582	-2.383884	-1.005023	99
Es	-0.371874	0.946438	0.662418	99
Es	0.140347	2.544639	0.369215	99
Es	0.662788	2.291553	0.180422	99
Es	-0.397804	0.892321	0.078848	99
Es	-0.573277	-1.381526	-0.320042	99
Es	-1.129858	-1.265347	-1.423906	99
Es	0.030241	-1.655136	-1.371938	99
Es	1.344238	1.220043	0.410430	99
Es	1.747271	0.268019	0.391272	99
Es	-0.247212	2.074182	0.361177	99
Es	1.274582	0.643776	0.386710	99
Es	0.541372	2.263066	0.568551	99
Es	-0.731383	1.487470	0.365747	99
Es	0.724072	0.448899	0.358831	99
Es	-0.273766	-0.407206	0.367765	99
Es	1.337525	2.007629	0.381440	99
Es	-0.641619	-1.673936	-1.034438	99
Es	-1.190000	-1.162287	0.698239	99
Es	1.199615	0.776084	0.379480	99
Es	-0.051398	0.288146	0.374967	99
Es	-1.464702	1.586171	0.358979	99
Es	-0.033884	-1.551722	0.755241	99
41
Properties=species:S:1:pos:R:3:Z:I:1 energy=-302.99633313338745 field_type=dipole dipole="0.000000 0.000000 0.000000" charge=0
C	-0.641631	-1.673943	-1.034476	6
C	-0.520321	-1.121303	0.376734	6
C	-0.051631	0.288227	0.374974	6
C	-0.731401	1.487377	0.365754	6
N	0.140179	2.545197	0.369214	7
C	1.337479	2.007807	0.381434	6
N	1.274599	0.643747	0.386464	7
H	-0.993001	-2.710303	-1.007046	1
H	0.323669	-1.656213	-1.552256	1
H	-1.352251	-1.089923	-1.629616	1
H	0.170739	-1.745333	0.955374	1
H	-1.494831	-1.182973	0.875034	1
H	-1.802551	1.644537	0.355994	1
H	2.274838	2.547467	0.387284	1
H	2.066119	0.015637	0.395134	1
Es	-0.273023	-0.407528	0.367421	99
Es	-1.189679	-1.161466	0.701271	99
Es	1.200897	0.776843	0.381291	99
Es	-0.731383	1.487470	0.365752	99
Es	-1.464640	1.586228	0.361949	99
Es	-0.033857	-1.551838	0.753397	99
Es	-0.377679	0.937643	0.671958	99
Es	-0.051397	0.288146	0.374969	99
Es	-0.881492	-2.383545	-1.004414	99
Es	1.747223	0.267983	0.385061	99
Es	1.337525	2.007629	0.381432	99
Es	0.053664	2.918496	0.373709	99
Es	-0.573461	-1.381544	-0.320317	99
Es	-0.246870	2.073321	0.370663	99
Es	0.531891	2.263642	0.207266	99
Es	0.030140	-1.655864	-1.374325	99
Es	0.140342	2.544633	0.369223	99
Es	0.670897	2.293264	0.533501	99
Es	1.344770	1.220858	0.397795	99
Es	1.274589	0.643778	0.386177	99
Es	-0.641618	-1.673934	-1.034432	99
Es	-1.129657	-1.265339	-1.422424	99
Es	1.979373	2.361070	0.385744	99
Es	0.723332	0.448388	0.375396	99
Es	-0.390594	0.899544	0.066538	99
Es	-0.520289	-1.121248	0.376701	99
41
Properties=species:S:1:pos:R:3:Z:I:1 energy=-302.99633313338745 field_type=dipole dipole="0.000000 0.000000 0.000000" charge=0
C	-0.641631	-1.673943	-1.034476	6
C	-0.520321	-1.121303	0.376734	6
C	-0.051631	0.288227	0.374974	6
C	-0.731401	1.487377	0.365754	6
N	0.140179	2.545197	0.369214	7
C	1.337479	2.007807	0.381434	6
N	1.274599	0.643747	0.386464	7
H	-0.993001	-2.710303	-1.007046	1
H	0.323669	-1.656213	-1.552256	1
H	-1.352251	-1.089923	-1.629616	1
H	0.170739	-1.745333	0.955374	1
H	-1.494831	-1.182973	0.875034	1
H	-1.802551	1.644537	0.355994	1
H	2.274838	2.547467	0.387284	1
H	2.066119	0.015637	0.395134	1
Es	1.344568	1.220529	0.403401	99
Es	0.723386	0.448293	0.373981	99
Es	-1.464674	1.586172	0.361978	99
Es	-0.033796	-1.552360	0.752432	99
Es	-0.051399	0.288146	0.374973	99
Es	0.030404	-1.655655	-1.373823	99
Es	1.747290	0.268090	0.385149	99
Es	1.337525	2.007629	0.381434	99
Es	0.053982	2.918539	0.373854	99
Es	0.140342	2.544661	0.369214	99
Es	-0.641619	-1.673936	-1.034437	99
Es	-1.129748	-1.264960	-1.421796	99
Es	1.979358	2.361077	0.385783	99
Es	-1.189826	-1.161545	0.700983	99
Es	0.671423	2.293396	0.531052	99
Es	-0.247058	2.073199	0.370893	99
Es	1.274540	0.643842	0.386910	99
Es	-0.379854	0.934190	0.674151	99
Es	1.201306	0.777288	0.376404	99
Es	-0.520288	-1.121248	0.376700	99
Es	-0.273048	-0.407536	0.367266	99
Es	0.530694	2.263663	0.209678	99
Es	-0.731383	1.487469	0.365751	99
Es	-0.881492	-2.383526	-1.004348	99
Es	-0.388049	0.902730	0.063906	99
Es	-0.573583	-1.381522	-0.320185	99
41
Properties=species:S:1:pos:R:3:Z:I:1 energy=-302.99633313338745 field_type=dipole dipole="0.000000 0.000000 0.000000" charge=0
C	-0.641631	-1.673943	-1.034476	6
C	-0.520321	-1.121303	0.376734	6
C	-0.051631	0.288227	0.374974	6
C	-0.731401	1.487377	0.365754	6
N	0.140179	2.545197	0.369214	7
C	1.337479	2.007807	0.381434	6
N	1.274599	0.643747	0.386464	7
H	-0.993001	-2.710303	-1.007046	1
H	0.323669	-1.656213	-1.552256	1
H	-1.352251	-1.089923	-1.629616	1
H	0.170739	-1.745333	0.955374	1
H	-1.494831	-1.182973	0.875034	1
H	-1.802551	1.644537	0.355994	1
H	2.274838	2.547467	0.387284	1
H	2.066119	0.015637	0.395134	1
Es	0.525998	2.263091	0.225864	99
Es	-0.051399	0.288146	0.374972	99
Es	1.337525	2.007629	0.381436	99
Es	1.747312	0.268028	0.385308	99
Es	1.344589	1.220771	0.398583	99
Es	1.274604	0.643747	0.386414	99
Es	-0.033799	-1.551777	0.753478	99
Es	-0.272972	-0.407605	0.367217	99
Es	-1.129735	-1.265342	-1.422432	99
Es	0.723368	0.448316	0.373907	99
Es	0.140325	2.544643	0.369217	99
Es	-0.641619	-1.673936	-1.034437	99
Es	-0.573629	-1.381771	-0.320525	99
Es	-0.378207	0.936019	0.673308	99
Es	0.053195	2.918453	0.374779	99
Es	-1.189649	-1.161247	0.701548	99
Es	0.030236	-1.655893	-1.374233	99
Es	-0.881449	-2.383428	-1.004471	99
Es	1.979420	2.361041	0.385753	99
Es	-1.464646	1.586266	0.361894	99
Es	0.675845	2.294379	0.514896	99
Es	-0.731383	1.487469	0.365753	99
Es	-0.520288	-1.121250	0.376704	99
Es	-0.246510	2.072908	0.369563	99
Es	1.201375	0.777262	0.381466	99
Es	-0.389508	0.900709	0.065342	99
41
Properties=species:S:1:pos:R:3:Z:I:1 energy=-302.99633313338745 field_type=dipole dipole="0.000000 0.000000 0.000000" charge=0
C	-0.641631	-1.673943	-1.034476	6
C	-0.520321	-1.121303	0.376734	6
C	-0.051631	0.288227	0.374974	6
C	-0.731401	1.487377	0.365754	6
N	0.140179	2.545197	0.369214	7
C	1.337479	2.007807	0.381434	6
N	1.274599	0.643747	0.386464	7
H	-0.993001	-2.710303	-1.007046	1
H	0.323669	-1.656213	-1.552256	1
H	-1.352251	-1.089923	-1.629616	1
H	0.170739	-1.745333	0.955374	1
H	-1.494831	-1.182973	0.875034	1
H	-1.802551	1.644537	0.355994	1
H	2.274838	2.547467	0.387284	1
H	2.066119	0.015637	0.395134	1
Es	-0.387680	0.902830	0.063598	99
Es	0.723391	0.448438	0.373834	99
Es	-0.731382	1.487469	0.365767	99
Es	-1.129769	-1.265470	-1.422706	99
Es	1.337525	2.007629	0.381435	99
Es	-0.246643	2.072982	0.370000	99
Es	1.344474	1.220513	0.402591	99
Es	-1.464668	1.586288	0.361802	99
Es	0.053322	2.918426	0.374332	99
Es	-0.379646	0.933224	0.674956	99
Es	1.747332	0.267995	0.385343	99
Es	-0.051399	0.288147	0.374963	99
Es	1.979377	2.361074	0.385990	99
Es	1.201894	0.777961	0.377616	99
Es	0.030243	-1.655892	-1.374147	99
Es	-0.272906	-0.407596	0.367374	99
Es	-0.520289	-1.121248	0.376701	99
Es	-0.881365	-2.383392	-1.004546	99
Es	1.274604	0.643746	0.386424	99
Es	0.140336	2.544638	0.369217	99
Es	0.678368	2.295010	0.504002	99
Es	-0.033809	-1.551995	0.753204	99
Es	-0.641619	-1.673936	-1.034437	99
Es	-0.573638	-1.381422	-0.320044	99
Es	-1.189672	-1.161312	0.701360	99
Es	0.522619	2.262522	0.236674	99
41
Properties=species:S:1:pos:R:3:Z:I:1 energy=-302.99633313338745 field_type=dipole dipole="0.000000 0.000000 0.000000" charge=0
C	-0.641631	-1.673943	-1.034476	6
C	-0.520321	-1.121303	0.376734	6
C	-0.051631	0.288227	0.374974	6
C	-0.731401	1.487377	0.365754	6
N	0.140179	2.545197	0.369214	7
C	1.337479	2.007807	0.381434	6
N	1.274599	0.643747	0.386464	7
H	-0.993001	-2.710303	-1.007046	1
H	0.323669	-1.656213	-1.552256	1
H	-1.352251	-1.089923	-1.629616	1
H	0.170739	-1.745333	0.955374	1
H	-1.494831	-1.182973	0.875034	1
H	-1.802551	1.644537	0.355994	1
H	2.274838	2.547467	0.387284	1
H	2.066119	0.015637	0.395134	1
Es	0.030308	-1.655892	-1.374025	99
Es	0.140336	2.544640	0.369218	99
Es	0.680608	2.295508	0.493861	99
Es	1.979375	2.361069	0.386179	99
Es	-1.464665	1.586263	0.361827	99
Es	1.274602	0.643753	0.386341	99
Es	1.337525	2.007628	0.381432	99
Es	-0.385931	0.904704	0.062457	99
Es	-0.380867	0.931112	0.676059	99
Es	0.053169	2.918278	0.374277	99
Es	-0.033821	-1.551844	0.753474	99
Es	-0.641619	-1.673936	-1.034436	99
Es	-0.273049	-0.407631	0.367349	99
Es	0.519908	2.262270	0.247583	99
Es	0.723415	0.448458	0.371731	99
Es	-0.051398	0.288147	0.374964	99
Es	-0.731383	1.487469	0.365755	99
Es	-0.246677	2.073034	0.369490	99
Es	-0.573685	-1.381684	-0.320600	99
Es	-1.129740	-1.265396	-1.422641	99
Es	1.344540	1.220543	0.401481	99
Es	1.202105	0.778032	0.380838	99
Es	1.747283	0.267968	0.385225	99
Es	-0.520289	-1.121248	0.376700	99
Es	-0.881402	-2.383357	-1.004671	99
Es	-1.189649	-1.161262	0.701437	99
41
Properties=species:S:1:pos:R:3:Z:I:1 energy=-302.99633313338745 field_type=dipole dipole="0.000000 0.000000 0.000000" charge=0
C	-0.641631	-1.673943	-1.034476	6
C	-0.520321	-1.121303	0.376734	6
C	-0.051631	0.288227	0.374974	6
C	-0.731401	1.487377	0.365754	6
N	0.140179	2.545197	0.369214	7
C	1.337479	2.007807	0.381434	6
N	1.274599	0.643747	0.386464	7
H	-0.993001	-2.710303	-1.007046	1
H	0.323669	-1.656213	-1.552256	1
H	-1.352251	-1.089923	-1.629616	1
H	0.170739	-1.745333	0.955374	1
H	-1.494831	-1.182973	0.875034	1
H	-1.802551	1.644537	0.355994	1
H	2.274838	2.547467	0.387284	1
H	2.066119	0.015637	0.395134	1
Es	1.274600	0.643748	0.386541	99
Es	-0.573627	-1.381687	-0.320632	99
Es	-0.641619	-1.673934	-1.034436	99
Es	0.053107	2.918287	0.374788	99
Es	0.723371	0.448420	0.372288	99
Es	-0.388328	0.901519	0.064550	99
Es	1.747297	0.267996	0.385325	99
Es	-0.731383	1.487469	0.365753	99
Es	-0.520288	-1.121248	0.376700	99
Es	0.030327	-1.655942	-1.374075	99
Es	1.201981	0.777653	0.382627	99
Es	-1.189680	-1.161270	0.701373	99
Es	-0.033772	-1.551908	0.753360	99
Es	1.344670	1.220705	0.398806	99
Es	-0.246626	2.072974	0.369760	99
Es	-0.051398	0.288146	0.374967	99
Es	0.680332	2.295449	0.494714	99
Es	-1.129865	-1.265323	-1.422478	99
Es	-0.881343	-2.383289	-1.004502	99
Es	1.979376	2.361072	0.386076	99
Es	1.337525	2.007629	0.381431	99
Es	0.140339	2.544638	0.369218	99
Es	-0.378618	0.934686	0.674115	99
Es	0.520337	2.262205	0.245938	99
Es	-1.464666	1.586272	0.361789	99
Es	-0.273046	-0.407638	0.367307	99
41
Properties=species:S:1:pos:R:3:Z:I:1 energy=-302.99633313338745 field_type=dipole dipole="0.000000 0.000000 0.000000" charge=0
C	-0.641631	-1.673943	-1.034476	6
C	-0.520321	-1.121303	0.376734	6
C	-0.051631	0.288227	0.374974	6
C	-0.731401	1.487377	0.365754	6
N	0.140179	2.545197	0.369214	7
C	1.337479	2.007807	0.381434	6
N	1.274599	0.643747	0.386464	7
H	-0.993001	-2.710303	-1.007046	1
H	0.323669	-1.656213	-1.552256	1
H	-1.352251	-1.089923	-1.629616	1
H	0.170739	-1.745333	0.955374	1
H	-1.494831	-1.182973	0.875034	1
H	-1.802551	1.644537	0.355994	1
H	2.274838	2.547467	0.387284	1
H	2.066119	0.015637	0.395134	1
Es	-1.464708	1.586228	0.361863	99
Es	1.337525	2.007629	0.381435	99
Es	0.053089	2.918370	0.374485	99
Es	-0.520288	-1.121249	0.376695	99
Es	0.140336	2.544638	0.369216	99
Es	1.344415	1.220506	0.403204	99
Es	-0.246490	2.072932	0.369855	99
Es	1.202180	0.777988	0.377989	99
Es	1.747321	0.267983	0.385167	99
Es	1.274601	0.643748	0.386509	99
Es	-0.641615	-1.673926	-1.034414	99
Es	0.679832	2.295352	0.496994	99
Es	-0.731382	1.487469	0.365758	99
Es	-1.129883	-1.265022	-1.422038	99
Es	-1.189839	-1.161359	0.700996	99
Es	-0.033739	-1.552238	0.752825	99
Es	-0.573570	-1.381614	-0.320301	99
Es	-0.387676	0.902498	0.063988	99
Es	0.520778	2.262210	0.243920	99
Es	0.030414	-1.655879	-1.373865	99
Es	-0.273065	-0.407623	0.367081	99
Es	-0.881386	-2.383319	-1.004368	99
Es	-0.051398	0.288146	0.374966	99
Es	0.723489	0.448366	0.372785	99
Es	1.979369	2.361067	0.386094	99
Es	-0.379309	0.933726	0.674462	99
