41
Properties=species:S:1:pos:R:3:Z:I:1 energy=-302.92830277668105 field_type=dipole dipole="0.000000 0.000000 0.000000" charge=0
C	-1.972445	-1.229719	-0.327089	6
C	-0.514275	-1.154809	-0.010179	6
C	0.224295	-0.039909	0.003961	6
C	1.672975	0.138611	0.307831	6
N	1.867105	1.576801	0.068171	7
N	0.693195	2.243841	-0.145779	7
C	-0.231675	1.339361	-0.239809	6
H	-2.219075	-2.230618	-0.694509	1
H	-2.259865	-0.518239	-1.106369	1
H	-2.566785	-1.042479	0.571751	1
H	-0.030265	-2.100979	0.225911	1
H	2.311375	-0.444599	-0.361389	1
H	1.888985	-0.111179	1.351231	1
H	2.426605	2.020791	0.796621	1
H	-1.290155	1.553121	-0.440359	1
Es	1.268455	1.886373	0.002422	99
Es	-0.514344	-1.154882	-0.010190	99
Es	1.815509	-0.033370	1.016110	99
Es	2.181715	1.839787	0.520545	99
Es	-0.187665	-1.800840	0.152723	99
Es	0.314812	1.794411	-0.467791	99
Es	0.953301	0.012668	0.162162	99
Es	0.691731	2.617244	-0.164306	99
Es	1.672951	0.138752	0.307811	99
Es	1.866597	1.576762	0.068782	99
Es	-1.972392	-1.229715	-0.327077	99
Es	-0.033012	0.634528	-0.134037	99
Es	1.989230	1.613431	-0.219767	99
Es	-1.239832	-1.183303	-0.171218	99
Es	-0.944135	1.485187	-0.379866	99
Es	0.224379	-0.039774	0.003964	99
Es	1.768872	0.953879	0.202761	99
Es	0.199226	1.823819	0.091593	99
Es	-2.135193	-1.908581	-0.573675	99
Es	-2.161414	-0.740806	-0.849186	99
Es	-0.231683	1.339341	-0.239842	99
Es	0.693249	2.243214	-0.145732	99
Es	-0.068929	-0.617853	-0.328158	99
Es	-0.214860	-0.532822	0.310280	99
Es	-2.363310	-1.099212	0.280980	99
Es	2.099052	-0.263261	-0.141194	99
41
Properties=species:S:1:pos:R:3:Z:I:1 energy=-302.92830277668105 field_type=dipole dipole="0.000000 0.000000 0.000000" charge=0
C	-1.972445	-1.229719	-0.327089	6
C	-0.514275	-1.154809	-0.010179	6
C	0.224295	-0.039909	0.003961	6
C	1.672975	0.138611	0.307831	6
N	1.867105	1.576801	0.068171	7
N	0.693195	2.243841	-0.145779	7
C	-0.231675	1.339361	-0.239809	6
H	-2.219075	-2.230618	-0.694509	1
H	-2.259865	-0.518239	-1.106369	1
H	-2.566785	-1.042479	0.571751	1
H	-0.030265	-2.100979	0.225911	1
H	2.311375	-0.444599	-0.361389	1
H	1.888985	-0.111179	1.351231	1
H	2.426605	2.020791	0.796621	1
H	-1.290155	1.553121	-0.440359	1
Es	2.098686	-0.261414	-0.136498	99
Es	1.267291	1.887078	0.002513	99
Es	-0.068694	-0.617919	-0.328417	99
Es	0.200657	1.819965	0.089596	99
Es	-0.231687	1.339335	-0.239846	99
Es	-2.140131	-1.912606	-0.573732	99
Es	-1.972393	-1.229715	-0.327077	99
Es	-2.359593	-1.097704	0.274765	99
Es	1.816294	-0.032450	1.010076	99
Es	1.672951	0.138756	0.307810	99
Es	0.693260	2.243204	-0.145732	99
Es	1.960917	1.611085	-0.200655	99
Es	-0.032546	0.632356	-0.133602	99
Es	1.866551	1.576766	0.068780	99
Es	-0.944181	1.485041	-0.379324	99
Es	2.207275	1.849261	0.502922	99
Es	1.773363	0.951793	0.201353	99
Es	0.691655	2.621644	-0.165558	99
Es	0.950230	0.009711	0.162214	99
Es	-1.238985	-1.181346	-0.169454	99
Es	0.316440	1.790662	-0.465074	99
Es	-0.187917	-1.798663	0.152401	99
Es	-2.162388	-0.741956	-0.844464	99
Es	-0.214775	-0.533245	0.311334	99
Es	-0.514342	-1.154885	-0.010197	99
Es	0.224375	-0.039779	0.003960	99
41
Properties=species:S:1:pos:R:3:Z:I:1 energy=-302.92830277668105 field_type=dipole dipole="0.000000 0.000000 0.000000" charge=0
C	-1.972445	-1.229719	-0.327089	6
C	-0.514275	-1.154809	-0.010179	6
C	0.224295	-0.039909	0.003961	6
C	1.672975	0.138611	0.307831	6
N	1.867105	1.576801	0.068171	7
N	0.693195	2.243841	-0.145779	7
C	-0.231675	1.339361	-0.239809	6
H	-2.219075	-2.230618	-0.694509	1
H	-2.259865	-0.518239	-1.106369	1
H	-2.566785	-1.042479	0.571751	1
H	-0.030265	-2.100979	0.225911	1
H	2.311375	-0.444599	-0.361389	1
H	1.888985	-0.111179	1.351231	1
H	2.426605	2.020791	0.796621	1
H	-1.290155	1.553121	-0.440359	1
Es	-0.214764	-0.533367	0.312570	99
Es	-1.972394	-1.229717	-0.327077	99
Es	-1.238413	-1.179946	-0.169131	99
Es	1.940684	1.609802	-0.179829	99
Es	-0.032333	0.630561	-0.133289	99
Es	0.201660	1.817364	0.089021	99
Es	-0.514345	-1.154883	-0.010184	99
Es	0.317728	1.788663	-0.464190	99
Es	2.097586	-0.259746	-0.133296	99
Es	-0.188257	-1.796489	0.152272	99
Es	1.866418	1.576808	0.068681	99
Es	0.693076	2.624267	-0.166082	99
Es	0.224379	-0.039779	0.003951	99
Es	0.948849	0.007904	0.162876	99
Es	-2.163230	-0.743948	-0.840936	99
Es	2.225728	1.854600	0.482483	99
Es	0.693239	2.243204	-0.145732	99
Es	-2.355869	-1.096733	0.269677	99
Es	1.816595	-0.031496	1.004875	99
Es	1.775256	0.951138	0.200963	99
Es	1.266139	1.886777	0.002393	99
Es	-0.068347	-0.618180	-0.329135	99
Es	-0.231691	1.339336	-0.239837	99
Es	-2.144254	-1.914771	-0.572105	99
Es	-0.944080	1.484851	-0.378653	99
Es	1.672951	0.138756	0.307810	99
41
Properties=species:S:1:pos:R:3:Z:I:1 energy=-302.92830277668105 field_type=dipole dipole="0.000000 0.000000 0.000000" charge=0
C	-1.972445	-1.229719	-0.327089	6
C	-0.514275	-1.154809	-0.010179	6
C	0.224295	-0.039909	0.003961	6
C	1.672975	0.138611	0.307831	6
N	1.867105	1.576801	0.068171	7
N	0.693195	2.243841	-0.145779	7
C	-0.231675	1.339361	-0.239809	6
H	-2.219075	-2.230618	-0.694509	1
H	-2.259865	-0.518239	-1.106369	1
H	-2.566785	-1.042479	0.571751	1
H	-0.030265	-2.100979	0.225911	1
H	2.311375	-0.444599	-0.361389	1
H	1.888985	-0.111179	1.351231	1
H	2.426605	2.020791	0.796621	1
H	-1.290155	1.553121	-0.440359	1
Es	1.926737	1.609844	-0.159336	99
Es	-2.163436	-0.745871	-0.838248	99
Es	0.693240	2.243210	-0.145731	99
Es	0.318876	1.787327	-0.463860	99
Es	-0.188453	-1.794339	0.152169	99
Es	1.776343	0.950683	0.200700	99
Es	1.264273	1.885721	0.002200	99
Es	0.224377	-0.039777	0.003959	99
Es	-0.067966	-0.618518	-0.329857	99
Es	2.096955	-0.258571	-0.130507	99
Es	2.238107	1.857516	0.462702	99
Es	1.672951	0.138757	0.307810	99
Es	-0.231692	1.339333	-0.239845	99
Es	0.202197	1.815704	0.089189	99
Es	-0.214964	-0.533225	0.313570	99
Es	-2.352960	-1.096257	0.265280	99
Es	0.695793	2.626126	-0.166067	99
Es	-1.238150	-1.179391	-0.169039	99
Es	-0.514347	-1.154884	-0.010188	99
Es	-0.943900	1.484673	-0.378479	99
Es	-2.147546	-1.915841	-0.570268	99
Es	-1.972393	-1.229716	-0.327077	99
Es	-0.032186	0.628830	-0.133180	99
Es	1.866288	1.577000	0.068114	99
Es	1.815930	-0.030345	1.000629	99
Es	0.948237	0.006988	0.163454	99
41
Properties=species:S:1:pos:R:3:Z:I:1 energy=-302.92830277668105 field_type=dipole dipole="0.000000 0.000000 0.000000" charge=0
C	-1.972445	-1.229719	-0.327089	6
C	-0.514275	-1.154809	-0.010179	6
C	0.224295	-0.039909	0.003961	6
C	1.672975	0.138611	0.307831	6
N	1.867105	1.576801	0.068171	7
N	0.693195	2.243841	-0.145779	7
C	-0.231675	1.339361	-0.239809	6
H	-2.219075	-2.230618	-0.694509	1
H	-2.259865	-0.518239	-1.106369	1
H	-2.566785	-1.042479	0.571751	1
H	-0.030265	-2.100979	0.225911	1
H	2.311375	-0.444599	-0.361389	1
H	1.888985	-0.111179	1.351231	1
H	2.426605	2.020791	0.796621	1
H	-1.290155	1.553121	-0.440359	1
Es	0.948058	0.006375	0.164308	99
Es	2.096026	-0.257350	-0.128541	99
Es	-0.943759	1.484590	-0.378292	99
Es	1.672952	0.138757	0.307813	99
Es	1.866502	1.576778	0.068859	99
Es	0.693247	2.243197	-0.145730	99
Es	-2.350016	-1.096365	0.261298	99
Es	-2.150494	-1.916313	-0.568065	99
Es	0.319648	1.786550	-0.463589	99
Es	-1.972392	-1.229713	-0.327076	99
Es	1.919028	1.611151	-0.146258	99
Es	-0.067711	-0.618612	-0.330210	99
Es	-0.514350	-1.154883	-0.010186	99
Es	-0.188640	-1.792530	0.152047	99
Es	1.776796	0.950253	0.199980	99
Es	0.224378	-0.039776	0.003962	99
Es	-1.237918	-1.178630	-0.169609	99
Es	1.262536	1.884766	0.001108	99
Es	-0.215054	-0.533292	0.314016	99
Es	1.815651	-0.029507	0.997112	99
Es	-0.032166	0.627263	-0.132896	99
Es	2.244204	1.858745	0.450251	99
Es	0.698479	2.627615	-0.165567	99
Es	0.202867	1.814246	0.088943	99
Es	-2.163869	-0.747672	-0.835749	99
Es	-0.231692	1.339334	-0.239835	99
41
Properties=species:S:1:pos:R:3:Z:I:1 energy=-302.92830277668105 field_type=dipole dipole="0.000000 0.000000 0.000000" charge=0
C	-1.972445	-1.229719	-0.327089	6
C	-0.514275	-1.154809	-0.010179	6
C	0.224295	-0.039909	0.003961	6
C	1.672975	0.138611	0.307831	6
N	1.867105	1.576801	0.068171	7
N	0.693195	2.243841	-0.145779	7
C	-0.231675	1.339361	-0.239809	6
H	-2.219075	-2.230618	-0.694509	1
H	-2.259865	-0.518239	-1.106369	1
H	-2.566785	-1.042479	0.571751	1
H	-0.030265	-2.100979	0.225911	1
H	2.311375	-0.444599	-0.361389	1
H	1.888985	-0.111179	1.351231	1
H	2.426605	2.020791	0.796621	1
H	-1.290155	1.553121	-0.440359	1
Es	0.948007	0.006013	0.164941	99
Es	0.693240	2.243207	-0.145732	99
Es	-2.152717	-1.916530	-0.566088	99
Es	2.249000	1.859438	0.438381	99
Es	0.224376	-0.039777	0.003964	99
Es	-0.231694	1.339334	-0.239832	99
Es	-2.163930	-0.749443	-0.833753	99
Es	-0.188782	-1.791059	0.151704	99
Es	-1.237862	-1.177863	-0.170042	99
Es	-0.215073	-0.533253	0.314500	99
Es	1.913267	1.612068	-0.133863	99
Es	-1.972394	-1.229717	-0.327076	99
Es	0.701322	2.628525	-0.164898	99
Es	1.260758	1.883809	0.000504	99
Es	-0.514350	-1.154884	-0.010189	99
Es	-0.032133	0.626131	-0.132906	99
Es	1.777135	0.950017	0.199926	99
Es	-2.347837	-1.096523	0.257879	99
Es	1.866397	1.576822	0.068783	99
Es	1.815593	-0.029105	0.994551	99
Es	1.672950	0.138755	0.307810	99
Es	0.203224	1.813121	0.088901	99
Es	-0.067588	-0.618754	-0.330429	99
Es	-0.943667	1.484554	-0.378379	99
Es	2.094818	-0.256154	-0.127194	99
Es	0.320250	1.786243	-0.463367	99
41
Properties=species:S:1:pos:R:3:Z:I:1 energy=-302.92830277668105 field_type=dipole dipole="0.000000 0.000000 0.000000" charge=0
C	-1.972445	-1.229719	-0.327089	6
C	-0.514275	-1.154809	-0.010179	6
C	0.224295	-0.039909	0.003961	6
C	1.672975	0.138611	0.307831	6
N	1.867105	1.576801	0.068171	7
N	0.693195	2.243841	-0.145779	7
C	-0.231675	1.339361	-0.239809	6
H	-2.219075	-2.230618	-0.694509	1
H	-2.259865	-0.518239	-1.106369	1
H	-2.566785	-1.042479	0.571751	1
H	-0.030265	-2.100979	0.225911	1
H	2.311375	-0.444599	-0.361389	1
H	1.888985	-0.111179	1.351231	1
H	2.426605	2.020791	0.796621	1
H	-1.290155	1.553121	-0.440359	1
Es	0.320478	1.785812	-0.463309	99
Es	1.815385	-0.028635	0.992467	99
Es	-2.164125	-0.750802	-0.831852	99
Es	-0.188927	-1.789639	0.151454	99
Es	1.777162	0.949901	0.199850	99
Es	-0.215105	-0.533311	0.314695	99
Es	2.251970	1.859675	0.430073	99
Es	-1.237802	-1.177400	-0.170605	99
Es	0.704180	2.629249	-0.164081	99
Es	-0.067512	-0.618733	-0.330546	99
Es	-0.943567	1.484479	-0.378357	99
Es	-2.345782	-1.097061	0.254959	99
Es	2.094017	-0.255153	-0.125928	99
Es	-0.231692	1.339333	-0.239845	99
Es	1.258613	1.883228	-0.000706	99
Es	-0.514348	-1.154884	-0.010191	99
Es	-2.154618	-1.916464	-0.564414	99
Es	0.948152	0.005791	0.165348	99
Es	-0.032046	0.624915	-0.132781	99
Es	1.866404	1.576814	0.068895	99
Es	0.224378	-0.039779	0.003952	99
Es	0.203631	1.812667	0.088847	99
Es	1.672951	0.138754	0.307810	99
Es	-1.972393	-1.229717	-0.327077	99
Es	0.693241	2.243202	-0.145732	99
Es	1.909667	1.612735	-0.124833	99
41
Properties=species:S:1:pos:R:3:Z:I:1 energy=-302.92830277668105 field_type=dipole dipole="0.000000 0.000000 0.000000" charge=0
C	-1.972445	-1.229719	-0.327089	6
C	-0.514275	-1.154809	-0.010179	6
C	0.224295	-0.039909	0.003961	6
C	1.672975	0.138611	0.307831	6
N	1.867105	1.576801	0.068171	7
N	0.693195	2.243841	-0.145779	7
C	-0.231675	1.339361	-0.239809	6
H	-2.219075	-2.230618	-0.694509	1
H	-2.259865	-0.518239	-1.106369	1
H	-2.566785	-1.042479	0.571751	1
H	-0.030265	-2.100979	0.225911	1
H	2.311375	-0.444599	-0.361389	1
H	1.888985	-0.111179	1.351231	1
H	2.426605	2.020791	0.796621	1
H	-1.290155	1.553121	-0.440359	1
Es	2.253914	1.859799	0.424048	99
Es	1.256808	1.882758	-0.001521	99
Es	-0.215073	-0.533469	0.314773	99
Es	1.866420	1.576827	0.068828	99
Es	0.203903	1.811671	0.088667	99
Es	2.093472	-0.254501	-0.124837	99
Es	-0.067411	-0.618692	-0.330672	99
Es	-0.032161	0.624151	-0.132647	99
Es	-2.164133	-0.751856	-0.830313	99
Es	-0.514348	-1.154883	-0.010190	99
Es	0.706498	2.629683	-0.163324	99
Es	1.777602	0.949605	0.199232	99
Es	-2.343812	-1.097563	0.252127	99
Es	1.906954	1.613606	-0.117728	99
Es	1.814982	-0.028128	0.990649	99
Es	0.224378	-0.039777	0.003958	99
Es	0.320851	1.785932	-0.463066	99
Es	1.672954	0.138750	0.307812	99
Es	-1.237863	-1.176861	-0.170932	99
Es	0.948252	0.005535	0.165731	99
Es	-2.156498	-1.916303	-0.562660	99
Es	-0.231691	1.339333	-0.239845	99
Es	-0.943435	1.484554	-0.378454	99
Es	0.693245	2.243204	-0.145731	99
Es	-1.972395	-1.229716	-0.327076	99
Es	-0.189105	-1.788682	0.151264	99
41
Properties=species:S:1:pos:R:3:Z:I:1 energy=-302.92830277668105 field_type=dipole dipole="0.000000 0.000000 0.000000" charge=0
C	-1.972445	-1.229719	-0.327089	6
C	-0.514275	-1.154809	-0.010179	6
C	0.224295	-0.039909	0.003961	6
C	1.672975	0.138611	0.307831	6
N	1.867105	1.576801	0.068171	7
N	0.693195	2.243841	-0.145779	7
C	-0.231675	1.339361	-0.239809	6
H	-2.219075	-2.230618	-0.694509	1
H	-2.259865	-0.518239	-1.106369	1
H	-2.566785	-1.042479	0.571751	1
H	-0.030265	-2.100979	0.225911	1
H	2.311375	-0.444599	-0.361389	1
H	1.888985	-0.111179	1.351231	1
H	2.426605	2.020791	0.796621	1
H	-1.290155	1.553121	-0.440359	1
Es	-0.215088	-0.533173	0.314945	99
Es	0.693241	2.243198	-0.145732	99
Es	1.904609	1.614430	-0.111016	99
Es	1.814709	-0.027851	0.989483	99
Es	0.224378	-0.039777	0.003956	99
Es	-0.943462	1.484501	-0.378493	99
Es	1.672950	0.138757	0.307810	99
Es	2.255614	1.859812	0.418413	99
Es	-0.514351	-1.154882	-0.010189	99
Es	1.777858	0.949319	0.198493	99
Es	0.321075	1.785617	-0.462840	99
Es	-2.157959	-1.916092	-0.561192	99
Es	-1.237904	-1.176565	-0.171250	99
Es	0.708308	2.629916	-0.162926	99
Es	-0.231692	1.339333	-0.239841	99
Es	-0.031994	0.623193	-0.132680	99
Es	-1.972406	-1.229714	-0.327060	99
Es	1.866377	1.576841	0.068813	99
Es	0.948406	0.005714	0.165672	99
Es	0.204161	1.811366	0.088683	99
Es	1.255544	1.882492	-0.002165	99
Es	-0.067504	-0.618919	-0.330587	99
Es	-2.164171	-0.752703	-0.829054	99
Es	2.092923	-0.253871	-0.123975	99
Es	-2.342180	-1.098116	0.249753	99
Es	-0.189131	-1.787847	0.151074	99
41
Properties=species:S:1:pos:R:3:Z:I:1 energy=-302.92830277668105 field_type=dipole dipole="0.000000 0.000000 0.000000" charge=0
C	-1.972445	-1.229719	-0.327089	6
C	-0.514275	-1.154809	-0.010179	6
C	0.224295	-0.039909	0.003961	6
C	1.672975	0.138611	0.307831	6
N	1.867105	1.576801	0.068171	7
N	0.693195	2.243841	-0.145779	7
C	-0.231675	1.339361	-0.239809	6
H	-2.219075	-2.230618	-0.694509	1
H	-2.259865	-0.518239	-1.106369	1
H	-2.566785	-1.042479	0.571751	1
H	-0.030265	-2.100979	0.225911	1
H	2.311375	-0.444599	-0.361389	1
H	1.888985	-0.111179	1.351231	1
H	2.426605	2.020791	0.796621	1
H	-1.290155	1.553121	-0.440359	1
Es	-2.163960	-0.754039	-0.827874	99
Es	0.321367	1.786087	-0.462155	99
Es	1.778084	0.949096	0.198162	99
Es	1.814521	-0.027535	0.988308	99
Es	0.693249	2.243195	-0.145731	99
Es	1.866657	1.576770	0.068708	99
Es	-0.231693	1.339333	-0.239839	99
Es	-2.341017	-1.098359	0.247774	99
Es	-0.031893	0.622716	-0.132635	99
Es	1.902812	1.615034	-0.106463	99
Es	0.710000	2.630282	-0.162482	99
Es	-0.215046	-0.533272	0.314941	99
Es	-0.067457	-0.618893	-0.330574	99
Es	1.253987	1.882361	-0.002726	99
Es	0.224379	-0.039777	0.003958	99
Es	-1.238042	-1.175766	-0.171942	99
Es	0.948580	0.005423	0.165926	99
Es	-0.514349	-1.154883	-0.010189	99
Es	-2.159186	-1.915894	-0.559664	99
Es	-1.972393	-1.229717	-0.327076	99
Es	1.672950	0.138756	0.307810	99
Es	0.204380	1.810292	0.088141	99
Es	-0.943474	1.484443	-0.378631	99
Es	-0.189268	-1.787179	0.150873	99
Es	2.092442	-0.253262	-0.123187	99
Es	2.256681	1.859763	0.414663	99
41
Properties=species:S:1:pos:R:3:Z:I:1 energy=-302.92830277668105 field_type=dipole dipole="0.000000 0.000000 0.000000" charge=0
C	-1.972445	-1.229719	-0.327089	6
C	-0.514275	-1.154809	-0.010179	6
C	0.224295	-0.039909	0.003961	6
C	1.672975	0.138611	0.307831	6
N	1.867105	1.576801	0.068171	7
N	0.693195	2.243841	-0.145779	7
C	-0.231675	1.339361	-0.239809	6
H	-2.219075	-2.230618	-0.694509	1
H	-2.259865	-0.518239	-1.106369	1
H	-2.566785	-1.042479	0.571751	1
H	-0.030265	-2.100979	0.225911	1
H	2.311375	-0.444599	-0.361389	1
H	1.888985	-0.111179	1.351231	1
H	2.426605	2.020791	0.796621	1
H	-1.290155	1.553121	-0.440359	1
Es	0.321462	1.785603	-0.462389	99
Es	2.257482	1.859866	0.411320	99
Es	1.902244	1.614938	-0.102003	99
Es	-0.031879	0.622380	-0.132487	99
Es	2.091916	-0.252798	-0.122785	99
Es	1.672951	0.138753	0.307810	99
Es	0.711434	2.630322	-0.161976	99
Es	-0.514350	-1.154883	-0.010189	99
Es	1.778270	0.949056	0.198439	99
Es	-0.231695	1.339332	-0.239835	99
Es	1.814407	-0.027238	0.986738	99
Es	-2.164039	-0.754465	-0.826881	99
Es	0.948665	0.005070	0.166674	99
Es	1.866227	1.576959	0.068658	99
Es	0.693256	2.243207	-0.145730	99
Es	-2.339628	-1.099007	0.245840	99
Es	0.224379	-0.039778	0.003956	99
Es	-0.943427	1.484476	-0.378614	99
Es	-0.067462	-0.618825	-0.330613	99
Es	0.204616	1.810397	0.088262	99
Es	-1.238108	-1.175646	-0.172078	99
Es	1.252772	1.882399	-0.004105	99
Es	-0.189380	-1.786483	0.150756	99
Es	-1.972393	-1.229718	-0.327077	99
Es	-0.215066	-0.533318	0.314953	99
Es	-2.160342	-1.915622	-0.558550	99
41
Properties=species:S:1:pos:R:3:Z:I:1 energy=-302.92830277668105 field_type=dipole dipole="0.000000 0.000000 0.000000" charge=0
C	-1.972445	-1.229719	-0.327089	6
C	-0.514275	-1.154809	-0.010179	6
C	0.224295	-0.039909	0.003961	6
C	1.672975	0.138611	0.307831	6
N	1.867105	1.576801	0.068171	7
N	0.693195	2.243841	-0.145779	7
C	-0.231675	1.339361	-0.239809	6
H	-2.219075	-2.230618	-0.694509	1
H	-2.259865	-0.518239	-1.106369	1
H	-2.566785	-1.042479	0.571751	1
H	-0.030265	-2.100979	0.225911	1
H	2.311375	-0.444599	-0.361389	1
H	1.888985	-0.111179	1.351231	1
H	2.426605	2.020791	0.796621	1
H	-1.290155	1.553121	-0.440359	1
Es	1.867054	1.576826	0.068077	99
Es	0.321672	1.786420	-0.461848	99
Es	-0.189523	-1.785889	0.150585	99
Es	2.091999	-0.252665	-0.122180	99
Es	0.204634	1.809268	0.087744	99
Es	-2.161182	-1.915408	-0.557647	99
Es	-0.514349	-1.154883	-0.010189	99
Es	-1.238172	-1.175378	-0.172454	99
Es	0.224378	-0.039777	0.003962	99
Es	-0.943376	1.484457	-0.378664	99
Es	1.900319	1.615298	-0.096894	99
Es	1.251818	1.882430	-0.005127	99
Es	0.948757	0.005359	0.166623	99
Es	-0.067416	-0.618908	-0.330654	99
Es	1.778174	0.949056	0.198248	99
Es	2.258306	1.859850	0.407984	99
Es	-2.164186	-0.754910	-0.825917	99
Es	-0.031851	0.621649	-0.132413	99
Es	0.693235	2.243182	-0.145731	99
Es	1.672953	0.138751	0.307811	99
Es	1.813908	-0.026839	0.985868	99
Es	-2.338488	-1.099606	0.244347	99
Es	-0.215020	-0.533315	0.315090	99
Es	0.712750	2.630390	-0.161611	99
Es	-0.231693	1.339334	-0.239839	99
Es	-1.972392	-1.229717	-0.327076	99
41
Properties=species:S:1:pos:R:3:Z:I:1 energy=-302.92830277668105 field_type=dipole dipole="0.000000 0.000000 0.000000" charge=0
C	-1.972445	-1.229719	-0.327089	6
C	-0.514275	-1.154809	-0.010179	6
C	0.224295	-0.039909	0.003961	6
C	1.672975	0.138611	0.307831	6
N	1.867105	1.576801	0.068171	7
N	0.693195	2.243841	-0.145779	7
C	-0.231675	1.339361	-0.239809	6
H	-2.219075	-2.230618	-0.694509	1
H	-2.259865	-0.518239	-1.106369	1
H	-2.566785	-1.042479	0.571751	1
H	-0.030265	-2.100979	0.225911	1
H	2.311375	-0.444599	-0.361389	1
H	1.888985	-0.111179	1.351231	1
H	2.426605	2.020791	0.796621	1
H	-1.290155	1.553121	-0.440359	1
Es	-0.514344	-1.154886	-0.010187	99
Es	1.900375	1.615245	-0.093757	99
Es	1.778290	0.948861	0.198016	99
Es	-0.031824	0.621133	-0.132222	99
Es	0.224378	-0.039777	0.003958	99
Es	-2.162155	-1.915128	-0.556559	99
Es	1.672952	0.138755	0.307808	99
Es	1.251125	1.882409	-0.005837	99
Es	-0.189549	-1.785387	0.150501	99
Es	2.258928	1.859784	0.405444	99
Es	1.813313	-0.026371	0.984823	99
Es	0.321475	1.784754	-0.462690	99
Es	1.866121	1.577153	0.068308	99
Es	-0.231693	1.339330	-0.239841	99
Es	-2.164413	-0.755040	-0.825151	99
Es	0.948852	0.005517	0.166693	99
Es	0.693239	2.243181	-0.145730	99
Es	-1.238213	-1.175380	-0.172523	99
Es	0.713782	2.630449	-0.161263	99
Es	2.092029	-0.252539	-0.121397	99
Es	0.205089	1.810704	0.088378	99
Es	-1.972393	-1.229718	-0.327077	99
Es	-0.067482	-0.618860	-0.330571	99
Es	-0.943433	1.484441	-0.378670	99
Es	-0.214968	-0.533352	0.314964	99
Es	-2.337169	-1.100300	0.242678	99
41
Properties=species:S:1:pos:R:3:Z:I:1 energy=-302.92830277668105 field_type=dipole dipole="0.000000 0.000000 0.000000" charge=0
C	-1.972445	-1.229719	-0.327089	6
C	-0.514275	-1.154809	-0.010179	6
C	0.224295	-0.039909	0.003961	6
C	1.672975	0.138611	0.307831	6
N	1.867105	1.576801	0.068171	7
N	0.693195	2.243841	-0.145779	7
C	-0.231675	1.339361	-0.239809	6
H	-2.219075	-2.230618	-0.694509	1
H	-2.259865	-0.518239	-1.106369	1
H	-2.566785	-1.042479	0.571751	1
H	-0.030265	-2.100979	0.225911	1
H	2.311375	-0.444599	-0.361389	1
H	1.888985	-0.111179	1.351231	1
H	2.426605	2.020791	0.796621	1
H	-1.290155	1.553121	-0.440359	1
Es	2.092003	-0.252389	-0.120998	99
Es	0.321811	1.785704	-0.461909	99
Es	-0.031799	0.620899	-0.132316	99
Es	0.224378	-0.039777	0.003958	99
Es	0.714201	2.630541	-0.161239	99
Es	-1.972394	-1.229717	-0.327077	99
Es	-1.238351	-1.175013	-0.172844	99
Es	0.948952	0.005316	0.166830	99
Es	-0.231693	1.339333	-0.239839	99
Es	-0.943363	1.484486	-0.378755	99
Es	1.672951	0.138756	0.307809	99
Es	-2.164202	-0.755844	-0.824420	99
Es	-2.336444	-1.100571	0.241333	99
Es	1.813020	-0.026122	0.984190	99
Es	-0.189678	-1.784838	0.150315	99
Es	0.205015	1.809410	0.087818	99
Es	-0.514347	-1.154883	-0.010191	99
Es	2.259395	1.859722	0.403580	99
Es	0.693242	2.243191	-0.145731	99
Es	1.778216	0.948873	0.197723	99
Es	-2.162867	-1.914936	-0.555627	99
Es	1.250916	1.882370	-0.006133	99
Es	1.866074	1.577262	0.068096	99
Es	1.899675	1.615462	-0.090961	99
Es	-0.067417	-0.618819	-0.330559	99
Es	-0.214984	-0.533439	0.315040	99
41
Properties=species:S:1:pos:R:3:Z:I:1 energy=-302.92830277668105 field_type=dipole dipole="0.000000 0.000000 0.000000" charge=0
C	-1.972445	-1.229719	-0.327089	6
C	-0.514275	-1.154809	-0.010179	6
C	0.224295	-0.039909	0.003961	6
C	1.672975	0.138611	0.307831	6
N	1.867105	1.576801	0.068171	7
N	0.693195	2.243841	-0.145779	7
C	-0.231675	1.339361	-0.239809	6
H	-2.219075	-2.230618	-0.694509	1
H	-2.259865	-0.518239	-1.106369	1
H	-2.566785	-1.042479	0.571751	1
H	-0.030265	-2.100979	0.225911	1
H	2.311375	-0.444599	-0.361389	1
H	1.888985	-0.111179	1.351231	1
H	2.426605	2.020791	0.796621	1
H	-1.290155	1.553121	-0.440359	1
Es	-0.943486	1.484365	-0.378807	99
Es	0.224379	-0.039778	0.003957	99
Es	-0.189683	-1.784645	0.150234	99
Es	0.205082	1.809022	0.087688	99
Es	1.778688	0.948678	0.197599	99
Es	0.693234	2.243172	-0.145730	99
Es	-0.067475	-0.618700	-0.330528	99
Es	-2.335545	-1.101175	0.240217	99
Es	-0.214982	-0.533509	0.314952	99
Es	-1.972394	-1.229718	-0.327077	99
Es	2.259865	1.859646	0.401653	99
Es	0.321848	1.785937	-0.461787	99
Es	-2.164431	-0.755879	-0.823746	99
Es	-0.231693	1.339333	-0.239838	99
Es	1.866470	1.576805	0.068870	99
Es	-1.238431	-1.174790	-0.172893	99
Es	0.715684	2.630479	-0.160640	99
Es	2.091819	-0.252136	-0.120453	99
Es	1.672955	0.138753	0.307833	99
Es	-0.031646	0.620673	-0.132224	99
Es	0.949085	0.005278	0.166993	99
Es	1.812684	-0.025836	0.983306	99
Es	-2.163409	-1.914747	-0.555131	99
Es	1.249359	1.882478	-0.006681	99
Es	1.898683	1.616153	-0.089483	99
Es	-0.514350	-1.154882	-0.010187	99
41
Properties=species:S:1:pos:R:3:Z:I:1 energy=-302.92830277668105 field_type=dipole dipole="0.000000 0.000000 0.000000" charge=0
C	-1.972445	-1.229719	-0.327089	6
C	-0.514275	-1.154809	-0.010179	6
C	0.224295	-0.039909	0.003961	6
C	1.672975	0.138611	0.307831	6
N	1.867105	1.576801	0.068171	7
N	0.693195	2.243841	-0.145779	7
C	-0.231675	1.339361	-0.239809	6
H	-2.219075	-2.230618	-0.694509	1
H	-2.259865	-0.518239	-1.106369	1
H	-2.566785	-1.042479	0.571751	1
H	-0.030265	-2.100979	0.225911	1
H	2.311375	-0.444599	-0.361389	1
H	1.888985	-0.111179	1.351231	1
H	2.426605	2.020791	0.796621	1
H	-1.290155	1.553121	-0.440359	1
Es	1.866123	1.578446	0.065018	99
Es	1.248263	1.882558	-0.007405	99
Es	1.778771	0.948627	0.197616	99
Es	-0.031624	0.620467	-0.132254	99
Es	-0.067465	-0.618763	-0.330460	99
Es	1.672955	0.138759	0.307838	99
Es	1.812630	-0.025740	0.982906	99
Es	1.898538	1.614593	-0.083334	99
Es	-0.231692	1.339333	-0.239843	99
Es	-2.334784	-1.101439	0.239079	99
Es	-2.164203	-1.914472	-0.554129	99
Es	0.224378	-0.039776	0.003958	99
Es	-0.214960	-0.533482	0.314950	99
Es	2.260222	1.859599	0.399986	99
Es	0.693245	2.243209	-0.145730	99
Es	-2.164308	-0.756424	-0.823158	99
Es	2.091626	-0.251919	-0.120219	99
Es	0.205315	1.809372	0.087897	99
Es	-0.189723	-1.784399	0.150173	99
Es	-0.514348	-1.154883	-0.010188	99
Es	0.321822	1.785400	-0.462029	99
Es	0.716778	2.630518	-0.160430	99
Es	0.949118	0.005233	0.167063	99
Es	-0.943464	1.484352	-0.378795	99
Es	-1.238507	-1.174478	-0.173339	99
Es	-1.972393	-1.229716	-0.327074	99
41
Properties=species:S:1:pos:R:3:Z:I:1 energy=-302.92830277668105 field_type=dipole dipole="0.000000 0.000000 0.000000" charge=0
C	-1.972445	-1.229719	-0.327089	6
C	-0.514275	-1.154809	-0.010179	6
C	0.224295	-0.039909	0.003961	6
C	1.672975	0.138611	0.307831	6
N	1.867105	1.576801	0.068171	7
N	0.693195	2.243841	-0.145779	7
C	-0.231675	1.339361	-0.239809	6
H	-2.219075	-2.230618	-0.694509	1
H	-2.259865	-0.518239	-1.106369	1
H	-2.566785	-1.042479	0.571751	1
H	-0.030265	-2.100979	0.225911	1
H	2.311375	-0.444599	-0.361389	1
H	1.888985	-0.111179	1.351231	1
H	2.426605	2.020791	0.796621	1
H	-1.290155	1.553121	-0.440359	1
Es	-0.067473	-0.618739	-0.330497	99
Es	2.260592	1.859552	0.398323	99
Es	0.205161	1.808626	0.087463	99
Es	-0.214965	-0.533486	0.314886	99
Es	0.717648	2.630431	-0.160142	99
Es	-2.164807	-1.914251	-0.553470	99
Es	1.897806	1.616403	-0.084836	99
Es	1.812218	-0.025460	0.982289	99
Es	-1.238594	-1.174353	-0.173295	99
Es	-0.514348	-1.154883	-0.010190	99
Es	1.779003	0.948424	0.197158	99
Es	0.321913	1.786135	-0.461423	99
Es	1.247721	1.882438	-0.007442	99
Es	-0.031636	0.620230	-0.132220	99
Es	0.224379	-0.039777	0.003957	99
Es	0.949203	0.005189	0.167224	99
Es	1.672954	0.138758	0.307832	99
Es	1.866171	1.577032	0.068619	99
Es	-0.943385	1.484421	-0.378965	99
Es	-2.334213	-1.101690	0.237976	99
Es	2.091734	-0.251928	-0.119803	99
Es	-2.164123	-0.756816	-0.822768	99
Es	-0.231692	1.339333	-0.239841	99
Es	-1.972394	-1.229718	-0.327076	99
Es	0.693231	2.243203	-0.145732	99
Es	-0.189791	-1.784099	0.150066	99
41
Properties=species:S:1:pos:R:3:Z:I:1 energy=-302.92830277668105 field_type=dipole dipole="0.000000 0.000000 0.000000" charge=0
C	-1.972445	-1.229719	-0.327089	6
C	-0.514275	-1.154809	-0.010179	6
C	0.224295	-0.039909	0.003961	6
C	1.672975	0.138611	0.307831	6
N	1.867105	1.576801	0.068171	7
N	0.693195	2.243841	-0.145779	7
C	-0.231675	1.339361	-0.239809	6
H	-2.219075	-2.230618	-0.694509	1
H	-2.259865	-0.518239	-1.106369	1
H	-2.566785	-1.042479	0.571751	1
H	-0.030265	-2.100979	0.225911	1
H	2.311375	-0.444599	-0.361389	1
H	1.888985	-0.111179	1.351231	1
H	2.426605	2.020791	0.796621	1
H	-1.290155	1.553121	-0.440359	1
Es	1.248057	1.882302	-0.006963	99
Es	0.321989	1.786711	-0.460961	99
Es	-0.067472	-0.618787	-0.330468	99
Es	-0.231692	1.339332	-0.239842	99
Es	-1.972394	-1.229717	-0.327077	99
Es	-1.238721	-1.174016	-0.173426	99
Es	-2.165253	-1.914084	-0.552978	99
Es	1.897495	1.616780	-0.084909	99
Es	1.812252	-0.025370	0.981554	99
Es	-2.164289	-0.756943	-0.822147	99
Es	1.672952	0.138756	0.307818	99
Es	-0.943318	1.484508	-0.378908	99
Es	1.779021	0.948389	0.197372	99
Es	1.866217	1.576970	0.068716	99
Es	-0.214893	-0.533495	0.314879	99
Es	2.260725	1.859494	0.397854	99
Es	2.091354	-0.251557	-0.119639	99
Es	0.205288	1.807857	0.086919	99
Es	0.224379	-0.039777	0.003958	99
Es	0.693237	2.243190	-0.145731	99
Es	-0.514349	-1.154882	-0.010188	99
Es	0.717418	2.630483	-0.159943	99
Es	-2.333455	-1.102201	0.237013	99
Es	0.949313	0.005134	0.167424	99
Es	-0.189853	-1.783932	0.150017	99
Es	-0.031698	0.619833	-0.132251	99
41
Properties=species:S:1:pos:R:3:Z:I:1 energy=-302.92830277668105 field_type=dipole dipole="0.000000 0.000000 0.000000" charge=0
C	-1.972445	-1.229719	-0.327089	6
C	-0.514275	-1.154809	-0.010179	6
C	0.224295	-0.039909	0.003961	6
C	1.672975	0.138611	0.307831	6
N	1.867105	1.576801	0.068171	7
N	0.693195	2.243841	-0.145779	7
C	-0.231675	1.339361	-0.239809	6
H	-2.219075	-2.230618	-0.694509	1
H	-2.259865	-0.518239	-1.106369	1
H	-2.566785	-1.042479	0.571751	1
H	-0.030265	-2.100979	0.225911	1
H	2.311375	-0.444599	-0.361389	1
H	1.888985	-0.111179	1.351231	1
H	2.426605	2.020791	0.796621	1
H	-1.290155	1.553121	-0.440359	1
Es	-0.514348	-1.154882	-0.010189	99
Es	-0.231693	1.339334	-0.239840	99
Es	1.866653	1.576782	0.068701	99
Es	0.949435	0.004976	0.167382	99
Es	-0.943414	1.484450	-0.378887	99
Es	-1.238793	-1.173981	-0.173557	99
Es	0.205598	1.809176	0.087802	99
Es	-2.332886	-1.102476	0.236080	99
Es	1.896718	1.616827	-0.082019	99
Es	-2.164278	-0.757278	-0.821824	99
Es	-0.189933	-1.783489	0.149900	99
Es	-1.972394	-1.229718	-0.327076	99
Es	2.091687	-0.251648	-0.119042	99
Es	1.811701	-0.024971	0.980988	99
Es	-2.165674	-1.913957	-0.552180	99
Es	0.224378	-0.039777	0.003959	99
Es	-0.214925	-0.533667	0.314861	99
Es	2.260999	1.859514	0.396283	99
Es	1.247620	1.882595	-0.008179	99
Es	0.321912	1.785149	-0.461862	99
Es	-0.067486	-0.618582	-0.330410	99
Es	1.778943	0.948380	0.197238	99
Es	1.672951	0.138758	0.307816	99
Es	0.693241	2.243189	-0.145731	99
Es	-0.031565	0.619757	-0.132172	99
Es	0.717865	2.630517	-0.159948	99
