35
Properties=species:S:1:pos:R:3:Z:I:1 energy=-300.5436146772694 field_type=dipole dipole="0.000000 0.000000 0.000000" charge=0
C	-2.578923	-0.353234	0.388841	6
C	-1.381053	-0.334184	0.463541	6
C	0.049347	-0.313204	0.554701	6
N	0.823607	-1.046074	-0.443899	7
C	0.838857	0.420936	-0.504829	6
C	2.002387	1.155486	-0.091799	6
N	2.925797	1.773436	0.243291	7
H	-3.643213	-0.373734	0.329321	1
H	0.460447	-0.350804	1.559851	1
H	0.204427	-1.430884	-1.158519	1
H	0.298317	0.852256	-1.340499	1
Es	3.216177	1.969323	0.350404	99
Es	-1.981304	-0.675348	0.558674	99
Es	2.329638	1.746220	0.057073	99
Es	0.922259	-0.380631	-0.586058	99
Es	-1.991213	-0.061603	0.640232	99
Es	2.500540	1.337638	0.358944	99
Es	-2.579153	-0.353234	0.388811	99
Es	2.002092	1.155293	-0.091902	99
Es	0.488720	0.717017	-1.052942	99
Es	1.111113	-1.214584	-0.336408	99
Es	-1.948312	-0.297314	0.064631	99
Es	2.664048	1.382425	-0.147718	99
Es	0.446311	-1.247812	-0.869994	99
Es	1.460341	0.790971	-0.292926	99
Es	-3.269003	-0.366248	0.348738	99
Es	0.386630	0.261688	0.102723	99
Es	0.823107	-1.045675	-0.444021	99
Es	0.408385	-0.837656	0.039209	99
Es	0.312668	-0.333019	1.219163	99
Es	2.925429	1.773193	0.243159	99
Es	-1.380779	-0.334197	0.463572	99
Es	0.049375	-0.313243	0.554440	99
Es	-0.686560	-0.322212	0.501012	99
Es	0.838970	0.420750	-0.504702	99
35
Properties=species:S:1:pos:R:3:Z:I:1 energy=-300.5436146772694 field_type=dipole dipole="0.000000 0.000000 0.000000" charge=0
C	-2.578923	-0.353234	0.388841	6
C	-1.381053	-0.334184	0.463541	6
C	0.049347	-0.313204	0.554701	6
N	0.823607	-1.046074	-0.443899	7
C	0.838857	0.420936	-0.504829	6
C	2.002387	1.155486	-0.091799	6
N	2.925797	1.773436	0.243291	7
H	-3.643213	-0.373734	0.329321	1
H	0.460447	-0.350804	1.559851	1
H	0.204427	-1.430884	-1.158519	1
H	0.298317	0.852256	-1.340499	1
Es	-3.270694	-0.372411	0.349497	99
Es	0.823115	-1.045681	-0.444020	99
Es	0.386810	0.258669	0.101924	99
Es	2.560166	1.551950	-0.190053	99
Es	2.925429	1.773193	0.243159	99
Es	0.049362	-0.313237	0.554458	99
Es	1.460119	0.794851	-0.290520	99
Es	0.409635	-0.832889	0.041473	99
Es	0.490264	0.713675	-1.050376	99
Es	0.444154	-1.247659	-0.870310	99
Es	-2.579159	-0.353247	0.388818	99
Es	0.313057	-0.333511	1.215397	99
Es	3.228369	1.965054	0.341465	99
Es	0.838969	0.420755	-0.504698	99
Es	2.609435	1.244038	0.205340	99
Es	-1.979004	-0.676447	0.542139	99
Es	2.002067	1.155297	-0.091888	99
Es	-0.688918	-0.319011	0.500959	99
Es	-1.992101	-0.068095	0.644128	99
Es	1.107236	-1.216142	-0.334700	99
Es	-1.380772	-0.334171	0.463550	99
Es	0.925179	-0.377186	-0.587629	99
Es	2.316506	1.672394	0.258867	99
Es	-1.949746	-0.288445	0.077132	99
35
Properties=species:S:1:pos:R:3:Z:I:1 energy=-300.5436146772694 field_type=dipole dipole="0.000000 0.000000 0.000000" charge=0
C	-2.578923	-0.353234	0.388841	6
C	-1.381053	-0.334184	0.463541	6
C	0.049347	-0.313204	0.554701	6
N	0.823607	-1.046074	-0.443899	7
C	0.838857	0.420936	-0.504829	6
C	2.002387	1.155486	-0.091799	6
N	2.925797	1.773436	0.243291	7
H	-3.643213	-0.373734	0.329321	1
H	0.460447	-0.350804	1.559851	1
H	0.204427	-1.430884	-1.158519	1
H	0.298317	0.852256	-1.340499	1
Es	0.386622	0.257060	0.101509	99
Es	0.929400	-0.374120	-0.588925	99
Es	0.312509	-0.334050	1.212383	99
Es	0.049360	-0.313235	0.554458	99
Es	0.823098	-1.045672	-0.444024	99
Es	2.925439	1.773198	0.243162	99
Es	-2.579160	-0.353257	0.388818	99
Es	-1.992514	-0.101557	0.678692	99
Es	3.233263	1.961643	0.337570	99
Es	0.441152	-1.247833	-0.870079	99
Es	0.411275	-0.828939	0.042922	99
Es	1.102715	-1.217225	-0.333180	99
Es	-0.690287	-0.317791	0.501064	99
Es	2.562066	1.284835	0.268788	99
Es	1.460305	0.796619	-0.289572	99
Es	0.492418	0.711288	-1.048167	99
Es	2.002060	1.155295	-0.091888	99
Es	-1.380764	-0.334166	0.463552	99
Es	-1.953560	-0.241304	0.097751	99
Es	2.610425	1.471152	-0.176082	99
Es	-3.270950	-0.375576	0.349512	99
Es	0.838975	0.420762	-0.504708	99
Es	-1.974846	-0.689676	0.487069	99
Es	2.310479	1.714290	0.183489	99
35
Properties=species:S:1:pos:R:3:Z:I:1 energy=-300.5436146772694 field_type=dipole dipole="0.000000 0.000000 0.000000" charge=0
C	-2.578923	-0.353234	0.388841	6
C	-1.381053	-0.334184	0.463541	6
C	0.049347	-0.313204	0.554701	6
N	0.823607	-1.046074	-0.443899	7
C	0.838857	0.420936	-0.504829	6
C	2.002387	1.155486	-0.091799	6
N	2.925797	1.773436	0.243291	7
H	-3.643213	-0.373734	0.329321	1
H	0.460447	-0.350804	1.559851	1
H	0.204427	-1.430884	-1.158519	1
H	0.298317	0.852256	-1.340499	1
Es	0.494843	0.709138	-1.046363	99
Es	2.002052	1.155300	-0.091885	99
Es	-1.380764	-0.334160	0.463569	99
Es	3.236001	1.958849	0.335186	99
Es	0.823106	-1.045690	-0.444022	99
Es	0.838958	0.420767	-0.504684	99
Es	0.386268	0.255221	0.100982	99
Es	-0.691052	-0.317713	0.501364	99
Es	2.312809	1.727285	0.144980	99
Es	-1.977845	-0.678584	0.521849	99
Es	1.460435	0.797828	-0.289323	99
Es	0.049365	-0.313236	0.554449	99
Es	0.437948	-1.247773	-0.869516	99
Es	-2.579164	-0.353262	0.388819	99
Es	2.534127	1.321590	0.288722	99
Es	-1.992474	-0.069092	0.646325	99
Es	2.634481	1.422622	-0.156094	99
Es	-1.950701	-0.284235	0.094903	99
Es	2.925432	1.773195	0.243160	99
Es	0.412468	-0.824893	0.043900	99
Es	1.097949	-1.217933	-0.331669	99
Es	0.934433	-0.370812	-0.589917	99
Es	-3.270845	-0.377764	0.349401	99
Es	0.311648	-0.334907	1.209975	99
35
Properties=species:S:1:pos:R:3:Z:I:1 energy=-300.5436146772694 field_type=dipole dipole="0.000000 0.000000 0.000000" charge=0
C	-2.578923	-0.353234	0.388841	6
C	-1.381053	-0.334184	0.463541	6
C	0.049347	-0.313204	0.554701	6
N	0.823607	-1.046074	-0.443899	7
C	0.838857	0.420936	-0.504829	6
C	2.002387	1.155486	-0.091799	6
N	2.925797	1.773436	0.243291	7
H	-3.643213	-0.373734	0.329321	1
H	0.460447	-0.350804	1.559851	1
H	0.204427	-1.430884	-1.158519	1
H	0.298317	0.852256	-1.340499	1
Es	0.414568	-0.821328	0.043557	99
Es	0.497360	0.707102	-1.044933	99
Es	0.433673	-1.247436	-0.867838	99
Es	2.310417	1.723751	0.157632	99
Es	-1.380760	-0.334157	0.463549	99
Es	-0.691433	-0.317969	0.501400	99
Es	-1.992621	-0.080868	0.660521	99
Es	1.460586	0.798447	-0.289271	99
Es	0.838978	0.420752	-0.504704	99
Es	2.633533	1.422976	-0.153214	99
Es	2.002041	1.155311	-0.091874	99
Es	0.310888	-0.335762	1.208057	99
Es	2.536109	1.326691	0.274412	99
Es	-1.975652	-0.688150	0.491526	99
Es	0.385694	0.252973	0.100196	99
Es	0.823125	-1.045676	-0.444002	99
Es	0.941413	-0.367570	-0.590411	99
Es	-2.579162	-0.353268	0.388824	99
Es	2.925428	1.773192	0.243158	99
Es	3.238176	1.955572	0.333419	99
Es	-3.270796	-0.378614	0.349071	99
Es	-1.952776	-0.262847	0.110982	99
Es	0.049357	-0.313243	0.554457	99
Es	1.091332	-1.218138	-0.330400	99
35
Properties=species:S:1:pos:R:3:Z:I:1 energy=-300.5436146772694 field_type=dipole dipole="0.000000 0.000000 0.000000" charge=0
C	-2.578923	-0.353234	0.388841	6
C	-1.381053	-0.334184	0.463541	6
C	0.049347	-0.313204	0.554701	6
N	0.823607	-1.046074	-0.443899	7
C	0.838857	0.420936	-0.504829	6
C	2.002387	1.155486	-0.091799	6
N	2.925797	1.773436	0.243291	7
H	-3.643213	-0.373734	0.329321	1
H	0.460447	-0.350804	1.559851	1
H	0.204427	-1.430884	-1.158519	1
H	0.298317	0.852256	-1.340499	1
Es	0.310194	-0.336754	1.206499	99
Es	0.838970	0.420761	-0.504696	99
Es	2.002042	1.155310	-0.091876	99
Es	1.082920	-1.217305	-0.329217	99
Es	3.239474	1.953491	0.332096	99
Es	2.925429	1.773193	0.243159	99
Es	-1.977155	-0.683533	0.508652	99
Es	-2.579164	-0.353267	0.388816	99
Es	-1.992317	-0.070058	0.646354	99
Es	-1.380761	-0.334144	0.463558	99
Es	-0.691617	-0.318260	0.501581	99
Es	2.308927	1.723287	0.159543	99
Es	2.643926	1.398067	-0.139911	99
Es	0.049357	-0.313244	0.554456	99
Es	0.498698	0.705931	-1.044075	99
Es	-3.270729	-0.379094	0.348513	99
Es	0.416600	-0.818336	0.041912	99
Es	0.950363	-0.366427	-0.590048	99
Es	2.526467	1.352986	0.260303	99
Es	0.386486	0.250519	0.099408	99
Es	1.460580	0.799061	-0.289285	99
Es	-1.951591	-0.278269	0.108001	99
Es	0.429289	-1.246484	-0.865599	99
Es	0.823091	-1.045690	-0.444030	99
35
Properties=species:S:1:pos:R:3:Z:I:1 energy=-300.5436146772694 field_type=dipole dipole="0.000000 0.000000 0.000000" charge=0
C	-2.578923	-0.353234	0.388841	6
C	-1.381053	-0.334184	0.463541	6
C	0.049347	-0.313204	0.554701	6
N	0.823607	-1.046074	-0.443899	7
C	0.838857	0.420936	-0.504829	6
C	2.002387	1.155486	-0.091799	6
N	2.925797	1.773436	0.243291	7
H	-3.643213	-0.373734	0.329321	1
H	0.460447	-0.350804	1.559851	1
H	0.204427	-1.430884	-1.158519	1
H	0.298317	0.852256	-1.340499	1
Es	0.838974	0.420759	-0.504698	99
Es	0.426186	-1.245565	-0.863674	99
Es	0.500702	0.704354	-1.042986	99
Es	0.417513	-0.815705	0.041490	99
Es	-2.579161	-0.353282	0.388826	99
Es	-1.992504	-0.078488	0.657906	99
Es	2.523778	1.358125	0.259646	99
Es	0.958738	-0.366123	-0.589627	99
Es	2.002044	1.155307	-0.091876	99
Es	3.240515	1.951308	0.331524	99
Es	-1.975005	-0.691743	0.480579	99
Es	0.386497	0.247874	0.098225	99
Es	2.645737	1.392641	-0.133758	99
Es	0.309458	-0.337480	1.205013	99
Es	2.309234	1.724689	0.154407	99
Es	-0.691688	-0.318572	0.501511	99
Es	0.823089	-1.045680	-0.444035	99
Es	0.049355	-0.313254	0.554456	99
Es	2.925429	1.773193	0.243159	99
Es	1.460672	0.799296	-0.289323	99
Es	-1.380761	-0.334154	0.463572	99
Es	-3.270765	-0.379119	0.348390	99
Es	-1.953530	-0.261680	0.124320	99
Es	1.074972	-1.214958	-0.328931	99
35
Properties=species:S:1:pos:R:3:Z:I:1 energy=-300.5436146772694 field_type=dipole dipole="0.000000 0.000000 0.000000" charge=0
C	-2.578923	-0.353234	0.388841	6
C	-1.381053	-0.334184	0.463541	6
C	0.049347	-0.313204	0.554701	6
N	0.823607	-1.046074	-0.443899	7
C	0.838857	0.420936	-0.504829	6
C	2.002387	1.155486	-0.091799	6
N	2.925797	1.773436	0.243291	7
H	-3.643213	-0.373734	0.329321	1
H	0.460447	-0.350804	1.559851	1
H	0.204427	-1.430884	-1.158519	1
H	0.298317	0.852256	-1.340499	1
Es	0.823070	-1.045644	-0.444047	99
Es	2.925429	1.773193	0.243159	99
Es	0.049355	-0.313243	0.554458	99
Es	3.241319	1.949545	0.330840	99
Es	0.386276	0.246278	0.097333	99
Es	-1.380758	-0.334159	0.463555	99
Es	-0.691708	-0.318892	0.501567	99
Es	2.522653	1.367162	0.248079	99
Es	0.966468	-0.367740	-0.588541	99
Es	0.502030	0.703227	-1.042361	99
Es	0.421792	-1.244150	-0.860168	99
Es	0.420563	-0.814426	0.038236	99
Es	0.309064	-0.337904	1.204130	99
Es	2.002035	1.155324	-0.091871	99
Es	0.838979	0.420762	-0.504701	99
Es	-2.579163	-0.353273	0.388810	99
Es	-1.954423	-0.253366	0.130421	99
Es	1.067624	-1.212208	-0.328750	99
Es	1.460678	0.799518	-0.289265	99
Es	2.647678	1.386886	-0.128316	99
Es	2.307921	1.722435	0.161058	99
Es	-3.270789	-0.379022	0.348041	99
Es	-1.992374	-0.083511	0.661443	99
Es	-1.974240	-0.695051	0.470999	99
35
Properties=species:S:1:pos:R:3:Z:I:1 energy=-300.5436146772694 field_type=dipole dipole="0.000000 0.000000 0.000000" charge=0
C	-2.578923	-0.353234	0.388841	6
C	-1.381053	-0.334184	0.463541	6
C	0.049347	-0.313204	0.554701	6
N	0.823607	-1.046074	-0.443899	7
C	0.838857	0.420936	-0.504829	6
C	2.002387	1.155486	-0.091799	6
N	2.925797	1.773436	0.243291	7
H	-3.643213	-0.373734	0.329321	1
H	0.460447	-0.350804	1.559851	1
H	0.204427	-1.430884	-1.158519	1
H	0.298317	0.852256	-1.340499	1
Es	1.063102	-1.210200	-0.328491	99
Es	0.501591	0.703437	-1.043191	99
Es	2.002034	1.155332	-0.091883	99
Es	-3.270829	-0.378863	0.347884	99
Es	-1.955527	-0.234516	0.128720	99
Es	0.971092	-0.367413	-0.587265	99
Es	2.662190	1.262687	0.032621	99
Es	-1.380759	-0.334154	0.463557	99
Es	3.241970	1.948069	0.330226	99
Es	0.388810	0.242804	0.097430	99
Es	1.460780	0.799403	-0.289072	99
Es	-1.992227	-0.102209	0.676808	99
Es	2.925429	1.773193	0.243159	99
Es	0.417705	-1.242737	-0.856141	99
Es	-1.973202	-0.695569	0.457283	99
Es	0.049356	-0.313238	0.554457	99
Es	0.308479	-0.338894	1.202755	99
Es	0.422674	-0.812940	0.035148	99
Es	2.495956	1.572643	-0.042647	99
Es	0.823086	-1.045674	-0.444035	99
Es	2.319687	1.642129	0.291118	99
Es	-0.691727	-0.319049	0.501551	99
Es	0.838975	0.420764	-0.504697	99
Es	-2.579165	-0.353261	0.388816	99
35
Properties=species:S:1:pos:R:3:Z:I:1 energy=-300.5436146772694 field_type=dipole dipole="0.000000 0.000000 0.000000" charge=0
C	-2.578923	-0.353234	0.388841	6
C	-1.381053	-0.334184	0.463541	6
C	0.049347	-0.313204	0.554701	6
N	0.823607	-1.046074	-0.443899	7
C	0.838857	0.420936	-0.504829	6
C	2.002387	1.155486	-0.091799	6
N	2.925797	1.773436	0.243291	7
H	-3.643213	-0.373734	0.329321	1
H	0.460447	-0.350804	1.559851	1
H	0.204427	-1.430884	-1.158519	1
H	0.298317	0.852256	-1.340499	1
Es	0.049353	-0.313248	0.554459	99
Es	2.925429	1.773192	0.243159	99
Es	3.242279	1.947229	0.330096	99
Es	0.424623	-0.812604	0.032334	99
Es	-1.954101	-0.257840	0.130477	99
Es	-1.380760	-0.334150	0.463560	99
Es	0.823085	-1.045679	-0.444034	99
Es	-1.974582	-0.694184	0.474501	99
Es	-2.579165	-0.353265	0.388816	99
Es	-3.270875	-0.378614	0.347654	99
Es	2.516501	1.388630	0.231347	99
Es	0.415560	-1.241824	-0.854156	99
Es	0.308024	-0.339052	1.201923	99
Es	2.307194	1.721434	0.162693	99
Es	0.503233	0.702233	-1.041619	99
Es	1.054259	-1.204780	-0.328889	99
Es	2.002034	1.155328	-0.091876	99
Es	0.838977	0.420761	-0.504699	99
Es	1.460745	0.799712	-0.289301	99
Es	-0.691750	-0.319036	0.501610	99
Es	0.980172	-0.373968	-0.586397	99
Es	2.653983	1.367705	-0.112584	99
Es	-1.992284	-0.080240	0.657870	99
Es	0.387546	0.244002	0.097171	99
35
Properties=species:S:1:pos:R:3:Z:I:1 energy=-300.5436146772694 field_type=dipole dipole="0.000000 0.000000 0.000000" charge=0
C	-2.578923	-0.353234	0.388841	6
C	-1.381053	-0.334184	0.463541	6
C	0.049347	-0.313204	0.554701	6
N	0.823607	-1.046074	-0.443899	7
C	0.838857	0.420936	-0.504829	6
C	2.002387	1.155486	-0.091799	6
N	2.925797	1.773436	0.243291	7
H	-3.643213	-0.373734	0.329321	1
H	0.460447	-0.350804	1.559851	1
H	0.204427	-1.430884	-1.158519	1
H	0.298317	0.852256	-1.340499	1
Es	0.049355	-0.313264	0.554455	99
Es	0.823085	-1.045681	-0.444036	99
Es	1.050434	-1.201777	-0.329476	99
Es	-0.691708	-0.319410	0.501540	99
Es	-1.982495	0.004712	0.363221	99
Es	2.495777	1.554022	-0.006257	99
Es	-2.579166	-0.353261	0.388816	99
Es	2.002033	1.155327	-0.091869	99
Es	2.665221	1.274784	0.006188	99
Es	2.925429	1.773192	0.243159	99
Es	0.838977	0.420765	-0.504697	99
Es	-1.950430	-0.610217	0.189003	99
Es	0.412673	-1.240618	-0.850721	99
Es	-1.987999	-0.426910	0.710512	99
Es	3.242531	1.946674	0.329911	99
Es	-3.270823	-0.378831	0.347528	99
Es	2.316517	1.649444	0.281271	99
Es	-1.380759	-0.334155	0.463557	99
Es	0.500635	0.703959	-1.044528	99
Es	0.308095	-0.339799	1.201753	99
Es	0.425610	-0.811261	0.030577	99
Es	1.460879	0.799344	-0.289047	99
Es	0.983865	-0.373432	-0.584431	99
Es	0.391743	0.238132	0.097683	99
35
Properties=species:S:1:pos:R:3:Z:I:1 energy=-300.5436146772694 field_type=dipole dipole="0.000000 0.000000 0.000000" charge=0
C	-2.578923	-0.353234	0.388841	6
C	-1.381053	-0.334184	0.463541	6
C	0.049347	-0.313204	0.554701	6
N	0.823607	-1.046074	-0.443899	7
C	0.838857	0.420936	-0.504829	6
C	2.002387	1.155486	-0.091799	6
N	2.925797	1.773436	0.243291	7
H	-3.643213	-0.373734	0.329321	1
H	0.460447	-0.350804	1.559851	1
H	0.204427	-1.430884	-1.158519	1
H	0.298317	0.852256	-1.340499	1
Es	0.838976	0.420765	-0.504700	99
Es	-3.270970	-0.378175	0.347465	99
Es	0.823090	-1.045688	-0.444041	99
Es	1.043458	-1.196824	-0.329916	99
Es	1.460807	0.799776	-0.289351	99
Es	0.049353	-0.313259	0.554456	99
Es	0.427304	-0.811762	0.027902	99
Es	-2.579164	-0.353269	0.388814	99
Es	-1.954263	-0.261980	0.137589	99
Es	-1.992204	-0.074389	0.651711	99
Es	-1.974466	-0.696010	0.473435	99
Es	2.656278	1.359448	-0.104449	99
Es	2.925429	1.773193	0.243159	99
Es	0.503299	0.702141	-1.041902	99
Es	3.242961	1.945412	0.329600	99
Es	-1.380759	-0.334154	0.463557	99
Es	0.411465	-1.239650	-0.849653	99
Es	2.514177	1.399404	0.220503	99
Es	-0.691723	-0.319379	0.501688	99
Es	2.306802	1.719991	0.165798	99
Es	2.002036	1.155325	-0.091881	99
Es	0.388782	0.241615	0.097205	99
Es	0.991174	-0.381204	-0.583836	99
Es	0.307637	-0.339585	1.200960	99
