47
Properties=species:S:1:pos:R:3:Z:I:1 energy=-305.27077506592724 field_type=dipole dipole="0.000000 0.000000 0.000000" charge=0
C	-0.664197	-1.744744	-1.724303	6
C	-0.672357	-1.228744	-0.293133	6
C	0.228364	-0.006874	-0.144793	6
N	-0.352947	1.229566	-0.744263	7
C	0.168983	2.003386	0.412237	6
C	0.177253	0.700176	1.236277	6
N	1.452034	0.548656	1.944757	7
H	-1.285067	-2.641924	-1.807533	1
H	0.351293	-2.000654	-2.042743	1
H	-1.055207	-0.995074	-2.419003	1
H	-0.312997	-2.025064	0.369747	1
H	-1.702327	-1.003794	0.010317	1
H	1.244443	-0.204594	-0.516123	1
H	-1.372807	1.225086	-0.786043	1
H	1.145043	2.460866	0.207767	1
H	-0.507117	2.783505	0.775557	1
H	-0.721137	0.526946	1.837047	1
H	2.272893	0.764906	1.377507	1
H	1.605853	-0.391624	2.306717	1
Es	0.910554	0.585375	1.636899	99
Es	0.928345	-0.138670	-0.392065	99
Es	0.228264	-0.006776	-0.144868	99
Es	0.032135	-1.918478	-1.936189	99
Es	-0.664198	-1.744740	-1.724274	99
Es	-0.224109	-0.624553	-0.224349	99
Es	-0.932482	-1.233666	-2.192649	99
Es	-0.156482	1.615594	-0.259801	99
Es	-1.378448	-1.062310	-0.083798	99
Es	-0.672343	-1.228750	-0.293161	99
Es	0.844771	2.299001	0.277391	99
Es	-0.969907	1.210278	-0.726254	99
Es	-0.296893	2.542893	0.658791	99
Es	1.534774	-0.035183	2.136264	99
Es	-0.130909	0.663609	-0.530592	99
Es	-0.433146	0.575040	1.643336	99
Es	0.188521	1.404041	0.907578	99
Es	1.927920	0.663452	1.570745	99
Es	0.177403	0.700172	1.236336	99
Es	1.452021	0.548281	1.944296	99
Es	-0.669329	-1.486046	-1.011601	99
Es	1.463310	0.762745	2.219222	99
Es	0.210007	0.262570	0.583605	99
Es	0.168919	2.003300	0.412133	99
Es	-0.353139	1.229411	-0.743724	99
Es	-0.229378	1.326926	-1.070828	99
Es	-1.088880	-2.358870	-1.779911	99
Es	-0.420918	-1.772113	0.164936	99
47
Properties=species:S:1:pos:R:3:Z:I:1 energy=-305.27077506592724 field_type=dipole dipole="0.000000 0.000000 0.000000" charge=0
C	-0.664197	-1.744744	-1.724303	6
C	-0.672357	-1.228744	-0.293133	6
C	0.228364	-0.006874	-0.144793	6
N	-0.352947	1.229566	-0.744263	7
C	0.168983	2.003386	0.412237	6
C	0.177253	0.700176	1.236277	6
N	1.452034	0.548656	1.944757	7
H	-1.285067	-2.641924	-1.807533	1
H	0.351293	-2.000654	-2.042743	1
H	-1.055207	-0.995074	-2.419003	1
H	-0.312997	-2.025064	0.369747	1
H	-1.702327	-1.003794	0.010317	1
H	1.244443	-0.204594	-0.516123	1
H	-1.372807	1.225086	-0.786043	1
H	1.145043	2.460866	0.207767	1
H	-0.507117	2.783505	0.775557	1
H	-0.721137	0.526946	1.837047	1
H	2.272893	0.764906	1.377507	1
H	1.605853	-0.391624	2.306717	1
Es	-0.129254	0.662892	-0.531643	99
Es	-0.433351	0.574904	1.643360	99
Es	0.929260	-0.138720	-0.391933	99
Es	0.188598	1.404103	0.906571	99
Es	-1.089627	-2.358625	-1.779304	99
Es	-0.932850	-1.233544	-2.191748	99
Es	-0.223926	-0.624653	-0.224318	99
Es	0.177402	0.700173	1.236338	99
Es	0.209563	0.262567	0.583170	99
Es	-0.420634	-1.772271	0.164318	99
Es	-0.672344	-1.228751	-0.293161	99
Es	-0.664197	-1.744741	-1.724274	99
Es	-0.155467	1.615497	-0.260276	99
Es	0.909045	0.587718	1.638371	99
Es	0.228262	-0.006777	-0.144868	99
Es	-1.379715	-1.062182	-0.083904	99
Es	-0.297624	2.543108	0.658992	99
Es	0.033394	-1.918610	-1.936471	99
Es	1.928489	0.664794	1.571047	99
Es	-0.353189	1.229399	-0.743700	99
Es	-0.230124	1.326965	-1.066864	99
Es	1.452017	0.548350	1.944409	99
Es	-0.668989	-1.486036	-1.011652	99
Es	0.168919	2.003300	0.412134	99
Es	0.845232	2.298823	0.277130	99
Es	1.534694	-0.035750	2.135755	99
Es	-0.971698	1.211160	-0.727703	99
Es	1.464495	0.759440	2.217694	99
47
Properties=species:S:1:pos:R:3:Z:I:1 energy=-305.27077506592724 field_type=dipole dipole="0.000000 0.000000 0.000000" charge=0
C	-0.664197	-1.744744	-1.724303	6
C	-0.672357	-1.228744	-0.293133	6
C	0.228364	-0.006874	-0.144793	6
N	-0.352947	1.229566	-0.744263	7
C	0.168983	2.003386	0.412237	6
C	0.177253	0.700176	1.236277	6
N	1.452034	0.548656	1.944757	7
H	-1.285067	-2.641924	-1.807533	1
H	0.351293	-2.000654	-2.042743	1
H	-1.055207	-0.995074	-2.419003	1
H	-0.312997	-2.025064	0.369747	1
H	-1.702327	-1.003794	0.010317	1
H	1.244443	-0.204594	-0.516123	1
H	-1.372807	1.225086	-0.786043	1
H	1.145043	2.460866	0.207767	1
H	-0.507117	2.783505	0.775557	1
H	-0.721137	0.526946	1.837047	1
H	2.272893	0.764906	1.377507	1
H	1.605853	-0.391624	2.306717	1
Es	-1.089994	-2.358451	-1.779013	99
Es	0.188792	1.404080	0.905953	99
Es	-0.664198	-1.744739	-1.724273	99
Es	-0.672345	-1.228751	-0.293161	99
Es	-0.433452	0.574881	1.643413	99
Es	0.228263	-0.006778	-0.144868	99
Es	-0.298203	2.543398	0.659259	99
Es	0.907485	0.589750	1.639709	99
Es	-0.420443	-1.772365	0.163944	99
Es	0.929744	-0.138800	-0.391835	99
Es	0.168918	2.003300	0.412135	99
Es	-0.932908	-1.233407	-2.191460	99
Es	-0.128243	0.662495	-0.532271	99
Es	1.534740	-0.036007	2.136029	99
Es	-0.223819	-0.624659	-0.224327	99
Es	-1.380426	-1.062143	-0.083982	99
Es	-0.154491	1.615470	-0.260837	99
Es	0.034084	-1.918770	-1.936288	99
Es	0.845405	2.298564	0.276957	99
Es	-0.230939	1.326790	-1.064689	99
Es	1.452028	0.548274	1.944293	99
Es	-0.972724	1.211812	-0.728072	99
Es	-0.353157	1.229408	-0.743708	99
Es	0.209407	0.262577	0.582675	99
Es	0.177402	0.700173	1.236338	99
Es	-0.669053	-1.486068	-1.011584	99
Es	1.929251	0.666144	1.571495	99
Es	1.465258	0.756354	2.215639	99
47
Properties=species:S:1:pos:R:3:Z:I:1 energy=-305.27077506592724 field_type=dipole dipole="0.000000 0.000000 0.000000" charge=0
C	-0.664197	-1.744744	-1.724303	6
C	-0.672357	-1.228744	-0.293133	6
C	0.228364	-0.006874	-0.144793	6
N	-0.352947	1.229566	-0.744263	7
C	0.168983	2.003386	0.412237	6
C	0.177253	0.700176	1.236277	6
N	1.452034	0.548656	1.944757	7
H	-1.285067	-2.641924	-1.807533	1
H	0.351293	-2.000654	-2.042743	1
H	-1.055207	-0.995074	-2.419003	1
H	-0.312997	-2.025064	0.369747	1
H	-1.702327	-1.003794	0.010317	1
H	1.244443	-0.204594	-0.516123	1
H	-1.372807	1.225086	-0.786043	1
H	1.145043	2.460866	0.207767	1
H	-0.507117	2.783505	0.775557	1
H	-0.721137	0.526946	1.837047	1
H	2.272893	0.764906	1.377507	1
H	1.605853	-0.391624	2.306717	1
Es	-1.380937	-1.062136	-0.083900	99
Es	-0.298522	2.543564	0.659243	99
Es	-0.420209	-1.772454	0.163554	99
Es	-0.353161	1.229409	-0.743706	99
Es	0.188751	1.404123	0.905697	99
Es	1.465528	0.754968	2.215197	99
Es	-0.973140	1.211919	-0.728371	99
Es	-0.672345	-1.228753	-0.293160	99
Es	-0.126929	0.661946	-0.533295	99
Es	0.177402	0.700174	1.236337	99
Es	1.534781	-0.036159	2.135596	99
Es	-0.433577	0.574743	1.643460	99
Es	0.034646	-1.918825	-1.936308	99
Es	-0.669121	-1.485925	-1.011602	99
Es	1.452022	0.548273	1.944299	99
Es	1.929539	0.666863	1.571720	99
Es	0.228265	-0.006777	-0.144866	99
Es	-0.153899	1.615961	-0.261040	99
Es	-1.090224	-2.358281	-1.778789	99
Es	0.845627	2.298381	0.276793	99
Es	-0.223849	-0.624807	-0.224214	99
Es	0.209377	0.262812	0.582319	99
Es	-0.232299	1.326734	-1.062671	99
Es	0.906945	0.590501	1.640225	99
Es	0.168918	2.003301	0.412135	99
Es	0.930033	-0.138841	-0.391768	99
Es	-0.664198	-1.744741	-1.724274	99
Es	-0.933045	-1.233440	-2.191144	99
47
Properties=species:S:1:pos:R:3:Z:I:1 energy=-305.27077506592724 field_type=dipole dipole="0.000000 0.000000 0.000000" charge=0
C	-0.664197	-1.744744	-1.724303	6
C	-0.672357	-1.228744	-0.293133	6
C	0.228364	-0.006874	-0.144793	6
N	-0.352947	1.229566	-0.744263	7
C	0.168983	2.003386	0.412237	6
C	0.177253	0.700176	1.236277	6
N	1.452034	0.548656	1.944757	7
H	-1.285067	-2.641924	-1.807533	1
H	0.351293	-2.000654	-2.042743	1
H	-1.055207	-0.995074	-2.419003	1
H	-0.312997	-2.025064	0.369747	1
H	-1.702327	-1.003794	0.010317	1
H	1.244443	-0.204594	-0.516123	1
H	-1.372807	1.225086	-0.786043	1
H	1.145043	2.460866	0.207767	1
H	-0.507117	2.783505	0.775557	1
H	-0.721137	0.526946	1.837047	1
H	2.272893	0.764906	1.377507	1
H	1.605853	-0.391624	2.306717	1
Es	1.466140	0.753688	2.215150	99
Es	0.209345	0.262838	0.582052	99
Es	-1.381318	-1.062187	-0.083942	99
Es	-0.973438	1.212147	-0.728325	99
Es	-0.233256	1.326710	-1.061402	99
Es	-0.669040	-1.486038	-1.011629	99
Es	0.845783	2.298247	0.276751	99
Es	-0.298797	2.543629	0.659471	99
Es	0.930273	-0.138872	-0.391739	99
Es	-0.420150	-1.772396	0.163333	99
Es	0.188791	1.404215	0.905367	99
Es	0.168921	2.003302	0.412136	99
Es	1.534483	-0.036370	2.134803	99
Es	0.034988	-1.918816	-1.936282	99
Es	-0.223771	-0.624756	-0.224217	99
Es	-0.664197	-1.744741	-1.724274	99
Es	-0.672344	-1.228752	-0.293161	99
Es	-0.933074	-1.233368	-2.190865	99
Es	1.452030	0.548275	1.944300	99
Es	-0.126156	0.661614	-0.533970	99
Es	1.929736	0.667151	1.571757	99
Es	0.228265	-0.006775	-0.144868	99
Es	-0.433633	0.574620	1.643487	99
Es	-0.353165	1.229410	-0.743702	99
Es	0.906403	0.591656	1.640937	99
Es	-0.153381	1.616170	-0.261363	99
Es	-1.090461	-2.358240	-1.778672	99
Es	0.177401	0.700173	1.236336	99
47
Properties=species:S:1:pos:R:3:Z:I:1 energy=-305.27077506592724 field_type=dipole dipole="0.000000 0.000000 0.000000" charge=0
C	-0.664197	-1.744744	-1.724303	6
C	-0.672357	-1.228744	-0.293133	6
C	0.228364	-0.006874	-0.144793	6
N	-0.352947	1.229566	-0.744263	7
C	0.168983	2.003386	0.412237	6
C	0.177253	0.700176	1.236277	6
N	1.452034	0.548656	1.944757	7
H	-1.285067	-2.641924	-1.807533	1
H	0.351293	-2.000654	-2.042743	1
H	-1.055207	-0.995074	-2.419003	1
H	-0.312997	-2.025064	0.369747	1
H	-1.702327	-1.003794	0.010317	1
H	1.244443	-0.204594	-0.516123	1
H	-1.372807	1.225086	-0.786043	1
H	1.145043	2.460866	0.207767	1
H	-0.507117	2.783505	0.775557	1
H	-0.721137	0.526946	1.837047	1
H	2.272893	0.764906	1.377507	1
H	1.605853	-0.391624	2.306717	1
Es	-0.299019	2.543745	0.659441	99
Es	-0.973753	1.212289	-0.728629	99
Es	0.168918	2.003300	0.412133	99
Es	-1.381540	-1.062158	-0.083919	99
Es	0.906155	0.592236	1.641521	99
Es	0.930497	-0.138891	-0.391706	99
Es	-0.433692	0.574741	1.643526	99
Es	-0.664198	-1.744740	-1.724273	99
Es	-0.233795	1.327011	-1.060040	99
Es	-0.420005	-1.772505	0.163160	99
Es	-0.933092	-1.233449	-2.190737	99
Es	0.188914	1.404173	0.905243	99
Es	-0.223764	-0.624765	-0.224278	99
Es	1.534438	-0.036577	2.134583	99
Es	-0.672344	-1.228756	-0.293158	99
Es	-0.353184	1.229418	-0.743710	99
Es	1.929778	0.667503	1.571659	99
Es	-0.125371	0.661329	-0.534794	99
Es	-0.669109	-1.485832	-1.011605	99
Es	1.466364	0.752983	2.214873	99
Es	0.845815	2.298159	0.276669	99
Es	0.177402	0.700174	1.236337	99
Es	-0.153201	1.615971	-0.261273	99
Es	0.209254	0.262702	0.581793	99
Es	0.228263	-0.006778	-0.144869	99
Es	-1.090628	-2.358177	-1.778501	99
Es	1.452030	0.548288	1.944300	99
Es	0.035245	-1.918860	-1.936276	99
47
Properties=species:S:1:pos:R:3:Z:I:1 energy=-305.27077506592724 field_type=dipole dipole="0.000000 0.000000 0.000000" charge=0
C	-0.664197	-1.744744	-1.724303	6
C	-0.672357	-1.228744	-0.293133	6
C	0.228364	-0.006874	-0.144793	6
N	-0.352947	1.229566	-0.744263	7
C	0.168983	2.003386	0.412237	6
C	0.177253	0.700176	1.236277	6
N	1.452034	0.548656	1.944757	7
H	-1.285067	-2.641924	-1.807533	1
H	0.351293	-2.000654	-2.042743	1
H	-1.055207	-0.995074	-2.419003	1
H	-0.312997	-2.025064	0.369747	1
H	-1.702327	-1.003794	0.010317	1
H	1.244443	-0.204594	-0.516123	1
H	-1.372807	1.225086	-0.786043	1
H	1.145043	2.460866	0.207767	1
H	-0.507117	2.783505	0.775557	1
H	-0.721137	0.526946	1.837047	1
H	2.272893	0.764906	1.377507	1
H	1.605853	-0.391624	2.306717	1
Es	-0.933072	-1.233469	-2.190523	99
Es	-0.973860	1.212426	-0.728386	99
Es	0.905822	0.592847	1.641904	99
Es	1.929819	0.667673	1.571687	99
Es	-0.124989	0.661157	-0.535126	99
Es	-0.419964	-1.772536	0.162943	99
Es	-0.152402	1.616587	-0.261658	99
Es	-1.090779	-2.358079	-1.778513	99
Es	-0.299178	2.543966	0.659437	99
Es	0.177402	0.700174	1.236338	99
Es	-0.223699	-0.624848	-0.224185	99
Es	0.845870	2.297937	0.276589	99
Es	-1.381787	-1.062079	-0.083863	99
Es	0.930609	-0.138980	-0.391712	99
Es	-0.664197	-1.744742	-1.724274	99
Es	1.452027	0.548268	1.944299	99
Es	-0.669132	-1.485791	-1.011569	99
Es	0.209230	0.262657	0.581629	99
Es	-0.353163	1.229411	-0.743684	99
Es	0.035470	-1.918875	-1.936306	99
Es	0.188916	1.404080	0.905098	99
Es	-0.433713	0.574799	1.643602	99
Es	1.466694	0.752361	2.214575	99
Es	1.534384	-0.036706	2.134393	99
Es	0.168919	2.003300	0.412134	99
Es	0.228262	-0.006779	-0.144869	99
Es	-0.672344	-1.228752	-0.293161	99
Es	-0.234765	1.326528	-1.059329	99
47
Properties=species:S:1:pos:R:3:Z:I:1 energy=-305.27077506592724 field_type=dipole dipole="0.000000 0.000000 0.000000" charge=0
C	-0.664197	-1.744744	-1.724303	6
C	-0.672357	-1.228744	-0.293133	6
C	0.228364	-0.006874	-0.144793	6
N	-0.352947	1.229566	-0.744263	7
C	0.168983	2.003386	0.412237	6
C	0.177253	0.700176	1.236277	6
N	1.452034	0.548656	1.944757	7
H	-1.285067	-2.641924	-1.807533	1
H	0.351293	-2.000654	-2.042743	1
H	-1.055207	-0.995074	-2.419003	1
H	-0.312997	-2.025064	0.369747	1
H	-1.702327	-1.003794	0.010317	1
H	1.244443	-0.204594	-0.516123	1
H	-1.372807	1.225086	-0.786043	1
H	1.145043	2.460866	0.207767	1
H	-0.507117	2.783505	0.775557	1
H	-0.721137	0.526946	1.837047	1
H	2.272893	0.764906	1.377507	1
H	1.605853	-0.391624	2.306717	1
Es	-0.672344	-1.228751	-0.293161	99
Es	-0.664197	-1.744741	-1.724273	99
Es	0.845944	2.297852	0.276609	99
Es	0.035634	-1.918913	-1.936399	99
Es	-0.299294	2.544005	0.659534	99
Es	-0.152107	1.616752	-0.261975	99
Es	1.929627	0.667499	1.571510	99
Es	-0.223672	-0.624764	-0.224239	99
Es	-0.669201	-1.485878	-1.011473	99
Es	-0.933198	-1.233429	-2.190374	99
Es	-0.124682	0.661008	-0.535293	99
Es	0.209201	0.262641	0.581505	99
Es	0.168918	2.003301	0.412134	99
Es	0.930742	-0.138953	-0.391691	99
Es	-0.235300	1.326416	-1.058855	99
Es	1.452029	0.548212	1.944256	99
Es	0.905264	0.593765	1.642566	99
Es	0.228263	-0.006777	-0.144869	99
Es	0.188970	1.404209	0.904909	99
Es	-0.973933	1.212502	-0.728173	99
Es	1.534237	-0.036821	2.133854	99
Es	1.467537	0.751768	2.214557	99
Es	-1.381896	-1.062188	-0.083796	99
Es	-0.353153	1.229412	-0.743746	99
Es	-0.419868	-1.772546	0.162786	99
Es	0.177402	0.700173	1.236336	99
Es	-0.433737	0.574738	1.643680	99
Es	-1.090805	-2.357960	-1.778446	99
47
Properties=species:S:1:pos:R:3:Z:I:1 energy=-305.27077506592724 field_type=dipole dipole="0.000000 0.000000 0.000000" charge=0
C	-0.664197	-1.744744	-1.724303	6
C	-0.672357	-1.228744	-0.293133	6
C	0.228364	-0.006874	-0.144793	6
N	-0.352947	1.229566	-0.744263	7
C	0.168983	2.003386	0.412237	6
C	0.177253	0.700176	1.236277	6
N	1.452034	0.548656	1.944757	7
H	-1.285067	-2.641924	-1.807533	1
H	0.351293	-2.000654	-2.042743	1
H	-1.055207	-0.995074	-2.419003	1
H	-0.312997	-2.025064	0.369747	1
H	-1.702327	-1.003794	0.010317	1
H	1.244443	-0.204594	-0.516123	1
H	-1.372807	1.225086	-0.786043	1
H	1.145043	2.460866	0.207767	1
H	-0.507117	2.783505	0.775557	1
H	-0.721137	0.526946	1.837047	1
H	2.272893	0.764906	1.377507	1
H	1.605853	-0.391624	2.306717	1
Es	-0.353165	1.229405	-0.743698	99
Es	1.452025	0.548260	1.944290	99
Es	-0.124161	0.660879	-0.535653	99
Es	-0.672344	-1.228753	-0.293165	99
Es	1.534197	-0.037068	2.133918	99
Es	-0.664198	-1.744741	-1.724272	99
Es	-1.382069	-1.062213	-0.083871	99
Es	1.929787	0.667894	1.571708	99
Es	-0.223620	-0.624708	-0.224184	99
Es	0.845990	2.297707	0.276519	99
Es	-0.419953	-1.772348	0.162752	99
Es	-0.299517	2.544123	0.659627	99
Es	-1.090904	-2.357870	-1.778373	99
Es	0.228264	-0.006777	-0.144869	99
Es	0.930847	-0.138992	-0.391689	99
Es	0.189013	1.404322	0.904719	99
Es	0.177402	0.700174	1.236337	99
Es	-0.669013	-1.486103	-1.011547	99
Es	0.035774	-1.918970	-1.936449	99
Es	-0.974102	1.212517	-0.728359	99
Es	1.467376	0.751283	2.214180	99
Es	0.209147	0.262555	0.581398	99
Es	-0.151995	1.616785	-0.261940	99
Es	0.168919	2.003302	0.412134	99
Es	-0.235656	1.326479	-1.058130	99
Es	-0.933240	-1.233387	-2.190236	99
Es	-0.433683	0.574713	1.643703	99
Es	0.905262	0.594064	1.642619	99
47
Properties=species:S:1:pos:R:3:Z:I:1 energy=-305.27077506592724 field_type=dipole dipole="0.000000 0.000000 0.000000" charge=0
C	-0.664197	-1.744744	-1.724303	6
C	-0.672357	-1.228744	-0.293133	6
C	0.228364	-0.006874	-0.144793	6
N	-0.352947	1.229566	-0.744263	7
C	0.168983	2.003386	0.412237	6
C	0.177253	0.700176	1.236277	6
N	1.452034	0.548656	1.944757	7
H	-1.285067	-2.641924	-1.807533	1
H	0.351293	-2.000654	-2.042743	1
H	-1.055207	-0.995074	-2.419003	1
H	-0.312997	-2.025064	0.369747	1
H	-1.702327	-1.003794	0.010317	1
H	1.244443	-0.204594	-0.516123	1
H	-1.372807	1.225086	-0.786043	1
H	1.145043	2.460866	0.207767	1
H	-0.507117	2.783505	0.775557	1
H	-0.721137	0.526946	1.837047	1
H	2.272893	0.764906	1.377507	1
H	1.605853	-0.391624	2.306717	1
Es	1.929949	0.668265	1.571739	99
Es	0.209185	0.262591	0.581235	99
Es	0.930904	-0.139019	-0.391675	99
Es	-0.419831	-1.772538	0.162629	99
Es	-0.353174	1.229404	-0.743689	99
Es	-0.151793	1.616772	-0.262083	99
Es	1.452017	0.548273	1.944310	99
Es	1.534073	-0.037131	2.133122	99
Es	-0.672344	-1.228751	-0.293163	99
Es	0.905393	0.594114	1.642773	99
Es	-0.974196	1.212613	-0.728181	99
Es	-1.382109	-1.062224	-0.083826	99
Es	0.189004	1.404237	0.904674	99
Es	-0.664196	-1.744743	-1.724274	99
Es	0.177402	0.700174	1.236336	99
Es	-0.236131	1.326590	-1.057609	99
Es	-0.223705	-0.624748	-0.224074	99
Es	0.846034	2.297688	0.276521	99
Es	-0.123782	0.660764	-0.536138	99
Es	0.035903	-1.918946	-1.936403	99
Es	-1.090953	-2.357874	-1.778295	99
Es	-0.669115	-1.485872	-1.011627	99
Es	-0.299563	2.544130	0.659624	99
Es	-0.933264	-1.233408	-2.190187	99
Es	1.467250	0.750895	2.214767	99
Es	0.228263	-0.006778	-0.144869	99
Es	-0.433760	0.574751	1.643696	99
Es	0.168919	2.003303	0.412133	99
47
Properties=species:S:1:pos:R:3:Z:I:1 energy=-305.27077506592724 field_type=dipole dipole="0.000000 0.000000 0.000000" charge=0
C	-0.664197	-1.744744	-1.724303	6
C	-0.672357	-1.228744	-0.293133	6
C	0.228364	-0.006874	-0.144793	6
N	-0.352947	1.229566	-0.744263	7
C	0.168983	2.003386	0.412237	6
C	0.177253	0.700176	1.236277	6
N	1.452034	0.548656	1.944757	7
H	-1.285067	-2.641924	-1.807533	1
H	0.351293	-2.000654	-2.042743	1
H	-1.055207	-0.995074	-2.419003	1
H	-0.312997	-2.025064	0.369747	1
H	-1.702327	-1.003794	0.010317	1
H	1.244443	-0.204594	-0.516123	1
H	-1.372807	1.225086	-0.786043	1
H	1.145043	2.460866	0.207767	1
H	-0.507117	2.783505	0.775557	1
H	-0.721137	0.526946	1.837047	1
H	2.272893	0.764906	1.377507	1
H	1.605853	-0.391624	2.306717	1
Es	0.035964	-1.918914	-1.936493	99
Es	-0.974320	1.212942	-0.728357	99
Es	-0.123582	0.660458	-0.536558	99
Es	-0.664197	-1.744741	-1.724273	99
Es	0.930962	-0.139010	-0.391730	99
Es	0.189093	1.404253	0.904576	99
Es	0.177401	0.700172	1.236335	99
Es	1.452028	0.548226	1.944260	99
Es	-0.669078	-1.485800	-1.011504	99
Es	1.467865	0.750944	2.214580	99
Es	-1.382235	-1.062200	-0.083829	99
Es	-0.236306	1.326724	-1.056889	99
Es	-1.091023	-2.357864	-1.778296	99
Es	0.846057	2.297579	0.276387	99
Es	-0.151640	1.616610	-0.261900	99
Es	-0.223648	-0.624795	-0.224023	99
Es	1.534168	-0.037156	2.133188	99
Es	1.929576	0.667901	1.571452	99
Es	0.168919	2.003300	0.412134	99
Es	-0.299654	2.544235	0.659654	99
Es	-0.419879	-1.772560	0.162479	99
Es	-0.433776	0.574715	1.643754	99
Es	-0.353180	1.229413	-0.743712	99
Es	0.228264	-0.006776	-0.144871	99
Es	0.904964	0.594514	1.643173	99
Es	-0.933257	-1.233477	-2.190068	99
Es	0.209241	0.262591	0.581161	99
Es	-0.672345	-1.228751	-0.293160	99
47
Properties=species:S:1:pos:R:3:Z:I:1 energy=-305.27077506592724 field_type=dipole dipole="0.000000 0.000000 0.000000" charge=0
C	-0.664197	-1.744744	-1.724303	6
C	-0.672357	-1.228744	-0.293133	6
C	0.228364	-0.006874	-0.144793	6
N	-0.352947	1.229566	-0.744263	7
C	0.168983	2.003386	0.412237	6
C	0.177253	0.700176	1.236277	6
N	1.452034	0.548656	1.944757	7
H	-1.285067	-2.641924	-1.807533	1
H	0.351293	-2.000654	-2.042743	1
H	-1.055207	-0.995074	-2.419003	1
H	-0.312997	-2.025064	0.369747	1
H	-1.702327	-1.003794	0.010317	1
H	1.244443	-0.204594	-0.516123	1
H	-1.372807	1.225086	-0.786043	1
H	1.145043	2.460866	0.207767	1
H	-0.507117	2.783505	0.775557	1
H	-0.721137	0.526946	1.837047	1
H	2.272893	0.764906	1.377507	1
H	1.605853	-0.391624	2.306717	1
Es	-0.419804	-1.772511	0.162378	99
Es	1.452047	0.548280	1.944317	99
Es	0.930962	-0.139012	-0.391679	99
Es	1.929720	0.667867	1.571388	99
Es	-0.236733	1.326708	-1.056688	99
Es	1.468014	0.750518	2.214507	99
Es	-0.672345	-1.228750	-0.293162	99
Es	-0.299760	2.544299	0.659698	99
Es	-0.353162	1.229410	-0.743698	99
Es	-1.091048	-2.357867	-1.778351	99
Es	-0.933208	-1.233288	-2.190083	99
Es	1.533979	-0.037107	2.133004	99
Es	0.904890	0.594882	1.643295	99
Es	-0.664197	-1.744741	-1.724273	99
Es	-0.433728	0.574614	1.643839	99
Es	0.228263	-0.006778	-0.144869	99
Es	0.209188	0.262601	0.581179	99
Es	-0.151493	1.616768	-0.262084	99
Es	-0.669204	-1.485982	-1.011552	99
Es	0.168917	2.003301	0.412134	99
Es	-0.223539	-0.624808	-0.224143	99
Es	0.177402	0.700173	1.236337	99
Es	0.036039	-1.918937	-1.936264	99
Es	-1.382323	-1.062225	-0.083735	99
Es	-0.123235	0.660548	-0.536809	99
Es	0.846071	2.297491	0.276499	99
Es	0.189007	1.404337	0.904482	99
Es	-0.974339	1.212741	-0.728199	99
47
Properties=species:S:1:pos:R:3:Z:I:1 energy=-305.27077506592724 field_type=dipole dipole="0.000000 0.000000 0.000000" charge=0
C	-0.664197	-1.744744	-1.724303	6
C	-0.672357	-1.228744	-0.293133	6
C	0.228364	-0.006874	-0.144793	6
N	-0.352947	1.229566	-0.744263	7
C	0.168983	2.003386	0.412237	6
C	0.177253	0.700176	1.236277	6
N	1.452034	0.548656	1.944757	7
H	-1.285067	-2.641924	-1.807533	1
H	0.351293	-2.000654	-2.042743	1
H	-1.055207	-0.995074	-2.419003	1
H	-0.312997	-2.025064	0.369747	1
H	-1.702327	-1.003794	0.010317	1
H	1.244443	-0.204594	-0.516123	1
H	-1.372807	1.225086	-0.786043	1
H	1.145043	2.460866	0.207767	1
H	-0.507117	2.783505	0.775557	1
H	-0.721137	0.526946	1.837047	1
H	2.272893	0.764906	1.377507	1
H	1.605853	-0.391624	2.306717	1
Es	-0.419817	-1.772563	0.162351	99
Es	1.468161	0.750553	2.214631	99
Es	-0.669079	-1.485891	-1.011526	99
Es	0.189170	1.404322	0.904437	99
Es	-0.299826	2.544344	0.659711	99
Es	-0.223603	-0.624823	-0.224090	99
Es	-0.974292	1.212870	-0.728063	99
Es	-0.664197	-1.744741	-1.724274	99
Es	-0.353093	1.229446	-0.743810	99
Es	0.168918	2.003301	0.412134	99
Es	1.452026	0.548286	1.944318	99
Es	0.228263	-0.006778	-0.144869	99
Es	0.846053	2.297458	0.276396	99
Es	1.533928	-0.037088	2.132905	99
Es	-0.236989	1.326565	-1.056534	99
Es	0.904745	0.594870	1.643557	99
Es	-0.123126	0.660475	-0.536694	99
Es	0.931015	-0.139089	-0.391635	99
Es	-0.672345	-1.228751	-0.293162	99
Es	-0.433734	0.574777	1.643784	99
Es	0.177402	0.700175	1.236335	99
Es	1.929680	0.667785	1.571198	99
Es	-1.091159	-2.357760	-1.778214	99
Es	0.036191	-1.918956	-1.936503	99
Es	0.209189	0.262446	0.580996	99
Es	-0.151377	1.616892	-0.262215	99
Es	-0.933305	-1.233412	-2.189867	99
Es	-1.382421	-1.062180	-0.083825	99
47
Properties=species:S:1:pos:R:3:Z:I:1 energy=-305.27077506592724 field_type=dipole dipole="0.000000 0.000000 0.000000" charge=0
C	-0.664197	-1.744744	-1.724303	6
C	-0.672357	-1.228744	-0.293133	6
C	0.228364	-0.006874	-0.144793	6
N	-0.352947	1.229566	-0.744263	7
C	0.168983	2.003386	0.412237	6
C	0.177253	0.700176	1.236277	6
N	1.452034	0.548656	1.944757	7
H	-1.285067	-2.641924	-1.807533	1
H	0.351293	-2.000654	-2.042743	1
H	-1.055207	-0.995074	-2.419003	1
H	-0.312997	-2.025064	0.369747	1
H	-1.702327	-1.003794	0.010317	1
H	1.244443	-0.204594	-0.516123	1
H	-1.372807	1.225086	-0.786043	1
H	1.145043	2.460866	0.207767	1
H	-0.507117	2.783505	0.775557	1
H	-0.721137	0.526946	1.837047	1
H	2.272893	0.764906	1.377507	1
H	1.605853	-0.391624	2.306717	1
Es	0.846166	2.297384	0.276359	99
Es	-0.672345	-1.228751	-0.293161	99
Es	0.931110	-0.139086	-0.391651	99
Es	-1.091198	-2.357765	-1.778148	99
Es	-0.664198	-1.744740	-1.724276	99
Es	0.036196	-1.918965	-1.936541	99
Es	-0.419907	-1.772554	0.162276	99
Es	0.209204	0.262453	0.580876	99
Es	0.168919	2.003301	0.412133	99
Es	1.468512	0.750963	2.214046	99
Es	-0.223570	-0.624833	-0.223897	99
Es	0.189047	1.404439	0.904377	99
Es	1.929583	0.667094	1.570970	99
Es	-0.353182	1.229402	-0.743683	99
Es	-0.299949	2.544369	0.659704	99
Es	-0.668923	-1.485849	-1.011603	99
Es	-0.933324	-1.233405	-2.189834	99
Es	0.228263	-0.006778	-0.144870	99
Es	1.533534	-0.037227	2.133656	99
Es	-0.433701	0.574658	1.643820	99
Es	-0.237376	1.326455	-1.056060	99
Es	-0.122848	0.660461	-0.537116	99
Es	0.904877	0.595366	1.643605	99
Es	1.452029	0.548255	1.944273	99
Es	-1.382491	-1.062180	-0.083873	99
Es	0.177401	0.700175	1.236332	99
Es	-0.151034	1.617085	-0.262173	99
Es	-0.974416	1.212806	-0.728074	99
47
Properties=species:S:1:pos:R:3:Z:I:1 energy=-305.27077506592724 field_type=dipole dipole="0.000000 0.000000 0.000000" charge=0
C	-0.664197	-1.744744	-1.724303	6
C	-0.672357	-1.228744	-0.293133	6
C	0.228364	-0.006874	-0.144793	6
N	-0.352947	1.229566	-0.744263	7
C	0.168983	2.003386	0.412237	6
C	0.177253	0.700176	1.236277	6
N	1.452034	0.548656	1.944757	7
H	-1.285067	-2.641924	-1.807533	1
H	0.351293	-2.000654	-2.042743	1
H	-1.055207	-0.995074	-2.419003	1
H	-0.312997	-2.025064	0.369747	1
H	-1.702327	-1.003794	0.010317	1
H	1.244443	-0.204594	-0.516123	1
H	-1.372807	1.225086	-0.786043	1
H	1.145043	2.460866	0.207767	1
H	-0.507117	2.783505	0.775557	1
H	-0.721137	0.526946	1.837047	1
H	2.272893	0.764906	1.377507	1
H	1.605853	-0.391624	2.306717	1
Es	-0.122637	0.660244	-0.537507	99
Es	0.177401	0.700174	1.236336	99
Es	-0.299962	2.544430	0.659801	99
Es	0.904866	0.595214	1.643662	99
Es	-0.672344	-1.228752	-0.293161	99
Es	0.168917	2.003301	0.412134	99
Es	-0.150986	1.617058	-0.262157	99
Es	-0.223614	-0.624823	-0.223980	99
Es	1.533834	-0.037355	2.132982	99
Es	0.846120	2.297315	0.276313	99
Es	-0.974355	1.212877	-0.727824	99
Es	0.189182	1.404282	0.904259	99
Es	1.452044	0.548244	1.944264	99
Es	-1.091202	-2.357732	-1.778036	99
Es	0.228263	-0.006778	-0.144869	99
Es	0.931160	-0.139057	-0.391645	99
Es	0.036263	-1.918998	-1.936529	99
Es	-0.664197	-1.744741	-1.724273	99
Es	1.929660	0.667947	1.571295	99
Es	-0.237690	1.326678	-1.055869	99
Es	-0.353190	1.229408	-0.743702	99
Es	-0.933333	-1.233552	-2.189902	99
Es	1.468120	0.750385	2.214355	99
Es	-0.433784	0.574748	1.643827	99
Es	0.209181	0.262473	0.580838	99
Es	-1.382534	-1.062216	-0.083839	99
Es	-0.669034	-1.485598	-1.011526	99
Es	-0.419769	-1.772643	0.162223	99
47
Properties=species:S:1:pos:R:3:Z:I:1 energy=-305.27077506592724 field_type=dipole dipole="0.000000 0.000000 0.000000" charge=0
C	-0.664197	-1.744744	-1.724303	6
C	-0.672357	-1.228744	-0.293133	6
C	0.228364	-0.006874	-0.144793	6
N	-0.352947	1.229566	-0.744263	7
C	0.168983	2.003386	0.412237	6
C	0.177253	0.700176	1.236277	6
N	1.452034	0.548656	1.944757	7
H	-1.285067	-2.641924	-1.807533	1
H	0.351293	-2.000654	-2.042743	1
H	-1.055207	-0.995074	-2.419003	1
H	-0.312997	-2.025064	0.369747	1
H	-1.702327	-1.003794	0.010317	1
H	1.244443	-0.204594	-0.516123	1
H	-1.372807	1.225086	-0.786043	1
H	1.145043	2.460866	0.207767	1
H	-0.507117	2.783505	0.775557	1
H	-0.721137	0.526946	1.837047	1
H	2.272893	0.764906	1.377507	1
H	1.605853	-0.391624	2.306717	1
Es	-0.669080	-1.485801	-1.011498	99
Es	-0.933305	-1.233496	-2.189772	99
Es	-0.223518	-0.624906	-0.223994	99
Es	-0.237646	1.326598	-1.055585	99
Es	-0.664197	-1.744741	-1.724274	99
Es	0.177402	0.700173	1.236337	99
Es	0.931104	-0.139006	-0.391669	99
Es	0.904658	0.595724	1.643982	99
Es	-0.974447	1.212897	-0.728104	99
Es	-0.151038	1.617075	-0.262185	99
Es	-0.122571	0.660263	-0.537427	99
Es	1.533824	-0.037524	2.132359	99
Es	-0.300028	2.544492	0.659753	99
Es	0.209258	0.262503	0.580812	99
Es	0.228263	-0.006778	-0.144869	99
Es	-0.353179	1.229404	-0.743688	99
Es	-0.433798	0.574727	1.643893	99
Es	-1.091263	-2.357657	-1.778131	99
Es	-0.672344	-1.228752	-0.293161	99
Es	0.168918	2.003301	0.412134	99
Es	1.929483	0.668005	1.571209	99
Es	1.468543	0.749967	2.214636	99
Es	0.036349	-1.919015	-1.936534	99
Es	-0.419767	-1.772546	0.162207	99
Es	-1.382585	-1.062222	-0.083808	99
Es	0.846126	2.297272	0.276281	99
Es	1.452031	0.548290	1.944296	99
Es	0.189186	1.404286	0.904269	99
