41
Properties=species:S:1:pos:R:3:Z:I:1 energy=-302.9358906263365 field_type=dipole dipole="0.000000 0.000000 0.000000" charge=0
C	-1.816635	-1.825236	-0.065691	6
C	-0.480795	-1.764186	-0.099001	6
C	0.289135	-0.512276	0.049609	6
N	1.587245	-0.486576	0.067559	7
N	1.937455	0.808204	0.265689	7
C	0.843875	1.718724	-0.047281	6
C	-0.362855	0.834854	0.199199	6
H	-2.318895	-2.781766	-0.175981	1
H	-2.445265	-0.953376	0.075699	1
H	0.116705	-2.661066	-0.230871	1
H	2.811395	1.051904	-0.202131	1
H	0.891315	2.021784	-1.099271	1
H	0.848805	2.611814	0.582959	1
H	-1.151535	0.999424	-0.537951	1
H	-0.749955	0.937774	1.217469	1
Es	-2.163154	-2.468274	-0.140190	99
Es	1.586872	-0.486085	0.067613	99
Es	1.848105	-0.751618	0.037935	99
Es	0.978811	-0.546318	0.334002	99
Es	0.851759	2.329358	0.379936	99
Es	-0.078644	-2.366319	-0.188690	99
Es	0.873955	1.925594	-0.773957	99
Es	0.843954	1.718619	-0.047248	99
Es	1.937263	0.808055	0.265018	99
Es	-2.243022	-1.234807	0.029328	99
Es	0.219775	1.302627	0.079234	99
Es	-0.621874	0.900639	0.885999	99
Es	0.974977	-0.482983	-0.237360	99
Es	1.960281	0.786967	0.582150	99
Es	1.750616	0.180684	0.124032	99
Es	-0.898750	0.943216	-0.295886	99
Es	-1.816731	-1.825237	-0.065690	99
Es	-0.480678	-1.764122	-0.098997	99
Es	-0.362812	0.834828	0.199190	99
Es	0.289093	-0.512299	0.049636	99
Es	1.467614	1.204553	0.100014	99
Es	-1.153068	-1.733046	-0.401685	99
Es	2.452564	0.949708	-0.036604	99
Es	-0.070207	0.152264	0.118634	99
Es	-1.133725	-1.819202	0.237739	99
Es	-0.099977	-1.135283	-0.021343	99
41
Properties=species:S:1:pos:R:3:Z:I:1 energy=-302.9358906263365 field_type=dipole dipole="0.000000 0.000000 0.000000" charge=0
C	-1.816635	-1.825236	-0.065691	6
C	-0.480795	-1.764186	-0.099001	6
C	0.289135	-0.512276	0.049609	6
N	1.587245	-0.486576	0.067559	7
N	1.937455	0.808204	0.265689	7
C	0.843875	1.718724	-0.047281	6
C	-0.362855	0.834854	0.199199	6
H	-2.318895	-2.781766	-0.175981	1
H	-2.445265	-0.953376	0.075699	1
H	0.116705	-2.661066	-0.230871	1
H	2.811395	1.051904	-0.202131	1
H	0.891315	2.021784	-1.099271	1
H	0.848805	2.611814	0.582959	1
H	-1.151535	0.999424	-0.537951	1
H	-0.749955	0.937774	1.217469	1
Es	-1.816734	-1.825237	-0.065690	99
Es	-0.080852	-2.364040	-0.188624	99
Es	-1.153281	-1.732846	-0.402539	99
Es	1.937248	0.808026	0.264992	99
Es	0.853800	2.328324	0.376359	99
Es	0.218399	1.303526	0.079257	99
Es	1.843228	-0.750939	0.036188	99
Es	-0.099627	-1.135093	-0.021366	99
Es	-2.240788	-1.236473	0.028839	99
Es	-0.071361	0.154918	0.121355	99
Es	1.945656	0.776745	0.552409	99
Es	0.289092	-0.512299	0.049634	99
Es	0.875734	1.925883	-0.768583	99
Es	1.469012	1.207530	0.104215	99
Es	-2.165317	-2.468898	-0.140879	99
Es	0.843953	1.718620	-0.047249	99
Es	0.973241	-0.480004	-0.236490	99
Es	-1.133722	-1.819976	0.239390	99
Es	1.755549	0.179499	0.124697	99
Es	2.471148	0.956868	-0.013277	99
Es	-0.480678	-1.764123	-0.098987	99
Es	1.586856	-0.486093	0.067611	99
Es	-0.902563	0.940834	-0.295747	99
Es	-0.619871	0.897064	0.882272	99
Es	-0.362812	0.834828	0.199189	99
Es	0.977688	-0.545125	0.335831	99
41
Properties=species:S:1:pos:R:3:Z:I:1 energy=-302.9358906263365 field_type=dipole dipole="0.000000 0.000000 0.000000" charge=0
C	-1.816635	-1.825236	-0.065691	6
C	-0.480795	-1.764186	-0.099001	6
C	0.289135	-0.512276	0.049609	6
N	1.587245	-0.486576	0.067559	7
N	1.937455	0.808204	0.265689	7
C	0.843875	1.718724	-0.047281	6
C	-0.362855	0.834854	0.199199	6
H	-2.318895	-2.781766	-0.175981	1
H	-2.445265	-0.953376	0.075699	1
H	0.116705	-2.661066	-0.230871	1
H	2.811395	1.051904	-0.202131	1
H	0.891315	2.021784	-1.099271	1
H	0.848805	2.611814	0.582959	1
H	-1.151535	0.999424	-0.537951	1
H	-0.749955	0.937774	1.217469	1
Es	0.843953	1.718619	-0.047249	99
Es	0.876162	1.924622	-0.763421	99
Es	-1.816735	-1.825237	-0.065690	99
Es	-0.099136	-1.135116	-0.021309	99
Es	1.759795	0.178139	0.125704	99
Es	0.972153	-0.477506	-0.236007	99
Es	-0.083068	-2.362198	-0.188915	99
Es	1.937190	0.807959	0.264919	99
Es	2.479126	0.960166	0.004873	99
Es	-2.167623	-2.468678	-0.140910	99
Es	1.940848	0.770321	0.525968	99
Es	-0.617368	0.894633	0.879700	99
Es	-2.238415	-1.237729	0.028894	99
Es	-0.072320	0.158521	0.123472	99
Es	1.469738	1.210414	0.110390	99
Es	0.289088	-0.512299	0.049626	99
Es	-1.153438	-1.732551	-0.403446	99
Es	-0.480676	-1.764122	-0.098995	99
Es	0.218489	1.303320	0.078395	99
Es	-1.133645	-1.820646	0.240614	99
Es	0.977042	-0.544080	0.336764	99
Es	-0.905830	0.938986	-0.295307	99
Es	1.586841	-0.486083	0.067614	99
Es	-0.362813	0.834828	0.199190	99
Es	0.854603	2.327755	0.373052	99
Es	1.839035	-0.750521	0.034883	99
41
Properties=species:S:1:pos:R:3:Z:I:1 energy=-302.9358906263365 field_type=dipole dipole="0.000000 0.000000 0.000000" charge=0
C	-1.816635	-1.825236	-0.065691	6
C	-0.480795	-1.764186	-0.099001	6
C	0.289135	-0.512276	0.049609	6
N	1.587245	-0.486576	0.067559	7
N	1.937455	0.808204	0.265689	7
C	0.843875	1.718724	-0.047281	6
C	-0.362855	0.834854	0.199199	6
H	-2.318895	-2.781766	-0.175981	1
H	-2.445265	-0.953376	0.075699	1
H	0.116705	-2.661066	-0.230871	1
H	2.811395	1.051904	-0.202131	1
H	0.891315	2.021784	-1.099271	1
H	0.848805	2.611814	0.582959	1
H	-1.151535	0.999424	-0.537951	1
H	-0.749955	0.937774	1.217469	1
Es	-0.614404	0.892999	0.876762	99
Es	-0.909127	0.937739	-0.293907	99
Es	-0.480675	-1.764120	-0.098998	99
Es	1.937274	0.808048	0.265019	99
Es	-1.153540	-1.732368	-0.403979	99
Es	-1.133554	-1.821198	0.241420	99
Es	0.976416	-0.543374	0.337213	99
Es	-0.073033	0.161834	0.125270	99
Es	0.971571	-0.475371	-0.235482	99
Es	0.875982	1.923548	-0.758237	99
Es	0.854858	2.326554	0.370614	99
Es	-2.169700	-2.468078	-0.140868	99
Es	-1.816735	-1.825236	-0.065692	99
Es	0.289087	-0.512299	0.049628	99
Es	1.586840	-0.486081	0.067612	99
Es	1.470402	1.213383	0.116537	99
Es	0.219107	1.302355	0.077132	99
Es	1.835166	-0.749908	0.033800	99
Es	0.843953	1.718620	-0.047251	99
Es	1.763744	0.176786	0.127032	99
Es	-0.362812	0.834824	0.199188	99
Es	1.939923	0.765984	0.505401	99
Es	-0.085141	-2.360618	-0.189085	99
Es	2.482426	0.961399	0.016057	99
Es	-0.098728	-1.135107	-0.021477	99
Es	-2.236302	-1.238795	0.029099	99
41
Properties=species:S:1:pos:R:3:Z:I:1 energy=-302.9358906263365 field_type=dipole dipole="0.000000 0.000000 0.000000" charge=0
C	-1.816635	-1.825236	-0.065691	6
C	-0.480795	-1.764186	-0.099001	6
C	0.289135	-0.512276	0.049609	6
N	1.587245	-0.486576	0.067559	7
N	1.937455	0.808204	0.265689	7
C	0.843875	1.718724	-0.047281	6
C	-0.362855	0.834854	0.199199	6
H	-2.318895	-2.781766	-0.175981	1
H	-2.445265	-0.953376	0.075699	1
H	0.116705	-2.661066	-0.230871	1
H	2.811395	1.051904	-0.202131	1
H	0.891315	2.021784	-1.099271	1
H	0.848805	2.611814	0.582959	1
H	-1.151535	0.999424	-0.537951	1
H	-0.749955	0.937774	1.217469	1
Es	-1.816736	-1.825237	-0.065692	99
Es	1.586838	-0.486072	0.067614	99
Es	0.976000	-0.542463	0.337222	99
Es	-2.171435	-2.467418	-0.140470	99
Es	0.219800	1.301292	0.076253	99
Es	2.484146	0.961928	0.024377	99
Es	-1.133673	-1.821640	0.241621	99
Es	-2.234541	-1.239674	0.029324	99
Es	1.937185	0.807887	0.264898	99
Es	-1.153441	-1.732026	-0.404517	99
Es	0.971020	-0.473684	-0.234838	99
Es	1.939973	0.762126	0.489537	99
Es	1.471000	1.216611	0.122716	99
Es	-0.611663	0.891598	0.873780	99
Es	1.830202	-0.748801	0.033279	99
Es	0.854869	2.325419	0.368262	99
Es	-0.480675	-1.764120	-0.098996	99
Es	-0.086897	-2.359374	-0.189098	99
Es	1.769133	0.175550	0.126202	99
Es	-0.098313	-1.135215	-0.021444	99
Es	0.875537	1.921940	-0.753215	99
Es	0.843953	1.718619	-0.047248	99
Es	-0.911990	0.936909	-0.291884	99
Es	-0.362813	0.834827	0.199189	99
Es	0.289087	-0.512299	0.049632	99
Es	-0.073569	0.164835	0.126304	99
41
Properties=species:S:1:pos:R:3:Z:I:1 energy=-302.9358906263365 field_type=dipole dipole="0.000000 0.000000 0.000000" charge=0
C	-1.816635	-1.825236	-0.065691	6
C	-0.480795	-1.764186	-0.099001	6
C	0.289135	-0.512276	0.049609	6
N	1.587245	-0.486576	0.067559	7
N	1.937455	0.808204	0.265689	7
C	0.843875	1.718724	-0.047281	6
C	-0.362855	0.834854	0.199199	6
H	-2.318895	-2.781766	-0.175981	1
H	-2.445265	-0.953376	0.075699	1
H	0.116705	-2.661066	-0.230871	1
H	2.811395	1.051904	-0.202131	1
H	0.891315	2.021784	-1.099271	1
H	0.848805	2.611814	0.582959	1
H	-1.151535	0.999424	-0.537951	1
H	-0.749955	0.937774	1.217469	1
Es	-1.153444	-1.731908	-0.404594	99
Es	0.875260	1.920343	-0.748683	99
Es	-0.362813	0.834828	0.199189	99
Es	0.289086	-0.512300	0.049629	99
Es	-0.088473	-2.358209	-0.189199	99
Es	0.220555	1.300044	0.075317	99
Es	1.826957	-0.747783	0.032729	99
Es	1.772910	0.174386	0.126491	99
Es	1.471358	1.218667	0.125851	99
Es	0.843957	1.718616	-0.047248	99
Es	-1.133664	-1.821928	0.241792	99
Es	0.975434	-0.541998	0.337031	99
Es	1.586834	-0.486079	0.067612	99
Es	-0.608596	0.890270	0.870057	99
Es	0.854909	2.324501	0.366510	99
Es	-0.097763	-1.135432	-0.021589	99
Es	-2.173110	-2.466625	-0.140190	99
Es	2.484980	0.961995	0.029235	99
Es	-0.074161	0.167792	0.127154	99
Es	-0.915075	0.936342	-0.288742	99
Es	-2.232862	-1.240485	0.029430	99
Es	-0.480675	-1.764120	-0.098998	99
Es	-1.816735	-1.825238	-0.065687	99
Es	1.937106	0.807680	0.264952	99
Es	1.940079	0.760451	0.478911	99
Es	0.970944	-0.472292	-0.234154	99
41
Properties=species:S:1:pos:R:3:Z:I:1 energy=-302.9358906263365 field_type=dipole dipole="0.000000 0.000000 0.000000" charge=0
C	-1.816635	-1.825236	-0.065691	6
C	-0.480795	-1.764186	-0.099001	6
C	0.289135	-0.512276	0.049609	6
N	1.587245	-0.486576	0.067559	7
N	1.937455	0.808204	0.265689	7
C	0.843875	1.718724	-0.047281	6
C	-0.362855	0.834854	0.199199	6
H	-2.318895	-2.781766	-0.175981	1
H	-2.445265	-0.953376	0.075699	1
H	0.116705	-2.661066	-0.230871	1
H	2.811395	1.051904	-0.202131	1
H	0.891315	2.021784	-1.099271	1
H	0.848805	2.611814	0.582959	1
H	-1.151535	0.999424	-0.537951	1
H	-0.749955	0.937774	1.217469	1
Es	-2.231622	-1.241144	0.029402	99
Es	0.854805	2.323440	0.364920	99
Es	-0.606287	0.889396	0.866524	99
Es	2.485424	0.962098	0.032413	99
Es	0.221081	1.299025	0.074762	99
Es	-0.074415	0.169586	0.127585	99
Es	0.843950	1.718625	-0.047249	99
Es	0.874984	1.918520	-0.744027	99
Es	-0.362812	0.834828	0.199190	99
Es	-0.917395	0.936282	-0.285750	99
Es	-1.133566	-1.821878	0.241934	99
Es	1.471552	1.220746	0.127682	99
Es	-1.153548	-1.731956	-0.404579	99
Es	1.777206	0.172432	0.127445	99
Es	0.289087	-0.512299	0.049632	99
Es	-0.089679	-2.357336	-0.189219	99
Es	0.970523	-0.471387	-0.233933	99
Es	0.975357	-0.541388	0.336844	99
Es	-0.480675	-1.764120	-0.098998	99
Es	-2.174349	-2.465960	-0.139981	99
Es	1.939888	0.759078	0.469713	99
Es	1.586829	-0.486079	0.067612	99
Es	1.937368	0.808115	0.265449	99
Es	-1.816736	-1.825237	-0.065689	99
Es	1.823453	-0.746289	0.032726	99
Es	-0.097425	-1.135580	-0.021597	99
41
Properties=species:S:1:pos:R:3:Z:I:1 energy=-302.9358906263365 field_type=dipole dipole="0.000000 0.000000 0.000000" charge=0
C	-1.816635	-1.825236	-0.065691	6
C	-0.480795	-1.764186	-0.099001	6
C	0.289135	-0.512276	0.049609	6
N	1.587245	-0.486576	0.067559	7
N	1.937455	0.808204	0.265689	7
C	0.843875	1.718724	-0.047281	6
C	-0.362855	0.834854	0.199199	6
H	-2.318895	-2.781766	-0.175981	1
H	-2.445265	-0.953376	0.075699	1
H	0.116705	-2.661066	-0.230871	1
H	2.811395	1.051904	-0.202131	1
H	0.891315	2.021784	-1.099271	1
H	0.848805	2.611814	0.582959	1
H	-1.151535	0.999424	-0.537951	1
H	-0.749955	0.937774	1.217469	1
Es	-0.603554	0.888485	0.862060	99
Es	1.937055	0.807477	0.265144	99
Es	-2.230495	-1.241736	0.029388	99
Es	-0.480675	-1.764119	-0.098999	99
Es	0.289085	-0.512292	0.049632	99
Es	0.221594	1.298028	0.074332	99
Es	2.485712	0.961933	0.034454	99
Es	1.781024	0.171268	0.126510	99
Es	0.874832	1.916995	-0.740780	99
Es	-1.133586	-1.822005	0.241927	99
Es	1.940216	0.758350	0.464568	99
Es	1.586844	-0.486070	0.067614	99
Es	0.843957	1.718618	-0.047265	99
Es	-0.920100	0.936385	-0.281377	99
Es	-1.816736	-1.825238	-0.065689	99
Es	-0.362812	0.834828	0.199191	99
Es	-0.097094	-1.135749	-0.021679	99
Es	1.471542	1.222404	0.129918	99
Es	-2.175495	-2.465230	-0.139769	99
Es	-1.153517	-1.731935	-0.404604	99
Es	0.974666	-0.541073	0.336578	99
Es	0.854788	2.322810	0.363601	99
Es	-0.074615	0.171194	0.127876	99
Es	0.970843	-0.470581	-0.233260	99
Es	-0.090696	-2.356553	-0.189153	99
Es	1.820213	-0.744676	0.032591	99
41
Properties=species:S:1:pos:R:3:Z:I:1 energy=-302.9358906263365 field_type=dipole dipole="0.000000 0.000000 0.000000" charge=0
C	-1.816635	-1.825236	-0.065691	6
C	-0.480795	-1.764186	-0.099001	6
C	0.289135	-0.512276	0.049609	6
N	1.587245	-0.486576	0.067559	7
N	1.937455	0.808204	0.265689	7
C	0.843875	1.718724	-0.047281	6
C	-0.362855	0.834854	0.199199	6
H	-2.318895	-2.781766	-0.175981	1
H	-2.445265	-0.953376	0.075699	1
H	0.116705	-2.661066	-0.230871	1
H	2.811395	1.051904	-0.202131	1
H	0.891315	2.021784	-1.099271	1
H	0.848805	2.611814	0.582959	1
H	-1.151535	0.999424	-0.537951	1
H	-0.749955	0.937774	1.217469	1
Es	0.854691	2.321745	0.362912	99
Es	-2.229853	-1.242188	0.029350	99
Es	-0.601627	0.887870	0.858139	99
Es	1.937034	0.807365	0.265259	99
Es	-0.091384	-2.355979	-0.189114	99
Es	1.817715	-0.743295	0.032801	99
Es	1.784306	0.170008	0.126750	99
Es	-0.922010	0.936368	-0.277807	99
Es	0.974637	-0.540603	0.336290	99
Es	0.874931	1.915837	-0.737669	99
Es	0.221828	1.297496	0.073972	99
Es	1.940208	0.757909	0.459794	99
Es	0.843956	1.718617	-0.047246	99
Es	-1.153488	-1.731857	-0.404641	99
Es	-1.133627	-1.822017	0.242006	99
Es	0.289087	-0.512300	0.049633	99
Es	-1.816736	-1.825237	-0.065689	99
Es	2.485896	0.961886	0.035941	99
Es	1.586824	-0.486055	0.067616	99
Es	-0.096994	-1.135756	-0.021711	99
Es	-0.362816	0.834831	0.199201	99
Es	0.970539	-0.470010	-0.233099	99
Es	-0.074608	0.172216	0.128129	99
Es	1.471295	1.223607	0.130574	99
Es	-0.480674	-1.764118	-0.098998	99
Es	-2.176130	-2.464824	-0.139585	99
41
Properties=species:S:1:pos:R:3:Z:I:1 energy=-302.9358906263365 field_type=dipole dipole="0.000000 0.000000 0.000000" charge=0
C	-1.816635	-1.825236	-0.065691	6
C	-0.480795	-1.764186	-0.099001	6
C	0.289135	-0.512276	0.049609	6
N	1.587245	-0.486576	0.067559	7
N	1.937455	0.808204	0.265689	7
C	0.843875	1.718724	-0.047281	6
C	-0.362855	0.834854	0.199199	6
H	-2.318895	-2.781766	-0.175981	1
H	-2.445265	-0.953376	0.075699	1
H	0.116705	-2.661066	-0.230871	1
H	2.811395	1.051904	-0.202131	1
H	0.891315	2.021784	-1.099271	1
H	0.848805	2.611814	0.582959	1
H	-1.151535	0.999424	-0.537951	1
H	-0.749955	0.937774	1.217469	1
Es	1.940104	0.757163	0.457654	99
Es	0.222229	1.296641	0.073710	99
Es	0.843960	1.718619	-0.047287	99
Es	0.874885	1.914428	-0.734798	99
Es	0.970616	-0.469530	-0.232803	99
Es	-1.133593	-1.822061	0.241921	99
Es	-0.096740	-1.135930	-0.021726	99
Es	-0.480675	-1.764119	-0.099000	99
Es	-1.153519	-1.731883	-0.404576	99
Es	-0.600019	0.887464	0.854516	99
Es	-0.092004	-2.355453	-0.189073	99
Es	1.471053	1.224470	0.129998	99
Es	0.974311	-0.540250	0.336059	99
Es	-0.362812	0.834827	0.199190	99
Es	-2.229253	-1.242495	0.029367	99
Es	1.815300	-0.741681	0.032986	99
Es	2.486035	0.961718	0.036792	99
Es	-0.074824	0.173267	0.128347	99
Es	0.854729	2.321512	0.362141	99
Es	-0.923610	0.936439	-0.274340	99
Es	1.937143	0.807753	0.264888	99
Es	1.787249	0.168642	0.126798	99
Es	0.289087	-0.512300	0.049634	99
Es	-1.816736	-1.825236	-0.065688	99
Es	1.586822	-0.486080	0.067610	99
Es	-2.176740	-2.464410	-0.139510	99
41
Properties=species:S:1:pos:R:3:Z:I:1 energy=-302.9358906263365 field_type=dipole dipole="0.000000 0.000000 0.000000" charge=0
C	-1.816635	-1.825236	-0.065691	6
C	-0.480795	-1.764186	-0.099001	6
C	0.289135	-0.512276	0.049609	6
N	1.587245	-0.486576	0.067559	7
N	1.937455	0.808204	0.265689	7
C	0.843875	1.718724	-0.047281	6
C	-0.362855	0.834854	0.199199	6
H	-2.318895	-2.781766	-0.175981	1
H	-2.445265	-0.953376	0.075699	1
H	0.116705	-2.661066	-0.230871	1
H	2.811395	1.051904	-0.202131	1
H	0.891315	2.021784	-1.099271	1
H	0.848805	2.611814	0.582959	1
H	-1.151535	0.999424	-0.537951	1
H	-0.749955	0.937774	1.217469	1
Es	-2.177350	-2.463933	-0.139358	99
Es	0.222562	1.295806	0.073296	99
Es	0.854707	2.320878	0.361703	99
Es	0.289087	-0.512300	0.049628	99
Es	-0.092510	-2.355073	-0.189088	99
Es	-0.480674	-1.764125	-0.098999	99
Es	-0.075066	0.174275	0.128363	99
Es	-1.133609	-1.822099	0.241918	99
Es	1.470837	1.225053	0.131128	99
Es	0.875028	1.913708	-0.733023	99
Es	-0.362811	0.834822	0.199190	99
Es	1.813509	-0.740278	0.033158	99
Es	1.940120	0.757377	0.453746	99
Es	1.937029	0.807314	0.265373	99
Es	1.586821	-0.486084	0.067610	99
Es	-1.153493	-1.731859	-0.404545	99
Es	1.789492	0.167574	0.126840	99
Es	-0.598572	0.886961	0.851091	99
Es	-0.096527	-1.136093	-0.021683	99
Es	0.970427	-0.469337	-0.232820	99
Es	0.843956	1.718619	-0.047262	99
Es	2.486131	0.961690	0.037763	99
Es	0.974353	-0.540037	0.336081	99
Es	-2.228664	-1.242840	0.029296	99
Es	-0.925051	0.936735	-0.270909	99
Es	-1.816736	-1.825237	-0.065688	99
41
Properties=species:S:1:pos:R:3:Z:I:1 energy=-302.9358906263365 field_type=dipole dipole="0.000000 0.000000 0.000000" charge=0
C	-1.816635	-1.825236	-0.065691	6
C	-0.480795	-1.764186	-0.099001	6
C	0.289135	-0.512276	0.049609	6
N	1.587245	-0.486576	0.067559	7
N	1.937455	0.808204	0.265689	7
C	0.843875	1.718724	-0.047281	6
C	-0.362855	0.834854	0.199199	6
H	-2.318895	-2.781766	-0.175981	1
H	-2.445265	-0.953376	0.075699	1
H	0.116705	-2.661066	-0.230871	1
H	2.811395	1.051904	-0.202131	1
H	0.891315	2.021784	-1.099271	1
H	0.848805	2.611814	0.582959	1
H	-1.151535	0.999424	-0.537951	1
H	-0.749955	0.937774	1.217469	1
Es	0.222677	1.295529	0.073307	99
Es	-2.228616	-1.242821	0.029240	99
Es	1.810932	-0.738345	0.033604	99
Es	-0.480675	-1.764120	-0.098999	99
Es	-0.075035	0.174726	0.128498	99
Es	-2.177419	-2.463846	-0.139352	99
Es	-1.816736	-1.825237	-0.065689	99
Es	1.939297	0.756716	0.446119	99
Es	-1.133452	-1.821934	0.242004	99
Es	-1.153631	-1.732146	-0.404470	99
Es	0.854715	2.320535	0.361136	99
Es	-0.092906	-2.354657	-0.189049	99
Es	1.586824	-0.486067	0.067613	99
Es	-0.096403	-1.136170	-0.021831	99
Es	2.486226	0.961643	0.038725	99
Es	1.792572	0.165910	0.126514	99
Es	0.970864	-0.468962	-0.232549	99
Es	0.973751	-0.539821	0.335665	99
Es	0.843953	1.718628	-0.047263	99
Es	-0.362812	0.834827	0.199190	99
Es	-0.925934	0.936765	-0.268639	99
Es	1.470569	1.225422	0.132077	99
Es	1.937777	0.807570	0.270290	99
Es	0.289087	-0.512299	0.049631	99
Es	-0.597681	0.886695	0.848710	99
Es	0.875051	1.912978	-0.731674	99
41
Properties=species:S:1:pos:R:3:Z:I:1 energy=-302.9358906263365 field_type=dipole dipole="0.000000 0.000000 0.000000" charge=0
C	-1.816635	-1.825236	-0.065691	6
C	-0.480795	-1.764186	-0.099001	6
C	0.289135	-0.512276	0.049609	6
N	1.587245	-0.486576	0.067559	7
N	1.937455	0.808204	0.265689	7
C	0.843875	1.718724	-0.047281	6
C	-0.362855	0.834854	0.199199	6
H	-2.318895	-2.781766	-0.175981	1
H	-2.445265	-0.953376	0.075699	1
H	0.116705	-2.661066	-0.230871	1
H	2.811395	1.051904	-0.202131	1
H	0.891315	2.021784	-1.099271	1
H	0.848805	2.611814	0.582959	1
H	-1.151535	0.999424	-0.537951	1
H	-0.749955	0.937774	1.217469	1
Es	0.971775	-0.468703	-0.231688	99
Es	-0.093074	-2.354478	-0.188975	99
Es	-0.926989	0.936979	-0.265670	99
Es	-1.133440	-1.821901	0.241946	99
Es	0.854786	2.320359	0.360571	99
Es	1.809925	-0.737423	0.033649	99
Es	1.470458	1.225866	0.131510	99
Es	-1.153644	-1.732223	-0.404554	99
Es	-1.816736	-1.825238	-0.065689	99
Es	-0.075177	0.175316	0.128490	99
Es	0.843948	1.718654	-0.047323	99
Es	1.793786	0.165402	0.125997	99
Es	-2.227960	-1.243261	0.029159	99
Es	0.875140	1.912005	-0.729932	99
Es	-2.178084	-2.463339	-0.139178	99
Es	-0.596628	0.886416	0.845649	99
Es	-0.362812	0.834828	0.199190	99
Es	0.289087	-0.512300	0.049632	99
Es	1.940066	0.756751	0.450183	99
Es	1.586819	-0.486077	0.067610	99
Es	0.972700	-0.539787	0.334938	99
Es	1.937003	0.807173	0.265507	99
Es	2.486278	0.961646	0.039378	99
Es	-0.480676	-1.764119	-0.099001	99
Es	-0.096437	-1.136092	-0.021767	99
Es	0.222884	1.295061	0.073178	99
41
Properties=species:S:1:pos:R:3:Z:I:1 energy=-302.9358906263365 field_type=dipole dipole="0.000000 0.000000 0.000000" charge=0
C	-1.816635	-1.825236	-0.065691	6
C	-0.480795	-1.764186	-0.099001	6
C	0.289135	-0.512276	0.049609	6
N	1.587245	-0.486576	0.067559	7
N	1.937455	0.808204	0.265689	7
C	0.843875	1.718724	-0.047281	6
C	-0.362855	0.834854	0.199199	6
H	-2.318895	-2.781766	-0.175981	1
H	-2.445265	-0.953376	0.075699	1
H	0.116705	-2.661066	-0.230871	1
H	2.811395	1.051904	-0.202131	1
H	0.891315	2.021784	-1.099271	1
H	0.848805	2.611814	0.582959	1
H	-1.151535	0.999424	-0.537951	1
H	-0.749955	0.937774	1.217469	1
Es	0.854694	2.319907	0.360332	99
Es	-0.595724	0.885967	0.843081	99
Es	1.586824	-0.486087	0.067609	99
Es	0.223074	1.294566	0.073095	99
Es	-0.093416	-2.354207	-0.188917	99
Es	0.843959	1.718616	-0.047263	99
Es	-1.816736	-1.825237	-0.065689	99
Es	-0.096221	-1.136325	-0.021757	99
Es	-2.227770	-1.243443	0.029219	99
Es	-0.362813	0.834828	0.199191	99
Es	-1.153433	-1.731776	-0.404670	99
Es	1.936760	0.805312	0.269402	99
Es	2.486304	0.961528	0.039240	99
Es	0.289087	-0.512300	0.049635	99
Es	-1.133676	-1.822206	0.241980	99
Es	-0.075295	0.175990	0.128440	99
Es	1.470324	1.226378	0.131752	99
Es	-0.927867	0.937111	-0.263009	99
Es	1.795303	0.164447	0.126473	99
Es	0.973779	-0.539338	0.335521	99
Es	1.808715	-0.736486	0.033909	99
Es	0.970558	-0.468593	-0.232519	99
Es	-2.178266	-2.463194	-0.139184	99
Es	0.875216	1.911518	-0.728846	99
Es	1.940292	0.758663	0.444784	99
Es	-0.480675	-1.764120	-0.098999	99
41
Properties=species:S:1:pos:R:3:Z:I:1 energy=-302.9358906263365 field_type=dipole dipole="0.000000 0.000000 0.000000" charge=0
C	-1.816635	-1.825236	-0.065691	6
C	-0.480795	-1.764186	-0.099001	6
C	0.289135	-0.512276	0.049609	6
N	1.587245	-0.486576	0.067559	7
N	1.937455	0.808204	0.265689	7
C	0.843875	1.718724	-0.047281	6
C	-0.362855	0.834854	0.199199	6
H	-2.318895	-2.781766	-0.175981	1
H	-2.445265	-0.953376	0.075699	1
H	0.116705	-2.661066	-0.230871	1
H	2.811395	1.051904	-0.202131	1
H	0.891315	2.021784	-1.099271	1
H	0.848805	2.611814	0.582959	1
H	-1.151535	0.999424	-0.537951	1
H	-0.749955	0.937774	1.217469	1
Es	1.470075	1.225955	0.133386	99
Es	-0.096144	-1.136358	-0.021824	99
Es	-0.075155	0.176033	0.128550	99
Es	-1.133581	-1.822072	0.242207	99
Es	0.970597	-0.468413	-0.232556	99
Es	-0.093761	-2.353858	-0.188860	99
Es	1.796936	0.163263	0.127351	99
Es	0.854666	2.319303	0.360213	99
Es	-0.596178	0.886249	0.844469	99
Es	0.843962	1.718630	-0.047227	99
Es	0.289087	-0.512300	0.049634	99
Es	1.807474	-0.735312	0.034132	99
Es	0.875192	1.912038	-0.729900	99
Es	0.223137	1.294334	0.073371	99
Es	-0.480675	-1.764120	-0.098999	99
Es	-2.227396	-1.243771	0.029182	99
Es	1.936544	0.788669	0.319223	99
Es	0.973692	-0.539234	0.335732	99
Es	1.940431	0.775470	0.391609	99
Es	-1.153527	-1.731899	-0.404802	99
Es	-0.362813	0.834828	0.199190	99
Es	2.486402	0.961442	0.040324	99
Es	-0.927415	0.936804	-0.264429	99
Es	-1.816736	-1.825236	-0.065688	99
Es	-2.178645	-2.462855	-0.139092	99
Es	1.586828	-0.486072	0.067612	99
41
Properties=species:S:1:pos:R:3:Z:I:1 energy=-302.9358906263365 field_type=dipole dipole="0.000000 0.000000 0.000000" charge=0
C	-1.816635	-1.825236	-0.065691	6
C	-0.480795	-1.764186	-0.099001	6
C	0.289135	-0.512276	0.049609	6
N	1.587245	-0.486576	0.067559	7
N	1.937455	0.808204	0.265689	7
C	0.843875	1.718724	-0.047281	6
C	-0.362855	0.834854	0.199199	6
H	-2.318895	-2.781766	-0.175981	1
H	-2.445265	-0.953376	0.075699	1
H	0.116705	-2.661066	-0.230871	1
H	2.811395	1.051904	-0.202131	1
H	0.891315	2.021784	-1.099271	1
H	0.848805	2.611814	0.582959	1
H	-1.151535	0.999424	-0.537951	1
H	-0.749955	0.937774	1.217469	1
Es	0.973317	-0.539097	0.335217	99
Es	0.289087	-0.512299	0.049634	99
Es	-0.362812	0.834828	0.199190	99
Es	0.843954	1.718617	-0.047249	99
Es	-0.928880	0.937145	-0.259743	99
Es	-1.133530	-1.822062	0.241971	99
Es	0.970845	-0.468264	-0.232172	99
Es	1.938866	0.757279	0.435259	99
Es	1.469824	1.226389	0.132031	99
Es	-1.153568	-1.732021	-0.404639	99
Es	-2.178780	-2.462752	-0.139140	99
Es	2.486388	0.961552	0.040479	99
Es	0.875330	1.910733	-0.727394	99
Es	-0.096057	-1.136426	-0.021858	99
Es	0.223243	1.294152	0.073260	99
Es	1.586817	-0.486073	0.067611	99
Es	1.806356	-0.734373	0.034234	99
Es	1.938081	0.806255	0.276551	99
Es	1.798358	0.163065	0.125885	99
Es	-1.816736	-1.825240	-0.065689	99
Es	0.854753	2.319407	0.359819	99
Es	-0.480675	-1.764120	-0.099002	99
Es	-2.227277	-1.243714	0.029211	99
Es	-0.075302	0.176488	0.128677	99
Es	-0.093880	-2.353789	-0.188829	99
Es	-0.594722	0.885835	0.839492	99
41
Properties=species:S:1:pos:R:3:Z:I:1 energy=-302.9358906263365 field_type=dipole dipole="0.000000 0.000000 0.000000" charge=0
C	-1.816635	-1.825236	-0.065691	6
C	-0.480795	-1.764186	-0.099001	6
C	0.289135	-0.512276	0.049609	6
N	1.587245	-0.486576	0.067559	7
N	1.937455	0.808204	0.265689	7
C	0.843875	1.718724	-0.047281	6
C	-0.362855	0.834854	0.199199	6
H	-2.318895	-2.781766	-0.175981	1
H	-2.445265	-0.953376	0.075699	1
H	0.116705	-2.661066	-0.230871	1
H	2.811395	1.051904	-0.202131	1
H	0.891315	2.021784	-1.099271	1
H	0.848805	2.611814	0.582959	1
H	-1.151535	0.999424	-0.537951	1
H	-0.749955	0.937774	1.217469	1
Es	-0.093880	-2.353765	-0.188842	99
Es	-1.816736	-1.825237	-0.065690	99
Es	1.800068	0.162122	0.125442	99
Es	-0.480675	-1.764119	-0.099000	99
Es	-0.362813	0.834829	0.199193	99
Es	-1.133508	-1.821995	0.242065	99
Es	0.971132	-0.468112	-0.231889	99
Es	0.854748	2.319326	0.359641	99
Es	1.469573	1.226756	0.131006	99
Es	-0.593892	0.885520	0.836584	99
Es	0.223261	1.294073	0.072764	99
Es	2.486377	0.961489	0.040031	99
Es	-2.178703	-2.462808	-0.139122	99
Es	1.586834	-0.486070	0.067613	99
Es	0.843952	1.718637	-0.047274	99
Es	-0.929710	0.937456	-0.256823	99
Es	-0.075329	0.176618	0.128567	99
Es	1.937434	0.808125	0.265917	99
Es	0.875453	1.909947	-0.725539	99
Es	1.804867	-0.733032	0.034498	99
Es	-1.153593	-1.732030	-0.404687	99
Es	1.939541	0.755197	0.446522	99
Es	-0.096139	-1.136334	-0.021887	99
Es	-2.227353	-1.243719	0.029139	99
Es	0.289087	-0.512299	0.049635	99
Es	0.973002	-0.539058	0.334942	99
41
Properties=species:S:1:pos:R:3:Z:I:1 energy=-302.9358906263365 field_type=dipole dipole="0.000000 0.000000 0.000000" charge=0
C	-1.816635	-1.825236	-0.065691	6
C	-0.480795	-1.764186	-0.099001	6
C	0.289135	-0.512276	0.049609	6
N	1.587245	-0.486576	0.067559	7
N	1.937455	0.808204	0.265689	7
C	0.843875	1.718724	-0.047281	6
C	-0.362855	0.834854	0.199199	6
H	-2.318895	-2.781766	-0.175981	1
H	-2.445265	-0.953376	0.075699	1
H	0.116705	-2.661066	-0.230871	1
H	2.811395	1.051904	-0.202131	1
H	0.891315	2.021784	-1.099271	1
H	0.848805	2.611814	0.582959	1
H	-1.151535	0.999424	-0.537951	1
H	-0.749955	0.937774	1.217469	1
Es	-0.094301	-2.353366	-0.188763	99
Es	-0.930241	0.937499	-0.254844	99
Es	-0.593344	0.885250	0.834659	99
Es	0.854815	2.319237	0.359429	99
Es	-0.362812	0.834829	0.199191	99
Es	0.843953	1.718620	-0.047247	99
Es	0.223461	1.293596	0.072987	99
Es	-0.075456	0.177211	0.128509	99
Es	2.486420	0.961426	0.040373	99
Es	1.799409	0.163201	0.125284	99
Es	-0.095833	-1.136641	-0.021811	99
Es	0.970457	-0.468083	-0.232353	99
Es	1.940049	0.756409	0.446017	99
Es	1.805572	-0.733800	0.034404	99
Es	-2.226768	-1.244190	0.029079	99
Es	0.289088	-0.512300	0.049643	99
Es	-1.153320	-1.731647	-0.404529	99
Es	1.586878	-0.486079	0.067618	99
Es	0.875510	1.909502	-0.724918	99
Es	-1.816736	-1.825237	-0.065687	99
Es	0.973557	-0.538727	0.335244	99
Es	1.936936	0.806685	0.266388	99
Es	-2.179284	-2.462353	-0.139018	99
Es	1.469457	1.226911	0.130314	99
Es	-0.480675	-1.764120	-0.098999	99
Es	-1.133792	-1.822314	0.241841	99
41
Properties=species:S:1:pos:R:3:Z:I:1 energy=-302.9358906263365 field_type=dipole dipole="0.000000 0.000000 0.000000" charge=0
C	-1.816635	-1.825236	-0.065691	6
C	-0.480795	-1.764186	-0.099001	6
C	0.289135	-0.512276	0.049609	6
N	1.587245	-0.486576	0.067559	7
N	1.937455	0.808204	0.265689	7
C	0.843875	1.718724	-0.047281	6
C	-0.362855	0.834854	0.199199	6
H	-2.318895	-2.781766	-0.175981	1
H	-2.445265	-0.953376	0.075699	1
H	0.116705	-2.661066	-0.230871	1
H	2.811395	1.051904	-0.202131	1
H	0.891315	2.021784	-1.099271	1
H	0.848805	2.611814	0.582959	1
H	-1.151535	0.999424	-0.537951	1
H	-0.749955	0.937774	1.217469	1
Es	0.875523	1.909531	-0.724909	99
Es	-2.179003	-2.462563	-0.139106	99
Es	2.486468	0.961406	0.041051	99
Es	0.854727	2.318961	0.359366	99
Es	0.972425	-0.538722	0.334435	99
Es	-0.480676	-1.764119	-0.099003	99
Es	1.801924	0.161113	0.125199	99
Es	-0.362814	0.834828	0.199191	99
Es	-2.227061	-1.243884	0.029151	99
Es	1.586819	-0.486081	0.067610	99
Es	0.223426	1.293639	0.072862	99
Es	0.971533	-0.467818	-0.231297	99
Es	-0.094237	-2.353483	-0.188790	99
Es	1.803413	-0.731661	0.034705	99
Es	0.843962	1.718620	-0.047294	99
Es	1.469315	1.226784	0.131137	99
Es	-0.930214	0.937447	-0.254968	99
Es	-1.133619	-1.822152	0.241976	99
Es	-1.153487	-1.731842	-0.404652	99
Es	-0.075299	0.176976	0.128656	99
Es	1.938826	0.756835	0.434140	99
Es	-1.816736	-1.825237	-0.065690	99
Es	-0.593384	0.885411	0.834648	99
Es	1.938092	0.806263	0.276626	99
Es	-0.096012	-1.136435	-0.021868	99
Es	0.289087	-0.512300	0.049634	99
