48
Properties=species:S:1:pos:R:3:Z:I:1 energy=-289.3060198045893 field_type=dipole dipole="0.000000 0.000000 0.000000" charge=0
C	-1.368878	-0.723503	-1.592824	6
C	-1.430648	-0.089202	-0.230844	6
C	-2.218258	-0.583532	0.736896	6
C	-0.591828	1.151638	-0.014004	6
C	0.921552	0.930568	-0.124784	6
C	1.455742	-0.061522	0.907746	6
N	2.906672	-0.181632	0.786246	7
H	-1.606438	0.012868	-2.366944	1
H	-2.080568	-1.549773	-1.692204	1
H	-0.369138	-1.124952	-1.786544	1
H	-2.831028	-1.466372	0.578066	1
H	-2.277058	-0.118552	1.717486	1
H	-0.810518	1.591918	0.967736	1
H	-0.892998	1.905498	-0.752704	1
H	1.417862	1.900087	0.012316	1
H	1.176782	0.594068	-1.137214	1
H	1.007252	-1.050592	0.767836	1
H	1.210281	0.278568	1.919606	1
H	3.141342	-0.531802	-0.141874	1
H	3.239882	-0.883772	1.446006	1
Es	-0.689565	-0.988157	-1.716135	99
Es	1.136651	-0.741502	0.806680	99
Es	0.152515	1.017826	-0.072730	99
Es	-0.799555	1.655918	-0.523783	99
Es	-1.593790	-0.537301	0.376542	99
Es	1.096120	0.689790	-0.819048	99
Es	1.182512	0.431920	0.389503	99
Es	-1.395903	-0.407824	-0.914048	99
Es	-2.259872	-0.269759	1.407449	99
Es	1.455884	-0.061507	0.907706	99
Es	-1.004045	0.520015	-0.123965	99
Es	1.255197	1.590830	-0.028184	99
Es	-0.591817	1.151592	-0.014022	99
Es	-1.368869	-0.723479	-1.592798	99
Es	2.277617	-0.151672	0.832457	99
Es	-0.740102	1.445070	0.660862	99
Es	-1.526154	-0.218003	-2.109817	99
Es	3.094023	-0.622032	1.179085	99
Es	-1.852399	-1.284080	-1.655057	99
Es	1.285781	0.173206	1.601961	99
Es	0.921502	0.930542	-0.124771	99
Es	-1.430549	-0.089156	-0.230963	99
Es	3.031139	-0.411753	0.224874	99
Es	-2.218323	-0.583571	0.736974	99
Es	3.070880	0.128388	0.841565	99
Es	-2.637655	-1.185973	0.632111	99
Es	2.906414	-0.182147	0.786143	99
Es	-2.087746	-0.156629	0.170149	99
48
Properties=species:S:1:pos:R:3:Z:I:1 energy=-289.3060198045893 field_type=dipole dipole="0.000000 0.000000 0.000000" charge=0
C	-1.368878	-0.723503	-1.592824	6
C	-1.430648	-0.089202	-0.230844	6
C	-2.218258	-0.583532	0.736896	6
C	-0.591828	1.151638	-0.014004	6
C	0.921552	0.930568	-0.124784	6
C	1.455742	-0.061522	0.907746	6
N	2.906672	-0.181632	0.786246	7
H	-1.606438	0.012868	-2.366944	1
H	-2.080568	-1.549773	-1.692204	1
H	-0.369138	-1.124952	-1.786544	1
H	-2.831028	-1.466372	0.578066	1
H	-2.277058	-0.118552	1.717486	1
H	-0.810518	1.591918	0.967736	1
H	-0.892998	1.905498	-0.752704	1
H	1.417862	1.900087	0.012316	1
H	1.176782	0.594068	-1.137214	1
H	1.007252	-1.050592	0.767836	1
H	1.210281	0.278568	1.919606	1
H	3.141342	-0.531802	-0.141874	1
H	3.239882	-0.883772	1.446006	1
Es	1.285561	0.173269	1.602768	99
Es	-1.368869	-0.723484	-1.592796	99
Es	1.096548	0.689851	-0.820130	99
Es	2.906396	-0.182134	0.786150	99
Es	1.137067	-0.740945	0.806520	99
Es	3.093414	-0.622443	1.178279	99
Es	1.254599	1.590173	-0.027739	99
Es	-0.799411	1.655786	-0.524270	99
Es	3.035291	-0.406957	0.220758	99
Es	-1.003953	0.519988	-0.124401	99
Es	-2.637053	-1.186086	0.632381	99
Es	-1.525696	-0.217688	-2.110533	99
Es	-1.593307	-0.537562	0.376991	99
Es	-1.395626	-0.407602	-0.914019	99
Es	-1.430555	-0.089153	-0.230965	99
Es	-0.690295	-0.988045	-1.715553	99
Es	0.921503	0.930541	-0.124773	99
Es	2.277784	-0.152274	0.832195	99
Es	3.067036	0.124465	0.846306	99
Es	-2.088519	-0.156362	0.169834	99
Es	-2.218320	-0.583577	0.736978	99
Es	-0.740120	1.445132	0.661571	99
Es	-0.591817	1.151592	-0.014022	99
Es	0.152130	1.018013	-0.072586	99
Es	1.455884	-0.061506	0.907707	99
Es	-1.852219	-1.284301	-1.654989	99
Es	-2.259926	-0.269913	1.407572	99
Es	1.182364	0.431773	0.389505	99
48
Properties=species:S:1:pos:R:3:Z:I:1 energy=-289.3060198045893 field_type=dipole dipole="0.000000 0.000000 0.000000" charge=0
C	-1.368878	-0.723503	-1.592824	6
C	-1.430648	-0.089202	-0.230844	6
C	-2.218258	-0.583532	0.736896	6
C	-0.591828	1.151638	-0.014004	6
C	0.921552	0.930568	-0.124784	6
C	1.455742	-0.061522	0.907746	6
N	2.906672	-0.181632	0.786246	7
H	-1.606438	0.012868	-2.366944	1
H	-2.080568	-1.549773	-1.692204	1
H	-0.369138	-1.124952	-1.786544	1
H	-2.831028	-1.466372	0.578066	1
H	-2.277058	-0.118552	1.717486	1
H	-0.810518	1.591918	0.967736	1
H	-0.892998	1.905498	-0.752704	1
H	1.417862	1.900087	0.012316	1
H	1.176782	0.594068	-1.137214	1
H	1.007252	-1.050592	0.767836	1
H	1.210281	0.278568	1.919606	1
H	3.141342	-0.531802	-0.141874	1
H	3.239882	-0.883772	1.446006	1
Es	0.921502	0.930541	-0.124773	99
Es	-0.740109	1.445044	0.661949	99
Es	-1.430555	-0.089149	-0.230966	99
Es	-0.591816	1.151592	-0.014024	99
Es	-1.525261	-0.217363	-2.110914	99
Es	3.092929	-0.623030	1.177475	99
Es	-0.690934	-0.987694	-1.715112	99
Es	-1.852305	-1.284783	-1.654856	99
Es	-2.089120	-0.156230	0.169513	99
Es	-2.259938	-0.269992	1.407428	99
Es	1.455883	-0.061509	0.907705	99
Es	-1.368868	-0.723484	-1.592796	99
Es	1.096797	0.690030	-0.820763	99
Es	2.906417	-0.182114	0.786172	99
Es	-2.218320	-0.583575	0.736978	99
Es	1.254186	1.589779	-0.027485	99
Es	1.182339	0.431512	0.389649	99
Es	1.285268	0.173135	1.603472	99
Es	3.039676	-0.401440	0.217756	99
Es	-1.395182	-0.407495	-0.913993	99
Es	0.151805	1.018136	-0.072425	99
Es	-0.799309	1.655808	-0.524481	99
Es	-2.636736	-1.186285	0.632677	99
Es	1.137509	-0.740544	0.806137	99
Es	-1.592883	-0.537766	0.377402	99
Es	3.063059	0.120379	0.850394	99
Es	-1.003907	0.520015	-0.124845	99
Es	2.277767	-0.152967	0.831466	99
48
Properties=species:S:1:pos:R:3:Z:I:1 energy=-289.3060198045893 field_type=dipole dipole="0.000000 0.000000 0.000000" charge=0
C	-1.368878	-0.723503	-1.592824	6
C	-1.430648	-0.089202	-0.230844	6
C	-2.218258	-0.583532	0.736896	6
C	-0.591828	1.151638	-0.014004	6
C	0.921552	0.930568	-0.124784	6
C	1.455742	-0.061522	0.907746	6
N	2.906672	-0.181632	0.786246	7
H	-1.606438	0.012868	-2.366944	1
H	-2.080568	-1.549773	-1.692204	1
H	-0.369138	-1.124952	-1.786544	1
H	-2.831028	-1.466372	0.578066	1
H	-2.277058	-0.118552	1.717486	1
H	-0.810518	1.591918	0.967736	1
H	-0.892998	1.905498	-0.752704	1
H	1.417862	1.900087	0.012316	1
H	1.176782	0.594068	-1.137214	1
H	1.007252	-1.050592	0.767836	1
H	1.210281	0.278568	1.919606	1
H	3.141342	-0.531802	-0.141874	1
H	3.239882	-0.883772	1.446006	1
Es	1.137858	-0.740186	0.805744	99
Es	-2.260005	-0.269934	1.407211	99
Es	0.151356	1.018246	-0.072271	99
Es	1.253721	1.589339	-0.027008	99
Es	-0.799077	1.655783	-0.524719	99
Es	-1.430560	-0.089150	-0.230964	99
Es	1.182217	0.431454	0.389759	99
Es	-2.089365	-0.156342	0.169604	99
Es	1.097266	0.690229	-0.821457	99
Es	-0.591816	1.151591	-0.014022	99
Es	-0.739994	1.445133	0.662214	99
Es	-1.592565	-0.537731	0.377530	99
Es	2.906399	-0.182155	0.786163	99
Es	1.455884	-0.061508	0.907708	99
Es	2.277860	-0.153176	0.830864	99
Es	-1.394737	-0.407473	-0.914045	99
Es	0.921504	0.930543	-0.124774	99
Es	-1.524510	-0.216942	-2.111572	99
Es	3.044471	-0.395161	0.215091	99
Es	3.091190	-0.624068	1.175698	99
Es	-1.003732	0.519901	-0.125138	99
Es	-1.368868	-0.723483	-1.592795	99
Es	-0.691890	-0.987366	-1.714328	99
Es	1.284951	0.172936	1.603994	99
Es	-2.218319	-0.583578	0.736979	99
Es	-2.636769	-1.186515	0.632746	99
Es	3.059906	0.115544	0.855161	99
Es	-1.852482	-1.285381	-1.654632	99
48
Properties=species:S:1:pos:R:3:Z:I:1 energy=-289.3060198045893 field_type=dipole dipole="0.000000 0.000000 0.000000" charge=0
C	-1.368878	-0.723503	-1.592824	6
C	-1.430648	-0.089202	-0.230844	6
C	-2.218258	-0.583532	0.736896	6
C	-0.591828	1.151638	-0.014004	6
C	0.921552	0.930568	-0.124784	6
C	1.455742	-0.061522	0.907746	6
N	2.906672	-0.181632	0.786246	7
H	-1.606438	0.012868	-2.366944	1
H	-2.080568	-1.549773	-1.692204	1
H	-0.369138	-1.124952	-1.786544	1
H	-2.831028	-1.466372	0.578066	1
H	-2.277058	-0.118552	1.717486	1
H	-0.810518	1.591918	0.967736	1
H	-0.892998	1.905498	-0.752704	1
H	1.417862	1.900087	0.012316	1
H	1.176782	0.594068	-1.137214	1
H	1.007252	-1.050592	0.767836	1
H	1.210281	0.278568	1.919606	1
H	3.141342	-0.531802	-0.141874	1
H	3.239882	-0.883772	1.446006	1
Es	-1.430555	-0.089152	-0.230966	99
Es	1.284747	0.172934	1.604359	99
Es	-1.592394	-0.537672	0.377831	99
Es	0.150823	1.018266	-0.071897	99
Es	-1.368868	-0.723483	-1.592796	99
Es	3.090733	-0.624108	1.174558	99
Es	-2.636628	-1.186862	0.632954	99
Es	-0.740013	1.445173	0.662442	99
Es	2.906402	-0.182165	0.786164	99
Es	3.055958	0.110567	0.858174	99
Es	1.097645	0.690345	-0.821967	99
Es	-1.003609	0.519850	-0.125439	99
Es	-2.089621	-0.156410	0.169387	99
Es	1.455883	-0.061507	0.907707	99
Es	-1.852849	-1.285830	-1.654404	99
Es	-2.260063	-0.269878	1.406927	99
Es	-1.523581	-0.216606	-2.112154	99
Es	-0.692741	-0.987196	-1.713473	99
Es	-0.798778	1.655797	-0.524992	99
Es	-1.394311	-0.407371	-0.914253	99
Es	0.921502	0.930541	-0.124773	99
Es	-2.218324	-0.583575	0.736979	99
Es	-0.591817	1.151594	-0.014023	99
Es	1.138033	-0.739944	0.805499	99
Es	2.277837	-0.154143	0.830565	99
Es	3.048899	-0.389004	0.213144	99
Es	1.182078	0.431324	0.389709	99
Es	1.253506	1.589065	-0.026525	99
48
Properties=species:S:1:pos:R:3:Z:I:1 energy=-289.3060198045893 field_type=dipole dipole="0.000000 0.000000 0.000000" charge=0
C	-1.368878	-0.723503	-1.592824	6
C	-1.430648	-0.089202	-0.230844	6
C	-2.218258	-0.583532	0.736896	6
C	-0.591828	1.151638	-0.014004	6
C	0.921552	0.930568	-0.124784	6
C	1.455742	-0.061522	0.907746	6
N	2.906672	-0.181632	0.786246	7
H	-1.606438	0.012868	-2.366944	1
H	-2.080568	-1.549773	-1.692204	1
H	-0.369138	-1.124952	-1.786544	1
H	-2.831028	-1.466372	0.578066	1
H	-2.277058	-0.118552	1.717486	1
H	-0.810518	1.591918	0.967736	1
H	-0.892998	1.905498	-0.752704	1
H	1.417862	1.900087	0.012316	1
H	1.176782	0.594068	-1.137214	1
H	1.007252	-1.050592	0.767836	1
H	1.210281	0.278568	1.919606	1
H	3.141342	-0.531802	-0.141874	1
H	3.239882	-0.883772	1.446006	1
Es	1.138151	-0.739813	0.805261	99
Es	1.284660	0.172917	1.604687	99
Es	1.253228	1.588953	-0.026078	99
Es	0.150360	1.017955	-0.071600	99
Es	-1.003641	0.519854	-0.125708	99
Es	-2.259936	-0.269723	1.406625	99
Es	-1.393799	-0.407242	-0.914412	99
Es	-2.089580	-0.156508	0.169162	99
Es	3.053611	-0.381727	0.211811	99
Es	-2.218321	-0.583577	0.736980	99
Es	3.052034	0.104296	0.860801	99
Es	0.921502	0.930543	-0.124772	99
Es	2.906394	-0.182167	0.786148	99
Es	-0.798287	1.655856	-0.525146	99
Es	-0.591817	1.151594	-0.014023	99
Es	-0.693926	-0.986982	-1.712613	99
Es	-1.592528	-0.537700	0.378035	99
Es	-1.522576	-0.216373	-2.112966	99
Es	1.455884	-0.061507	0.907708	99
Es	-1.853145	-1.286346	-1.653960	99
Es	-1.430561	-0.089148	-0.230968	99
Es	1.097979	0.690549	-0.822377	99
Es	1.181965	0.431129	0.389831	99
Es	3.089925	-0.624618	1.173399	99
Es	-2.636736	-1.187124	0.633216	99
Es	-0.739904	1.445311	0.662532	99
Es	2.277826	-0.154365	0.829963	99
Es	-1.368868	-0.723484	-1.592796	99
48
Properties=species:S:1:pos:R:3:Z:I:1 energy=-289.3060198045893 field_type=dipole dipole="0.000000 0.000000 0.000000" charge=0
C	-1.368878	-0.723503	-1.592824	6
C	-1.430648	-0.089202	-0.230844	6
C	-2.218258	-0.583532	0.736896	6
C	-0.591828	1.151638	-0.014004	6
C	0.921552	0.930568	-0.124784	6
C	1.455742	-0.061522	0.907746	6
N	2.906672	-0.181632	0.786246	7
H	-1.606438	0.012868	-2.366944	1
H	-2.080568	-1.549773	-1.692204	1
H	-0.369138	-1.124952	-1.786544	1
H	-2.831028	-1.466372	0.578066	1
H	-2.277058	-0.118552	1.717486	1
H	-0.810518	1.591918	0.967736	1
H	-0.892998	1.905498	-0.752704	1
H	1.417862	1.900087	0.012316	1
H	1.176782	0.594068	-1.137214	1
H	1.007252	-1.050592	0.767836	1
H	1.210281	0.278568	1.919606	1
H	3.141342	-0.531802	-0.141874	1
H	3.239882	-0.883772	1.446006	1
Es	-0.739846	1.445362	0.662687	99
Es	1.181863	0.431021	0.389952	99
Es	1.098192	0.690617	-0.822767	99
Es	2.277504	-0.154965	0.829942	99
Es	0.921503	0.930545	-0.124771	99
Es	-1.521453	-0.216167	-2.113774	99
Es	-1.430553	-0.089151	-0.230967	99
Es	-2.218322	-0.583577	0.736980	99
Es	-2.089512	-0.156678	0.169134	99
Es	1.253066	1.588739	-0.025781	99
Es	-2.259934	-0.269582	1.406351	99
Es	-1.368868	-0.723484	-1.592796	99
Es	-1.853262	-1.286862	-1.653773	99
Es	-1.003523	0.519857	-0.125943	99
Es	2.906430	-0.182135	0.786187	99
Es	1.138321	-0.739600	0.805000	99
Es	-0.695155	-0.986681	-1.711640	99
Es	-2.636760	-1.187432	0.633371	99
Es	1.284496	0.172815	1.605004	99
Es	1.455885	-0.061508	0.907707	99
Es	3.089103	-0.624666	1.171382	99
Es	3.049055	0.098611	0.862997	99
Es	-1.393594	-0.407232	-0.914520	99
Es	3.057709	-0.375151	0.211148	99
Es	-0.797871	1.655961	-0.525431	99
Es	0.149795	1.017828	-0.071097	99
Es	-1.592559	-0.537528	0.378182	99
Es	-0.591817	1.151594	-0.014022	99
48
Properties=species:S:1:pos:R:3:Z:I:1 energy=-289.3060198045893 field_type=dipole dipole="0.000000 0.000000 0.000000" charge=0
C	-1.368878	-0.723503	-1.592824	6
C	-1.430648	-0.089202	-0.230844	6
C	-2.218258	-0.583532	0.736896	6
C	-0.591828	1.151638	-0.014004	6
C	0.921552	0.930568	-0.124784	6
C	1.455742	-0.061522	0.907746	6
N	2.906672	-0.181632	0.786246	7
H	-1.606438	0.012868	-2.366944	1
H	-2.080568	-1.549773	-1.692204	1
H	-0.369138	-1.124952	-1.786544	1
H	-2.831028	-1.466372	0.578066	1
H	-2.277058	-0.118552	1.717486	1
H	-0.810518	1.591918	0.967736	1
H	-0.892998	1.905498	-0.752704	1
H	1.417862	1.900087	0.012316	1
H	1.176782	0.594068	-1.137214	1
H	1.007252	-1.050592	0.767836	1
H	1.210281	0.278568	1.919606	1
H	3.141342	-0.531802	-0.141874	1
H	3.239882	-0.883772	1.446006	1
Es	2.277293	-0.154839	0.829859	99
Es	-0.739888	1.445496	0.662916	99
Es	-2.089458	-0.156926	0.169138	99
Es	1.455883	-0.061507	0.907708	99
Es	1.252871	1.588648	-0.025440	99
Es	1.181827	0.430938	0.390195	99
Es	1.098472	0.690606	-0.823121	99
Es	-0.696586	-0.986584	-1.710491	99
Es	-1.368868	-0.723483	-1.592796	99
Es	-1.592478	-0.537346	0.378339	99
Es	-1.853722	-1.287215	-1.653356	99
Es	-0.591818	1.151595	-0.014021	99
Es	-2.218322	-0.583577	0.736980	99
Es	1.138351	-0.739598	0.804725	99
Es	-0.797157	1.656051	-0.525825	99
Es	3.088544	-0.624753	1.170055	99
Es	-2.636856	-1.187704	0.633561	99
Es	1.284360	0.172897	1.605193	99
Es	-2.259961	-0.269310	1.406043	99
Es	-1.003422	0.519881	-0.126411	99
Es	0.921502	0.930541	-0.124774	99
Es	-1.519934	-0.215910	-2.114679	99
Es	0.149074	1.017430	-0.070472	99
Es	3.046033	0.092297	0.864101	99
Es	3.061510	-0.368549	0.210983	99
Es	-1.430556	-0.089153	-0.230964	99
Es	-1.393224	-0.407296	-0.914873	99
Es	2.906425	-0.182079	0.786167	99
48
Properties=species:S:1:pos:R:3:Z:I:1 energy=-289.3060198045893 field_type=dipole dipole="0.000000 0.000000 0.000000" charge=0
C	-1.368878	-0.723503	-1.592824	6
C	-1.430648	-0.089202	-0.230844	6
C	-2.218258	-0.583532	0.736896	6
C	-0.591828	1.151638	-0.014004	6
C	0.921552	0.930568	-0.124784	6
C	1.455742	-0.061522	0.907746	6
N	2.906672	-0.181632	0.786246	7
H	-1.606438	0.012868	-2.366944	1
H	-2.080568	-1.549773	-1.692204	1
H	-0.369138	-1.124952	-1.786544	1
H	-2.831028	-1.466372	0.578066	1
H	-2.277058	-0.118552	1.717486	1
H	-0.810518	1.591918	0.967736	1
H	-0.892998	1.905498	-0.752704	1
H	1.417862	1.900087	0.012316	1
H	1.176782	0.594068	-1.137214	1
H	1.007252	-1.050592	0.767836	1
H	1.210281	0.278568	1.919606	1
H	3.141342	-0.531802	-0.141874	1
H	3.239882	-0.883772	1.446006	1
Es	-2.260032	-0.269002	1.405725	99
Es	0.921503	0.930545	-0.124775	99
Es	0.148518	1.017295	-0.070144	99
Es	-0.698122	-0.986382	-1.709584	99
Es	-1.430559	-0.089148	-0.230965	99
Es	3.087768	-0.624961	1.169382	99
Es	-1.368868	-0.723484	-1.592796	99
Es	-1.592471	-0.537252	0.378509	99
Es	2.906426	-0.182091	0.786170	99
Es	1.098864	0.690687	-0.823405	99
Es	1.284170	0.172753	1.605474	99
Es	1.455883	-0.061507	0.907708	99
Es	-0.739845	1.445640	0.662996	99
Es	-1.518569	-0.215944	-2.115633	99
Es	-2.636925	-1.187912	0.633799	99
Es	1.181608	0.430683	0.390622	99
Es	-0.796797	1.656035	-0.526038	99
Es	-1.853873	-1.287546	-1.653007	99
Es	-2.089297	-0.157229	0.169059	99
Es	3.043170	0.086986	0.864662	99
Es	-2.218322	-0.583577	0.736980	99
Es	-0.591821	1.151592	-0.014023	99
Es	-1.003231	0.519790	-0.126677	99
Es	2.277538	-0.154606	0.828910	99
Es	1.252656	1.588514	-0.025057	99
Es	3.064976	-0.362718	0.211304	99
Es	-1.392967	-0.407212	-0.914876	99
Es	1.138511	-0.739396	0.804421	99
48
Properties=species:S:1:pos:R:3:Z:I:1 energy=-289.3060198045893 field_type=dipole dipole="0.000000 0.000000 0.000000" charge=0
C	-1.368878	-0.723503	-1.592824	6
C	-1.430648	-0.089202	-0.230844	6
C	-2.218258	-0.583532	0.736896	6
C	-0.591828	1.151638	-0.014004	6
C	0.921552	0.930568	-0.124784	6
C	1.455742	-0.061522	0.907746	6
N	2.906672	-0.181632	0.786246	7
H	-1.606438	0.012868	-2.366944	1
H	-2.080568	-1.549773	-1.692204	1
H	-0.369138	-1.124952	-1.786544	1
H	-2.831028	-1.466372	0.578066	1
H	-2.277058	-0.118552	1.717486	1
H	-0.810518	1.591918	0.967736	1
H	-0.892998	1.905498	-0.752704	1
H	1.417862	1.900087	0.012316	1
H	1.176782	0.594068	-1.137214	1
H	1.007252	-1.050592	0.767836	1
H	1.210281	0.278568	1.919606	1
H	3.141342	-0.531802	-0.141874	1
H	3.239882	-0.883772	1.446006	1
Es	2.906422	-0.182123	0.786183	99
Es	-0.699832	-0.986157	-1.708380	99
Es	-2.089588	-0.157454	0.169183	99
Es	3.087458	-0.625063	1.168616	99
Es	1.138468	-0.739267	0.804230	99
Es	1.099070	0.690925	-0.823788	99
Es	1.252435	1.588203	-0.024772	99
Es	-0.739931	1.445710	0.663145	99
Es	-0.591817	1.151592	-0.014022	99
Es	0.921502	0.930543	-0.124775	99
Es	0.147648	1.016766	-0.069088	99
Es	-1.368868	-0.723484	-1.592796	99
Es	-1.516837	-0.215993	-2.116712	99
Es	-1.392592	-0.407169	-0.915204	99
Es	2.277549	-0.154399	0.828477	99
Es	3.067440	-0.357890	0.211722	99
Es	-1.430556	-0.089154	-0.230966	99
Es	-2.218321	-0.583577	0.736981	99
Es	1.181863	0.430570	0.390743	99
Es	1.455879	-0.061505	0.907707	99
Es	-1.854092	-1.287867	-1.652609	99
Es	1.284084	0.172783	1.605615	99
Es	-2.260000	-0.268884	1.405560	99
Es	-0.796037	1.656182	-0.526395	99
Es	-1.592443	-0.536835	0.378326	99
Es	-2.636847	-1.188176	0.633951	99
Es	3.041049	0.082469	0.864746	99
Es	-1.003216	0.519804	-0.126938	99
48
Properties=species:S:1:pos:R:3:Z:I:1 energy=-289.3060198045893 field_type=dipole dipole="0.000000 0.000000 0.000000" charge=0
C	-1.368878	-0.723503	-1.592824	6
C	-1.430648	-0.089202	-0.230844	6
C	-2.218258	-0.583532	0.736896	6
C	-0.591828	1.151638	-0.014004	6
C	0.921552	0.930568	-0.124784	6
C	1.455742	-0.061522	0.907746	6
N	2.906672	-0.181632	0.786246	7
H	-1.606438	0.012868	-2.366944	1
H	-2.080568	-1.549773	-1.692204	1
H	-0.369138	-1.124952	-1.786544	1
H	-2.831028	-1.466372	0.578066	1
H	-2.277058	-0.118552	1.717486	1
H	-0.810518	1.591918	0.967736	1
H	-0.892998	1.905498	-0.752704	1
H	1.417862	1.900087	0.012316	1
H	1.176782	0.594068	-1.137214	1
H	1.007252	-1.050592	0.767836	1
H	1.210281	0.278568	1.919606	1
H	3.141342	-0.531802	-0.141874	1
H	3.239882	-0.883772	1.446006	1
Es	-1.854285	-1.288011	-1.652506	99
Es	0.921503	0.930545	-0.124776	99
Es	-2.218324	-0.583575	0.736980	99
Es	2.906406	-0.182145	0.786170	99
Es	1.455880	-0.061506	0.907707	99
Es	-0.701397	-0.985994	-1.707614	99
Es	-1.430556	-0.089149	-0.230964	99
Es	3.039343	0.076987	0.864682	99
Es	1.182045	0.430319	0.390904	99
Es	1.252344	1.588160	-0.024609	99
Es	-2.259995	-0.268698	1.405349	99
Es	-1.515348	-0.215924	-2.117410	99
Es	-0.739909	1.445791	0.663178	99
Es	-1.392311	-0.407279	-0.915282	99
Es	3.086992	-0.625002	1.167286	99
Es	0.146646	1.016167	-0.068060	99
Es	-0.795380	1.656370	-0.526914	99
Es	-1.368867	-0.723485	-1.592795	99
Es	3.070003	-0.352785	0.212366	99
Es	-2.089080	-0.157481	0.168718	99
Es	-0.591817	1.151592	-0.014021	99
Es	-1.592855	-0.536905	0.378860	99
Es	2.277170	-0.153411	0.828463	99
Es	-1.003183	0.519764	-0.126993	99
Es	1.138583	-0.739206	0.804077	99
Es	1.099223	0.690929	-0.823948	99
Es	1.283905	0.172855	1.605752	99
Es	-2.636844	-1.188373	0.634140	99
48
Properties=species:S:1:pos:R:3:Z:I:1 energy=-289.3060198045893 field_type=dipole dipole="0.000000 0.000000 0.000000" charge=0
C	-1.368878	-0.723503	-1.592824	6
C	-1.430648	-0.089202	-0.230844	6
C	-2.218258	-0.583532	0.736896	6
C	-0.591828	1.151638	-0.014004	6
C	0.921552	0.930568	-0.124784	6
C	1.455742	-0.061522	0.907746	6
N	2.906672	-0.181632	0.786246	7
H	-1.606438	0.012868	-2.366944	1
H	-2.080568	-1.549773	-1.692204	1
H	-0.369138	-1.124952	-1.786544	1
H	-2.831028	-1.466372	0.578066	1
H	-2.277058	-0.118552	1.717486	1
H	-0.810518	1.591918	0.967736	1
H	-0.892998	1.905498	-0.752704	1
H	1.417862	1.900087	0.012316	1
H	1.176782	0.594068	-1.137214	1
H	1.007252	-1.050592	0.767836	1
H	1.210281	0.278568	1.919606	1
H	3.141342	-0.531802	-0.141874	1
H	3.239882	-0.883772	1.446006	1
Es	0.145524	1.015502	-0.066951	99
Es	2.277468	-0.152329	0.827146	99
Es	-1.592442	-0.536780	0.378631	99
Es	-2.260201	-0.268726	1.405357	99
Es	1.182287	0.430123	0.391154	99
Es	-1.854469	-1.288156	-1.651931	99
Es	-1.430564	-0.089146	-0.230967	99
Es	-2.218324	-0.583576	0.736979	99
Es	-1.002925	0.519878	-0.127394	99
Es	-0.740184	1.445565	0.663437	99
Es	1.252126	1.587888	-0.024362	99
Es	-1.368867	-0.723483	-1.592796	99
Es	-1.513447	-0.216014	-2.118566	99
Es	-2.089461	-0.157624	0.168978	99
Es	3.085934	-0.625606	1.166884	99
Es	-0.794522	1.656672	-0.527342	99
Es	2.906417	-0.182193	0.786186	99
Es	1.138690	-0.738968	0.803802	99
Es	-0.703271	-0.985773	-1.706373	99
Es	1.283666	0.172705	1.605931	99
Es	3.071825	-0.349649	0.213015	99
Es	-2.636771	-1.188300	0.634055	99
Es	-0.591817	1.151594	-0.014020	99
Es	-1.392040	-0.407309	-0.915801	99
Es	3.038294	0.074055	0.864881	99
Es	1.455883	-0.061508	0.907708	99
Es	1.099585	0.691163	-0.824129	99
Es	0.921502	0.930545	-0.124775	99
48
Properties=species:S:1:pos:R:3:Z:I:1 energy=-289.3060198045893 field_type=dipole dipole="0.000000 0.000000 0.000000" charge=0
C	-1.368878	-0.723503	-1.592824	6
C	-1.430648	-0.089202	-0.230844	6
C	-2.218258	-0.583532	0.736896	6
C	-0.591828	1.151638	-0.014004	6
C	0.921552	0.930568	-0.124784	6
C	1.455742	-0.061522	0.907746	6
N	2.906672	-0.181632	0.786246	7
H	-1.606438	0.012868	-2.366944	1
H	-2.080568	-1.549773	-1.692204	1
H	-0.369138	-1.124952	-1.786544	1
H	-2.831028	-1.466372	0.578066	1
H	-2.277058	-0.118552	1.717486	1
H	-0.810518	1.591918	0.967736	1
H	-0.892998	1.905498	-0.752704	1
H	1.417862	1.900087	0.012316	1
H	1.176782	0.594068	-1.137214	1
H	1.007252	-1.050592	0.767836	1
H	1.210281	0.278568	1.919606	1
H	3.141342	-0.531802	-0.141874	1
H	3.239882	-0.883772	1.446006	1
Es	0.921502	0.930543	-0.124774	99
Es	-0.740147	1.445812	0.663405	99
Es	0.144229	1.014990	-0.065846	99
Es	1.099839	0.691257	-0.824378	99
Es	1.182377	0.429877	0.391505	99
Es	-1.392028	-0.407362	-0.915768	99
Es	-1.368868	-0.723484	-1.592796	99
Es	3.086105	-0.624987	1.166125	99
Es	-1.854552	-1.288304	-1.651727	99
Es	2.906484	-0.182099	0.786229	99
Es	1.138742	-0.738891	0.803726	99
Es	-0.591817	1.151592	-0.014021	99
Es	-2.218319	-0.583579	0.736983	99
Es	2.276964	-0.152023	0.827154	99
Es	3.073836	-0.345774	0.213776	99
Es	-2.260077	-0.268436	1.404994	99
Es	-1.512279	-0.216237	-2.119147	99
Es	1.455882	-0.061507	0.907709	99
Es	3.036478	0.069689	0.864079	99
Es	-1.002902	0.519851	-0.127594	99
Es	1.283606	0.172756	1.606039	99
Es	-0.704364	-0.985539	-1.705716	99
Es	-2.636839	-1.188578	0.634440	99
Es	1.251897	1.587634	-0.024173	99
Es	-1.592620	-0.536591	0.378901	99
Es	-0.793339	1.656860	-0.528138	99
Es	-2.089340	-0.157767	0.168719	99
Es	-1.430558	-0.089151	-0.230965	99
48
Properties=species:S:1:pos:R:3:Z:I:1 energy=-289.3060198045893 field_type=dipole dipole="0.000000 0.000000 0.000000" charge=0
C	-1.368878	-0.723503	-1.592824	6
C	-1.430648	-0.089202	-0.230844	6
C	-2.218258	-0.583532	0.736896	6
C	-0.591828	1.151638	-0.014004	6
C	0.921552	0.930568	-0.124784	6
C	1.455742	-0.061522	0.907746	6
N	2.906672	-0.181632	0.786246	7
H	-1.606438	0.012868	-2.366944	1
H	-2.080568	-1.549773	-1.692204	1
H	-0.369138	-1.124952	-1.786544	1
H	-2.831028	-1.466372	0.578066	1
H	-2.277058	-0.118552	1.717486	1
H	-0.810518	1.591918	0.967736	1
H	-0.892998	1.905498	-0.752704	1
H	1.417862	1.900087	0.012316	1
H	1.176782	0.594068	-1.137214	1
H	1.007252	-1.050592	0.767836	1
H	1.210281	0.278568	1.919606	1
H	3.141342	-0.531802	-0.141874	1
H	3.239882	-0.883772	1.446006	1
Es	-1.368865	-0.723484	-1.592796	99
Es	-0.591815	1.151591	-0.014021	99
Es	-1.854637	-1.288365	-1.651666	99
Es	-2.218323	-0.583576	0.736980	99
Es	1.251980	1.587565	-0.024166	99
Es	1.099808	0.691208	-0.824455	99
Es	-0.792667	1.657100	-0.528531	99
Es	1.283576	0.172780	1.605992	99
Es	1.455881	-0.061507	0.907708	99
Es	0.921500	0.930546	-0.124776	99
Es	1.138734	-0.738868	0.803755	99
Es	0.143477	1.014587	-0.065113	99
Es	3.035868	0.066813	0.863861	99
Es	-2.636709	-1.188650	0.634482	99
Es	-2.260227	-0.268314	1.404942	99
Es	-1.002886	0.519912	-0.127672	99
Es	2.906415	-0.182187	0.786183	99
Es	3.086144	-0.624616	1.164966	99
Es	-1.430557	-0.089150	-0.230964	99
Es	-0.705848	-0.985285	-1.704859	99
Es	-0.740186	1.445688	0.663516	99
Es	-1.510695	-0.216264	-2.119801	99
Es	-1.592532	-0.536571	0.379005	99
Es	-2.089392	-0.157836	0.168664	99
Es	2.276417	-0.151604	0.827503	99
Es	3.074952	-0.343166	0.214270	99
Es	-1.391968	-0.407475	-0.915990	99
Es	1.182449	0.429679	0.391720	99
48
Properties=species:S:1:pos:R:3:Z:I:1 energy=-289.3060198045893 field_type=dipole dipole="0.000000 0.000000 0.000000" charge=0
C	-1.368878	-0.723503	-1.592824	6
C	-1.430648	-0.089202	-0.230844	6
C	-2.218258	-0.583532	0.736896	6
C	-0.591828	1.151638	-0.014004	6
C	0.921552	0.930568	-0.124784	6
C	1.455742	-0.061522	0.907746	6
N	2.906672	-0.181632	0.786246	7
H	-1.606438	0.012868	-2.366944	1
H	-2.080568	-1.549773	-1.692204	1
H	-0.369138	-1.124952	-1.786544	1
H	-2.831028	-1.466372	0.578066	1
H	-2.277058	-0.118552	1.717486	1
H	-0.810518	1.591918	0.967736	1
H	-0.892998	1.905498	-0.752704	1
H	1.417862	1.900087	0.012316	1
H	1.176782	0.594068	-1.137214	1
H	1.007252	-1.050592	0.767836	1
H	1.210281	0.278568	1.919606	1
H	3.141342	-0.531802	-0.141874	1
H	3.239882	-0.883772	1.446006	1
Es	3.076435	-0.340246	0.215058	99
Es	0.141071	1.013121	-0.062572	99
Es	2.906403	-0.182138	0.786167	99
Es	1.283438	0.172753	1.606076	99
Es	-1.430557	-0.089151	-0.230964	99
Es	-1.002856	0.519898	-0.127766	99
Es	-2.218319	-0.583578	0.736981	99
Es	-2.636750	-1.188693	0.634536	99
Es	-0.790631	1.657436	-0.529577	99
Es	1.099986	0.691413	-0.824583	99
Es	1.183059	0.430109	0.391023	99
Es	1.455881	-0.061506	0.907709	99
Es	2.276630	-0.150167	0.826181	99
Es	-1.510340	-0.216481	-2.120046	99
Es	-1.854751	-1.288401	-1.651290	99
Es	-0.591817	1.151592	-0.014020	99
Es	-2.260254	-0.268288	1.404822	99
Es	0.921502	0.930545	-0.124776	99
Es	1.251789	1.587338	-0.024055	99
Es	-1.592437	-0.536537	0.378998	99
Es	-1.391782	-0.407281	-0.916215	99
Es	-2.089440	-0.157881	0.168714	99
Es	-0.740357	1.445793	0.663500	99
Es	3.085547	-0.625381	1.165363	99
Es	-1.368864	-0.723484	-1.592796	99
Es	1.138819	-0.738763	0.803664	99
Es	-0.706227	-0.985214	-1.704694	99
Es	3.034717	0.063745	0.863301	99
48
Properties=species:S:1:pos:R:3:Z:I:1 energy=-289.3060198045893 field_type=dipole dipole="0.000000 0.000000 0.000000" charge=0
C	-1.368878	-0.723503	-1.592824	6
C	-1.430648	-0.089202	-0.230844	6
C	-2.218258	-0.583532	0.736896	6
C	-0.591828	1.151638	-0.014004	6
C	0.921552	0.930568	-0.124784	6
C	1.455742	-0.061522	0.907746	6
N	2.906672	-0.181632	0.786246	7
H	-1.606438	0.012868	-2.366944	1
H	-2.080568	-1.549773	-1.692204	1
H	-0.369138	-1.124952	-1.786544	1
H	-2.831028	-1.466372	0.578066	1
H	-2.277058	-0.118552	1.717486	1
H	-0.810518	1.591918	0.967736	1
H	-0.892998	1.905498	-0.752704	1
H	1.417862	1.900087	0.012316	1
H	1.176782	0.594068	-1.137214	1
H	1.007252	-1.050592	0.767836	1
H	1.210281	0.278568	1.919606	1
H	3.141342	-0.531802	-0.141874	1
H	3.239882	-0.883772	1.446006	1
Es	-0.591816	1.151591	-0.014021	99
Es	1.455884	-0.061508	0.907709	99
Es	1.100120	0.691422	-0.824576	99
Es	-0.706702	-0.985143	-1.704362	99
Es	2.906377	-0.182187	0.786156	99
Es	1.183108	0.430135	0.391008	99
Es	1.138884	-0.738732	0.803622	99
Es	-0.740352	1.445735	0.663495	99
Es	-2.260298	-0.268206	1.404779	99
Es	3.077750	-0.337542	0.215715	99
Es	1.251746	1.587302	-0.024021	99
Es	-1.854737	-1.288385	-1.651206	99
Es	-1.002833	0.519852	-0.127880	99
Es	-0.789229	1.657739	-0.530259	99
Es	3.085869	-0.624486	1.164330	99
Es	-2.636718	-1.188663	0.634629	99
Es	2.276055	-0.150686	0.826850	99
Es	-1.509807	-0.216479	-2.120307	99
Es	0.139499	1.012751	-0.061659	99
Es	1.283388	0.172730	1.606109	99
Es	-2.089780	-0.158251	0.169156	99
Es	-1.368867	-0.723484	-1.592796	99
Es	-1.430554	-0.089152	-0.230962	99
Es	-1.391839	-0.407428	-0.916295	99
Es	-2.218322	-0.583577	0.736980	99
Es	-1.591976	-0.536297	0.378589	99
Es	3.033543	0.060953	0.862731	99
Es	0.921502	0.930545	-0.124776	99
48
Properties=species:S:1:pos:R:3:Z:I:1 energy=-289.3060198045893 field_type=dipole dipole="0.000000 0.000000 0.000000" charge=0
C	-1.368878	-0.723503	-1.592824	6
C	-1.430648	-0.089202	-0.230844	6
C	-2.218258	-0.583532	0.736896	6
C	-0.591828	1.151638	-0.014004	6
C	0.921552	0.930568	-0.124784	6
C	1.455742	-0.061522	0.907746	6
N	2.906672	-0.181632	0.786246	7
H	-1.606438	0.012868	-2.366944	1
H	-2.080568	-1.549773	-1.692204	1
H	-0.369138	-1.124952	-1.786544	1
H	-2.831028	-1.466372	0.578066	1
H	-2.277058	-0.118552	1.717486	1
H	-0.810518	1.591918	0.967736	1
H	-0.892998	1.905498	-0.752704	1
H	1.417862	1.900087	0.012316	1
H	1.176782	0.594068	-1.137214	1
H	1.007252	-1.050592	0.767836	1
H	1.210281	0.278568	1.919606	1
H	3.141342	-0.531802	-0.141874	1
H	3.239882	-0.883772	1.446006	1
Es	1.100369	0.691698	-0.824763	99
Es	-1.391670	-0.407520	-0.916515	99
Es	-0.790518	1.657452	-0.529643	99
Es	3.033218	0.058780	0.862554	99
Es	1.183426	0.427867	0.393654	99
Es	-1.508785	-0.216589	-2.120709	99
Es	-2.636903	-1.188747	0.634691	99
Es	3.083762	-0.626968	1.165950	99
Es	-2.260276	-0.268120	1.404575	99
Es	-1.592538	-0.536528	0.379235	99
Es	-0.740427	1.445701	0.663632	99
Es	1.251549	1.586980	-0.023811	99
Es	-0.707749	-0.984879	-1.703896	99
Es	-2.089205	-0.157899	0.168608	99
Es	0.140912	1.013308	-0.062710	99
Es	2.277159	-0.146043	0.822568	99
Es	0.921504	0.930544	-0.124774	99
Es	3.078640	-0.335690	0.216244	99
Es	1.138944	-0.738523	0.803498	99
Es	-1.368868	-0.723483	-1.592796	99
Es	2.906379	-0.182177	0.786157	99
Es	-2.218323	-0.583576	0.736980	99
Es	1.283245	0.172644	1.606214	99
Es	-1.854854	-1.288504	-1.650944	99
Es	-0.591816	1.151591	-0.014021	99
Es	1.455879	-0.061507	0.907707	99
Es	-1.002605	0.519889	-0.127980	99
Es	-1.430557	-0.089151	-0.230963	99
