39
Properties=species:S:1:pos:R:3:Z:I:1 energy=-285.7853144220794 field_type=dipole dipole="0.000000 0.000000 0.000000" charge=0
C	-1.544652	-0.600120	0.293119	6
C	-0.093882	-0.545270	-0.122621	6
C	0.483758	-1.659350	-0.610921	6
C	0.625728	0.734690	0.004179	6
C	0.155278	1.775390	0.717399	6
C	1.878819	0.914700	-0.676151	6
N	2.892138	1.072050	-1.221901	7
H	-2.127412	0.168150	-0.227271	1
H	-1.646342	-0.454500	1.373829	1
H	-2.005261	-1.565390	0.053449	1
H	-0.070312	-2.590070	-0.700991	1
H	1.521139	-1.702830	-0.931091	1
H	-0.778412	1.743140	1.266959	1
H	0.709409	2.709410	0.782009	1
Es	1.878510	0.914648	-0.675988	99
Es	-1.603133	-0.494023	1.021448	99
Es	0.284049	0.107161	-0.064360	99
Es	0.625895	0.734618	0.004054	99
Es	-0.093921	-0.545113	-0.122564	99
Es	0.114526	-0.996312	-0.663453	99
Es	1.180632	-1.686060	-0.825566	99
Es	2.283603	0.970598	-1.240981	99
Es	-0.470871	1.749687	1.082565	99
Es	0.483791	-1.659417	-0.610946	99
Es	1.286529	0.813645	-0.356591	99
Es	0.296445	-1.157102	-0.062363	99
Es	0.264238	1.332498	0.073166	99
Es	0.568523	1.111212	0.587613	99
Es	-1.927810	-0.075584	-0.056960	99
Es	-1.544593	-0.600109	0.293109	99
Es	2.891739	1.071988	-1.221686	99
Es	-0.811171	-0.557635	0.089852	99
Es	2.454998	1.280623	-0.841120	99
Es	0.155262	1.775430	0.717436	99
Es	-1.844175	-1.255738	0.128835	99
Es	2.539159	0.752738	-0.827503	99
Es	0.524611	2.399342	0.761608	99
Es	0.107794	-2.287982	-0.670617	99
Es	3.212181	1.121881	-1.394272	99
39
Properties=species:S:1:pos:R:3:Z:I:1 energy=-285.7853144220794 field_type=dipole dipole="0.000000 0.000000 0.000000" charge=0
C	-1.544652	-0.600120	0.293119	6
C	-0.093882	-0.545270	-0.122621	6
C	0.483758	-1.659350	-0.610921	6
C	0.625728	0.734690	0.004179	6
C	0.155278	1.775390	0.717399	6
C	1.878819	0.914700	-0.676151	6
N	2.892138	1.072050	-1.221901	7
H	-2.127412	0.168150	-0.227271	1
H	-1.646342	-0.454500	1.373829	1
H	-2.005261	-1.565390	0.053449	1
H	-0.070312	-2.590070	-0.700991	1
H	1.521139	-1.702830	-0.931091	1
H	-0.778412	1.743140	1.266959	1
H	0.709409	2.709410	0.782009	1
Es	0.524084	2.398476	0.759674	99
Es	2.303362	1.069835	-1.175720	99
Es	-1.845918	-1.256081	0.128715	99
Es	-0.472881	1.750525	1.082571	99
Es	2.891744	1.071989	-1.221688	99
Es	0.264619	1.332316	0.075498	99
Es	-0.810069	-0.557193	0.091182	99
Es	0.155254	1.775437	0.717429	99
Es	0.296062	-1.156142	-0.063637	99
Es	-1.604153	-0.492299	1.020850	99
Es	0.114427	-0.998062	-0.661298	99
Es	2.496240	1.250246	-0.777594	99
Es	-1.926394	-0.077851	-0.055084	99
Es	0.285398	0.106387	-0.061872	99
Es	-0.093921	-0.545110	-0.122564	99
Es	0.483790	-1.659416	-0.610951	99
Es	2.478709	0.692115	-0.949979	99
Es	1.878495	0.914666	-0.675984	99
Es	1.181437	-1.685404	-0.828807	99
Es	3.211888	1.106089	-1.401989	99
Es	1.288003	0.820825	-0.355046	99
Es	-1.544592	-0.600106	0.293111	99
Es	0.568213	1.111566	0.585534	99
Es	0.625905	0.734613	0.004067	99
Es	0.107108	-2.286428	-0.671701	99
39
Properties=species:S:1:pos:R:3:Z:I:1 energy=-285.7853144220794 field_type=dipole dipole="0.000000 0.000000 0.000000" charge=0
C	-1.544652	-0.600120	0.293119	6
C	-0.093882	-0.545270	-0.122621	6
C	0.483758	-1.659350	-0.610921	6
C	0.625728	0.734690	0.004179	6
C	0.155278	1.775390	0.717399	6
C	1.878819	0.914700	-0.676151	6
N	2.892138	1.072050	-1.221901	7
H	-2.127412	0.168150	-0.227271	1
H	-1.646342	-0.454500	1.373829	1
H	-2.005261	-1.565390	0.053449	1
H	-0.070312	-2.590070	-0.700991	1
H	1.521139	-1.702830	-0.931091	1
H	-0.778412	1.743140	1.266959	1
H	0.709409	2.709410	0.782009	1
Es	2.393395	1.326102	-0.942810	99
Es	0.523579	2.397151	0.758578	99
Es	1.290107	0.824479	-0.352934	99
Es	-0.809678	-0.556834	0.091808	99
Es	0.286038	0.105907	-0.060360	99
Es	2.891741	1.071988	-1.221687	99
Es	0.483793	-1.659422	-0.610945	99
Es	-0.473741	1.751733	1.082881	99
Es	0.569049	1.111158	0.584819	99
Es	0.106810	-2.284803	-0.672136	99
Es	-0.093918	-0.545109	-0.122554	99
Es	0.295781	-1.155848	-0.063836	99
Es	0.625894	0.734617	0.004050	99
Es	-1.924827	-0.079905	-0.054563	99
Es	0.155254	1.775437	0.717430	99
Es	0.114467	-0.998511	-0.661179	99
Es	1.181792	-1.685912	-0.830423	99
Es	-1.846709	-1.255707	0.128348	99
Es	1.878502	0.914666	-0.675975	99
Es	-1.605357	-0.490774	1.021411	99
Es	2.493766	0.972607	-0.859231	99
Es	2.388827	0.721338	-1.103847	99
Es	0.264150	1.333007	0.076353	99
Es	-1.544591	-0.600107	0.293112	99
Es	3.212685	1.093736	-1.401594	99
39
Properties=species:S:1:pos:R:3:Z:I:1 energy=-285.7853144220794 field_type=dipole dipole="0.000000 0.000000 0.000000" charge=0
C	-1.544652	-0.600120	0.293119	6
C	-0.093882	-0.545270	-0.122621	6
C	0.483758	-1.659350	-0.610921	6
C	0.625728	0.734690	0.004179	6
C	0.155278	1.775390	0.717399	6
C	1.878819	0.914700	-0.676151	6
N	2.892138	1.072050	-1.221901	7
H	-2.127412	0.168150	-0.227271	1
H	-1.646342	-0.454500	1.373829	1
H	-2.005261	-1.565390	0.053449	1
H	-0.070312	-2.590070	-0.700991	1
H	1.521139	-1.702830	-0.931091	1
H	-0.778412	1.743140	1.266959	1
H	0.709409	2.709410	0.782009	1
Es	-0.474349	1.752786	1.082983	99
Es	2.431103	1.002317	-0.968996	99
Es	0.569426	1.110803	0.583367	99
Es	0.625911	0.734612	0.004070	99
Es	-1.847277	-1.255709	0.128452	99
Es	1.291078	0.827982	-0.352888	99
Es	0.523451	2.396248	0.757608	99
Es	-0.809339	-0.556059	0.091976	99
Es	2.419152	0.703933	-1.048222	99
Es	0.106580	-2.283625	-0.671999	99
Es	-0.093918	-0.545111	-0.122552	99
Es	0.295723	-1.155671	-0.063881	99
Es	-1.922324	-0.083577	-0.054649	99
Es	-1.544593	-0.600108	0.293112	99
Es	0.263570	1.333640	0.077512	99
Es	1.182046	-1.686574	-0.831410	99
Es	0.483790	-1.659422	-0.610952	99
Es	2.427719	1.318449	-0.885789	99
Es	0.155255	1.775437	0.717431	99
Es	-1.607659	-0.487355	1.021838	99
Es	0.286659	0.105418	-0.059471	99
Es	3.210088	1.084889	-1.404308	99
Es	1.878494	0.914683	-0.675981	99
Es	2.891762	1.071996	-1.221698	99
Es	0.114461	-0.998990	-0.660836	99
39
Properties=species:S:1:pos:R:3:Z:I:1 energy=-285.7853144220794 field_type=dipole dipole="0.000000 0.000000 0.000000" charge=0
C	-1.544652	-0.600120	0.293119	6
C	-0.093882	-0.545270	-0.122621	6
C	0.483758	-1.659350	-0.610921	6
C	0.625728	0.734690	0.004179	6
C	0.155278	1.775390	0.717399	6
C	1.878819	0.914700	-0.676151	6
N	2.892138	1.072050	-1.221901	7
H	-2.127412	0.168150	-0.227271	1
H	-1.646342	-0.454500	1.373829	1
H	-2.005261	-1.565390	0.053449	1
H	-0.070312	-2.590070	-0.700991	1
H	1.521139	-1.702830	-0.931091	1
H	-0.778412	1.743140	1.266959	1
H	0.709409	2.709410	0.782009	1
Es	0.106356	-2.282972	-0.671719	99
Es	-1.847682	-1.256150	0.128596	99
Es	0.570186	1.109206	0.576380	99
Es	-1.544594	-0.600108	0.293112	99
Es	2.421856	0.706525	-1.041873	99
Es	0.483792	-1.659421	-0.610948	99
Es	2.429372	1.003001	-0.972019	99
Es	0.262861	1.335411	0.084444	99
Es	2.428042	1.319335	-0.888055	99
Es	0.625901	0.734617	0.004057	99
Es	2.891794	1.071999	-1.221724	99
Es	0.155253	1.775437	0.717429	99
Es	3.207742	1.077634	-1.405592	99
Es	0.114474	-0.999636	-0.660287	99
Es	-0.474843	1.753458	1.082783	99
Es	-1.613693	-0.478510	1.021194	99
Es	1.292416	0.830684	-0.352245	99
Es	1.182193	-1.687010	-0.832044	99
Es	1.878501	0.914673	-0.675971	99
Es	0.523181	2.395886	0.756567	99
Es	0.287097	0.105098	-0.058764	99
Es	-0.809137	-0.555382	0.092234	99
Es	0.295693	-1.155174	-0.064305	99
Es	-0.093916	-0.545111	-0.122556	99
Es	-1.916034	-0.092496	-0.053977	99
39
Properties=species:S:1:pos:R:3:Z:I:1 energy=-285.7853144220794 field_type=dipole dipole="0.000000 0.000000 0.000000" charge=0
C	-1.544652	-0.600120	0.293119	6
C	-0.093882	-0.545270	-0.122621	6
C	0.483758	-1.659350	-0.610921	6
C	0.625728	0.734690	0.004179	6
C	0.155278	1.775390	0.717399	6
C	1.878819	0.914700	-0.676151	6
N	2.892138	1.072050	-1.221901	7
H	-2.127412	0.168150	-0.227271	1
H	-1.646342	-0.454500	1.373829	1
H	-2.005261	-1.565390	0.053449	1
H	-0.070312	-2.590070	-0.700991	1
H	1.521139	-1.702830	-0.931091	1
H	-0.778412	1.743140	1.266959	1
H	0.709409	2.709410	0.782009	1
Es	-0.809136	-0.554812	0.092505	99
Es	2.430699	1.002400	-0.969883	99
Es	-1.907263	-0.104769	-0.049846	99
Es	2.891738	1.071988	-1.221685	99
Es	0.295999	-1.155403	-0.063861	99
Es	0.625895	0.734606	0.004070	99
Es	2.423953	0.709384	-1.037408	99
Es	-0.093917	-0.545111	-0.122552	99
Es	0.568460	1.109205	0.562942	99
Es	0.155253	1.775437	0.717428	99
Es	0.522886	2.395336	0.755712	99
Es	1.878501	0.914684	-0.675972	99
Es	-1.847463	-1.256385	0.128880	99
Es	0.114066	-0.999499	-0.660758	99
Es	0.106552	-2.282397	-0.671177	99
Es	2.426122	1.321215	-0.893846	99
Es	0.287420	0.104706	-0.058306	99
Es	1.182226	-1.687785	-0.832150	99
Es	3.205277	1.071217	-1.406760	99
Es	0.483789	-1.659418	-0.610956	99
Es	-1.544596	-0.600105	0.293112	99
Es	-0.475004	1.754301	1.082794	99
Es	-1.622561	-0.465986	1.016587	99
Es	1.293345	0.832501	-0.351740	99
Es	0.264570	1.335686	0.097587	99
39
Properties=species:S:1:pos:R:3:Z:I:1 energy=-285.7853144220794 field_type=dipole dipole="0.000000 0.000000 0.000000" charge=0
C	-1.544652	-0.600120	0.293119	6
C	-0.093882	-0.545270	-0.122621	6
C	0.483758	-1.659350	-0.610921	6
C	0.625728	0.734690	0.004179	6
C	0.155278	1.775390	0.717399	6
C	1.878819	0.914700	-0.676151	6
N	2.892138	1.072050	-1.221901	7
H	-2.127412	0.168150	-0.227271	1
H	-1.646342	-0.454500	1.373829	1
H	-2.005261	-1.565390	0.053449	1
H	-0.070312	-2.590070	-0.700991	1
H	1.521139	-1.702830	-0.931091	1
H	-0.778412	1.743140	1.266959	1
H	0.709409	2.709410	0.782009	1
Es	-0.809335	-0.554229	0.092621	99
Es	2.428014	0.711121	-1.030059	99
Es	-0.093918	-0.545114	-0.122552	99
Es	0.567330	1.109836	0.557143	99
Es	-1.898777	-0.116878	-0.042527	99
Es	-1.544594	-0.600105	0.293112	99
Es	2.430706	1.002469	-0.970235	99
Es	-0.475025	1.754919	1.082746	99
Es	1.294334	0.834004	-0.351042	99
Es	3.202741	1.066005	-1.408007	99
Es	0.625905	0.734614	0.004068	99
Es	0.113691	-0.999422	-0.661197	99
Es	0.522483	2.394922	0.755145	99
Es	0.106767	-2.281972	-0.670648	99
Es	1.878506	0.914675	-0.675972	99
Es	-1.631364	-0.453621	1.008646	99
Es	0.265700	1.335290	0.103100	99
Es	0.155252	1.775437	0.717428	99
Es	2.891749	1.071989	-1.221690	99
Es	0.296394	-1.155563	-0.063329	99
Es	2.423460	1.322725	-0.900073	99
Es	-1.846851	-1.256672	0.129346	99
Es	0.287622	0.104445	-0.058220	99
Es	1.182227	-1.688460	-0.832140	99
Es	0.483794	-1.659421	-0.610946	99
39
Properties=species:S:1:pos:R:3:Z:I:1 energy=-285.7853144220794 field_type=dipole dipole="0.000000 0.000000 0.000000" charge=0
C	-1.544652	-0.600120	0.293119	6
C	-0.093882	-0.545270	-0.122621	6
C	0.483758	-1.659350	-0.610921	6
C	0.625728	0.734690	0.004179	6
C	0.155278	1.775390	0.717399	6
C	1.878819	0.914700	-0.676151	6
N	2.892138	1.072050	-1.221901	7
H	-2.127412	0.168150	-0.227271	1
H	-1.646342	-0.454500	1.373829	1
H	-2.005261	-1.565390	0.053449	1
H	-0.070312	-2.590070	-0.700991	1
H	1.521139	-1.702830	-0.931091	1
H	-0.778412	1.743140	1.266959	1
H	0.709409	2.709410	0.782009	1
Es	1.295246	0.835506	-0.350602	99
Es	0.296639	-1.155570	-0.062821	99
Es	0.522266	2.394403	0.754713	99
Es	0.113433	-0.999494	-0.661644	99
Es	0.155252	1.775437	0.717427	99
Es	2.422371	1.323197	-0.903333	99
Es	-0.093921	-0.545110	-0.122564	99
Es	0.562051	1.112616	0.540042	99
Es	2.428662	0.713893	-1.029091	99
Es	0.483791	-1.659420	-0.610952	99
Es	-0.809476	-0.553842	0.092753	99
Es	-1.846462	-1.256870	0.129442	99
Es	1.182170	-1.689175	-0.832286	99
Es	-1.896146	-0.120585	-0.039832	99
Es	-0.475039	1.755506	1.082898	99
Es	-1.634071	-0.449739	1.005695	99
Es	2.432148	1.001942	-0.967777	99
Es	1.878509	0.914687	-0.675966	99
Es	0.271010	1.332691	0.120021	99
Es	2.891741	1.071988	-1.221687	99
Es	0.287795	0.104299	-0.057854	99
Es	0.625915	0.734613	0.004086	99
Es	-1.544593	-0.600107	0.293112	99
Es	0.106924	-2.281368	-0.670320	99
Es	3.200597	1.061493	-1.408742	99
39
Properties=species:S:1:pos:R:3:Z:I:1 energy=-285.7853144220794 field_type=dipole dipole="0.000000 0.000000 0.000000" charge=0
C	-1.544652	-0.600120	0.293119	6
C	-0.093882	-0.545270	-0.122621	6
C	0.483758	-1.659350	-0.610921	6
C	0.625728	0.734690	0.004179	6
C	0.155278	1.775390	0.717399	6
C	1.878819	0.914700	-0.676151	6
N	2.892138	1.072050	-1.221901	7
H	-2.127412	0.168150	-0.227271	1
H	-1.646342	-0.454500	1.373829	1
H	-2.005261	-1.565390	0.053449	1
H	-0.070312	-2.590070	-0.700991	1
H	1.521139	-1.702830	-0.931091	1
H	-0.778412	1.743140	1.266959	1
H	0.709409	2.709410	0.782009	1
Es	-0.809591	-0.553581	0.092939	99
Es	-1.892945	-0.124993	-0.036291	99
Es	1.182170	-1.689685	-0.832266	99
Es	0.155251	1.775437	0.717427	99
Es	0.558218	1.114869	0.529332	99
Es	0.625908	0.734616	0.004068	99
Es	2.891740	1.071988	-1.221687	99
Es	0.287823	0.104205	-0.058036	99
Es	0.107165	-2.280972	-0.669969	99
Es	0.522011	2.394154	0.754386	99
Es	-0.475029	1.755860	1.082872	99
Es	1.295785	0.836565	-0.350254	99
Es	0.274915	1.330548	0.130693	99
Es	-1.637445	-0.445212	1.001904	99
Es	2.431334	0.716485	-1.025161	99
Es	2.430502	1.002533	-0.970846	99
Es	2.423033	1.323170	-0.903306	99
Es	1.878512	0.914693	-0.675955	99
Es	-1.544592	-0.600107	0.293112	99
Es	3.198172	1.057118	-1.409881	99
Es	-0.093921	-0.545112	-0.122561	99
Es	-1.846033	-1.256965	0.129453	99
Es	0.296970	-1.156144	-0.062261	99
Es	0.483792	-1.659422	-0.610953	99
Es	0.113066	-0.999055	-0.662041	99
39
Properties=species:S:1:pos:R:3:Z:I:1 energy=-285.7853144220794 field_type=dipole dipole="0.000000 0.000000 0.000000" charge=0
C	-1.544652	-0.600120	0.293119	6
C	-0.093882	-0.545270	-0.122621	6
C	0.483758	-1.659350	-0.610921	6
C	0.625728	0.734690	0.004179	6
C	0.155278	1.775390	0.717399	6
C	1.878819	0.914700	-0.676151	6
N	2.892138	1.072050	-1.221901	7
H	-2.127412	0.168150	-0.227271	1
H	-1.646342	-0.454500	1.373829	1
H	-2.005261	-1.565390	0.053449	1
H	-0.070312	-2.590070	-0.700991	1
H	1.521139	-1.702830	-0.931091	1
H	-0.778412	1.743140	1.266959	1
H	0.709409	2.709410	0.782009	1
Es	-1.544595	-0.600106	0.293111	99
Es	0.521820	2.393779	0.754055	99
Es	-1.642112	-0.438486	0.995684	99
Es	0.112970	-0.998017	-0.661906	99
Es	0.274620	1.330617	0.130358	99
Es	2.421577	1.323618	-0.906644	99
Es	-0.093918	-0.545113	-0.122556	99
Es	0.288050	0.103992	-0.057720	99
Es	1.182160	-1.690255	-0.832260	99
Es	2.431243	1.002348	-0.969885	99
Es	3.196170	1.054466	-1.410921	99
Es	-0.475002	1.756293	1.082981	99
Es	1.878508	0.914684	-0.675962	99
Es	-0.809846	-0.553022	0.093048	99
Es	0.107346	-2.280567	-0.669564	99
Es	0.296918	-1.157171	-0.062609	99
Es	2.433142	0.717698	-1.022178	99
Es	1.296553	0.837497	-0.349801	99
Es	0.558485	1.114982	0.529378	99
Es	2.891744	1.071986	-1.221691	99
Es	-1.845641	-1.257344	0.129689	99
Es	-1.888323	-0.131520	-0.030426	99
Es	0.625902	0.734617	0.004060	99
Es	0.483791	-1.659420	-0.610951	99
Es	0.155251	1.775438	0.717425	99
39
Properties=species:S:1:pos:R:3:Z:I:1 energy=-285.7853144220794 field_type=dipole dipole="0.000000 0.000000 0.000000" charge=0
C	-1.544652	-0.600120	0.293119	6
C	-0.093882	-0.545270	-0.122621	6
C	0.483758	-1.659350	-0.610921	6
C	0.625728	0.734690	0.004179	6
C	0.155278	1.775390	0.717399	6
C	1.878819	0.914700	-0.676151	6
N	2.892138	1.072050	-1.221901	7
H	-2.127412	0.168150	-0.227271	1
H	-1.646342	-0.454500	1.373829	1
H	-2.005261	-1.565390	0.053449	1
H	-0.070312	-2.590070	-0.700991	1
H	1.521139	-1.702830	-0.931091	1
H	-0.778412	1.743140	1.266959	1
H	0.709409	2.709410	0.782009	1
Es	0.277672	1.328842	0.138196	99
Es	1.296959	0.838148	-0.349686	99
Es	0.483790	-1.659420	-0.610953	99
Es	-1.845275	-1.257468	0.129622	99
Es	-1.544595	-0.600107	0.293112	99
Es	0.555413	1.116917	0.521271	99
Es	-1.886444	-0.134096	-0.027994	99
Es	0.107422	-2.280376	-0.669408	99
Es	1.182082	-1.690535	-0.832298	99
Es	0.112704	-0.998710	-0.662533	99
Es	0.521645	2.393579	0.753837	99
Es	3.194307	1.051316	-1.411613	99
Es	-0.809999	-0.552788	0.093269	99
Es	2.891740	1.071988	-1.221687	99
Es	-1.644121	-0.435870	0.993110	99
Es	0.155251	1.775437	0.717428	99
Es	0.625908	0.734614	0.004070	99
Es	-0.093918	-0.545112	-0.122555	99
Es	-0.474982	1.756534	1.083010	99
Es	2.435806	0.719419	-1.018238	99
Es	2.421325	1.323800	-0.907714	99
Es	0.297377	-1.156498	-0.061760	99
Es	1.878519	0.914659	-0.675980	99
Es	2.430117	1.002748	-0.972175	99
Es	0.288108	0.103974	-0.057614	99
39
Properties=species:S:1:pos:R:3:Z:I:1 energy=-285.7853144220794 field_type=dipole dipole="0.000000 0.000000 0.000000" charge=0
C	-1.544652	-0.600120	0.293119	6
C	-0.093882	-0.545270	-0.122621	6
C	0.483758	-1.659350	-0.610921	6
C	0.625728	0.734690	0.004179	6
C	0.155278	1.775390	0.717399	6
C	1.878819	0.914700	-0.676151	6
N	2.892138	1.072050	-1.221901	7
H	-2.127412	0.168150	-0.227271	1
H	-1.646342	-0.454500	1.373829	1
H	-2.005261	-1.565390	0.053449	1
H	-0.070312	-2.590070	-0.700991	1
H	1.521139	-1.702830	-0.931091	1
H	-0.778412	1.743140	1.266959	1
H	0.709409	2.709410	0.782009	1
Es	-1.544590	-0.600105	0.293113	99
Es	1.878512	0.914688	-0.675959	99
Es	2.418895	1.324613	-0.912520	99
Es	-1.647051	-0.431558	0.988726	99
Es	1.182033	-1.691104	-0.832404	99
Es	2.891741	1.071988	-1.221687	99
Es	-0.474941	1.756918	1.083121	99
Es	0.107527	-2.279919	-0.669067	99
Es	0.521504	2.393266	0.753510	99
Es	-1.883600	-0.138349	-0.023820	99
Es	0.112511	-0.998735	-0.662754	99
Es	0.483792	-1.659421	-0.610949	99
Es	2.435984	0.721181	-1.018663	99
Es	0.155253	1.775438	0.717428	99
Es	0.288237	0.103641	-0.057617	99
Es	0.297571	-1.156490	-0.061537	99
Es	3.192910	1.048893	-1.411841	99
Es	-1.844905	-1.257760	0.129891	99
Es	0.625906	0.734615	0.004071	99
Es	1.297586	0.838793	-0.349126	99
Es	-0.093917	-0.545114	-0.122551	99
Es	2.432949	1.001933	-0.967302	99
Es	-0.810202	-0.552246	0.093263	99
Es	0.278005	1.328508	0.139382	99
Es	0.555100	1.117317	0.520010	99
39
Properties=species:S:1:pos:R:3:Z:I:1 energy=-285.7853144220794 field_type=dipole dipole="0.000000 0.000000 0.000000" charge=0
C	-1.544652	-0.600120	0.293119	6
C	-0.093882	-0.545270	-0.122621	6
C	0.483758	-1.659350	-0.610921	6
C	0.625728	0.734690	0.004179	6
C	0.155278	1.775390	0.717399	6
C	1.878819	0.914700	-0.676151	6
N	2.892138	1.072050	-1.221901	7
H	-2.127412	0.168150	-0.227271	1
H	-1.646342	-0.454500	1.373829	1
H	-2.005261	-1.565390	0.053449	1
H	-0.070312	-2.590070	-0.700991	1
H	1.521139	-1.702830	-0.931091	1
H	-0.778412	1.743140	1.266959	1
H	0.709409	2.709410	0.782009	1
Es	0.552073	1.119203	0.512545	99
Es	-1.844557	-1.257999	0.129645	99
Es	0.288320	0.103364	-0.057586	99
Es	-1.882695	-0.139423	-0.022726	99
Es	0.297695	-1.155471	-0.061533	99
Es	2.437205	0.722093	-1.016922	99
Es	2.417719	1.324800	-0.914984	99
Es	0.281056	1.326721	0.146685	99
Es	3.191642	1.047087	-1.412215	99
Es	-0.474898	1.757127	1.083169	99
Es	0.521354	2.393077	0.753359	99
Es	0.483792	-1.659421	-0.610949	99
Es	0.155250	1.775438	0.717424	99
Es	-0.093915	-0.545115	-0.122549	99
Es	1.298037	0.839476	-0.348925	99
Es	2.891741	1.071988	-1.221687	99
Es	1.878515	0.914717	-0.675949	99
Es	0.107558	-2.279520	-0.668821	99
Es	-1.544594	-0.600108	0.293112	99
Es	1.181969	-1.691635	-0.832466	99
Es	0.625906	0.734614	0.004072	99
Es	-1.647999	-0.430397	0.987501	99
Es	2.433603	1.001841	-0.966420	99
Es	-0.810468	-0.551769	0.093692	99
Es	0.112500	-0.999695	-0.662757	99
39
Properties=species:S:1:pos:R:3:Z:I:1 energy=-285.7853144220794 field_type=dipole dipole="0.000000 0.000000 0.000000" charge=0
C	-1.544652	-0.600120	0.293119	6
C	-0.093882	-0.545270	-0.122621	6
C	0.483758	-1.659350	-0.610921	6
C	0.625728	0.734690	0.004179	6
C	0.155278	1.775390	0.717399	6
C	1.878819	0.914700	-0.676151	6
N	2.892138	1.072050	-1.221901	7
H	-2.127412	0.168150	-0.227271	1
H	-1.646342	-0.454500	1.373829	1
H	-2.005261	-1.565390	0.053449	1
H	-0.070312	-2.590070	-0.700991	1
H	1.521139	-1.702830	-0.931091	1
H	-0.778412	1.743140	1.266959	1
H	0.709409	2.709410	0.782009	1
Es	2.418086	1.324421	-0.914391	99
Es	0.112281	-0.998646	-0.663025	99
Es	2.432326	1.002260	-0.969043	99
Es	1.181944	-1.691895	-0.832487	99
Es	-1.844304	-1.258210	0.129683	99
Es	0.551902	1.119436	0.511822	99
Es	-1.544593	-0.600103	0.293111	99
Es	0.107665	-2.279318	-0.668617	99
Es	0.483792	-1.659421	-0.610949	99
Es	1.878511	0.914693	-0.675962	99
Es	-1.650358	-0.427070	0.983899	99
Es	-0.810613	-0.551532	0.093775	99
Es	-0.093918	-0.545112	-0.122557	99
Es	0.625904	0.734615	0.004069	99
Es	0.297846	-1.156613	-0.061198	99
Es	2.891741	1.071988	-1.221687	99
Es	0.288368	0.103366	-0.057445	99
Es	0.521223	2.392783	0.753078	99
Es	1.298417	0.839981	-0.348766	99
Es	-0.474890	1.757495	1.083197	99
Es	2.439240	0.723208	-1.014082	99
Es	3.190051	1.045325	-1.413186	99
Es	0.155253	1.775440	0.717426	99
Es	0.281284	1.326546	0.147357	99
Es	-1.880349	-0.142643	-0.019307	99
39
Properties=species:S:1:pos:R:3:Z:I:1 energy=-285.7853144220794 field_type=dipole dipole="0.000000 0.000000 0.000000" charge=0
C	-1.544652	-0.600120	0.293119	6
C	-0.093882	-0.545270	-0.122621	6
C	0.483758	-1.659350	-0.610921	6
C	0.625728	0.734690	0.004179	6
C	0.155278	1.775390	0.717399	6
C	1.878819	0.914700	-0.676151	6
N	2.892138	1.072050	-1.221901	7
H	-2.127412	0.168150	-0.227271	1
H	-1.646342	-0.454500	1.373829	1
H	-2.005261	-1.565390	0.053449	1
H	-0.070312	-2.590070	-0.700991	1
H	1.521139	-1.702830	-0.931091	1
H	-0.778412	1.743140	1.266959	1
H	0.709409	2.709410	0.782009	1
Es	-1.649627	-0.427979	0.984966	99
Es	0.546858	1.122485	0.500331	99
Es	-1.544598	-0.600110	0.293112	99
Es	2.891741	1.071988	-1.221687	99
Es	0.286303	1.323535	0.158801	99
Es	2.438936	0.724909	-1.015506	99
Es	-1.844081	-1.258353	0.129665	99
Es	0.107777	-2.278878	-0.668524	99
Es	-0.474868	1.757800	1.083320	99
Es	2.434504	1.001674	-0.965167	99
Es	-0.093918	-0.545113	-0.122556	99
Es	0.297676	-1.157336	-0.061508	99
Es	0.483792	-1.659421	-0.610949	99
Es	0.521167	2.392461	0.752967	99
Es	0.288529	0.103054	-0.057571	99
Es	-0.810766	-0.551305	0.093860	99
Es	1.298708	0.840798	-0.348543	99
Es	0.112334	-0.997985	-0.662729	99
Es	-1.881099	-0.141693	-0.020447	99
Es	3.189211	1.043339	-1.412996	99
Es	0.155251	1.775438	0.717426	99
Es	1.878518	0.914691	-0.675956	99
Es	2.416595	1.324684	-0.917130	99
Es	1.181960	-1.692305	-0.832532	99
Es	0.625907	0.734616	0.004070	99
