45
Properties=species:S:1:pos:R:3:Z:I:1 energy=-288.16561389917837 field_type=dipole dipole="0.000000 0.000000 0.000000" charge=0
C	-1.699828	0.133379	-0.002736	6
C	-0.171148	-0.070521	0.000654	6
C	0.210382	-0.861411	1.265794	6
C	0.212482	-0.887360	-1.247226	6
C	0.505372	1.323589	-0.013136	6
C	1.948742	1.281219	-0.012216	6
N	3.099262	1.247459	-0.011476	7
H	-2.023238	0.682379	-0.893896	1
H	-2.024718	0.700899	0.876184	1
H	-2.228978	-0.826221	0.006844	1
H	-0.035398	-0.297191	2.172174	1
H	1.280652	-1.091411	1.292784	1
H	-0.328598	-1.814880	1.311684	1
H	-0.031478	-0.341861	-2.165516	1
H	-0.326668	-1.841330	-1.274396	1
H	1.282752	-1.118160	-1.267516	1
H	0.164862	1.899559	0.857114	1
H	0.165552	1.881859	-0.895116	1
Es	0.026952	-0.460241	0.637024	99
Es	3.098821	1.247471	-0.011476	99
Es	0.505535	1.323578	-0.013136	99
Es	2.584619	1.571622	0.004318	99
Es	-0.171123	-0.070465	0.000651	99
Es	0.027876	-0.473327	-0.627073	99
Es	0.212467	-0.887340	-1.247205	99
Es	0.212958	0.647419	-0.006484	99
Es	0.210367	-0.861392	1.265773	99
Es	0.300875	1.704063	0.571019	99
Es	1.269942	1.294312	-0.012630	99
Es	-0.938215	0.042809	-0.001237	99
Es	1.948382	1.281212	-0.012249	99
Es	2.576140	1.122639	-0.286987	99
Es	0.935591	-1.012016	1.278248	99
Es	-1.699806	0.133385	-0.002736	99
Es	0.042423	-0.507789	-1.870214	99
Es	3.468526	1.236157	-0.010913	99
Es	0.039313	-0.469070	1.880451	99
Es	0.937847	-1.038291	-1.255231	99
Es	-1.915019	0.523623	0.599293	99
Es	2.573925	1.092352	0.246842	99
Es	-0.159498	-1.532789	-1.257423	99
Es	-2.051784	-0.522270	0.003799	99
Es	-0.161722	-1.506762	1.288648	99
Es	0.301076	1.692377	-0.604777	99
Es	-1.913951	0.510928	-0.613161	99
45
Properties=species:S:1:pos:R:3:Z:I:1 energy=-288.16561389917837 field_type=dipole dipole="0.000000 0.000000 0.000000" charge=0
C	-1.699828	0.133379	-0.002736	6
C	-0.171148	-0.070521	0.000654	6
C	0.210382	-0.861411	1.265794	6
C	0.212482	-0.887360	-1.247226	6
C	0.505372	1.323589	-0.013136	6
C	1.948742	1.281219	-0.012216	6
N	3.099262	1.247459	-0.011476	7
H	-2.023238	0.682379	-0.893896	1
H	-2.024718	0.700899	0.876184	1
H	-2.228978	-0.826221	0.006844	1
H	-0.035398	-0.297191	2.172174	1
H	1.280652	-1.091411	1.292784	1
H	-0.328598	-1.814880	1.311684	1
H	-0.031478	-0.341861	-2.165516	1
H	-0.326668	-1.841330	-1.274396	1
H	1.282752	-1.118160	-1.267516	1
H	0.164862	1.899559	0.857114	1
H	0.165552	1.881859	-0.895116	1
Es	-1.914603	0.510470	-0.611579	99
Es	-0.162983	-1.505576	1.288704	99
Es	3.472022	1.235838	-0.011232	99
Es	2.583908	1.508989	-0.189620	99
Es	-0.938230	0.042874	-0.001341	99
Es	-0.171124	-0.070464	0.000654	99
Es	1.948367	1.281229	-0.012216	99
Es	1.271908	1.294544	-0.012359	99
Es	0.505536	1.323578	-0.013135	99
Es	0.041609	-0.508292	-1.868248	99
Es	0.300313	1.691547	-0.603286	99
Es	-1.699804	0.133386	-0.002737	99
Es	2.580930	1.293085	0.289547	99
Es	0.212851	0.647767	-0.006391	99
Es	0.026848	-0.459928	0.637170	99
Es	-0.160896	-1.531691	-1.257495	99
Es	0.938479	-1.012252	1.278518	99
Es	3.098826	1.247471	-0.011476	99
Es	0.028036	-0.473354	-0.627239	99
Es	0.210368	-0.861393	1.265774	99
Es	0.212467	-0.887337	-1.247203	99
Es	-1.915708	0.523216	0.597939	99
Es	0.940676	-1.038525	-1.255535	99
Es	0.299809	1.703497	0.569189	99
Es	2.567281	0.984703	-0.135521	99
Es	-2.052860	-0.521413	0.003685	99
Es	0.038493	-0.469773	1.878568	99
45
Properties=species:S:1:pos:R:3:Z:I:1 energy=-288.16561389917837 field_type=dipole dipole="0.000000 0.000000 0.000000" charge=0
C	-1.699828	0.133379	-0.002736	6
C	-0.171148	-0.070521	0.000654	6
C	0.210382	-0.861411	1.265794	6
C	0.212482	-0.887360	-1.247226	6
C	0.505372	1.323589	-0.013136	6
C	1.948742	1.281219	-0.012216	6
N	3.099262	1.247459	-0.011476	7
H	-2.023238	0.682379	-0.893896	1
H	-2.024718	0.700899	0.876184	1
H	-2.228978	-0.826221	0.006844	1
H	-0.035398	-0.297191	2.172174	1
H	1.280652	-1.091411	1.292784	1
H	-0.328598	-1.814880	1.311684	1
H	-0.031478	-0.341861	-2.165516	1
H	-0.326668	-1.841330	-1.274396	1
H	1.282752	-1.118160	-1.267516	1
H	0.164862	1.899559	0.857114	1
H	0.165552	1.881859	-0.895116	1
Es	2.583134	1.555989	0.057703	99
Es	3.473571	1.236335	-0.010999	99
Es	-0.938146	0.042823	-0.001095	99
Es	0.299495	1.702916	0.568355	99
Es	0.505534	1.323579	-0.013135	99
Es	1.272927	1.294404	-0.012694	99
Es	0.026822	-0.460332	0.637271	99
Es	-1.915933	0.522782	0.596884	99
Es	-1.915081	0.510303	-0.610875	99
Es	3.098832	1.247471	-0.011476	99
Es	-1.699806	0.133384	-0.002736	99
Es	-0.163667	-1.504963	1.288836	99
Es	2.577050	1.175781	-0.300188	99
Es	0.210368	-0.861392	1.265774	99
Es	0.212846	0.647857	-0.006516	99
Es	0.028012	-0.473230	-0.627441	99
Es	0.940190	-1.012050	1.278717	99
Es	0.942181	-1.038562	-1.255796	99
Es	0.041301	-0.508608	-1.866839	99
Es	-2.053446	-0.520771	0.003906	99
Es	0.037888	-0.470029	1.877171	99
Es	-0.161837	-1.531091	-1.257646	99
Es	1.948365	1.281229	-0.012212	99
Es	0.299846	1.691373	-0.602195	99
Es	-0.171126	-0.070465	0.000654	99
Es	2.570730	1.054801	0.206916	99
Es	0.212467	-0.887341	-1.247206	99
45
Properties=species:S:1:pos:R:3:Z:I:1 energy=-288.16561389917837 field_type=dipole dipole="0.000000 0.000000 0.000000" charge=0
C	-1.699828	0.133379	-0.002736	6
C	-0.171148	-0.070521	0.000654	6
C	0.210382	-0.861411	1.265794	6
C	0.212482	-0.887360	-1.247226	6
C	0.505372	1.323589	-0.013136	6
C	1.948742	1.281219	-0.012216	6
N	3.099262	1.247459	-0.011476	7
H	-2.023238	0.682379	-0.893896	1
H	-2.024718	0.700899	0.876184	1
H	-2.228978	-0.826221	0.006844	1
H	-0.035398	-0.297191	2.172174	1
H	1.280652	-1.091411	1.292784	1
H	-0.328598	-1.814880	1.311684	1
H	-0.031478	-0.341861	-2.165516	1
H	-0.326668	-1.841330	-1.274396	1
H	1.282752	-1.118160	-1.267516	1
H	0.164862	1.899559	0.857114	1
H	0.165552	1.881859	-0.895116	1
Es	1.948360	1.281230	-0.012217	99
Es	0.505535	1.323579	-0.013136	99
Es	0.941093	-1.012029	1.278938	99
Es	0.040886	-0.508997	-1.866046	99
Es	0.027965	-0.473247	-0.627520	99
Es	0.299538	1.690933	-0.601613	99
Es	-1.699805	0.133384	-0.002736	99
Es	0.026778	-0.460145	0.637145	99
Es	1.273710	1.294503	-0.012452	99
Es	2.572158	1.081750	-0.251823	99
Es	3.098821	1.247469	-0.011474	99
Es	-1.916107	0.522620	0.596299	99
Es	2.582900	1.559891	-0.046592	99
Es	-1.915193	0.510115	-0.610178	99
Es	0.212938	0.648034	-0.006375	99
Es	0.037757	-0.470410	1.876218	99
Es	3.474509	1.236422	-0.011668	99
Es	-0.171126	-0.070465	0.000654	99
Es	0.943246	-1.038475	-1.255913	99
Es	-0.938305	0.042902	-0.001136	99
Es	2.575158	1.144906	0.263437	99
Es	0.212467	-0.887338	-1.247205	99
Es	-2.053860	-0.520580	0.003832	99
Es	-0.162174	-1.530552	-1.257566	99
Es	-0.164176	-1.504532	1.289003	99
Es	0.299075	1.702617	0.567487	99
Es	0.210367	-0.861391	1.265773	99
45
Properties=species:S:1:pos:R:3:Z:I:1 energy=-288.16561389917837 field_type=dipole dipole="0.000000 0.000000 0.000000" charge=0
C	-1.699828	0.133379	-0.002736	6
C	-0.171148	-0.070521	0.000654	6
C	0.210382	-0.861411	1.265794	6
C	0.212482	-0.887360	-1.247226	6
C	0.505372	1.323589	-0.013136	6
C	1.948742	1.281219	-0.012216	6
N	3.099262	1.247459	-0.011476	7
H	-2.023238	0.682379	-0.893896	1
H	-2.024718	0.700899	0.876184	1
H	-2.228978	-0.826221	0.006844	1
H	-0.035398	-0.297191	2.172174	1
H	1.280652	-1.091411	1.292784	1
H	-0.328598	-1.814880	1.311684	1
H	-0.031478	-0.341861	-2.165516	1
H	-0.326668	-1.841330	-1.274396	1
H	1.282752	-1.118160	-1.267516	1
H	0.164862	1.899559	0.857114	1
H	0.165552	1.881859	-0.895116	1
Es	-0.938245	0.042882	-0.001204	99
Es	0.298992	1.702360	0.567121	99
Es	0.941879	-1.012010	1.279008	99
Es	0.040918	-0.509048	-1.865180	99
Es	3.098849	1.247470	-0.011476	99
Es	1.274179	1.294492	-0.012593	99
Es	0.505536	1.323577	-0.013136	99
Es	-1.915363	0.509828	-0.609741	99
Es	-0.162677	-1.530196	-1.257927	99
Es	2.576489	1.184391	0.276492	99
Es	2.570440	1.051958	-0.223803	99
Es	0.212940	0.648288	-0.006477	99
Es	0.943933	-1.038477	-1.255944	99
Es	0.027851	-0.473394	-0.627471	99
Es	-2.054057	-0.520237	0.003873	99
Es	1.948358	1.281231	-0.012211	99
Es	0.299295	1.690760	-0.600971	99
Es	0.210367	-0.861392	1.265774	99
Es	0.212467	-0.887340	-1.247206	99
Es	3.475116	1.236543	-0.011732	99
Es	-1.699808	0.133384	-0.002736	99
Es	0.037526	-0.470652	1.875519	99
Es	2.582814	1.550037	-0.087678	99
Es	-0.164558	-1.504082	1.288993	99
Es	0.026713	-0.460235	0.637336	99
Es	-1.916310	0.522521	0.595852	99
Es	-0.171125	-0.070465	0.000655	99
45
Properties=species:S:1:pos:R:3:Z:I:1 energy=-288.16561389917837 field_type=dipole dipole="0.000000 0.000000 0.000000" charge=0
C	-1.699828	0.133379	-0.002736	6
C	-0.171148	-0.070521	0.000654	6
C	0.210382	-0.861411	1.265794	6
C	0.212482	-0.887360	-1.247226	6
C	0.505372	1.323589	-0.013136	6
C	1.948742	1.281219	-0.012216	6
N	3.099262	1.247459	-0.011476	7
H	-2.023238	0.682379	-0.893896	1
H	-2.024718	0.700899	0.876184	1
H	-2.228978	-0.826221	0.006844	1
H	-0.035398	-0.297191	2.172174	1
H	1.280652	-1.091411	1.292784	1
H	-0.328598	-1.814880	1.311684	1
H	-0.031478	-0.341861	-2.165516	1
H	-0.326668	-1.841330	-1.274396	1
H	1.282752	-1.118160	-1.267516	1
H	0.164862	1.899559	0.857114	1
H	0.165552	1.881859	-0.895116	1
Es	0.942408	-1.011985	1.279165	99
Es	0.026847	-0.460170	0.637472	99
Es	2.582678	1.517375	0.139440	99
Es	0.212880	0.648455	-0.006423	99
Es	0.298783	1.702255	0.566745	99
Es	0.210367	-0.861391	1.265772	99
Es	0.040681	-0.509352	-1.864727	99
Es	-0.164925	-1.503793	1.288978	99
Es	-0.162830	-1.529941	-1.257812	99
Es	1.274502	1.294567	-0.012662	99
Es	-1.916512	0.522438	0.595452	99
Es	3.098823	1.247471	-0.011476	99
Es	0.505534	1.323579	-0.013136	99
Es	1.948355	1.281213	-0.012210	99
Es	-1.699805	0.133385	-0.002738	99
Es	-1.915317	0.509665	-0.609360	99
Es	2.567285	1.003951	0.133991	99
Es	0.944447	-1.038343	-1.256066	99
Es	-0.171124	-0.070464	0.000653	99
Es	0.037405	-0.470870	1.874918	99
Es	2.579465	1.264981	-0.309227	99
Es	0.027917	-0.473289	-0.627577	99
Es	0.212468	-0.887341	-1.247206	99
Es	-0.938294	0.042859	-0.001117	99
Es	3.475592	1.236455	-0.010788	99
Es	0.299192	1.690494	-0.600692	99
Es	-2.054306	-0.520011	0.003767	99
45
Properties=species:S:1:pos:R:3:Z:I:1 energy=-288.16561389917837 field_type=dipole dipole="0.000000 0.000000 0.000000" charge=0
C	-1.699828	0.133379	-0.002736	6
C	-0.171148	-0.070521	0.000654	6
C	0.210382	-0.861411	1.265794	6
C	0.212482	-0.887360	-1.247226	6
C	0.505372	1.323589	-0.013136	6
C	1.948742	1.281219	-0.012216	6
N	3.099262	1.247459	-0.011476	7
H	-2.023238	0.682379	-0.893896	1
H	-2.024718	0.700899	0.876184	1
H	-2.228978	-0.826221	0.006844	1
H	-0.035398	-0.297191	2.172174	1
H	1.280652	-1.091411	1.292784	1
H	-0.328598	-1.814880	1.311684	1
H	-0.031478	-0.341861	-2.165516	1
H	-0.326668	-1.841330	-1.274396	1
H	1.282752	-1.118160	-1.267516	1
H	0.164862	1.899559	0.857114	1
H	0.165552	1.881859	-0.895116	1
Es	2.577095	1.194253	-0.300657	99
Es	0.298619	1.702087	0.566458	99
Es	1.274796	1.294482	-0.012699	99
Es	-1.915525	0.509567	-0.609045	99
Es	-2.054302	-0.519748	0.003700	99
Es	0.212467	-0.887340	-1.247206	99
Es	2.582619	1.545115	0.071578	99
Es	0.026670	-0.460075	0.637423	99
Es	-0.171125	-0.070464	0.000653	99
Es	0.037292	-0.471087	1.874514	99
Es	-0.165069	-1.503539	1.288994	99
Es	0.210367	-0.861390	1.265771	99
Es	0.040609	-0.509503	-1.864093	99
Es	0.942833	-1.011905	1.279192	99
Es	-0.938293	0.042941	-0.001142	99
Es	2.569415	1.046898	0.193098	99
Es	0.505536	1.323577	-0.013138	99
Es	0.213023	0.648463	-0.006597	99
Es	0.299165	1.690374	-0.600277	99
Es	3.475958	1.236641	-0.010548	99
Es	1.948358	1.281228	-0.012215	99
Es	-0.163170	-1.529695	-1.257911	99
Es	0.944911	-1.038294	-1.256237	99
Es	-1.699809	0.133385	-0.002736	99
Es	-1.916628	0.522225	0.595334	99
Es	0.027886	-0.473474	-0.627600	99
Es	3.098820	1.247471	-0.011478	99
45
Properties=species:S:1:pos:R:3:Z:I:1 energy=-288.16561389917837 field_type=dipole dipole="0.000000 0.000000 0.000000" charge=0
C	-1.699828	0.133379	-0.002736	6
C	-0.171148	-0.070521	0.000654	6
C	0.210382	-0.861411	1.265794	6
C	0.212482	-0.887360	-1.247226	6
C	0.505372	1.323589	-0.013136	6
C	1.948742	1.281219	-0.012216	6
N	3.099262	1.247459	-0.011476	7
H	-2.023238	0.682379	-0.893896	1
H	-2.024718	0.700899	0.876184	1
H	-2.228978	-0.826221	0.006844	1
H	-0.035398	-0.297191	2.172174	1
H	1.280652	-1.091411	1.292784	1
H	-0.328598	-1.814880	1.311684	1
H	-0.031478	-0.341861	-2.165516	1
H	-0.326668	-1.841330	-1.274396	1
H	1.282752	-1.118160	-1.267516	1
H	0.164862	1.899559	0.857114	1
H	0.165552	1.881859	-0.895116	1
Es	3.098823	1.247471	-0.011476	99
Es	-1.915560	0.509576	-0.608743	99
Es	0.505536	1.323576	-0.013136	99
Es	0.213195	0.648676	-0.006477	99
Es	-0.165285	-1.503313	1.289051	99
Es	-0.171126	-0.070465	0.000653	99
Es	2.582542	1.532709	0.104993	99
Es	0.027836	-0.473324	-0.627688	99
Es	0.298476	1.701900	0.566208	99
Es	1.275038	1.294577	-0.012610	99
Es	0.026776	-0.460337	0.637470	99
Es	0.943153	-1.011889	1.279289	99
Es	-1.699807	0.133384	-0.002736	99
Es	0.210370	-0.861393	1.265775	99
Es	-0.163403	-1.529461	-1.257923	99
Es	-0.938245	0.042905	-0.001128	99
Es	2.568603	1.027301	0.166328	99
Es	-1.916589	0.522072	0.594910	99
Es	0.037226	-0.471188	1.874083	99
Es	0.945243	-1.038300	-1.256256	99
Es	-2.054593	-0.519624	0.003746	99
Es	1.948360	1.281230	-0.012210	99
Es	3.476191	1.236706	-0.010872	99
Es	0.040539	-0.509565	-1.863719	99
Es	2.577797	1.226102	-0.307008	99
Es	0.212468	-0.887339	-1.247205	99
Es	0.298956	1.690208	-0.600184	99
45
Properties=species:S:1:pos:R:3:Z:I:1 energy=-288.16561389917837 field_type=dipole dipole="0.000000 0.000000 0.000000" charge=0
C	-1.699828	0.133379	-0.002736	6
C	-0.171148	-0.070521	0.000654	6
C	0.210382	-0.861411	1.265794	6
C	0.212482	-0.887360	-1.247226	6
C	0.505372	1.323589	-0.013136	6
C	1.948742	1.281219	-0.012216	6
N	3.099262	1.247459	-0.011476	7
H	-2.023238	0.682379	-0.893896	1
H	-2.024718	0.700899	0.876184	1
H	-2.228978	-0.826221	0.006844	1
H	-0.035398	-0.297191	2.172174	1
H	1.280652	-1.091411	1.292784	1
H	-0.328598	-1.814880	1.311684	1
H	-0.031478	-0.341861	-2.165516	1
H	-0.326668	-1.841330	-1.274396	1
H	1.282752	-1.118160	-1.267516	1
H	0.164862	1.899559	0.857114	1
H	0.165552	1.881859	-0.895116	1
Es	0.943435	-1.011885	1.279280	99
Es	0.040539	-0.509769	-1.863377	99
Es	1.948354	1.281228	-0.012218	99
Es	-0.171125	-0.070465	0.000653	99
Es	0.212467	-0.887340	-1.247207	99
Es	2.580807	1.349817	0.270693	99
Es	0.505536	1.323577	-0.013135	99
Es	0.026749	-0.460320	0.637545	99
Es	-0.163510	-1.529265	-1.258026	99
Es	0.945501	-1.038273	-1.256317	99
Es	0.298387	1.701864	0.566009	99
Es	2.565667	0.976230	-0.075088	99
Es	-0.938282	0.042891	-0.001155	99
Es	-1.915637	0.509403	-0.608594	99
Es	-2.054574	-0.519408	0.003735	99
Es	1.275224	1.294676	-0.012534	99
Es	-1.699806	0.133384	-0.002736	99
Es	2.582340	1.460236	-0.230687	99
Es	3.098825	1.247471	-0.011477	99
Es	-1.916714	0.522055	0.594833	99
Es	3.476384	1.236390	-0.011634	99
Es	0.037196	-0.471208	1.873731	99
Es	0.027858	-0.473343	-0.627741	99
Es	0.298917	1.690022	-0.599900	99
Es	-0.165475	-1.503107	1.289148	99
Es	0.213090	0.648723	-0.006435	99
Es	0.210366	-0.861391	1.265772	99
45
Properties=species:S:1:pos:R:3:Z:I:1 energy=-288.16561389917837 field_type=dipole dipole="0.000000 0.000000 0.000000" charge=0
C	-1.699828	0.133379	-0.002736	6
C	-0.171148	-0.070521	0.000654	6
C	0.210382	-0.861411	1.265794	6
C	0.212482	-0.887360	-1.247226	6
C	0.505372	1.323589	-0.013136	6
C	1.948742	1.281219	-0.012216	6
N	3.099262	1.247459	-0.011476	7
H	-2.023238	0.682379	-0.893896	1
H	-2.024718	0.700899	0.876184	1
H	-2.228978	-0.826221	0.006844	1
H	-0.035398	-0.297191	2.172174	1
H	1.280652	-1.091411	1.292784	1
H	-0.328598	-1.814880	1.311684	1
H	-0.031478	-0.341861	-2.165516	1
H	-0.326668	-1.841330	-1.274396	1
H	1.282752	-1.118160	-1.267516	1
H	0.164862	1.899559	0.857114	1
H	0.165552	1.881859	-0.895116	1
Es	0.298327	1.701727	0.565739	99
Es	1.948355	1.281233	-0.012216	99
Es	-0.163649	-1.529103	-1.257957	99
Es	0.943685	-1.011790	1.279347	99
Es	1.275406	1.294609	-0.012455	99
Es	2.572667	1.103217	-0.261648	99
Es	-0.938311	0.042919	-0.001083	99
Es	2.573620	1.127464	0.251267	99
Es	-1.915732	0.509434	-0.608467	99
Es	-1.699806	0.133384	-0.002736	99
Es	3.476561	1.237295	-0.011522	99
Es	0.026701	-0.460348	0.637532	99
Es	-2.054679	-0.519303	0.003804	99
Es	0.945755	-1.038225	-1.256269	99
Es	2.582388	1.554782	-0.024788	99
Es	0.040456	-0.509847	-1.863163	99
Es	-0.165667	-1.502995	1.289197	99
Es	3.098820	1.247472	-0.011477	99
Es	0.037198	-0.471373	1.873353	99
Es	0.213264	0.648794	-0.006425	99
Es	0.212468	-0.887339	-1.247204	99
Es	-1.916684	0.521887	0.594571	99
Es	0.210368	-0.861392	1.265773	99
Es	0.027759	-0.473372	-0.627780	99
Es	0.505532	1.323581	-0.013134	99
Es	-0.171127	-0.070466	0.000654	99
Es	0.298842	1.689949	-0.599776	99
45
Properties=species:S:1:pos:R:3:Z:I:1 energy=-288.16561389917837 field_type=dipole dipole="0.000000 0.000000 0.000000" charge=0
C	-1.699828	0.133379	-0.002736	6
C	-0.171148	-0.070521	0.000654	6
C	0.210382	-0.861411	1.265794	6
C	0.212482	-0.887360	-1.247226	6
C	0.505372	1.323589	-0.013136	6
C	1.948742	1.281219	-0.012216	6
N	3.099262	1.247459	-0.011476	7
H	-2.023238	0.682379	-0.893896	1
H	-2.024718	0.700899	0.876184	1
H	-2.228978	-0.826221	0.006844	1
H	-0.035398	-0.297191	2.172174	1
H	1.280652	-1.091411	1.292784	1
H	-0.328598	-1.814880	1.311684	1
H	-0.031478	-0.341861	-2.165516	1
H	-0.326668	-1.841330	-1.274396	1
H	1.282752	-1.118160	-1.267516	1
H	0.164862	1.899559	0.857114	1
H	0.165552	1.881859	-0.895116	1
Es	0.027861	-0.473354	-0.627759	99
Es	2.582444	1.546157	0.055682	99
Es	-0.165762	-1.502836	1.289228	99
Es	-1.916737	0.521843	0.594456	99
Es	0.040426	-0.509916	-1.862796	99
Es	0.943866	-1.011794	1.279320	99
Es	1.948355	1.281230	-0.012216	99
Es	0.505536	1.323577	-0.013136	99
Es	-0.938335	0.042922	-0.001194	99
Es	-1.699806	0.133384	-0.002736	99
Es	0.298226	1.701648	0.565654	99
Es	0.213400	0.648900	-0.006461	99
Es	0.210366	-0.861390	1.265774	99
Es	0.945953	-1.038203	-1.256407	99
Es	0.037201	-0.471490	1.873155	99
Es	2.570410	1.063034	0.204561	99
Es	-1.915809	0.509321	-0.608326	99
Es	2.575691	1.176453	-0.295946	99
Es	0.212468	-0.887340	-1.247205	99
Es	1.275536	1.294530	-0.012585	99
Es	3.098822	1.247471	-0.011477	99
Es	0.026652	-0.460343	0.637560	99
Es	3.476730	1.237193	-0.010917	99
Es	0.298733	1.689819	-0.599618	99
Es	-2.054698	-0.519174	0.003824	99
Es	-0.171126	-0.070465	0.000653	99
Es	-0.163888	-1.528983	-1.257953	99
45
Properties=species:S:1:pos:R:3:Z:I:1 energy=-288.16561389917837 field_type=dipole dipole="0.000000 0.000000 0.000000" charge=0
C	-1.699828	0.133379	-0.002736	6
C	-0.171148	-0.070521	0.000654	6
C	0.210382	-0.861411	1.265794	6
C	0.212482	-0.887360	-1.247226	6
C	0.505372	1.323589	-0.013136	6
C	1.948742	1.281219	-0.012216	6
N	3.099262	1.247459	-0.011476	7
H	-2.023238	0.682379	-0.893896	1
H	-2.024718	0.700899	0.876184	1
H	-2.228978	-0.826221	0.006844	1
H	-0.035398	-0.297191	2.172174	1
H	1.280652	-1.091411	1.292784	1
H	-0.328598	-1.814880	1.311684	1
H	-0.031478	-0.341861	-2.165516	1
H	-0.326668	-1.841330	-1.274396	1
H	1.282752	-1.118160	-1.267516	1
H	0.164862	1.899559	0.857114	1
H	0.165552	1.881859	-0.895116	1
Es	-0.171124	-0.070464	0.000654	99
Es	-1.915799	0.509226	-0.608124	99
Es	-0.163929	-1.528881	-1.258148	99
Es	-0.938351	0.042865	-0.001156	99
Es	0.946143	-1.038104	-1.256505	99
Es	0.026702	-0.460326	0.637602	99
Es	0.212468	-0.887340	-1.247205	99
Es	2.576593	1.212076	0.280577	99
Es	1.275632	1.294626	-0.012671	99
Es	-1.916794	0.521835	0.594360	99
Es	0.944073	-1.011741	1.279393	99
Es	2.569457	1.038130	-0.200459	99
Es	3.098838	1.247470	-0.011476	99
Es	0.298718	1.689692	-0.599448	99
Es	2.582431	1.535314	-0.114883	99
Es	0.040459	-0.510099	-1.862448	99
Es	3.476814	1.237234	-0.011815	99
Es	0.210367	-0.861392	1.265775	99
Es	0.505535	1.323579	-0.013135	99
Es	0.037073	-0.471577	1.872925	99
Es	-0.165850	-1.502687	1.289153	99
Es	0.027799	-0.473330	-0.627787	99
Es	1.948356	1.281230	-0.012223	99
Es	-2.054773	-0.519070	0.003772	99
Es	0.298131	1.701612	0.565562	99
Es	0.213356	0.648929	-0.006416	99
Es	-1.699807	0.133387	-0.002741	99
45
Properties=species:S:1:pos:R:3:Z:I:1 energy=-288.16561389917837 field_type=dipole dipole="0.000000 0.000000 0.000000" charge=0
C	-1.699828	0.133379	-0.002736	6
C	-0.171148	-0.070521	0.000654	6
C	0.210382	-0.861411	1.265794	6
C	0.212482	-0.887360	-1.247226	6
C	0.505372	1.323589	-0.013136	6
C	1.948742	1.281219	-0.012216	6
N	3.099262	1.247459	-0.011476	7
H	-2.023238	0.682379	-0.893896	1
H	-2.024718	0.700899	0.876184	1
H	-2.228978	-0.826221	0.006844	1
H	-0.035398	-0.297191	2.172174	1
H	1.280652	-1.091411	1.292784	1
H	-0.328598	-1.814880	1.311684	1
H	-0.031478	-0.341861	-2.165516	1
H	-0.326668	-1.841330	-1.274396	1
H	1.282752	-1.118160	-1.267516	1
H	0.164862	1.899559	0.857114	1
H	0.165552	1.881859	-0.895116	1
Es	2.582576	1.547114	-0.066192	99
Es	3.098869	1.247470	-0.011477	99
Es	0.210368	-0.861392	1.265773	99
Es	0.040449	-0.510144	-1.862288	99
Es	-0.171126	-0.070464	0.000653	99
Es	0.298658	1.689688	-0.599364	99
Es	2.574663	1.165235	0.268363	99
Es	1.275743	1.294639	-0.012525	99
Es	0.213376	0.648994	-0.006432	99
Es	-2.054856	-0.519030	0.003754	99
Es	-0.164053	-1.528784	-1.258124	99
Es	-1.915807	0.509185	-0.607966	99
Es	3.476905	1.237096	-0.011500	99
Es	-0.165996	-1.502640	1.289181	99
Es	0.944220	-1.011658	1.279413	99
Es	2.571138	1.073285	-0.237328	99
Es	0.505537	1.323577	-0.013134	99
Es	-0.938346	0.042897	-0.001184	99
Es	1.948354	1.281231	-0.012219	99
Es	0.946312	-1.038046	-1.256401	99
Es	0.027791	-0.473406	-0.627838	99
Es	0.212468	-0.887341	-1.247206	99
Es	0.298133	1.701499	0.565370	99
Es	0.037058	-0.471595	1.872684	99
Es	-1.916834	0.521753	0.594172	99
Es	-1.699805	0.133384	-0.002736	99
Es	0.026722	-0.460356	0.637688	99
45
Properties=species:S:1:pos:R:3:Z:I:1 energy=-288.16561389917837 field_type=dipole dipole="0.000000 0.000000 0.000000" charge=0
C	-1.699828	0.133379	-0.002736	6
C	-0.171148	-0.070521	0.000654	6
C	0.210382	-0.861411	1.265794	6
C	0.212482	-0.887360	-1.247226	6
C	0.505372	1.323589	-0.013136	6
C	1.948742	1.281219	-0.012216	6
N	3.099262	1.247459	-0.011476	7
H	-2.023238	0.682379	-0.893896	1
H	-2.024718	0.700899	0.876184	1
H	-2.228978	-0.826221	0.006844	1
H	-0.035398	-0.297191	2.172174	1
H	1.280652	-1.091411	1.292784	1
H	-0.328598	-1.814880	1.311684	1
H	-0.031478	-0.341861	-2.165516	1
H	-0.326668	-1.841330	-1.274396	1
H	1.282752	-1.118160	-1.267516	1
H	0.164862	1.899559	0.857114	1
H	0.165552	1.881859	-0.895116	1
Es	0.040375	-0.510131	-1.862145	99
Es	2.565795	0.983084	0.067886	99
Es	3.477022	1.236262	-0.010598	99
Es	0.946429	-1.038172	-1.256468	99
Es	0.298179	1.701322	0.565324	99
Es	0.212468	-0.887340	-1.247207	99
Es	-0.164091	-1.528553	-1.258164	99
Es	0.298502	1.689731	-0.599281	99
Es	0.027791	-0.473474	-0.627802	99
Es	2.582140	1.470019	0.194277	99
Es	-2.054768	-0.518828	0.003710	99
Es	0.210368	-0.861391	1.265773	99
Es	0.037074	-0.471671	1.872510	99
Es	0.213421	0.649111	-0.006441	99
Es	0.944344	-1.011776	1.279444	99
Es	1.948355	1.281230	-0.012207	99
Es	1.275807	1.294458	-0.012553	99
Es	-1.699807	0.133389	-0.002745	99
Es	0.026729	-0.460344	0.637700	99
Es	-1.916881	0.521648	0.594248	99
Es	-0.166099	-1.502424	1.289221	99
Es	2.580406	1.333445	-0.298239	99
Es	-1.915882	0.509231	-0.608011	99
Es	-0.171125	-0.070462	0.000652	99
Es	-0.938396	0.042781	-0.001136	99
Es	3.098826	1.247472	-0.011477	99
Es	0.505536	1.323577	-0.013136	99
45
Properties=species:S:1:pos:R:3:Z:I:1 energy=-288.16561389917837 field_type=dipole dipole="0.000000 0.000000 0.000000" charge=0
C	-1.699828	0.133379	-0.002736	6
C	-0.171148	-0.070521	0.000654	6
C	0.210382	-0.861411	1.265794	6
C	0.212482	-0.887360	-1.247226	6
C	0.505372	1.323589	-0.013136	6
C	1.948742	1.281219	-0.012216	6
N	3.099262	1.247459	-0.011476	7
H	-2.023238	0.682379	-0.893896	1
H	-2.024718	0.700899	0.876184	1
H	-2.228978	-0.826221	0.006844	1
H	-0.035398	-0.297191	2.172174	1
H	1.280652	-1.091411	1.292784	1
H	-0.328598	-1.814880	1.311684	1
H	-0.031478	-0.341861	-2.165516	1
H	-0.326668	-1.841330	-1.274396	1
H	1.282752	-1.118160	-1.267516	1
H	0.164862	1.899559	0.857114	1
H	0.165552	1.881859	-0.895116	1
Es	-0.938284	0.042892	-0.001282	99
Es	-1.915841	0.509015	-0.607754	99
Es	0.037021	-0.471671	1.872352	99
Es	0.297920	1.701349	0.565372	99
Es	-1.699806	0.133384	-0.002736	99
Es	0.040390	-0.510350	-1.861888	99
Es	3.098823	1.247471	-0.011476	99
Es	0.210368	-0.861392	1.265773	99
Es	0.298542	1.689503	-0.599139	99
Es	1.275912	1.294524	-0.012765	99
Es	-1.916984	0.521703	0.594050	99
Es	-0.164170	-1.528600	-1.258169	99
Es	0.213569	0.649239	-0.006488	99
Es	-0.171124	-0.070465	0.000652	99
Es	3.477101	1.236534	-0.011940	99
Es	-2.054879	-0.518723	0.003689	99
Es	0.212468	-0.887340	-1.247206	99
Es	0.944474	-1.011677	1.279418	99
Es	0.946544	-1.037993	-1.256601	99
Es	1.948354	1.281228	-0.012217	99
Es	0.026674	-0.460503	0.637840	99
Es	0.027796	-0.473332	-0.627857	99
Es	2.582197	1.482879	-0.204309	99
Es	0.505536	1.323577	-0.013136	99
Es	-0.166163	-1.502375	1.289223	99
Es	2.566470	0.989352	-0.109073	99
Es	2.579608	1.313964	0.278804	99
45
Properties=species:S:1:pos:R:3:Z:I:1 energy=-288.16561389917837 field_type=dipole dipole="0.000000 0.000000 0.000000" charge=0
C	-1.699828	0.133379	-0.002736	6
C	-0.171148	-0.070521	0.000654	6
C	0.210382	-0.861411	1.265794	6
C	0.212482	-0.887360	-1.247226	6
C	0.505372	1.323589	-0.013136	6
C	1.948742	1.281219	-0.012216	6
N	3.099262	1.247459	-0.011476	7
H	-2.023238	0.682379	-0.893896	1
H	-2.024718	0.700899	0.876184	1
H	-2.228978	-0.826221	0.006844	1
H	-0.035398	-0.297191	2.172174	1
H	1.280652	-1.091411	1.292784	1
H	-0.328598	-1.814880	1.311684	1
H	-0.031478	-0.341861	-2.165516	1
H	-0.326668	-1.841330	-1.274396	1
H	1.282752	-1.118160	-1.267516	1
H	0.164862	1.899559	0.857114	1
H	0.165552	1.881859	-0.895116	1
Es	0.027811	-0.473411	-0.627880	99
Es	0.212467	-0.887338	-1.247205	99
Es	2.565660	0.978823	-0.068027	99
Es	0.944556	-1.011588	1.279606	99
Es	-2.054884	-0.518701	0.003830	99
Es	-1.915978	0.509074	-0.607781	99
Es	1.275941	1.294456	-0.012479	99
Es	0.037015	-0.471872	1.872125	99
Es	0.946616	-1.038077	-1.256531	99
Es	0.210367	-0.861389	1.265774	99
Es	3.477167	1.235951	-0.011665	99
Es	2.580326	1.357336	0.267812	99
Es	0.505535	1.323579	-0.013137	99
Es	0.298452	1.689547	-0.599152	99
Es	-0.164254	-1.528464	-1.258110	99
Es	0.298028	1.701256	0.565152	99
Es	-0.938355	0.042797	-0.001075	99
Es	-0.171127	-0.070466	0.000652	99
Es	0.213510	0.649278	-0.006464	99
Es	-1.699806	0.133384	-0.002736	99
Es	0.026777	-0.460325	0.637639	99
Es	-0.166187	-1.502359	1.289256	99
Es	-1.916890	0.521584	0.593921	99
Es	2.582266	1.450673	-0.234833	99
Es	3.098823	1.247471	-0.011476	99
Es	0.040331	-0.510249	-1.861866	99
Es	1.948353	1.281226	-0.012215	99
45
Properties=species:S:1:pos:R:3:Z:I:1 energy=-288.16561389917837 field_type=dipole dipole="0.000000 0.000000 0.000000" charge=0
C	-1.699828	0.133379	-0.002736	6
C	-0.171148	-0.070521	0.000654	6
C	0.210382	-0.861411	1.265794	6
C	0.212482	-0.887360	-1.247226	6
C	0.505372	1.323589	-0.013136	6
C	1.948742	1.281219	-0.012216	6
N	3.099262	1.247459	-0.011476	7
H	-2.023238	0.682379	-0.893896	1
H	-2.024718	0.700899	0.876184	1
H	-2.228978	-0.826221	0.006844	1
H	-0.035398	-0.297191	2.172174	1
H	1.280652	-1.091411	1.292784	1
H	-0.328598	-1.814880	1.311684	1
H	-0.031478	-0.341861	-2.165516	1
H	-0.326668	-1.841330	-1.274396	1
H	1.282752	-1.118160	-1.267516	1
H	0.164862	1.899559	0.857114	1
H	0.165552	1.881859	-0.895116	1
Es	-2.055050	-0.518726	0.003807	99
Es	-0.166228	-1.502244	1.289278	99
Es	0.210368	-0.861392	1.265774	99
Es	-1.699806	0.133384	-0.002737	99
Es	2.581046	1.398540	0.249505	99
Es	1.276055	1.294623	-0.012543	99
Es	1.948352	1.281226	-0.012217	99
Es	-0.171126	-0.070464	0.000654	99
Es	0.213410	0.649263	-0.006479	99
Es	-0.938364	0.042846	-0.001118	99
Es	0.212467	-0.887340	-1.247205	99
Es	2.581715	1.413489	-0.263141	99
Es	0.298438	1.689502	-0.598923	99
Es	3.477198	1.235798	-0.011373	99
Es	-1.915904	0.509086	-0.607639	99
Es	0.505536	1.323578	-0.013137	99
Es	0.946739	-1.037992	-1.256555	99
Es	2.565467	0.974815	-0.021684	99
Es	-0.164312	-1.528409	-1.258159	99
Es	0.944655	-1.011603	1.279529	99
Es	0.037017	-0.471904	1.872051	99
Es	0.298089	1.701212	0.564941	99
Es	-1.916845	0.521582	0.593780	99
Es	0.040316	-0.510312	-1.861665	99
Es	3.098821	1.247471	-0.011479	99
Es	0.026733	-0.460391	0.637749	99
Es	0.027732	-0.473445	-0.627881	99
45
Properties=species:S:1:pos:R:3:Z:I:1 energy=-288.16561389917837 field_type=dipole dipole="0.000000 0.000000 0.000000" charge=0
C	-1.699828	0.133379	-0.002736	6
C	-0.171148	-0.070521	0.000654	6
C	0.210382	-0.861411	1.265794	6
C	0.212482	-0.887360	-1.247226	6
C	0.505372	1.323589	-0.013136	6
C	1.948742	1.281219	-0.012216	6
N	3.099262	1.247459	-0.011476	7
H	-2.023238	0.682379	-0.893896	1
H	-2.024718	0.700899	0.876184	1
H	-2.228978	-0.826221	0.006844	1
H	-0.035398	-0.297191	2.172174	1
H	1.280652	-1.091411	1.292784	1
H	-0.328598	-1.814880	1.311684	1
H	-0.031478	-0.341861	-2.165516	1
H	-0.326668	-1.841330	-1.274396	1
H	1.282752	-1.118160	-1.267516	1
H	0.164862	1.899559	0.857114	1
H	0.165552	1.881859	-0.895116	1
Es	0.298410	1.689401	-0.598916	99
Es	-0.938374	0.042887	-0.001175	99
Es	0.040401	-0.510450	-1.861466	99
Es	-1.699808	0.133389	-0.002729	99
Es	2.582140	1.469797	-0.217521	99
Es	2.579784	1.330962	0.275245	99
Es	0.210368	-0.861392	1.265774	99
Es	0.944743	-1.011613	1.279519	99
Es	2.566236	0.985710	-0.092359	99
Es	-1.917021	0.521631	0.593809	99
Es	0.297951	1.701205	0.565038	99
Es	3.098823	1.247471	-0.011476	99
Es	0.213562	0.649327	-0.006458	99
Es	-1.915908	0.508890	-0.607553	99
Es	0.027790	-0.473402	-0.627911	99
Es	-2.054949	-0.518592	0.003733	99
Es	0.037022	-0.471847	1.871874	99
Es	1.948353	1.281229	-0.012217	99
Es	0.946820	-1.038033	-1.256600	99
Es	-0.166432	-1.502180	1.289255	99
Es	0.505537	1.323578	-0.013136	99
Es	-0.164429	-1.528303	-1.258227	99
Es	1.276093	1.294470	-0.012768	99
Es	-0.171126	-0.070464	0.000653	99
Es	3.477278	1.236252	-0.011877	99
Es	0.212469	-0.887339	-1.247204	99
Es	0.026787	-0.460388	0.637829	99
45
Properties=species:S:1:pos:R:3:Z:I:1 energy=-288.16561389917837 field_type=dipole dipole="0.000000 0.000000 0.000000" charge=0
C	-1.699828	0.133379	-0.002736	6
C	-0.171148	-0.070521	0.000654	6
C	0.210382	-0.861411	1.265794	6
C	0.212482	-0.887360	-1.247226	6
C	0.505372	1.323589	-0.013136	6
C	1.948742	1.281219	-0.012216	6
N	3.099262	1.247459	-0.011476	7
H	-2.023238	0.682379	-0.893896	1
H	-2.024718	0.700899	0.876184	1
H	-2.228978	-0.826221	0.006844	1
H	-0.035398	-0.297191	2.172174	1
H	1.280652	-1.091411	1.292784	1
H	-0.328598	-1.814880	1.311684	1
H	-0.031478	-0.341861	-2.165516	1
H	-0.326668	-1.841330	-1.274396	1
H	1.282752	-1.118160	-1.267516	1
H	0.164862	1.899559	0.857114	1
H	0.165552	1.881859	-0.895116	1
Es	-1.915953	0.509032	-0.607568	99
Es	1.948354	1.281230	-0.012216	99
Es	0.212468	-0.887341	-1.247206	99
Es	-0.171127	-0.070465	0.000653	99
Es	0.944824	-1.011615	1.279552	99
Es	0.297923	1.701154	0.564892	99
Es	0.946931	-1.037931	-1.256508	99
Es	-0.938383	0.042834	-0.001141	99
Es	0.027773	-0.473462	-0.628045	99
Es	-0.166444	-1.502083	1.289375	99
Es	2.565561	0.976024	-0.033561	99
Es	0.298400	1.689341	-0.598777	99
Es	-1.699806	0.133384	-0.002736	99
Es	0.505537	1.323578	-0.013136	99
Es	2.581830	1.422803	-0.256654	99
Es	0.040327	-0.510443	-1.861409	99
Es	0.037082	-0.471983	1.871716	99
Es	-0.164460	-1.528265	-1.258163	99
Es	-1.916922	0.521499	0.593693	99
Es	2.580747	1.387942	0.254663	99
Es	0.213591	0.649198	-0.006432	99
Es	0.210367	-0.861392	1.265774	99
Es	1.276143	1.294699	-0.012495	99
Es	3.477313	1.235889	-0.011228	99
Es	0.026656	-0.460394	0.637783	99
Es	-2.055038	-0.518512	0.003786	99
Es	3.098823	1.247471	-0.011476	99
45
Properties=species:S:1:pos:R:3:Z:I:1 energy=-288.16561389917837 field_type=dipole dipole="0.000000 0.000000 0.000000" charge=0
C	-1.699828	0.133379	-0.002736	6
C	-0.171148	-0.070521	0.000654	6
C	0.210382	-0.861411	1.265794	6
C	0.212482	-0.887360	-1.247226	6
C	0.505372	1.323589	-0.013136	6
C	1.948742	1.281219	-0.012216	6
N	3.099262	1.247459	-0.011476	7
H	-2.023238	0.682379	-0.893896	1
H	-2.024718	0.700899	0.876184	1
H	-2.228978	-0.826221	0.006844	1
H	-0.035398	-0.297191	2.172174	1
H	1.280652	-1.091411	1.292784	1
H	-0.328598	-1.814880	1.311684	1
H	-0.031478	-0.341861	-2.165516	1
H	-0.326668	-1.841330	-1.274396	1
H	1.282752	-1.118160	-1.267516	1
H	0.164862	1.899559	0.857114	1
H	0.165552	1.881859	-0.895116	1
Es	-1.916935	0.521441	0.593609	99
Es	0.037159	-0.471968	1.871564	99
Es	-0.166641	-1.502033	1.289395	99
Es	0.505537	1.323577	-0.013136	99
Es	2.570308	1.061485	-0.224723	99
Es	0.298285	1.689336	-0.598849	99
Es	2.582571	1.540470	-0.083205	99
Es	-1.916006	0.508985	-0.607454	99
Es	0.027824	-0.473482	-0.628014	99
Es	0.040367	-0.510446	-1.861196	99
Es	0.210368	-0.861392	1.265774	99
Es	0.212468	-0.887340	-1.247206	99
Es	-2.055048	-0.518480	0.003794	99
Es	2.575150	1.183252	0.273339	99
Es	3.477405	1.237318	-0.011980	99
Es	-0.938383	0.042866	-0.001127	99
Es	0.944883	-1.011644	1.279523	99
Es	-0.171127	-0.070465	0.000654	99
Es	-0.164666	-1.528231	-1.258158	99
Es	1.276206	1.294665	-0.012710	99
Es	0.946990	-1.037942	-1.256596	99
Es	-1.699807	0.133382	-0.002736	99
Es	1.948353	1.281229	-0.012217	99
Es	0.297894	1.701080	0.564944	99
Es	3.098835	1.247470	-0.011476	99
Es	0.026744	-0.460365	0.637821	99
Es	0.213783	0.649424	-0.006495	99
45
Properties=species:S:1:pos:R:3:Z:I:1 energy=-288.16561389917837 field_type=dipole dipole="0.000000 0.000000 0.000000" charge=0
C	-1.699828	0.133379	-0.002736	6
C	-0.171148	-0.070521	0.000654	6
C	0.210382	-0.861411	1.265794	6
C	0.212482	-0.887360	-1.247226	6
C	0.505372	1.323589	-0.013136	6
C	1.948742	1.281219	-0.012216	6
N	3.099262	1.247459	-0.011476	7
H	-2.023238	0.682379	-0.893896	1
H	-2.024718	0.700899	0.876184	1
H	-2.228978	-0.826221	0.006844	1
H	-0.035398	-0.297191	2.172174	1
H	1.280652	-1.091411	1.292784	1
H	-0.328598	-1.814880	1.311684	1
H	-0.031478	-0.341861	-2.165516	1
H	-0.326668	-1.841330	-1.274396	1
H	1.282752	-1.118160	-1.267516	1
H	0.164862	1.899559	0.857114	1
H	0.165552	1.881859	-0.895116	1
Es	0.037165	-0.472115	1.871408	99
Es	0.026824	-0.460343	0.637899	99
Es	0.027813	-0.473293	-0.628120	99
Es	-0.938388	0.042873	-0.001130	99
Es	-0.166737	-1.502089	1.289325	99
Es	0.947062	-1.037958	-1.256592	99
Es	2.575036	1.175160	-0.294915	99
Es	-0.171127	-0.070465	0.000653	99
Es	-1.916985	0.521544	0.593498	99
Es	2.582783	1.541424	0.050326	99
Es	-0.164975	-1.528201	-1.258487	99
Es	0.505536	1.323577	-0.013136	99
Es	0.040674	-0.510523	-1.860791	99
Es	3.477446	1.236660	-0.010684	99
Es	-1.915924	0.508838	-0.607320	99
Es	0.297669	1.700903	0.565004	99
Es	0.213816	0.649341	-0.006706	99
Es	0.212467	-0.887340	-1.247205	99
Es	-2.055134	-0.518505	0.003788	99
Es	1.276252	1.294826	-0.012537	99
Es	1.948353	1.281236	-0.012216	99
Es	-1.699805	0.133384	-0.002736	99
Es	3.098822	1.247470	-0.011476	99
Es	0.944958	-1.011490	1.279568	99
Es	0.298361	1.689367	-0.598685	99
Es	2.570185	1.069305	0.208627	99
Es	0.210369	-0.861392	1.265774	99
45
Properties=species:S:1:pos:R:3:Z:I:1 energy=-288.16561389917837 field_type=dipole dipole="0.000000 0.000000 0.000000" charge=0
C	-1.699828	0.133379	-0.002736	6
C	-0.171148	-0.070521	0.000654	6
C	0.210382	-0.861411	1.265794	6
C	0.212482	-0.887360	-1.247226	6
C	0.505372	1.323589	-0.013136	6
C	1.948742	1.281219	-0.012216	6
N	3.099262	1.247459	-0.011476	7
H	-2.023238	0.682379	-0.893896	1
H	-2.024718	0.700899	0.876184	1
H	-2.228978	-0.826221	0.006844	1
H	-0.035398	-0.297191	2.172174	1
H	1.280652	-1.091411	1.292784	1
H	-0.328598	-1.814880	1.311684	1
H	-0.031478	-0.341861	-2.165516	1
H	-0.326668	-1.841330	-1.274396	1
H	1.282752	-1.118160	-1.267516	1
H	0.164862	1.899559	0.857114	1
H	0.165552	1.881859	-0.895116	1
Es	0.210368	-0.861391	1.265773	99
Es	-0.166639	-1.501933	1.289219	99
Es	0.036939	-0.471984	1.871455	99
Es	0.505535	1.323580	-0.013133	99
Es	2.567866	1.024741	0.156671	99
Es	-0.171126	-0.070464	0.000654	99
Es	2.577453	1.241391	-0.307398	99
Es	0.026752	-0.460401	0.637812	99
Es	3.477471	1.236728	-0.009957	99
Es	-0.164724	-1.528095	-1.258461	99
Es	0.298233	1.689111	-0.598664	99
Es	0.213963	0.649389	-0.006424	99
Es	3.098823	1.247471	-0.011476	99
Es	0.297648	1.701004	0.564925	99
Es	-1.917142	0.521510	0.593553	99
Es	0.027787	-0.473475	-0.628000	99
Es	0.945020	-1.011558	1.279603	99
Es	1.276304	1.294739	-0.012719	99
Es	2.582684	1.519798	0.114079	99
Es	0.212468	-0.887340	-1.247206	99
Es	-1.699806	0.133384	-0.002736	99
Es	0.947130	-1.037920	-1.256615	99
Es	-0.938400	0.042888	-0.001101	99
Es	-2.055068	-0.518396	0.003630	99
Es	1.948353	1.281229	-0.012217	99
Es	-1.915873	0.508795	-0.607266	99
Es	0.040502	-0.510604	-1.860863	99
45
Properties=species:S:1:pos:R:3:Z:I:1 energy=-288.16561389917837 field_type=dipole dipole="0.000000 0.000000 0.000000" charge=0
C	-1.699828	0.133379	-0.002736	6
C	-0.171148	-0.070521	0.000654	6
C	0.210382	-0.861411	1.265794	6
C	0.212482	-0.887360	-1.247226	6
C	0.505372	1.323589	-0.013136	6
C	1.948742	1.281219	-0.012216	6
N	3.099262	1.247459	-0.011476	7
H	-2.023238	0.682379	-0.893896	1
H	-2.024718	0.700899	0.876184	1
H	-2.228978	-0.826221	0.006844	1
H	-0.035398	-0.297191	2.172174	1
H	1.280652	-1.091411	1.292784	1
H	-0.328598	-1.814880	1.311684	1
H	-0.031478	-0.341861	-2.165516	1
H	-0.326668	-1.841330	-1.274396	1
H	1.282752	-1.118160	-1.267516	1
H	0.164862	1.899559	0.857114	1
H	0.165552	1.881859	-0.895116	1
Es	-0.164722	-1.528039	-1.258030	99
Es	0.037197	-0.472140	1.871114	99
Es	3.098823	1.247471	-0.011476	99
Es	0.213807	0.649433	-0.006487	99
Es	0.505536	1.323577	-0.013138	99
Es	3.477518	1.237257	-0.010946	99
Es	-1.916110	0.509061	-0.607296	99
Es	-0.938418	0.042916	-0.001160	99
Es	0.026792	-0.460441	0.637852	99
Es	2.569172	1.036922	0.168721	99
Es	-0.166790	-1.501917	1.289545	99
Es	0.947168	-1.037923	-1.256614	99
Es	-0.171127	-0.070466	0.000652	99
Es	1.276335	1.294711	-0.012438	99
Es	0.212467	-0.887339	-1.247205	99
Es	0.040211	-0.510503	-1.861036	99
Es	0.945074	-1.011518	1.279654	99
Es	1.948351	1.281240	-0.012222	99
Es	0.210367	-0.861391	1.265773	99
Es	-1.699812	0.133384	-0.002733	99
Es	0.298136	1.689317	-0.598718	99
Es	-2.055038	-0.518361	0.003726	99
Es	0.027835	-0.473448	-0.628069	99
Es	2.582351	1.527804	0.101037	99
Es	0.297912	1.700869	0.564696	99
Es	2.576437	1.220516	-0.305583	99
Es	-1.916956	0.521202	0.593518	99
