45
Properties=species:S:1:pos:R:3:Z:I:1 energy=-288.1639189305001 field_type=dipole dipole="0.000000 0.000000 0.000000" charge=0
C	-1.647162	-0.474318	1.163361	6
C	-0.261722	-0.333168	0.526181	6
C	0.132798	-1.649078	-0.145579	6
C	-0.262072	0.855862	-0.457069	6
C	1.078628	1.148292	-1.136209	6
C	2.116128	1.548242	-0.176409	6
N	2.937288	1.863692	0.579291	7
H	-1.930562	0.445122	1.686501	1
H	-1.658552	-1.289768	1.894381	1
H	-2.412472	-0.685418	0.408601	1
H	0.453188	-0.133008	1.333611	1
H	-0.506462	-1.861618	-1.009039	1
H	0.042188	-2.485738	0.555711	1
H	1.172178	-1.626068	-0.486579	1
H	-0.591672	1.756822	0.077881	1
H	-1.008822	0.672252	-1.240729	1
H	0.932098	1.963312	-1.855299	1
H	1.415008	0.284582	-1.718609	1
Es	0.068402	-2.214370	0.334107	99
Es	0.995821	1.699475	-1.600032	99
Es	-0.763208	0.726491	-0.998709	99
Es	1.078738	1.148339	-1.136082	99
Es	1.318594	0.575125	-1.506870	99
Es	0.132799	-1.649059	-0.145578	99
Es	2.115879	1.548148	-0.176651	99
Es	-0.962646	-0.401158	0.839298	99
Es	0.842241	-1.626806	-0.382472	99
Es	0.451856	1.002728	-0.785261	99
Es	-0.062719	-0.992968	0.176932	99
Es	1.631120	1.357347	-0.622579	99
Es	-0.479496	1.471460	-0.093584	99
Es	2.936970	1.863570	0.579007	99
Es	-1.838656	0.156298	1.517178	99
Es	-0.261758	-0.333165	0.526126	99
Es	3.196752	1.963702	0.819963	99
Es	2.529610	2.016609	0.153931	99
Es	-2.166182	-0.618168	0.641470	99
Es	-0.307148	-1.787588	-0.737087	99
Es	-0.261986	0.855865	-0.457103	99
Es	-1.647146	-0.474314	1.163350	99
Es	-0.246755	0.265161	0.018793	99
Es	0.228230	-0.193058	1.072108	99
Es	-1.650886	-1.031882	1.659222	99
Es	2.768745	1.541868	0.092146	99
Es	2.396312	1.604666	0.468056	99
45
Properties=species:S:1:pos:R:3:Z:I:1 energy=-288.1639189305001 field_type=dipole dipole="0.000000 0.000000 0.000000" charge=0
C	-1.647162	-0.474318	1.163361	6
C	-0.261722	-0.333168	0.526181	6
C	0.132798	-1.649078	-0.145579	6
C	-0.262072	0.855862	-0.457069	6
C	1.078628	1.148292	-1.136209	6
C	2.116128	1.548242	-0.176409	6
N	2.937288	1.863692	0.579291	7
H	-1.930562	0.445122	1.686501	1
H	-1.658552	-1.289768	1.894381	1
H	-2.412472	-0.685418	0.408601	1
H	0.453188	-0.133008	1.333611	1
H	-0.506462	-1.861618	-1.009039	1
H	0.042188	-2.485738	0.555711	1
H	1.172178	-1.626068	-0.486579	1
H	-0.591672	1.756822	0.077881	1
H	-1.008822	0.672252	-1.240729	1
H	0.932098	1.963312	-1.855299	1
H	1.415008	0.284582	-1.718609	1
Es	-1.649556	-1.030010	1.659106	99
Es	-0.062966	-0.993167	0.177140	99
Es	2.736137	1.488942	0.148873	99
Es	1.078738	1.148339	-1.136080	99
Es	0.994917	1.697742	-1.600078	99
Es	3.199361	1.964616	0.822627	99
Es	0.841897	-1.626699	-0.380601	99
Es	2.367227	1.683305	0.464177	99
Es	-1.647146	-0.474313	1.163348	99
Es	-0.477718	1.470040	-0.093186	99
Es	-0.962701	-0.401177	0.839191	99
Es	-0.765534	0.726175	-1.000865	99
Es	-0.247070	0.265160	0.018893	99
Es	-0.309344	-1.788652	-0.739489	99
Es	-0.261985	0.855865	-0.457103	99
Es	-2.168667	-0.618933	0.639341	99
Es	0.452124	1.002871	-0.785356	99
Es	2.115876	1.548141	-0.176662	99
Es	2.589277	1.990235	0.099094	99
Es	1.316861	0.576098	-1.506964	99
Es	-1.836961	0.155092	1.517703	99
Es	0.132797	-1.649054	-0.145578	99
Es	-0.261755	-0.333164	0.526128	99
Es	0.230317	-0.192389	1.074297	99
Es	1.632637	1.357836	-0.621247	99
Es	0.069742	-2.212152	0.333966	99
Es	2.936976	1.863572	0.579005	99
45
Properties=species:S:1:pos:R:3:Z:I:1 energy=-288.1639189305001 field_type=dipole dipole="0.000000 0.000000 0.000000" charge=0
C	-1.647162	-0.474318	1.163361	6
C	-0.261722	-0.333168	0.526181	6
C	0.132798	-1.649078	-0.145579	6
C	-0.262072	0.855862	-0.457069	6
C	1.078628	1.148292	-1.136209	6
C	2.116128	1.548242	-0.176409	6
N	2.937288	1.863692	0.579291	7
H	-1.930562	0.445122	1.686501	1
H	-1.658552	-1.289768	1.894381	1
H	-2.412472	-0.685418	0.408601	1
H	0.453188	-0.133008	1.333611	1
H	-0.506462	-1.861618	-1.009039	1
H	0.042188	-2.485738	0.555711	1
H	1.172178	-1.626068	-0.486579	1
H	-0.591672	1.756822	0.077881	1
H	-1.008822	0.672252	-1.240729	1
H	0.932098	1.963312	-1.855299	1
H	1.415008	0.284582	-1.718609	1
Es	2.115862	1.548140	-0.176653	99
Es	0.070528	-2.210622	0.333717	99
Es	2.750583	1.781187	0.009754	99
Es	-1.835909	0.154151	1.517956	99
Es	-0.261979	0.855867	-0.457105	99
Es	3.200722	1.965353	0.823442	99
Es	-0.261757	-0.333166	0.526127	99
Es	-0.766771	0.725992	-1.001895	99
Es	2.936971	1.863569	0.579000	99
Es	-0.962620	-0.401239	0.839041	99
Es	-0.476699	1.469153	-0.093133	99
Es	2.557429	1.444161	0.360710	99
Es	-0.310592	-1.789448	-0.740508	99
Es	1.315951	0.576813	-1.506883	99
Es	-0.247135	0.265248	0.019050	99
Es	0.452159	1.002849	-0.785326	99
Es	1.633602	1.358145	-0.620706	99
Es	-1.647147	-0.474314	1.163350	99
Es	2.383424	1.936499	0.341209	99
Es	-2.170143	-0.619257	0.638391	99
Es	0.231351	-0.192118	1.075393	99
Es	-1.648904	-1.028763	1.658893	99
Es	0.132797	-1.649060	-0.145580	99
Es	1.078742	1.148338	-1.136074	99
Es	-0.063147	-0.993173	0.177260	99
Es	0.841736	-1.626686	-0.379642	99
Es	0.994429	1.696696	-1.600107	99
45
Properties=species:S:1:pos:R:3:Z:I:1 energy=-288.1639189305001 field_type=dipole dipole="0.000000 0.000000 0.000000" charge=0
C	-1.647162	-0.474318	1.163361	6
C	-0.261722	-0.333168	0.526181	6
C	0.132798	-1.649078	-0.145579	6
C	-0.262072	0.855862	-0.457069	6
C	1.078628	1.148292	-1.136209	6
C	2.116128	1.548242	-0.176409	6
N	2.937288	1.863692	0.579291	7
H	-1.930562	0.445122	1.686501	1
H	-1.658552	-1.289768	1.894381	1
H	-2.412472	-0.685418	0.408601	1
H	0.453188	-0.133008	1.333611	1
H	-0.506462	-1.861618	-1.009039	1
H	0.042188	-2.485738	0.555711	1
H	1.172178	-1.626068	-0.486579	1
H	-0.591672	1.756822	0.077881	1
H	-1.008822	0.672252	-1.240729	1
H	0.932098	1.963312	-1.855299	1
H	1.415008	0.284582	-1.718609	1
Es	-0.311212	-1.789769	-0.741255	99
Es	0.132800	-1.649060	-0.145580	99
Es	-1.647147	-0.474314	1.163349	99
Es	2.115867	1.548141	-0.176658	99
Es	2.356464	1.840612	0.409510	99
Es	0.841748	-1.626633	-0.378790	99
Es	-0.962557	-0.401158	0.838979	99
Es	2.693909	1.888921	0.026426	99
Es	2.936971	1.863570	0.579002	99
Es	1.078738	1.148341	-1.136076	99
Es	-0.261985	0.855865	-0.457104	99
Es	2.641145	1.431828	0.274811	99
Es	-0.767577	0.725883	-1.002515	99
Es	-2.170894	-0.619737	0.637756	99
Es	1.315219	0.577362	-1.506717	99
Es	-0.063412	-0.993352	0.177283	99
Es	1.634015	1.358188	-0.620120	99
Es	0.232067	-0.191855	1.076121	99
Es	0.070787	-2.209664	0.333466	99
Es	-0.261756	-0.333165	0.526128	99
Es	0.452423	1.002964	-0.785375	99
Es	0.994116	1.696023	-1.600165	99
Es	-0.476097	1.468391	-0.092994	99
Es	-1.648442	-1.027809	1.658798	99
Es	-0.247229	0.265205	0.019020	99
Es	3.200922	1.965919	0.824420	99
Es	-1.835403	0.153617	1.517962	99
45
Properties=species:S:1:pos:R:3:Z:I:1 energy=-288.1639189305001 field_type=dipole dipole="0.000000 0.000000 0.000000" charge=0
C	-1.647162	-0.474318	1.163361	6
C	-0.261722	-0.333168	0.526181	6
C	0.132798	-1.649078	-0.145579	6
C	-0.262072	0.855862	-0.457069	6
C	1.078628	1.148292	-1.136209	6
C	2.116128	1.548242	-0.176409	6
N	2.937288	1.863692	0.579291	7
H	-1.930562	0.445122	1.686501	1
H	-1.658552	-1.289768	1.894381	1
H	-2.412472	-0.685418	0.408601	1
H	0.453188	-0.133008	1.333611	1
H	-0.506462	-1.861618	-1.009039	1
H	0.042188	-2.485738	0.555711	1
H	1.172178	-1.626068	-0.486579	1
H	-0.591672	1.756822	0.077881	1
H	-1.008822	0.672252	-1.240729	1
H	0.932098	1.963312	-1.855299	1
H	1.415008	0.284582	-1.718609	1
Es	-0.768159	0.725845	-1.002838	99
Es	3.201495	1.965680	0.824927	99
Es	-0.063464	-0.993400	0.177415	99
Es	0.452738	1.003021	-0.785557	99
Es	-2.171439	-0.620085	0.637320	99
Es	0.841655	-1.626752	-0.378243	99
Es	-0.261755	-0.333166	0.526128	99
Es	-0.962535	-0.401182	0.838965	99
Es	1.314736	0.577776	-1.506600	99
Es	-0.247279	0.265106	0.019074	99
Es	0.132797	-1.649059	-0.145579	99
Es	1.634376	1.358083	-0.619691	99
Es	0.071073	-2.208805	0.333215	99
Es	2.115864	1.548143	-0.176665	99
Es	-1.834983	0.153288	1.518163	99
Es	-0.475641	1.467811	-0.093033	99
Es	2.378669	1.665077	0.458834	99
Es	-1.648043	-1.027105	1.658499	99
Es	1.078739	1.148338	-1.136077	99
Es	-0.311783	-1.790125	-0.741690	99
Es	2.737582	1.503874	0.140078	99
Es	0.232529	-0.191626	1.076586	99
Es	2.574770	1.992906	0.111389	99
Es	-0.261987	0.855865	-0.457104	99
Es	2.936971	1.863571	0.579002	99
Es	0.993704	1.695553	-1.600190	99
Es	-1.647148	-0.474314	1.163351	99
45
Properties=species:S:1:pos:R:3:Z:I:1 energy=-288.1639189305001 field_type=dipole dipole="0.000000 0.000000 0.000000" charge=0
C	-1.647162	-0.474318	1.163361	6
C	-0.261722	-0.333168	0.526181	6
C	0.132798	-1.649078	-0.145579	6
C	-0.262072	0.855862	-0.457069	6
C	1.078628	1.148292	-1.136209	6
C	2.116128	1.548242	-0.176409	6
N	2.937288	1.863692	0.579291	7
H	-1.930562	0.445122	1.686501	1
H	-1.658552	-1.289768	1.894381	1
H	-2.412472	-0.685418	0.408601	1
H	0.453188	-0.133008	1.333611	1
H	-0.506462	-1.861618	-1.009039	1
H	0.042188	-2.485738	0.555711	1
H	1.172178	-1.626068	-0.486579	1
H	-0.591672	1.756822	0.077881	1
H	-1.008822	0.672252	-1.240729	1
H	0.932098	1.963312	-1.855299	1
H	1.415008	0.284582	-1.718609	1
Es	3.201624	1.966302	0.825164	99
Es	0.452964	1.002910	-0.785351	99
Es	0.071332	-2.208017	0.333086	99
Es	2.936973	1.863572	0.579003	99
Es	1.078740	1.148337	-1.136077	99
Es	1.634660	1.358266	-0.619496	99
Es	2.115861	1.548142	-0.176664	99
Es	2.690158	1.453325	0.212420	99
Es	-2.171968	-0.620105	0.637053	99
Es	0.993415	1.695102	-1.600182	99
Es	-1.647147	-0.474314	1.163349	99
Es	0.132797	-1.649060	-0.145580	99
Es	2.359383	1.760807	0.439635	99
Es	-0.768452	0.725630	-1.003270	99
Es	-0.475432	1.467370	-0.093052	99
Es	-0.247460	0.265219	0.019103	99
Es	-0.312313	-1.790486	-0.741924	99
Es	0.232931	-0.191461	1.076899	99
Es	1.314454	0.578202	-1.506497	99
Es	-0.063402	-0.993327	0.177344	99
Es	-0.261756	-0.333166	0.526131	99
Es	-1.647760	-1.026674	1.658340	99
Es	-1.834420	0.152974	1.518272	99
Es	2.641416	1.947120	0.058081	99
Es	0.841605	-1.626813	-0.377870	99
Es	-0.261985	0.855865	-0.457104	99
Es	-0.962738	-0.401405	0.838865	99
45
Properties=species:S:1:pos:R:3:Z:I:1 energy=-288.1639189305001 field_type=dipole dipole="0.000000 0.000000 0.000000" charge=0
C	-1.647162	-0.474318	1.163361	6
C	-0.261722	-0.333168	0.526181	6
C	0.132798	-1.649078	-0.145579	6
C	-0.262072	0.855862	-0.457069	6
C	1.078628	1.148292	-1.136209	6
C	2.116128	1.548242	-0.176409	6
N	2.937288	1.863692	0.579291	7
H	-1.930562	0.445122	1.686501	1
H	-1.658552	-1.289768	1.894381	1
H	-2.412472	-0.685418	0.408601	1
H	0.453188	-0.133008	1.333611	1
H	-0.506462	-1.861618	-1.009039	1
H	0.042188	-2.485738	0.555711	1
H	1.172178	-1.626068	-0.486579	1
H	-0.591672	1.756822	0.077881	1
H	-1.008822	0.672252	-1.240729	1
H	0.932098	1.963312	-1.855299	1
H	1.415008	0.284582	-1.718609	1
Es	-1.834080	0.152691	1.518133	99
Es	-0.768853	0.725591	-1.003498	99
Es	1.078739	1.148341	-1.136080	99
Es	0.132795	-1.649059	-0.145577	99
Es	0.452998	1.003033	-0.785386	99
Es	-1.647147	-0.474314	1.163350	99
Es	0.841434	-1.626798	-0.377548	99
Es	-1.647537	-1.026259	1.658398	99
Es	-0.962725	-0.401323	0.838833	99
Es	-0.063465	-0.993428	0.177316	99
Es	0.233187	-0.191359	1.077205	99
Es	1.634825	1.358493	-0.619272	99
Es	3.201777	1.967758	0.824894	99
Es	0.071568	-2.207498	0.333077	99
Es	0.993265	1.694756	-1.600327	99
Es	-0.261985	0.855865	-0.457104	99
Es	2.364742	1.872199	0.386935	99
Es	-2.172281	-0.620246	0.636780	99
Es	2.614025	1.432993	0.303247	99
Es	-0.247396	0.265203	0.019157	99
Es	1.314034	0.578391	-1.506264	99
Es	2.712185	1.854443	0.020228	99
Es	-0.475024	1.467037	-0.093130	99
Es	2.115855	1.548127	-0.176648	99
Es	-0.312667	-1.790724	-0.742167	99
Es	2.936969	1.863569	0.579001	99
Es	-0.261756	-0.333166	0.526128	99
45
Properties=species:S:1:pos:R:3:Z:I:1 energy=-288.1639189305001 field_type=dipole dipole="0.000000 0.000000 0.000000" charge=0
C	-1.647162	-0.474318	1.163361	6
C	-0.261722	-0.333168	0.526181	6
C	0.132798	-1.649078	-0.145579	6
C	-0.262072	0.855862	-0.457069	6
C	1.078628	1.148292	-1.136209	6
C	2.116128	1.548242	-0.176409	6
N	2.937288	1.863692	0.579291	7
H	-1.930562	0.445122	1.686501	1
H	-1.658552	-1.289768	1.894381	1
H	-2.412472	-0.685418	0.408601	1
H	0.453188	-0.133008	1.333611	1
H	-0.506462	-1.861618	-1.009039	1
H	0.042188	-2.485738	0.555711	1
H	1.172178	-1.626068	-0.486579	1
H	-0.591672	1.756822	0.077881	1
H	-1.008822	0.672252	-1.240729	1
H	0.932098	1.963312	-1.855299	1
H	1.415008	0.284582	-1.718609	1
Es	1.313833	0.578636	-1.506284	99
Es	2.115851	1.548127	-0.176653	99
Es	3.202226	1.967464	0.824949	99
Es	-1.647147	-0.474314	1.163349	99
Es	1.635010	1.358494	-0.619145	99
Es	-1.833912	0.152460	1.518185	99
Es	-0.474773	1.466730	-0.093052	99
Es	0.233423	-0.191265	1.077399	99
Es	0.132797	-1.649060	-0.145577	99
Es	-1.647337	-1.025798	1.658228	99
Es	2.936971	1.863571	0.579002	99
Es	-0.063805	-0.993602	0.177386	99
Es	0.993067	1.694506	-1.600224	99
Es	-0.312905	-1.791075	-0.742311	99
Es	0.453105	1.002950	-0.785329	99
Es	-0.247428	0.265204	0.019188	99
Es	1.078740	1.148338	-1.136077	99
Es	-0.769121	0.725561	-1.003708	99
Es	-2.172534	-0.620511	0.636598	99
Es	0.841569	-1.626686	-0.377199	99
Es	2.720264	1.838793	0.017791	99
Es	-0.261755	-0.333164	0.526128	99
Es	0.071759	-2.206912	0.332680	99
Es	-0.962694	-0.401209	0.838848	99
Es	-0.261983	0.855868	-0.457102	99
Es	2.371919	1.887507	0.373607	99
Es	2.598340	1.433704	0.319002	99
45
Properties=species:S:1:pos:R:3:Z:I:1 energy=-288.1639189305001 field_type=dipole dipole="0.000000 0.000000 0.000000" charge=0
C	-1.647162	-0.474318	1.163361	6
C	-0.261722	-0.333168	0.526181	6
C	0.132798	-1.649078	-0.145579	6
C	-0.262072	0.855862	-0.457069	6
C	1.078628	1.148292	-1.136209	6
C	2.116128	1.548242	-0.176409	6
N	2.937288	1.863692	0.579291	7
H	-1.930562	0.445122	1.686501	1
H	-1.658552	-1.289768	1.894381	1
H	-2.412472	-0.685418	0.408601	1
H	0.453188	-0.133008	1.333611	1
H	-0.506462	-1.861618	-1.009039	1
H	0.042188	-2.485738	0.555711	1
H	1.172178	-1.626068	-0.486579	1
H	-0.591672	1.756822	0.077881	1
H	-1.008822	0.672252	-1.240729	1
H	0.932098	1.963312	-1.855299	1
H	1.415008	0.284582	-1.718609	1
Es	2.936972	1.863570	0.579002	99
Es	-1.647209	-1.025466	1.657949	99
Es	-0.474581	1.466482	-0.093069	99
Es	1.635433	1.358281	-0.619232	99
Es	2.765563	1.634247	0.055404	99
Es	-0.962758	-0.401246	0.838929	99
Es	2.115858	1.548137	-0.176662	99
Es	1.313660	0.578793	-1.506324	99
Es	-1.647147	-0.474314	1.163349	99
Es	-1.833667	0.152243	1.518365	99
Es	-0.247439	0.265297	0.019242	99
Es	1.078739	1.148339	-1.136079	99
Es	0.992926	1.694198	-1.600084	99
Es	-0.769310	0.725473	-1.003890	99
Es	-0.313221	-1.791231	-0.742410	99
Es	0.453200	1.002963	-0.785274	99
Es	-0.063662	-0.993769	0.177331	99
Es	0.233503	-0.191126	1.077523	99
Es	2.455138	1.525701	0.434277	99
Es	0.132797	-1.649059	-0.145580	99
Es	-0.261755	-0.333166	0.526130	99
Es	-2.172771	-0.620574	0.636411	99
Es	2.468870	2.001025	0.221101	99
Es	0.841549	-1.626742	-0.376973	99
Es	0.071877	-2.206454	0.332550	99
Es	-0.261986	0.855864	-0.457105	99
Es	3.202901	1.966849	0.824796	99
45
Properties=species:S:1:pos:R:3:Z:I:1 energy=-288.1639189305001 field_type=dipole dipole="0.000000 0.000000 0.000000" charge=0
C	-1.647162	-0.474318	1.163361	6
C	-0.261722	-0.333168	0.526181	6
C	0.132798	-1.649078	-0.145579	6
C	-0.262072	0.855862	-0.457069	6
C	1.078628	1.148292	-1.136209	6
C	2.116128	1.548242	-0.176409	6
N	2.937288	1.863692	0.579291	7
H	-1.930562	0.445122	1.686501	1
H	-1.658552	-1.289768	1.894381	1
H	-2.412472	-0.685418	0.408601	1
H	0.453188	-0.133008	1.333611	1
H	-0.506462	-1.861618	-1.009039	1
H	0.042188	-2.485738	0.555711	1
H	1.172178	-1.626068	-0.486579	1
H	-0.591672	1.756822	0.077881	1
H	-1.008822	0.672252	-1.240729	1
H	0.932098	1.963312	-1.855299	1
H	1.415008	0.284582	-1.718609	1
Es	0.841653	-1.626603	-0.376628	99
Es	0.992845	1.693997	-1.600468	99
Es	3.202664	1.967698	0.824927	99
Es	-0.769513	0.725365	-1.003955	99
Es	2.545513	1.449745	0.368241	99
Es	-0.063940	-0.993788	0.177334	99
Es	1.313430	0.578981	-1.505881	99
Es	-0.247529	0.265114	0.019233	99
Es	0.233784	-0.190877	1.077649	99
Es	-1.833641	0.152032	1.518216	99
Es	0.132797	-1.649060	-0.145580	99
Es	0.071926	-2.206015	0.332450	99
Es	2.115857	1.548146	-0.176657	99
Es	-0.261984	0.855864	-0.457105	99
Es	1.635466	1.358655	-0.619170	99
Es	-2.172911	-0.620838	0.636345	99
Es	-1.647147	-0.474314	1.163349	99
Es	-1.647024	-1.025148	1.658007	99
Es	-0.962683	-0.401154	0.838823	99
Es	-0.261755	-0.333165	0.526128	99
Es	-0.474508	1.466131	-0.093128	99
Es	2.397745	1.943049	0.322393	99
Es	0.453391	1.003139	-0.785295	99
Es	-0.313312	-1.791518	-0.742568	99
Es	2.936973	1.863570	0.579003	99
Es	1.078739	1.148338	-1.136078	99
Es	2.746645	1.766972	0.020093	99
45
Properties=species:S:1:pos:R:3:Z:I:1 energy=-288.1639189305001 field_type=dipole dipole="0.000000 0.000000 0.000000" charge=0
C	-1.647162	-0.474318	1.163361	6
C	-0.261722	-0.333168	0.526181	6
C	0.132798	-1.649078	-0.145579	6
C	-0.262072	0.855862	-0.457069	6
C	1.078628	1.148292	-1.136209	6
C	2.116128	1.548242	-0.176409	6
N	2.937288	1.863692	0.579291	7
H	-1.930562	0.445122	1.686501	1
H	-1.658552	-1.289768	1.894381	1
H	-2.412472	-0.685418	0.408601	1
H	0.453188	-0.133008	1.333611	1
H	-0.506462	-1.861618	-1.009039	1
H	0.042188	-2.485738	0.555711	1
H	1.172178	-1.626068	-0.486579	1
H	-0.591672	1.756822	0.077881	1
H	-1.008822	0.672252	-1.240729	1
H	0.932098	1.963312	-1.855299	1
H	1.415008	0.284582	-1.718609	1
Es	-1.833465	0.151973	1.518437	99
Es	-0.769651	0.725409	-1.004073	99
Es	-0.313543	-1.791570	-0.742612	99
Es	-0.064051	-0.993771	0.177470	99
Es	-0.261755	-0.333165	0.526128	99
Es	-1.646999	-1.024864	1.657690	99
Es	-2.173077	-0.620903	0.636272	99
Es	3.202667	1.967444	0.825250	99
Es	2.115855	1.548139	-0.176657	99
Es	1.635338	1.358534	-0.618835	99
Es	-0.474333	1.466015	-0.092902	99
Es	-1.647146	-0.474314	1.163349	99
Es	0.453642	1.003132	-0.785235	99
Es	0.992678	1.693924	-1.600128	99
Es	2.936977	1.863573	0.579008	99
Es	0.071922	-2.205593	0.331986	99
Es	-0.247559	0.265092	0.019176	99
Es	-0.261986	0.855864	-0.457104	99
Es	1.078740	1.148340	-1.136077	99
Es	2.618301	1.431971	0.297267	99
Es	0.233996	-0.190951	1.077731	99
Es	2.701725	1.870313	0.024009	99
Es	-0.962674	-0.401163	0.838809	99
Es	0.841756	-1.626842	-0.376415	99
Es	0.132797	-1.649059	-0.145580	99
Es	2.370134	1.857821	0.388891	99
Es	1.313193	0.578966	-1.506176	99
45
Properties=species:S:1:pos:R:3:Z:I:1 energy=-288.1639189305001 field_type=dipole dipole="0.000000 0.000000 0.000000" charge=0
C	-1.647162	-0.474318	1.163361	6
C	-0.261722	-0.333168	0.526181	6
C	0.132798	-1.649078	-0.145579	6
C	-0.262072	0.855862	-0.457069	6
C	1.078628	1.148292	-1.136209	6
C	2.116128	1.548242	-0.176409	6
N	2.937288	1.863692	0.579291	7
H	-1.930562	0.445122	1.686501	1
H	-1.658552	-1.289768	1.894381	1
H	-2.412472	-0.685418	0.408601	1
H	0.453188	-0.133008	1.333611	1
H	-0.506462	-1.861618	-1.009039	1
H	0.042188	-2.485738	0.555711	1
H	1.172178	-1.626068	-0.486579	1
H	-0.591672	1.756822	0.077881	1
H	-1.008822	0.672252	-1.240729	1
H	0.932098	1.963312	-1.855299	1
H	1.415008	0.284582	-1.718609	1
Es	-0.313722	-1.791673	-0.742662	99
Es	-0.962725	-0.401171	0.838793	99
Es	2.509597	2.007374	0.173130	99
Es	-1.647147	-0.474314	1.163349	99
Es	0.992619	1.693599	-1.600200	99
Es	0.453578	1.003128	-0.785232	99
Es	-0.064047	-0.993835	0.177371	99
Es	2.756540	1.578806	0.088929	99
Es	-2.173225	-0.621053	0.636181	99
Es	-0.474235	1.465800	-0.093033	99
Es	-0.769731	0.725394	-1.004215	99
Es	3.203196	1.967068	0.825014	99
Es	-0.261755	-0.333165	0.526129	99
Es	-1.646798	-1.024627	1.657628	99
Es	0.072066	-2.205385	0.332059	99
Es	1.313146	0.579186	-1.505990	99
Es	2.936971	1.863570	0.579002	99
Es	2.115857	1.548135	-0.176660	99
Es	-1.833292	0.151871	1.518434	99
Es	0.132797	-1.649059	-0.145579	99
Es	0.841646	-1.626763	-0.376325	99
Es	0.234058	-0.190957	1.077877	99
Es	-0.247577	0.265146	0.019256	99
Es	2.423156	1.574805	0.448543	99
Es	-0.261986	0.855862	-0.457103	99
Es	1.635755	1.358233	-0.618939	99
Es	1.078740	1.148339	-1.136076	99
45
Properties=species:S:1:pos:R:3:Z:I:1 energy=-288.1639189305001 field_type=dipole dipole="0.000000 0.000000 0.000000" charge=0
C	-1.647162	-0.474318	1.163361	6
C	-0.261722	-0.333168	0.526181	6
C	0.132798	-1.649078	-0.145579	6
C	-0.262072	0.855862	-0.457069	6
C	1.078628	1.148292	-1.136209	6
C	2.116128	1.548242	-0.176409	6
N	2.937288	1.863692	0.579291	7
H	-1.930562	0.445122	1.686501	1
H	-1.658552	-1.289768	1.894381	1
H	-2.412472	-0.685418	0.408601	1
H	0.453188	-0.133008	1.333611	1
H	-0.506462	-1.861618	-1.009039	1
H	0.042188	-2.485738	0.555711	1
H	1.172178	-1.626068	-0.486579	1
H	-0.591672	1.756822	0.077881	1
H	-1.008822	0.672252	-1.240729	1
H	0.932098	1.963312	-1.855299	1
H	1.415008	0.284582	-1.718609	1
Es	2.377593	1.894172	0.364830	99
Es	0.841570	-1.626622	-0.376180	99
Es	-0.313870	-1.791734	-0.742755	99
Es	0.453749	1.003247	-0.785258	99
Es	-1.646762	-1.024592	1.657707	99
Es	-0.962723	-0.401208	0.838812	99
Es	1.635564	1.358517	-0.618632	99
Es	-1.833097	0.151657	1.518337	99
Es	2.115852	1.548137	-0.176657	99
Es	3.202692	1.968652	0.825013	99
Es	-0.261986	0.855864	-0.457105	99
Es	0.992374	1.693586	-1.600475	99
Es	-2.173293	-0.620899	0.635988	99
Es	0.234158	-0.190899	1.078002	99
Es	0.132797	-1.649059	-0.145579	99
Es	0.072209	-2.205209	0.332023	99
Es	-0.769945	0.725330	-1.004250	99
Es	-0.064108	-0.993911	0.177428	99
Es	2.721818	1.829980	0.019820	99
Es	1.078740	1.148336	-1.136078	99
Es	-0.261753	-0.333166	0.526130	99
Es	2.936974	1.863571	0.579003	99
Es	-0.247466	0.265137	0.019282	99
Es	-1.647147	-0.474314	1.163349	99
Es	1.312872	0.579438	-1.505693	99
Es	-0.474089	1.465483	-0.093137	99
Es	2.590760	1.434820	0.325752	99
45
Properties=species:S:1:pos:R:3:Z:I:1 energy=-288.1639189305001 field_type=dipole dipole="0.000000 0.000000 0.000000" charge=0
C	-1.647162	-0.474318	1.163361	6
C	-0.261722	-0.333168	0.526181	6
C	0.132798	-1.649078	-0.145579	6
C	-0.262072	0.855862	-0.457069	6
C	1.078628	1.148292	-1.136209	6
C	2.116128	1.548242	-0.176409	6
N	2.937288	1.863692	0.579291	7
H	-1.930562	0.445122	1.686501	1
H	-1.658552	-1.289768	1.894381	1
H	-2.412472	-0.685418	0.408601	1
H	0.453188	-0.133008	1.333611	1
H	-0.506462	-1.861618	-1.009039	1
H	0.042188	-2.485738	0.555711	1
H	1.172178	-1.626068	-0.486579	1
H	-0.591672	1.756822	0.077881	1
H	-1.008822	0.672252	-1.240729	1
H	0.932098	1.963312	-1.855299	1
H	1.415008	0.284582	-1.718609	1
Es	0.841637	-1.626638	-0.375993	99
Es	0.234226	-0.190841	1.078049	99
Es	1.312853	0.579531	-1.505656	99
Es	3.203115	1.968133	0.824917	99
Es	2.428856	1.977013	0.274059	99
Es	2.936971	1.863571	0.579002	99
Es	-0.962794	-0.401150	0.838784	99
Es	-0.313985	-1.791878	-0.742789	99
Es	1.636030	1.358507	-0.619008	99
Es	-0.247674	0.265206	0.019296	99
Es	-0.261755	-0.333165	0.526128	99
Es	0.072232	-2.204878	0.331869	99
Es	0.132796	-1.649058	-0.145579	99
Es	0.453905	1.003207	-0.785201	99
Es	-0.770061	0.725385	-1.004291	99
Es	2.502403	1.478012	0.402436	99
Es	-0.474014	1.465248	-0.093229	99
Es	-2.173400	-0.621112	0.635985	99
Es	0.992406	1.693292	-1.600417	99
Es	-1.647147	-0.474314	1.163349	99
Es	-1.833032	0.151591	1.518256	99
Es	1.078741	1.148339	-1.136076	99
Es	-1.646622	-1.024353	1.657715	99
Es	2.115856	1.548137	-0.176662	99
Es	-0.261983	0.855864	-0.457105	99
Es	2.758078	1.704673	0.034397	99
Es	-0.064158	-0.994002	0.177444	99
45
Properties=species:S:1:pos:R:3:Z:I:1 energy=-288.1639189305001 field_type=dipole dipole="0.000000 0.000000 0.000000" charge=0
C	-1.647162	-0.474318	1.163361	6
C	-0.261722	-0.333168	0.526181	6
C	0.132798	-1.649078	-0.145579	6
C	-0.262072	0.855862	-0.457069	6
C	1.078628	1.148292	-1.136209	6
C	2.116128	1.548242	-0.176409	6
N	2.937288	1.863692	0.579291	7
H	-1.930562	0.445122	1.686501	1
H	-1.658552	-1.289768	1.894381	1
H	-2.412472	-0.685418	0.408601	1
H	0.453188	-0.133008	1.333611	1
H	-0.506462	-1.861618	-1.009039	1
H	0.042188	-2.485738	0.555711	1
H	1.172178	-1.626068	-0.486579	1
H	-0.591672	1.756822	0.077881	1
H	-1.008822	0.672252	-1.240729	1
H	0.932098	1.963312	-1.855299	1
H	1.415008	0.284582	-1.718609	1
Es	2.709643	1.476898	0.181445	99
Es	0.072136	-2.204651	0.331805	99
Es	-0.770143	0.725204	-1.004287	99
Es	-2.173551	-0.621172	0.635997	99
Es	0.453867	1.003146	-0.785189	99
Es	2.374952	1.710334	0.444903	99
Es	-1.646521	-1.024189	1.657579	99
Es	-0.261985	0.855864	-0.457104	99
Es	-1.832877	0.151536	1.518334	99
Es	-0.474001	1.465181	-0.093153	99
Es	-0.064202	-0.994086	0.177475	99
Es	1.078740	1.148341	-1.136077	99
Es	0.132796	-1.649059	-0.145580	99
Es	0.841717	-1.626750	-0.375837	99
Es	0.992334	1.693232	-1.600505	99
Es	2.115853	1.548133	-0.176657	99
Es	1.635767	1.357983	-0.618433	99
Es	2.605645	1.973330	0.083067	99
Es	2.936972	1.863571	0.579002	99
Es	0.234314	-0.190789	1.078033	99
Es	-0.261755	-0.333166	0.526128	99
Es	1.312778	0.579759	-1.505514	99
Es	-0.247521	0.265247	0.019140	99
Es	-0.314056	-1.791911	-0.742834	99
Es	-1.647147	-0.474314	1.163348	99
Es	3.202583	1.967755	0.825812	99
Es	-0.962855	-0.401111	0.838783	99
45
Properties=species:S:1:pos:R:3:Z:I:1 energy=-288.1639189305001 field_type=dipole dipole="0.000000 0.000000 0.000000" charge=0
C	-1.647162	-0.474318	1.163361	6
C	-0.261722	-0.333168	0.526181	6
C	0.132798	-1.649078	-0.145579	6
C	-0.262072	0.855862	-0.457069	6
C	1.078628	1.148292	-1.136209	6
C	2.116128	1.548242	-0.176409	6
N	2.937288	1.863692	0.579291	7
H	-1.930562	0.445122	1.686501	1
H	-1.658552	-1.289768	1.894381	1
H	-2.412472	-0.685418	0.408601	1
H	0.453188	-0.133008	1.333611	1
H	-0.506462	-1.861618	-1.009039	1
H	0.042188	-2.485738	0.555711	1
H	1.172178	-1.626068	-0.486579	1
H	-0.591672	1.756822	0.077881	1
H	-1.008822	0.672252	-1.240729	1
H	0.932098	1.963312	-1.855299	1
H	1.415008	0.284582	-1.718609	1
Es	-0.064310	-0.994064	0.177603	99
Es	1.312570	0.579488	-1.505724	99
Es	-0.962946	-0.401220	0.838700	99
Es	-2.173555	-0.621316	0.635927	99
Es	0.992312	1.693132	-1.600263	99
Es	1.078740	1.148340	-1.136077	99
Es	-1.647148	-0.474314	1.163349	99
Es	-0.247600	0.265160	0.019201	99
Es	-0.261986	0.855864	-0.457105	99
Es	-0.261755	-0.333165	0.526129	99
Es	2.936974	1.863572	0.579004	99
Es	2.754806	1.584402	0.088946	99
Es	-0.770134	0.725114	-1.004404	99
Es	0.454014	1.003339	-0.785238	99
Es	-0.473925	1.465264	-0.093008	99
Es	-0.314193	-1.792207	-0.742781	99
Es	0.132797	-1.649060	-0.145580	99
Es	0.072407	-2.204402	0.331455	99
Es	-1.832686	0.151762	1.518535	99
Es	-1.646427	-1.024016	1.657334	99
Es	2.509849	2.006256	0.173369	99
Es	1.635942	1.358015	-0.618511	99
Es	2.424458	1.570857	0.447884	99
Es	2.115854	1.548134	-0.176659	99
Es	0.841573	-1.626803	-0.375832	99
Es	3.203496	1.966797	0.825281	99
Es	0.234353	-0.190611	1.078144	99
45
Properties=species:S:1:pos:R:3:Z:I:1 energy=-288.1639189305001 field_type=dipole dipole="0.000000 0.000000 0.000000" charge=0
C	-1.647162	-0.474318	1.163361	6
C	-0.261722	-0.333168	0.526181	6
C	0.132798	-1.649078	-0.145579	6
C	-0.262072	0.855862	-0.457069	6
C	1.078628	1.148292	-1.136209	6
C	2.116128	1.548242	-0.176409	6
N	2.937288	1.863692	0.579291	7
H	-1.930562	0.445122	1.686501	1
H	-1.658552	-1.289768	1.894381	1
H	-2.412472	-0.685418	0.408601	1
H	0.453188	-0.133008	1.333611	1
H	-0.506462	-1.861618	-1.009039	1
H	0.042188	-2.485738	0.555711	1
H	1.172178	-1.626068	-0.486579	1
H	-0.591672	1.756822	0.077881	1
H	-1.008822	0.672252	-1.240729	1
H	0.932098	1.963312	-1.855299	1
H	1.415008	0.284582	-1.718609	1
Es	-1.646410	-1.023857	1.657365	99
Es	1.312526	0.579691	-1.505701	99
Es	0.234506	-0.190581	1.078111	99
Es	-0.064321	-0.994079	0.177541	99
Es	1.078740	1.148339	-1.136077	99
Es	0.454126	1.003326	-0.785214	99
Es	-0.247681	0.265197	0.019148	99
Es	-0.261985	0.855863	-0.457106	99
Es	-0.770270	0.725107	-1.004397	99
Es	1.636172	1.358049	-0.618698	99
Es	-1.832655	0.151503	1.518432	99
Es	2.115852	1.548130	-0.176657	99
Es	2.501434	2.006468	0.181912	99
Es	0.072406	-2.204159	0.331438	99
Es	0.841609	-1.626767	-0.375661	99
Es	-0.314295	-1.792276	-0.742839	99
Es	2.756218	1.592837	0.083889	99
Es	3.203454	1.967413	0.825134	99
Es	0.992169	1.693089	-1.600255	99
Es	-0.473868	1.465003	-0.093023	99
Es	2.936974	1.863572	0.579005	99
Es	-1.647148	-0.474314	1.163349	99
Es	-0.261755	-0.333165	0.526128	99
Es	-0.962780	-0.401243	0.838767	99
Es	2.431363	1.561556	0.444745	99
Es	-2.173695	-0.621326	0.635925	99
Es	0.132796	-1.649059	-0.145580	99
45
Properties=species:S:1:pos:R:3:Z:I:1 energy=-288.1639189305001 field_type=dipole dipole="0.000000 0.000000 0.000000" charge=0
C	-1.647162	-0.474318	1.163361	6
C	-0.261722	-0.333168	0.526181	6
C	0.132798	-1.649078	-0.145579	6
C	-0.262072	0.855862	-0.457069	6
C	1.078628	1.148292	-1.136209	6
C	2.116128	1.548242	-0.176409	6
N	2.937288	1.863692	0.579291	7
H	-1.930562	0.445122	1.686501	1
H	-1.658552	-1.289768	1.894381	1
H	-2.412472	-0.685418	0.408601	1
H	0.453188	-0.133008	1.333611	1
H	-0.506462	-1.861618	-1.009039	1
H	0.042188	-2.485738	0.555711	1
H	1.172178	-1.626068	-0.486579	1
H	-0.591672	1.756822	0.077881	1
H	-1.008822	0.672252	-1.240729	1
H	0.932098	1.963312	-1.855299	1
H	1.415008	0.284582	-1.718609	1
Es	0.992139	1.692950	-1.600196	99
Es	-0.261984	0.855864	-0.457105	99
Es	1.312617	0.579710	-1.505723	99
Es	2.936971	1.863571	0.579002	99
Es	-0.064338	-0.994250	0.177486	99
Es	2.115855	1.548135	-0.176661	99
Es	0.132797	-1.649059	-0.145580	99
Es	-0.247615	0.265162	0.019208	99
Es	-1.646524	-1.023599	1.657061	99
Es	0.454212	1.003108	-0.785158	99
Es	0.072228	-2.203785	0.331150	99
Es	-0.962784	-0.401181	0.838700	99
Es	2.478975	2.003266	0.207557	99
Es	-1.647146	-0.474314	1.163348	99
Es	-2.173712	-0.621437	0.635889	99
Es	0.234464	-0.190473	1.078212	99
Es	1.078740	1.148340	-1.136078	99
Es	0.841958	-1.626797	-0.375364	99
Es	-0.473831	1.465011	-0.092946	99
Es	2.453002	1.528023	0.434334	99
Es	-0.261755	-0.333165	0.526126	99
Es	-0.314347	-1.792330	-0.742892	99
Es	-0.770295	0.724992	-1.004435	99
Es	2.757387	1.628906	0.068464	99
Es	-1.832768	0.151372	1.518619	99
Es	3.203105	1.967679	0.825509	99
Es	1.636132	1.358619	-0.618849	99
45
Properties=species:S:1:pos:R:3:Z:I:1 energy=-288.1639189305001 field_type=dipole dipole="0.000000 0.000000 0.000000" charge=0
C	-1.647162	-0.474318	1.163361	6
C	-0.261722	-0.333168	0.526181	6
C	0.132798	-1.649078	-0.145579	6
C	-0.262072	0.855862	-0.457069	6
C	1.078628	1.148292	-1.136209	6
C	2.116128	1.548242	-0.176409	6
N	2.937288	1.863692	0.579291	7
H	-1.930562	0.445122	1.686501	1
H	-1.658552	-1.289768	1.894381	1
H	-2.412472	-0.685418	0.408601	1
H	0.453188	-0.133008	1.333611	1
H	-0.506462	-1.861618	-1.009039	1
H	0.042188	-2.485738	0.555711	1
H	1.172178	-1.626068	-0.486579	1
H	-0.591672	1.756822	0.077881	1
H	-1.008822	0.672252	-1.240729	1
H	0.932098	1.963312	-1.855299	1
H	1.415008	0.284582	-1.718609	1
Es	0.454456	1.003178	-0.785108	99
Es	-0.770337	0.724971	-1.004497	99
Es	1.312500	0.579908	-1.505548	99
Es	-0.261986	0.855864	-0.457105	99
Es	1.636309	1.358274	-0.618772	99
Es	2.757874	1.620563	0.070855	99
Es	-2.173817	-0.621508	0.635874	99
Es	-0.247764	0.265283	0.019436	99
Es	0.132796	-1.649060	-0.145580	99
Es	0.234561	-0.190501	1.078239	99
Es	-0.064452	-0.994327	0.177428	99
Es	-0.962817	-0.401147	0.838687	99
Es	-0.314426	-1.792358	-0.742908	99
Es	2.936972	1.863571	0.579003	99
Es	-1.647147	-0.474314	1.163349	99
Es	0.991905	1.692932	-1.600343	99
Es	-0.261754	-0.333164	0.526130	99
Es	3.203510	1.967592	0.825181	99
Es	0.841851	-1.626773	-0.375335	99
Es	-1.832580	0.151379	1.518621	99
Es	2.483488	2.003699	0.202666	99
Es	1.078741	1.148339	-1.136076	99
Es	2.115854	1.548136	-0.176661	99
Es	-0.473830	1.464745	-0.093202	99
Es	-1.646251	-1.023576	1.657068	99
Es	0.072328	-2.203721	0.331126	99
Es	2.447498	1.536329	0.437151	99
45
Properties=species:S:1:pos:R:3:Z:I:1 energy=-288.1639189305001 field_type=dipole dipole="0.000000 0.000000 0.000000" charge=0
C	-1.647162	-0.474318	1.163361	6
C	-0.261722	-0.333168	0.526181	6
C	0.132798	-1.649078	-0.145579	6
C	-0.262072	0.855862	-0.457069	6
C	1.078628	1.148292	-1.136209	6
C	2.116128	1.548242	-0.176409	6
N	2.937288	1.863692	0.579291	7
H	-1.930562	0.445122	1.686501	1
H	-1.658552	-1.289768	1.894381	1
H	-2.412472	-0.685418	0.408601	1
H	0.453188	-0.133008	1.333611	1
H	-0.506462	-1.861618	-1.009039	1
H	0.042188	-2.485738	0.555711	1
H	1.172178	-1.626068	-0.486579	1
H	-0.591672	1.756822	0.077881	1
H	-1.008822	0.672252	-1.240729	1
H	0.932098	1.963312	-1.855299	1
H	1.415008	0.284582	-1.718609	1
Es	-0.247773	0.265114	0.019181	99
Es	-1.647147	-0.474314	1.163349	99
Es	-0.064480	-0.994259	0.177494	99
Es	2.689957	1.886405	0.028966	99
Es	3.202887	1.968477	0.825503	99
Es	0.234665	-0.190436	1.078232	99
Es	-0.962871	-0.401252	0.838673	99
Es	-0.770457	0.725100	-1.004508	99
Es	0.991913	1.692731	-1.600225	99
Es	-0.261754	-0.333166	0.526129	99
Es	-1.646283	-1.023487	1.656980	99
Es	-0.314574	-1.792438	-0.742779	99
Es	0.454673	1.003491	-0.785170	99
Es	1.078739	1.148337	-1.136077	99
Es	2.373408	1.839672	0.393808	99
Es	-2.173903	-0.621455	0.635843	99
Es	-0.473703	1.464660	-0.093024	99
Es	2.626753	1.433025	0.287169	99
Es	1.635922	1.358765	-0.618359	99
Es	1.312025	0.579848	-1.505555	99
Es	0.132796	-1.649059	-0.145580	99
Es	0.072240	-2.203446	0.331039	99
Es	2.115852	1.548140	-0.176659	99
Es	0.842038	-1.626913	-0.375313	99
Es	2.936971	1.863571	0.579002	99
Es	-0.261986	0.855864	-0.457105	99
Es	-1.832427	0.151343	1.518667	99
