14
Properties=species:S:1:pos:R:3:Z:I:1 energy=-187.6911134121752 field_type=dipole dipole="0.000000 0.000000 0.000000" charge=0
O	-1.127569	0.000000	0.000000	8
O	1.127569	0.000000	0.000000	8
C	0.000000	0.000000	0.000000	6
Es	-0.822787	0.022802	0.268085	99
Es	-1.410551	0.000071	-0.000013	99
Es	-0.822798	-0.243642	-0.114233	99
Es	1.127106	0.000000	-0.000000	99
Es	0.822719	0.023409	-0.268016	99
Es	-1.127105	0.000000	0.000001	99
Es	0.000000	-0.000001	0.000000	99
Es	-0.822664	0.220768	-0.153838	99
Es	0.822725	0.220432	0.154354	99
Es	0.822816	-0.243903	0.113739	99
Es	1.410539	0.000064	-0.000080	99
14
Properties=species:S:1:pos:R:3:Z:I:1 energy=-187.69137730758695 field_type=dipole dipole="0.000000 0.000000 0.000000" charge=0
O	-1.131855	0.000000	0.000000	8
O	1.131855	0.000000	0.000000	8
C	0.000000	0.000000	0.000000	6
Es	0.826045	0.241956	0.117717	99
Es	-1.413915	0.000054	-0.000009	99
Es	0.826078	-0.019125	-0.268323	99
Es	-1.131389	0.000001	0.000001	99
Es	1.131390	0.000001	-0.000000	99
Es	-0.826129	0.016933	0.268520	99
Es	1.413929	0.000073	-0.000085	99
Es	0.826226	-0.222902	0.150688	99
Es	-0.826054	0.224050	-0.148977	99
Es	0.000000	0.000000	0.000001	99
Es	-0.826182	-0.241040	-0.119533	99
14
Properties=species:S:1:pos:R:3:Z:I:1 energy=-187.69145315258137 field_type=dipole dipole="0.000000 0.000000 0.000000" charge=0
O	-1.136140	0.000000	0.000000	8
O	1.136140	0.000000	0.000000	8
C	0.000000	0.000000	0.000000	6
Es	-0.829435	0.109163	-0.245834	99
Es	0.829443	-0.019697	0.268302	99
Es	0.829488	-0.222474	-0.151240	99
Es	0.829535	0.242199	-0.117092	99
Es	-0.829338	-0.267462	0.028542	99
Es	-0.829702	0.158496	0.217483	99
Es	-0.000000	-0.000000	0.000000	99
Es	-1.135673	0.000001	-0.000001	99
Es	1.417283	-0.000027	0.000031	99
Es	1.135675	-0.000000	-0.000001	99
Es	-1.417276	-0.000198	-0.000190	99
14
Properties=species:S:1:pos:R:3:Z:I:1 energy=-187.69134641922585 field_type=dipole dipole="0.000000 0.000000 0.000000" charge=0
O	-1.140426	0.000000	0.000000	8
O	1.140426	0.000000	0.000000	8
C	0.000000	0.000000	0.000000	6
Es	0.833129	0.268803	0.012607	99
Es	1.139959	-0.000001	0.000002	99
Es	-1.420566	0.000088	0.000148	99
Es	0.832611	-0.145245	0.226340	99
Es	-1.139959	-0.000000	-0.000000	99
Es	-0.832830	-0.204731	0.174564	99
Es	0.832915	-0.123269	-0.239157	99
Es	-0.833046	-0.048895	-0.264577	99
Es	1.420568	-0.000286	0.000206	99
Es	-0.000000	-0.000000	0.000000	99
Es	-0.832780	0.253536	0.089868	99
14
Properties=species:S:1:pos:R:3:Z:I:1 energy=-187.6910623827651 field_type=dipole dipole="0.000000 0.000000 0.000000" charge=0
O	-1.144712	0.000000	0.000000	8
O	1.144712	0.000000	0.000000	8
C	0.000000	0.000000	0.000000	6
Es	0.836263	-0.193975	0.186395	99
Es	0.836212	0.258420	0.074726	99
Es	-0.836190	0.267472	-0.028741	99
Es	-0.836303	-0.158648	-0.217231	99
Es	0.836342	-0.064489	-0.261177	99
Es	-1.144243	0.000000	-0.000001	99
Es	-1.423868	0.000073	-0.000058	99
Es	1.144243	-0.000000	0.000001	99
Es	1.423875	0.000043	0.000054	99
Es	0.000000	0.000000	0.000000	99
Es	-0.836331	-0.108898	0.246031	99
14
Properties=species:S:1:pos:R:3:Z:I:1 energy=-187.6906062378776 field_type=dipole dipole="0.000000 0.000000 0.000000" charge=0
O	-1.148998	0.000000	0.000000	8
O	1.148998	0.000000	0.000000	8
C	0.000000	0.000000	0.000000	6
Es	-0.000000	-0.000000	-0.000000	99
Es	1.427215	-0.000032	0.000021	99
Es	-1.427172	0.000068	0.000117	99
Es	-1.148528	-0.000001	-0.000001	99
Es	0.839634	-0.263071	-0.055928	99
Es	-0.839576	0.027585	0.267531	99
Es	0.839623	0.083139	0.255798	99
Es	-0.839698	0.217910	-0.157695	99
Es	-0.839714	-0.245562	-0.109953	99
Es	0.839685	0.179961	-0.199891	99
Es	1.148529	0.000003	0.000000	99
14
Properties=species:S:1:pos:R:3:Z:I:1 energy=-187.68998322623457 field_type=dipole dipole="0.000000 0.000000 0.000000" charge=0
O	-1.153283	0.000000	0.000000	8
O	1.153283	0.000000	0.000000	8
C	0.000000	0.000000	0.000000	6
Es	0.843057	-0.137371	-0.231268	99
Es	0.843100	-0.131612	0.234477	99
Es	-0.000000	-0.000000	-0.000000	99
Es	-0.842969	-0.164725	0.212631	99
Es	-1.430486	0.000217	0.000209	99
Es	1.430481	0.000027	0.000046	99
Es	-1.152813	0.000000	0.000001	99
Es	-0.842886	0.266406	0.036141	99
Es	-0.843276	-0.101898	-0.248983	99
Es	0.842979	0.268956	-0.003254	99
Es	1.152814	0.000000	-0.000000	99
14
Properties=species:S:1:pos:R:3:Z:I:1 energy=-187.68919801895987 field_type=dipole dipole="0.000000 0.000000 0.000000" charge=0
O	-1.157569	0.000000	0.000000	8
O	1.157569	0.000000	0.000000	8
C	0.000000	0.000000	0.000000	6
Es	0.846363	0.081590	-0.256244	99
Es	1.433746	-0.000090	-0.000106	99
Es	-0.846487	-0.209365	-0.168781	99
Es	0.846380	-0.262680	0.057587	99
Es	-0.846557	-0.041620	0.265737	99
Es	-1.157098	0.000001	0.000000	99
Es	1.157098	0.000001	-0.000000	99
Es	-0.846316	0.250906	-0.096854	99
Es	0.000000	-0.000000	-0.000000	99
Es	-1.433718	0.000077	-0.000102	99
Es	0.846588	0.181179	0.198764	99
14
Properties=species:S:1:pos:R:3:Z:I:1 energy=-187.68825559326459 field_type=dipole dipole="0.000000 0.000000 0.000000" charge=0
O	-1.161855	0.000000	0.000000	8
O	1.161855	0.000000	0.000000	8
C	0.000000	0.000000	0.000000	6
Es	-0.000000	-0.000000	-0.000000	99
Es	0.849760	0.245780	0.109015	99
Es	0.849892	-0.028517	-0.267411	99
Es	-0.849793	0.208564	-0.169698	99
Es	-0.849935	0.042728	0.265490	99
Es	-1.437023	-0.000029	-0.000103	99
Es	1.161383	-0.000000	-0.000001	99
Es	0.849872	-0.217335	0.158329	99
Es	-0.849782	-0.251264	-0.095693	99
Es	-1.161383	0.000000	0.000002	99
Es	1.437010	0.000072	0.000070	99
14
Properties=species:S:1:pos:R:3:Z:I:1 energy=-187.68716096407675 field_type=dipole dipole="0.000000 0.000000 0.000000" charge=0
O	-1.166140	0.000000	0.000000	8
O	1.166140	0.000000	0.000000	8
C	0.000000	0.000000	0.000000	6
Es	-0.853255	0.153048	-0.221018	99
Es	-0.853226	0.114900	0.243074	99
Es	0.853218	-0.148530	0.224078	99
Es	1.440272	-0.000110	-0.000038	99
Es	0.000000	0.000000	0.000000	99
Es	-0.853232	-0.267946	-0.022051	99
Es	-1.165667	-0.000001	0.000002	99
Es	1.165669	0.000000	0.000002	99
Es	0.853175	-0.119736	-0.240681	99
Es	-1.440271	-0.000000	-0.000007	99
Es	0.853316	0.268376	0.016640	99
14
Properties=species:S:1:pos:R:3:Z:I:1 energy=-187.68591825512 field_type=dipole dipole="0.000000 0.000000 0.000000" charge=0
O	-1.170426	0.000000	0.000000	8
O	1.170426	0.000000	0.000000	8
C	0.000000	0.000000	0.000000	6
Es	-0.856596	-0.173278	0.205512	99
Es	-1.443513	-0.000089	-0.000040	99
Es	-0.000000	0.000000	0.000000	99
Es	1.443478	-0.000006	-0.000049	99
Es	1.169954	-0.000001	0.000001	99
Es	-0.856611	-0.091274	-0.252794	99
Es	0.856646	0.138929	0.230200	99
Es	-1.169953	0.000001	0.000001	99
Es	0.856669	-0.268764	0.005214	99
Es	0.856639	0.129842	-0.235367	99
Es	-0.856712	0.264640	0.047323	99
14
Properties=species:S:1:pos:R:3:Z:I:1 energy=-187.68453223596808 field_type=dipole dipole="0.000000 0.000000 0.000000" charge=0
O	-1.174712	0.000000	0.000000	8
O	1.174712	0.000000	0.000000	8
C	0.000000	0.000000	0.000000	6
Es	1.174237	-0.000002	-0.000000	99
Es	-0.859950	-0.177495	0.201815	99
Es	-0.860102	-0.085993	-0.254616	99
Es	-1.174238	-0.000001	-0.000002	99
Es	0.860030	0.094957	-0.251460	99
Es	0.860030	-0.265190	0.043519	99
Es	-0.860095	0.263563	0.052758	99
Es	1.446737	-0.000039	0.000006	99
Es	-1.446731	-0.000074	0.000046	99
Es	0.860082	0.170274	0.207935	99
Es	0.000000	-0.000000	-0.000000	99
14
Properties=species:S:1:pos:R:3:Z:I:1 energy=-187.68300733688557 field_type=dipole dipole="0.000000 0.000000 0.000000" charge=0
O	-1.178998	0.000000	0.000000	8
O	1.178998	0.000000	0.000000	8
C	0.000000	0.000000	0.000000	6
Es	0.863567	-0.264851	-0.045241	99
Es	0.863582	0.171572	-0.206975	99
Es	-0.863365	0.264608	-0.047075	99
Es	-0.863474	-0.173113	-0.205527	99
Es	-0.000000	0.000000	-0.000001	99
Es	0.863258	0.093303	0.251968	99
Es	-0.863543	-0.091521	0.252617	99
Es	1.178525	0.000001	0.000000	99
Es	1.449912	-0.000026	0.000246	99
Es	-1.178525	0.000001	0.000001	99
Es	-1.449937	0.000026	-0.000014	99
14
Properties=species:S:1:pos:R:3:Z:I:1 energy=-187.68134829138864 field_type=dipole dipole="0.000000 0.000000 0.000000" charge=0
O	-1.183283	0.000000	0.000000	8
O	1.183283	0.000000	0.000000	8
C	0.000000	0.000000	0.000000	6
Es	1.453132	0.000023	-0.000077	99
Es	1.182809	-0.000001	0.000003	99
Es	-1.453098	0.000043	0.000136	99
Es	0.866860	0.238621	0.123517	99
Es	-0.867025	0.097246	-0.250483	99
Es	0.866957	-0.226227	0.144925	99
Es	0.866807	-0.012417	-0.268367	99
Es	-1.182809	0.000002	-0.000001	99
Es	-0.866829	-0.265614	0.040984	99
Es	-0.000000	0.000000	-0.000001	99
Es	-0.866803	0.168323	0.209364	99
14
Properties=species:S:1:pos:R:3:Z:I:1 energy=-187.67955855875064 field_type=dipole dipole="0.000000 0.000000 0.000000" charge=0
O	-1.187569	0.000000	0.000000	8
O	1.187569	0.000000	0.000000	8
C	0.000000	0.000000	0.000000	6
Es	1.456300	-0.000043	-0.000024	99
Es	-0.870243	-0.251711	-0.093871	99
Es	0.870402	0.243567	0.113228	99
Es	-1.187096	0.000001	0.000002	99
Es	-0.870170	0.044714	0.264863	99
Es	1.187094	-0.000000	-0.000000	99
Es	0.870182	-0.023751	-0.267630	99
Es	0.000000	0.000000	0.000000	99
Es	-1.456292	-0.000088	0.000141	99
Es	-0.870484	0.207085	-0.171135	99
Es	0.870306	-0.219773	0.154425	99
