10
Properties=species:S:1:pos:R:3:Z:I:1 energy=-40.21343211845962 field_type=dipole dipole="0.000000 0.000000 0.000000" charge=0
C	0.998260	-0.002460	-0.004360	6
H	2.090210	-0.002430	0.004140	1
H	0.633790	1.026860	0.004140	1
H	0.627040	-0.527730	0.878110	1
H	0.641360	-0.507470	-0.905400	1
Es	0.751546	0.694457	0.001439	99
Es	1.737540	-0.002427	0.001431	99
Es	0.756643	-0.344333	-0.614288	99
Es	0.998261	-0.002460	-0.004361	99
Es	0.746976	-0.358023	0.593157	99
