14
Properties=species:S:1:pos:R:3:Z:I:1 energy=-78.06427871491893 field_type=dipole dipole="0.000000 0.000000 0.000000" charge=0
C	0.989160	0.000100	0.000000	6
C	2.324920	-0.000170	-0.000000	6
H	0.429410	0.930140	0.000000	1
H	0.429070	-0.929850	0.000000	1
H	2.885000	0.929800	-0.000000	1
H	2.884670	-0.930200	0.000000	1
Es	2.711293	-0.625956	-0.000000	99
Es	2.711615	0.625475	-0.000003	99
Es	0.989053	0.000100	-0.000000	99
Es	0.602701	0.625862	-0.000014	99
Es	2.325025	-0.000169	-0.000004	99
Es	1.657038	0.000029	0.322914	99
Es	0.602550	-0.625586	0.000058	99
Es	1.657040	-0.000019	-0.322951	99
