27
Properties=species:S:1:pos:R:3:Z:I:1 energy=-173.28089055735273 field_type=dipole dipole="0.000000 0.000000 0.000000" charge=0
C	-1.239611	-0.008605	0.579296	6
N	0.213849	-0.079675	0.698436	7
C	0.850879	-0.748455	-0.430544	6
C	0.920349	0.749585	-0.271084	6
H	-1.624341	0.749155	1.269866	1
H	-1.681221	-0.969605	0.862736	1
H	-1.599181	0.242405	-0.426174	1
H	0.223419	-1.160965	-1.210554	1
H	1.735969	-1.326505	-0.194884	1
H	1.853749	1.181394	0.069916	1
H	0.346139	1.371275	-0.947014	1
Es	1.442908	-1.139348	-0.274025	99
Es	0.353170	-0.119284	1.008515	99
Es	-1.531726	-0.655058	0.765325	99
Es	1.002795	0.013198	-0.526982	99
Es	-1.239477	-0.008612	0.579303	99
Es	1.545214	1.042629	-0.043008	99
Es	0.524057	1.164455	-0.722969	99
Es	-0.419290	-0.042967	0.605616	99
Es	0.850801	-0.748269	-0.430399	99
Es	-1.495266	0.502587	1.037915	99
Es	0.213670	-0.079605	0.697851	99
Es	0.419786	-1.022306	-0.952563	99
Es	-1.470948	0.161728	-0.112737	99
Es	0.472384	0.407955	0.329029	99
Es	0.920239	0.749387	-0.270963	99
Es	0.433027	-0.499473	0.231651	99
