30
Properties=species:S:1:pos:R:3:Z:I:1 energy=-174.52711120725934 field_type=dipole dipole="0.000000 0.000000 0.000000" charge=0
C	-1.300289	-0.239857	0.420012	6
N	0.161661	-0.232907	0.416952	7
C	0.673681	-0.956407	-0.745708	6
C	0.666212	1.139203	0.427842	6
H	-1.685889	0.265693	1.312772	1
H	-1.680459	-1.267307	0.453232	1
H	-1.719949	0.254393	-0.464148	1
H	0.330842	-1.997367	-0.733098	1
H	1.769141	-0.987287	-0.728378	1
H	0.356761	-0.500697	-1.691238	1
H	0.315932	1.671343	1.319712	1
H	0.350892	1.704843	-0.456908	1
H	1.761461	1.146353	0.468952	1
Es	1.402119	1.139046	0.447673	99
Es	-0.482250	-0.219803	0.389303	99
Es	0.453103	-0.639223	-1.389769	99
Es	-1.554605	0.107295	1.017246	99
Es	1.409547	-0.967941	-0.733841	99
Es	0.673639	-0.956343	-0.745600	99
Es	-1.581197	0.100039	-0.187968	99
Es	-1.300161	-0.239860	0.420018	99
Es	0.422178	1.494824	1.024382	99
Es	0.161452	-0.232592	0.416378	99
Es	-1.550920	-0.931837	0.434594	99
Es	0.372067	-0.529685	-0.115209	99
Es	0.446690	1.520882	-0.180556	99
Es	0.666171	1.139083	0.427847	99
Es	0.368738	0.377096	0.392755	99
Es	0.434663	-1.652618	-0.737038	99
Es	0.265870	-0.383011	0.685581	99
