30
Properties=species:S:1:pos:R:3:Z:I:1 energy=-173.3166637784492 field_type=dipole dipole="0.000000 0.000000 0.000000" charge=0
C	-1.300289	-0.239857	0.420012	6
N	0.161661	-0.232907	0.416952	7
C	0.673681	-0.956407	-0.745708	6
C	0.666212	1.139203	0.427842	6
H	-1.685889	0.265693	1.312772	1
H	-1.680459	-1.267307	0.453232	1
H	-1.719949	0.254393	-0.464148	1
H	0.330842	-1.997367	-0.733098	1
H	1.769141	-0.987287	-0.728378	1
H	0.356761	-0.500697	-1.691238	1
H	0.315932	1.671343	1.319712	1
H	0.350892	1.704843	-0.456908	1
H	1.761461	1.146353	0.468952	1
Es	-1.560028	0.112062	1.026244	99
Es	-1.586764	0.103914	-0.194960	99
Es	-0.479954	-0.220193	0.389994	99
Es	-1.300167	-0.239854	0.420010	99
Es	0.273297	-0.393461	0.704393	99
Es	1.413508	1.140553	0.448329	99
Es	0.444936	1.527591	-0.187479	99
Es	0.432189	-1.663741	-0.737974	99
Es	0.673641	-0.956350	-0.745614	99
Es	-1.556316	-0.941960	0.435234	99
Es	0.451290	-0.636810	-1.399109	99
Es	0.666171	1.139089	0.427842	99
Es	1.420994	-0.969235	-0.734765	99
Es	0.419622	1.501438	1.033423	99
Es	0.161439	-0.232579	0.416375	99
Es	0.368118	0.374905	0.393112	99
Es	0.371404	-0.529079	-0.113058	99
