27
Properties=species:S:1:pos:R:3:Z:I:1 energy=-173.30553513540184 field_type=dipole dipole="0.000000 0.000000 0.000000" charge=0
N	-1.425706	-0.857731	-0.424904	7
C	-0.012166	-0.746121	-0.104294	6
C	0.410474	0.685479	-0.157484	6
C	0.949874	1.355269	0.871456	6
H	-1.704706	-1.834271	-0.356194	1
H	-1.572816	-0.590591	-1.395864	1
H	0.576464	-1.327031	-0.823254	1
H	0.166064	-1.174331	0.888126	1
H	0.273704	1.205949	-1.101704	1
H	1.104254	0.886159	1.837656	1
H	1.234555	2.397219	0.766456	1
Es	1.056492	1.041770	1.521185	99
Es	0.200865	-0.027493	-0.129401	99
Es	-1.614490	-0.659726	-0.212739	99
Es	0.311035	1.023760	-0.799153	99
Es	0.107149	-1.030705	0.564290	99
Es	1.144435	2.054668	0.806996	99
Es	-1.496391	-0.707133	-1.017072	99
Es	-0.012300	-0.746073	-0.104341	99
Es	0.973911	0.927294	0.268324	99
Es	0.399189	1.108716	0.455842	99
Es	0.410437	0.685406	-0.157544	99
Es	0.396331	-1.127441	-0.591313	99
Es	-0.796769	-0.817731	-0.303472	99
Es	0.949909	1.355302	0.871506	99
Es	-1.574858	-1.451824	-0.394115	99
Es	-1.425401	-0.858025	-0.425221	99
