14
Properties=species:S:1:pos:R:3:Z:I:1 energy=-78.05543859664057 field_type=dipole dipole="0.000000 0.000000 0.000000" charge=0
C	0.989160	0.000100	0.000000	6
C	2.324920	-0.000170	-0.000000	6
H	0.429410	0.930140	0.000000	1
H	0.429070	-0.929850	0.000000	1
H	2.885000	0.929800	-0.000000	1
H	2.884670	-0.930200	0.000000	1
Es	2.709628	0.628140	0.000010	99
Es	1.657069	0.000097	-0.307999	99
Es	0.604652	0.628410	0.000218	99
Es	0.989238	0.000098	0.000000	99
Es	2.324842	-0.000168	0.000001	99
Es	2.709378	-0.628500	-0.000104	99
Es	1.657021	-0.000115	0.307929	99
Es	0.604487	-0.628227	-0.000055	99
