14
Properties=species:S:1:pos:R:3:Z:I:1 energy=-187.67518181127477 field_type=dipole dipole="0.000000 0.000000 0.000000" charge=0
O	-1.197000	0.000000	0.000000	8
O	1.197000	0.000000	0.000000	8
C	0.000000	0.000000	0.000000	6
Es	1.141243	0.033531	0.264761	99
Es	-0.000004	0.000000	-0.000000	99
Es	1.197129	-0.000000	-0.000000	99
Es	0.670455	-0.000181	-0.000170	99
Es	-0.670433	-0.000020	0.000269	99
Es	1.141404	0.212553	-0.161314	99
Es	-1.141380	-0.253155	-0.084297	99
Es	-1.197129	0.000000	-0.000000	99
Es	-1.141789	0.053746	0.261274	99
Es	-1.141109	0.199426	-0.177237	99
Es	1.141613	-0.245900	-0.103285	99
