14
Properties=species:S:1:pos:R:3:Z:I:1 energy=-187.6885743178579 field_type=dipole dipole="0.000000 0.000000 0.000000" charge=0
O	-1.160482	0.000000	-0.000000	8
O	1.160482	0.000000	-0.000000	8
C	-0.000000	-0.000000	0.000000	6
Es	1.160507	-0.000006	0.000013	99
Es	-0.666432	-0.089135	0.021111	99
Es	-1.162415	-0.157027	-0.197997	99
Es	0.882294	0.096223	0.264277	99
Es	-1.001532	0.272065	-0.075724	99
Es	-1.147921	-0.027607	0.254277	99
Es	1.125548	-0.258381	0.040016	99
Es	-1.160516	0.000013	-0.000005	99
Es	1.253276	0.191226	-0.114135	99
Es	-0.000094	-0.000005	-0.000001	99
Es	0.717285	-0.027365	-0.191830	99
