10
Properties=species:S:1:pos:R:3:Z:I:1 energy=-40.20898433575473 field_type=dipole dipole="0.000000 0.000000 0.000000" charge=0
C	0.998260	-0.002460	-0.004360	6
H	2.090210	-0.002430	0.004140	1
H	0.633790	1.026860	0.004140	1
H	0.627040	-0.527730	0.878110	1
H	0.641360	-0.507470	-0.905400	1
Es	0.998260	-0.002460	-0.004361	99
Es	1.736621	-0.002399	0.001444	99
Es	0.756957	-0.343893	-0.613548	99
Es	0.747283	-0.357589	0.592396	99
Es	0.751844	0.693555	0.001449	99
10
Properties=species:S:1:pos:R:3:Z:I:1 energy=-40.20898433575473 field_type=dipole dipole="0.000000 0.000000 0.000000" charge=0
C	0.998260	-0.002460	-0.004360	6
H	2.090210	-0.002430	0.004140	1
H	0.633790	1.026860	0.004140	1
H	0.627040	-0.527730	0.878110	1
H	0.641360	-0.507470	-0.905400	1
Es	0.998259	-0.002461	-0.004361	99
Es	0.747284	-0.357585	0.592392	99
Es	1.736614	-0.002400	0.001453	99
Es	0.751850	0.693556	0.001453	99
Es	0.756959	-0.343896	-0.613556	99
10
Properties=species:S:1:pos:R:3:Z:I:1 energy=-40.20898433575473 field_type=dipole dipole="0.000000 0.000000 0.000000" charge=0
C	0.998260	-0.002460	-0.004360	6
H	2.090210	-0.002430	0.004140	1
H	0.633790	1.026860	0.004140	1
H	0.627040	-0.527730	0.878110	1
H	0.641360	-0.507470	-0.905400	1
Es	0.998260	-0.002460	-0.004361	99
Es	1.736608	-0.002402	0.001450	99
Es	0.756953	-0.343894	-0.613556	99
Es	0.747289	-0.357581	0.592389	99
Es	0.751855	0.693551	0.001458	99
10
Properties=species:S:1:pos:R:3:Z:I:1 energy=-40.20898433575473 field_type=dipole dipole="0.000000 0.000000 0.000000" charge=0
C	0.998260	-0.002460	-0.004360	6
H	2.090210	-0.002430	0.004140	1
H	0.633790	1.026860	0.004140	1
H	0.627040	-0.527730	0.878110	1
H	0.641360	-0.507470	-0.905400	1
Es	0.756969	-0.343905	-0.613559	99
Es	1.736602	-0.002382	0.001463	99
Es	0.998260	-0.002460	-0.004361	99
Es	0.751838	0.693541	0.001457	99
Es	0.747297	-0.357580	0.592380	99
10
Properties=species:S:1:pos:R:3:Z:I:1 energy=-40.20898433575473 field_type=dipole dipole="0.000000 0.000000 0.000000" charge=0
C	0.998260	-0.002460	-0.004360	6
H	2.090210	-0.002430	0.004140	1
H	0.633790	1.026860	0.004140	1
H	0.627040	-0.527730	0.878110	1
H	0.641360	-0.507470	-0.905400	1
Es	1.736595	-0.002397	0.001460	99
Es	0.756959	-0.343898	-0.613558	99
Es	0.998258	-0.002461	-0.004361	99
Es	0.747295	-0.357570	0.592381	99
Es	0.751859	0.693541	0.001459	99
10
Properties=species:S:1:pos:R:3:Z:I:1 energy=-40.20898433575473 field_type=dipole dipole="0.000000 0.000000 0.000000" charge=0
C	0.998260	-0.002460	-0.004360	6
H	2.090210	-0.002430	0.004140	1
H	0.633790	1.026860	0.004140	1
H	0.627040	-0.527730	0.878110	1
H	0.641360	-0.507470	-0.905400	1
Es	0.998261	-0.002460	-0.004360	99
Es	0.747297	-0.357563	0.592377	99
Es	0.756952	-0.343897	-0.613557	99
Es	1.736591	-0.002400	0.001458	99
Es	0.751865	0.693534	0.001462	99
10
Properties=species:S:1:pos:R:3:Z:I:1 energy=-40.20898433575473 field_type=dipole dipole="0.000000 0.000000 0.000000" charge=0
C	0.998260	-0.002460	-0.004360	6
H	2.090210	-0.002430	0.004140	1
H	0.633790	1.026860	0.004140	1
H	0.627040	-0.527730	0.878110	1
H	0.641360	-0.507470	-0.905400	1
Es	1.736582	-0.002386	0.001460	99
Es	0.751861	0.693524	0.001462	99
Es	0.998259	-0.002461	-0.004360	99
Es	0.747299	-0.357571	0.592377	99
Es	0.756964	-0.343892	-0.613559	99
10
Properties=species:S:1:pos:R:3:Z:I:1 energy=-40.20898433575473 field_type=dipole dipole="0.000000 0.000000 0.000000" charge=0
C	0.998260	-0.002460	-0.004360	6
H	2.090210	-0.002430	0.004140	1
H	0.633790	1.026860	0.004140	1
H	0.627040	-0.527730	0.878110	1
H	0.641360	-0.507470	-0.905400	1
Es	0.998258	-0.002460	-0.004360	99
Es	0.751865	0.693521	0.001464	99
Es	0.756956	-0.343896	-0.613555	99
Es	1.736585	-0.002394	0.001464	99
Es	0.747301	-0.357556	0.592366	99
10
Properties=species:S:1:pos:R:3:Z:I:1 energy=-40.20898433575473 field_type=dipole dipole="0.000000 0.000000 0.000000" charge=0
C	0.998260	-0.002460	-0.004360	6
H	2.090210	-0.002430	0.004140	1
H	0.633790	1.026860	0.004140	1
H	0.627040	-0.527730	0.878110	1
H	0.641360	-0.507470	-0.905400	1
Es	1.736573	-0.002395	0.001463	99
Es	0.751869	0.693521	0.001464	99
Es	0.998260	-0.002460	-0.004360	99
Es	0.756960	-0.343894	-0.613553	99
Es	0.747304	-0.357557	0.592367	99
10
Properties=species:S:1:pos:R:3:Z:I:1 energy=-40.20898433575473 field_type=dipole dipole="0.000000 0.000000 0.000000" charge=0
C	0.998260	-0.002460	-0.004360	6
H	2.090210	-0.002430	0.004140	1
H	0.633790	1.026860	0.004140	1
H	0.627040	-0.527730	0.878110	1
H	0.641360	-0.507470	-0.905400	1
Es	0.756955	-0.343902	-0.613553	99
Es	0.747310	-0.357546	0.592368	99
Es	1.736568	-0.002392	0.001463	99
Es	0.751872	0.693514	0.001462	99
Es	0.998260	-0.002460	-0.004360	99
