10
Properties=species:S:1:pos:R:3:Z:I:1 energy=-40.20898433575476 field_type=dipole dipole="0.000000 0.000000 0.000000" charge=0
C	0.998260	-0.002460	-0.004360	6
H	2.090210	-0.002430	0.004140	1
H	0.633790	1.026860	0.004140	1
H	0.627040	-0.527730	0.878110	1
H	0.641360	-0.507470	-0.905400	1
Es	0.756953	-0.343885	-0.613552	99
Es	0.747278	-0.357589	0.592399	99
Es	0.998260	-0.002460	-0.004361	99
Es	0.751851	0.693548	0.001451	99
Es	1.736624	-0.002399	0.001442	99
10
Properties=species:S:1:pos:R:3:Z:I:1 energy=-40.20898433575476 field_type=dipole dipole="0.000000 0.000000 0.000000" charge=0
C	0.998260	-0.002460	-0.004360	6
H	2.090210	-0.002430	0.004140	1
H	0.633790	1.026860	0.004140	1
H	0.627040	-0.527730	0.878110	1
H	0.641360	-0.507470	-0.905400	1
Es	1.736616	-0.002407	0.001441	99
Es	0.751846	0.693565	0.001459	99
Es	0.756964	-0.343876	-0.613550	99
Es	0.747280	-0.357608	0.592390	99
Es	0.998260	-0.002460	-0.004361	99
10
Properties=species:S:1:pos:R:3:Z:I:1 energy=-40.20898433575476 field_type=dipole dipole="0.000000 0.000000 0.000000" charge=0
C	0.998260	-0.002460	-0.004360	6
H	2.090210	-0.002430	0.004140	1
H	0.633790	1.026860	0.004140	1
H	0.627040	-0.527730	0.878110	1
H	0.641360	-0.507470	-0.905400	1
Es	0.998260	-0.002460	-0.004361	99
Es	0.756970	-0.343894	-0.613549	99
Es	0.751847	0.693571	0.001446	99
Es	0.747284	-0.357598	0.592398	99
Es	1.736605	-0.002405	0.001446	99
10
Properties=species:S:1:pos:R:3:Z:I:1 energy=-40.20898433575476 field_type=dipole dipole="0.000000 0.000000 0.000000" charge=0
C	0.998260	-0.002460	-0.004360	6
H	2.090210	-0.002430	0.004140	1
H	0.633790	1.026860	0.004140	1
H	0.627040	-0.527730	0.878110	1
H	0.641360	-0.507470	-0.905400	1
Es	0.751833	0.693559	0.001432	99
Es	1.736618	-0.002393	0.001464	99
Es	0.747268	-0.357593	0.592391	99
Es	0.756986	-0.343899	-0.613546	99
Es	0.998260	-0.002460	-0.004361	99
10
Properties=species:S:1:pos:R:3:Z:I:1 energy=-40.20898433575476 field_type=dipole dipole="0.000000 0.000000 0.000000" charge=0
C	0.998260	-0.002460	-0.004360	6
H	2.090210	-0.002430	0.004140	1
H	0.633790	1.026860	0.004140	1
H	0.627040	-0.527730	0.878110	1
H	0.641360	-0.507470	-0.905400	1
Es	0.998260	-0.002460	-0.004361	99
Es	0.747287	-0.357596	0.592389	99
Es	0.751845	0.693568	0.001456	99
Es	0.756951	-0.343884	-0.613538	99
Es	1.736623	-0.002413	0.001433	99
10
Properties=species:S:1:pos:R:3:Z:I:1 energy=-40.20898433575476 field_type=dipole dipole="0.000000 0.000000 0.000000" charge=0
C	0.998260	-0.002460	-0.004360	6
H	2.090210	-0.002430	0.004140	1
H	0.633790	1.026860	0.004140	1
H	0.627040	-0.527730	0.878110	1
H	0.641360	-0.507470	-0.905400	1
Es	0.747281	-0.357593	0.592391	99
Es	0.756964	-0.343892	-0.613542	99
Es	0.998260	-0.002460	-0.004361	99
Es	0.751844	0.693569	0.001446	99
Es	1.736616	-0.002409	0.001445	99
10
Properties=species:S:1:pos:R:3:Z:I:1 energy=-40.20898433575476 field_type=dipole dipole="0.000000 0.000000 0.000000" charge=0
C	0.998260	-0.002460	-0.004360	6
H	2.090210	-0.002430	0.004140	1
H	0.633790	1.026860	0.004140	1
H	0.627040	-0.527730	0.878110	1
H	0.641360	-0.507470	-0.905400	1
Es	1.736619	-0.002401	0.001451	99
Es	0.998260	-0.002460	-0.004361	99
Es	0.747280	-0.357597	0.592387	99
Es	0.756966	-0.343888	-0.613552	99
Es	0.751842	0.693560	0.001454	99
10
Properties=species:S:1:pos:R:3:Z:I:1 energy=-40.20898433575476 field_type=dipole dipole="0.000000 0.000000 0.000000" charge=0
C	0.998260	-0.002460	-0.004360	6
H	2.090210	-0.002430	0.004140	1
H	0.633790	1.026860	0.004140	1
H	0.627040	-0.527730	0.878110	1
H	0.641360	-0.507470	-0.905400	1
Es	0.751827	0.693558	0.001446	99
Es	0.998260	-0.002460	-0.004361	99
Es	1.736610	-0.002382	0.001461	99
Es	0.756985	-0.343902	-0.613556	99
Es	0.747285	-0.357600	0.592390	99
10
Properties=species:S:1:pos:R:3:Z:I:1 energy=-40.20898433575476 field_type=dipole dipole="0.000000 0.000000 0.000000" charge=0
C	0.998260	-0.002460	-0.004360	6
H	2.090210	-0.002430	0.004140	1
H	0.633790	1.026860	0.004140	1
H	0.627040	-0.527730	0.878110	1
H	0.641360	-0.507470	-0.905400	1
Es	0.747281	-0.357591	0.592388	99
Es	0.751846	0.693563	0.001453	99
Es	0.756958	-0.343889	-0.613548	99
Es	0.998260	-0.002460	-0.004361	99
Es	1.736620	-0.002408	0.001447	99
10
Properties=species:S:1:pos:R:3:Z:I:1 energy=-40.20898433575476 field_type=dipole dipole="0.000000 0.000000 0.000000" charge=0
C	0.998260	-0.002460	-0.004360	6
H	2.090210	-0.002430	0.004140	1
H	0.633790	1.026860	0.004140	1
H	0.627040	-0.527730	0.878110	1
H	0.641360	-0.507470	-0.905400	1
Es	0.756963	-0.343891	-0.613527	99
Es	0.998260	-0.002460	-0.004361	99
Es	0.751832	0.693558	0.001436	99
Es	0.747272	-0.357586	0.592386	99
Es	1.736639	-0.002406	0.001445	99
