17
Properties=species:S:1:pos:R:3:Z:I:1 energy=-79.25137147274448 field_type=dipole dipole="0.000000 0.000000 0.000000" charge=0
C	1.004040	-0.002950	-0.006400	6
C	2.515960	-0.007020	0.000590	6
H	0.622350	1.022400	-0.001640	1
H	0.614110	-0.519740	0.875610	1
H	0.622370	-0.508420	-0.898570	1
H	2.897650	0.502100	0.890620	1
H	2.905890	0.506090	-0.883570	1
H	2.897630	-1.032430	0.000060	1
Es	2.775533	-0.707441	0.000184	99
Es	2.515928	-0.007020	0.000590	99
Es	2.781174	0.343503	-0.603344	99
Es	1.759999	-0.004981	-0.002904	99
Es	1.004072	-0.002950	-0.006400	99
Es	0.744457	-0.348249	-0.615792	99
Es	0.744448	0.697435	-0.003168	99
Es	0.738827	-0.355932	0.596100	99
Es	2.775562	0.340719	0.608556	99
17
Properties=species:S:1:pos:R:3:Z:I:1 energy=-79.25137147274448 field_type=dipole dipole="0.000000 0.000000 0.000000" charge=0
C	1.004040	-0.002950	-0.006400	6
C	2.515960	-0.007020	0.000590	6
H	0.622350	1.022400	-0.001640	1
H	0.614110	-0.519740	0.875610	1
H	0.622370	-0.508420	-0.898570	1
H	2.897650	0.502100	0.890620	1
H	2.905890	0.506090	-0.883570	1
H	2.897630	-1.032430	0.000060	1
Es	0.744397	0.697364	-0.003168	99
Es	1.004072	-0.002950	-0.006400	99
Es	2.515928	-0.007020	0.000590	99
Es	0.744413	-0.348212	-0.615732	99
Es	2.775589	-0.707371	0.000198	99
Es	1.760000	-0.004983	-0.002903	99
Es	2.781223	0.343460	-0.603285	99
Es	0.738776	-0.355898	0.596034	99
Es	2.775603	0.340695	0.608487	99
17
Properties=species:S:1:pos:R:3:Z:I:1 energy=-79.25137147274448 field_type=dipole dipole="0.000000 0.000000 0.000000" charge=0
C	1.004040	-0.002950	-0.006400	6
C	2.515960	-0.007020	0.000590	6
H	0.622350	1.022400	-0.001640	1
H	0.614110	-0.519740	0.875610	1
H	0.622370	-0.508420	-0.898570	1
H	2.897650	0.502100	0.890620	1
H	2.905890	0.506090	-0.883570	1
H	2.897630	-1.032430	0.000060	1
Es	2.781263	0.343429	-0.603227	99
Es	0.744354	0.697297	-0.003166	99
Es	2.515928	-0.007020	0.000590	99
Es	1.004072	-0.002950	-0.006400	99
Es	2.775642	-0.707300	0.000196	99
Es	2.775648	0.340663	0.608429	99
Es	0.738729	-0.355866	0.595975	99
Es	0.744366	-0.348174	-0.615675	99
Es	1.759999	-0.004993	-0.002901	99
17
Properties=species:S:1:pos:R:3:Z:I:1 energy=-79.25137147274448 field_type=dipole dipole="0.000000 0.000000 0.000000" charge=0
C	1.004040	-0.002950	-0.006400	6
C	2.515960	-0.007020	0.000590	6
H	0.622350	1.022400	-0.001640	1
H	0.614110	-0.519740	0.875610	1
H	0.622370	-0.508420	-0.898570	1
H	2.897650	0.502100	0.890620	1
H	2.905890	0.506090	-0.883570	1
H	2.897630	-1.032430	0.000060	1
Es	0.738687	-0.355832	0.595919	99
Es	2.515929	-0.007020	0.000590	99
Es	1.760000	-0.004984	-0.002904	99
Es	1.004071	-0.002950	-0.006400	99
Es	2.781313	0.343396	-0.603169	99
Es	0.744309	0.697232	-0.003169	99
Es	2.775690	0.340626	0.608376	99
Es	2.775677	-0.707238	0.000197	99
Es	0.744324	-0.348145	-0.615618	99
17
Properties=species:S:1:pos:R:3:Z:I:1 energy=-79.25137147274448 field_type=dipole dipole="0.000000 0.000000 0.000000" charge=0
C	1.004040	-0.002950	-0.006400	6
C	2.515960	-0.007020	0.000590	6
H	0.622350	1.022400	-0.001640	1
H	0.614110	-0.519740	0.875610	1
H	0.622370	-0.508420	-0.898570	1
H	2.897650	0.502100	0.890620	1
H	2.905890	0.506090	-0.883570	1
H	2.897630	-1.032430	0.000060	1
Es	0.744283	-0.348114	-0.615566	99
Es	2.781354	0.343368	-0.603116	99
Es	0.744268	0.697172	-0.003167	99
Es	1.760000	-0.004986	-0.002907	99
Es	2.775719	-0.707177	0.000196	99
Es	2.515929	-0.007020	0.000590	99
Es	1.004071	-0.002950	-0.006400	99
Es	2.775728	0.340595	0.608326	99
Es	0.738649	-0.355804	0.595866	99
17
Properties=species:S:1:pos:R:3:Z:I:1 energy=-79.25137147274448 field_type=dipole dipole="0.000000 0.000000 0.000000" charge=0
C	1.004040	-0.002950	-0.006400	6
C	2.515960	-0.007020	0.000590	6
H	0.622350	1.022400	-0.001640	1
H	0.614110	-0.519740	0.875610	1
H	0.622370	-0.508420	-0.898570	1
H	2.897650	0.502100	0.890620	1
H	2.905890	0.506090	-0.883570	1
H	2.897630	-1.032430	0.000060	1
Es	2.775769	0.340568	0.608277	99
Es	0.744231	0.697115	-0.003165	99
Es	0.744245	-0.348084	-0.615518	99
Es	0.738612	-0.355775	0.595815	99
Es	2.515929	-0.007020	0.000590	99
Es	1.760002	-0.004985	-0.002905	99
Es	2.775754	-0.707121	0.000195	99
Es	1.004071	-0.002950	-0.006400	99
Es	2.781388	0.343337	-0.603068	99
17
Properties=species:S:1:pos:R:3:Z:I:1 energy=-79.25137147274448 field_type=dipole dipole="0.000000 0.000000 0.000000" charge=0
C	1.004040	-0.002950	-0.006400	6
C	2.515960	-0.007020	0.000590	6
H	0.622350	1.022400	-0.001640	1
H	0.614110	-0.519740	0.875610	1
H	0.622370	-0.508420	-0.898570	1
H	2.897650	0.502100	0.890620	1
H	2.905890	0.506090	-0.883570	1
H	2.897630	-1.032430	0.000060	1
Es	2.775789	-0.707069	0.000199	99
Es	0.744197	0.697063	-0.003171	99
Es	2.775802	0.340542	0.608229	99
Es	2.515929	-0.007020	0.000590	99
Es	0.744212	-0.348061	-0.615470	99
Es	1.004071	-0.002950	-0.006400	99
Es	1.760000	-0.004984	-0.002905	99
Es	0.738576	-0.355746	0.595772	99
Es	2.781424	0.343309	-0.603022	99
17
Properties=species:S:1:pos:R:3:Z:I:1 energy=-79.25137147274448 field_type=dipole dipole="0.000000 0.000000 0.000000" charge=0
C	1.004040	-0.002950	-0.006400	6
C	2.515960	-0.007020	0.000590	6
H	0.622350	1.022400	-0.001640	1
H	0.614110	-0.519740	0.875610	1
H	0.622370	-0.508420	-0.898570	1
H	2.897650	0.502100	0.890620	1
H	2.905890	0.506090	-0.883570	1
H	2.897630	-1.032430	0.000060	1
Es	0.744181	-0.348035	-0.615427	99
Es	1.760000	-0.004983	-0.002903	99
Es	0.738543	-0.355721	0.595730	99
Es	2.515929	-0.007020	0.000590	99
Es	1.004071	-0.002950	-0.006400	99
Es	2.781457	0.343285	-0.602980	99
Es	2.775833	0.340516	0.608185	99
Es	2.775821	-0.707017	0.000200	99
Es	0.744164	0.697011	-0.003172	99
17
Properties=species:S:1:pos:R:3:Z:I:1 energy=-79.25137147274448 field_type=dipole dipole="0.000000 0.000000 0.000000" charge=0
C	1.004040	-0.002950	-0.006400	6
C	2.515960	-0.007020	0.000590	6
H	0.622350	1.022400	-0.001640	1
H	0.614110	-0.519740	0.875610	1
H	0.622370	-0.508420	-0.898570	1
H	2.897650	0.502100	0.890620	1
H	2.905890	0.506090	-0.883570	1
H	2.897630	-1.032430	0.000060	1
Es	0.745465	-0.353745	0.592349	99
Es	0.748120	-0.346961	-0.613573	99
Es	1.759846	-0.004980	-0.002911	99
Es	0.748154	0.694839	-0.003200	99
Es	2.771955	0.339170	0.605781	99
Es	2.771895	-0.704232	0.000191	99
Es	2.774565	0.340964	-0.599006	99
Es	1.004071	-0.002950	-0.006400	99
Es	2.515929	-0.007020	0.000590	99
17
Properties=species:S:1:pos:R:3:Z:I:1 energy=-79.25137147274448 field_type=dipole dipole="0.000000 0.000000 0.000000" charge=0
C	1.004040	-0.002950	-0.006400	6
C	2.515960	-0.007020	0.000590	6
H	0.622350	1.022400	-0.001640	1
H	0.614110	-0.519740	0.875610	1
H	0.622370	-0.508420	-0.898570	1
H	2.897650	0.502100	0.890620	1
H	2.905890	0.506090	-0.883570	1
H	2.897630	-1.032430	0.000060	1
Es	1.004071	-0.002950	-0.006400	99
Es	2.769991	-0.702987	0.000193	99
Es	0.750014	0.693584	-0.003163	99
Es	1.759880	-0.004989	-0.002905	99
Es	0.747165	-0.347254	-0.613952	99
Es	2.515929	-0.007020	0.000590	99
Es	2.778503	0.342185	-0.601108	99
Es	0.741544	-0.354921	0.594290	99
Es	2.772902	0.339438	0.606276	99
