10
Properties=species:S:1:pos:R:3:Z:I:1 energy=-92.8985912293163 field_type=dipole dipole="0.000000 0.000000 0.000000" charge=0
N	-0.580000	0.000000	0.000000	7
C	0.580000	0.000000	0.000000	6
H	1.645000	0.000000	0.000000	1
Es	-0.041854	0.022143	-0.305440	99
Es	-0.945265	-0.000005	-0.000009	99
Es	-0.041854	-0.275614	0.133551	99
Es	1.258282	-0.000000	-0.000003	99
Es	-0.579522	0.000000	-0.000000	99
Es	-0.041856	0.253476	0.171901	99
Es	0.580323	0.000000	0.000000	99
10
Properties=species:S:1:pos:R:3:Z:I:1 energy=-92.8985912293163 field_type=dipole dipole="0.000000 0.000000 0.000000" charge=0
N	-0.580000	0.000000	0.000000	7
C	0.580000	0.000000	0.000000	6
H	1.645000	0.000000	0.000000	1
Es	-0.042366	-0.006912	0.307582	99
Es	-0.042363	-0.262915	-0.159779	99
Es	-0.943753	-0.000000	-0.000004	99
Es	-0.579522	-0.000000	0.000000	99
Es	0.580321	-0.000000	0.000001	99
Es	-0.042365	0.269820	-0.147802	99
Es	1.258301	0.000008	0.000002	99
10
Properties=species:S:1:pos:R:3:Z:I:1 energy=-92.8985912293163 field_type=dipole dipole="0.000000 0.000000 0.000000" charge=0
N	-0.580000	0.000000	0.000000	7
C	0.580000	0.000000	0.000000	6
H	1.645000	0.000000	0.000000	1
Es	-0.042817	0.169391	-0.258276	99
Es	0.580318	-0.000000	0.000000	99
Es	-0.042816	0.138980	0.275834	99
Es	-0.042816	-0.308371	-0.017557	99
Es	-0.942383	-0.000000	0.000000	99
Es	1.258290	-0.000000	-0.000001	99
Es	-0.579522	0.000000	0.000000	99
10
Properties=species:S:1:pos:R:3:Z:I:1 energy=-92.8985912293163 field_type=dipole dipole="0.000000 0.000000 0.000000" charge=0
N	-0.580000	0.000000	0.000000	7
C	0.580000	0.000000	0.000000	6
H	1.645000	0.000000	0.000000	1
Es	1.258268	0.000015	-0.000004	99
Es	-0.579522	-0.000000	0.000000	99
Es	-0.941125	0.000001	-0.000005	99
Es	0.580317	-0.000000	-0.000000	99
Es	-0.043229	0.242841	-0.192558	99
Es	-0.043225	-0.288200	-0.114038	99
Es	-0.043229	0.045343	0.306605	99
10
Properties=species:S:1:pos:R:3:Z:I:1 energy=-92.8985912293163 field_type=dipole dipole="0.000000 0.000000 0.000000" charge=0
N	-0.580000	0.000000	0.000000	7
C	0.580000	0.000000	0.000000	6
H	1.645000	0.000000	0.000000	1
Es	-0.940015	0.000001	0.000003	99
Es	-0.579522	0.000000	0.000000	99
Es	-0.043588	0.072996	-0.302150	99
Es	-0.043588	-0.298165	0.087858	99
Es	1.258240	0.000000	0.000001	99
Es	-0.043587	0.225167	0.214287	99
Es	0.580315	-0.000000	0.000000	99
10
Properties=species:S:1:pos:R:3:Z:I:1 energy=-92.8985912293163 field_type=dipole dipole="0.000000 0.000000 0.000000" charge=0
N	-0.580000	0.000000	0.000000	7
C	0.580000	0.000000	0.000000	6
H	1.645000	0.000000	0.000000	1
Es	-0.939010	0.000004	0.000006	99
Es	-0.579522	-0.000000	0.000000	99
Es	-0.043909	-0.085117	0.299791	99
Es	-0.043912	-0.217075	-0.223605	99
Es	1.258203	0.000001	0.000001	99
Es	0.580313	0.000000	-0.000000	99
Es	-0.043909	0.302188	-0.076193	99
10
Properties=species:S:1:pos:R:3:Z:I:1 energy=-92.8985912293163 field_type=dipole dipole="0.000000 0.000000 0.000000" charge=0
N	-0.580000	0.000000	0.000000	7
C	0.580000	0.000000	0.000000	6
H	1.645000	0.000000	0.000000	1
Es	-0.044198	-0.066735	-0.305127	99
Es	1.258168	-0.000000	-0.000001	99
Es	0.580310	-0.000000	-0.000000	99
Es	-0.044197	0.297615	0.094769	99
Es	-0.044197	-0.230880	0.210358	99
Es	-0.579522	0.000000	0.000000	99
Es	-0.938111	0.000000	0.000001	99
10
Properties=species:S:1:pos:R:3:Z:I:1 energy=-92.8985912293163 field_type=dipole dipole="0.000000 0.000000 0.000000" charge=0
N	-0.580000	0.000000	0.000000	7
C	0.580000	0.000000	0.000000	6
H	1.645000	0.000000	0.000000	1
Es	0.580307	0.000000	0.000000	99
Es	-0.044464	0.232607	0.209422	99
Es	1.258123	-0.000000	0.000001	99
Es	-0.579521	0.000000	-0.000000	99
Es	-0.937259	-0.000002	0.000009	99
Es	-0.044464	-0.297669	0.096737	99
Es	-0.044468	0.065063	-0.306169	99
10
Properties=species:S:1:pos:R:3:Z:I:1 energy=-92.8985912293163 field_type=dipole dipole="0.000000 0.000000 0.000000" charge=0
N	-0.580000	0.000000	0.000000	7
C	0.580000	0.000000	0.000000	6
H	1.645000	0.000000	0.000000	1
Es	-0.044705	0.137944	-0.281581	99
Es	1.258090	-0.000000	-0.000000	99
Es	-0.579521	0.000000	0.000000	99
Es	-0.044705	0.174884	0.260253	99
Es	-0.044705	-0.312828	0.021328	99
Es	0.580306	0.000000	-0.000000	99
Es	-0.936506	-0.000000	-0.000000	99
10
Properties=species:S:1:pos:R:3:Z:I:1 energy=-92.8985912293163 field_type=dipole dipole="0.000000 0.000000 0.000000" charge=0
N	-0.580000	0.000000	0.000000	7
C	0.580000	0.000000	0.000000	6
H	1.645000	0.000000	0.000000	1
Es	-0.579521	-0.000000	0.000000	99
Es	0.580304	-0.000000	-0.000000	99
Es	-0.044921	-0.288818	0.123433	99
Es	-0.935804	-0.000000	0.000000	99
Es	-0.044921	0.251305	0.188407	99
Es	-0.044921	0.037513	-0.311840	99
Es	1.258038	-0.000000	0.000000	99
