10
Properties=species:S:1:pos:R:3:Z:I:1 energy=-40.20898433575476 field_type=dipole dipole="0.000000 0.000000 0.000000" charge=0
C	0.998260	-0.002460	-0.004360	6
H	2.090210	-0.002430	0.004140	1
H	0.633790	1.026860	0.004140	1
H	0.627040	-0.527730	0.878110	1
H	0.641360	-0.507470	-0.905400	1
Es	1.736625	-0.002410	0.001449	99
Es	0.751834	0.693570	0.001448	99
Es	0.998260	-0.002460	-0.004361	99
Es	0.756965	-0.343894	-0.613537	99
Es	0.747282	-0.357592	0.592380	99
10
Properties=species:S:1:pos:R:3:Z:I:1 energy=-40.20898433575476 field_type=dipole dipole="0.000000 0.000000 0.000000" charge=0
C	0.998260	-0.002460	-0.004360	6
H	2.090210	-0.002430	0.004140	1
H	0.633790	1.026860	0.004140	1
H	0.627040	-0.527730	0.878110	1
H	0.641360	-0.507470	-0.905400	1
Es	1.736620	-0.002404	0.001443	99
Es	0.756962	-0.343889	-0.613543	99
Es	0.751845	0.693560	0.001445	99
Es	0.998260	-0.002460	-0.004361	99
Es	0.747279	-0.357593	0.592396	99
10
Properties=species:S:1:pos:R:3:Z:I:1 energy=-40.20898433575476 field_type=dipole dipole="0.000000 0.000000 0.000000" charge=0
C	0.998260	-0.002460	-0.004360	6
H	2.090210	-0.002430	0.004140	1
H	0.633790	1.026860	0.004140	1
H	0.627040	-0.527730	0.878110	1
H	0.641360	-0.507470	-0.905400	1
Es	0.998260	-0.002460	-0.004361	99
Es	0.751838	0.693566	0.001455	99
Es	0.747289	-0.357598	0.592388	99
Es	1.736617	-0.002402	0.001443	99
Es	0.756962	-0.343891	-0.613545	99
10
Properties=species:S:1:pos:R:3:Z:I:1 energy=-40.20898433575476 field_type=dipole dipole="0.000000 0.000000 0.000000" charge=0
C	0.998260	-0.002460	-0.004360	6
H	2.090210	-0.002430	0.004140	1
H	0.633790	1.026860	0.004140	1
H	0.627040	-0.527730	0.878110	1
H	0.641360	-0.507470	-0.905400	1
Es	0.998260	-0.002461	-0.004361	99
Es	0.756965	-0.343887	-0.613538	99
Es	0.751841	0.693550	0.001435	99
Es	1.736632	-0.002399	0.001446	99
Es	0.747268	-0.357589	0.592397	99
10
Properties=species:S:1:pos:R:3:Z:I:1 energy=-40.20898433575476 field_type=dipole dipole="0.000000 0.000000 0.000000" charge=0
C	0.998260	-0.002460	-0.004360	6
H	2.090210	-0.002430	0.004140	1
H	0.633790	1.026860	0.004140	1
H	0.627040	-0.527730	0.878110	1
H	0.641360	-0.507470	-0.905400	1
Es	0.756960	-0.343892	-0.613549	99
Es	0.998260	-0.002460	-0.004360	99
Es	0.751846	0.693561	0.001450	99
Es	0.747282	-0.357590	0.592391	99
Es	1.736618	-0.002404	0.001448	99
10
Properties=species:S:1:pos:R:3:Z:I:1 energy=-40.20898433575476 field_type=dipole dipole="0.000000 0.000000 0.000000" charge=0
C	0.998260	-0.002460	-0.004360	6
H	2.090210	-0.002430	0.004140	1
H	0.633790	1.026860	0.004140	1
H	0.627040	-0.527730	0.878110	1
H	0.641360	-0.507470	-0.905400	1
Es	0.747283	-0.357603	0.592399	99
Es	0.751843	0.693549	0.001455	99
Es	0.756962	-0.343881	-0.613553	99
Es	1.736618	-0.002391	0.001440	99
Es	0.998260	-0.002460	-0.004361	99
10
Properties=species:S:1:pos:R:3:Z:I:1 energy=-40.20898433575476 field_type=dipole dipole="0.000000 0.000000 0.000000" charge=0
C	0.998260	-0.002460	-0.004360	6
H	2.090210	-0.002430	0.004140	1
H	0.633790	1.026860	0.004140	1
H	0.627040	-0.527730	0.878110	1
H	0.641360	-0.507470	-0.905400	1
Es	1.736610	-0.002412	0.001454	99
Es	0.747288	-0.357574	0.592391	99
Es	0.751856	0.693566	0.001451	99
Es	0.998260	-0.002461	-0.004361	99
Es	0.756952	-0.343906	-0.613555	99
10
Properties=species:S:1:pos:R:3:Z:I:1 energy=-40.20898433575476 field_type=dipole dipole="0.000000 0.000000 0.000000" charge=0
C	0.998260	-0.002460	-0.004360	6
H	2.090210	-0.002430	0.004140	1
H	0.633790	1.026860	0.004140	1
H	0.627040	-0.527730	0.878110	1
H	0.641360	-0.507470	-0.905400	1
Es	0.756950	-0.343885	-0.613574	99
Es	0.751858	0.693555	0.001475	99
Es	0.998260	-0.002460	-0.004361	99
Es	1.736605	-0.002399	0.001448	99
Es	0.747293	-0.357596	0.592391	99
10
Properties=species:S:1:pos:R:3:Z:I:1 energy=-40.20898433575476 field_type=dipole dipole="0.000000 0.000000 0.000000" charge=0
C	0.998260	-0.002460	-0.004360	6
H	2.090210	-0.002430	0.004140	1
H	0.633790	1.026860	0.004140	1
H	0.627040	-0.527730	0.878110	1
H	0.641360	-0.507470	-0.905400	1
Es	0.747281	-0.357585	0.592392	99
Es	0.751849	0.693559	0.001449	99
Es	0.756959	-0.343894	-0.613550	99
Es	0.998260	-0.002460	-0.004361	99
Es	1.736616	-0.002405	0.001450	99
10
Properties=species:S:1:pos:R:3:Z:I:1 energy=-40.20898433575476 field_type=dipole dipole="0.000000 0.000000 0.000000" charge=0
C	0.998260	-0.002460	-0.004360	6
H	2.090210	-0.002430	0.004140	1
H	0.633790	1.026860	0.004140	1
H	0.627040	-0.527730	0.878110	1
H	0.641360	-0.507470	-0.905400	1
Es	0.747276	-0.357584	0.592389	99
Es	0.998260	-0.002460	-0.004360	99
Es	1.736614	-0.002403	0.001460	99
Es	0.756967	-0.343897	-0.613554	99
Es	0.751848	0.693559	0.001446	99
