30
Properties=species:S:1:pos:R:3:Z:I:1 energy=-173.31666377844954 field_type=dipole dipole="0.000000 0.000000 0.000000" charge=0
C	-1.300289	-0.239857	0.420012	6
N	0.161661	-0.232907	0.416952	7
C	0.673681	-0.956407	-0.745708	6
C	0.666212	1.139203	0.427842	6
H	-1.685889	0.265693	1.312772	1
H	-1.680459	-1.267307	0.453232	1
H	-1.719949	0.254393	-0.464148	1
H	0.330842	-1.997367	-0.733098	1
H	1.769141	-0.987287	-0.728378	1
H	0.356761	-0.500697	-1.691238	1
H	0.315932	1.671343	1.319712	1
H	0.350892	1.704843	-0.456908	1
H	1.761461	1.146353	0.468952	1
Es	-0.479944	-0.220063	0.389950	99
Es	-1.586830	0.103929	-0.194984	99
Es	-1.560026	0.111993	1.026188	99
Es	1.420977	-0.969343	-0.734679	99
Es	0.368288	0.374893	0.393295	99
Es	0.432075	-1.663727	-0.738013	99
Es	0.445069	1.527603	-0.187623	99
Es	-1.556280	-0.941969	0.435285	99
Es	0.673640	-0.956349	-0.745612	99
Es	0.161434	-0.232588	0.416393	99
Es	-1.300170	-0.239857	0.420013	99
Es	0.451419	-0.636741	-1.399130	99
Es	0.419553	1.501454	1.033375	99
Es	0.273353	-0.393806	0.704327	99
Es	0.666172	1.139091	0.427842	99
Es	0.371234	-0.528769	-0.113138	99
Es	1.413416	1.140539	0.448512	99
30
Properties=species:S:1:pos:R:3:Z:I:1 energy=-173.31666377844954 field_type=dipole dipole="0.000000 0.000000 0.000000" charge=0
C	-1.300289	-0.239857	0.420012	6
N	0.161661	-0.232907	0.416952	7
C	0.673681	-0.956407	-0.745708	6
C	0.666212	1.139203	0.427842	6
H	-1.685889	0.265693	1.312772	1
H	-1.680459	-1.267307	0.453232	1
H	-1.719949	0.254393	-0.464148	1
H	0.330842	-1.997367	-0.733098	1
H	1.769141	-0.987287	-0.728378	1
H	0.356761	-0.500697	-1.691238	1
H	0.315932	1.671343	1.319712	1
H	0.350892	1.704843	-0.456908	1
H	1.761461	1.146353	0.468952	1
Es	0.451391	-0.636857	-1.399044	99
Es	0.368407	0.374767	0.393337	99
Es	0.371589	-0.529283	-0.112883	99
Es	0.419438	1.501575	1.033342	99
Es	0.272904	-0.393182	0.703928	99
Es	-1.586847	0.103948	-0.194940	99
Es	-1.556304	-0.941906	0.435232	99
Es	0.673640	-0.956349	-0.745612	99
Es	-1.560070	0.111922	1.026185	99
Es	0.161457	-0.232609	0.416419	99
Es	0.445108	1.527449	-0.187410	99
Es	-1.300174	-0.239857	0.420013	99
Es	1.421034	-0.969323	-0.734782	99
Es	0.432115	-1.663682	-0.738064	99
Es	0.666171	1.139088	0.427843	99
Es	1.413474	1.140721	0.448401	99
Es	-0.479951	-0.220133	0.390034	99
30
Properties=species:S:1:pos:R:3:Z:I:1 energy=-173.31666377844954 field_type=dipole dipole="0.000000 0.000000 0.000000" charge=0
C	-1.300289	-0.239857	0.420012	6
N	0.161661	-0.232907	0.416952	7
C	0.673681	-0.956407	-0.745708	6
C	0.666212	1.139203	0.427842	6
H	-1.685889	0.265693	1.312772	1
H	-1.680459	-1.267307	0.453232	1
H	-1.719949	0.254393	-0.464148	1
H	0.330842	-1.997367	-0.733098	1
H	1.769141	-0.987287	-0.728378	1
H	0.356761	-0.500697	-1.691238	1
H	0.315932	1.671343	1.319712	1
H	0.350892	1.704843	-0.456908	1
H	1.761461	1.146353	0.468952	1
Es	-0.479808	-0.220222	0.390226	99
Es	0.368317	0.374774	0.393469	99
Es	1.413358	1.140657	0.448449	99
Es	0.432193	-1.663726	-0.738129	99
Es	0.666173	1.139096	0.427843	99
Es	-1.586833	0.103875	-0.194851	99
Es	1.420904	-0.969325	-0.734837	99
Es	0.451462	-0.636875	-1.399040	99
Es	0.445125	1.527608	-0.187478	99
Es	0.419654	1.501542	1.033291	99
Es	0.161466	-0.232609	0.416417	99
Es	-1.560152	0.111939	1.026115	99
Es	0.371482	-0.529188	-0.112810	99
Es	-1.556371	-0.941864	0.435211	99
Es	0.673642	-0.956351	-0.745615	99
Es	0.272942	-0.393184	0.703724	99
Es	-1.300173	-0.239857	0.420013	99
30
Properties=species:S:1:pos:R:3:Z:I:1 energy=-173.31666377844954 field_type=dipole dipole="0.000000 0.000000 0.000000" charge=0
C	-1.300289	-0.239857	0.420012	6
N	0.161661	-0.232907	0.416952	7
C	0.673681	-0.956407	-0.745708	6
C	0.666212	1.139203	0.427842	6
H	-1.685889	0.265693	1.312772	1
H	-1.680459	-1.267307	0.453232	1
H	-1.719949	0.254393	-0.464148	1
H	0.330842	-1.997367	-0.733098	1
H	1.769141	-0.987287	-0.728378	1
H	0.356761	-0.500697	-1.691238	1
H	0.315932	1.671343	1.319712	1
H	0.350892	1.704843	-0.456908	1
H	1.761461	1.146353	0.468952	1
Es	0.666174	1.139096	0.427843	99
Es	0.451517	-0.636949	-1.399020	99
Es	0.419675	1.501546	1.033271	99
Es	-1.556375	-0.941833	0.435248	99
Es	1.413335	1.140704	0.448444	99
Es	1.420877	-0.969398	-0.734898	99
Es	-1.586889	0.103802	-0.194801	99
Es	0.673642	-0.956352	-0.745616	99
Es	-0.479802	-0.220158	0.390126	99
Es	-1.560169	0.111943	1.026079	99
Es	-1.300173	-0.239858	0.420014	99
Es	0.432218	-1.663662	-0.738199	99
Es	0.272895	-0.393094	0.703662	99
Es	0.368311	0.374618	0.393455	99
Es	0.371545	-0.529178	-0.112629	99
Es	0.445166	1.527646	-0.187383	99
Es	0.161434	-0.232585	0.416403	99
30
Properties=species:S:1:pos:R:3:Z:I:1 energy=-173.31666377844954 field_type=dipole dipole="0.000000 0.000000 0.000000" charge=0
C	-1.300289	-0.239857	0.420012	6
N	0.161661	-0.232907	0.416952	7
C	0.673681	-0.956407	-0.745708	6
C	0.666212	1.139203	0.427842	6
H	-1.685889	0.265693	1.312772	1
H	-1.680459	-1.267307	0.453232	1
H	-1.719949	0.254393	-0.464148	1
H	0.330842	-1.997367	-0.733098	1
H	1.769141	-0.987287	-0.728378	1
H	0.356761	-0.500697	-1.691238	1
H	0.315932	1.671343	1.319712	1
H	0.350892	1.704843	-0.456908	1
H	1.761461	1.146353	0.468952	1
Es	0.368199	0.374508	0.393346	99
Es	0.673643	-0.956353	-0.745617	99
Es	-1.560205	0.111934	1.026021	99
Es	-1.586880	0.103787	-0.194724	99
Es	0.451539	-0.636999	-1.398974	99
Es	0.161437	-0.232567	0.416402	99
Es	0.666174	1.139097	0.427843	99
Es	0.419719	1.501602	1.033211	99
Es	0.432243	-1.663666	-0.738235	99
Es	0.445182	1.527614	-0.187318	99
Es	0.371531	-0.529183	-0.112540	99
Es	0.272982	-0.392984	0.703649	99
Es	-1.556459	-0.941787	0.435232	99
Es	-0.479704	-0.220266	0.390236	99
Es	1.413301	1.140799	0.448405	99
Es	-1.300176	-0.239857	0.420014	99
Es	1.420857	-0.969391	-0.734952	99
30
Properties=species:S:1:pos:R:3:Z:I:1 energy=-173.31666377844954 field_type=dipole dipole="0.000000 0.000000 0.000000" charge=0
C	-1.300289	-0.239857	0.420012	6
N	0.161661	-0.232907	0.416952	7
C	0.673681	-0.956407	-0.745708	6
C	0.666212	1.139203	0.427842	6
H	-1.685889	0.265693	1.312772	1
H	-1.680459	-1.267307	0.453232	1
H	-1.719949	0.254393	-0.464148	1
H	0.330842	-1.997367	-0.733098	1
H	1.769141	-0.987287	-0.728378	1
H	0.356761	-0.500697	-1.691238	1
H	0.315932	1.671343	1.319712	1
H	0.350892	1.704843	-0.456908	1
H	1.761461	1.146353	0.468952	1
Es	0.666175	1.139098	0.427843	99
Es	0.161461	-0.232609	0.416420	99
Es	1.420832	-0.969405	-0.735004	99
Es	-1.300177	-0.239858	0.420014	99
Es	-0.479573	-0.220133	0.390049	99
Es	0.673643	-0.956353	-0.745618	99
Es	0.371504	-0.529085	-0.112503	99
Es	0.368323	0.374419	0.393573	99
Es	-1.586892	0.103758	-0.194664	99
Es	-1.556495	-0.941747	0.435215	99
Es	0.445214	1.527609	-0.187261	99
Es	0.451571	-0.637050	-1.398939	99
Es	0.272748	-0.393107	0.703602	99
Es	0.432272	-1.663648	-0.738282	99
Es	0.419742	1.501636	1.033168	99
Es	-1.560245	0.111915	1.025986	99
Es	1.413279	1.140850	0.448398	99
30
Properties=species:S:1:pos:R:3:Z:I:1 energy=-173.31666377844954 field_type=dipole dipole="0.000000 0.000000 0.000000" charge=0
C	-1.300289	-0.239857	0.420012	6
N	0.161661	-0.232907	0.416952	7
C	0.673681	-0.956407	-0.745708	6
C	0.666212	1.139203	0.427842	6
H	-1.685889	0.265693	1.312772	1
H	-1.680459	-1.267307	0.453232	1
H	-1.719949	0.254393	-0.464148	1
H	0.330842	-1.997367	-0.733098	1
H	1.769141	-0.987287	-0.728378	1
H	0.356761	-0.500697	-1.691238	1
H	0.315932	1.671343	1.319712	1
H	0.350892	1.704843	-0.456908	1
H	1.761461	1.146353	0.468952	1
Es	0.419732	1.501678	1.033142	99
Es	-1.556531	-0.941724	0.435127	99
Es	0.272765	-0.392866	0.703616	99
Es	-0.479574	-0.220218	0.390016	99
Es	0.451584	-0.637096	-1.398895	99
Es	0.673643	-0.956354	-0.745618	99
Es	-1.586856	0.103764	-0.194576	99
Es	-1.560297	0.111889	1.025995	99
Es	-1.300178	-0.239858	0.420014	99
Es	0.368245	0.374338	0.393389	99
Es	0.371618	-0.529194	-0.112257	99
Es	0.432291	-1.663639	-0.738330	99
Es	1.413233	1.140899	0.448415	99
Es	0.445276	1.527588	-0.187232	99
Es	1.420821	-0.969408	-0.735070	99
Es	0.666173	1.139096	0.427843	99
Es	0.161434	-0.232607	0.416420	99
30
Properties=species:S:1:pos:R:3:Z:I:1 energy=-173.31666377844954 field_type=dipole dipole="0.000000 0.000000 0.000000" charge=0
C	-1.300289	-0.239857	0.420012	6
N	0.161661	-0.232907	0.416952	7
C	0.673681	-0.956407	-0.745708	6
C	0.666212	1.139203	0.427842	6
H	-1.685889	0.265693	1.312772	1
H	-1.680459	-1.267307	0.453232	1
H	-1.719949	0.254393	-0.464148	1
H	0.330842	-1.997367	-0.733098	1
H	1.769141	-0.987287	-0.728378	1
H	0.356761	-0.500697	-1.691238	1
H	0.315932	1.671343	1.319712	1
H	0.350892	1.704843	-0.456908	1
H	1.761461	1.146353	0.468952	1
Es	-1.556568	-0.941669	0.435199	99
Es	0.272615	-0.392866	0.703481	99
Es	1.413229	1.140946	0.448379	99
Es	0.445280	1.527603	-0.187149	99
Es	-1.586909	0.103696	-0.194555	99
Es	0.666176	1.139098	0.427845	99
Es	-1.560315	0.111888	1.025908	99
Es	0.161443	-0.232607	0.416415	99
Es	0.451634	-0.637137	-1.398877	99
Es	-0.479423	-0.220152	0.390040	99
Es	0.432319	-1.663619	-0.738370	99
Es	-1.300180	-0.239858	0.420015	99
Es	1.420781	-0.969440	-0.735094	99
Es	0.673643	-0.956354	-0.745618	99
Es	0.419790	1.501694	1.033094	99
Es	0.368277	0.374271	0.393545	99
Es	0.371589	-0.529207	-0.112259	99
