27
Properties=species:S:1:pos:R:3:Z:I:1 energy=-172.140583637597 field_type=dipole dipole="0.000000 0.000000 0.000000" charge=0
N	-1.425706	-0.857731	-0.424904	7
C	-0.012166	-0.746121	-0.104294	6
C	0.410474	0.685479	-0.157484	6
C	0.949874	1.355269	0.871456	6
H	-1.704706	-1.834271	-0.356194	1
H	-1.572816	-0.590591	-1.395864	1
H	0.576464	-1.327031	-0.823254	1
H	0.166064	-1.174331	0.888126	1
H	0.273704	1.205949	-1.101704	1
H	1.104254	0.886159	1.837656	1
H	1.234555	2.397219	0.766456	1
Es	-0.802491	-0.819931	-0.304600	99
Es	0.109319	-1.035546	0.574044	99
Es	0.394120	1.115379	0.459868	99
Es	1.057919	1.039899	1.528414	99
Es	-0.012296	-0.746086	-0.104341	99
Es	0.201511	-0.024539	-0.130167	99
Es	-1.623111	-0.655797	-0.208463	99
Es	0.410438	0.685413	-0.157565	99
Es	0.310366	1.028148	-0.806422	99
Es	-1.498274	-0.705486	-1.020779	99
Es	1.146695	2.061817	0.807168	99
Es	0.949923	1.355315	0.871528	99
Es	0.400902	-1.137495	-0.599861	99
Es	-1.578423	-1.455975	-0.394379	99
Es	0.985749	0.930002	0.268465	99
Es	-1.425385	-0.858057	-0.425248	99
27
Properties=species:S:1:pos:R:3:Z:I:1 energy=-172.140583637597 field_type=dipole dipole="0.000000 0.000000 0.000000" charge=0
N	-1.425706	-0.857731	-0.424904	7
C	-0.012166	-0.746121	-0.104294	6
C	0.410474	0.685479	-0.157484	6
C	0.949874	1.355269	0.871456	6
H	-1.704706	-1.834271	-0.356194	1
H	-1.572816	-0.590591	-1.395864	1
H	0.576464	-1.327031	-0.823254	1
H	0.166064	-1.174331	0.888126	1
H	0.273704	1.205949	-1.101704	1
H	1.104254	0.886159	1.837656	1
H	1.234555	2.397219	0.766456	1
Es	-1.623356	-0.655910	-0.208627	99
Es	-0.012294	-0.746086	-0.104340	99
Es	-1.425372	-0.858075	-0.425276	99
Es	-1.578435	-1.455845	-0.394510	99
Es	0.985485	0.930098	0.268506	99
Es	0.109349	-1.035475	0.573977	99
Es	0.310412	1.028179	-0.806459	99
Es	0.201576	-0.024719	-0.130046	99
Es	0.949918	1.355313	0.871524	99
Es	0.394352	1.115361	0.459778	99
Es	1.057933	1.039886	1.528451	99
Es	-0.802457	-0.819897	-0.304450	99
Es	-1.498223	-0.705591	-1.020691	99
Es	1.146668	2.061864	0.807101	99
Es	0.400971	-1.137457	-0.599709	99
Es	0.410437	0.685414	-0.157564	99
27
Properties=species:S:1:pos:R:3:Z:I:1 energy=-172.140583637597 field_type=dipole dipole="0.000000 0.000000 0.000000" charge=0
N	-1.425706	-0.857731	-0.424904	7
C	-0.012166	-0.746121	-0.104294	6
C	0.410474	0.685479	-0.157484	6
C	0.949874	1.355269	0.871456	6
H	-1.704706	-1.834271	-0.356194	1
H	-1.572816	-0.590591	-1.395864	1
H	0.576464	-1.327031	-0.823254	1
H	0.166064	-1.174331	0.888126	1
H	0.273704	1.205949	-1.101704	1
H	1.104254	0.886159	1.837656	1
H	1.234555	2.397219	0.766456	1
Es	1.057895	1.039844	1.528467	99
Es	0.401001	-1.137337	-0.599640	99
Es	-0.012294	-0.746087	-0.104340	99
Es	0.410440	0.685415	-0.157563	99
Es	-0.802359	-0.819863	-0.304531	99
Es	1.146669	2.061879	0.807115	99
Es	-1.425391	-0.858045	-0.425243	99
Es	-1.498305	-0.705757	-1.020577	99
Es	0.985304	0.930193	0.268544	99
Es	-1.578524	-1.455756	-0.394459	99
Es	0.109429	-1.035479	0.573958	99
Es	0.201543	-0.024951	-0.129951	99
Es	0.949917	1.355313	0.871524	99
Es	0.310432	1.028309	-0.806453	99
Es	-1.623404	-0.655921	-0.208817	99
Es	0.394609	1.115306	0.459632	99
27
Properties=species:S:1:pos:R:3:Z:I:1 energy=-172.140583637597 field_type=dipole dipole="0.000000 0.000000 0.000000" charge=0
N	-1.425706	-0.857731	-0.424904	7
C	-0.012166	-0.746121	-0.104294	6
C	0.410474	0.685479	-0.157484	6
C	0.949874	1.355269	0.871456	6
H	-1.704706	-1.834271	-0.356194	1
H	-1.572816	-0.590591	-1.395864	1
H	0.576464	-1.327031	-0.823254	1
H	0.166064	-1.174331	0.888126	1
H	0.273704	1.205949	-1.101704	1
H	1.104254	0.886159	1.837656	1
H	1.234555	2.397219	0.766456	1
Es	-0.012292	-0.746088	-0.104340	99
Es	0.949918	1.355313	0.871523	99
Es	1.146653	2.061838	0.807099	99
Es	0.985119	0.930298	0.268545	99
Es	-1.623386	-0.656027	-0.208971	99
Es	0.201557	-0.025160	-0.129897	99
Es	1.057906	1.039826	1.528520	99
Es	0.394777	1.115306	0.459529	99
Es	-1.498385	-0.705742	-1.020517	99
Es	-1.425363	-0.858067	-0.425262	99
Es	-0.802269	-0.819945	-0.304476	99
Es	0.410441	0.685414	-0.157561	99
Es	0.401052	-1.137285	-0.599549	99
Es	0.310473	1.028412	-0.806428	99
Es	0.109465	-1.035436	0.573913	99
Es	-1.578704	-1.455598	-0.394462	99
27
Properties=species:S:1:pos:R:3:Z:I:1 energy=-172.140583637597 field_type=dipole dipole="0.000000 0.000000 0.000000" charge=0
N	-1.425706	-0.857731	-0.424904	7
C	-0.012166	-0.746121	-0.104294	6
C	0.410474	0.685479	-0.157484	6
C	0.949874	1.355269	0.871456	6
H	-1.704706	-1.834271	-0.356194	1
H	-1.572816	-0.590591	-1.395864	1
H	0.576464	-1.327031	-0.823254	1
H	0.166064	-1.174331	0.888126	1
H	0.273704	1.205949	-1.101704	1
H	1.104254	0.886159	1.837656	1
H	1.234555	2.397219	0.766456	1
Es	0.410440	0.685415	-0.157562	99
Es	1.057914	1.039792	1.528491	99
Es	0.984896	0.930351	0.268607	99
Es	0.109517	-1.035401	0.573848	99
Es	-0.802280	-0.820011	-0.304345	99
Es	-1.498310	-0.705653	-1.020390	99
Es	-1.425378	-0.858075	-0.425252	99
Es	-1.623421	-0.656117	-0.209128	99
Es	-1.578844	-1.455568	-0.394617	99
Es	-0.012286	-0.746088	-0.104339	99
Es	0.949916	1.355311	0.871520	99
Es	1.146660	2.061914	0.807078	99
Es	0.201521	-0.025337	-0.129790	99
Es	0.401101	-1.137214	-0.599485	99
Es	0.310464	1.028549	-0.806425	99
Es	0.395051	1.115194	0.459452	99
