34
Properties=species:S:1:pos:R:3:Z:I:1 energy=-267.69743113208426 field_type=dipole dipole="0.000000 0.000000 0.000000" charge=0
C	-1.417097	-0.698716	-0.325993	6
C	0.019183	-0.809746	-0.772173	6
O	0.428623	-1.827106	-1.335223	8
C	0.916283	0.392874	-0.565213	6
C	0.935033	0.853124	0.830187	6
C	0.953883	1.236374	1.968357	6
H	-1.855997	0.221284	-0.720313	1
H	-1.472657	-0.709226	0.764887	1
H	-1.986707	-1.547666	-0.715073	1
H	0.570813	1.189854	-1.231773	1
H	1.931323	0.121954	-0.876443	1
H	0.977313	1.576994	2.978776	1
Es	0.428515	-1.826864	-1.335095	99
Es	-0.699169	-0.740301	-0.541293	99
Es	0.935023	0.853028	0.829908	99
Es	0.736198	-1.809919	-1.413571	99
Es	0.967958	1.457407	2.625480	99
Es	1.073190	0.727463	1.510773	99
Es	-1.696038	-0.075819	-0.590384	99
Es	0.220402	-1.359769	-1.353300	99
Es	-1.794601	-1.264024	-0.586732	99
Es	1.168561	1.308278	1.306864	99
Es	0.019206	-0.809709	-0.772158	99
Es	0.916221	0.392902	-0.565072	99
Es	0.345242	-1.555200	-0.910962	99
Es	0.204681	-2.047615	-1.368527	99
Es	0.587314	1.099882	1.394817	99
Es	0.471941	-0.189875	-0.637868	99
Es	-1.438247	-0.701218	0.393651	99
Es	0.911250	0.624830	0.155529	99
Es	0.953885	1.236438	1.968564	99
Es	-1.417034	-0.698690	-0.326005	99
Es	1.583964	0.220211	-0.754621	99
Es	0.672890	0.915056	-0.990481	99
34
Properties=species:S:1:pos:R:3:Z:I:1 energy=-267.69743113208426 field_type=dipole dipole="0.000000 0.000000 0.000000" charge=0
C	-1.417097	-0.698716	-0.325993	6
C	0.019183	-0.809746	-0.772173	6
O	0.428623	-1.827106	-1.335223	8
C	0.916283	0.392874	-0.565213	6
C	0.935033	0.853124	0.830187	6
C	0.953883	1.236374	1.968357	6
H	-1.855997	0.221284	-0.720313	1
H	-1.472657	-0.709226	0.764887	1
H	-1.986707	-1.547666	-0.715073	1
H	0.570813	1.189854	-1.231773	1
H	1.931323	0.121954	-0.876443	1
H	0.977313	1.576994	2.978776	1
Es	0.953889	1.236439	1.968554	99
Es	0.220445	-1.360387	-1.353493	99
Es	-1.438078	-0.701205	0.393579	99
Es	0.672845	0.915278	-0.990521	99
Es	0.428562	-1.826802	-1.335051	99
Es	1.584033	0.220223	-0.754464	99
Es	1.216241	1.264794	1.320279	99
Es	-0.699302	-0.740375	-0.541183	99
Es	0.346905	-1.553942	-0.910653	99
Es	-1.696040	-0.075743	-0.590316	99
Es	0.911141	0.624697	0.155300	99
Es	-1.794692	-1.264121	-0.586690	99
Es	0.019205	-0.809708	-0.772159	99
Es	0.603675	1.161363	1.375962	99
Es	1.009137	0.709523	1.516286	99
Es	0.968076	1.457342	2.625396	99
Es	-1.417033	-0.698689	-0.326005	99
Es	0.935032	0.853034	0.829920	99
Es	0.735533	-1.811964	-1.415891	99
Es	0.203505	-2.046196	-1.366507	99
Es	0.472052	-0.189972	-0.637752	99
Es	0.916222	0.392903	-0.565073	99
34
Properties=species:S:1:pos:R:3:Z:I:1 energy=-267.69743113208426 field_type=dipole dipole="0.000000 0.000000 0.000000" charge=0
C	-1.417097	-0.698716	-0.325993	6
C	0.019183	-0.809746	-0.772173	6
O	0.428623	-1.827106	-1.335223	8
C	0.916283	0.392874	-0.565213	6
C	0.935033	0.853124	0.830187	6
C	0.953883	1.236374	1.968357	6
H	-1.855997	0.221284	-0.720313	1
H	-1.472657	-0.709226	0.764887	1
H	-1.986707	-1.547666	-0.715073	1
H	0.570813	1.189854	-1.231773	1
H	1.931323	0.121954	-0.876443	1
H	0.977313	1.576994	2.978776	1
Es	-1.696034	-0.075675	-0.590467	99
Es	0.472098	-0.189978	-0.637654	99
Es	1.584180	0.220198	-0.754254	99
Es	-1.794557	-1.263989	-0.586718	99
Es	0.935022	0.853030	0.829918	99
Es	0.428553	-1.826821	-1.335081	99
Es	1.202756	1.278377	1.315979	99
Es	-1.438156	-0.701306	0.393706	99
Es	0.968005	1.457457	2.625306	99
Es	0.019205	-0.809705	-0.772161	99
Es	-0.699481	-0.740545	-0.541189	99
Es	0.346515	-1.554250	-0.910296	99
Es	0.672815	0.915432	-0.990597	99
Es	0.220877	-1.360382	-1.353156	99
Es	-1.417032	-0.698690	-0.326005	99
Es	0.916223	0.392901	-0.565072	99
Es	0.911016	0.624627	0.155058	99
Es	0.596632	1.142981	1.381636	99
Es	1.029797	0.714209	1.514986	99
Es	0.953870	1.236452	1.968551	99
Es	0.203531	-2.045727	-1.367184	99
Es	0.735518	-1.812103	-1.415789	99
34
Properties=species:S:1:pos:R:3:Z:I:1 energy=-267.69743113208426 field_type=dipole dipole="0.000000 0.000000 0.000000" charge=0
C	-1.417097	-0.698716	-0.325993	6
C	0.019183	-0.809746	-0.772173	6
O	0.428623	-1.827106	-1.335223	8
C	0.916283	0.392874	-0.565213	6
C	0.935033	0.853124	0.830187	6
C	0.953883	1.236374	1.968357	6
H	-1.855997	0.221284	-0.720313	1
H	-1.472657	-0.709226	0.764887	1
H	-1.986707	-1.547666	-0.715073	1
H	0.570813	1.189854	-1.231773	1
H	1.931323	0.121954	-0.876443	1
H	0.977313	1.576994	2.978776	1
Es	-0.699607	-0.740648	-0.541090	99
Es	1.584304	0.220257	-0.754260	99
Es	0.472247	-0.190058	-0.637522	99
Es	-1.794646	-1.264070	-0.586684	99
Es	0.587101	1.100709	1.394646	99
Es	-1.695929	-0.075730	-0.590532	99
Es	0.735382	-1.813661	-1.415760	99
Es	0.935024	0.853031	0.829916	99
Es	-1.417034	-0.698690	-0.326004	99
Es	0.346812	-1.552631	-0.911119	99
Es	1.072740	0.726979	1.511047	99
Es	0.202981	-2.045465	-1.365360	99
Es	0.953886	1.236437	1.968559	99
Es	1.169208	1.307958	1.306976	99
Es	0.916224	0.392903	-0.565076	99
Es	0.019204	-0.809709	-0.772159	99
Es	0.911174	0.624461	0.154903	99
Es	0.221174	-1.360651	-1.354288	99
Es	0.967993	1.457463	2.625187	99
Es	0.672679	0.915546	-0.990510	99
Es	-1.438132	-0.701152	0.393718	99
Es	0.428568	-1.826787	-1.335070	99
34
Properties=species:S:1:pos:R:3:Z:I:1 energy=-267.69743113208426 field_type=dipole dipole="0.000000 0.000000 0.000000" charge=0
C	-1.417097	-0.698716	-0.325993	6
C	0.019183	-0.809746	-0.772173	6
O	0.428623	-1.827106	-1.335223	8
C	0.916283	0.392874	-0.565213	6
C	0.935033	0.853124	0.830187	6
C	0.953883	1.236374	1.968357	6
H	-1.855997	0.221284	-0.720313	1
H	-1.472657	-0.709226	0.764887	1
H	-1.986707	-1.547666	-0.715073	1
H	0.570813	1.189854	-1.231773	1
H	1.931323	0.121954	-0.876443	1
H	0.977313	1.576994	2.978776	1
Es	0.911025	0.624503	0.154720	99
Es	0.428510	-1.826829	-1.335067	99
Es	0.220586	-1.360458	-1.354476	99
Es	0.998363	0.707564	1.516917	99
Es	0.472343	-0.190112	-0.637393	99
Es	0.019207	-0.809713	-0.772154	99
Es	0.735207	-1.811260	-1.413900	99
Es	0.916223	0.392902	-0.565076	99
Es	-1.438110	-0.701208	0.393716	99
Es	0.345475	-1.553579	-0.910868	99
Es	-1.417035	-0.698690	-0.326003	99
Es	0.935023	0.853030	0.829920	99
Es	-1.695957	-0.075696	-0.590504	99
Es	0.672591	0.915638	-0.990512	99
Es	0.607111	1.171475	1.372875	99
Es	0.205112	-2.047019	-1.367312	99
Es	0.968129	1.457345	2.625127	99
Es	-1.794617	-1.264072	-0.586717	99
Es	1.584410	0.220298	-0.754197	99
Es	0.953896	1.236425	1.968556	99
Es	-0.699699	-0.740670	-0.541091	99
Es	1.223559	1.256617	1.322956	99
