45
Properties=species:S:1:pos:R:3:Z:I:1 energy=-288.0636374549056 field_type=dipole dipole="0.000000 0.000000 0.000000" charge=0
N	-2.505861	-0.158257	0.087877	7
C	-1.114021	-0.054507	-0.332313	6
C	-0.385061	0.954933	0.578347	6
C	0.710159	-0.112267	0.816047	6
C	-0.300941	-1.182407	0.328367	6
C	1.994529	-0.034287	0.060457	6
C	2.119739	0.519163	-1.151883	6
H	-2.995921	-0.952877	-0.321493	1
H	-3.064051	0.663093	-0.142753	1
H	-0.953161	0.074023	-1.406433	1
H	-0.912171	1.226433	1.502807	1
H	-0.076391	1.885683	0.092487	1
H	0.940279	-0.222977	1.884567	1
H	0.086599	-1.937047	-0.363813	1
H	-0.792581	-1.706507	1.158036	1
H	2.868829	-0.465127	0.542957	1
H	1.291759	0.964513	-1.689403	1
H	3.088259	0.538423	-1.643853	1
Es	0.876898	-0.188354	1.548643	99
Es	-1.926901	-0.108794	-0.144768	99
Es	-2.833647	0.342947	-0.077752	99
Es	-0.169158	1.592640	0.242628	99
Es	-2.506737	-0.196490	0.433092	99
Es	-0.300911	-1.182346	0.328359	99
Es	0.277665	-0.706666	0.581984	99
Es	2.126342	0.536514	-0.423337	99
Es	1.556689	0.822519	-1.517342	99
Es	2.773568	0.534652	-1.493282	99
Es	2.582957	-0.331607	0.393031	99
Es	-1.114152	-0.054519	-0.332233	99
Es	-0.031381	-1.700378	-0.145930	99
Es	-0.747322	1.125146	1.201317	99
Es	-0.385029	0.954878	0.578324	99
Es	0.225937	0.486661	0.716813	99
Es	1.994499	-0.034330	0.060547	99
Es	-2.505914	-0.158180	0.087273	99
Es	2.119747	0.519208	-1.151974	99
Es	1.349693	-0.063896	0.424422	99
Es	-0.799126	0.519326	0.091691	99
Es	-0.996501	0.035218	-1.070993	99
Es	-0.750123	-0.680657	-0.046922	99
Es	-0.642227	-1.525520	0.890214	99
Es	-2.792887	-0.636416	-0.185858	99
Es	1.993326	-0.034023	-0.700796	99
Es	0.710141	-0.112266	0.815998	99
45
Properties=species:S:1:pos:R:3:Z:I:1 energy=-288.0636374549056 field_type=dipole dipole="0.000000 0.000000 0.000000" charge=0
N	-2.505861	-0.158257	0.087877	7
C	-1.114021	-0.054507	-0.332313	6
C	-0.385061	0.954933	0.578347	6
C	0.710159	-0.112267	0.816047	6
C	-0.300941	-1.182407	0.328367	6
C	1.994529	-0.034287	0.060457	6
C	2.119739	0.519163	-1.151883	6
H	-2.995921	-0.952877	-0.321493	1
H	-3.064051	0.663093	-0.142753	1
H	-0.953161	0.074023	-1.406433	1
H	-0.912171	1.226433	1.502807	1
H	-0.076391	1.885683	0.092487	1
H	0.940279	-0.222977	1.884567	1
H	0.086599	-1.937047	-0.363813	1
H	-0.792581	-1.706507	1.158036	1
H	2.868829	-0.465127	0.542957	1
H	1.291759	0.964513	-1.689403	1
H	3.088259	0.538423	-1.643853	1
Es	0.876990	-0.188263	1.548317	99
Es	2.773653	0.534862	-1.493233	99
Es	-2.505898	-0.158191	0.087293	99
Es	-2.792802	-0.635998	-0.186006	99
Es	-2.833513	0.342492	-0.078107	99
Es	0.226278	0.486908	0.716998	99
Es	0.710144	-0.112267	0.815998	99
Es	1.556642	0.822453	-1.517318	99
Es	-0.300911	-1.182346	0.328359	99
Es	1.994500	-0.034329	0.060552	99
Es	-0.642116	-1.525579	0.889915	99
Es	-0.169344	1.592503	0.242932	99
Es	1.349420	-0.063820	0.424790	99
Es	-0.996573	0.035230	-1.070633	99
Es	1.993491	-0.033924	-0.700700	99
Es	-1.114144	-0.054521	-0.332229	99
Es	-0.747243	1.125235	1.201073	99
Es	-0.750245	-0.680924	-0.047245	99
Es	0.277970	-0.707012	0.582135	99
Es	-0.385030	0.954881	0.578324	99
Es	2.126227	0.536185	-0.423498	99
Es	2.119746	0.519210	-1.151977	99
Es	-2.506973	-0.196492	0.433967	99
Es	-0.031574	-1.700305	-0.145636	99
Es	2.583050	-0.331570	0.392979	99
Es	-0.799306	0.519604	0.091424	99
Es	-1.926990	-0.108754	-0.145323	99
45
Properties=species:S:1:pos:R:3:Z:I:1 energy=-288.0636374549056 field_type=dipole dipole="0.000000 0.000000 0.000000" charge=0
N	-2.505861	-0.158257	0.087877	7
C	-1.114021	-0.054507	-0.332313	6
C	-0.385061	0.954933	0.578347	6
C	0.710159	-0.112267	0.816047	6
C	-0.300941	-1.182407	0.328367	6
C	1.994529	-0.034287	0.060457	6
C	2.119739	0.519163	-1.151883	6
H	-2.995921	-0.952877	-0.321493	1
H	-3.064051	0.663093	-0.142753	1
H	-0.953161	0.074023	-1.406433	1
H	-0.912171	1.226433	1.502807	1
H	-0.076391	1.885683	0.092487	1
H	0.940279	-0.222977	1.884567	1
H	0.086599	-1.937047	-0.363813	1
H	-0.792581	-1.706507	1.158036	1
H	2.868829	-0.465127	0.542957	1
H	1.291759	0.964513	-1.689403	1
H	3.088259	0.538423	-1.643853	1
Es	2.773672	0.534828	-1.493258	99
Es	2.126175	0.535974	-0.423580	99
Es	1.993573	-0.033749	-0.700600	99
Es	-0.799382	0.519884	0.091254	99
Es	-2.833598	0.342468	-0.077856	99
Es	-2.505914	-0.158190	0.087259	99
Es	0.877132	-0.188342	1.548114	99
Es	-2.792767	-0.635626	-0.186126	99
Es	1.349109	-0.063738	0.425005	99
Es	-2.506949	-0.196849	0.434128	99
Es	-1.114146	-0.054521	-0.332229	99
Es	-0.169361	1.592477	0.243133	99
Es	0.278166	-0.707246	0.582089	99
Es	-1.927005	-0.108723	-0.145751	99
Es	-0.031748	-1.700401	-0.145390	99
Es	1.556632	0.822461	-1.517300	99
Es	-0.747195	1.125261	1.200880	99
Es	0.226448	0.487050	0.717278	99
Es	1.994500	-0.034331	0.060547	99
Es	-0.642061	-1.525454	0.889735	99
Es	-0.385028	0.954879	0.578323	99
Es	0.710138	-0.112269	0.816000	99
Es	2.583166	-0.331504	0.392947	99
Es	-0.750317	-0.681137	-0.047538	99
Es	-0.300908	-1.182345	0.328358	99
Es	-0.996631	0.035206	-1.070300	99
Es	2.119746	0.519203	-1.151973	99
