38
Properties=species:S:1:pos:R:3:Z:I:1 energy=-358.53192969448577 field_type=dipole dipole="0.000000 0.000000 0.000000" charge=0
C	-1.920621	-0.166057	0.175408	6
C	-0.597511	-0.120157	-0.020852	6
C	0.207359	1.135493	-0.112532	6
O	1.384319	0.957602	0.674088	8
N	2.163669	-0.138147	0.237218	7
C	1.477689	-1.185437	-0.088842	6
O	0.122079	-1.321647	-0.142302	8
H	-2.513241	0.736602	0.280358	1
H	-2.439241	-1.117607	0.238768	1
H	-0.335531	1.999013	0.284278	1
H	0.490109	1.351423	-1.149092	1
H	1.960919	-2.131078	-0.376502	1
Es	-0.162980	1.704117	0.156605	99
Es	1.866234	-0.667671	0.368160	99
Es	-2.312653	0.443188	0.243459	99
Es	1.477398	-1.185455	-0.088862	99
Es	-0.597222	-0.120383	-0.020904	99
Es	-0.113035	-0.850911	-0.090196	99
Es	0.082812	-1.470006	0.093890	99
Es	1.559809	1.213334	0.635406	99
Es	-1.920664	-0.166047	0.175383	99
Es	1.801828	-1.806425	-0.280074	99
Es	0.207512	1.135372	-0.112397	99
Es	0.392534	1.264839	-0.816832	99
Es	1.384199	0.957412	0.673774	99
Es	1.688068	0.459711	0.448608	99
Es	-1.321909	-0.129270	-0.249840	99
Es	2.162990	-0.138242	0.237184	99
Es	0.637179	-1.218213	-0.120629	99
Es	-1.231846	-0.138577	0.406872	99
Es	-0.196294	0.490154	-0.075027	99
Es	1.862345	-0.473195	-0.187477	99
Es	-2.270192	-0.800265	0.216274	99
Es	0.070677	-1.421521	-0.407529	99
Es	0.939829	0.993634	0.349699	99
Es	2.528898	-0.101386	0.249291	99
Es	0.122266	-1.321258	-0.142201	99
Es	1.282329	0.859658	0.945368	99
38
Properties=species:S:1:pos:R:3:Z:I:1 energy=-358.53192969448577 field_type=dipole dipole="0.000000 0.000000 0.000000" charge=0
C	-1.920621	-0.166057	0.175408	6
C	-0.597511	-0.120157	-0.020852	6
C	0.207359	1.135493	-0.112532	6
O	1.384319	0.957602	0.674088	8
N	2.163669	-0.138147	0.237218	7
C	1.477689	-1.185437	-0.088842	6
O	0.122079	-1.321647	-0.142302	8
H	-2.513241	0.736602	0.280358	1
H	-2.439241	-1.117607	0.238768	1
H	-0.335531	1.999013	0.284278	1
H	0.490109	1.351423	-1.149092	1
H	1.960919	-2.131078	-0.376502	1
Es	1.689222	0.459918	0.448715	99
Es	1.861760	-0.473707	-0.186925	99
Es	-1.321934	-0.129096	-0.249783	99
Es	-0.196307	0.490383	-0.075033	99
Es	-1.920659	-0.166048	0.175399	99
Es	-2.270267	-0.800281	0.216188	99
Es	2.528218	-0.101540	0.248332	99
Es	0.939093	0.993600	0.350348	99
Es	1.801954	-1.806443	-0.280278	99
Es	-0.597208	-0.120388	-0.020902	99
Es	0.392502	1.264765	-0.816801	99
Es	1.384218	0.957409	0.673779	99
Es	1.867270	-0.667562	0.368571	99
Es	1.283747	0.861503	0.946222	99
Es	-0.163027	1.704142	0.156528	99
Es	0.122267	-1.321290	-0.142216	99
Es	-0.113688	-0.850816	-0.089764	99
Es	0.207513	1.135372	-0.112397	99
Es	0.083842	-1.469520	0.093513	99
Es	0.637422	-1.218256	-0.121719	99
Es	-1.231810	-0.138656	0.406588	99
Es	-2.312564	0.443082	0.243669	99
Es	1.477397	-1.185458	-0.088859	99
Es	2.162983	-0.138237	0.237185	99
Es	0.069983	-1.422119	-0.406467	99
Es	1.558182	1.211836	0.634110	99
38
Properties=species:S:1:pos:R:3:Z:I:1 energy=-358.53192969448577 field_type=dipole dipole="0.000000 0.000000 0.000000" charge=0
C	-1.920621	-0.166057	0.175408	6
C	-0.597511	-0.120157	-0.020852	6
C	0.207359	1.135493	-0.112532	6
O	1.384319	0.957602	0.674088	8
N	2.163669	-0.138147	0.237218	7
C	1.477689	-1.185437	-0.088842	6
O	0.122079	-1.321647	-0.142302	8
H	-2.513241	0.736602	0.280358	1
H	-2.439241	-1.117607	0.238768	1
H	-0.335531	1.999013	0.284278	1
H	0.490109	1.351423	-1.149092	1
H	1.960919	-2.131078	-0.376502	1
Es	2.162984	-0.138242	0.237178	99
Es	0.122283	-1.321266	-0.142249	99
Es	0.083079	-1.470248	0.092943	99
Es	1.802141	-1.806471	-0.280149	99
Es	1.689657	0.459721	0.449224	99
Es	-2.312602	0.443091	0.243509	99
Es	0.071136	-1.421504	-0.405800	99
Es	-2.270242	-0.800205	0.216306	99
Es	1.558129	1.211735	0.635496	99
Es	0.939064	0.994185	0.350266	99
Es	1.862244	-0.473585	-0.186838	99
Es	-0.597210	-0.120386	-0.020892	99
Es	1.384223	0.957431	0.673873	99
Es	1.283624	0.861669	0.944563	99
Es	0.637545	-1.218498	-0.121058	99
Es	-1.231868	-0.138611	0.406402	99
Es	0.207513	1.135372	-0.112399	99
Es	1.867025	-0.667504	0.368035	99
Es	-1.321835	-0.129260	-0.249687	99
Es	0.392409	1.264800	-0.816775	99
Es	-1.920666	-0.166047	0.175395	99
Es	-0.163083	1.704068	0.156522	99
Es	-0.196275	0.490541	-0.075029	99
Es	-0.114280	-0.850703	-0.090441	99
Es	2.527718	-0.102034	0.248475	99
Es	1.477397	-1.185456	-0.088867	99
38
Properties=species:S:1:pos:R:3:Z:I:1 energy=-358.53192969448577 field_type=dipole dipole="0.000000 0.000000 0.000000" charge=0
C	-1.920621	-0.166057	0.175408	6
C	-0.597511	-0.120157	-0.020852	6
C	0.207359	1.135493	-0.112532	6
O	1.384319	0.957602	0.674088	8
N	2.163669	-0.138147	0.237218	7
C	1.477689	-1.185437	-0.088842	6
O	0.122079	-1.321647	-0.142302	8
H	-2.513241	0.736602	0.280358	1
H	-2.439241	-1.117607	0.238768	1
H	-0.335531	1.999013	0.284278	1
H	0.490109	1.351423	-1.149092	1
H	1.960919	-2.131078	-0.376502	1
Es	0.088211	-1.463565	0.095238	99
Es	1.802269	-1.806430	-0.280239	99
Es	-1.321769	-0.129269	-0.249480	99
Es	-0.196283	0.490709	-0.075202	99
Es	1.861969	-0.473898	-0.186524	99
Es	0.392382	1.264845	-0.816733	99
Es	2.162982	-0.138243	0.237198	99
Es	0.637630	-1.218297	-0.125020	99
Es	1.867753	-0.667483	0.368340	99
Es	1.384175	0.957394	0.673815	99
Es	1.477410	-1.185447	-0.088865	99
Es	-0.597216	-0.120383	-0.020900	99
Es	2.526988	-0.102209	0.247773	99
Es	0.122282	-1.321277	-0.142278	99
Es	-2.312622	0.443058	0.243491	99
Es	-1.231856	-0.138645	0.406333	99
Es	-1.920659	-0.166048	0.175395	99
Es	-2.270240	-0.800180	0.216219	99
Es	0.066399	-1.428744	-0.403138	99
Es	-0.114816	-0.850453	-0.091440	99
Es	1.284163	0.861525	0.943471	99
Es	-0.163173	1.704036	0.156551	99
Es	0.207510	1.135373	-0.112401	99
Es	1.691037	0.460500	0.448948	99
Es	0.938441	0.994361	0.350478	99
Es	1.557142	1.211363	0.636972	99
38
Properties=species:S:1:pos:R:3:Z:I:1 energy=-358.53192969448577 field_type=dipole dipole="0.000000 0.000000 0.000000" charge=0
C	-1.920621	-0.166057	0.175408	6
C	-0.597511	-0.120157	-0.020852	6
C	0.207359	1.135493	-0.112532	6
O	1.384319	0.957602	0.674088	8
N	2.163669	-0.138147	0.237218	7
C	1.477689	-1.185437	-0.088842	6
O	0.122079	-1.321647	-0.142302	8
H	-2.513241	0.736602	0.280358	1
H	-2.439241	-1.117607	0.238768	1
H	-0.335531	1.999013	0.284278	1
H	0.490109	1.351423	-1.149092	1
H	1.960919	-2.131078	-0.376502	1
Es	-0.115718	-0.850238	-0.093772	99
Es	0.392286	1.264705	-0.816770	99
Es	1.862477	-0.473800	-0.186398	99
Es	1.477398	-1.185461	-0.088868	99
Es	2.162986	-0.138230	0.237186	99
Es	1.285496	0.863452	0.944326	99
Es	-1.231793	-0.138743	0.406112	99
Es	-2.270272	-0.800118	0.216268	99
Es	0.207508	1.135374	-0.112402	99
Es	0.637998	-1.218226	-0.127299	99
Es	1.384181	0.957372	0.673760	99
Es	0.937871	0.994344	0.350947	99
Es	1.867675	-0.667637	0.368195	99
Es	0.092396	-1.456400	0.096746	99
Es	0.062723	-1.436317	-0.400019	99
Es	1.691341	0.460264	0.449355	99
Es	1.556256	1.210018	0.635379	99
Es	-1.920663	-0.166046	0.175382	99
Es	2.526323	-0.102359	0.247656	99
Es	-2.312595	0.443065	0.243454	99
Es	-0.196303	0.490950	-0.075035	99
Es	0.122271	-1.321279	-0.142224	99
Es	-0.597219	-0.120381	-0.020899	99
Es	1.802441	-1.806498	-0.280203	99
Es	-0.163181	1.704075	0.156509	99
Es	-1.321773	-0.129290	-0.249382	99
