41
Properties=species:S:1:pos:R:3:Z:I:1 energy=-359.6931355974614 field_type=dipole dipole="0.000000 0.000000 0.000000" charge=0
O	-2.955461	-0.822420	1.470849	8
N	-1.569101	-0.995740	1.402389	7
C	-1.161251	-0.616550	0.234359	6
C	0.296409	-0.659550	-0.126771	6
C	0.886119	0.711970	-0.119271	6
C	1.928079	1.126270	-1.123441	6
O	0.550919	1.508950	-1.262881	8
H	-3.158031	-1.096380	2.384619	1
H	-1.855001	-0.218440	-0.527221	1
H	0.380669	-1.125310	-1.114861	1
H	0.831949	-1.289990	0.590799	1
H	0.877509	1.183900	0.855229	1
H	2.314659	0.392910	-1.820131	1
H	2.632539	1.900380	-0.843671	1
Es	0.573675	1.217661	-0.792698	99
Es	0.873382	1.038329	0.538457	99
Es	0.657712	-1.074629	0.357892	99
Es	-1.622094	-0.352708	-0.274284	99
Es	0.350087	-0.965787	-0.792966	99
Es	-1.161195	-0.616550	0.234367	99
Es	-1.569462	-0.995511	1.401921	99
Es	1.101324	1.415695	-1.304705	99
Es	1.577212	0.792901	-0.498896	99
Es	1.927757	1.126343	-1.123449	99
Es	-1.348141	-0.563183	0.992555	99
Es	-3.059923	-0.971154	1.962339	99
Es	-2.349078	-0.897404	1.441537	99
Es	0.551133	1.508790	-1.262727	99
Es	2.185708	0.630496	-1.603052	99
Es	-0.436392	-0.636357	0.063157	99
Es	-3.000285	-0.513337	1.438172	99
Es	2.402683	1.657103	-0.940310	99
Es	-2.955255	-0.822538	1.471126	99
Es	0.296345	-0.659509	-0.126754	99
Es	0.413919	1.319554	-1.473079	99
Es	-3.070988	-1.029370	1.266723	99
Es	-1.425178	-1.100728	0.788707	99
Es	0.515670	1.810564	-1.183813	99
Es	0.580472	0.019745	-0.129236	99
Es	-1.390111	-1.136570	1.710201	99
Es	0.886055	0.712110	-0.119557	99
41
Properties=species:S:1:pos:R:3:Z:I:1 energy=-359.6931355974614 field_type=dipole dipole="0.000000 0.000000 0.000000" charge=0
O	-2.955461	-0.822420	1.470849	8
N	-1.569101	-0.995740	1.402389	7
C	-1.161251	-0.616550	0.234359	6
C	0.296409	-0.659550	-0.126771	6
C	0.886119	0.711970	-0.119271	6
C	1.928079	1.126270	-1.123441	6
O	0.550919	1.508950	-1.262881	8
H	-3.158031	-1.096380	2.384619	1
H	-1.855001	-0.218440	-0.527221	1
H	0.380669	-1.125310	-1.114861	1
H	0.831949	-1.289990	0.590799	1
H	0.877509	1.183900	0.855229	1
H	2.314659	0.392910	-1.820131	1
H	2.632539	1.900380	-0.843671	1
Es	-1.348007	-0.563394	0.992652	99
Es	-2.348570	-0.897453	1.441460	99
Es	0.886056	0.712112	-0.119551	99
Es	0.572111	1.217167	-0.792253	99
Es	0.657710	-1.074624	0.357854	99
Es	2.402535	1.656937	-0.940562	99
Es	-1.161199	-0.616578	0.234360	99
Es	-3.000585	-0.514574	1.437936	99
Es	-1.425137	-1.100159	0.788860	99
Es	-1.569454	-0.995508	1.401905	99
Es	-1.622232	-0.352744	-0.274144	99
Es	1.577796	0.792643	-0.498247	99
Es	0.516976	1.809102	-1.183521	99
Es	0.296348	-0.659512	-0.126752	99
Es	1.927764	1.126340	-1.123448	99
Es	0.413267	1.322185	-1.472454	99
Es	0.873147	1.038154	0.538212	99
Es	0.580589	0.019876	-0.129257	99
Es	2.185695	0.630817	-1.603005	99
Es	0.551141	1.508799	-1.262716	99
Es	-1.390058	-1.136670	1.709457	99
Es	1.101962	1.415256	-1.306332	99
Es	-3.060616	-0.971103	1.962506	99
Es	-3.070884	-1.028279	1.267320	99
Es	-0.436180	-0.636501	0.063041	99
Es	-2.955252	-0.822542	1.471120	99
Es	0.350110	-0.965790	-0.792812	99
41
Properties=species:S:1:pos:R:3:Z:I:1 energy=-359.6931355974614 field_type=dipole dipole="0.000000 0.000000 0.000000" charge=0
O	-2.955461	-0.822420	1.470849	8
N	-1.569101	-0.995740	1.402389	7
C	-1.161251	-0.616550	0.234359	6
C	0.296409	-0.659550	-0.126771	6
C	0.886119	0.711970	-0.119271	6
C	1.928079	1.126270	-1.123441	6
O	0.550919	1.508950	-1.262881	8
H	-3.158031	-1.096380	2.384619	1
H	-1.855001	-0.218440	-0.527221	1
H	0.380669	-1.125310	-1.114861	1
H	0.831949	-1.289990	0.590799	1
H	0.877509	1.183900	0.855229	1
H	2.314659	0.392910	-1.820131	1
H	2.632539	1.900380	-0.843671	1
Es	-1.390076	-1.136324	1.708805	99
Es	0.571503	1.217835	-0.790901	99
Es	-1.424929	-1.100082	0.789073	99
Es	0.886056	0.712109	-0.119549	99
Es	0.657736	-1.074490	0.357914	99
Es	-0.435963	-0.636538	0.063048	99
Es	-1.622340	-0.352806	-0.274083	99
Es	0.350080	-0.965946	-0.792825	99
Es	2.185648	0.631115	-1.602958	99
Es	0.873183	1.038063	0.537995	99
Es	-3.070257	-1.027895	1.268593	99
Es	-1.161192	-0.616560	0.234355	99
Es	0.296346	-0.659512	-0.126753	99
Es	-3.001156	-0.515128	1.436861	99
Es	-1.569443	-0.995508	1.401909	99
Es	0.580432	0.019951	-0.129223	99
Es	2.402441	1.656798	-0.940774	99
Es	0.413993	1.322100	-1.471670	99
Es	0.516407	1.807780	-1.185160	99
Es	1.927760	1.126339	-1.123445	99
Es	-3.061173	-0.970625	1.962602	99
Es	-2.348343	-0.897863	1.441592	99
Es	1.578279	0.792257	-0.497842	99
Es	0.551136	1.508766	-1.262695	99
Es	-1.347886	-0.563662	0.992684	99
Es	-2.955353	-0.822501	1.471083	99
Es	1.102144	1.416285	-1.307007	99
41
Properties=species:S:1:pos:R:3:Z:I:1 energy=-359.6931355974614 field_type=dipole dipole="0.000000 0.000000 0.000000" charge=0
O	-2.955461	-0.822420	1.470849	8
N	-1.569101	-0.995740	1.402389	7
C	-1.161251	-0.616550	0.234359	6
C	0.296409	-0.659550	-0.126771	6
C	0.886119	0.711970	-0.119271	6
C	1.928079	1.126270	-1.123441	6
O	0.550919	1.508950	-1.262881	8
H	-3.158031	-1.096380	2.384619	1
H	-1.855001	-0.218440	-0.527221	1
H	0.380669	-1.125310	-1.114861	1
H	0.831949	-1.289990	0.590799	1
H	0.877509	1.183900	0.855229	1
H	2.314659	0.392910	-1.820131	1
H	2.632539	1.900380	-0.843671	1
Es	0.515096	1.806806	-1.186451	99
Es	0.296342	-0.659511	-0.126752	99
Es	0.657834	-1.074613	0.357780	99
Es	-1.622411	-0.352899	-0.273993	99
Es	2.185606	0.631329	-1.602861	99
Es	2.402337	1.656642	-0.941020	99
Es	-1.390212	-1.136076	1.708129	99
Es	-3.070724	-1.026793	1.268522	99
Es	0.886058	0.712113	-0.119556	99
Es	0.349982	-0.965783	-0.792848	99
Es	-3.061609	-0.970648	1.962711	99
Es	1.578675	0.791915	-0.497367	99
Es	-2.955250	-0.822566	1.471127	99
Es	0.580343	0.020095	-0.129066	99
Es	0.873158	1.037958	0.537828	99
Es	1.102924	1.417204	-1.308008	99
Es	-3.000933	-0.516216	1.437276	99
Es	1.927760	1.126339	-1.123445	99
Es	-1.424769	-1.100051	0.789201	99
Es	-1.347757	-0.563747	0.992825	99
Es	0.551149	1.508779	-1.262708	99
Es	-1.569466	-0.995518	1.401928	99
Es	-2.348041	-0.897865	1.441417	99
Es	-0.435738	-0.636591	0.063117	99
Es	-1.161194	-0.616562	0.234358	99
Es	0.415113	1.322049	-1.470198	99
Es	0.570761	1.218170	-0.790317	99
