10
Properties=species:S:1:pos:R:3:Z:I:1 energy=-92.89859122931657 field_type=dipole dipole="0.000000 0.000000 0.000000" charge=0
N	-0.580000	0.000000	0.000000	7
C	0.580000	0.000000	0.000000	6
H	1.645000	0.000000	0.000000	1
Es	-0.041853	-0.191708	0.238840	99
Es	-0.041859	0.302675	0.046618	99
Es	-0.041852	-0.110950	-0.285448	99
Es	1.258284	-0.000003	-0.000004	99
Es	-0.579522	0.000000	0.000000	99
Es	-0.945268	-0.000014	-0.000006	99
Es	0.580323	-0.000000	0.000001	99
10
Properties=species:S:1:pos:R:3:Z:I:1 energy=-92.89859122931657 field_type=dipole dipole="0.000000 0.000000 0.000000" charge=0
N	-0.580000	0.000000	0.000000	7
C	0.580000	0.000000	0.000000	6
H	1.645000	0.000000	0.000000	1
Es	0.580322	-0.000000	-0.000000	99
Es	-0.042014	0.306523	-0.008413	99
Es	1.258290	-0.000012	-0.000011	99
Es	-0.579522	-0.000000	0.000000	99
Es	-0.944793	0.000015	-0.000006	99
Es	-0.042015	-0.160551	-0.261356	99
Es	-0.042014	-0.145974	0.269786	99
10
Properties=species:S:1:pos:R:3:Z:I:1 energy=-92.89859122931657 field_type=dipole dipole="0.000000 0.000000 0.000000" charge=0
N	-0.580000	0.000000	0.000000	7
C	0.580000	0.000000	0.000000	6
H	1.645000	0.000000	0.000000	1
Es	-0.944369	0.000004	0.000015	99
Es	-0.042157	0.277664	-0.131208	99
Es	0.580322	-0.000001	-0.000001	99
Es	-0.042163	-0.252408	-0.174886	99
Es	1.258295	-0.000001	0.000003	99
Es	-0.042151	-0.025257	0.306076	99
Es	-0.579522	0.000000	0.000000	99
10
Properties=species:S:1:pos:R:3:Z:I:1 energy=-92.89859122931657 field_type=dipole dipole="0.000000 0.000000 0.000000" charge=0
N	-0.580000	0.000000	0.000000	7
C	0.580000	0.000000	0.000000	6
H	1.645000	0.000000	0.000000	1
Es	1.258295	-0.000019	0.000005	99
Es	-0.042314	0.294432	0.088788	99
Es	-0.042318	-0.070239	-0.299384	99
Es	-0.943899	-0.000011	0.000015	99
Es	-0.042308	-0.224162	0.210577	99
Es	0.580321	-0.000000	-0.000000	99
Es	-0.579522	0.000000	0.000000	99
10
Properties=species:S:1:pos:R:3:Z:I:1 energy=-92.89859122931657 field_type=dipole dipole="0.000000 0.000000 0.000000" charge=0
N	-0.580000	0.000000	0.000000	7
C	0.580000	0.000000	0.000000	6
H	1.645000	0.000000	0.000000	1
Es	-0.943477	0.000021	0.000010	99
Es	-0.579522	0.000000	0.000000	99
Es	-0.042450	0.255624	0.171624	99
Es	-0.042457	-0.276472	0.135573	99
Es	0.580321	0.000000	-0.000000	99
Es	1.258297	0.000010	0.000002	99
Es	-0.042457	0.020817	-0.307209	99
10
Properties=species:S:1:pos:R:3:Z:I:1 energy=-92.89859122931657 field_type=dipole dipole="0.000000 0.000000 0.000000" charge=0
N	-0.580000	0.000000	0.000000	7
C	0.580000	0.000000	0.000000	6
H	1.645000	0.000000	0.000000	1
Es	0.580320	0.000000	-0.000000	99
Es	-0.579522	-0.000000	0.000000	99
Es	-0.042598	0.238056	-0.195897	99
Es	1.258296	0.000001	-0.000000	99
Es	-0.042602	-0.288685	-0.108214	99
Es	-0.042600	0.050618	0.304112	99
Es	-0.943039	0.000010	-0.000001	99
10
Properties=species:S:1:pos:R:3:Z:I:1 energy=-92.89859122931657 field_type=dipole dipole="0.000000 0.000000 0.000000" charge=0
N	-0.580000	0.000000	0.000000	7
C	0.580000	0.000000	0.000000	6
H	1.645000	0.000000	0.000000	1
Es	-0.942647	-0.000003	-0.000001	99
Es	-0.579522	0.000000	-0.000000	99
Es	-0.042729	0.253403	0.176211	99
Es	1.258285	0.000016	-0.000007	99
Es	-0.042728	0.025902	-0.307558	99
Es	-0.042724	-0.279317	0.131355	99
Es	0.580320	-0.000000	0.000000	99
10
Properties=species:S:1:pos:R:3:Z:I:1 energy=-92.89859122931657 field_type=dipole dipole="0.000000 0.000000 0.000000" charge=0
N	-0.580000	0.000000	0.000000	7
C	0.580000	0.000000	0.000000	6
H	1.645000	0.000000	0.000000	1
Es	0.580319	0.000000	0.000000	99
Es	-0.042859	-0.280549	0.129448	99
Es	-0.042857	0.028174	-0.307693	99
Es	-0.579522	0.000000	-0.000000	99
Es	1.258290	0.000000	-0.000001	99
Es	-0.042859	0.252373	0.178250	99
Es	-0.942257	0.000001	-0.000003	99
10
Properties=species:S:1:pos:R:3:Z:I:1 energy=-92.89859122931657 field_type=dipole dipole="0.000000 0.000000 0.000000" charge=0
N	-0.580000	0.000000	0.000000	7
C	0.580000	0.000000	0.000000	6
H	1.645000	0.000000	0.000000	1
Es	0.580318	0.000000	-0.000000	99
Es	-0.042986	-0.286756	0.115948	99
Es	-0.042986	0.243792	0.190364	99
Es	1.258283	-0.000000	0.000000	99
Es	-0.042986	0.042965	-0.306312	99
Es	-0.579522	-0.000000	-0.000000	99
Es	-0.941866	-0.000000	-0.000000	99
10
Properties=species:S:1:pos:R:3:Z:I:1 energy=-92.89859122931657 field_type=dipole dipole="0.000000 0.000000 0.000000" charge=0
N	-0.580000	0.000000	0.000000	7
C	0.580000	0.000000	0.000000	6
H	1.645000	0.000000	0.000000	1
Es	0.580318	-0.000000	0.000000	99
Es	-0.043116	-0.216639	0.221199	99
Es	-0.579522	-0.000000	0.000000	99
Es	-0.941492	0.000019	-0.000010	99
Es	-0.043104	0.299884	0.077039	99
Es	1.258279	0.000003	-0.000003	99
Es	-0.043107	-0.083268	-0.298225	99
