14
Properties=species:S:1:pos:R:3:Z:I:1 energy=-187.68919801895981 field_type=dipole dipole="0.000000 0.000000 0.000000" charge=0
O	-1.157569	0.000000	0.000000	8
O	1.157569	0.000000	0.000000	8
C	0.000000	0.000000	0.000000	6
Es	-0.846340	-0.159840	-0.216283	99
Es	0.846462	-0.067942	-0.260194	99
Es	-0.846353	-0.107213	0.246682	99
Es	-1.433758	-0.000070	-0.000022	99
Es	1.433757	0.000043	0.000001	99
Es	-0.000000	-0.000000	0.000000	99
Es	1.157098	0.000000	-0.000000	99
Es	-1.157099	-0.000000	0.000000	99
Es	0.846409	0.259296	0.071254	99
Es	-0.846625	0.267124	-0.030377	99
Es	0.846448	-0.191398	0.188939	99
14
Properties=species:S:1:pos:R:3:Z:I:1 energy=-187.68919801895981 field_type=dipole dipole="0.000000 0.000000 0.000000" charge=0
O	-1.157569	0.000000	0.000000	8
O	1.157569	0.000000	0.000000	8
C	0.000000	0.000000	0.000000	6
Es	-0.000001	-0.000000	0.000000	99
Es	-0.846947	0.045407	0.266130	99
Es	-1.157096	-0.000000	-0.000000	99
Es	-0.846851	-0.253142	-0.093806	99
Es	1.157095	-0.000000	0.000000	99
Es	0.846837	0.171326	0.208628	99
Es	1.432267	-0.000106	0.000213	99
Es	-1.432270	-0.000093	0.000007	99
Es	0.847191	0.095150	-0.252682	99
Es	-0.847022	0.207827	-0.172333	99
Es	0.846795	-0.266370	0.043843	99
14
Properties=species:S:1:pos:R:3:Z:I:1 energy=-187.68919801895981 field_type=dipole dipole="0.000000 0.000000 0.000000" charge=0
O	-1.157569	0.000000	0.000000	8
O	1.157569	0.000000	0.000000	8
C	0.000000	0.000000	0.000000	6
Es	-0.847446	-0.250307	0.103649	99
Es	-1.430911	0.000053	-0.000033	99
Es	-0.847363	0.035375	-0.268566	99
Es	0.847387	0.021070	0.270075	99
Es	1.157094	-0.000000	-0.000000	99
Es	0.847396	0.223355	-0.153299	99
Es	-0.847380	0.214878	0.164951	99
Es	1.430910	0.000001	0.000009	99
Es	0.847408	-0.244426	-0.116786	99
Es	-0.000000	-0.000000	-0.000000	99
Es	-1.157094	0.000000	0.000000	99
14
Properties=species:S:1:pos:R:3:Z:I:1 energy=-187.68919801895981 field_type=dipole dipole="0.000000 0.000000 0.000000" charge=0
O	-1.157569	0.000000	0.000000	8
O	1.157569	0.000000	0.000000	8
C	0.000000	0.000000	0.000000	6
Es	1.157092	0.000000	0.000000	99
Es	0.847742	0.261088	0.075174	99
Es	0.847847	-0.195677	0.188515	99
Es	-1.157090	-0.000000	-0.000000	99
Es	-0.847839	0.128464	0.239455	99
Es	-0.847793	0.143117	-0.230923	99
Es	-1.429667	0.000018	-0.000059	99
Es	0.847855	-0.065482	-0.263730	99
Es	-0.847814	-0.271600	-0.008471	99
Es	1.429667	0.000072	0.000040	99
Es	0.000000	0.000000	0.000000	99
14
Properties=species:S:1:pos:R:3:Z:I:1 energy=-187.68919801895981 field_type=dipole dipole="0.000000 0.000000 0.000000" charge=0
O	-1.157569	0.000000	0.000000	8
O	1.157569	0.000000	0.000000	8
C	0.000000	0.000000	0.000000	6
Es	0.848339	-0.175602	0.208315	99
Es	-0.848181	0.235464	-0.137039	99
Es	-1.157088	0.000001	-0.000000	99
Es	0.848131	-0.092660	-0.256198	99
Es	0.848127	0.268181	0.047976	99
Es	-0.848197	-0.236420	-0.135387	99
Es	0.000000	-0.000000	-0.000000	99
Es	1.157088	0.000001	-0.000000	99
Es	1.428524	0.000080	-0.000092	99
Es	-1.428530	0.000008	-0.000016	99
Es	-0.848215	0.000947	0.272441	99
14
Properties=species:S:1:pos:R:3:Z:I:1 energy=-187.68919801895981 field_type=dipole dipole="0.000000 0.000000 0.000000" charge=0
O	-1.157569	0.000000	0.000000	8
O	1.157569	0.000000	0.000000	8
C	0.000000	0.000000	0.000000	6
Es	-0.848551	-0.126551	-0.241996	99
Es	0.848551	-0.148806	-0.228986	99
Es	-0.000000	0.000000	-0.000000	99
Es	-0.848551	-0.146303	0.230592	99
Es	0.848543	-0.123901	0.243364	99
Es	-1.427487	0.000004	0.000000	99
Es	-1.157086	-0.000000	-0.000000	99
Es	0.848552	0.272711	-0.014382	99
Es	1.157085	0.000000	0.000000	99
Es	1.427486	-0.000003	0.000004	99
Es	-0.848542	0.272850	0.011404	99
14
Properties=species:S:1:pos:R:3:Z:I:1 energy=-187.68919801895981 field_type=dipole dipole="0.000000 0.000000 0.000000" charge=0
O	-1.157569	0.000000	0.000000	8
O	1.157569	0.000000	0.000000	8
C	0.000000	0.000000	0.000000	6
Es	0.848937	0.218170	-0.165248	99
Es	0.848891	-0.252155	-0.106374	99
Es	-0.848912	-0.254314	-0.101084	99
Es	-0.848882	0.039563	0.270788	99
Es	0.848797	0.034005	0.271548	99
Es	1.426517	-0.000020	0.000074	99
Es	-1.157082	0.000001	-0.000001	99
Es	1.157082	-0.000000	0.000000	99
Es	-1.426521	0.000021	0.000004	99
Es	-0.848827	0.214729	-0.169707	99
Es	0.000000	-0.000000	0.000000	99
14
Properties=species:S:1:pos:R:3:Z:I:1 energy=-187.68919801895981 field_type=dipole dipole="0.000000 0.000000 0.000000" charge=0
O	-1.157569	0.000000	0.000000	8
O	1.157569	0.000000	0.000000	8
C	0.000000	0.000000	0.000000	6
Es	1.425591	-0.000046	0.000001	99
Es	-0.849184	-0.114387	0.249214	99
Es	0.849242	0.268781	0.054410	99
Es	0.849152	-0.181493	0.205571	99
Es	0.849166	-0.087238	-0.259978	99
Es	0.000000	-0.000000	-0.000000	99
Es	-0.849196	0.273022	-0.025523	99
Es	-0.849153	-0.158618	-0.223678	99
Es	1.157078	-0.000001	-0.000002	99
Es	-1.425617	-0.000019	-0.000015	99
Es	-1.157079	-0.000000	0.000000	99
14
Properties=species:S:1:pos:R:3:Z:I:1 energy=-187.68919801895981 field_type=dipole dipole="0.000000 0.000000 0.000000" charge=0
O	-1.157569	0.000000	0.000000	8
O	1.157569	0.000000	0.000000	8
C	0.000000	0.000000	0.000000	6
Es	0.848944	-0.241763	-0.131431	99
Es	-1.421197	0.000235	0.000147	99
Es	0.849003	0.006363	0.275086	99
Es	-0.847855	0.257232	0.098774	99
Es	0.846851	0.231664	-0.141653	99
Es	0.000000	0.000000	-0.000000	99
Es	1.420942	0.000725	-0.000212	99
Es	1.157067	-0.000002	0.000001	99
Es	-1.157065	0.000000	-0.000000	99
Es	-0.847940	-0.213525	0.171119	99
Es	-0.848750	-0.040930	-0.271832	99
14
Properties=species:S:1:pos:R:3:Z:I:1 energy=-187.68919801895981 field_type=dipole dipole="0.000000 0.000000 0.000000" charge=0
O	-1.157569	0.000000	0.000000	8
O	1.157569	0.000000	0.000000	8
C	0.000000	0.000000	0.000000	6
Es	-1.157072	0.000001	0.000002	99
Es	0.000000	0.000000	0.000000	99
Es	-0.849841	0.200423	-0.188443	99
Es	0.849690	-0.275071	0.003021	99
Es	0.849689	0.140151	0.236707	99
Es	1.157073	0.000000	0.000000	99
Es	0.849690	0.134920	-0.239729	99
Es	-0.849838	-0.263334	-0.079597	99
Es	-0.849396	0.062853	0.267791	99
Es	-1.424092	0.000057	0.000247	99
Es	1.424096	0.000000	0.000001	99
