27
Properties=species:S:1:pos:R:3:Z:I:1 energy=-172.11277364013068 field_type=dipole dipole="0.000000 0.000000 0.000000" charge=0
C	-1.239611	-0.008605	0.579296	6
N	0.213849	-0.079675	0.698436	7
C	0.850879	-0.748455	-0.430544	6
C	0.920349	0.749585	-0.271084	6
H	-1.624341	0.749155	1.269866	1
H	-1.681221	-0.969605	0.862736	1
H	-1.599181	0.242405	-0.426174	1
H	0.223419	-1.160965	-1.210554	1
H	1.735969	-1.326505	-0.194884	1
H	1.853749	1.181394	0.069916	1
H	0.346139	1.371275	-0.947014	1
Es	-1.474636	0.163610	-0.120555	99
Es	-0.418695	-0.042317	0.606348	99
Es	-1.499005	0.511303	1.045352	99
Es	0.520060	1.171127	-0.726543	99
Es	1.449747	-1.144363	-0.271273	99
Es	1.552926	1.046487	-0.039737	99
Es	0.432088	-0.498307	0.232189	99
Es	-1.239482	-0.008652	0.579196	99
Es	0.357825	-0.125433	1.025185	99
Es	-1.536981	-0.665369	0.768876	99
Es	0.920289	0.749372	-0.270986	99
Es	0.474558	0.409103	0.334699	99
Es	0.415037	-1.027706	-0.957831	99
Es	0.213712	-0.079650	0.698200	99
Es	0.850798	-0.748252	-0.430422	99
Es	1.005188	0.013565	-0.531749	99
