27
Properties=species:S:1:pos:R:3:Z:I:1 energy=-172.11277363916986 field_type=dipole dipole="0.000000 0.000000 0.000000" charge=0
C	-1.239611	-0.008605	0.579296	6
N	0.213849	-0.079675	0.698436	7
C	0.850879	-0.748455	-0.430544	6
C	0.920349	0.749585	-0.271084	6
H	-1.624341	0.749155	1.269866	1
H	-1.681221	-0.969605	0.862736	1
H	-1.599181	0.242405	-0.426174	1
H	0.223419	-1.160965	-1.210554	1
H	1.735969	-1.326505	-0.194884	1
H	1.853749	1.181394	0.069916	1
H	0.346139	1.371275	-0.947014	1
Es	0.472134	0.407148	0.328866	99
Es	0.850807	-0.748260	-0.430426	99
Es	0.358706	-0.119140	1.025372	99
Es	1.552762	1.046925	-0.039000	99
Es	0.213707	-0.079637	0.698205	99
Es	-0.418352	-0.044474	0.607537	99
Es	0.414581	-1.027553	-0.957508	99
Es	1.450253	-1.144507	-0.271714	99
Es	0.920251	0.749364	-0.271009	99
Es	-1.536886	-0.665324	0.768425	99
Es	0.433703	-0.501534	0.236105	99
Es	0.519924	1.171097	-0.726350	99
Es	1.005190	0.014168	-0.531968	99
Es	-1.474503	0.163584	-0.120452	99
Es	-1.239497	-0.008605	0.579269	99
Es	-1.499350	0.511264	1.045598	99
