27
Properties=species:S:1:pos:R:3:Z:I:1 energy=-172.14058363701673 field_type=dipole dipole="0.000000 0.000000 0.000000" charge=0
N	-1.425706	-0.857731	-0.424904	7
C	-0.012166	-0.746121	-0.104294	6
C	0.410474	0.685479	-0.157484	6
C	0.949874	1.355269	0.871456	6
H	-1.704706	-1.834271	-0.356194	1
H	-1.572816	-0.590591	-1.395864	1
H	0.576464	-1.327031	-0.823254	1
H	0.166064	-1.174331	0.888126	1
H	0.273704	1.205949	-1.101704	1
H	1.104254	0.886159	1.837656	1
H	1.234555	2.397219	0.766456	1
Es	0.400410	-1.137587	-0.600835	99
Es	0.108856	-1.035102	0.574486	99
Es	0.712796	1.002805	0.350704	99
Es	-1.622406	-0.652571	-0.207934	99
Es	0.199357	-0.027114	-0.125853	99
Es	-1.425477	-0.857769	-0.424966	99
Es	0.410461	0.685369	-0.157395	99
Es	0.949823	1.355201	0.871371	99
Es	-1.495698	-0.707888	-1.021400	99
Es	1.145898	2.065356	0.801531	99
Es	-0.012227	-0.746002	-0.104318	99
Es	-1.578477	-1.455227	-0.393226	99
Es	0.313284	1.033573	-0.808269	99
Es	1.057612	1.033834	1.529179	99
Es	0.665320	1.040995	0.378872	99
Es	-0.802570	-0.820810	-0.304282	99
