26
Properties=species:S:1:pos:R:3:Z:I:1 energy=-191.9572546766793 field_type=dipole dipole="0.000000 0.000000 0.000000" charge=0
C	-1.161662	0.280251	0.325012	6
C	0.314898	0.142251	0.430662	6
C	1.117378	-0.486139	-0.675728	6
O	1.057118	0.938381	-0.498488	8
H	-1.516362	1.066781	0.998552	1
H	-1.648122	-0.657769	0.610312	1
H	-1.480122	0.534441	-0.691608	1
H	0.673058	0.069631	1.447752	1
H	0.597768	-0.907769	-1.526658	1
H	2.046048	-0.980059	-0.419808	1
Es	1.755499	-0.814287	-0.508346	99
Es	-1.368474	0.446507	-0.361761	99
Es	0.853919	1.056847	-0.705450	99
Es	0.765570	-0.764644	-1.261487	99
Es	-1.161538	0.280251	0.324991	99
Es	1.329462	1.037800	-0.372349	99
Es	-1.482849	-0.358351	0.523414	99
Es	0.565904	0.101573	1.123922	99
Es	-1.394770	0.812353	0.782701	99
Es	0.314778	0.142275	0.430517	99
Es	1.057148	0.938596	-0.498550	99
Es	0.750142	0.729891	-0.086632	99
Es	1.117296	-0.486086	-0.675638	99
Es	-0.426521	0.211477	0.368376	99
Es	1.141636	0.399031	-0.654099	99
Es	0.651397	-0.390582	-0.059018	99
