33
Properties=species:S:1:pos:R:3:Z:I:1 energy=-231.00917853677018 field_type=dipole dipole="0.000000 0.000000 0.000000" charge=0
C	-1.223819	-1.880607	-0.044909	6
O	-0.002109	-1.157047	-0.015469	8
C	-0.216469	0.219893	0.276381	6
C	1.119511	0.891143	0.278381	6
C	1.444711	1.949303	-0.475689	6
H	-0.999709	-2.926697	-0.271629	1
H	-1.883679	-1.488467	-0.825119	1
H	-1.721479	-1.833177	0.928551	1
H	-0.674179	0.320053	1.267131	1
H	-0.885139	0.659833	-0.473069	1
H	1.865691	0.465663	0.944161	1
H	0.736251	2.401533	-1.162779	1
H	2.440421	2.378573	-0.425939	1
Es	-1.569552	-1.841493	0.624435	99
Es	-0.216353	0.219921	0.276366	99
Es	0.135446	-1.259419	0.243250	99
Es	-0.530352	0.289503	0.956358	99
Es	1.373923	1.241607	-0.329538	99
Es	1.444678	1.949229	-0.475654	99
Es	-1.680568	-1.605474	-0.577309	99
Es	1.619259	0.598892	0.732433	99
Es	1.119384	0.891123	0.278335	99
Es	0.135728	-1.179624	-0.293592	99
Es	2.118329	2.245233	-0.444521	99
Es	-0.117775	-0.632480	0.082173	99
Es	-1.223831	-1.880599	-0.044908	99
Es	-0.676555	0.524455	-0.239122	99
Es	-0.489596	-1.400436	-0.031834	99
Es	0.450769	0.559887	0.270474	99
Es	-0.002059	-1.157044	-0.015454	99
Es	-1.071762	-2.589432	-0.198890	99
Es	1.176150	1.623742	0.130725	99
Es	0.963977	2.257668	-0.944216	99
