29
Properties=species:S:1:pos:R:3:Z:I:1 energy=-192.79229570519476 field_type=dipole dipole="0.000000 0.000000 0.000000" charge=0
C	-1.440354	-0.200146	-0.004593	6
C	0.060525	-0.211656	-0.000503	6
C	0.745795	-1.364916	0.007357	6
C	0.776056	1.022484	-0.002003	6
C	1.375565	2.061674	-0.001953	6
H	-1.834454	0.821664	0.022177	1
H	-1.833385	-0.728286	0.870697	1
H	-1.826774	-0.680636	-0.909703	1
H	0.235836	-2.322796	0.009297	1
H	1.831655	-1.382296	0.011147	1
H	1.909535	2.984914	-0.001923	1
Es	0.824125	1.692067	-0.196680	99
Es	0.415397	-0.762983	0.311531	99
Es	0.397355	-2.014790	0.008938	99
Es	1.055915	1.536898	0.348256	99
Es	-1.699009	0.489879	0.012729	99
Es	1.350838	1.389589	-0.157502	99
Es	0.745756	-1.364801	0.007358	99
Es	-1.440227	-0.200122	-0.004598	99
Es	0.423228	0.432957	-0.000445	99
Es	1.723785	2.664388	-0.002535	99
Es	-0.677424	-0.190275	-0.001078	99
Es	-1.689219	-0.528966	-0.612322	99
Es	-1.694924	-0.560031	0.582642	99
Es	0.775863	1.022182	-0.001995	99
Es	0.060397	-0.211685	-0.000504	99
Es	1.477839	-1.379783	0.010500	99
Es	0.418220	-0.764982	-0.306708	99
Es	1.375667	2.061855	-0.001956	99
