34
Properties=species:S:1:pos:R:3:Z:I:1 energy=-211.17245911733616 field_type=dipole dipole="0.000000 0.000000 0.000000" charge=0
C	-1.808789	-0.521856	0.421194	6
C	-0.322439	-0.468266	0.505744	6
N	0.488780	-1.155516	-0.498856	7
C	0.484261	0.305714	-0.508126	6
C	1.716480	1.034064	-0.096066	6
H	-2.248129	0.219784	1.095554	1
H	-2.169849	-1.510666	0.722224	1
H	-2.174129	-0.317446	-0.589906	1
H	0.039591	-0.539436	1.525034	1
H	-0.091679	-1.525896	-1.253646	1
H	-0.020959	0.783464	-1.339496	1
H	2.237961	0.536394	0.728444	1
H	1.460130	2.047734	0.227444	1
H	2.408771	1.111924	-0.939546	1
Es	0.128152	0.628599	-1.076843	99
Es	0.007713	0.111457	0.091788	99
Es	-2.100902	-0.017867	0.879646	99
Es	-1.070831	-0.498894	0.445493	99
Es	1.716351	1.033956	-0.096097	99
Es	1.533445	1.723243	0.122368	99
Es	-2.049385	-0.384128	-0.272395	99
Es	0.566810	-0.523456	-0.624107	99
Es	2.063001	0.693411	0.462008	99
Es	1.109748	0.658643	-0.296016	99
Es	-0.322447	-0.468264	0.505550	99
Es	-0.070667	-0.515191	1.199711	99
Es	0.484329	0.305608	-0.508012	99
Es	0.120833	-1.361158	-0.952190	99
Es	-1.808617	-0.521851	0.421177	99
Es	0.078943	-0.976855	-0.025738	99
Es	0.790893	-1.336407	-0.392174	99
Es	2.182613	1.086944	-0.672805	99
Es	-2.049692	-1.194266	0.625312	99
Es	0.488641	-1.155366	-0.498842	99
