34
Properties=species:S:1:pos:R:3:Z:I:1 energy=-211.17550307985712 field_type=dipole dipole="0.000000 0.000000 0.000000" charge=0
C	-1.541908	0.110104	-0.046296	6
C	-0.060078	0.052804	0.222304	6
N	0.312782	0.019394	1.642794	7
C	0.806752	-0.703606	-0.753576	6
C	0.850682	0.797854	-0.721506	6
H	-1.763798	0.142734	-1.118586	1
H	-1.978788	1.002834	0.413784	1
H	-2.039218	-0.771786	0.371554	1
H	1.323502	-0.026726	1.761264	1
H	-0.059728	-0.818586	2.089004	1
H	0.335562	-1.176776	-1.607966	1
H	1.670682	-1.242336	-0.382486	1
H	1.736412	1.276194	-0.319656	1
H	0.407142	1.337894	-1.550626	1
Es	0.182594	0.309031	1.806635	99
Es	0.480727	-1.022577	-1.336039	99
Es	-1.541748	0.110094	-0.046286	99
Es	0.315681	-0.506095	-0.221305	99
Es	0.542462	1.160122	-1.283870	99
Es	-1.835445	0.714483	0.265088	99
Es	0.926040	-0.023460	1.692187	99
Es	0.346404	0.597690	-0.184360	99
Es	0.806650	-0.703330	-0.753431	99
Es	0.312814	0.019261	1.642579	99
Es	-1.875480	-0.493935	0.240471	99
Es	0.171450	0.006822	1.021066	99
Es	0.095376	-0.502976	1.890002	99
Es	1.453237	1.115790	-0.440918	99
Es	0.952393	0.046990	-0.870751	99
Es	0.850576	0.797625	-0.721395	99
Es	-1.679979	0.129632	-0.777248	99
Es	-0.801037	0.078045	0.085117	99
Es	-0.059997	0.052793	0.222146	99
Es	1.393759	-1.065863	-0.490624	99
