31
Properties=species:S:1:pos:R:3:Z:I:1 energy=-209.97283528711912 field_type=dipole dipole="0.000000 0.000000 0.000000" charge=0
C	-0.781357	-1.806843	-0.507954	6
C	-0.722337	-0.753833	0.318676	6
C	0.410463	0.156018	0.464576	6
C	0.595613	1.264767	-0.538624	6
N	0.101103	1.541378	0.804196	7
H	-1.668676	-2.429913	-0.549114	1
H	0.048363	-2.061603	-1.158674	1
H	-1.588937	-0.550163	0.946626	1
H	1.292953	-0.264403	0.935996	1
H	-0.124237	1.373637	-1.340434	1
H	1.601253	1.593807	-0.766424	1
H	0.835793	1.937148	1.391156	1
Es	1.009446	-0.130592	0.781500	99
Es	0.213426	0.893783	0.787552	99
Es	0.567065	0.555730	-0.185963	99
Es	0.109766	1.336985	-1.080586	99
Es	-0.248394	1.635442	0.851121	99
Es	0.595565	1.264681	-0.538419	99
Es	-0.155481	-0.297369	0.389091	99
Es	-0.722218	-0.753764	0.318646	99
Es	-0.627757	-1.471389	0.123924	99
Es	-0.781346	-1.806773	-0.507926	99
Es	-1.304175	-0.610835	0.745334	99
Es	-0.867596	-1.106560	-0.324159	99
Es	-0.218149	-1.983113	-0.952888	99
Es	-1.380725	-2.232430	-0.538459	99
Es	1.284157	1.488720	-0.691136	99
Es	0.325065	1.560774	0.190956	99
Es	0.560871	1.769256	1.148022	99
Es	0.410332	0.156158	0.464514	99
Es	0.101252	1.541272	0.804125	99
