29
Properties=species:S:1:pos:R:3:Z:I:1 energy=-192.7936348173464 field_type=dipole dipole="0.000000 0.000000 0.000000" charge=0
C	-1.861959	-0.535585	0.005443	6
C	-0.369839	-0.500255	0.015153	6
C	0.333931	0.640924	-0.008037	6
C	1.739931	0.640924	-0.008037	6
C	2.930091	0.640924	-0.008037	6
H	-2.209119	-1.571025	-0.064937	1
H	-2.262309	0.008395	-0.856757	1
H	-2.267409	-0.106835	0.925713	1
H	0.146071	-1.457355	0.038663	1
H	-0.174489	1.600594	-0.031167	1
H	3.995100	0.639295	-0.007997	1
Es	0.003967	1.287788	-0.023906	99
Es	0.334079	0.641007	-0.008038	99
Es	2.340066	0.280836	0.004261	99
Es	3.626143	0.639629	-0.008348	99
Es	-1.861905	-0.535587	0.005443	99
Es	2.930338	0.640913	-0.008050	99
Es	-2.122454	-0.242726	0.622760	99
Es	-0.369921	-0.500322	0.015154	99
Es	2.334574	0.827186	0.292565	99
Es	0.028735	0.108205	0.322530	99
Es	1.739688	0.640934	-0.008042	99
Es	2.333854	0.805327	-0.320561	99
Es	-2.120972	-0.163841	-0.572050	99
Es	-1.113895	-0.516397	0.010227	99
Es	0.031520	0.093070	-0.316313	99
Es	1.057828	0.647380	-0.007227	99
Es	-2.095328	-1.237807	-0.041724	99
Es	-0.026737	-1.148355	0.031546	99
29
Properties=species:S:1:pos:R:3:Z:I:1 energy=-192.7936348173464 field_type=dipole dipole="0.000000 0.000000 0.000000" charge=0
C	-1.861959	-0.535585	0.005443	6
C	-0.369839	-0.500255	0.015153	6
C	0.333931	0.640924	-0.008037	6
C	1.739931	0.640924	-0.008037	6
C	2.930091	0.640924	-0.008037	6
H	-2.209119	-1.571025	-0.064937	1
H	-2.262309	0.008395	-0.856757	1
H	-2.267409	-0.106835	0.925713	1
H	0.146071	-1.457355	0.038663	1
H	-0.174489	1.600594	-0.031167	1
H	3.995100	0.639295	-0.007997	1
Es	0.004116	1.287694	-0.023833	99
Es	-1.861909	-0.535588	0.005444	99
Es	0.031560	0.093405	-0.316864	99
Es	3.626070	0.639809	-0.008023	99
Es	0.334061	0.640994	-0.008035	99
Es	2.334798	0.403940	0.260454	99
Es	-2.120931	-0.163907	-0.572141	99
Es	-2.122588	-0.242699	0.622794	99
Es	-0.369911	-0.500311	0.015155	99
Es	0.028598	0.108432	0.322879	99
Es	2.930305	0.640914	-0.008041	99
Es	2.342419	0.993397	0.056106	99
Es	1.057757	0.647774	-0.007178	99
Es	-2.095222	-1.237759	-0.041738	99
Es	-0.026832	-1.148241	0.031638	99
Es	2.331427	0.514985	-0.340723	99
Es	-1.113834	-0.516530	0.010369	99
Es	1.739698	0.640931	-0.008037	99
29
Properties=species:S:1:pos:R:3:Z:I:1 energy=-192.7936348173464 field_type=dipole dipole="0.000000 0.000000 0.000000" charge=0
C	-1.861959	-0.535585	0.005443	6
C	-0.369839	-0.500255	0.015153	6
C	0.333931	0.640924	-0.008037	6
C	1.739931	0.640924	-0.008037	6
C	2.930091	0.640924	-0.008037	6
H	-2.209119	-1.571025	-0.064937	1
H	-2.262309	0.008395	-0.856757	1
H	-2.267409	-0.106835	0.925713	1
H	0.146071	-1.457355	0.038663	1
H	-0.174489	1.600594	-0.031167	1
H	3.995100	0.639295	-0.007997	1
Es	-0.369898	-0.500301	0.015152	99
Es	0.031560	0.093289	-0.317272	99
Es	-1.113893	-0.516549	0.010283	99
Es	1.739724	0.640925	-0.008032	99
Es	-1.861915	-0.535588	0.005442	99
Es	2.332869	0.468708	0.304495	99
Es	1.057593	0.647919	-0.007472	99
Es	0.004293	1.287642	-0.024034	99
Es	-2.095156	-1.237838	-0.041713	99
Es	-2.120924	-0.163925	-0.572159	99
Es	2.332958	0.444356	-0.306758	99
Es	-2.122537	-0.242623	0.622851	99
Es	2.342827	0.999284	-0.021591	99
Es	0.334047	0.640972	-0.008039	99
Es	3.625971	0.639721	-0.008111	99
Es	-0.027012	-1.148136	0.031601	99
Es	2.930301	0.640921	-0.008037	99
Es	0.028773	0.108460	0.323621	99
29
Properties=species:S:1:pos:R:3:Z:I:1 energy=-192.7936348173464 field_type=dipole dipole="0.000000 0.000000 0.000000" charge=0
C	-1.861959	-0.535585	0.005443	6
C	-0.369839	-0.500255	0.015153	6
C	0.333931	0.640924	-0.008037	6
C	1.739931	0.640924	-0.008037	6
C	2.930091	0.640924	-0.008037	6
H	-2.209119	-1.571025	-0.064937	1
H	-2.262309	0.008395	-0.856757	1
H	-2.267409	-0.106835	0.925713	1
H	0.146071	-1.457355	0.038663	1
H	-0.174489	1.600594	-0.031167	1
H	3.995100	0.639295	-0.007997	1
Es	0.031630	0.093237	-0.317709	99
Es	-0.369893	-0.500293	0.015155	99
Es	0.334022	0.640953	-0.008028	99
Es	1.739754	0.640932	-0.008037	99
Es	0.028711	0.108447	0.323837	99
Es	1.057551	0.647898	-0.007087	99
Es	3.625851	0.639721	-0.008104	99
Es	2.334972	0.399097	0.256793	99
Es	-2.095169	-1.237766	-0.041848	99
Es	2.930279	0.640921	-0.008037	99
Es	-2.122515	-0.242687	0.622971	99
Es	2.342368	0.992066	0.062764	99
Es	0.004426	1.287663	-0.023931	99
Es	-1.113817	-0.516729	0.010263	99
Es	2.331320	0.521260	-0.343682	99
Es	-2.120877	-0.163803	-0.572127	99
Es	-0.027110	-1.148081	0.031595	99
Es	-1.861921	-0.535596	0.005439	99
29
Properties=species:S:1:pos:R:3:Z:I:1 energy=-192.7936348173464 field_type=dipole dipole="0.000000 0.000000 0.000000" charge=0
C	-1.861959	-0.535585	0.005443	6
C	-0.369839	-0.500255	0.015153	6
C	0.333931	0.640924	-0.008037	6
C	1.739931	0.640924	-0.008037	6
C	2.930091	0.640924	-0.008037	6
H	-2.209119	-1.571025	-0.064937	1
H	-2.262309	0.008395	-0.856757	1
H	-2.267409	-0.106835	0.925713	1
H	0.146071	-1.457355	0.038663	1
H	-0.174489	1.600594	-0.031167	1
H	3.995100	0.639295	-0.007997	1
Es	-0.369880	-0.500284	0.015153	99
Es	2.930264	0.640928	-0.008042	99
Es	1.739770	0.640938	-0.008039	99
Es	0.028864	0.108144	0.324493	99
Es	-1.861934	-0.535593	0.005438	99
Es	0.334009	0.640922	-0.008036	99
Es	2.339979	0.284403	0.041968	99
Es	3.625778	0.639700	-0.008026	99
Es	1.057438	0.647704	-0.007113	99
Es	-2.120896	-0.163919	-0.572263	99
Es	0.031634	0.092929	-0.318370	99
Es	2.332816	0.769480	-0.338199	99
Es	-2.095106	-1.237713	-0.041682	99
Es	-1.113673	-0.516842	0.010318	99
Es	0.004680	1.287666	-0.023851	99
Es	-2.122549	-0.242593	0.622907	99
Es	-0.027281	-1.147958	0.031586	99
Es	2.335669	0.859327	0.271982	99
29
Properties=species:S:1:pos:R:3:Z:I:1 energy=-192.7936348173464 field_type=dipole dipole="0.000000 0.000000 0.000000" charge=0
C	-1.861959	-0.535585	0.005443	6
C	-0.369839	-0.500255	0.015153	6
C	0.333931	0.640924	-0.008037	6
C	1.739931	0.640924	-0.008037	6
C	2.930091	0.640924	-0.008037	6
H	-2.209119	-1.571025	-0.064937	1
H	-2.262309	0.008395	-0.856757	1
H	-2.267409	-0.106835	0.925713	1
H	0.146071	-1.457355	0.038663	1
H	-0.174489	1.600594	-0.031167	1
H	3.995100	0.639295	-0.007997	1
Es	-2.095103	-1.237727	-0.041662	99
Es	-2.122449	-0.242564	0.622930	99
Es	-0.027425	-1.147875	0.031564	99
Es	2.342859	0.998921	-0.019385	99
Es	0.333912	0.640832	-0.008056	99
Es	-1.861973	-0.535585	0.005425	99
Es	2.930233	0.640920	-0.008022	99
Es	2.332848	0.447591	-0.309269	99
Es	-1.113713	-0.516941	0.010311	99
Es	0.004843	1.287577	-0.023806	99
Es	0.028883	0.108377	0.324858	99
Es	2.332965	0.465631	0.304706	99
Es	-0.369883	-0.500285	0.015155	99
Es	1.739777	0.640938	-0.008035	99
Es	-2.120844	-0.163870	-0.572286	99
Es	0.031662	0.093323	-0.318757	99
Es	1.057347	0.648147	-0.007345	99
Es	3.625641	0.639830	-0.008101	99
29
Properties=species:S:1:pos:R:3:Z:I:1 energy=-192.7936348173464 field_type=dipole dipole="0.000000 0.000000 0.000000" charge=0
C	-1.861959	-0.535585	0.005443	6
C	-0.369839	-0.500255	0.015153	6
C	0.333931	0.640924	-0.008037	6
C	1.739931	0.640924	-0.008037	6
C	2.930091	0.640924	-0.008037	6
H	-2.209119	-1.571025	-0.064937	1
H	-2.262309	0.008395	-0.856757	1
H	-2.267409	-0.106835	0.925713	1
H	0.146071	-1.457355	0.038663	1
H	-0.174489	1.600594	-0.031167	1
H	3.995100	0.639295	-0.007997	1
Es	2.331597	0.461926	0.301583	99
Es	1.741321	0.640885	-0.007648	99
Es	-0.027544	-1.147813	0.031577	99
Es	0.031859	0.093944	-0.318083	99
Es	-2.120810	-0.163858	-0.572255	99
Es	0.332158	0.637380	-0.007583	99
Es	0.004994	1.287563	-0.024016	99
Es	2.342889	0.999274	-0.013906	99
Es	2.930214	0.640897	-0.008124	99
Es	-1.861996	-0.535581	0.005456	99
Es	3.625474	0.639741	-0.007991	99
Es	-1.113618	-0.516949	0.010349	99
Es	-0.369870	-0.500265	0.015154	99
Es	1.057321	0.648189	-0.007672	99
Es	-2.122461	-0.242597	0.622873	99
Es	-2.095086	-1.237725	-0.041702	99
Es	0.030461	0.111117	0.324050	99
Es	2.332677	0.451111	-0.311835	99
29
Properties=species:S:1:pos:R:3:Z:I:1 energy=-192.7936348173464 field_type=dipole dipole="0.000000 0.000000 0.000000" charge=0
C	-1.861959	-0.535585	0.005443	6
C	-0.369839	-0.500255	0.015153	6
C	0.333931	0.640924	-0.008037	6
C	1.739931	0.640924	-0.008037	6
C	2.930091	0.640924	-0.008037	6
H	-2.209119	-1.571025	-0.064937	1
H	-2.262309	0.008395	-0.856757	1
H	-2.267409	-0.106835	0.925713	1
H	0.146071	-1.457355	0.038663	1
H	-0.174489	1.600594	-0.031167	1
H	3.995100	0.639295	-0.007997	1
Es	1.057242	0.648100	-0.007349	99
Es	-2.095012	-1.237683	-0.041753	99
Es	-0.369862	-0.500268	0.015163	99
Es	2.342798	0.999874	-0.024128	99
Es	-1.113584	-0.516988	0.010257	99
Es	0.030222	0.111523	0.322440	99
Es	2.332547	0.470839	0.301764	99
Es	-0.027605	-1.147726	0.031545	99
Es	-2.122479	-0.242611	0.622931	99
Es	2.923417	0.640758	-0.007086	99
Es	-2.120792	-0.163895	-0.572214	99
Es	1.747401	0.640738	-0.007091	99
Es	0.035259	0.099808	-0.316213	99
Es	3.625528	0.639633	-0.008335	99
Es	2.332408	0.442004	-0.303059	99
Es	0.005088	1.287582	-0.023630	99
Es	-1.862019	-0.535605	0.005445	99
Es	0.329023	0.631155	-0.008460	99
29
Properties=species:S:1:pos:R:3:Z:I:1 energy=-192.7936348173464 field_type=dipole dipole="0.000000 0.000000 0.000000" charge=0
C	-1.861959	-0.535585	0.005443	6
C	-0.369839	-0.500255	0.015153	6
C	0.333931	0.640924	-0.008037	6
C	1.739931	0.640924	-0.008037	6
C	2.930091	0.640924	-0.008037	6
H	-2.209119	-1.571025	-0.064937	1
H	-2.262309	0.008395	-0.856757	1
H	-2.267409	-0.106835	0.925713	1
H	0.146071	-1.457355	0.038663	1
H	-0.174489	1.600594	-0.031167	1
H	3.995100	0.639295	-0.007997	1
Es	2.326064	0.441777	-0.297808	99
Es	1.057108	0.648101	-0.006338	99
Es	1.755884	0.640347	-0.009549	99
Es	-2.120772	-0.163930	-0.572266	99
Es	-2.094945	-1.237643	-0.041696	99
Es	2.342950	1.000980	-0.022795	99
Es	-2.122421	-0.242588	0.622916	99
Es	0.325068	0.623394	-0.008682	99
Es	-1.113617	-0.517014	0.010224	99
Es	0.038028	0.104691	-0.313833	99
Es	0.005104	1.287628	-0.023616	99
Es	0.031389	0.114249	0.319966	99
Es	-0.027635	-1.147668	0.031503	99
Es	-0.369760	-0.500108	0.015301	99
Es	-1.862048	-0.535635	0.005465	99
Es	2.338288	0.470674	0.296618	99
Es	2.915307	0.640313	-0.006574	99
Es	3.625588	0.639672	-0.008610	99
29
Properties=species:S:1:pos:R:3:Z:I:1 energy=-192.7936348173464 field_type=dipole dipole="0.000000 0.000000 0.000000" charge=0
C	-1.861959	-0.535585	0.005443	6
C	-0.369839	-0.500255	0.015153	6
C	0.333931	0.640924	-0.008037	6
C	1.739931	0.640924	-0.008037	6
C	2.930091	0.640924	-0.008037	6
H	-2.209119	-1.571025	-0.064937	1
H	-2.262309	0.008395	-0.856757	1
H	-2.267409	-0.106835	0.925713	1
H	0.146071	-1.457355	0.038663	1
H	-0.174489	1.600594	-0.031167	1
H	3.995100	0.639295	-0.007997	1
Es	2.908994	0.641656	-0.009448	99
Es	-0.027605	-1.147694	0.031385	99
Es	-1.113670	-0.517049	0.010113	99
Es	1.057050	0.648007	-0.007435	99
Es	1.765158	0.640352	-0.006523	99
Es	0.320986	0.615342	-0.008654	99
Es	3.625630	0.639152	-0.007445	99
Es	2.331694	0.455789	0.282804	99
Es	-2.120712	-0.163959	-0.572168	99
Es	2.347808	0.998613	0.000477	99
Es	2.324738	0.458204	-0.307649	99
Es	-0.367875	-0.497384	0.015752	99
Es	0.005110	1.287711	-0.023501	99
Es	0.039776	0.108600	-0.310663	99
Es	-2.094905	-1.237563	-0.041731	99
Es	-1.862124	-0.535647	0.005347	99
Es	0.031929	0.115732	0.316584	99
Es	-2.122404	-0.242625	0.622981	99
29
Properties=species:S:1:pos:R:3:Z:I:1 energy=-192.7936348173464 field_type=dipole dipole="0.000000 0.000000 0.000000" charge=0
C	-1.861959	-0.535585	0.005443	6
C	-0.369839	-0.500255	0.015153	6
C	0.333931	0.640924	-0.008037	6
C	1.739931	0.640924	-0.008037	6
C	2.930091	0.640924	-0.008037	6
H	-2.209119	-1.571025	-0.064937	1
H	-2.262309	0.008395	-0.856757	1
H	-2.267409	-0.106835	0.925713	1
H	0.146071	-1.457355	0.038663	1
H	-0.174489	1.600594	-0.031167	1
H	3.995100	0.639295	-0.007997	1
Es	1.056975	0.647829	-0.007798	99
Es	-2.094847	-1.237529	-0.041764	99
Es	3.625758	0.639653	-0.007200	99
Es	2.897440	0.638816	-0.010534	99
Es	-2.122321	-0.242733	0.622904	99
Es	2.344476	0.999837	-0.035323	99
Es	0.031549	0.115918	0.313354	99
Es	-0.027602	-1.147747	0.031283	99
Es	0.317219	0.607967	-0.008911	99
Es	-1.862221	-0.535533	0.005481	99
Es	0.005080	1.287778	-0.023617	99
Es	-0.365090	-0.493422	0.016051	99
Es	1.775067	0.639300	-0.004745	99
Es	-2.120706	-0.164012	-0.572148	99
Es	2.310265	0.477365	0.293057	99
Es	0.041251	0.111937	-0.307169	99
Es	2.351050	0.438853	-0.282668	99
Es	-1.113762	-0.517037	0.009973	99
29
Properties=species:S:1:pos:R:3:Z:I:1 energy=-192.7936348173464 field_type=dipole dipole="0.000000 0.000000 0.000000" charge=0
C	-1.861959	-0.535585	0.005443	6
C	-0.369839	-0.500255	0.015153	6
C	0.333931	0.640924	-0.008037	6
C	1.739931	0.640924	-0.008037	6
C	2.930091	0.640924	-0.008037	6
H	-2.209119	-1.571025	-0.064937	1
H	-2.262309	0.008395	-0.856757	1
H	-2.267409	-0.106835	0.925713	1
H	0.146071	-1.457355	0.038663	1
H	-0.174489	1.600594	-0.031167	1
H	3.995100	0.639295	-0.007997	1
Es	0.005109	1.287824	-0.024291	99
Es	1.056940	0.647432	-0.007908	99
Es	2.888704	0.638710	-0.005158	99
Es	0.037803	0.126108	0.308814	99
Es	-2.120633	-0.164016	-0.572094	99
Es	-1.862397	-0.535465	0.005542	99
Es	3.625798	0.639652	-0.008738	99
Es	0.313223	0.600385	-0.005822	99
Es	0.036777	0.106198	-0.304465	99
Es	-0.027560	-1.147657	0.031266	99
Es	-1.113696	-0.517079	0.009982	99
Es	2.312496	0.460402	-0.296856	99
Es	1.782860	0.639784	-0.008099	99
Es	2.342305	1.000255	-0.000688	99
Es	2.351806	0.455308	0.271648	99
Es	-2.094840	-1.237507	-0.041763	99
Es	-2.122200	-0.242816	0.622775	99
Es	-0.362915	-0.490281	0.016079	99
29
Properties=species:S:1:pos:R:3:Z:I:1 energy=-192.7936348173464 field_type=dipole dipole="0.000000 0.000000 0.000000" charge=0
C	-1.861959	-0.535585	0.005443	6
C	-0.369839	-0.500255	0.015153	6
C	0.333931	0.640924	-0.008037	6
C	1.739931	0.640924	-0.008037	6
C	2.930091	0.640924	-0.008037	6
H	-2.209119	-1.571025	-0.064937	1
H	-2.262309	0.008395	-0.856757	1
H	-2.267409	-0.106835	0.925713	1
H	0.146071	-1.457355	0.038663	1
H	-0.174489	1.600594	-0.031167	1
H	3.995100	0.639295	-0.007997	1
Es	1.799429	0.639138	-0.002290	99
Es	0.041821	0.132930	0.305149	99
Es	1.056825	0.648428	-0.008443	99
Es	3.625977	0.638736	-0.007382	99
Es	-2.094736	-1.237422	-0.041801	99
Es	2.382226	0.973032	-0.065808	99
Es	2.290006	0.525344	0.305935	99
Es	-2.122144	-0.242919	0.622544	99
Es	-0.359489	-0.485432	0.013017	99
Es	0.033524	0.102115	-0.300483	99
Es	2.327113	0.409982	-0.269588	99
Es	2.879250	0.647066	-0.008254	99
Es	-2.120602	-0.163949	-0.572250	99
Es	0.005010	1.287888	-0.024319	99
Es	-1.113871	-0.517042	0.010609	99
Es	-1.862528	-0.535562	0.005885	99
Es	0.309237	0.592665	-0.004154	99
Es	-0.027466	-1.147759	0.031859	99
29
Properties=species:S:1:pos:R:3:Z:I:1 energy=-192.7936348173464 field_type=dipole dipole="0.000000 0.000000 0.000000" charge=0
C	-1.861959	-0.535585	0.005443	6
C	-0.369839	-0.500255	0.015153	6
C	0.333931	0.640924	-0.008037	6
C	1.739931	0.640924	-0.008037	6
C	2.930091	0.640924	-0.008037	6
H	-2.209119	-1.571025	-0.064937	1
H	-2.262309	0.008395	-0.856757	1
H	-2.267409	-0.106835	0.925713	1
H	0.146071	-1.457355	0.038663	1
H	-0.174489	1.600594	-0.031167	1
H	3.995100	0.639295	-0.007997	1
Es	0.305817	0.586099	-0.003545	99
Es	1.056763	0.647453	-0.008714	99
Es	0.042557	0.135026	0.301530	99
Es	-1.113903	-0.517036	0.010566	99
Es	-2.119208	-0.165829	-0.569154	99
Es	-2.122516	-0.242510	0.623181	99
Es	-1.863430	-0.533828	0.002149	99
Es	-0.356028	-0.480407	0.012428	99
Es	1.808551	0.636278	0.001018	99
Es	2.866890	0.634818	-0.013159	99
Es	-2.094853	-1.237706	-0.041705	99
Es	0.032712	0.101770	-0.296972	99
Es	2.345811	0.992601	-0.064923	99
Es	2.377472	0.421620	-0.253526	99
Es	0.004990	1.287969	-0.024324	99
Es	-0.027383	-1.147800	0.031895	99
Es	3.626051	0.639551	-0.006852	99
Es	2.279290	0.509169	0.290333	99
29
Properties=species:S:1:pos:R:3:Z:I:1 energy=-192.7936348173464 field_type=dipole dipole="0.000000 0.000000 0.000000" charge=0
C	-1.861959	-0.535585	0.005443	6
C	-0.369839	-0.500255	0.015153	6
C	0.333931	0.640924	-0.008037	6
C	1.739931	0.640924	-0.008037	6
C	2.930091	0.640924	-0.008037	6
H	-2.209119	-1.571025	-0.064937	1
H	-2.262309	0.008395	-0.856757	1
H	-2.267409	-0.106835	0.925713	1
H	0.146071	-1.457355	0.038663	1
H	-0.174489	1.600594	-0.031167	1
H	3.995100	0.639295	-0.007997	1
Es	2.269886	0.563117	-0.320041	99
Es	0.044138	0.138043	0.297754	99
Es	0.302023	0.578772	-0.002768	99
Es	2.399512	0.955842	0.072910	99
Es	1.056704	0.648457	-0.006925	99
Es	0.032003	0.101555	-0.293630	99
Es	-1.864774	-0.532020	-0.000455	99
Es	-2.094868	-1.237709	-0.041663	99
Es	-0.027346	-1.147823	0.031951	99
Es	2.857163	0.651156	-0.006367	99
Es	2.330225	0.385664	0.232830	99
Es	3.626179	0.638861	-0.009131	99
Es	-2.117828	-0.167601	-0.565711	99
Es	-2.122543	-0.242585	0.622301	99
Es	-0.352950	-0.476104	0.011982	99
Es	1.821060	0.638545	-0.019023	99
Es	0.004957	1.288036	-0.024318	99
Es	-1.113961	-0.516968	0.010532	99
29
Properties=species:S:1:pos:R:3:Z:I:1 energy=-192.7936348173464 field_type=dipole dipole="0.000000 0.000000 0.000000" charge=0
C	-1.861959	-0.535585	0.005443	6
C	-0.369839	-0.500255	0.015153	6
C	0.333931	0.640924	-0.008037	6
C	1.739931	0.640924	-0.008037	6
C	2.930091	0.640924	-0.008037	6
H	-2.209119	-1.571025	-0.064937	1
H	-2.262309	0.008395	-0.856757	1
H	-2.267409	-0.106835	0.925713	1
H	0.146071	-1.457355	0.038663	1
H	-0.174489	1.600594	-0.031167	1
H	3.995100	0.639295	-0.007997	1
Es	0.030568	0.099931	-0.291010	99
Es	-0.349822	-0.471593	0.011288	99
Es	0.045516	0.140885	0.294131	99
Es	0.004932	1.288135	-0.024284	99
Es	-2.117234	-0.248037	0.610464	99
Es	-0.027291	-1.147839	0.031923	99
Es	-1.113971	-0.516896	0.011030	99
Es	2.331534	0.348191	-0.204847	99
Es	2.260782	0.619457	0.306134	99
Es	1.831187	0.640212	0.005931	99
Es	0.299000	0.572955	-0.001187	99
Es	-2.095108	-1.237996	-0.041494	99
Es	-1.866724	-0.530147	0.016257	99
Es	3.626275	0.639174	-0.006701	99
Es	-2.120915	-0.163785	-0.571178	99
Es	1.056617	0.648386	-0.008443	99
Es	2.409194	0.932404	-0.135069	99
Es	2.845043	0.653802	-0.012717	99
29
Properties=species:S:1:pos:R:3:Z:I:1 energy=-192.7936348173464 field_type=dipole dipole="0.000000 0.000000 0.000000" charge=0
C	-1.861959	-0.535585	0.005443	6
C	-0.369839	-0.500255	0.015153	6
C	0.333931	0.640924	-0.008037	6
C	1.739931	0.640924	-0.008037	6
C	2.930091	0.640924	-0.008037	6
H	-2.209119	-1.571025	-0.064937	1
H	-2.262309	0.008395	-0.856757	1
H	-2.267409	-0.106835	0.925713	1
H	0.146071	-1.457355	0.038663	1
H	-0.174489	1.600594	-0.031167	1
H	3.995100	0.639295	-0.007997	1
Es	2.408160	0.407584	-0.218456	99
Es	0.295852	0.567159	0.000154	99
Es	-2.115509	-0.250085	0.606208	99
Es	0.029273	0.098660	-0.288508	99
Es	3.626290	0.639771	-0.006954	99
Es	-1.114031	-0.516800	0.011149	99
Es	2.269546	0.544087	0.292054	99
Es	2.331325	0.980425	-0.098703	99
Es	0.004901	1.288207	-0.024234	99
Es	-2.121001	-0.163679	-0.570773	99
Es	2.834824	0.628448	-0.017939	99
Es	-0.346853	-0.467341	0.010804	99
Es	1.056562	0.646432	-0.007508	99
Es	-0.027257	-1.147870	0.031958	99
Es	1.833950	0.634631	0.002007	99
Es	0.046994	0.143883	0.290475	99
Es	-2.095205	-1.237969	-0.041215	99
Es	-1.868240	-0.528305	0.019705	99
29
Properties=species:S:1:pos:R:3:Z:I:1 energy=-192.7936348173464 field_type=dipole dipole="0.000000 0.000000 0.000000" charge=0
C	-1.861959	-0.535585	0.005443	6
C	-0.369839	-0.500255	0.015153	6
C	0.333931	0.640924	-0.008037	6
C	1.739931	0.640924	-0.008037	6
C	2.930091	0.640924	-0.008037	6
H	-2.209119	-1.571025	-0.064937	1
H	-2.262309	0.008395	-0.856757	1
H	-2.267409	-0.106835	0.925713	1
H	0.146071	-1.457355	0.038663	1
H	-0.174489	1.600594	-0.031167	1
H	3.995100	0.639295	-0.007997	1
Es	2.332624	0.359513	-0.221720	99
Es	0.004840	1.288257	-0.023687	99
Es	-1.113984	-0.516767	0.010442	99
Es	-0.027178	-1.147935	0.031183	99
Es	3.626445	0.639154	-0.006444	99
Es	2.824689	0.660764	-0.013389	99
Es	1.853031	0.639179	0.014340	99
Es	2.428694	0.929395	-0.112504	99
Es	-2.113939	-0.251693	0.601907	99
Es	0.025241	0.110689	0.291308	99
Es	-1.869883	-0.526302	0.022529	99
Es	-2.095286	-1.238061	-0.041146	99
Es	0.050562	0.132815	-0.282872	99
Es	-2.120891	-0.163999	-0.569367	99
Es	1.056512	0.648560	-0.007628	99
Es	2.238637	0.604997	0.292328	99
Es	0.293063	0.561099	-0.013867	99
Es	-0.343596	-0.462426	0.018813	99
29
Properties=species:S:1:pos:R:3:Z:I:1 energy=-192.7936348173464 field_type=dipole dipole="0.000000 0.000000 0.000000" charge=0
C	-1.861959	-0.535585	0.005443	6
C	-0.369839	-0.500255	0.015153	6
C	0.333931	0.640924	-0.008037	6
C	1.739931	0.640924	-0.008037	6
C	2.930091	0.640924	-0.008037	6
H	-2.209119	-1.571025	-0.064937	1
H	-2.262309	0.008395	-0.856757	1
H	-2.267409	-0.106835	0.925713	1
H	0.146071	-1.457355	0.038663	1
H	-0.174489	1.600594	-0.031167	1
H	3.995100	0.639295	-0.007997	1
Es	2.343925	0.983096	-0.106502	99
Es	3.626515	0.639228	-0.006259	99
Es	0.040792	0.135088	0.285373	99
Es	0.004886	1.288312	-0.024169	99
Es	-0.341740	-0.459907	0.015648	99
Es	-1.871782	-0.524186	0.027373	99
Es	-0.027182	-1.147852	0.030981	99
Es	-1.114002	-0.516630	0.010694	99
Es	-2.111524	-0.254510	0.596453	99
Es	2.224318	0.553280	0.271997	99
Es	1.864896	0.629375	0.019984	99
Es	0.035171	0.109548	-0.283257	99
Es	2.814518	0.620522	-0.021979	99
Es	-2.121163	-0.163556	-0.569502	99
Es	2.430070	0.409380	-0.204160	99
Es	0.290916	0.557468	-0.003075	99
Es	-2.095403	-1.237907	-0.040705	99
Es	1.056369	0.646489	-0.008669	99
29
Properties=species:S:1:pos:R:3:Z:I:1 energy=-192.7936348173464 field_type=dipole dipole="0.000000 0.000000 0.000000" charge=0
C	-1.861959	-0.535585	0.005443	6
C	-0.369839	-0.500255	0.015153	6
C	0.333931	0.640924	-0.008037	6
C	1.739931	0.640924	-0.008037	6
C	2.930091	0.640924	-0.008037	6
H	-2.209119	-1.571025	-0.064937	1
H	-2.262309	0.008395	-0.856757	1
H	-2.267409	-0.106835	0.925713	1
H	0.146071	-1.457355	0.038663	1
H	-0.174489	1.600594	-0.031167	1
H	3.995100	0.639295	-0.007997	1
Es	-2.109592	-0.256675	0.591907	99
Es	2.217179	0.622051	-0.297276	99
Es	0.034794	0.109423	-0.280793	99
Es	0.004826	1.288363	-0.024135	99
Es	-2.121299	-0.163394	-0.569210	99
Es	-1.114039	-0.516580	0.010799	99
Es	0.040768	0.135418	0.282546	99
Es	2.333186	0.348970	0.197011	99
Es	1.872927	0.640236	-0.040246	99
Es	3.626624	0.639526	-0.009934	99
Es	-1.873421	-0.522345	0.031199	99
Es	-0.338765	-0.455629	0.015673	99
Es	-0.027176	-1.147840	0.031046	99
Es	0.288478	0.552714	-0.002778	99
Es	2.800939	0.670879	0.001819	99
Es	2.453349	0.911145	0.099732	99
Es	-2.095519	-1.237786	-0.040390	99
Es	1.056320	0.648764	-0.006745	99
29
Properties=species:S:1:pos:R:3:Z:I:1 energy=-192.7936348173464 field_type=dipole dipole="0.000000 0.000000 0.000000" charge=0
C	-1.861959	-0.535585	0.005443	6
C	-0.369839	-0.500255	0.015153	6
C	0.333931	0.640924	-0.008037	6
C	1.739931	0.640924	-0.008037	6
C	2.930091	0.640924	-0.008037	6
H	-2.209119	-1.571025	-0.064937	1
H	-2.262309	0.008395	-0.856757	1
H	-2.267409	-0.106835	0.925713	1
H	0.146071	-1.457355	0.038663	1
H	-0.174489	1.600594	-0.031167	1
H	3.995100	0.639295	-0.007997	1
Es	-2.122736	-0.241871	0.618733	99
Es	0.057164	0.145491	-0.272579	99
Es	2.334701	0.337438	0.184252	99
Es	-0.026996	-1.147997	0.031393	99
Es	-2.106707	-0.183643	-0.539459	99
Es	-0.334347	-0.448987	0.021497	99
Es	-1.874838	-0.517022	-0.020698	99
Es	0.017983	0.100550	0.284968	99
Es	3.626710	0.639678	-0.010123	99
Es	2.204188	0.638721	-0.290001	99
Es	-2.095538	-1.237866	-0.043100	99
Es	-1.114281	-0.516381	0.008792	99
Es	1.883892	0.641878	-0.046973	99
Es	2.788809	0.676631	0.005645	99
Es	0.284592	0.545031	-0.020221	99
Es	1.056294	0.648719	-0.006256	99
Es	0.004719	1.288471	-0.023814	99
Es	2.465971	0.898399	0.108170	99
29
Properties=species:S:1:pos:R:3:Z:I:1 energy=-192.7936348173464 field_type=dipole dipole="0.000000 0.000000 0.000000" charge=0
C	-1.861959	-0.535585	0.005443	6
C	-0.369839	-0.500255	0.015153	6
C	0.333931	0.640924	-0.008037	6
C	1.739931	0.640924	-0.008037	6
C	2.930091	0.640924	-0.008037	6
H	-2.209119	-1.571025	-0.064937	1
H	-2.262309	0.008395	-0.856757	1
H	-2.267409	-0.106835	0.925713	1
H	0.146071	-1.457355	0.038663	1
H	-0.174489	1.600594	-0.031167	1
H	3.995100	0.639295	-0.007997	1
Es	-2.121613	-0.162962	-0.568516	99
Es	2.195983	0.635914	-0.285108	99
Es	2.778861	0.681768	0.007297	99
Es	-1.114484	-0.516239	0.012226	99
Es	-2.104496	-0.262449	0.579603	99
Es	2.477216	0.894078	0.100527	99
Es	-1.877767	-0.517401	0.041463	99
Es	2.333747	0.339437	0.189612	99
Es	0.281605	0.540698	0.011462	99
Es	-0.026913	-1.148029	0.031742	99
Es	0.057823	0.163786	0.272644	99
Es	-2.095770	-1.237635	-0.039710	99
Es	0.016916	0.082005	-0.276648	99
Es	-0.330924	-0.444483	0.005270	99
Es	1.056261	0.648779	-0.006524	99
Es	0.004633	1.288533	-0.023770	99
Es	3.626778	0.639743	-0.010191	99
Es	1.891724	0.641697	-0.051151	99
29
Properties=species:S:1:pos:R:3:Z:I:1 energy=-192.7936348173464 field_type=dipole dipole="0.000000 0.000000 0.000000" charge=0
C	-1.861959	-0.535585	0.005443	6
C	-0.369839	-0.500255	0.015153	6
C	0.333931	0.640924	-0.008037	6
C	1.739931	0.640924	-0.008037	6
C	2.930091	0.640924	-0.008037	6
H	-2.209119	-1.571025	-0.064937	1
H	-2.262309	0.008395	-0.856757	1
H	-2.267409	-0.106835	0.925713	1
H	0.146071	-1.457355	0.038663	1
H	-0.174489	1.600594	-0.031167	1
H	3.995100	0.639295	-0.007997	1
Es	0.011024	0.090114	0.281587	99
Es	-1.114504	-0.516008	0.008319	99
Es	2.179916	0.657662	0.257950	99
Es	-0.328169	-0.439897	0.024329	99
Es	0.004565	1.288576	-0.024181	99
Es	-1.879118	-0.510833	-0.030381	99
Es	-2.123171	-0.241271	0.618244	99
Es	-2.095768	-1.237668	-0.043752	99
Es	0.063770	0.157520	-0.265175	99
Es	1.905189	0.645684	0.044023	99
Es	1.056197	0.648752	-0.008167	99
Es	2.335727	0.323184	-0.183271	99
Es	-0.026857	-1.148054	0.031517	99
Es	3.626864	0.640020	-0.005728	99
Es	0.278828	0.534268	-0.026831	99
Es	-2.101609	-0.190915	-0.528126	99
Es	2.768942	0.686214	-0.028619	99
Es	2.487755	0.879892	-0.131512	99
29
Properties=species:S:1:pos:R:3:Z:I:1 energy=-192.7936348173464 field_type=dipole dipole="0.000000 0.000000 0.000000" charge=0
C	-1.861959	-0.535585	0.005443	6
C	-0.369839	-0.500255	0.015153	6
C	0.333931	0.640924	-0.008037	6
C	1.739931	0.640924	-0.008037	6
C	2.930091	0.640924	-0.008037	6
H	-2.209119	-1.571025	-0.064937	1
H	-2.262309	0.008395	-0.856757	1
H	-2.267409	-0.106835	0.925713	1
H	0.146071	-1.457355	0.038663	1
H	-0.174489	1.600594	-0.031167	1
H	3.995100	0.639295	-0.007997	1
Es	2.755688	0.695511	0.013206	99
Es	0.029774	0.120441	0.277256	99
Es	2.168234	0.643509	-0.268053	99
Es	1.914718	0.643189	-0.067269	99
Es	-1.114406	-0.515881	0.008772	99
Es	-0.027068	-1.147840	0.032372	99
Es	0.280302	0.536812	-0.010321	99
Es	0.043034	0.124337	-0.268188	99
Es	3.626953	0.639949	-0.010501	99
Es	2.503671	0.877479	0.096000	99
Es	-2.123470	-0.240947	0.618002	99
Es	0.004797	1.288614	-0.023591	99
Es	-1.881458	-0.507421	-0.035758	99
Es	-2.095888	-1.237637	-0.044075	99
Es	2.335155	0.332879	0.187515	99
Es	1.056005	0.649037	-0.006169	99
Es	-2.098752	-0.194833	-0.521990	99
Es	-0.327708	-0.439958	0.013021	99
29
Properties=species:S:1:pos:R:3:Z:I:1 energy=-192.7936348173464 field_type=dipole dipole="0.000000 0.000000 0.000000" charge=0
C	-1.861959	-0.535585	0.005443	6
C	-0.369839	-0.500255	0.015153	6
C	0.333931	0.640924	-0.008037	6
C	1.739931	0.640924	-0.008037	6
C	2.930091	0.640924	-0.008037	6
H	-2.209119	-1.571025	-0.064937	1
H	-2.262309	0.008395	-0.856757	1
H	-2.267409	-0.106835	0.925713	1
H	0.146071	-1.457355	0.038663	1
H	-0.174489	1.600594	-0.031167	1
H	3.995100	0.639295	-0.007997	1
Es	-1.114763	-0.515571	0.007855	99
Es	3.626998	0.638650	-0.005492	99
Es	2.753079	0.588844	-0.042170	99
Es	0.002781	0.077693	0.278155	99
Es	-1.883819	-0.504016	-0.041499	99
Es	-2.095898	-0.199004	-0.515763	99
Es	0.004391	1.288714	-0.024344	99
Es	2.501317	0.430644	-0.165032	99
Es	-0.321972	-0.430761	0.028163	99
Es	1.936565	0.616346	0.064034	99
Es	2.142773	0.572612	0.223839	99
Es	-2.096047	-1.237465	-0.044462	99
Es	0.072304	0.172788	-0.257114	99
Es	-0.026681	-1.148102	0.031681	99
Es	-2.123735	-0.240536	0.618253	99
Es	1.056080	0.645150	-0.008730	99
Es	2.343954	0.988849	-0.121958	99
Es	0.272255	0.522403	-0.035190	99
29
Properties=species:S:1:pos:R:3:Z:I:1 energy=-192.7936348173464 field_type=dipole dipole="0.000000 0.000000 0.000000" charge=0
C	-1.861959	-0.535585	0.005443	6
C	-0.369839	-0.500255	0.015153	6
C	0.333931	0.640924	-0.008037	6
C	1.739931	0.640924	-0.008037	6
C	2.930091	0.640924	-0.008037	6
H	-2.209119	-1.571025	-0.064937	1
H	-2.262309	0.008395	-0.856757	1
H	-2.267409	-0.106835	0.925713	1
H	0.146071	-1.457355	0.038663	1
H	-0.174489	1.600594	-0.031167	1
H	3.995100	0.639295	-0.007997	1
Es	-1.886430	-0.500134	-0.047692	99
Es	-0.026981	-1.147888	0.030829	99
Es	0.027048	0.099955	-0.268527	99
Es	1.055778	0.645286	-0.005945	99
Es	2.740887	0.583423	0.033048	99
Es	2.515872	0.442893	0.148721	99
Es	-0.322907	-0.432927	0.012785	99
Es	-2.096226	-1.237478	-0.044752	99
Es	3.627054	0.638490	-0.010624	99
Es	1.943474	0.611902	-0.084116	99
Es	0.004788	1.288745	-0.024054	99
Es	-2.123952	-0.240161	0.618271	99
Es	-2.092725	-0.203392	-0.508881	99
Es	0.276090	0.529839	0.003424	99
Es	0.044983	0.144827	0.267535	99
Es	2.134667	0.566061	-0.233113	99
Es	-1.114560	-0.515508	0.006784	99
Es	2.342721	0.993302	0.096534	99
29
Properties=species:S:1:pos:R:3:Z:I:1 energy=-192.7936348173464 field_type=dipole dipole="0.000000 0.000000 0.000000" charge=0
C	-1.861959	-0.535585	0.005443	6
C	-0.369839	-0.500255	0.015153	6
C	0.333931	0.640924	-0.008037	6
C	1.739931	0.640924	-0.008037	6
C	2.930091	0.640924	-0.008037	6
H	-2.209119	-1.571025	-0.064937	1
H	-2.262309	0.008395	-0.856757	1
H	-2.267409	-0.106835	0.925713	1
H	0.146071	-1.457355	0.038663	1
H	-0.174489	1.600594	-0.031167	1
H	3.995100	0.639295	-0.007997	1
Es	-0.026443	-1.148169	0.031366	99
Es	0.263722	0.509654	0.036686	99
Es	0.004083	1.288868	-0.023124	99
Es	2.130435	0.647991	-0.243931	99
Es	0.082437	0.205780	0.249326	99
Es	1.946388	0.645193	-0.092108	99
Es	3.627179	0.640199	-0.010850	99
Es	2.334645	0.327126	0.190627	99
Es	2.716162	0.722726	0.025190	99
Es	-2.124281	-0.239789	0.618341	99
Es	-1.888947	-0.496576	-0.053527	99
Es	2.549895	0.848978	0.081975	99
Es	1.056128	0.648890	-0.005987	99
Es	-0.005712	0.047909	-0.266716	99
Es	-2.096351	-1.237310	-0.045169	99
Es	-0.314976	-0.421571	-0.006272	99
Es	-1.114926	-0.515019	0.006962	99
Es	-2.089858	-0.207639	-0.502562	99
29
Properties=species:S:1:pos:R:3:Z:I:1 energy=-192.7936348173464 field_type=dipole dipole="0.000000 0.000000 0.000000" charge=0
C	-1.861959	-0.535585	0.005443	6
C	-0.369839	-0.500255	0.015153	6
C	0.333931	0.640924	-0.008037	6
C	1.739931	0.640924	-0.008037	6
C	2.930091	0.640924	-0.008037	6
H	-2.209119	-1.571025	-0.064937	1
H	-2.262309	0.008395	-0.856757	1
H	-2.267409	-0.106835	0.925713	1
H	0.146071	-1.457355	0.038663	1
H	-0.174489	1.600594	-0.031167	1
H	3.995100	0.639295	-0.007997	1
Es	-2.086142	-0.213059	-0.494395	99
Es	-1.892189	-0.491937	-0.061096	99
Es	0.258159	0.500270	0.045115	99
Es	-1.114958	-0.514720	0.006482	99
Es	-0.026252	-1.148170	0.031135	99
Es	-0.311296	-0.416174	-0.009990	99
Es	-2.096551	-1.237174	-0.045636	99
Es	2.705894	0.729356	0.029252	99
Es	2.561373	0.840593	0.080212	99
Es	-0.012199	0.037876	-0.264261	99
Es	2.334664	0.324008	0.188256	99
Es	-2.124610	-0.239324	0.618525	99
Es	2.121343	0.651490	-0.237785	99
Es	3.627228	0.640297	-0.010904	99
Es	1.954271	0.646426	-0.098169	99
Es	0.090777	0.219722	0.242307	99
Es	0.003851	1.288966	-0.022968	99
Es	1.056217	0.648793	-0.005854	99
29
Properties=species:S:1:pos:R:3:Z:I:1 energy=-192.7936348173464 field_type=dipole dipole="0.000000 0.000000 0.000000" charge=0
C	-1.861959	-0.535585	0.005443	6
C	-0.369839	-0.500255	0.015153	6
C	0.333931	0.640924	-0.008037	6
C	1.739931	0.640924	-0.008037	6
C	2.930091	0.640924	-0.008037	6
H	-2.209119	-1.571025	-0.064937	1
H	-2.262309	0.008395	-0.856757	1
H	-2.267409	-0.106835	0.925713	1
H	0.146071	-1.457355	0.038663	1
H	-0.174489	1.600594	-0.031167	1
H	3.995100	0.639295	-0.007997	1
Es	2.558482	0.460981	-0.139247	99
Es	-1.887543	-0.610058	0.000808	99
Es	3.627229	0.638361	-0.005226	99
Es	1.056231	0.644156	-0.008076	99
Es	-1.114861	-0.519369	0.009366	99
Es	2.704173	0.559423	-0.064318	99
Es	0.003612	1.289087	-0.022813	99
Es	-0.307871	-0.410990	-0.013949	99
Es	2.340930	0.994298	-0.126688	99
Es	-2.123726	-0.248170	0.623318	99
Es	2.103486	0.575990	0.198565	99
Es	-2.122121	-0.168118	-0.573932	99
Es	-0.018738	0.028233	-0.262026	99
Es	0.251267	0.488794	0.054983	99
Es	0.100634	0.236234	0.233876	99
Es	1.970705	0.607399	0.090224	99
Es	-0.025926	-1.148059	0.030859	99
Es	-2.066384	-1.150951	-0.035498	99
29
Properties=species:S:1:pos:R:3:Z:I:1 energy=-192.7936348173464 field_type=dipole dipole="0.000000 0.000000 0.000000" charge=0
C	-1.861959	-0.535585	0.005443	6
C	-0.369839	-0.500255	0.015153	6
C	0.333931	0.640924	-0.008037	6
C	1.739931	0.640924	-0.008037	6
C	2.930091	0.640924	-0.008037	6
H	-2.209119	-1.571025	-0.064937	1
H	-2.262309	0.008395	-0.856757	1
H	-2.267409	-0.106835	0.925713	1
H	0.146071	-1.457355	0.038663	1
H	-0.174489	1.600594	-0.031167	1
H	3.995100	0.639295	-0.007997	1
Es	2.688103	0.740535	-0.055189	99
Es	-2.123755	-0.160155	-0.567810	99
Es	-1.114931	-0.514432	0.015310	99
Es	-2.097231	-1.237716	-0.036785	99
Es	3.627304	0.640480	-0.005054	99
Es	2.100520	0.661327	0.205999	99
Es	-2.078578	-0.291477	0.518989	99
Es	-0.026081	0.032762	0.268449	99
Es	1.972690	0.651621	0.096531	99
Es	2.335106	0.313935	-0.192168	99
Es	2.581172	0.824241	-0.097211	99
Es	0.247319	0.477777	-0.070765	99
Es	1.056389	0.648555	-0.008871	99
Es	-1.900107	-0.492112	0.096043	99
Es	-0.304526	-0.404541	0.043574	99
Es	0.108604	0.235534	-0.227903	99
Es	-0.025887	-1.148189	0.032276	99
Es	0.003468	1.289093	-0.025188	99
