33
Properties=species:S:1:pos:R:3:Z:I:1 energy=-230.75586901179258 field_type=dipole dipole="0.000000 0.000000 0.000000" charge=0
C	-1.213100	-0.688400	0.000000	6
C	-1.202800	0.706400	0.000100	6
C	-0.010300	-1.394800	0.000000	6
C	0.010400	1.394800	-0.000100	6
C	1.202800	-0.706300	0.000000	6
C	1.213100	0.688400	0.000000	6
H	-2.157700	-1.224400	0.000000	1
H	-2.139300	1.256400	0.000100	1
H	-0.018400	-2.480900	-0.000100	1
H	0.018400	2.480800	0.000000	1
H	2.139400	-1.256300	0.000100	1
H	2.157700	1.224500	0.000000	1
Es	-1.202826	0.706413	0.000100	99
Es	-1.855152	-1.055186	-0.000002	99
Es	-1.075311	0.008019	0.287575	99
Es	1.202824	-0.706316	-0.000000	99
Es	-0.010298	-1.394829	-0.000000	99
Es	0.013742	2.134202	-0.000052	99
Es	0.544675	0.927354	0.287442	99
Es	-1.839316	1.082688	0.000110	99
Es	1.857255	1.051534	0.000005	99
Es	-1.213126	-0.688413	0.000000	99
Es	1.841526	-1.078917	0.000053	99
Es	1.213124	0.688416	-0.000000	99
Es	-0.604388	1.065024	0.000001	99
Es	-1.075462	0.008038	-0.287442	99
Es	0.010402	1.394829	-0.000100	99
Es	-0.017932	-2.134217	-0.000060	99
Es	0.530869	-0.935350	-0.287486	99
Es	-0.620098	-1.055896	-0.000062	99
Es	1.224524	-0.009073	0.000001	99
Es	0.544589	0.927186	-0.287576	99
Es	0.530740	-0.935167	0.287534	99
33
Properties=species:S:1:pos:R:3:Z:I:1 energy=-230.75586901179258 field_type=dipole dipole="0.000000 0.000000 0.000000" charge=0
C	-1.213100	-0.688400	0.000000	6
C	-1.202800	0.706400	0.000100	6
C	-0.010300	-1.394800	0.000000	6
C	0.010400	1.394800	-0.000100	6
C	1.202800	-0.706300	0.000000	6
C	1.213100	0.688400	0.000000	6
H	-2.157700	-1.224400	0.000000	1
H	-2.139300	1.256400	0.000100	1
H	-0.018400	-2.480900	-0.000100	1
H	0.018400	2.480800	0.000000	1
H	2.139400	-1.256300	0.000100	1
H	2.157700	1.224500	0.000000	1
Es	1.841486	-1.078694	0.000052	99
Es	0.013570	2.134056	-0.000060	99
Es	-1.213125	-0.688403	-0.000000	99
Es	-0.604534	1.065282	-0.000096	99
Es	0.544648	0.927288	-0.288411	99
Es	-1.075121	0.008015	0.288508	99
Es	-1.839102	1.082762	0.000108	99
Es	-0.010291	-1.394823	-0.000000	99
Es	0.010409	1.394823	-0.000100	99
Es	-0.018102	-2.134068	-0.000061	99
Es	0.544493	0.927043	0.288406	99
Es	1.224820	-0.009075	-0.000088	99
Es	1.202815	-0.706320	-0.000000	99
Es	-1.075408	0.008039	-0.288307	99
Es	0.530661	-0.935032	0.288462	99
Es	-1.202825	0.706404	0.000100	99
Es	-1.854940	-1.055263	-0.000004	99
Es	0.530828	-0.935273	-0.288357	99
Es	-0.620247	-1.056151	-0.000106	99
Es	1.857212	1.051312	-0.000003	99
Es	1.213116	0.688420	-0.000000	99
33
Properties=species:S:1:pos:R:3:Z:I:1 energy=-230.75586901179258 field_type=dipole dipole="0.000000 0.000000 0.000000" charge=0
C	-1.213100	-0.688400	0.000000	6
C	-1.202800	0.706400	0.000100	6
C	-0.010300	-1.394800	0.000000	6
C	0.010400	1.394800	-0.000100	6
C	1.202800	-0.706300	0.000000	6
C	1.213100	0.688400	0.000000	6
H	-2.157700	-1.224400	0.000000	1
H	-2.139300	1.256400	0.000100	1
H	-0.018400	-2.480900	-0.000100	1
H	0.018400	2.480800	0.000000	1
H	2.139400	-1.256300	0.000100	1
H	2.157700	1.224500	0.000000	1
Es	-1.838884	1.082828	0.000115	99
Es	-0.620392	-1.056398	-0.000005	99
Es	0.544494	0.927046	0.289243	99
Es	-0.604675	1.065530	0.000011	99
Es	-1.075199	0.008016	0.289329	99
Es	-0.018269	-2.133913	-0.000058	99
Es	-1.213124	-0.688390	0.000000	99
Es	-1.075087	0.008037	-0.289256	99
Es	0.544523	0.927075	-0.289344	99
Es	-1.854723	-1.055333	0.000003	99
Es	0.013401	2.133904	-0.000056	99
Es	-1.202823	0.706391	0.000100	99
Es	-0.010281	-1.394816	-0.000000	99
Es	0.010420	1.394816	-0.000100	99
Es	0.530718	-0.935077	-0.289285	99
Es	1.857161	1.051090	0.000001	99
Es	1.841438	-1.078472	0.000055	99
Es	0.530652	-0.935017	0.289304	99
Es	1.213104	0.688426	-0.000001	99
Es	1.202803	-0.706326	-0.000000	99
Es	1.225106	-0.009077	-0.000013	99
33
Properties=species:S:1:pos:R:3:Z:I:1 energy=-230.75586901179258 field_type=dipole dipole="0.000000 0.000000 0.000000" charge=0
C	-1.213100	-0.688400	0.000000	6
C	-1.202800	0.706400	0.000100	6
C	-0.010300	-1.394800	0.000000	6
C	0.010400	1.394800	-0.000100	6
C	1.202800	-0.706300	0.000000	6
C	1.213100	0.688400	0.000000	6
H	-2.157700	-1.224400	0.000000	1
H	-2.139300	1.256400	0.000100	1
H	-0.018400	-2.480900	-0.000100	1
H	0.018400	2.480800	0.000000	1
H	2.139400	-1.256300	0.000100	1
H	2.157700	1.224500	0.000000	1
Es	0.010436	1.394807	-0.000100	99
Es	1.857102	1.050867	0.000003	99
Es	0.013235	2.133744	-0.000055	99
Es	-0.010265	-1.394807	0.000000	99
Es	1.202788	-0.706334	-0.000000	99
Es	-0.620532	-1.056637	-0.000019	99
Es	0.530636	-0.934936	-0.290164	99
Es	0.544446	0.926947	-0.290220	99
Es	-1.074999	0.008011	0.290217	99
Es	1.225383	-0.009080	0.000009	99
Es	0.544443	0.926965	0.290108	99
Es	1.841382	-1.078248	0.000057	99
Es	-1.854502	-1.055396	0.000000	99
Es	-1.075044	0.008035	-0.290109	99
Es	-1.213124	-0.688373	-0.000000	99
Es	1.213089	0.688435	0.000000	99
Es	-1.202825	0.706374	0.000100	99
Es	-0.018432	-2.133751	-0.000056	99
Es	0.530618	-0.934943	0.290166	99
Es	-0.604812	1.065771	-0.000007	99
Es	-1.838661	1.082888	0.000112	99
33
Properties=species:S:1:pos:R:3:Z:I:1 energy=-230.75586901179258 field_type=dipole dipole="0.000000 0.000000 0.000000" charge=0
C	-1.213100	-0.688400	0.000000	6
C	-1.202800	0.706400	0.000100	6
C	-0.010300	-1.394800	0.000000	6
C	0.010400	1.394800	-0.000100	6
C	1.202800	-0.706300	0.000000	6
C	1.213100	0.688400	0.000000	6
H	-2.157700	-1.224400	0.000000	1
H	-2.139300	1.256400	0.000100	1
H	-0.018400	-2.480900	-0.000100	1
H	0.018400	2.480800	0.000000	1
H	2.139400	-1.256300	0.000100	1
H	2.157700	1.224500	0.000000	1
Es	-1.841262	1.078131	0.000112	99
Es	1.074870	-0.007940	0.291017	99
Es	-0.010356	-1.394796	-0.000001	99
Es	-0.544309	-0.926856	-0.291013	99
Es	-0.530563	0.934865	-0.291013	99
Es	-0.544304	-0.926861	0.291025	99
Es	-1.857029	-1.050598	-0.000002	99
Es	0.620711	1.056863	-0.000084	99
Es	-0.013012	-2.133622	-0.000057	99
Es	1.074917	-0.007947	-0.291011	99
Es	0.018654	2.133534	-0.000054	99
Es	-0.530519	0.934845	0.291015	99
Es	1.202826	-0.706250	0.000000	99
Es	1.213125	0.688349	-0.000000	99
Es	-1.202771	0.706438	0.000100	99
Es	0.010344	1.394797	-0.000100	99
Es	1.854280	1.055498	0.000004	99
Es	-1.213071	-0.688448	0.000000	99
Es	0.604994	-1.065963	-0.000008	99
Es	1.838492	-1.082836	0.000057	99
Es	-1.225656	0.009135	0.000056	99
33
Properties=species:S:1:pos:R:3:Z:I:1 energy=-230.75586901179258 field_type=dipole dipole="0.000000 0.000000 0.000000" charge=0
C	-1.213100	-0.688400	0.000000	6
C	-1.202800	0.706400	0.000100	6
C	-0.010300	-1.394800	0.000000	6
C	0.010400	1.394800	-0.000100	6
C	1.202800	-0.706300	0.000000	6
C	1.213100	0.688400	0.000000	6
H	-2.157700	-1.224400	0.000000	1
H	-2.139300	1.256400	0.000100	1
H	-0.018400	-2.480900	-0.000100	1
H	0.018400	2.480800	0.000000	1
H	2.139400	-1.256300	0.000100	1
H	2.157700	1.224500	0.000000	1
Es	-1.841207	1.077939	0.000210	99
Es	0.008666	1.392433	-0.000276	99
Es	1.075551	-0.008819	0.290891	99
Es	0.620811	1.057015	0.000168	99
Es	-0.012017	-1.392219	-0.000195	99
Es	1.213380	0.688469	0.000017	99
Es	-0.531095	0.936135	0.290308	99
Es	1.201461	-0.703312	-0.000186	99
Es	-0.530874	0.935758	-0.290544	99
Es	-0.543142	-0.927935	-0.291121	99
Es	-1.856978	-1.050399	0.000031	99
Es	-0.012874	-2.133494	0.000038	99
Es	-0.543913	-0.927879	0.290872	99
Es	0.018792	2.133393	0.000054	99
Es	-1.212734	-0.688474	-0.000079	99
Es	-1.225848	0.009085	0.000387	99
Es	1.075182	-0.010387	-0.291159	99
Es	-1.200007	0.706645	-0.000078	99
Es	0.605060	-1.066171	0.000549	99
Es	1.838292	-1.082885	0.000169	99
Es	1.853856	1.055441	-0.000014	99
33
Properties=species:S:1:pos:R:3:Z:I:1 energy=-230.75586901179258 field_type=dipole dipole="0.000000 0.000000 0.000000" charge=0
C	-1.213100	-0.688400	0.000000	6
C	-1.202800	0.706400	0.000100	6
C	-0.010300	-1.394800	0.000000	6
C	0.010400	1.394800	-0.000100	6
C	1.202800	-0.706300	0.000000	6
C	1.213100	0.688400	0.000000	6
H	-2.157700	-1.224400	0.000000	1
H	-2.139300	1.256400	0.000100	1
H	-0.018400	-2.480900	-0.000100	1
H	0.018400	2.480800	0.000000	1
H	2.139400	-1.256300	0.000100	1
H	2.157700	1.224500	0.000000	1
Es	0.016617	1.385796	-0.000400	99
Es	0.532704	-0.938927	-0.287078	99
Es	-1.198143	0.696172	-0.000269	99
Es	-0.620741	-1.057013	-0.000722	99
Es	0.012837	2.133390	0.000116	99
Es	-1.208380	-0.678413	0.000372	99
Es	-1.853999	-1.055566	-0.000203	99
Es	-0.018824	-2.133392	-0.000228	99
Es	-1.079194	0.011511	-0.286979	99
Es	-1.079226	0.005095	0.287075	99
Es	-0.003848	-1.385735	0.000298	99
Es	1.856987	1.050348	0.000177	99
Es	0.532216	-0.938434	0.287062	99
Es	1.225813	-0.009079	0.000008	99
Es	1.191902	-0.707183	0.000296	99
Es	-1.838158	1.083050	0.000317	99
Es	0.546546	0.930159	-0.287114	99
Es	-0.605022	1.066147	0.000704	99
Es	1.202027	0.689457	-0.000293	99
Es	1.841275	-1.077727	-0.000118	99
Es	0.546971	0.930682	0.287022	99
33
Properties=species:S:1:pos:R:3:Z:I:1 energy=-230.75586901179258 field_type=dipole dipole="0.000000 0.000000 0.000000" charge=0
C	-1.213100	-0.688400	0.000000	6
C	-1.202800	0.706400	0.000100	6
C	-0.010300	-1.394800	0.000000	6
C	0.010400	1.394800	-0.000100	6
C	1.202800	-0.706300	0.000000	6
C	1.213100	0.688400	0.000000	6
H	-2.157700	-1.224400	0.000000	1
H	-2.139300	1.256400	0.000100	1
H	-0.018400	-2.480900	-0.000100	1
H	0.018400	2.480800	0.000000	1
H	2.139400	-1.256300	0.000100	1
H	2.157700	1.224500	0.000000	1
Es	0.605051	-1.066059	0.000885	99
Es	-0.538222	0.939609	0.283079	99
Es	-0.021851	-1.378141	-0.000539	99
Es	1.194371	-0.687743	-0.000543	99
Es	-1.841231	1.077743	-0.000125	99
Es	-0.530451	0.944022	-0.283167	99
Es	1.838141	-1.082998	0.000295	99
Es	-0.012692	-2.133403	0.000181	99
Es	0.620765	1.056959	-0.000076	99
Es	-1.856994	-1.050213	-0.000240	99
Es	-0.544639	-0.935848	-0.283126	99
Es	1.853930	1.055665	-0.000259	99
Es	-1.182590	0.708073	0.000642	99
Es	1.082802	-0.012627	-0.283080	99
Es	1.204449	0.670060	0.000538	99
Es	-0.552240	-0.931399	0.283130	99
Es	-1.225767	0.009129	-0.000822	99
Es	1.082836	-0.003648	0.283156	99
Es	-0.001459	1.378228	-0.000635	99
Es	-1.192817	-0.690380	0.000538	99
Es	0.018970	2.133310	0.000208	99
33
Properties=species:S:1:pos:R:3:Z:I:1 energy=-230.75586901179258 field_type=dipole dipole="0.000000 0.000000 0.000000" charge=0
C	-1.213100	-0.688400	0.000000	6
C	-1.202800	0.706400	0.000100	6
C	-0.010300	-1.394800	0.000000	6
C	0.010400	1.394800	-0.000100	6
C	1.202800	-0.706300	0.000000	6
C	1.213100	0.688400	0.000000	6
H	-2.157700	-1.224400	0.000000	1
H	-2.139300	1.256400	0.000100	1
H	-0.018400	-2.480900	-0.000100	1
H	0.018400	2.480800	0.000000	1
H	2.139400	-1.256300	0.000100	1
H	2.157700	1.224500	0.000000	1
Es	0.019043	2.133283	-0.000348	99
Es	1.853872	1.055716	0.000297	99
Es	-0.007058	1.370544	0.000656	99
Es	-1.841245	1.077667	0.000406	99
Es	-1.225684	0.009136	0.000069	99
Es	1.200304	0.661132	-0.000752	99
Es	1.086643	-0.001628	-0.278935	99
Es	0.605003	-1.065990	0.000003	99
Es	-0.544705	-0.940169	-0.278942	99
Es	-1.172792	0.708950	-0.000654	99
Es	1.086539	-0.013823	0.278928	99
Es	0.620729	1.056884	-0.000074	99
Es	-0.555235	-0.934022	0.278938	99
Es	-1.857007	-1.050136	-0.000295	99
Es	-0.531256	0.947894	0.278929	99
Es	1.190521	-0.679055	0.000754	99
Es	1.838080	-1.083048	-0.000236	99
Es	-0.027512	-1.370090	-0.000750	99
Es	-0.541897	0.941860	-0.278942	99
Es	-0.012619	-2.133377	0.000236	99
Es	-1.183362	-0.691391	0.000754	99
33
Properties=species:S:1:pos:R:3:Z:I:1 energy=-230.75586901179258 field_type=dipole dipole="0.000000 0.000000 0.000000" charge=0
C	-1.213100	-0.688400	0.000000	6
C	-1.202800	0.706400	0.000100	6
C	-0.010300	-1.394800	0.000000	6
C	0.010400	1.394800	-0.000100	6
C	1.202800	-0.706300	0.000000	6
C	1.213100	0.688400	0.000000	6
H	-2.157700	-1.224400	0.000000	1
H	-2.139300	1.256400	0.000100	1
H	-0.018400	-2.480900	-0.000100	1
H	0.018400	2.480800	0.000000	1
H	2.139400	-1.256300	0.000100	1
H	2.157700	1.224500	0.000000	1
Es	-1.841263	1.077600	-0.000170	99
Es	0.604946	-1.065914	0.001225	99
Es	-1.857015	-1.050067	0.000307	99
Es	-1.225588	0.009125	0.000242	99
Es	1.838031	-1.083096	0.000370	99
Es	0.019109	2.133263	0.000261	99
Es	-0.012555	-2.133351	0.000224	99
Es	-0.531835	0.951755	-0.274933	99
Es	-1.163135	0.709885	0.001088	99
Es	1.196288	0.652292	0.001021	99
Es	-0.012809	1.362752	-0.001104	99
Es	-1.173976	-0.692384	-0.000373	99
Es	-0.551514	-0.939419	-0.275081	99
Es	-0.032950	-1.362364	-0.000344	99
Es	1.090217	-0.015635	-0.274831	99
Es	0.620680	1.056801	-0.000021	99
Es	-0.545018	0.944483	0.274486	99
Es	-0.552148	-0.941148	0.274458	99
Es	1.090431	0.000166	0.274576	99
Es	1.186644	-0.670171	-0.001051	99
Es	1.853822	1.055764	-0.000306	99
