27
Properties=species:S:1:pos:R:3:Z:I:1 energy=-172.13138253571316 field_type=dipole dipole="0.000000 0.000000 0.000000" charge=0
C	-1.239611	-0.008605	0.579296	6
N	0.213849	-0.079675	0.698436	7
C	0.850879	-0.748455	-0.430544	6
C	0.920349	0.749585	-0.271084	6
H	-1.624341	0.749155	1.269866	1
H	-1.681221	-0.969605	0.862736	1
H	-1.599181	0.242405	-0.426174	1
H	0.223419	-1.160965	-1.210554	1
H	1.735969	-1.326505	-0.194884	1
H	1.853749	1.181394	0.069916	1
H	0.346139	1.371275	-0.947014	1
Es	0.213682	-0.079615	0.697920	99
Es	0.920115	0.749023	-0.270794	99
Es	0.850675	-0.747980	-0.430141	99
Es	-1.239182	-0.008597	0.579303	99
Es	0.464451	0.383668	0.308969	99
Es	-1.499003	0.512237	1.045683	99
Es	0.410291	-1.028288	-0.948452	99
Es	0.989841	0.010178	-0.516502	99
Es	1.447567	-1.143377	-0.264268	99
Es	-0.394956	-0.042189	0.581431	99
Es	-1.535396	-0.667270	0.766547	99
Es	-1.470938	0.164019	-0.120579	99
Es	1.547950	1.045605	-0.034035	99
Es	0.516567	1.172244	-0.718756	99
Es	0.432553	-0.467029	0.204948	99
Es	0.364062	-0.126943	1.048660	99
