30
Properties=species:S:1:pos:R:3:Z:I:1 energy=-173.33419629567496 field_type=dipole dipole="0.000000 0.000000 0.000000" charge=0
C	-1.300289	-0.239857	0.420012	6
N	0.161661	-0.232907	0.416952	7
C	0.673681	-0.956407	-0.745708	6
C	0.666212	1.139203	0.427842	6
H	-1.685889	0.265693	1.312772	1
H	-1.680459	-1.267307	0.453232	1
H	-1.719949	0.254393	-0.464148	1
H	0.330842	-1.997367	-0.733098	1
H	1.769141	-0.987287	-0.728378	1
H	0.356761	-0.500697	-1.691238	1
H	0.315932	1.671343	1.319712	1
H	0.350892	1.704843	-0.456908	1
H	1.761461	1.146353	0.468952	1
Es	0.162566	-0.234211	0.419287	99
Es	0.666103	1.138901	0.427843	99
Es	-1.299968	-0.239858	0.420015	99
Es	0.673571	-0.956251	-0.745450	99
Es	0.362361	-0.516010	-0.118484	99
Es	-1.555718	-0.944948	0.432733	99
Es	0.415907	1.502219	1.034580	99
Es	0.428407	-1.665158	-0.738078	99
Es	-1.581379	0.103170	-0.193625	99
Es	-1.559494	0.115754	1.027382	99
Es	0.359144	0.372634	0.379175	99
Es	0.443855	1.522234	-0.186226	99
Es	0.450215	-0.635110	-1.393821	99
Es	1.423573	-0.966330	-0.734745	99
Es	1.416031	1.139040	0.445872	99
Es	-0.474718	-0.212179	0.375829	99
Es	0.280604	-0.404261	0.723723	99
