33
Properties=species:S:1:pos:R:3:Z:I:1 energy=-231.03446168095607 field_type=dipole dipole="0.000000 0.000000 0.000000" charge=0
C	-1.223819	-1.880607	-0.044909	6
O	-0.002109	-1.157047	-0.015469	8
C	-0.216469	0.219893	0.276381	6
C	1.119511	0.891143	0.278381	6
C	1.444711	1.949303	-0.475689	6
H	-0.999709	-2.926697	-0.271629	1
H	-1.883679	-1.488467	-0.825119	1
H	-1.721479	-1.833177	0.928551	1
H	-0.674179	0.320053	1.267131	1
H	-0.885139	0.659833	-0.473069	1
H	1.865691	0.465663	0.944161	1
H	0.736251	2.401533	-1.162779	1
H	2.440421	2.378573	-0.425939	1
Es	-0.002497	-1.156817	-0.015381	99
Es	-0.215941	0.219971	0.276368	99
Es	-1.223483	-1.880498	-0.044932	99
Es	1.119650	0.891106	0.278484	99
Es	1.444878	1.949149	-0.475310	99
Es	0.291891	-1.279982	-0.085481	99
Es	1.613095	0.594013	0.738983	99
Es	-0.117105	-0.653300	0.092060	99
Es	-1.568103	-1.837755	0.621371	99
Es	0.955808	2.245974	-0.920940	99
Es	-0.671154	0.512510	-0.221579	99
Es	-1.679307	-1.600528	-0.572704	99
Es	0.458796	0.585993	0.260216	99
Es	1.264301	1.489180	-0.094542	99
Es	2.105995	2.219095	-0.426499	99
Es	-0.532572	0.288101	0.943425	99
Es	-1.072532	-2.595906	-0.200736	99
Es	-0.493217	-1.389154	-0.012736	99
Es	-0.029433	-1.142492	0.006827	99
Es	1.296041	1.401475	-0.144527	99
