32
Properties=species:S:1:pos:R:3:Z:I:1 energy=-247.08238966949875 field_type=dipole dipole="0.000000 0.000000 0.000000" charge=0
C	-1.361708	0.132376	-0.149840	6
N	0.069102	0.130326	0.076370	7
C	0.761962	-1.142754	0.028090	6
C	0.780572	1.307386	0.180420	6
O	1.996812	1.406946	0.277380	8
H	-1.774838	1.139816	-0.051480	1
H	-1.838948	-0.524974	0.582540	1
H	-1.559188	-0.237394	-1.159790	1
H	0.293602	-1.829194	0.738590	1
H	1.820102	-1.034034	0.282230	1
H	0.678842	-1.548654	-0.983560	1
H	0.133692	2.200156	0.179050	1
Es	1.996656	1.406524	0.277344	99
Es	0.069076	0.130250	0.076286	99
Es	0.779643	1.307669	0.180371	99
Es	-1.361210	0.132437	-0.149767	99
Es	0.761739	-1.142312	0.028107	99
Es	2.251237	1.535977	0.310965	99
Es	0.386664	0.662360	0.104818	99
Es	0.693196	-1.415953	-0.660746	99
Es	-1.678056	-0.319488	0.347667	99
Es	0.318875	1.885815	0.175389	99
Es	-0.555038	0.144254	-0.028411	99
Es	-1.490050	-0.123845	-0.836171	99
Es	1.485709	1.340474	0.236502	99
Es	0.372123	-0.416602	0.044953	99
Es	0.428649	-1.603705	0.508069	99
Es	-1.629775	0.823229	-0.081677	99
Es	1.462688	-1.068764	0.197936	99
Es	1.707965	1.386494	0.247696	99
Es	1.935039	1.299670	0.266441	99
Es	0.129932	0.259035	0.153780	99
