29
Properties=species:S:1:pos:R:3:Z:I:1 energy=-192.81319929536596 field_type=dipole dipole="0.000000 0.000000 0.000000" charge=0
C	-1.440354	-0.200146	-0.004593	6
C	0.060525	-0.211656	-0.000503	6
C	0.745795	-1.364916	0.007357	6
C	0.776056	1.022484	-0.002003	6
C	1.375565	2.061674	-0.001953	6
H	-1.834454	0.821664	0.022177	1
H	-1.833385	-0.728286	0.870697	1
H	-1.826774	-0.680636	-0.909703	1
H	0.235836	-2.322796	0.009297	1
H	1.831655	-1.382296	0.011147	1
H	1.909535	2.984914	-0.001923	1
Es	0.060999	-0.210951	-0.000505	99
Es	0.775975	1.022549	-0.002001	99
Es	0.745301	-1.363451	0.007348	99
Es	-1.439565	-0.199791	-0.004593	99
Es	1.377359	2.064369	-0.001938	99
Es	1.375152	-1.255090	0.009660	99
Es	1.576034	2.428275	-0.002219	99
Es	-1.677897	0.500678	0.013453	99
Es	0.415882	0.402209	-0.001708	99
Es	1.153661	1.695895	-0.000836	99
Es	0.531159	-0.910771	0.005917	99
Es	0.386545	-1.942569	0.008048	99
Es	-1.676940	-0.526687	-0.605649	99
Es	-1.682366	-0.558533	0.576052	99
Es	-0.667642	-0.155320	-0.001376	99
Es	1.065156	1.520560	-0.003633	99
Es	1.092169	1.545644	-0.001943	99
Es	0.430724	-0.745681	0.001532	99
