34
Properties=species:S:1:pos:R:3:Z:I:1 energy=-211.19470882244283 field_type=dipole dipole="0.000000 0.000000 0.000000" charge=0
C	-1.808789	-0.521856	0.421194	6
C	-0.322439	-0.468266	0.505744	6
N	0.488780	-1.155516	-0.498856	7
C	0.484261	0.305714	-0.508126	6
C	1.716480	1.034064	-0.096066	6
H	-2.248129	0.219784	1.095554	1
H	-2.169849	-1.510666	0.722224	1
H	-2.174129	-0.317446	-0.589906	1
H	0.039591	-0.539436	1.525034	1
H	-0.091679	-1.525896	-1.253646	1
H	-0.020959	0.783464	-1.339496	1
H	2.237961	0.536394	0.728444	1
H	1.460130	2.047734	0.227444	1
H	2.408771	1.111924	-0.939546	1
Es	0.488381	-1.155482	-0.498983	99
Es	0.484446	0.305424	-0.507707	99
Es	-0.322431	-0.468313	0.505317	99
Es	-1.808161	-0.521825	0.421161	99
Es	1.715874	1.033604	-0.096214	99
Es	0.075150	-0.953240	-0.065474	99
Es	-1.050398	-0.492380	0.441884	99
Es	2.061210	0.702640	0.458904	99
Es	0.806769	-1.348545	-0.388041	99
Es	0.138619	0.613464	-1.081318	99
Es	-2.055242	-1.193819	0.625761	99
Es	-0.070906	-0.530589	1.196083	99
Es	-2.101253	-0.021687	0.868705	99
Es	1.533672	1.712040	0.118990	99
Es	2.183915	1.088118	-0.670266	99
Es	-2.049621	-0.387398	-0.261129	99
Es	1.094012	0.645253	-0.299238	99
Es	0.002267	0.126897	0.100744	99
Es	0.121787	-1.320435	-0.929403	99
Es	0.541534	-0.537248	-0.602965	99
