34
Properties=species:S:1:pos:R:3:Z:I:1 energy=-211.19728785381676 field_type=dipole dipole="0.000000 0.000000 0.000000" charge=0
C	-1.541908	0.110104	-0.046296	6
C	-0.060078	0.052804	0.222304	6
N	0.312782	0.019394	1.642794	7
C	0.806752	-0.703606	-0.753576	6
C	0.850682	0.797854	-0.721506	6
H	-1.763798	0.142734	-1.118586	1
H	-1.978788	1.002834	0.413784	1
H	-2.039218	-0.771786	0.371554	1
H	1.323502	-0.026726	1.761264	1
H	-0.059728	-0.818586	2.089004	1
H	0.335562	-1.176776	-1.607966	1
H	1.670682	-1.242336	-0.382486	1
H	1.736412	1.276194	-0.319656	1
H	0.407142	1.337894	-1.550626	1
Es	0.312656	0.019635	1.643229	99
Es	-0.060034	0.052851	0.222199	99
Es	0.850592	0.796992	-0.721219	99
Es	-1.541391	0.110076	-0.046259	99
Es	0.806631	-0.702773	-0.753408	99
Es	0.189512	-0.013368	1.052444	99
Es	0.491928	-1.019837	-1.319345	99
Es	-1.867033	-0.495421	0.241823	99
Es	0.550078	1.156333	-1.266443	99
Es	0.883836	-0.051150	1.661586	99
Es	1.372065	-1.060861	-0.495842	99
Es	0.942424	0.046963	-0.848930	99
Es	0.130707	-0.494991	1.844191	99
Es	-1.827496	0.715195	0.264209	99
Es	-1.678311	0.128838	-0.775227	99
Es	-0.784844	0.077991	0.090578	99
Es	1.430504	1.111970	-0.448678	99
Es	0.167078	0.346689	1.821491	99
Es	0.352508	0.634459	-0.197462	99
Es	0.316362	-0.545825	-0.234473	99
