38
Properties=species:S:1:pos:R:3:Z:I:1 energy=-196.40193774007383 field_type=dipole dipole="0.000000 0.000000 0.000000" charge=0
C	-1.729139	-1.113072	-0.273524	6
C	-0.211139	-1.018732	-0.213534	6
C	0.318261	0.424278	-0.270774	6
C	-0.130629	1.257778	0.930316	6
C	1.846721	0.413988	-0.350404	6
H	-2.037509	-2.162112	-0.334314	1
H	-2.121289	-0.593812	-1.153903	1
H	-2.194659	-0.684672	0.619046	1
H	0.198701	-1.584893	-1.059134	1
H	0.142681	-1.514722	0.698466	1
H	-0.062059	0.903297	-1.181834	1
H	0.171491	0.790097	1.873576	1
H	-1.217479	1.383398	0.944166	1
H	0.310581	2.260007	0.894146	1
H	2.288391	-0.050542	0.538046	1
H	2.239801	1.433278	-0.430784	1
H	2.187281	-0.143562	-1.229563	1
Es	0.318264	0.424236	-0.270743	99
Es	-0.211318	-1.018363	-0.213470	99
Es	-1.728533	-1.113036	-0.273506	99
Es	-0.130425	1.257391	0.929790	99
Es	1.846104	0.413962	-0.350372	99
Es	2.076660	0.028579	-0.949285	99
Es	-0.979182	-1.058608	-0.238834	99
Es	-0.872867	1.340558	0.937082	99
Es	0.072693	-1.400592	-0.786438	99
Es	0.058196	0.743254	-0.883509	99
Es	0.089145	0.842130	0.335736	99
Es	-1.941538	-1.834933	-0.317871	99
Es	-1.992005	-0.754215	-0.866337	99
Es	2.111934	1.115984	-0.402456	99
Es	2.135807	0.095065	0.257250	99
Es	0.175488	1.940202	0.907296	99
Es	-2.041493	-0.818078	0.330003	99
Es	0.031879	-1.348619	0.402055	99
Es	0.073337	0.933213	1.567907	99
Es	1.100057	0.419606	-0.317296	99
Es	0.046175	-0.296134	-0.233120	99
