33
Properties=species:S:1:pos:R:3:Z:I:1 energy=-231.04988719497874 field_type=dipole dipole="0.000000 0.000000 0.000000" charge=0
C	-1.449721	-0.243355	-0.112335	6
C	0.051899	-0.296485	-0.131485	6
C	0.719949	-1.458135	-0.020365	6
C	0.758008	1.018865	-0.303145	6
O	0.505779	1.835325	0.829655	8
H	-1.802501	0.354685	0.733925	1
H	-1.894791	-1.240025	-0.022745	1
H	-1.825391	0.205795	-1.037465	1
H	0.198399	-2.403745	0.094815	1
H	1.804929	-1.496295	-0.043405	1
H	0.397779	1.537595	-1.197205	1
H	1.841798	0.897085	-0.401815	1
H	0.693869	1.288685	1.611565	1
Es	0.506091	1.835126	0.829927	99
Es	0.757763	1.018932	-0.302720	99
Es	0.051959	-0.296599	-0.131482	99
Es	0.718850	-1.456228	-0.020507	99
Es	-1.449397	-0.243256	-0.112384	99
Es	0.458810	2.146528	0.811052	99
Es	0.514885	-1.036102	-0.048525	99
Es	-0.697204	-0.270245	-0.111960	99
Es	1.493693	0.918926	-0.367182	99
Es	1.342787	-1.362845	-0.021318	99
Es	0.607986	1.524662	1.208442	99
Es	0.407434	0.332232	-0.229094	99
Es	0.511475	1.364775	-0.907801	99
Es	0.348642	-2.037112	0.043858	99
Es	-1.685613	0.062776	-0.740385	99
Es	-1.740015	-0.918347	-0.054348	99
Es	-1.677107	0.154190	0.457136	99
Es	0.584791	1.500357	0.453387	99
Es	0.483795	1.790833	0.827379	99
Es	0.415412	-0.901393	-0.088479	99
