39
Properties=species:S:1:pos:R:3:Z:I:1 energy=-233.05273574015092 field_type=dipole dipole="0.000000 0.000000 0.000000" charge=0
C	-2.138431	-1.263482	0.003234	6
C	-0.618951	-1.210852	0.009534	6
C	-0.107681	0.229708	-0.006146	6
C	1.420189	0.278048	-0.004516	6
C	1.906950	1.665088	-0.004386	6
C	2.308440	2.797908	-0.003446	6
H	-2.481700	-2.302662	0.018144	1
H	-2.543791	-0.784712	-0.893866	1
H	-2.552381	-0.756392	0.880624	1
H	-0.236930	-1.751532	-0.864196	1
H	-0.245321	-1.728542	0.900684	1
H	-0.497340	0.767608	0.867764	1
H	-0.494170	0.748278	-0.893056	1
H	1.809239	-0.245662	-0.885576	1
H	1.807960	-0.244762	0.877614	1
H	2.663919	3.801958	-0.002416	1
Es	1.420370	0.278695	-0.004514	99
Es	1.906726	1.664600	-0.004387	99
Es	-0.107311	0.229465	-0.006137	99
Es	-0.619006	-1.210632	0.009532	99
Es	2.308667	2.799005	-0.003444	99
Es	-2.137647	-1.263197	0.003235	99
Es	1.684950	-0.044237	0.585951	99
Es	-2.410994	-0.914339	0.590772	99
Es	2.376685	3.114761	-0.002799	99
Es	-0.364021	0.588060	0.575624	99
Es	-0.353779	-1.575254	-0.584860	99
Es	2.157691	2.522583	-0.003537	99
Es	-0.361993	0.575402	-0.596342	99
Es	1.686740	1.026707	-0.004475	99
Es	0.686517	0.284223	-0.005211	99
Es	1.686203	-0.045028	-0.594483	99
Es	-2.368403	-1.968423	0.013400	99
Es	-2.405281	-0.933235	-0.597759	99
Es	-1.380194	-1.227299	0.006251	99
Es	-0.365907	-0.490233	0.001227	99
Es	-0.359223	-1.559845	0.615866	99
Es	2.146289	2.237529	-0.038637	99
Es	2.147897	2.236929	0.030223	99
