40
Properties=species:S:1:pos:R:3:Z:I:1 energy=-266.26382611244725 field_type=dipole dipole="0.000000 0.000000 0.000000" charge=0
C	0.792495	1.199234	-0.317192	6
C	-0.680385	1.206534	0.148258	6
N	-1.416225	0.001684	-0.262432	7
C	-0.681075	-1.207856	0.132868	6
C	0.791115	-1.195646	-0.332412	6
N	1.526845	-0.001446	0.122938	7
H	0.839145	1.271944	-1.411152	1
H	1.300455	2.085345	0.078868	1
H	-1.183595	2.085764	-0.268082	1
H	-0.717905	1.300644	1.240758	1
H	-2.338325	-0.000066	0.169798	1
H	-0.719125	-1.315666	1.224128	1
H	-1.185315	-2.081125	-0.294572	1
H	1.298595	-2.086976	0.052688	1
H	0.838115	-1.254676	-1.427022	1
H	1.535185	-0.007696	1.142558	1
Es	1.526856	-0.001447	0.123089	99
Es	-1.416334	0.001685	-0.262542	99
Es	0.792414	1.198710	-0.316932	99
Es	0.791035	-1.195125	-0.332145	99
Es	-0.680297	1.206030	0.147940	99
Es	-0.680987	-1.207347	0.132556	99
Es	1.891076	-0.000686	-0.033252	99
Es	-1.440817	0.004208	-0.662124	99
Es	0.043384	1.189416	-0.090155	99
Es	1.127142	-1.802891	-0.058554	99
Es	1.473278	-0.005106	0.720968	99
Es	-1.023092	1.804486	-0.132084	99
Es	-1.927869	0.000213	0.043766	99
Es	-0.695903	-1.280291	0.895328	99
Es	-1.024342	-1.801883	-0.155005	99
Es	1.128913	1.802763	-0.035826	99
Es	-1.108970	0.479218	-0.040312	99
Es	0.042368	-1.188124	-0.105304	99
Es	-0.695008	1.269333	0.911536	99
Es	0.818205	-1.229859	-1.075478	99
Es	0.819411	1.242759	-1.059865	99
Es	1.178239	0.469146	-0.032729	99
Es	-1.109352	-0.478422	-0.046323	99
Es	1.177643	-0.469574	-0.038648	99
