34
Properties=species:S:1:pos:R:3:Z:I:1 energy=-263.92860406228743 field_type=dipole dipole="0.000000 0.000000 0.000000" charge=0
C	-1.883202	0.246511	0.001351	6
C	-0.403622	0.153251	0.000141	6
N	0.351897	1.258191	-0.005179	7
N	1.611038	0.792971	-0.004889	7
C	1.686237	-0.568149	0.000141	6
C	0.388638	-1.018179	0.003461	6
H	-2.222142	1.287601	0.015341	1
H	-2.295362	-0.255569	0.882311	1
H	-2.294922	-0.231989	-0.892839	1
H	2.370968	1.464471	-0.008379	1
H	2.635877	-1.083049	0.000861	1
H	0.054598	-2.046059	0.007681	1
Es	1.610830	0.793083	-0.004890	99
Es	0.352855	1.257763	-0.005178	99
Es	1.691635	-0.571164	0.000144	99
Es	-0.403517	0.153422	0.000140	99
Es	-1.882800	0.246439	0.001349	99
Es	0.388763	-1.018082	0.003461	99
Es	0.993306	0.994467	-0.004951	99
Es	0.068180	0.757620	-0.001851	99
Es	2.165618	-0.898190	0.001172	99
Es	-2.150704	-0.092633	0.586738	99
Es	-0.016854	-0.485141	0.001630	99
Es	1.652702	0.159013	-0.002353	99
Es	2.067017	1.188080	-0.006887	99
Es	1.522560	0.597067	-0.004296	99
Es	1.199137	-0.779229	0.002400	99
Es	0.138394	-1.701172	0.006134	99
Es	-2.150212	-0.076777	-0.592792	99
Es	-1.119880	0.210132	0.001097	99
Es	-2.107967	0.930397	0.010483	99
Es	0.261304	1.624139	-0.006526	99
Es	0.735600	-0.758229	0.001368	99
Es	0.179283	0.796168	-0.004113	99
