40
Properties=species:S:1:pos:R:3:Z:I:1 energy=-266.2357840345104 field_type=dipole dipole="0.000000 0.000000 0.000000" charge=0
C	-1.640401	0.008508	0.623455	6
C	-0.150431	-0.022992	0.666175	6
C	0.674979	-0.760803	-0.356835	6
N	0.044629	-1.509302	-1.443805	7
C	0.647619	0.751107	-0.347765	6
N	1.819859	1.509748	0.090905	7
H	-2.018131	0.764247	1.320245	1
H	-2.048831	-0.962302	0.924115	1
H	-2.028611	0.251018	-0.371885	1
H	0.204589	-0.063412	1.690525	1
H	1.586509	-1.229442	0.010175	1
H	-0.735181	-0.999912	-1.853815	1
H	-0.333561	-2.390832	-1.101855	1
H	0.104279	1.228997	-1.160525	1
H	2.332429	1.019637	0.822485	1
H	1.540259	2.405737	0.488405	1
Es	0.044900	-1.509392	-1.444119	99
Es	1.820109	1.509848	0.090600	99
Es	0.648013	0.750892	-0.347444	99
Es	0.674862	-0.760687	-0.357033	99
Es	-1.639730	0.008521	0.623371	99
Es	-0.150571	-0.022974	0.666311	99
Es	0.242474	-1.186639	-0.956619	99
Es	2.065795	1.575240	-0.217272	99
Es	0.794154	-0.003471	-0.525288	99
Es	-1.893557	0.167717	-0.055926	99
Es	0.280492	1.068582	-0.870639	99
Es	0.085647	-0.036033	1.299762	99
Es	1.265546	-1.077194	-0.099337	99
Es	1.622298	1.978141	0.358841	99
Es	-0.203511	-1.968114	-1.204943	99
Es	2.048224	1.228719	0.528132	99
Es	-1.913170	-0.648077	0.822933	99
Es	-1.894644	0.523098	1.091910	99
Es	1.311304	1.187806	-0.029060	99
Es	-0.843687	-0.014425	0.626733	99
Es	0.317423	-1.582911	-1.718818	99
Es	-0.413515	-1.216237	-1.617160	99
Es	0.187189	-0.590093	0.264500	99
Es	0.152433	0.554730	0.256032	99
