40
Properties=species:S:1:pos:R:3:Z:I:1 energy=-266.23499465239433 field_type=dipole dipole="0.000000 0.000000 0.000000" charge=0
C	-1.347935	0.486203	-0.845564	6
C	0.066405	0.233913	-0.390164	6
C	0.298935	0.347723	1.103306	6
N	-0.070075	-0.900557	1.760296	7
C	0.902365	-0.751857	-1.182234	6
N	1.134085	0.681413	-1.304484	7
H	-1.445945	0.430593	-1.935414	1
H	-1.678345	1.482353	-0.531764	1
H	-2.029565	-0.253617	-0.413044	1
H	-0.284775	1.177413	1.518676	1
H	1.353365	0.555783	1.321276	1
H	-1.067415	-1.064297	1.636116	1
H	0.075235	-0.802647	2.763646	1
H	0.458175	-1.239317	-2.041014	1
H	1.658075	-1.330437	-0.665454	1
H	1.977415	0.947333	-0.794184	1
Es	1.134539	0.680994	-1.304068	99
Es	-0.070067	-0.900684	1.760197	99
Es	0.066546	0.233930	-0.390855	99
Es	0.298759	0.347272	1.102997	99
Es	0.902284	-0.751294	-1.182152	99
Es	-1.347577	0.486112	-0.845493	99
Es	1.013104	0.881823	-1.616950	99
Es	0.044153	-0.367380	1.514925	99
Es	-1.793263	-0.020945	-0.536368	99
Es	1.024638	0.489990	1.250997	99
Es	1.413604	-1.138079	-0.817427	99
Es	0.386437	-0.442674	-0.715513	99
Es	-0.652663	-0.943549	1.704371	99
Es	0.597155	-1.075231	-1.769476	99
Es	-0.018499	-0.793937	2.339471	99
Es	-0.645765	0.369836	-0.624050	99
Es	-1.562279	1.161570	-0.619807	99
Es	-0.101552	0.916580	1.376704	99
Es	-1.400435	0.438166	-1.584409	99
Es	0.189220	0.302726	0.340169	99
Es	1.088183	0.042697	-1.246453	99
Es	1.597340	0.801970	-0.958319	99
Es	0.144536	-1.201772	1.612213	99
Es	0.746095	0.609548	-0.927415	99
