34
Properties=species:S:1:pos:R:3:Z:I:1 energy=-263.9009788822856 field_type=dipole dipole="0.000000 0.000000 0.000000" charge=0
C	-1.506626	-0.327971	0.398046	6
C	-0.019146	-0.307241	0.471306	6
N	0.769574	-0.999951	-0.538864	7
C	0.795804	0.472919	-0.535894	6
C	1.961824	1.180409	-0.076654	6
N	2.882994	1.780969	0.290796	7
H	-1.923676	0.455329	1.038756	1
H	-1.889696	-1.291941	0.747626	1
H	-1.875066	-0.163271	-0.620094	1
H	0.344114	-0.395591	1.489756	1
H	0.185914	-1.345591	-1.301904	1
H	0.273984	0.941929	-1.362874	1
Es	0.769242	-0.999814	-0.538965	99
Es	2.884751	1.782109	0.291535	99
Es	0.796064	0.473138	-0.535897	99
Es	-0.018627	-0.306994	0.470666	99
Es	1.960819	1.179827	-0.077125	99
Es	-1.506051	-0.327929	0.397995	99
Es	0.837553	-0.323520	-0.622751	99
Es	2.480776	1.404677	0.188479	99
Es	-0.736506	-0.307582	0.408635	99
Es	1.416339	0.849514	-0.311981	99
Es	0.404628	-1.142457	-0.966434	99
Es	0.457902	0.774958	-1.080881	99
Es	-1.744174	-0.218721	-0.290995	99
Es	-1.779257	0.196738	0.821805	99
Es	-1.758176	-0.979246	0.632892	99
Es	3.149739	1.949410	0.406569	99
Es	0.254829	-0.350172	1.148380	99
Es	0.374663	-0.807096	-0.113312	99
Es	1.081351	-1.194498	-0.431419	99
Es	2.485519	1.512960	0.112859	99
Es	2.405833	1.588377	0.083959	99
Es	0.360215	0.294013	0.027765	99
