35
Properties=species:S:1:pos:R:3:Z:I:1 energy=-247.83628899377248 field_type=dipole dipole="0.000000 0.000000 0.000000" charge=0
C	-2.803754	-0.194459	-0.528135	6
C	-1.604674	-0.130469	-0.551815	6
C	-0.165284	-0.051959	-0.586995	6
C	0.497126	0.994761	0.334405	6
C	1.495636	-0.131449	0.651965	6
N	0.434836	-1.094869	0.282345	7
H	-3.866964	-0.256159	-0.500305	1
H	0.248996	-0.052019	-1.603935	1
H	-0.102344	1.312811	1.196555	1
H	0.914516	1.876881	-0.158085	1
H	2.368576	-0.159459	-0.010765	1
H	1.830736	-0.190939	1.690624	1
H	0.752596	-1.922669	-0.215855	1
Es	0.435188	-1.094799	0.281683	99
Es	-0.166336	-0.052247	-0.586734	99
Es	1.494769	-0.131513	0.651856	99
Es	0.496875	0.993935	0.333942	99
Es	-1.602197	-0.130270	-0.552249	99
Es	-2.806300	-0.194435	-0.527660	99
Es	0.932043	-0.742009	0.405168	99
Es	-3.051657	-0.216881	-0.532422	99
Es	0.643241	-1.546188	-0.040268	99
Es	1.731966	-0.176236	1.359527	99
Es	0.103813	-0.046247	-1.268222	99
Es	-0.936663	-0.082553	-0.581771	99
Es	0.098526	1.197365	0.897816	99
Es	-2.599640	-0.201093	-0.525764	99
Es	2.086185	-0.150323	0.191104	99
Es	0.173890	-0.688559	-0.148807	99
Es	0.774270	1.591059	-0.001813	99
Es	0.073492	0.520137	-0.167327	99
Es	1.041001	0.490956	0.524715	99
Es	0.204263	-1.163649	0.591648	99
Es	-2.207384	-0.133266	-0.545801	99
Es	-2.223527	-0.160079	-0.527674	99
