35
Properties=species:S:1:pos:R:3:Z:I:1 energy=-247.83709959669974 field_type=dipole dipole="0.000000 0.000000 0.000000" charge=0
C	0.918026	-2.591733	0.253345	6
C	0.104806	-1.722743	0.254435	6
C	-0.881864	-0.668403	0.255755	6
C	-0.087734	0.597797	0.365905	6
C	0.412706	1.308357	-0.867145	6
N	-0.691924	1.856397	-0.086815	7
H	1.644586	-3.371463	0.251085	1
H	-1.557504	-0.758963	1.112525	1
H	-1.488904	-0.692403	-0.655845	1
H	0.490606	0.662117	1.281205	1
H	0.153866	0.909917	-1.841264	1
H	1.358506	1.833207	-0.814144	1
H	-0.375174	2.637917	0.490955	1
Es	-0.691325	1.856593	-0.086665	99
Es	-0.088063	0.597995	0.365471	99
Es	0.412257	1.308305	-0.866575	99
Es	-0.881497	-0.668367	0.255728	99
Es	0.104424	-1.722363	0.254419	99
Es	0.919181	-2.593031	0.253281	99
Es	-0.458315	2.271063	0.261816	99
Es	-0.361051	-1.244679	0.259552	99
Es	1.171767	-2.785703	0.247031	99
Es	0.227665	1.044928	-1.517230	99
Es	-0.495812	-0.026719	0.299350	99
Es	1.057072	1.665524	-0.823052	99
Es	0.759555	-2.373107	0.242596	99
Es	-1.312034	-0.744540	0.824879	99
Es	-0.176029	1.681253	-0.453029	99
Es	-1.264625	-0.698867	-0.348946	99
Es	0.301578	0.642706	0.988021	99
Es	-0.509972	1.387734	0.173529	99
Es	-1.057710	1.834605	-0.214261	99
Es	0.505453	-2.182559	0.230811	99
Es	0.492893	-2.198458	0.290203	99
Es	0.307445	0.785400	-0.302514	99
