41
Properties=species:S:1:pos:R:3:Z:I:1 energy=-250.26004755730781 field_type=dipole dipole="0.000000 0.000000 0.000000" charge=0
C	-1.784543	-1.888910	-1.033446	6
C	-0.803993	-1.593760	0.090514	6
C	-0.453733	-0.135200	0.142654	6
C	0.794257	0.339460	-0.003066	6
C	1.158978	1.787800	0.045314	6
N	2.116198	2.008800	1.116884	7
H	-2.029553	-2.955740	-1.050916	1
H	-1.361773	-1.622470	-2.007866	1
H	-2.717543	-1.330900	-0.902256	1
H	0.093597	-2.209470	-0.042956	1
H	-1.250383	-1.882870	1.048854	1
H	-1.275543	0.555600	0.321524	1
H	1.617127	-0.351070	-0.178266	1
H	0.278717	2.420840	0.199494	1
H	1.610037	2.075080	-0.910466	1
H	1.668488	1.782010	2.003603	1
H	2.339667	3.000800	1.160404	1
Es	2.116538	2.008477	1.116795	99
Es	1.159160	1.787124	0.045681	99
Es	-0.453748	-0.135169	0.142646	99
Es	-0.803951	-1.593297	0.090508	99
Es	0.794166	0.339472	-0.002929	99
Es	-1.784099	-1.888757	-1.032955	99
Es	2.190530	2.594713	1.142702	99
Es	-0.592648	-0.847007	0.107706	99
Es	-1.501172	-1.705606	-1.688969	99
Es	0.920928	1.042218	0.013733	99
Es	0.149169	0.130790	-0.173933	99
Es	1.338816	-0.130800	-0.115816	99
Es	1.819520	1.909809	1.612363	99
Es	-1.017022	0.339756	0.271554	99
Es	-1.099679	-1.787943	0.736302	99
Es	1.690072	1.949429	0.707366	99
Es	-2.413008	-1.506833	-0.941627	99
Es	1.453881	1.995417	-0.592087	99
Es	0.570527	2.202163	0.148306	99
Es	-1.279728	-1.724431	-0.469429	99
Es	-0.205907	-1.999411	-0.001627	99
Es	-1.952650	-2.620856	-1.043989	99
Es	2.437090	1.781676	1.050728	99
Es	0.215041	0.092111	0.309815	99
