35
Properties=species:S:1:pos:R:3:Z:I:1 energy=-247.82623106150626 field_type=dipole dipole="0.000000 0.000000 0.000000" charge=0
C	0.757612	-2.856606	-0.376904	6
C	0.200172	-1.869096	0.022116	6
C	-0.484827	-0.662396	0.510696	6
N	0.423722	0.489174	0.476066	7
C	0.372722	1.245904	-0.772194	6
C	-0.266838	1.774884	0.486546	6
H	1.260672	-3.726986	-0.728084	1
H	-0.798298	-0.824736	1.548776	1
H	-1.402457	-0.505256	-0.071834	1
H	-0.263547	0.888724	-1.572504	1
H	1.310723	1.683934	-1.091274	1
H	0.237943	2.574914	1.014546	1
H	-1.347597	1.787544	0.554046	1
Es	0.422854	0.489098	0.475642	99
Es	-0.484261	-0.662763	0.510437	99
Es	-0.266496	1.774258	0.486347	99
Es	0.372601	1.245675	-0.771477	99
Es	0.199365	-1.867842	0.022615	99
Es	0.758473	-2.857995	-0.377495	99
Es	0.058451	1.014644	0.575403	99
Es	0.672958	-2.653935	-0.330905	99
Es	0.889528	-3.064687	-0.495764	99
Es	1.010737	1.534881	-0.987876	99
Es	0.074741	2.309563	0.848033	99
Es	-0.121957	-1.316264	0.256108	99
Es	-0.061757	0.987095	-1.300540	99
Es	-0.004354	0.015711	0.441009	99
Es	-0.684815	-0.777307	1.192866	99
Es	-1.089396	-0.554643	0.104191	99
Es	-1.001851	1.766423	0.538946	99
Es	-0.004744	1.667883	-0.236286	99
Es	0.423349	0.727109	-0.132590	99
Es	0.453770	-2.399024	-0.142000	99
Es	0.488886	-2.376522	-0.178330	99
Es	0.754143	0.455565	0.666160	99
