38
Properties=species:S:1:pos:R:3:Z:I:1 energy=-249.04661225586733 field_type=dipole dipole="0.000000 0.000000 0.000000" charge=0
C	-1.723009	-0.931795	-0.268191	6
C	-0.209198	-0.834085	-0.134841	6
C	0.328182	0.606225	-0.230861	6
N	-0.140229	1.439305	0.873599	7
C	1.772181	0.606225	-0.230861	6
C	2.962342	0.606225	-0.230861	6
H	-2.029228	-1.982535	-0.290911	1
H	-2.067599	-0.459545	-1.193961	1
H	-2.234689	-0.457785	0.574939	1
H	0.242722	-1.440325	-0.930431	1
H	0.097862	-1.295725	0.812379	1
H	-0.028789	1.053885	-1.165921	1
H	0.158231	1.021845	1.753439	1
H	-1.156389	1.452395	0.890429	1
H	4.027612	0.615685	-0.227941	1
Es	-0.140235	1.438825	0.873422	99
Es	0.328761	0.606356	-0.230600	99
Es	-0.209258	-0.833578	-0.134871	99
Es	1.769840	0.606101	-0.231036	99
Es	-1.722453	-0.931740	-0.268158	99
Es	2.963145	0.606268	-0.230830	99
Es	0.001530	1.156982	1.348856	99
Es	-2.064857	-0.602357	0.302964	99
Es	3.220453	0.557330	-0.213747	99
Es	0.103769	0.899686	-0.851963	99
Es	0.098503	-1.238136	-0.672821	99
Es	1.098967	0.612096	-0.240003	99
Es	2.765670	0.573105	-0.198217	99
Es	0.032289	1.046399	0.448535	99
Es	0.081920	-0.098908	-0.180632	99
Es	0.004108	-1.133286	0.506580	99
Es	-0.722437	1.389086	0.880713	99
Es	-1.929455	-1.649304	-0.282605	99
Es	-0.977633	-0.867702	-0.195331	99
Es	-1.952697	-0.602999	-0.894005	99
Es	0.015403	1.797290	0.832021	99
Es	2.370588	0.600360	-0.270257	99
Es	2.387060	0.670737	-0.229724	99
