34
Properties=species:S:1:pos:R:3:Z:I:1 energy=-263.8693621586424 field_type=dipole dipole="0.000000 0.000000 0.000000" charge=0
C	-2.313547	-1.452732	-0.024046	6
C	-0.984647	-1.311482	0.019324	6
C	-0.377697	0.033768	-0.016486	6
N	0.904883	0.197848	0.024824	7
N	1.231273	1.550158	-0.021786	7
C	2.511053	1.707948	0.021224	6
H	-2.760547	-2.441652	0.002334	1
H	-2.986417	-0.603142	-0.085896	1
H	-0.310197	-2.157182	0.081144	1
H	-1.074037	0.889608	-0.080026	1
H	2.939273	2.721428	-0.006556	1
H	3.220603	0.865428	0.085944	1
Es	1.231489	1.549463	-0.021747	99
Es	0.905311	0.197985	0.024834	99
Es	-0.377892	0.034028	-0.016505	99
Es	2.511571	1.707742	0.021253	99
Es	-0.984412	-1.311332	0.019326	99
Es	-2.313376	-1.452908	-0.024033	99
Es	1.862885	1.583410	0.001278	99
Es	0.311779	0.139797	0.004734	99
Es	-1.688280	-1.367220	-0.004779	99
Es	2.773560	2.387669	0.001612	99
Es	-2.748194	-0.870295	-0.065501	99
Es	-0.842809	0.601546	-0.058740	99
Es	2.969212	1.139269	0.064082	99
Es	0.933127	1.813011	-0.044911	99
Es	-2.595264	-2.116727	-0.005687	99
Es	-0.521322	-1.871550	0.060935	99
Es	1.740385	1.579485	-0.003072	99
Es	1.191696	-0.073892	0.047493	99
Es	-0.678700	-0.642202	0.001666	99
Es	-1.598565	-1.332987	-0.002300	99
Es	1.063649	0.888492	0.000790	99
Es	0.405447	0.156931	0.007920	99
