37
Properties=species:S:1:pos:R:3:Z:I:1 energy=-265.0437201188468 field_type=dipole dipole="0.000000 0.000000 0.000000" charge=0
C	-2.459729	-1.377051	-0.168238	6
N	-1.013119	-1.196321	-0.138168	7
N	-0.591679	0.086789	-0.019698	7
C	0.695491	0.213669	-0.043768	6
C	1.334902	1.539589	0.082962	6
C	2.666541	1.652009	0.070862	6
H	-2.698009	-2.436011	-0.305038	1
H	-2.903239	-0.821701	-1.000598	1
H	-2.916229	-1.038371	0.767252	1
H	-0.624529	-1.788161	0.599992	1
H	1.375992	-0.650221	-0.160828	1
H	0.677151	2.395159	0.183182	1
H	3.322622	0.793019	-0.031208	1
H	3.133832	2.627599	0.163292	1
Es	-0.592256	0.086560	-0.019797	99
Es	-1.012413	-1.196194	-0.138305	99
Es	0.695590	0.213589	-0.043764	99
Es	-2.459257	-1.376981	-0.168229	99
Es	1.334723	1.539456	0.082947	99
Es	2.666191	1.652116	0.070842	99
Es	-0.825085	-1.302103	-0.465069	99
Es	1.011434	0.877415	0.023103	99
Es	2.046719	1.581903	0.052463	99
Es	-2.757351	-0.994771	-0.731989	99
Es	-0.775981	-0.574625	-0.030307	99
Es	0.885606	2.111978	0.151547	99
Es	1.148300	-0.375351	-0.116510	99
Es	-1.631532	-1.234381	-0.099819	99
Es	-2.771453	-1.148599	0.475950	99
Es	2.960476	2.310062	0.131465	99
Es	3.084925	1.059604	0.002122	99
Es	-2.610355	-2.101108	-0.257164	99
Es	-0.006078	0.161189	0.012160	99
Es	-0.007041	0.120347	-0.062183	99
Es	-0.865603	0.364062	0.001645	99
Es	1.979256	1.559556	0.099264	99
Es	-0.805557	-1.485184	0.321977	99
