39
Properties=species:S:1:pos:R:3:Z:I:1 energy=-233.09144520034334 field_type=dipole dipole="0.000000 0.000000 0.000000" charge=0
C	-1.559233	0.002685	0.837600	6
C	-0.028243	-0.005215	0.795310	6
C	0.503267	-1.224155	0.023080	6
C	0.799097	-0.663805	-1.329810	6
C	0.806127	0.672585	-1.322650	6
C	0.515547	1.218255	0.039310	6
H	-1.924393	0.883405	1.376250	1
H	-1.934333	-0.886045	1.355920	1
H	-1.994243	0.016775	-0.167340	1
H	0.338027	-0.013735	1.828920	1
H	-0.226003	-2.038365	-0.026970	1
H	1.425797	-1.606895	0.472950	1
H	1.014007	-1.275465	-2.195670	1
H	1.027717	1.293395	-2.179510	1
H	1.442267	1.586015	0.493520	1
H	-0.205403	2.040565	-0.000910	1
Es	-0.028168	-0.005213	0.794962	99
Es	0.806226	0.673056	-1.323069	99
Es	0.515467	1.217457	0.038984	99
Es	0.503195	-1.223350	0.022763	99
Es	0.799188	-0.664248	-1.330223	99
Es	-1.558524	0.002681	0.837558	99
Es	0.246652	0.654095	0.421299	99
Es	0.564475	0.005721	-1.384758	99
Es	0.683062	0.926848	-0.757169	99
Es	-1.806158	0.608476	1.203307	99
Es	1.129679	1.459215	0.344472	99
Es	0.017088	-1.767426	-0.004035	99
Es	0.927939	1.105087	-1.820423	99
Es	0.034786	1.766931	0.018981	99
Es	-1.813124	-0.608507	1.189371	99
Es	-1.846000	0.012182	0.156264	99
Es	1.114652	-1.474978	0.325290	99
Es	0.673743	-0.923821	-0.769318	99
Es	0.915990	-1.090882	-1.832716	99
Es	-0.792661	-0.001363	0.806230	99
Es	0.219846	-0.011075	1.501211	99
Es	0.240139	-0.662547	0.412238	99
Es	1.034946	0.002794	-1.269834	99
