37
Properties=species:S:1:pos:R:3:Z:I:1 energy=-265.0263462242818 field_type=dipole dipole="0.000000 0.000000 0.000000" charge=0
N	-2.793689	-0.376509	-0.223938	7
N	-1.493409	-0.726099	-0.357828	7
C	-0.717889	-0.116119	0.476612	6
C	0.726041	-0.422339	0.419602	6
C	1.550171	0.045381	-0.755138	6
C	1.736521	0.686131	0.588412	6
H	-3.368059	-1.015339	-0.780448	1
H	-2.962049	0.544801	-0.636238	1
H	-1.068999	0.608271	1.233202	1
H	0.984321	-1.389699	0.839042	1
H	1.054391	0.614791	-1.533548	1
H	2.325221	-0.618719	-1.120238	1
H	2.645631	0.462791	1.135332	1
H	1.381801	1.702661	0.715172	1
Es	-1.493840	-0.726181	-0.357977	99
Es	-2.793387	-0.376490	-0.224191	99
Es	-0.717739	-0.116086	0.476573	99
Es	0.726084	-0.421894	0.419272	99
Es	1.736235	0.685598	0.588042	99
Es	1.549944	0.045365	-0.754236	99
Es	-2.886120	-0.373483	0.160990	99
Es	1.770817	0.482989	-0.150310	99
Es	-1.158783	-0.418800	0.023445	99
Es	0.891064	-1.063850	0.697771	99
Es	1.488699	1.358147	0.674194	99
Es	-0.939358	0.368693	0.970247	99
Es	-2.841940	0.119081	-0.491859	99
Es	-2.170471	-0.497686	-0.293304	99
Es	2.067738	-0.400813	-1.003277	99
Es	1.217482	0.424211	-1.259658	99
Es	-1.163659	-0.461761	0.003460	99
Es	2.345646	0.537209	0.961684	99
Es	-0.013147	-0.254412	0.448239	99
Es	-1.391152	-1.002227	-0.618054	99
Es	1.178879	0.170777	0.709182	99
Es	1.029390	-0.317582	-0.297117	99
Es	-3.083680	-0.722866	-0.588715	99
