37
Properties=species:S:1:pos:R:3:Z:I:1 energy=-268.91188652425717 field_type=dipole dipole="0.000000 0.000000 0.000000" charge=0
C	-1.769588	-0.324592	0.479869	6
C	-0.278958	-0.324072	0.502169	6
C	0.494422	-0.954132	-0.624701	6
C	0.494132	0.547978	-0.460691	6
C	1.730462	1.235008	-0.023611	6
O	2.558732	1.614978	-0.840561	8
H	-2.154688	0.491888	1.098609	1
H	-2.151608	-1.267642	0.883019	1
H	-2.167188	-0.201202	-0.532901	1
H	0.104502	-0.459272	1.507619	1
H	-0.048058	-1.366262	-1.468521	1
H	1.401172	-1.498102	-0.382411	1
H	-0.071458	1.110568	-1.197361	1
H	1.858122	1.394858	1.059469	1
Es	2.558266	1.614706	-0.840570	99
Es	1.730103	1.234744	-0.023439	99
Es	-0.278748	-0.324086	0.501877	99
Es	0.494362	0.547672	-0.460374	99
Es	0.494192	-0.953342	-0.624279	99
Es	-1.768890	-0.324467	0.479765	99
Es	2.775969	1.737199	-0.961679	99
Es	0.043982	0.314248	0.137219	99
Es	-2.028816	-0.238973	-0.206068	99
Es	1.116961	0.896919	-0.222501	99
Es	0.140220	-1.218043	-1.178164	99
Es	1.792905	1.317805	0.707887	99
Es	0.128015	0.913658	-0.934301	99
Es	-0.990963	-0.316790	0.478011	99
Es	2.221025	1.449905	-0.511033	99
Es	-2.025250	0.229209	0.895204	99
Es	-2.021918	-0.962551	0.752245	99
Es	1.086066	-1.307939	-0.456155	99
Es	2.300805	1.498756	-0.586478	99
Es	-0.013260	-0.400686	1.156308	99
Es	2.473819	1.567797	-0.855667	99
Es	0.632058	-0.175667	-0.677282	99
Es	0.052329	-0.838027	-0.022289	99
