35
Properties=species:S:1:pos:R:3:Z:I:1 energy=-304.7519356424962 field_type=dipole dipole="0.000000 0.000000 0.000000" charge=0
C	-1.373682	-0.000998	0.966272	6
C	0.117058	-0.007938	0.668172	6
O	0.449808	-1.203828	-0.079618	8
C	1.039528	-0.652618	-1.190789	6
C	1.048218	0.663822	-1.176978	6
O	0.465888	1.198932	-0.054228	8
H	-1.652572	0.887362	1.541192	1
H	-1.665662	-0.899358	1.518692	1
H	-1.953142	0.014932	0.036412	1
H	0.689648	-0.021588	1.604012	1
H	1.408398	-1.339438	-1.930658	1
H	1.426508	1.360722	-1.902478	1
Es	0.449877	-1.203238	-0.079808	99
Es	0.465949	1.198345	-0.054431	99
Es	0.117347	-0.007938	0.668028	99
Es	1.048074	0.663977	-1.176686	99
Es	1.039382	-0.652777	-1.190500	99
Es	-1.372934	-0.001002	0.966151	99
Es	0.455002	1.141975	-0.102752	99
Es	0.439376	-1.145709	-0.127059	99
Es	0.518661	-0.017332	1.306285	99
Es	-1.549945	0.598661	1.359754	99
Es	1.252215	0.003205	-1.089801	99
Es	0.356893	0.744259	0.167883	99
Es	1.284255	-1.096051	-1.681963	99
Es	0.675061	-0.973355	-0.503571	99
Es	1.298912	1.114016	-1.658828	99
Es	0.415850	-1.493089	0.035718	99
Es	0.346855	-0.752560	0.152105	99
Es	0.435510	1.486143	0.067103	99
Es	0.688033	0.974602	-0.483056	99
Es	-1.558756	-0.607658	1.344558	99
Es	-1.756267	0.009633	0.341409	99
Es	-0.632541	-0.004319	0.802366	99
Es	0.866199	0.008374	-1.333082	99
