31
Properties=species:S:1:pos:R:3:Z:I:1 energy=-266.5282102605148 field_type=dipole dipole="0.000000 0.000000 0.000000" charge=0
C	-0.987833	-1.326803	-0.118433	6
C	0.336597	-1.173323	-0.241673	6
C	1.053127	0.122127	-0.097983	6
O	2.272487	0.151077	-0.230953	8
C	0.356717	1.358717	0.195387	6
C	-0.211183	2.389467	0.438507	6
H	-1.436973	-2.308463	-0.237943	1
H	-1.658273	-0.501953	0.100547	1
H	0.978637	-2.020253	-0.461273	1
H	-0.703303	3.309407	0.653817	1
Es	2.272011	0.151082	-0.230898	99
Es	1.052995	0.122318	-0.097935	99
Es	-0.987496	-1.326224	-0.118371	99
Es	-0.212616	2.392430	0.439183	99
Es	0.336796	-1.173290	-0.241690	99
Es	0.356762	1.358449	0.195335	99
Es	2.494116	0.313892	-0.227784	99
Es	0.772613	-1.733436	-0.388197	99
Es	-0.029929	2.094116	0.366750	99
Es	0.634592	-0.495849	-0.157845	99
Es	-1.405918	-0.750092	0.028938	99
Es	-0.408832	2.696883	0.514214	99
Es	0.681237	0.739388	0.051202	99
Es	1.800256	0.178114	-0.172817	99
Es	-0.354094	-1.224459	-0.172384	99
Es	1.873977	0.145471	-0.186829	99
Es	-1.272088	-1.974461	-0.198644	99
Es	2.214571	-0.019404	-0.253979	99
Es	0.040096	1.878892	0.321477	99
Es	0.109900	1.794464	0.298924	99
Es	-0.235820	-1.189968	-0.179789	99
