36
Properties=species:S:1:pos:R:3:Z:I:1 energy=-231.86440576467606 field_type=dipole dipole="0.000000 0.000000 0.000000" charge=0
C	-1.700639	-1.184447	-0.001104	6
C	-0.217019	-1.001627	-0.001824	6
C	0.429411	0.179623	-0.000824	6
C	-0.265399	1.515473	0.002146	6
C	1.835411	0.179623	-0.000824	6
C	3.025571	0.179623	-0.000824	6
H	-1.943189	-2.251137	-0.012414	1
H	-2.153399	-0.733317	-0.889924	1
H	-2.149079	-0.752847	0.900076	1
H	0.363241	-1.922787	-0.002854	1
H	-1.355509	1.432843	-0.000744	1
H	0.022171	2.093613	-0.882734	1
H	0.017931	2.087143	0.892686	1
H	4.090501	0.178223	-0.000834	1
Es	0.431008	0.179550	-0.000824	99
Es	-0.217706	-1.008769	-0.001834	99
Es	-0.264992	1.515067	0.002145	99
Es	-1.700275	-1.184060	-0.001097	99
Es	1.835794	0.179589	-0.000824	99
Es	3.027812	0.179533	-0.000824	99
Es	0.145967	-1.178752	-0.002168	99
Es	-0.622171	-1.126201	-0.001625	99
Es	0.026456	-0.673197	-0.001657	99
Es	-0.064628	1.886324	-0.592252	99
Es	1.115285	0.186484	-0.000722	99
Es	3.444724	0.158164	-0.000867	99
Es	2.453945	0.106457	-0.000833	99
Es	0.117487	0.821220	0.000412	99
Es	-1.983732	-0.893479	0.579078	99
Es	-0.067705	1.881745	0.600243	99
Es	-1.867788	-1.903915	-0.008525	99
Es	-0.988378	1.451175	0.000184	99
Es	-1.986780	-0.880834	-0.573258	99
Es	2.422341	0.178421	-0.000956	99
Es	2.438549	0.193564	-0.000819	99
Es	0.183669	-0.382200	-0.001351	99
