37
Properties=species:S:1:pos:R:3:Z:I:1 energy=-268.95690629758104 field_type=dipole dipole="0.000000 0.000000 0.000000" charge=0
O	-2.300087	-0.073456	1.052761	8
C	-1.187047	-0.038056	0.545061	6
C	-0.391388	1.226724	0.351811	6
C	0.719073	0.755124	-0.578329	6
C	0.945603	-0.700246	-0.192179	6
C	-0.453867	-1.254656	0.041961	6
H	0.006073	1.548204	1.318741	1
H	-0.996877	2.013464	-0.102749	1
H	0.386762	0.816684	-1.621959	1
H	1.625583	1.358854	-0.476529	1
H	1.484823	-1.256636	-0.964439	1
H	1.530972	-0.753506	0.734051	1
H	-0.914377	-1.586916	-0.892659	1
H	-0.455238	-2.055586	0.784461	1
Es	-2.299701	-0.073446	1.052584	99
Es	-1.187113	-0.038058	0.545091	99
Es	-0.453687	-1.254122	0.042181	99
Es	-0.391410	1.226202	0.351518	99
Es	0.718849	0.754893	-0.577680	99
Es	0.944952	-0.700041	-0.192427	99
Es	-2.537386	-0.081190	1.161215	99
Es	-0.457198	-1.784586	0.529007	99
Es	1.335125	1.161896	-0.513664	99
Es	-0.833764	-0.653706	0.299413	99
Es	0.858180	0.028382	-0.397304	99
Es	-0.790365	1.747555	0.055630	99
Es	-0.127812	1.425354	0.985537	99
Es	-1.858570	-0.059343	0.850910	99
Es	-0.754428	-1.460474	-0.572706	99
Es	-0.802496	0.600805	0.454682	99
Es	1.337184	-0.730891	0.440069	99
Es	1.315243	-1.074792	-0.713970	99
Es	0.158945	1.020988	-0.102185	99
Es	0.236078	-1.007784	-0.079200	99
Es	0.487428	0.790988	-1.284686	99
Es	-1.976055	-0.063131	0.905146	99
Es	-2.244056	-0.071584	1.027220	99
