39
Properties=species:S:1:pos:R:3:Z:I:1 energy=-286.07605335829555 field_type=dipole dipole="0.000000 0.000000 0.000000" charge=0
C	-1.666705	0.041625	-0.024597	6
C	-0.175184	-0.053385	0.162073	6
N	0.291036	-0.058855	1.570223	7
C	0.625096	-0.836235	-0.850097	6
C	0.701005	0.661115	-0.851787	6
O	1.907776	1.229195	-0.312427	8
H	-1.947064	0.066575	-1.083037	1
H	-2.052875	0.951175	0.446893	1
H	-2.162575	-0.821165	0.432343	1
H	1.216176	-0.485135	1.629153	1
H	-0.310674	-0.660845	2.133873	1
H	0.102206	-1.310225	-1.672727	1
H	1.504845	-1.381975	-0.530917	1
H	0.222235	1.189395	-1.669347	1
H	1.744705	1.468745	0.620383	1
Es	1.907430	1.229169	-0.311944	99
Es	0.291043	-0.058925	1.570365	99
Es	0.701203	0.660744	-0.851426	99
Es	-0.175223	-0.053299	0.161956	99
Es	-1.666030	0.041605	-0.024592	99
Es	0.624890	-0.835374	-0.850266	99
Es	2.177597	1.276590	-0.473714	99
Es	0.294087	0.321737	1.708293	99
Es	0.767746	-0.100400	-0.960108	99
Es	-1.832506	0.054880	-0.746329	99
Es	1.188188	-1.190468	-0.622052	99
Es	0.109991	-0.104593	0.991395	99
Es	1.782912	1.333890	0.149199	99
Es	-1.914191	0.655340	0.295121	99
Es	0.379259	1.021541	-1.394284	99
Es	-0.039725	-0.446590	1.835144	99
Es	-1.986255	-0.547164	0.288966	99
Es	1.438593	1.035304	-0.485769	99
Es	0.276296	-1.150847	-1.393413	99
Es	-0.900017	-0.010970	0.076459	99
Es	1.879242	1.191184	-0.285083	99
Es	0.151040	-0.659632	-0.304880	99
Es	0.200033	0.509605	-0.292278	99
Es	0.791397	-0.336135	1.565692	99
