36
Properties=species:S:1:pos:R:3:Z:I:1 energy=-284.9531711994465 field_type=dipole dipole="0.000000 0.000000 0.000000" charge=0
C	-1.488567	0.028096	0.525697	6
C	0.037302	0.044816	0.469077	6
C	0.533692	-0.689164	-0.780623	6
O	1.930912	-0.963824	-0.697763	8
C	0.519322	1.405986	0.469077	6
N	0.903533	2.490976	0.469077	7
H	-1.855098	0.547576	1.419107	1
H	-1.866657	-0.999784	0.559117	1
H	-1.929898	0.522386	-0.348363	1
H	0.427102	-0.467754	1.357257	1
H	0.342112	-0.126304	-1.702223	1
H	0.031603	-1.658554	-0.873823	1
H	2.414642	-0.134454	-0.865613	1
Es	1.931013	-0.963441	-0.697982	99
Es	0.904293	2.493389	0.468987	99
Es	0.533854	-0.688718	-0.780167	99
Es	0.037520	0.045235	0.469119	99
Es	0.519283	1.405800	0.469098	99
Es	-1.487780	0.028164	0.525583	99
Es	2.045879	-1.254766	-0.683567	99
Es	0.837077	1.958450	0.653483	99
Es	0.304684	0.775233	0.478167	99
Es	-1.733007	-0.669997	0.545930	99
Es	0.396192	-0.291149	-1.393451	99
Es	0.298289	-0.282686	1.044380	99
Es	2.141061	-0.518970	-0.783169	99
Es	1.438643	-0.821212	-0.722783	99
Es	0.267072	-0.278041	-0.122576	99
Es	-0.684915	0.052445	0.484090	99
Es	-1.726823	0.381563	1.124312	99
Es	0.998401	2.811145	0.445246	99
Es	-1.772260	0.356601	-0.062707	99
Es	0.187472	-1.340127	-0.836974	99
Es	1.911987	-0.926154	-0.665327	99
Es	0.624696	2.048875	0.290817	99
Es	0.744449	2.003795	0.460426	99
