42
Properties=species:S:1:pos:R:3:Z:I:1 energy=-287.2775227340165 field_type=dipole dipole="0.000000 0.000000 0.000000" charge=0
C	-2.280843	-0.670896	0.442111	6
C	-0.759444	-0.690006	0.417131	6
N	-0.250423	0.674263	0.259031	7
C	1.219126	0.736214	0.368141	6
C	1.923557	0.142684	-0.859339	6
O	1.362087	0.697464	-2.047239	8
H	-2.668933	-1.690386	0.536751	1
H	-2.687583	-0.239486	-0.479029	1
H	-2.656843	-0.087956	1.289941	1
H	-0.433113	-1.322096	-0.414979	1
H	-0.394233	-1.133776	1.350281	1
H	-0.649624	1.260224	0.994591	1
H	1.575186	0.264744	1.291351	1
H	1.483696	1.798814	0.424711	1
H	1.810457	-0.944876	-0.900919	1
H	2.991357	0.375394	-0.840279	1
H	0.415576	0.829683	-1.832259	1
Es	1.361657	0.697387	-2.046890	99
Es	-0.250552	0.674204	0.259263	99
Es	1.923104	0.142895	-0.859312	99
Es	-0.759838	-0.689624	0.417060	99
Es	1.218826	0.735922	0.367816	99
Es	-2.280308	-0.670884	0.442077	99
Es	1.521483	0.784540	-2.300873	99
Es	-0.442562	0.971032	0.709220	99
Es	-2.532274	-0.270270	1.020015	99
Es	1.555023	0.422025	-0.235654	99
Es	-0.499681	-0.995432	1.055336	99
Es	1.461720	0.408266	1.006490	99
Es	0.367732	0.663625	0.343508	99
Es	1.837430	-0.600834	-0.874057	99
Es	0.900166	0.746438	-1.914331	99
Es	-0.435811	0.112031	0.376718	99
Es	-1.522531	-0.671524	0.430708	99
Es	2.658073	0.298928	-0.835636	99
Es	-2.554892	-0.382562	-0.177929	99
Es	-2.535756	-1.366820	0.509184	99
Es	-0.527313	-1.111166	-0.149169	99
Es	1.397443	1.456170	0.403524	99
Es	1.534186	0.501581	-1.598304	99
Es	1.339181	0.664980	-2.023524	99
Es	-0.375142	0.815238	-0.102905	99
