42
Properties=species:S:1:pos:R:3:Z:I:1 energy=-287.27376147143144 field_type=dipole dipole="0.000000 0.000000 0.000000" charge=0
C	0.031679	-0.882899	1.583466	6
N	-0.314371	-1.158949	0.194166	7
C	-0.259201	0.017131	-0.703624	6
C	-1.231141	1.131611	-0.321054	6
C	1.178039	0.551001	-0.872374	6
O	2.054878	-0.528729	-1.188204	8
H	-0.035381	-1.813479	2.157446	1
H	-0.653091	-0.166059	2.046616	1
H	1.059028	-0.521129	1.685846	1
H	-1.261301	-1.540959	0.167426	1
H	-0.567611	-0.366139	-1.685624	1
H	-0.942141	1.625841	0.611546	1
H	-2.247711	0.741841	-0.203694	1
H	-1.259351	1.896441	-1.104594	1
H	1.543369	1.035171	0.038566	1
H	1.228549	1.279521	-1.687594	1
H	1.675759	-1.300209	-0.718314	1
Es	2.054527	-0.528913	-1.187820	99
Es	-0.314536	-1.158925	0.194085	99
Es	1.177787	0.550381	-0.872257	99
Es	-0.259230	0.016976	-0.703315	99
Es	0.031605	-0.882961	1.583009	99
Es	-1.230714	1.131163	-0.321186	99
Es	2.295959	-0.516437	-1.388369	99
Es	-0.873960	-1.325003	0.199708	99
Es	1.410774	0.880565	-0.237954	99
Es	-1.918585	0.853515	-0.234545	99
Es	-0.435273	-0.388914	1.893896	99
Es	-0.468682	-0.243363	-1.360922	99
Es	1.712349	-0.162566	-1.058199	99
Es	-0.321358	-0.631020	-0.113433	99
Es	-0.202469	-1.006482	0.771189	99
Es	-0.749970	0.587249	-0.500624	99
Es	0.457275	0.285498	-0.771339	99
Es	1.200124	1.053246	-1.427474	99
Es	-1.028769	1.460016	0.311652	99
Es	-1.247777	1.650393	-0.856546	99
Es	0.722635	-0.621941	1.638419	99
Es	-0.014166	-1.519432	1.978031	99
Es	1.846729	-0.888764	-0.939295	99
Es	2.037331	-0.523370	-1.146284	99
Es	-0.051929	-1.427927	0.032272	99
