39
Properties=species:S:1:pos:R:3:Z:I:1 energy=-286.0629367450184 field_type=dipole dipole="0.000000 0.000000 0.000000" charge=0
C	-0.616235	-2.274364	-0.579593	6
O	-1.007205	-1.027314	-0.021803	8
C	0.109395	-0.143764	0.203117	6
C	0.408025	0.837196	-0.895093	6
C	-0.250645	1.312646	0.365217	6
N	0.497015	2.170536	1.286977	7
H	-1.512525	-2.880604	-0.735483	1
H	0.051975	-2.803124	0.106807	1
H	-0.121455	-2.122334	-1.543623	1
H	0.941755	-0.518094	0.790617	1
H	-0.198675	0.801406	-1.792363	1
H	1.442575	1.102536	-1.073153	1
H	-1.307215	1.562576	0.287717	1
H	1.466625	1.871716	1.377277	1
H	0.096585	2.110986	2.223387	1
Es	-1.006704	-1.027400	-0.021877	99
Es	0.497023	2.170723	1.286950	99
Es	0.108983	-0.143338	0.202768	99
Es	-0.616341	-2.274016	-0.579426	99
Es	-0.250153	1.312615	0.365262	99
Es	0.407706	0.837122	-0.894344	99
Es	-1.291639	-0.951201	0.112687	99
Es	0.484743	2.545905	1.161618	99
Es	0.089293	1.247633	-0.338913	99
Es	-0.267478	-2.168756	-1.231317	99
Es	0.012590	0.804920	-1.489583	99
Es	-0.955343	1.472068	0.330739	99
Es	-0.564060	-0.748452	0.047513	99
Es	0.673129	-0.408382	0.596760	99
Es	0.283092	2.070881	1.808119	99
Es	-0.149951	-2.632305	-0.109871	99
Es	-0.818594	-1.474932	-0.233608	99
Es	1.018007	1.945110	1.345421	99
Es	1.093189	1.007105	-1.000581	99
Es	-0.145375	0.542622	0.472517	99
Es	-1.228812	-2.687868	-0.692182	99
Es	-0.984561	-1.001426	-0.091967	99
Es	0.350506	0.206195	-0.481222	99
Es	0.210139	1.754844	0.934904	99
