39
Properties=species:S:1:pos:R:3:Z:I:1 energy=-286.0578555592229 field_type=dipole dipole="0.000000 0.000000 0.000000" charge=0
C	-0.640772	-1.865687	-1.158042	6
O	-0.411952	-1.321837	0.133218	8
C	0.373028	-0.108257	0.169728	6
C	-0.317392	1.205373	-0.259932	6
N	0.353438	1.900723	0.863548	7
C	0.492628	0.589453	1.542628	6
H	-1.226682	-2.782247	-1.051332	1
H	0.311448	-2.107327	-1.639032	1
H	-1.201482	-1.156417	-1.773422	1
H	1.352738	-0.256957	-0.305142	1
H	-1.410602	1.195303	-0.177562	1
H	-0.044592	1.577533	-1.251792	1
H	1.249728	2.314503	0.605098	1
H	1.444618	0.446663	2.062198	1
H	-0.324152	0.369183	2.239838	1
Es	-0.411688	-1.321613	0.132834	99
Es	0.353578	1.900792	0.863487	99
Es	0.372633	-0.108168	0.170129	99
Es	-0.640731	-1.865592	-1.157743	99
Es	0.492669	0.589711	1.542073	99
Es	-0.316888	1.205317	-0.259486	99
Es	-0.513701	-1.439967	0.418871	99
Es	0.885607	2.075311	0.684501	99
Es	-0.064437	0.448496	1.998494	99
Es	-1.054926	1.191479	-0.191608	99
Es	-1.014361	-1.374590	-1.581402	99
Es	1.036534	-0.206739	-0.163320	99
Es	-0.130102	1.464066	-0.942143	99
Es	-0.121916	-0.900698	0.085491	99
Es	0.015867	-2.022428	-1.493401	99
Es	-0.474173	-1.486422	-0.374318	99
Es	0.110507	1.642841	0.371432	99
Es	1.146868	0.494611	1.899713	99
Es	-0.005988	0.505869	-0.137453	99
Es	0.460552	1.365924	1.148322	99
Es	-1.044651	-2.489780	-1.086217	99
Es	0.453751	0.147037	0.896896	99
Es	-0.404482	-1.302641	0.107528	99
Es	0.122916	2.155720	1.051421	99
