42
Properties=species:S:1:pos:R:3:Z:I:1 energy=-287.27403569018236 field_type=dipole dipole="0.000000 0.000000 0.000000" charge=0
C	-1.417965	-1.631941	0.435699	6
O	-0.153695	-0.982511	0.482849	8
C	-0.132905	0.278579	-0.210881	6
C	-0.872625	1.347019	0.589709	6
C	1.344555	0.685279	-0.389091	6
N	2.067415	-0.291191	-1.214461	7
H	-1.295795	-2.640951	0.837049	1
H	-1.781535	-1.709351	-0.592311	1
H	-2.145195	-1.105271	1.057989	1
H	-0.595505	0.163759	-1.199741	1
H	-0.498635	1.394969	1.617929	1
H	-1.942655	1.122969	0.650839	1
H	-0.765105	2.333359	0.127759	1
H	1.834665	0.731489	0.590349	1
H	1.420605	1.670669	-0.859271	1
H	1.864795	-1.217521	-0.827821	1
H	3.069585	-0.149361	-1.096591	1
Es	-0.154079	-0.982246	0.482579	99
Es	2.067318	-0.291169	-1.214289	99
Es	-0.132800	0.278585	-0.210844	99
Es	-1.417660	-1.631766	0.435682	99
Es	1.344271	0.684551	-0.389473	99
Es	-0.872273	1.346481	0.589315	99
Es	0.124906	-1.119027	0.595753	99
Es	1.804131	0.078653	-0.846723	99
Es	-0.612903	1.375313	1.277920	99
Es	-1.914597	-1.266821	0.853586	99
Es	1.663437	0.723142	0.290098	99
Es	-0.453182	0.194415	-0.878681	99
Es	-0.654561	-1.189092	0.438688	99
Es	-0.188117	-0.947042	0.507276	99
Es	-1.670834	-1.665864	-0.267826	99
Es	2.638363	-0.207840	-1.088371	99
Es	1.972891	-0.794343	-0.952668	99
Es	-1.602211	1.188557	0.627802	99
Es	-0.790817	2.015778	0.270356	99
Es	1.384561	1.362950	-0.708545	99
Es	-0.513403	0.824323	0.194970	99
Es	-1.335464	-2.325923	0.707253	99
Es	0.612423	0.478878	-0.309645	99
Es	-0.185461	-0.535716	0.217712	99
Es	1.944502	-0.256758	-1.594933	99
