36
Properties=species:S:1:pos:R:3:Z:I:1 energy=-284.9494448095179 field_type=dipole dipole="0.000000 0.000000 0.000000" charge=0
N	-1.665741	-1.027855	0.446333	7
C	-0.385981	-1.207844	0.022473	6
O	-0.014321	-2.211545	-0.566607	8
C	0.550179	-0.112255	0.360503	6
C	1.266429	0.621825	-0.748867	6
C	0.222589	1.332096	0.060683	6
H	-1.958411	-0.208504	0.956273	1
H	-2.335431	-1.759274	0.252283	1
H	1.142629	-0.316035	1.247313	1
H	1.028909	0.354136	-1.773117	1
H	2.306619	0.881855	-0.590617	1
H	0.554559	2.083436	0.768033	1
H	-0.712031	1.569965	-0.434687	1
Es	-0.014104	-2.211161	-0.566492	99
Es	-1.665741	-1.027850	0.446371	99
Es	-0.386145	-1.207684	0.022549	99
Es	0.550040	-0.111901	0.360102	99
Es	0.223043	1.331522	0.060634	99
Es	1.265893	0.621772	-0.748135	99
Es	-0.172350	-1.797846	-0.312560	99
Es	-1.107289	-1.087447	0.276918	99
Es	0.768608	1.128566	-0.441353	99
Es	0.074669	-0.637513	0.191145	99
Es	1.965782	0.796734	-0.644058	99
Es	-2.062018	-1.463443	0.333414	99
Es	-1.838610	-0.539641	0.745395	99
Es	0.429099	1.834257	0.543018	99
Es	-0.400023	1.473702	-0.263810	99
Es	-0.011808	-2.470074	-0.684882	99
Es	-0.102599	-1.960869	-0.440288	99
Es	0.929026	-0.249816	0.948487	99
Es	1.101378	0.446141	-1.412441	99
Es	0.221049	0.615520	0.357646	99
Es	0.999036	0.079883	-0.237468	99
Es	0.046851	-2.120478	-0.541251	99
Es	-1.551371	-1.028949	0.400858	99
