33
Properties=species:S:1:pos:R:3:Z:I:1 energy=-283.7448625598307 field_type=dipole dipole="0.000000 0.000000 0.000000" charge=0
O	-1.939671	-0.230148	0.365575	8
C	-0.514941	-0.232358	0.544865	6
C	0.250199	-0.982358	-0.505215	6
C	0.278999	0.524762	-0.489705	6
C	1.475179	1.201072	-0.079755	6
N	2.440759	1.744982	0.261975	7
H	-2.390841	0.233102	1.093895	1
H	-0.133521	-0.287738	1.560806	1
H	-0.313361	-1.470488	-1.292305	1
H	1.132979	-1.528778	-0.192735	1
H	-0.285781	1.027952	-1.267405	1
Es	-1.939581	-0.229738	0.365958	99
Es	2.442407	1.745861	0.262575	99
Es	-0.514847	-0.232222	0.544137	99
Es	0.279351	0.524744	-0.489429	99
Es	1.474453	1.200758	-0.080071	99
Es	0.250016	-0.981485	-0.504821	99
Es	-2.077220	-0.410060	0.146295	99
Es	2.000118	1.420659	0.196948	99
Es	0.399118	-0.202119	-0.637645	99
Es	0.907764	0.889638	-0.284711	99
Es	-0.265923	-0.249359	1.227855	99
Es	-0.117535	-1.294243	-1.021510	99
Es	-2.120970	0.026269	0.742624	99
Es	-0.083470	0.857453	-0.984345	99
Es	-1.421726	-0.210915	0.473453	99
Es	0.838851	-1.325763	-0.291826	99
Es	-1.911049	-0.177184	0.363550	99
Es	2.726827	1.888137	0.372760	99
Es	-0.183236	-0.769170	0.081195	99
Es	1.973374	1.572516	0.030760	99
Es	2.033562	1.496070	0.100743	99
Es	-0.118113	0.354843	0.095061	99
