36
Properties=species:S:1:pos:R:3:Z:I:1 energy=-284.93494532898353 field_type=dipole dipole="0.000000 0.000000 0.000000" charge=0
O	-3.081275	-1.023080	-0.178578	8
C	-1.990585	-0.759630	0.308502	6
N	-1.104795	0.112750	-0.258858	7
C	0.149835	0.457040	0.315272	6
C	1.333525	-0.462300	0.198692	6
C	1.309755	0.828140	-0.567008	6
H	-1.628925	-1.204410	1.250082	1
H	-1.414075	0.552660	-1.117818	1
H	0.051135	1.018460	1.242092	1
H	1.221845	-1.384070	-0.360468	1
H	2.004456	-0.536520	1.046742	1
H	1.962225	1.628120	-0.236268	1
H	1.186875	0.772840	-1.642388	1
Es	-3.081172	-1.022977	-0.178641	99
Es	-1.104786	0.112748	-0.258852	99
Es	-1.989913	-0.759878	0.309391	99
Es	0.150101	0.456802	0.314889	99
Es	1.309522	0.827712	-0.566381	99
Es	1.333092	-0.461458	0.198602	99
Es	-2.609967	-0.901538	0.016880	99
Es	-0.548336	0.268148	-0.006323	99
Es	1.477287	0.148998	-0.251130	99
Es	-1.498328	-0.281408	0.008948	99
Es	0.650765	-0.151748	0.382219	99
Es	-1.268554	0.365431	-0.768803	99
Es	0.082721	0.822882	0.954032	99
Es	1.734600	1.362512	-0.344993	99
Es	-1.728638	-1.045459	0.935995	99
Es	-3.343081	-1.114684	-0.243253	99
Es	1.211123	0.792535	-1.285875	99
Es	-2.813928	-0.964825	-0.056228	99
Es	1.783424	-0.514504	0.771906	99
Es	1.246736	-1.064751	-0.168443	99
Es	0.648866	0.819241	-0.197482	99
Es	-3.002833	-0.972319	-0.190148	99
Es	-1.174155	0.023912	-0.212281	99
