44
Properties=species:S:1:pos:R:3:Z:I:1 energy=-304.10243814307785 field_type=dipole dipole="0.000000 0.000000 0.000000" charge=0
C	-2.530384	-0.296187	-0.193582	6
C	-1.029584	-0.430887	-0.134692	6
C	-0.541214	-1.848247	-0.252812	6
C	-0.265374	0.666403	0.010828	6
C	1.213236	0.694243	0.073768	6
N	1.851516	1.811833	0.233108	7
N	3.195066	1.657343	0.272638	7
H	-2.859214	0.745403	-0.111522	1
H	-2.993994	-0.855877	0.625598	1
H	-2.909424	-0.689677	-1.142682	1
H	-0.989394	-2.465647	0.533228	1
H	0.541296	-1.951617	-0.162742	1
H	-0.831264	-2.264707	-1.223292	1
H	-0.718204	1.652093	0.089218	1
H	1.742756	-0.267157	-0.025322	1
H	3.637986	2.579123	0.237268	1
H	3.486186	1.263563	1.170988	1
Es	1.851681	1.812193	0.233103	99
Es	3.194740	1.657478	0.272845	99
Es	1.213498	0.693564	0.073696	99
Es	-1.029616	-0.430929	-0.134693	99
Es	-0.541255	-1.847879	-0.252794	99
Es	-0.265850	0.665328	0.010729	99
Es	-2.530022	-0.296245	-0.193564	99
Es	3.302860	1.411284	-0.019808	99
Es	-0.622654	1.220155	0.057315	99
Es	1.593066	1.307039	0.125435	99
Es	-0.841635	-2.253929	0.286127	99
Es	-2.824396	-0.681294	0.365991	99
Es	1.561512	0.043509	0.013209	99
Es	0.488867	0.654916	0.043786	99
Es	3.302619	1.467221	0.792405	99
Es	-0.759283	-1.124133	-0.190806	99
Es	2.553100	1.695803	0.288705	99
Es	-0.733842	-2.115296	-0.911169	99
Es	0.175839	-1.899857	-0.193067	99
Es	-2.767939	-0.568095	-0.839576	99
Es	1.562873	1.328113	0.210803	99
Es	-0.574153	0.207284	-0.015687	99
Es	-2.744714	0.408493	-0.137329	99
Es	-1.785289	-0.345550	-0.165918	99
Es	1.681952	2.162873	0.253540	99
Es	3.412444	2.198147	0.301689	99
Es	-0.561988	0.180279	-0.087326	99
