41
Properties=species:S:1:pos:R:3:Z:I:1 energy=-302.89448984821007 field_type=dipole dipole="0.000000 0.000000 0.000000" charge=0
C	-3.313820	0.097270	-0.006686	6
C	-1.869820	0.097270	-0.006686	6
C	-0.679660	0.097270	-0.006686	6
C	0.759660	0.029620	-0.044756	6
C	1.434540	-1.305370	-0.074626	6
N	1.299650	1.209110	-0.056996	7
N	2.654760	1.232940	-0.097406	7
H	-3.707870	1.118120	0.004984	1
H	-3.707850	-0.423290	0.871564	1
H	-3.707840	-0.403060	-0.896616	1
H	0.699380	-2.115100	-0.076916	1
H	2.073210	-1.414260	0.806404	1
H	2.049440	-1.387890	-0.975286	1
H	2.965660	2.196230	-0.249186	1
H	3.050560	0.971140	0.808894	1
Es	1.298557	1.208677	-0.057072	99
Es	2.654326	1.233192	-0.096969	99
Es	0.759165	0.029673	-0.044724	99
Es	-3.313389	0.097128	-0.006694	99
Es	1.433338	-1.304401	-0.074616	99
Es	-1.874391	0.097052	-0.006754	99
Es	-0.678333	0.097431	-0.006684	99
Es	2.009733	1.189125	-0.036540	99
Es	2.813518	1.111303	0.422729	99
Es	-2.010254	0.061341	-0.015488	99
Es	0.939865	-1.839665	-0.071918	99
Es	-1.814877	0.077896	-0.006849	99
Es	0.007264	0.062789	-0.018155	99
Es	1.076500	0.663163	-0.145833	99
Es	2.794675	1.789292	-0.128814	99
Es	-3.523676	-0.240977	0.567078	99
Es	1.861489	-1.362240	0.515098	99
Es	1.072839	-0.623379	-0.059611	99
Es	-3.541322	0.761711	0.001067	99
Es	-3.520935	-0.228533	-0.587620	99
Es	1.832400	-1.344262	-0.667204	99
Es	2.765672	0.975316	-0.374739	99
Es	1.043262	0.706187	0.048441	99
Es	1.085473	1.535897	-0.061117	99
Es	-1.276053	0.143508	-0.004842	99
Es	-1.213228	0.092443	0.003579	99
