42
Properties=species:S:1:pos:R:3:Z:I:1 energy=-286.88369180740904 field_type=dipole dipole="0.000000 0.000000 0.000000" charge=0
C	-3.369610	-0.676500	-0.341437	6
C	-1.925610	-0.676500	-0.341437	6
C	-0.735450	-0.676500	-0.341437	6
C	0.708550	-0.676500	-0.341437	6
N	1.226610	0.696780	-0.385397	7
C	1.536891	1.255550	0.928013	6
C	2.631500	0.798390	-0.002557	6
H	-3.763580	0.344390	-0.329537	1
H	-3.763660	-1.197180	0.536723	1
H	-3.763690	-1.176600	-1.231467	1
H	1.070460	-1.205450	-1.231437	1
H	1.078960	-1.244400	0.522533	1
H	1.320080	0.666290	1.810093	1
H	1.369210	2.320260	1.033692	1
H	3.205570	1.555900	-0.522627	1
H	3.173770	-0.107930	0.237723	1
Es	1.226726	0.695895	-0.384681	99
Es	0.707527	-0.676371	-0.341375	99
Es	2.630734	0.798368	-0.002571	99
Es	1.536983	1.255235	0.927325	99
Es	-3.369479	-0.676457	-0.341376	99
Es	-1.929325	-0.676396	-0.341426	99
Es	-0.734716	-0.676577	-0.341426	99
Es	1.863086	0.647822	-0.296223	99
Es	-2.097082	-0.593426	-0.306495	99
Es	-3.596290	-1.004140	-0.920644	99
Es	-1.850722	-0.631532	-0.335626	99
Es	2.989165	0.172762	0.153679	99
Es	2.218958	1.077204	0.592098	99
Es	3.010853	1.306005	-0.358207	99
Es	1.019301	0.091652	-0.307187	99
Es	0.944268	-1.014694	-0.915652	99
Es	-3.591951	-1.015500	0.230173	99
Es	-0.099413	-0.706895	-0.352949	99
Es	-3.580217	-0.010572	-0.330474	99
Es	0.956867	-1.038779	0.240691	99
Es	1.381837	0.843874	1.513776	99
Es	1.413129	1.972983	0.996668	99
Es	1.252963	0.919632	0.227536	99
Es	1.095136	0.926914	-0.663226	99
Es	-1.302674	-0.788151	-0.357452	99
Es	-1.335285	-0.672139	-0.352236	99
