42
Properties=species:S:1:pos:R:3:Z:I:1 energy=-286.9068548627308 field_type=dipole dipole="0.000000 0.000000 0.000000" charge=0
C	-1.554925	-1.511261	-0.321117	6
C	-0.083015	-1.250360	-0.311857	6
C	0.542745	-0.060271	-0.203447	6
C	-0.168335	1.273240	-0.137897	6
N	-0.298555	1.750040	1.236153	7
C	1.948745	-0.060271	-0.203447	6
C	3.138905	-0.060271	-0.203447	6
H	-1.793785	-2.280251	0.421423	1
H	-1.861215	-1.882020	-1.304417	1
H	-2.156075	-0.631341	-0.080647	1
H	0.525515	-2.152340	-0.382657	1
H	-1.159315	1.222879	-0.600507	1
H	0.390315	2.016539	-0.719917	1
H	-0.836655	1.069739	1.769643	1
H	-0.837985	2.612619	1.239012	1
H	4.203635	-0.056671	-0.196867	1
Es	-0.298425	1.749947	1.236181	99
Es	-0.167940	1.272902	-0.137398	99
Es	0.543698	-0.060542	-0.203482	99
Es	-0.080382	-1.255007	-0.312071	99
Es	-1.554600	-1.511298	-0.321155	99
Es	1.948995	-0.060251	-0.203426	99
Es	3.142021	-0.060338	-0.203457	99
Es	-0.296387	1.545882	0.678015	99
Es	-0.768959	-1.293949	-0.310430	99
Es	3.516663	-0.103096	-0.222534	99
Es	0.164110	-1.074892	-0.303985	99
Es	0.227993	0.572958	-0.169991	99
Es	1.232126	-0.069613	-0.197010	99
Es	0.211332	1.761736	-0.534148	99
Es	2.587323	-0.132051	-0.189999	99
Es	-0.652101	2.220587	1.202268	99
Es	-0.645115	1.363310	1.499674	99
Es	-1.934976	-0.937590	-0.165572	99
Es	-1.750261	-1.748776	-0.974151	99
Es	-1.708701	-2.024798	0.175056	99
Es	-0.833622	1.221500	-0.447622	99
Es	0.568533	-1.313538	-0.295909	99
Es	2.538115	-0.063002	-0.218577	99
Es	0.063643	1.794563	1.390762	99
Es	2.554406	-0.058495	-0.205123	99
Es	0.299040	-0.608035	-0.252957	99
