45
Properties=species:S:1:pos:R:3:Z:I:1 energy=-288.11421108781104 field_type=dipole dipole="0.000000 0.000000 0.000000" charge=0
C	-2.567417	-0.744314	-0.821756	6
C	-1.085477	-0.822004	-0.640556	6
C	-0.432537	-0.280104	0.403854	6
C	1.048422	-0.294444	0.699794	6
N	1.825862	-1.073144	-0.256066	7
C	1.678373	1.072296	0.787504	6
C	1.123133	2.268886	0.542594	6
H	-2.799987	-0.305904	-1.797736	1
H	-3.049377	-0.131804	-0.052146	1
H	-3.001807	-1.748414	-0.783366	1
H	-0.546737	-1.349274	-1.421416	1
H	-1.023397	0.229696	1.165164	1
H	1.170093	-0.767654	1.682424	1
H	1.699743	-0.659354	-1.177376	1
H	1.436523	-2.011754	-0.299756	1
H	2.724263	1.061066	1.094814	1
H	0.092013	2.378846	0.224854	1
H	1.708313	3.177376	0.649174	1
Es	1.825582	-1.072965	-0.255888	99
Es	1.048304	-0.294500	0.699544	99
Es	-1.085132	-0.821553	-0.639911	99
Es	1.678571	1.072447	0.787581	99
Es	-0.432443	-0.280047	0.404000	99
Es	-2.566751	-0.744363	-0.821699	99
Es	1.123191	2.268643	0.542694	99
Es	1.446880	-0.751467	0.102435	99
Es	-2.881802	-0.342185	-0.315035	99
Es	1.352393	1.718985	0.648473	99
Es	-0.829150	0.059663	0.935173	99
Es	-0.780865	-0.533285	-0.185829	99
Es	0.456193	2.283132	0.343246	99
Es	-0.686213	-1.164379	-1.150963	99
Es	1.701185	-0.849785	-0.759600	99
Es	1.557110	-1.580903	-0.292516	99
Es	0.297341	-0.287138	0.494965	99
Es	1.514743	2.865746	0.614165	99
Es	-2.854477	-1.416492	-0.793255	99
Es	2.385121	1.048112	0.998176	99
Es	-2.717902	-0.449260	-1.474516	99
Es	1.113594	-0.610205	1.338074	99
Es	-1.808817	-0.742088	-0.688805	99
Es	1.334486	0.423858	0.733681	99
Es	2.208228	-1.069532	-0.151261	99
Es	1.389704	1.687200	0.659906	99
Es	-0.744015	-0.607410	-0.069928	99
