41
Properties=species:S:1:pos:R:3:Z:I:1 energy=-302.953768930365 field_type=dipole dipole="0.000000 0.000000 0.000000" charge=0
C	-1.210344	-2.960712	-0.550577	6
C	-0.387034	-2.011363	-0.091477	6
C	-0.619654	-0.601673	-0.299227	6
C	0.219086	0.348417	0.138513	6
N	0.062686	1.704887	-0.004007	7
C	0.886636	2.725827	0.375563	6
N	2.064886	2.684777	0.886483	7
H	-0.996434	-4.009442	-0.367777	1
H	-2.107494	-2.728483	-1.115367	1
H	0.498846	-2.306922	0.467673	1
H	-1.521244	-0.320563	-0.837427	1
H	1.122526	0.067757	0.673713	1
H	-0.806734	1.980547	-0.450737	1
H	0.427947	3.712917	0.191343	1
H	2.366326	1.714027	0.983313	1
Es	0.062720	1.704869	-0.004024	99
Es	2.065650	2.685403	0.886836	99
Es	0.885646	2.726750	0.375147	99
Es	0.221369	0.347550	0.139880	99
Es	-0.386783	-2.011365	-0.091325	99
Es	-0.619511	-0.601545	-0.299145	99
Es	-1.209919	-2.960218	-0.550228	99
Es	0.457594	2.141070	0.184075	99
Es	1.499648	2.632932	0.646723	99
Es	-0.487044	-1.313730	-0.183723	99
Es	0.776933	0.191100	0.461251	99
Es	2.180811	2.117995	0.915685	99
Es	-0.451283	1.860245	-0.263516	99
Es	-1.045970	-3.625482	-0.415280	99
Es	0.222769	-2.188567	0.287388	99
Es	-0.165251	-0.073630	-0.069942	99
Es	0.131398	1.034578	0.059551	99
Es	0.568812	3.363006	0.242824	99
Es	0.122358	1.708807	0.016068	99
Es	-0.846264	-2.485119	-0.332104	99
Es	-1.228461	-0.390902	-0.657983	99
Es	-1.805068	-2.790984	-0.918137	99
Es	-0.240434	-0.235826	-0.093684	99
Es	2.285368	2.966804	1.001016	99
Es	1.675167	2.675996	0.708044	99
Es	-0.797606	-2.476307	-0.343965	99
