44
Properties=species:S:1:pos:R:3:Z:I:1 energy=-304.1340338822738 field_type=dipole dipole="0.000000 0.000000 0.000000" charge=0
C	-2.657602	0.087084	0.745267	6
C	-1.871812	0.082454	-0.338853	6
C	-0.775432	-0.922156	-0.583913	6
C	0.610617	-0.279406	-0.724393	6
N	1.054378	0.278384	0.540627	7
C	2.304748	0.766524	0.769907	6
N	3.373688	0.574324	0.088337	7
H	-3.443622	0.828344	0.859687	1
H	-2.546582	-0.648196	1.537137	1
H	-2.034682	0.833434	-1.111143	1
H	-1.011832	-1.456286	-1.511913	1
H	-0.753682	-1.670956	0.217477	1
H	0.593787	0.506104	-1.488683	1
H	1.313127	-1.053286	-1.054593	1
H	0.313698	0.722074	1.078567	1
H	2.352038	1.393304	1.677037	1
H	3.179168	-0.041746	-0.700553	1
Es	1.054535	0.278231	0.540689	99
Es	3.375041	0.574674	0.088380	99
Es	2.304186	0.767082	0.770830	99
Es	0.610174	-0.279510	-0.723974	99
Es	-1.871878	0.082650	-0.338990	99
Es	-0.775472	-0.921721	-0.583850	99
Es	-2.657590	0.087097	0.744914	99
Es	0.647146	0.577229	0.810042	99
Es	2.824838	0.629920	0.379134	99
Es	-2.558864	-0.403502	1.238503	99
Es	-1.331699	-0.412626	-0.444756	99
Es	1.094565	-0.803605	-0.942717	99
Es	2.300423	1.167292	1.350489	99
Es	-1.973222	0.595739	-0.866985	99
Es	1.638265	0.555566	0.600105	99
Es	0.873924	0.101131	-0.002584	99
Es	0.602387	0.251988	-1.242543	99
Es	-2.295306	0.074930	0.272366	99
Es	-3.167930	0.576987	0.803193	99
Es	-0.098290	-0.575602	-0.642199	99
Es	3.208356	0.224313	-0.343069	99
Es	-0.753107	-1.415976	-0.050849	99
Es	-0.925659	-1.270779	-1.207612	99
Es	3.013113	0.641209	0.283718	99
Es	3.731806	0.692004	0.157219	99
Es	-2.262057	0.099068	0.228300	99
Es	1.134541	0.060013	0.712353	99
