47
Properties=species:S:1:pos:R:3:Z:I:1 energy=-305.32431723132777 field_type=dipole dipole="0.000000 0.000000 0.000000" charge=0
C	-1.623286	-0.937263	0.234812	6
C	-0.107376	-1.033593	0.044732	6
C	0.212684	-1.976803	-1.116348	6
C	0.519044	0.347417	-0.210518	6
N	0.400364	1.191177	0.963962	7
C	0.749294	2.507147	0.998942	6
N	0.930174	3.310617	0.016472	7
H	-1.875276	-0.323663	1.105662	1
H	-2.057606	-1.929843	0.394642	1
H	-2.106206	-0.494883	-0.643138	1
H	0.324524	-1.462213	0.958442	1
H	-0.191016	-1.596393	-2.060708	1
H	-0.214256	-2.969703	-0.940398	1
H	1.294924	-2.095503	-1.233278	1
H	0.029824	0.819227	-1.070398	1
H	1.582024	0.233287	-0.453158	1
H	0.504864	0.699877	1.847402	1
H	0.871674	2.882167	2.028642	1
H	0.755634	2.828947	-0.865768	1
Es	0.400490	1.191137	0.963891	99
Es	0.930477	3.311774	0.016234	99
Es	0.749361	2.506883	1.000091	99
Es	0.518620	0.347118	-0.210042	99
Es	-0.107454	-1.033565	0.044643	99
Es	0.212560	-1.976284	-1.115849	99
Es	-1.622493	-0.937260	0.234688	99
Es	0.625988	1.799309	0.957130	99
Es	0.828884	2.877815	0.448594	99
Es	-1.790683	-0.522562	0.824103	99
Es	0.193745	0.674906	-0.786980	99
Es	-0.065062	-1.706706	-1.750478	99
Es	0.189203	-1.305778	0.663951	99
Es	0.204869	-0.332048	-0.087171	99
Es	0.497695	0.912104	1.471585	99
Es	0.821717	2.988871	-0.452324	99
Es	1.240783	0.274621	-0.375648	99
Es	0.950919	-2.049157	-1.194568	99
Es	0.828371	2.714950	1.669396	99
Es	0.476206	0.837362	0.484294	99
Es	-1.941421	-0.635772	-0.362176	99
Es	-1.916329	-1.614777	0.340617	99
Es	-0.863974	-0.979482	0.143031	99
Es	0.064175	-1.511907	-0.540708	99
Es	-0.084003	-2.652004	-0.987544	99
Es	0.883472	3.033168	0.320749	99
Es	1.013281	3.683669	0.020771	99
Es	0.176641	1.308847	0.977313	99
