38
Properties=species:S:1:pos:R:3:Z:I:1 energy=-301.82379229515425 field_type=dipole dipole="0.000000 0.000000 0.000000" charge=0
C	-1.525852	0.121405	0.536402	6
C	0.002328	0.129695	0.449422	6
C	0.462298	-0.610985	-0.812278	6
C	1.899107	-0.915165	-0.764328	6
N	3.028068	-1.173295	-0.712018	7
C	0.484348	1.490865	0.449422	6
N	0.868558	2.575855	0.449422	7
H	-1.870852	0.642475	1.436942	1
H	-1.908522	-0.904095	0.577342	1
H	-1.980502	0.618635	-0.328478	1
H	0.387658	-0.389685	1.336712	1
H	0.236917	-0.027265	-1.713898	1
H	-0.083552	-1.558445	-0.904668	1
Es	3.029804	-1.173716	-0.711955	99
Es	0.869201	2.577936	0.449354	99
Es	0.002620	0.129957	0.449534	99
Es	0.462913	-0.610885	-0.812218	99
Es	1.898291	-0.914929	-0.764397	99
Es	0.484406	1.490653	0.449403	99
Es	-1.525150	0.121441	0.536261	99
Es	0.581795	2.131062	0.316962	99
Es	2.494236	-1.066817	-0.752455	99
Es	1.239415	-0.773021	-0.803492	99
Es	-1.770063	-0.576571	0.559315	99
Es	0.271067	0.850631	0.457640	99
Es	0.260569	-0.198799	1.020706	99
Es	0.321727	-0.231764	-1.384121	99
Es	0.252647	-0.231133	-0.186372	99
Es	0.118818	-1.219523	-0.858765	99
Es	-0.716572	0.135850	0.477148	99
Es	-1.746701	0.476567	1.141545	99
Es	0.966244	2.893089	0.426052	99
Es	3.355432	-1.247913	-0.693598	99
Es	-1.814691	0.450652	-0.050108	99
Es	0.721040	2.072867	0.428819	99
Es	0.781566	2.046060	0.606210	99
Es	2.514151	-1.037485	-0.706642	99
Es	2.524151	-1.055494	-0.734548	99
