47
Properties=species:S:1:pos:R:3:Z:I:1 energy=-305.3236668345006 field_type=dipole dipole="0.000000 0.000000 0.000000" charge=0
C	-2.271140	-1.458291	-0.067806	6
C	-0.963950	-0.955641	0.526324	6
C	-0.670620	0.483979	0.095724	6
C	0.601980	1.048389	0.726904	6
N	1.785240	0.343149	0.285624	7
C	2.436930	0.513509	-0.895926	6
N	2.223690	1.385089	-1.809316	7
H	-2.457710	-2.490131	0.245304	1
H	-2.239450	-1.435811	-1.161686	1
H	-3.114850	-0.845321	0.264514	1
H	-0.152030	-1.619231	0.207344	1
H	-1.021340	-1.013321	1.619204	1
H	-1.512760	1.121969	0.391534	1
H	-0.603170	0.533909	-0.997936	1
H	0.536749	0.976419	1.818624	1
H	0.689579	2.115839	0.493734	1
H	2.031139	-0.477791	0.829094	1
H	3.253580	-0.217641	-1.032576	1
H	1.448140	1.990929	-1.538676	1
Es	1.785346	0.343183	0.285576	99
Es	2.224068	1.385434	-1.810179	99
Es	2.437313	0.512851	-0.895637	99
Es	0.602104	1.048052	0.726559	99
Es	-0.964057	-0.955378	0.526125	99
Es	-0.670172	0.483824	0.095783	99
Es	-2.270543	-1.458037	-0.067572	99
Es	2.056725	0.400659	-0.294480	99
Es	2.279576	0.998986	-1.337133	99
Es	-0.812749	-0.237294	0.306771	99
Es	-2.838503	-1.039760	0.154224	99
Es	-2.400356	-2.166721	0.146224	99
Es	-0.995489	-0.990760	1.274654	99
Es	1.777332	1.694725	-1.608785	99
Es	1.904334	-0.150755	0.564735	99
Es	1.252143	0.597870	0.435419	99
Es	-1.239575	0.917272	0.295116	99
Es	-0.026853	0.761824	0.415354	99
Es	0.562649	0.986443	1.459701	99
Es	2.951416	0.021896	-0.957939	99
Es	0.666327	1.775315	0.555621	99
Es	-0.618793	0.520567	-0.635028	99
Es	1.958576	0.473904	0.309233	99
Es	-2.248301	-1.437100	-0.803163	99
Es	-0.410574	-1.400512	0.311414	99
Es	-1.617111	-1.201712	0.227949	99
Es	2.415632	1.446300	-2.132489	99
Es	2.268137	1.107033	-1.517465	99
