48
Properties=species:S:1:pos:R:3:Z:I:1 energy=-289.285667725578 field_type=dipole dipole="0.000000 0.000000 0.000000" charge=0
C	-2.317394	-1.657492	1.548308	6
C	-1.190354	-1.578302	0.529168	6
C	-0.687544	-0.143662	0.364068	6
N	0.356106	-0.099532	-0.660822	7
C	0.916046	1.243677	-0.829702	6
C	2.240486	1.563708	-0.197402	6
C	2.139616	1.407917	-1.686632	6
H	-2.657034	-2.691792	1.657368	1
H	-3.172264	-1.051242	1.233238	1
H	-1.986194	-1.302432	2.528938	1
H	-1.552974	-1.966382	-0.431022	1
H	-0.367944	-2.228763	0.851808	1
H	-0.290894	0.216758	1.319998	1
H	-1.520524	0.508478	0.076638	1
H	-0.023824	-0.440532	-1.543612	1
H	0.188216	2.051337	-0.891692	1
H	2.746926	0.783177	0.358538	1
H	2.383886	2.559968	0.202658	1
H	2.213326	2.299858	-2.297032	1
H	2.582336	0.525257	-2.132812	1
Es	0.355790	-0.099468	-0.661047	99
Es	0.916794	1.243542	-0.829805	99
Es	-0.687487	-0.144509	0.363821	99
Es	2.139494	1.408086	-1.685983	99
Es	2.239922	1.563654	-0.198183	99
Es	-1.190440	-1.578170	0.529294	99
Es	-2.316869	-1.657399	1.547852	99
Es	0.100954	-0.255009	-1.176132	99
Es	2.344886	1.510309	-0.959133	99
Es	-0.942068	-0.860034	0.453759	99
Es	-2.892706	-1.242724	1.336751	99
Es	2.330715	2.232647	0.073254	99
Es	-0.417997	0.113407	1.005468	99
Es	0.412669	1.789862	-0.859011	99
Es	0.544398	0.500239	-0.747114	99
Es	2.177151	1.999111	-2.091839	99
Es	-1.261618	0.302428	0.165216	99
Es	-0.105130	-0.081430	-0.261722	99
Es	-2.550947	-2.367813	1.622970	99
Es	2.416102	0.822926	-1.987748	99
Es	-2.093101	-1.412395	2.209072	99
Es	2.561515	1.050081	0.171539	99
Es	-1.760217	-1.607797	1.039242	99
Es	-0.630514	-2.012929	0.747986	99
Es	-1.430391	-1.835646	-0.129821	99
Es	1.513714	1.405342	-0.312750	99
Es	1.472536	1.292697	-1.446035	99
Es	0.658292	-0.332335	-0.548131	99
