48
Properties=species:S:1:pos:R:3:Z:I:1 energy=-289.306153946902 field_type=dipole dipole="0.000000 0.000000 0.000000" charge=0
C	-0.739416	-2.140707	-0.326061	6
C	-1.491646	-0.988567	0.329779	6
C	-0.981666	0.395653	-0.109041	6
N	-1.810466	1.441683	0.488849	7
C	0.444704	0.638823	0.298799	6
C	1.447464	0.871423	-0.565401	6
C	2.863134	1.112162	-0.155591	6
H	-1.192956	-3.094847	-0.039991	1
H	0.308664	-2.164797	-0.014301	1
H	-0.775676	-2.061857	-1.416661	1
H	-1.424326	-1.097007	1.420769	1
H	-2.554456	-1.083207	0.069959	1
H	-1.078776	0.476773	-1.198731	1
H	-1.842396	1.314213	1.498389	1
H	-2.769356	1.333593	0.164359	1
H	0.657444	0.619732	1.364749	1
H	1.243194	0.902003	-1.632931	1
H	2.995404	1.059923	0.929819	1
H	3.185544	2.102082	-0.492071	1
H	3.515584	0.362933	-0.614691	1
Es	-1.810575	1.441159	0.488916	99
Es	-0.981481	0.395812	-0.108729	99
Es	1.446090	0.871171	-0.564177	99
Es	0.444731	0.638825	0.298830	99
Es	-1.491201	-0.988510	0.329441	99
Es	2.862403	1.112041	-0.155804	99
Es	-0.739602	-2.140283	-0.325837	99
Es	-2.360581	1.324291	0.318038	99
Es	1.223997	0.862653	-1.193577	99
Es	-1.105872	-1.569440	-0.003926	99
Es	3.075674	1.778666	-0.381546	99
Es	-2.220879	-1.034348	0.156784	99
Es	-1.219918	-0.303486	0.112031	99
Es	-1.054889	0.448782	-0.836578	99
Es	1.054367	0.786149	-0.247027	99
Es	-1.498371	0.974018	0.270644	99
Es	-1.841307	1.315093	1.054778	99
Es	-0.183257	0.522068	0.093362	99
Es	0.512199	0.615112	1.011461	99
Es	3.296421	0.605914	-0.463555	99
Es	2.118362	0.976111	-0.313674	99
Es	-1.051574	-2.799122	-0.130202	99
Es	2.945818	1.076609	0.558146	99
Es	-0.760796	-2.078064	-1.063814	99
Es	-1.439482	-1.046377	1.068577	99
Es	-0.037083	-2.149374	-0.117072	99
Es	-1.663742	1.801707	0.398363	99
Es	0.937820	0.738597	-0.128121	99
