48
Properties=species:S:1:pos:R:3:Z:I:1 energy=-289.29770266347043 field_type=dipole dipole="0.000000 0.000000 0.000000" charge=0
C	-3.196089	-0.998680	0.430220	6
C	-1.693609	-1.231429	0.415459	6
C	-0.929909	0.076270	0.204770	6
N	0.508471	-0.191199	0.190439	7
C	1.267771	1.037540	-0.019941	6
C	2.729081	0.712210	-0.012041	6
C	3.570901	0.960070	-1.024291	6
H	-3.725019	-1.943909	0.590369	1
H	-3.537589	-0.576120	-0.521121	1
H	-3.480319	-0.310329	1.233359	1
H	-1.451679	-1.942990	-0.382321	1
H	-1.394019	-1.692110	1.363809	1
H	-1.173129	0.774150	1.015469	1
H	-1.240819	0.534531	-0.742471	1
H	0.723791	-0.839589	-0.566771	1
H	1.069701	1.749161	0.789449	1
H	0.980191	1.511750	-0.965281	1
H	3.115111	0.249811	0.894599	1
H	3.235171	1.422240	-1.947320	1
H	4.621991	0.698620	-0.946391	1
Es	0.508523	-0.191432	0.190315	99
Es	1.268418	1.037114	-0.019922	99
Es	-0.929937	0.075394	0.204916	99
Es	2.729215	0.712148	-0.011951	99
Es	3.570822	0.960097	-1.023871	99
Es	-1.693729	-1.231255	0.415433	99
Es	-3.195365	-0.998728	0.430208	99
Es	-0.087120	-0.055767	0.143370	99
Es	1.070542	1.356604	-0.655690	99
Es	-1.319625	-0.569631	0.311116	99
Es	3.324501	1.264680	-1.592342	99
Es	-1.143798	0.392059	-0.447041	99
Es	-3.424809	-0.707952	-0.210442	99
Es	2.966116	0.394879	0.607789	99
Es	0.614772	-0.535494	-0.281213	99
Es	-1.086214	0.557027	0.747330	99
Es	3.192216	0.891283	-0.579014	99
Es	0.820336	0.348690	0.049928	99
Es	4.250849	0.792987	-0.959707	99
Es	-3.559872	-1.647705	0.539921	99
Es	-3.384456	-0.528997	0.970016	99
Es	1.123284	1.506966	0.517624	99
Es	2.037482	0.883144	-0.035893	99
Es	-1.489117	-1.540075	1.057430	99
Es	-1.520444	-1.710503	-0.128654	99
Es	-2.445502	-1.106740	0.415060	99
Es	0.605832	-0.351238	0.538964	99
Es	3.155183	0.792737	-0.559220	99
