40
Properties=species:S:1:pos:R:3:Z:I:1 energy=-318.9971102144874 field_type=dipole dipole="0.000000 0.000000 0.000000" charge=0
C	-1.425059	-0.728852	0.227165	6
C	0.095061	-0.641362	0.307135	6
C	0.725241	-1.424342	-0.763155	6
N	1.215041	-2.032442	-1.623605	7
C	0.528251	0.820318	0.226385	6
N	0.435371	1.528508	-0.936455	7
N	0.968151	1.459338	1.265065	7
H	-1.891709	-0.132972	1.019295	1
H	-1.764499	-1.764922	0.336395	1
H	-1.803059	-0.355882	-0.732035	1
H	0.416201	-1.044822	1.274945	1
H	0.578031	1.039208	-1.814415	1
H	0.935571	2.412218	-0.887515	1
H	0.987401	0.866008	2.100795	1
Es	1.215729	-2.033251	-1.624890	99
Es	0.422435	1.530900	-0.935156	99
Es	0.968388	1.459686	1.265178	99
Es	0.528214	0.820064	0.226063	99
Es	0.095276	-0.641511	0.306742	99
Es	0.725161	-1.424268	-0.763037	99
Es	-1.424274	-0.728736	0.227044	99
Es	0.585556	1.227252	-1.382300	99
Es	0.914674	-1.664434	-1.356569	99
Es	0.772013	1.136463	0.813158	99
Es	0.425288	-1.075990	-0.257978	99
Es	-1.726038	-0.327228	0.757008	99
Es	0.320818	0.070216	0.229852	99
Es	0.545719	1.199812	-0.471902	99
Es	0.306371	-0.907703	0.926633	99
Es	0.760059	1.966339	-0.897242	99
Es	0.945621	1.070188	1.708009	99
Es	-0.590721	-0.677958	0.249286	99
Es	1.341519	-2.187102	-1.879519	99
Es	-1.642709	-1.426352	0.301576	99
Es	-1.660007	-0.482089	-0.411665	99
Es	0.087841	1.593539	-0.901523	99
Es	1.045021	-1.732888	-1.233848	99
Es	1.031119	-1.875578	-1.119500	99
Es	1.062151	1.836028	1.280133	99
Es	0.830496	1.207070	0.947795	99
