48
Properties=species:S:1:pos:R:3:Z:I:1 energy=-289.27998837056515 field_type=dipole dipole="0.000000 0.000000 0.000000" charge=0
C	-0.758883	-1.851691	-1.711481	6
C	-0.665973	-1.248271	-0.316041	6
N	0.226557	-0.086011	-0.316101	7
C	-0.467263	1.125319	-0.831692	6
C	0.202467	1.916078	0.306839	6
C	0.253667	0.551009	1.033539	6
C	1.529647	0.238839	1.790558	6
H	-1.381393	-2.752151	-1.690161	1
H	0.230287	-2.136721	-2.085792	1
H	-1.207213	-1.151031	-2.423622	1
H	-0.254343	-2.010641	0.356449	1
H	-1.673503	-1.012031	0.049389	1
H	-1.563083	1.116039	-0.771251	1
H	-0.172283	1.425169	-1.841491	1
H	1.179297	2.337298	0.040949	1
H	-0.408623	2.690199	0.777389	1
H	-0.639993	0.373479	1.649539	1
H	2.422987	0.411079	1.180308	1
H	1.540347	-0.805301	2.120358	1
H	1.607287	0.869349	2.682318	1
Es	0.225603	-0.085815	-0.315627	99
Es	0.254034	0.550984	1.033385	99
Es	-0.466670	1.125168	-0.831062	99
Es	-0.665799	-1.248128	-0.316430	99
Es	0.202389	1.915320	0.306868	99
Es	-0.758843	-1.851466	-1.711013	99
Es	1.529003	0.238977	1.790154	99
Es	0.204739	0.131748	0.288903	99
Es	-0.710691	-1.551712	-1.023538	99
Es	2.126039	0.358562	1.379173	99
Es	-0.153962	1.590881	-0.293339	99
Es	-1.217251	1.100847	-0.784930	99
Es	-0.388232	-1.755001	0.146111	99
Es	-0.360683	0.417234	1.440771	99
Es	-0.182740	-0.548687	-0.304291	99
Es	0.893571	0.388213	1.414667	99
Es	-1.358204	-1.070471	-0.058274	99
Es	-1.063442	-1.372089	-2.190788	99
Es	-0.272132	1.323704	-1.525202	99
Es	-0.092699	-2.043364	-1.964677	99
Es	-1.189217	-2.466429	-1.688080	99
Es	1.531341	-0.474414	2.011127	99
Es	1.572738	0.674184	2.400167	99
Es	-0.214569	2.439660	0.625900	99
Es	-0.121730	0.393059	-0.561178	99
Es	0.850249	2.198577	0.125952	99
Es	0.268701	1.295578	0.748243	99
Es	0.576716	-0.140424	-0.471257	99
