39
Properties=species:S:1:pos:R:3:Z:I:1 energy=-285.7870335836186 field_type=dipole dipole="0.000000 0.000000 0.000000" charge=0
C	-0.582947	-2.441691	0.196282	6
C	-1.022048	-1.184381	0.048092	6
N	-0.247828	-0.023391	-0.013558	7
C	-0.750418	1.256799	-0.167988	6
C	0.288412	2.160309	-0.188158	6
C	1.480652	1.423259	-0.041698	6
C	1.128062	0.095509	0.062762	6
H	-1.287858	-3.267071	0.230272	1
H	0.468982	-2.690631	0.287132	1
H	-2.091738	-1.012181	-0.036548	1
H	-1.817028	1.416569	-0.251238	1
H	0.192402	3.232889	-0.296818	1
H	2.490162	1.812549	-0.014578	1
H	1.751193	-0.778541	0.186042	1
Es	-0.247722	-0.023482	-0.013543	99
Es	-1.022071	-1.184101	0.048064	99
Es	-0.750713	1.256922	-0.168019	99
Es	1.129681	0.093545	0.063053	99
Es	-0.582576	-2.441313	0.196269	99
Es	1.482911	1.424189	-0.041643	99
Es	0.288199	2.162985	-0.188427	99
Es	-0.517329	0.556266	-0.086157	99
Es	0.194161	2.818944	-0.257128	99
Es	0.131123	-2.568358	0.253905	99
Es	1.327826	0.812166	0.007004	99
Es	-0.555422	-0.548324	0.017021	99
Es	0.405904	-0.003984	0.026249	99
Es	1.477838	-0.474668	0.139565	99
Es	-0.766863	-1.818454	0.124968	99
Es	-1.741910	-1.054787	-0.010177	99
Es	-0.192038	1.762668	-0.180758	99
Es	-0.187545	0.075200	-0.019137	99
Es	-1.436796	1.324647	-0.218223	99
Es	2.125264	1.636991	-0.021047	99
Es	0.878915	1.793198	-0.115421	99
Es	-1.073012	-2.982088	0.216714	99
Es	1.238760	0.820931	0.000445	99
Es	-0.793118	-1.867747	0.128024	99
Es	-0.131701	1.697698	-0.170714	99
