45
Properties=species:S:1:pos:R:3:Z:I:1 energy=-288.12305398229375 field_type=dipole dipole="0.000000 0.000000 0.000000" charge=0
C	0.063296	-2.405927	-0.325776	6
C	-0.429794	-1.234667	0.515694	6
N	0.355546	-0.025817	0.286524	7
C	0.234506	0.525463	-1.074556	6
C	0.291606	2.000913	-0.878366	6
C	0.167426	2.301673	0.416014	6
C	0.013726	1.059623	1.222804	6
H	-0.497764	-3.311267	-0.071496	1
H	1.124226	-2.605797	-0.140536	1
H	-0.070894	-2.222077	-1.396606	1
H	-0.342164	-1.524787	1.569924	1
H	-1.494544	-1.061157	0.317004	1
H	-0.713764	0.264613	-1.559376	1
H	1.065946	0.179273	-1.695986	1
H	0.393236	2.714513	-1.681686	1
H	0.152046	3.298413	0.830214	1
H	0.703466	1.051613	2.072174	1
H	-1.016094	0.995403	1.594034	1
Es	0.354965	-0.025592	0.286316	99
Es	0.234736	0.526079	-1.074498	99
Es	0.013941	1.060074	1.222426	99
Es	-0.429546	-1.234736	0.515396	99
Es	0.292060	2.002036	-0.882498	99
Es	0.167298	2.303863	0.417795	99
Es	0.063098	-2.405427	-0.325455	99
Es	0.246910	0.213094	-0.307253	99
Es	0.272330	2.149439	-0.225876	99
Es	-0.328429	-3.023666	-0.147480	99
Es	0.353756	2.235081	-1.382203	99
Es	-1.162922	-1.103875	0.373814	99
Es	0.105478	1.881592	0.745886	99
Es	0.150347	2.800718	0.752707	99
Es	0.278196	1.535330	-1.003325	99
Es	-0.374928	-1.413006	1.228376	99
Es	-0.032935	-0.515418	0.361599	99
Es	-0.174028	-1.821496	0.086797	99
Es	-0.675509	1.001843	1.465315	99
Es	0.467779	1.046811	1.801088	99
Es	-0.403219	0.341045	-1.387091	99
Es	0.778301	-2.535985	-0.203757	99
Es	0.783678	0.281287	-1.497557	99
Es	0.150638	0.443682	0.686536	99
Es	-0.027384	-2.274806	-1.047292	99
Es	0.725983	-0.107278	0.338887	99
Es	0.179377	2.159073	-0.239280	99
