48
Properties=species:S:1:pos:R:3:Z:I:1 energy=-289.2861700262709 field_type=dipole dipole="0.000000 0.000000 0.000000" charge=0
C	-2.822789	0.368994	-0.405906	6
C	-1.513729	0.047784	0.298484	6
N	-0.391439	0.325404	-0.595066	7
C	0.926102	-0.036986	-0.032586	6
C	1.382452	0.740994	1.178604	6
C	1.371421	-1.474736	-0.153856	6
C	1.985822	-0.429696	-1.036596	6
H	-3.668118	0.174394	0.262404	1
H	-2.952379	-0.247796	-1.302046	1
H	-2.866259	1.422034	-0.704546	1
H	-1.516049	-1.007166	0.593674	1
H	-1.443139	0.654614	1.207114	1
H	-0.405029	1.305354	-0.876406	1
H	2.436091	0.551494	1.412734	1
H	0.795061	0.461594	2.059124	1
H	1.266161	1.816824	1.010654	1
H	0.694841	-2.186856	-0.613076	1
H	1.982621	-1.897296	0.634754	1
H	3.015731	-0.147686	-0.848966	1
H	1.722621	-0.441276	-2.088496	1
Es	-0.391506	0.325837	-0.594878	99
Es	0.926484	-0.037657	-0.033262	99
Es	-1.513965	0.048004	0.297899	99
Es	1.371656	-1.473783	-0.154279	99
Es	1.382401	0.740817	1.178349	99
Es	1.985312	-0.430295	-1.036242	99
Es	-2.822387	0.368940	-0.405752	99
Es	0.150744	0.212995	-0.303814	99
Es	1.712728	-1.019841	-0.657237	99
Es	-2.169097	0.201396	-0.062785	99
Es	0.967192	0.540866	1.763758	99
Es	-1.496797	-0.664327	0.505405	99
Es	1.811842	-0.415068	-1.704091	99
Es	-0.383344	0.906083	-0.702922	99
Es	0.921143	-1.929846	-0.437980	99
Es	-1.464162	0.470233	0.921938	99
Es	2.661071	-0.233961	-0.900646	99
Es	-0.826040	0.243647	-0.189788	99
Es	1.291066	1.468517	1.048771	99
Es	1.169608	0.357567	0.587562	99
Es	2.101008	0.609221	1.335927	99
Es	-3.391766	0.237777	0.056499	99
Es	-2.846212	1.087653	-0.608144	99
Es	1.767247	-1.742677	0.376071	99
Es	-2.912592	-0.049842	-1.009739	99
Es	1.536574	-0.090840	-0.645843	99
Es	1.030153	-0.862643	0.039159	99
Es	-0.427955	0.086028	-0.914349	99
