47
Properties=species:S:1:pos:R:3:Z:I:1 energy=-305.2761591509063 field_type=dipole dipole="0.000000 0.000000 0.000000" charge=0
C	0.014583	-2.166414	-0.678437	6
C	-0.697807	-0.955104	-0.081277	6
N	-1.205947	-1.280894	1.252603	7
C	0.239833	0.218176	0.035203	6
C	0.578833	1.052306	-1.184947	6
N	-0.282197	1.577226	-0.135237	7
C	0.368853	2.549056	0.736213	6
H	0.383593	-1.940454	-1.684877	1
H	-0.662177	-3.024404	-0.754717	1
H	0.878293	-2.465304	-0.073227	1
H	-1.550467	-0.696514	-0.720707	1
H	-0.452407	-1.639794	1.834263	1
H	-1.890967	-2.030154	1.176553	1
H	1.030073	0.055606	0.760453	1
H	0.085783	0.828096	-2.124257	1
H	1.582502	1.448546	-1.279667	1
H	-0.119327	2.549276	1.716333	1
H	0.259753	3.552206	0.311293	1
H	1.439203	2.368546	0.894433	1
Es	-0.281328	1.577235	-0.135235	99
Es	-1.205660	-1.281293	1.252319	99
Es	0.239245	0.218258	0.034543	99
Es	-0.697840	-0.955103	-0.080770	99
Es	0.578437	1.052341	-1.184292	99
Es	0.368705	2.548802	0.735989	99
Es	0.014195	-2.165648	-0.678085	99
Es	0.144424	1.414393	-0.624483	99
Es	-0.976459	-1.206087	0.711363	99
Es	-0.220955	-0.341327	-0.030601	99
Es	0.040215	2.539882	1.401242	99
Es	0.263795	-2.011901	-1.354349	99
Es	1.258410	1.335364	-1.238341	99
Es	0.765538	0.106365	0.540274	99
Es	-1.558250	-1.743786	1.179784	99
Es	0.517203	0.484877	-0.684114	99
Es	0.240274	0.909529	-1.806242	99
Es	-0.761277	-1.520377	1.545494	99
Es	0.297767	3.230640	0.438873	99
Es	-0.326123	-1.553208	-0.387472	99
Es	-0.455705	-2.753193	-0.725879	99
Es	1.108656	2.406840	0.833695	99
Es	0.601344	-2.356337	-0.257496	99
Es	-1.269496	-0.787866	-0.506004	99
Es	0.051067	1.954109	0.235187	99
Es	-0.102724	1.035353	0.041100	99
Es	-1.362803	-0.953316	1.405512	99
Es	-0.657157	1.594293	-0.204130	99
