45
Properties=species:S:1:pos:R:3:Z:I:1 energy=-288.07699163704604 field_type=dipole dipole="0.000000 0.000000 0.000000" charge=0
C	-0.249756	-2.186123	-0.089959	6
C	-0.876656	-0.817893	0.157381	6
N	-0.378816	0.228757	-0.745829	7
C	-1.148746	1.462507	-0.581129	6
C	1.067874	0.478547	-0.652909	6
C	1.533854	0.907237	0.676681	6
C	1.921004	1.256217	1.760011	6
H	-0.767196	-2.945513	0.505801	1
H	0.805804	-2.209053	0.197121	1
H	-0.331826	-2.474453	-1.143149	1
H	-0.746386	-0.540293	1.210491	1
H	-1.956726	-0.931913	-0.002269	1
H	-2.207566	1.283517	-0.800229	1
H	-0.813196	2.228367	-1.289429	1
H	-1.077816	1.872457	0.432451	1
H	1.345524	1.240347	-1.392879	1
H	1.618183	-0.417273	-0.962699	1
H	2.262444	1.564567	2.720551	1
Es	-0.378489	0.228823	-0.745105	99
Es	1.067705	0.478516	-0.652540	99
Es	-0.876371	-0.817980	0.157233	99
Es	-1.148526	1.462237	-0.581103	99
Es	1.533518	0.906979	0.675827	99
Es	1.921695	1.256767	1.761453	99
Es	-0.249944	-2.185577	-0.089865	99
Es	0.251897	0.371587	-0.599235	99
Es	1.911078	1.275281	1.941896	99
Es	0.463912	-2.193247	0.100272	99
Es	1.335235	0.720140	0.058464	99
Es	-0.903779	1.986109	-1.059823	99
Es	-1.604872	-0.880047	0.047600	99
Es	1.846046	1.204323	1.674982	99
Es	1.244854	0.997850	-1.126450	99
Es	1.424405	-0.122853	-0.827201	99
Es	-0.688377	0.751891	-0.630003	99
Es	-0.780698	-0.618995	0.880059	99
Es	-1.092263	1.731539	0.112817	99
Es	-0.609802	-2.701202	0.322191	99
Es	-1.874223	1.331330	-0.722516	99
Es	-0.297506	-2.374606	-0.796628	99
Es	-0.555598	-0.172683	-0.331287	99
Es	-0.546275	-1.498415	0.017601	99
Es	1.804560	1.102348	1.175654	99
Es	1.728286	1.101395	1.241252	99
Es	-0.421709	0.090740	-1.105514	99
