48
Properties=species:S:1:pos:R:3:Z:I:1 energy=-289.2975337297573 field_type=dipole dipole="0.000000 0.000000 0.000000" charge=0
C	-2.825525	-0.074224	0.647761	6
C	-1.325905	0.136367	0.795561	6
N	-0.626215	-0.545503	-0.290928	7
C	0.831205	-0.474913	-0.168339	6
C	1.445555	-1.400303	-1.221828	6
C	1.345585	0.927157	-0.370288	6
C	2.055235	1.608297	0.539791	6
H	-3.358915	0.441846	1.452561	1
H	-3.082825	-1.137414	0.700232	1
H	-3.190835	0.321717	-0.305779	1
H	-1.007615	-0.261754	1.765801	1
H	-1.121145	1.212567	0.784052	1
H	-0.918895	-0.168743	-1.190258	1
H	1.130105	-0.857574	0.816082	1
H	1.175745	-1.096413	-2.240579	1
H	1.108335	-2.433513	-1.079558	1
H	2.539575	-1.398504	-1.152878	1
H	1.123905	1.404137	-1.322489	1
H	2.303565	1.179337	1.505912	1
H	2.399065	2.617436	0.335172	1
Es	-0.626013	-0.544895	-0.291111	99
Es	0.831160	-0.474815	-0.168584	99
Es	-1.326447	0.136099	0.795177	99
Es	1.345789	0.927579	-0.370182	99
Es	2.055054	1.607906	0.539776	99
Es	1.445239	-1.399878	-1.221373	99
Es	-2.825137	-0.074161	0.647753	99
Es	-0.717952	-0.931157	-0.274484	99
Es	2.129103	1.281410	1.037450	99
Es	1.147564	-0.929331	-0.689692	99
Es	-2.079474	0.021549	0.720369	99
Es	1.216126	-2.099478	-1.117799	99
Es	-1.091457	-0.133059	1.449375	99
Es	1.175905	1.240492	-1.022842	99
Es	1.015270	-0.717073	0.497709	99
Es	2.275436	2.243112	0.411383	99
Es	1.793918	1.326965	0.235386	99
Es	-0.888623	-0.214885	0.138239	99
Es	-0.773651	-0.278682	-0.790620	99
Es	2.187319	-1.383832	-1.168474	99
Es	1.251261	-1.177067	-1.911554	99
Es	-3.002105	-0.792113	0.685960	99
Es	-3.068446	0.197153	-0.005498	99
Es	1.107119	0.252365	-0.264598	99
Es	-1.183164	0.873821	0.784490	99
Es	-3.179685	0.284267	1.197896	99
Es	-0.011865	-0.433593	-0.248065	99
Es	1.722551	1.280181	0.096524	99
