50
Properties=species:S:1:pos:R:3:Z:I:1 energy=-306.4866672471222 field_type=dipole dipole="0.000000 0.000000 0.000000" charge=0
C	-3.117188	-1.765067	-0.031327	6
C	-1.597788	-1.739977	0.035323	6
N	-1.118478	-0.360797	-0.042567	7
C	0.342642	-0.305537	0.018643	6
C	0.814562	1.150243	-0.010617	6
C	2.341033	1.223823	0.013463	6
N	2.789412	2.612023	0.023563	7
H	-3.478548	-2.796717	0.021473	1
H	-3.478878	-1.328297	-0.967557	1
H	-3.560228	-1.209757	0.801553	1
H	-1.195538	-2.329067	-0.797407	1
H	-1.272078	-2.207907	0.972413	1
H	-1.515148	0.183523	0.723593	1
H	0.769063	-0.843417	-0.836197	1
H	0.702512	-0.785467	0.936443	1
H	0.404263	1.689953	0.852493	1
H	0.434552	1.646143	-0.913257	1
H	2.757622	0.715533	-0.863807	1
H	2.729102	0.719793	0.905393	1
H	2.442802	3.090223	-0.807587	1
H	3.806302	2.640753	-0.034037	1
Es	-1.118419	-0.360602	-0.042291	99
Es	2.789260	2.612146	0.023733	99
Es	2.340510	1.224457	0.013446	99
Es	-1.598234	-1.739583	0.035264	99
Es	0.342578	-0.304451	0.018554	99
Es	0.814765	1.149942	-0.010593	99
Es	-3.116791	-1.765038	-0.031298	99
Es	-1.299785	-0.949372	0.040126	99
Es	2.610008	2.845822	-0.488034	99
Es	0.621888	-0.681420	-0.550626	99
Es	-2.362468	-1.750291	-0.004235	99
Es	2.634890	2.056799	-0.027840	99
Es	-1.309997	-2.135307	-0.526831	99
Es	1.572812	1.193278	0.009088	99
Es	-1.327652	-0.072541	0.436563	99
Es	3.374426	2.592404	-0.057320	99
Es	2.620926	0.865850	-0.591937	99
Es	-0.505410	-0.360793	0.038190	99
Es	-1.369290	-2.061308	0.683544	99
Es	0.587440	-0.634973	0.648332	99
Es	2.610341	0.878923	0.616943	99
Es	-3.354769	-2.468846	0.008222	99
Es	-3.363529	-1.473695	-0.663278	99
Es	-3.414617	-1.384423	0.539538	99
Es	0.533779	1.508391	0.570534	99
Es	0.565031	1.484979	-0.619898	99
Es	0.590678	0.414094	-0.005866	99
Es	2.654755	2.784530	0.356772	99
Es	-1.226890	-0.203407	-0.388668	99
