46
Properties=species:S:1:pos:R:3:Z:I:1 energy=-272.1444780325312 field_type=dipole dipole="0.000000 0.000000 0.000000" charge=0
C	-1.883952	-0.093581	-1.321992	6
C	-0.360322	-0.106341	-1.292982	6
C	0.206048	-1.364151	-0.618842	6
C	0.529738	-0.966801	0.822548	6
C	0.670068	0.520329	0.729668	6
C	1.254138	1.309209	1.845348	6
C	0.184408	0.989609	-0.427352	6
H	-2.262662	-0.917681	-1.935712	1
H	-2.258092	0.843419	-1.748492	1
H	-2.311622	-0.199491	-0.318482	1
H	0.028188	-0.021001	-2.313882	1
H	1.134278	-1.660401	-1.126542	1
H	-0.470792	-2.223921	-0.665262	1
H	1.449718	-1.451471	1.162648	1
H	-0.287022	-1.230941	1.502318	1
H	1.277088	2.379109	1.613098	1
H	2.280638	0.985779	2.044128	1
H	0.664068	1.174139	2.757118	1
H	0.156088	2.034189	-0.707332	1
Es	0.670293	0.520457	0.730117	99
Es	-0.360274	-0.106282	-1.292682	99
Es	1.254003	1.308998	1.845111	99
Es	0.529844	-0.966537	0.821959	99
Es	0.205665	-1.363246	-0.618389	99
Es	-1.883298	-0.093563	-1.321903	99
Es	0.184444	0.990635	-0.427557	99
Es	0.178540	1.652087	-0.581225	99
Es	1.947956	1.082995	1.973210	99
Es	0.367004	-1.182947	0.129019	99
Es	-2.142293	-0.656584	-1.741326	99
Es	-0.251430	-1.941390	-0.650755	99
Es	-0.065989	0.484977	-0.837556	99
Es	0.627873	-0.194463	0.818018	99
Es	0.945256	0.930771	1.255998	99
Es	-0.025773	-1.137778	1.277020	99
Es	1.267937	2.017510	1.689020	99
Es	0.847482	1.213875	2.451556	99
Es	-2.135101	0.550335	-1.609218	99
Es	-0.109019	-0.048826	-1.980947	99
Es	-2.164825	-0.167701	-0.638992	99
Es	0.405795	0.779535	0.094825	99
Es	0.839262	-1.562987	-0.963843	99
Es	1.145679	-1.288005	1.060517	99
Es	-1.104587	-0.102524	-1.293444	99
Es	-0.111082	-0.750397	-0.989184	99
Es	0.425098	0.761080	0.119015	99
