38
Properties=species:S:1:pos:R:3:Z:I:1 energy=-301.7352532440894 field_type=dipole dipole="0.000000 0.000000 0.000000" charge=0
C	-1.691110	0.645748	0.062134	6
C	-0.358220	0.533308	0.016734	6
N	0.401100	-0.611332	-0.019306	7
C	0.019310	-1.914732	-0.013366	6
N	0.802160	-2.935241	-0.053856	7
C	0.434690	1.718838	0.000764	6
C	1.106590	2.714889	-0.012856	6
H	-2.174970	1.617788	0.086954	1
H	-2.343410	-0.219172	0.075424	1
H	1.398540	-0.438882	-0.056726	1
H	-1.069490	-2.077902	0.031194	1
H	1.778100	-2.635261	-0.093106	1
H	1.696710	3.601948	-0.023986	1
Es	0.401058	-0.611297	-0.019302	99
Es	0.802139	-2.936495	-0.053865	99
Es	0.015729	-1.914371	-0.013213	99
Es	-0.357458	0.533933	0.016712	99
Es	0.434774	1.718643	0.000763	99
Es	1.108522	2.717630	-0.012895	99
Es	-1.692516	0.648524	0.062206	99
Es	0.186347	-1.199493	-0.015274	99
Es	0.472392	-2.395605	-0.035997	99
Es	-1.851716	1.130553	0.072462	99
Es	1.356125	3.026304	-0.017931	99
Es	0.091033	-0.067942	-0.003574	99
Es	0.992367	-0.500190	-0.041814	99
Es	0.042715	1.082770	0.008267	99
Es	0.888672	2.344454	-0.007523	99
Es	1.338910	-2.696315	-0.074845	99
Es	-1.183263	0.656613	0.045032	99
Es	0.335994	-0.643202	-0.016449	99
Es	-0.677405	-1.985566	0.015353	99
Es	-2.042292	0.178565	0.069286	99
Es	0.757934	2.195521	-0.007406	99
Es	0.715870	-3.304412	-0.052504	99
Es	0.717679	2.235961	-0.004406	99
Es	0.545057	-2.575447	-0.040728	99
Es	-1.060127	0.638640	0.041112	99
