38
Properties=species:S:1:pos:R:3:Z:I:1 energy=-301.7017664784578 field_type=dipole dipole="0.000000 0.000000 0.000000" charge=0
C	-1.455142	0.827766	-0.225174	6
C	0.003808	0.551436	-0.064624	6
N	0.584098	-0.590794	0.122066	7
N	-0.312682	-1.656144	0.171306	7
C	0.317298	-2.766344	0.359926	6
C	0.955738	1.631476	-0.112854	6
C	1.747468	2.534816	-0.153824	6
H	-1.638452	1.897876	-0.355344	1
H	-1.994162	0.483416	0.662016	1
H	-1.834432	0.295786	-1.102294	1
H	-0.244092	-3.710854	0.424106	1
H	1.414248	-2.827154	0.463516	1
H	2.456298	3.328716	-0.188824	1
Es	-0.311848	-1.655920	0.171352	99
Es	0.584015	-0.590776	0.122057	99
Es	0.004193	0.551698	-0.064623	99
Es	0.317840	-2.766462	0.359987	99
Es	0.955481	1.631161	-0.112838	99
Es	-1.454571	0.827576	-0.225100	99
Es	1.749594	2.537094	-0.153912	99
Es	-0.695982	-1.565356	0.126747	99
Es	0.293510	-0.059731	0.033102	99
Es	1.965085	2.781951	-0.165308	99
Es	-0.664561	0.705696	-0.140741	99
Es	0.460216	1.088664	-0.089702	99
Es	-0.074017	-3.372146	0.398336	99
Es	1.554673	2.290702	-0.141648	99
Es	1.043114	-2.787695	0.426155	99
Es	-1.563331	1.544721	-0.311247	99
Es	-1.687531	0.477717	-0.798297	99
Es	0.037899	-2.179007	0.264953	99
Es	-1.792867	0.600659	0.357481	99
Es	-0.038269	-2.061483	0.244031	99
Es	0.108223	-1.140772	0.146473	99
Es	1.309422	2.038683	-0.131058	99
Es	1.347756	2.119060	-0.137990	99
Es	0.974642	-0.655378	0.163626	99
Es	0.355126	-0.145775	0.049464	99
