44
Properties=species:S:1:pos:R:3:Z:I:1 energy=-304.0815373918017 field_type=dipole dipole="0.000000 0.000000 0.000000" charge=0
C	-1.442257	0.142159	1.017834	6
C	0.002473	0.082259	0.517784	6
N	0.071813	-0.512291	-0.827876	7
N	-0.340867	-1.801420	-0.942856	7
C	-0.317357	-2.234940	-2.159146	6
C	0.577103	1.475549	0.453784	6
C	1.644653	1.891459	1.149004	6
H	-1.494037	0.623719	2.001054	1
H	-1.867377	-0.861981	1.123294	1
H	-2.085247	0.709419	0.334594	1
H	0.591623	-0.533791	1.209174	1
H	1.036503	-0.410041	-1.154906	1
H	-0.632387	-3.268170	-2.373226	1
H	-0.000417	-1.623031	-3.022076	1
H	0.071813	2.179529	-0.205246	1
H	2.181173	1.229279	1.821654	1
H	2.002793	2.912289	1.057154	1
Es	-0.340589	-1.800670	-0.943224	99
Es	0.071861	-0.512419	-0.828162	99
Es	-0.317319	-2.235071	-2.159477	99
Es	0.002756	0.082683	0.517707	99
Es	0.577283	1.475766	0.453800	99
Es	1.644443	1.891080	1.148946	99
Es	-1.441561	0.142128	1.017538	99
Es	-0.140779	-0.312966	-1.075318	99
Es	0.069481	-0.306568	-0.236943	99
Es	1.877249	1.456849	1.476183	99
Es	-1.717643	-0.539581	1.088322	99
Es	-0.524519	-2.909624	-2.293324	99
Es	1.863154	2.526069	1.097768	99
Es	0.403607	-0.328642	0.979561	99
Es	0.626662	-0.501235	-0.980976	99
Es	-0.101106	-1.818654	-2.708381	99
Es	-0.108155	-1.212534	-0.902206	99
Es	1.268487	1.686215	0.896364	99
Es	0.324235	0.840897	0.491487	99
Es	-0.452589	-1.950426	-0.602222	99
Es	-1.864426	0.527704	0.544202	99
Es	-0.702195	0.116309	0.767748	99
Es	-1.466947	0.475153	1.680985	99
Es	0.211204	1.891336	-0.000780	99
Es	-0.210087	-2.033803	-1.471582	99
Es	1.105549	1.692933	0.829333	99
Es	-0.413726	-1.929031	-1.566167	99
