41
Properties=species:S:1:pos:R:3:Z:I:1 energy=-302.87068265133064 field_type=dipole dipole="0.000000 0.000000 0.000000" charge=0
C	-1.013566	0.111405	1.403333	6
C	0.333754	0.194595	0.683543	6
N	0.210004	-0.286325	-0.702887	7
N	-0.100646	-1.600215	-0.863787	7
C	-0.295616	-1.928455	-2.097558	6
C	0.815773	1.555765	0.683543	6
C	1.213054	2.677665	0.683543	6
H	-0.930596	0.489025	2.429313	1
H	-1.372496	-0.921875	1.462203	1
H	-1.780956	0.708265	0.895813	1
H	1.055224	-0.440205	1.212873	1
H	1.081874	-0.056355	-1.186607	1
H	-0.555646	-2.969035	-2.347347	1
H	-0.223987	-1.218135	-2.939757	1
H	1.563833	3.683885	0.683783	1
Es	-0.100503	-1.599363	-0.864127	99
Es	0.210107	-0.286308	-0.702990	99
Es	0.334094	0.195311	0.683428	99
Es	-0.295610	-1.928495	-2.097945	99
Es	0.815266	1.553898	0.683581	99
Es	1.213252	2.678671	0.683512	99
Es	-1.012703	0.111499	1.402832	99
Es	0.084376	-0.994966	-0.803966	99
Es	0.298950	-0.108960	-0.099113	99
Es	1.288508	2.925032	0.655596	99
Es	-0.940975	0.372341	2.091818	99
Es	-0.465464	-2.610645	-2.252852	99
Es	0.718344	-0.204031	-0.947289	99
Es	0.579097	0.919603	0.697706	99
Es	1.122375	2.489727	0.650346	99
Es	-0.236566	-1.446171	-2.635718	99
Es	0.824473	-0.209889	1.032785	99
Es	-0.296490	-1.678398	-1.464355	99
Es	-0.307833	0.158520	1.018251	99
Es	-1.519482	0.517065	1.056426	99
Es	-1.246801	-0.585891	1.440225	99
Es	-0.053836	-1.773363	-1.424572	99
Es	-0.130424	-1.790038	-0.524914	99
Es	1.024256	2.105502	0.736878	99
Es	1.041272	2.127988	0.674705	99
Es	-0.057851	-0.090926	-0.889596	99
