46
Properties=species:S:1:pos:R:3:Z:I:1 energy=-272.1326302780269 field_type=dipole dipole="0.000000 0.000000 0.000000" charge=0
C	-2.074466	-1.798240	-0.506549	6
C	-0.739386	-1.750160	-0.410589	6
C	0.125584	-0.519810	-0.443329	6
C	-0.571806	0.841380	-0.482359	6
C	0.555144	1.807450	-0.148519	6
C	1.397454	1.079040	0.894921	6
C	1.016894	-0.399680	0.798831	6
H	-2.594736	-2.751070	-0.477109	1
H	-2.683756	-0.908010	-0.619279	1
H	-0.204226	-2.694370	-0.312119	1
H	0.774104	-0.600690	-1.327079	1
H	-1.357556	0.913780	0.279631	1
H	-1.016836	1.056890	-1.458659	1
H	1.159844	2.000150	-1.042999	1
H	0.183494	2.769610	0.216471	1
H	2.465454	1.232540	0.708621	1
H	1.182974	1.456960	1.900741	1
H	1.904584	-1.037250	0.722821	1
H	0.477234	-0.698520	1.706551	1
Es	-0.739382	-1.750542	-0.410546	99
Es	0.125064	-0.520151	-0.443130	99
Es	-2.074421	-1.798053	-0.506571	99
Es	1.017002	-0.399076	0.797851	99
Es	-0.571210	0.841191	-0.482408	99
Es	0.554669	1.806789	-0.147793	99
Es	1.396589	1.078345	0.893749	99
Es	-0.254666	0.135747	-0.471334	99
Es	-2.397319	-2.392795	-0.484327	99
Es	0.542954	-0.495146	0.174620	99
Es	0.967894	1.933261	-0.766742	99
Es	-1.097489	0.890182	0.038930	99
Es	1.245752	1.334178	1.580467	99
Es	-0.338999	-2.362162	-0.349342	99
Es	-0.876714	0.983298	-1.138257	99
Es	-0.360939	-1.170308	-0.434853	99
Es	-1.535149	-1.729397	-0.444354	99
Es	2.123088	1.180360	0.767879	99
Es	0.300946	2.453590	0.094905	99
Es	-2.381003	-1.253022	-0.571012	99
Es	1.615310	-0.834594	0.745159	99
Es	1.224547	0.337954	0.850603	99
Es	0.982199	1.468760	0.379574	99
Es	0.570582	-0.570498	-1.032800	99
Es	-0.017308	1.337805	-0.325114	99
Es	0.644353	-0.605007	1.407099	99
Es	-1.438625	-1.780987	-0.467658	99
