45
Properties=species:S:1:pos:R:3:Z:I:1 energy=-288.0903141393188 field_type=dipole dipole="0.000000 0.000000 0.000000" charge=0
C	-1.371238	-2.546364	-0.287865	6
N	-1.476228	-1.094224	-0.225085	7
C	-0.177328	-0.455634	0.027505	6
C	0.541462	0.205396	-1.111805	6
C	-0.078468	1.052226	-0.033455	6
C	0.772092	1.725496	0.954475	6
C	1.819632	2.517176	0.691715	6
H	-2.347998	-2.975684	-0.528585	1
H	-1.046338	-2.960324	0.672505	1
H	-0.666908	-2.860094	-1.065415	1
H	-2.141338	-0.841454	0.505505	1
H	0.443562	-0.951104	0.773375	1
H	0.066052	0.212506	-2.085835	1
H	1.619422	0.105196	-1.152595	1
H	-0.975398	1.603286	-0.296765	1
H	0.501152	1.570786	1.998635	1
H	2.132373	2.714705	-0.328975	1
H	2.385492	2.978116	1.492665	1
Es	-1.476121	-1.093976	-0.224705	99
Es	-0.177473	-0.454963	0.027083	99
Es	-1.371256	-2.545894	-0.287842	99
Es	0.772021	1.725371	0.954602	99
Es	-0.078057	1.052128	-0.033374	99
Es	1.819182	2.516512	0.691959	99
Es	0.541097	0.205455	-1.111054	99
Es	-1.824871	-0.973380	0.238919	99
Es	0.301152	0.783940	-0.663741	99
Es	1.997467	2.595287	0.036774	99
Es	-2.041284	-2.841893	-0.450678	99
Es	0.358563	1.404038	0.458669	99
Es	0.242018	-0.791369	0.537129	99
Es	1.253561	0.142569	-1.131397	99
Es	-0.936779	-0.859102	-0.067704	99
Es	0.570045	1.611406	1.662927	99
Es	1.387624	2.137302	0.772090	99
Es	-1.403682	-1.708677	-0.208283	99
Es	-1.143449	-2.827104	0.373994	99
Es	-0.674362	1.406620	-0.193049	99
Es	-0.881955	-2.750990	-0.808027	99
Es	0.232560	0.210325	-1.751170	99
Es	2.179194	2.800168	1.220816	99
Es	0.223945	-0.301412	-0.631784	99
Es	-0.217359	0.344090	0.172389	99
Es	-1.592308	-0.932034	-0.568639	99
Es	1.278687	2.166595	0.825013	99
