47
Properties=species:S:1:pos:R:3:Z:I:1 energy=-305.28139405268354 field_type=dipole dipole="0.000000 0.000000 0.000000" charge=0
C	-1.336036	-2.595567	-0.845310	6
N	-1.396346	-1.299037	-0.185260	7
C	-0.108727	-0.597507	-0.203990	6
C	0.077024	0.551673	-1.157800	6
C	-0.055506	0.816633	0.320260	6
C	1.118803	1.258103	1.129600	6
N	1.112804	2.710763	1.189250	7
H	-2.330467	-3.051887	-0.848980	1
H	-0.653466	-3.273887	-0.322960	1
H	-1.011036	-2.495127	-1.885550	1
H	-1.719576	-1.426117	0.773860	1
H	0.762954	-1.217267	-0.002650	1
H	-0.756016	0.830773	-1.793430	1
H	1.046874	0.667463	-1.625700	1
H	-0.984226	1.248663	0.677890	1
H	2.062703	0.907923	0.697580	1
H	1.040474	0.850443	2.142340	1
H	1.193514	3.084444	0.244990	1
H	1.936254	3.029513	1.695860	1
Es	-1.396060	-1.298896	-0.184896	99
Es	1.112518	2.710872	1.189327	99
Es	-0.109113	-0.596785	-0.204027	99
Es	1.118220	1.258415	1.129153	99
Es	-1.336027	-2.595142	-0.845101	99
Es	-0.055036	0.816275	0.320232	99
Es	0.077211	0.551332	-1.157210	99
Es	-0.010014	-0.140035	-0.841629	99
Es	1.202345	2.892201	0.637807	99
Es	-0.838897	-1.054326	-0.158581	99
Es	1.074076	0.978307	1.816244	99
Es	-0.861163	-3.057362	-0.485242	99
Es	0.715320	0.628794	-1.455137	99
Es	-0.661026	1.088782	0.558242	99
Es	-0.468692	0.735789	-1.579963	99
Es	1.622675	2.860709	1.446372	99
Es	0.483294	-1.025724	-0.070087	99
Es	-1.326824	-1.859700	-0.438343	99
Es	1.160732	2.127729	1.136747	99
Es	-2.017045	-2.910288	-0.846403	99
Es	1.756718	1.009656	0.823183	99
Es	-1.101257	-2.520152	-1.545482	99
Es	-1.531737	-1.405698	0.381174	99
Es	0.505715	1.007885	0.691026	99
Es	0.056130	0.907603	-0.463042	99
Es	-0.095087	0.029804	0.260906	99
Es	0.775301	2.828805	1.365910	99
Es	-1.638082	-1.044082	-0.369665	99
