41
Properties=species:S:1:pos:R:3:Z:I:1 energy=-302.950761068114 field_type=dipole dipole="0.000000 0.000000 0.000000" charge=0
C	-0.200113	-2.200888	-0.405694	6
N	-0.760553	-1.016328	0.235386	7
C	0.196917	0.100102	0.272026	6
C	0.319277	0.995032	-0.928604	6
C	-0.326973	1.517482	0.328736	6
C	0.372427	2.481232	1.127356	6
N	0.945247	3.256662	1.774286	7
H	-0.950403	-2.997208	-0.423644	1
H	0.675637	-2.569968	0.137866	1
H	0.086307	-1.991208	-1.441254	1
H	-1.056043	-1.266158	1.180846	1
H	1.115627	-0.107368	0.820156	1
H	-0.322913	0.805022	-1.781314	1
H	1.309506	1.346822	-1.195934	1
H	-1.403943	1.646772	0.299786	1
Es	-0.760502	-1.016087	0.235667	99
Es	0.946123	3.257769	1.775203	99
Es	0.196495	0.100887	0.271774	99
Es	-0.326530	1.517857	0.329113	99
Es	0.371942	2.480721	1.126899	99
Es	0.319069	0.995029	-0.927499	99
Es	-0.200270	-2.200485	-0.405502	99
Es	-0.322913	-0.569194	0.282941	99
Es	0.795789	2.816358	1.460510	99
Es	-0.025229	1.424607	-0.347307	99
Es	-0.713540	-2.744141	-0.417334	99
Es	0.024370	2.033702	0.749982	99
Es	0.814212	-0.029002	0.650082	99
Es	0.970570	1.231421	-1.085651	99
Es	-0.874124	-1.166946	0.795291	99
Es	-1.017046	1.596223	0.328299	99
Es	-0.479023	-1.507627	-0.007153	99
Es	0.403093	-2.447074	-0.030682	99
Es	-0.098218	0.874557	-1.480427	99
Es	1.131073	3.471474	1.955071	99
Es	0.003835	-2.044544	-1.099475	99
Es	0.701660	2.928180	1.479992	99
Es	0.568020	2.955056	1.499024	99
Es	0.338396	0.408478	-0.441815	99
Es	-0.125822	0.864339	0.495346	99
Es	-1.071916	-0.868981	0.035566	99
