47
Properties=species:S:1:pos:R:3:Z:I:1 energy=-305.26295250452876 field_type=dipole dipole="0.000000 0.000000 0.000000" charge=0
C	-0.934518	-1.762531	-1.640766	6
N	-0.825988	-1.217471	-0.293426	7
C	0.071903	-0.054381	-0.306956	6
C	-0.697128	1.235039	-0.674366	6
N	-0.016407	1.918769	0.460944	7
C	0.131943	0.580729	1.110494	6
C	1.441813	0.443209	1.863694	6
H	-1.624448	-2.612591	-1.635176	1
H	0.034202	-2.117811	-2.008206	1
H	-1.332698	-1.022831	-2.343556	1
H	-0.517838	-1.957351	0.336624	1
H	1.042792	-0.185851	-0.798986	1
H	-1.787758	1.201699	-0.557586	1
H	-0.466928	1.655329	-1.658416	1
H	0.870412	2.345229	0.192454	1
H	-0.723358	0.345299	1.760364	1
H	2.304132	0.708309	1.242004	1
H	1.579372	-0.589461	2.201313	1
H	1.450492	1.086669	2.749554	1
Es	-0.825423	-1.217576	-0.293265	99
Es	-0.016062	1.918573	0.460776	99
Es	0.071819	-0.054372	-0.306550	99
Es	0.132293	0.581132	1.110476	99
Es	-0.696566	1.234964	-0.673883	99
Es	-0.934504	-1.762393	-1.640425	99
Es	1.441213	0.443265	1.863300	99
Es	-0.264014	1.675190	-0.029360	99
Es	0.507474	2.101210	0.275164	99
Es	1.532688	-0.260697	2.082958	99
Es	-0.340386	0.537455	-0.588997	99
Es	-1.408375	-2.349449	-1.641628	99
Es	-0.535498	1.525484	-1.344837	99
Es	0.718732	-0.146567	-0.641691	99
Es	-0.592322	-1.650646	0.043277	99
Es	0.789606	0.510106	1.486606	99
Es	-0.263328	-2.000656	-1.892843	99
Es	-0.829903	-1.462228	-0.872567	99
Es	2.018241	0.624695	1.434814	99
Es	1.448383	0.882736	2.468647	99
Es	-1.427352	1.207244	-0.591598	99
Es	-1.190196	-1.247915	-2.112845	99
Es	-0.450485	0.423284	1.536074	99
Es	0.103497	1.381981	0.732877	99
Es	-0.400301	-0.798383	-0.323961	99
Es	0.155842	0.174589	0.433661	99
Es	-1.160450	-1.057075	-0.162354	99
Es	-0.249084	2.164154	0.659518	99
