42
Properties=species:S:1:pos:R:3:Z:I:1 energy=-286.9028592755577 field_type=dipole dipole="0.000000 0.000000 0.000000" charge=0
C	-3.025748	-1.125439	0.038116	6
N	-1.570748	-1.095039	0.081286	7
C	-1.073338	0.278271	0.069526	6
C	0.370662	0.278271	0.069526	6
C	1.560822	0.278271	0.069526	6
C	2.966822	0.278271	0.069526	6
C	3.669562	1.414281	0.011726	6
H	-3.369018	-2.164569	0.054676	1
H	-3.410998	-0.658769	-0.874294	1
H	-3.458308	-0.622239	0.908296	1
H	-1.196328	-1.585099	-0.730574	1
H	-1.441028	0.815251	0.951566	1
H	-1.441138	0.807731	-0.817414	1
H	3.480032	-0.677439	0.120856	1
H	3.184522	2.384400	-0.037444	1
H	4.754232	1.393851	0.015096	1
Es	-1.569985	-1.095422	0.081851	99
Es	-1.071208	0.278248	0.069519	99
Es	2.966393	0.278083	0.069540	99
Es	-3.025258	-1.125418	0.038129	99
Es	3.669363	1.413884	0.011742	99
Es	0.370552	0.278045	0.069644	99
Es	1.562017	0.278659	0.069429	99
Es	-2.193242	-1.072584	0.020745	99
Es	3.117396	0.869603	0.032846	99
Es	-0.231471	0.290910	0.075909	99
Es	2.262616	0.305584	0.057674	99
Es	-3.285302	-0.797809	-0.588320	99
Es	1.116006	0.265839	0.076274	99
Es	-1.382156	-1.342416	-0.415490	99
Es	3.191783	-0.356276	0.101715	99
Es	-1.288275	0.629540	-0.521482	99
Es	3.310605	2.043368	-0.019899	99
Es	-1.346165	-0.482463	0.027675	99
Es	-1.298466	0.623637	0.642161	99
Es	-3.258559	-1.834770	0.046593	99
Es	4.392197	1.369986	0.014882	99
Es	-3.309572	-0.768145	0.624123	99
Es	3.279484	0.826141	0.045799	99
Es	0.964645	0.288067	0.065031	99
Es	-1.438766	-1.272215	0.404063	99
Es	1.020560	0.282868	0.064989	99
