40
Properties=species:S:1:pos:R:3:Z:I:1 energy=-269.7394535694882 field_type=dipole dipole="0.000000 0.000000 0.000000" charge=0
C	-2.654627	-0.000265	0.860210	6
C	-1.464467	-0.000265	0.860210	6
C	-0.020468	-0.000265	0.860210	6
C	0.537193	-1.219855	0.098810	6
C	0.859323	-0.668085	-1.254880	6
C	0.860173	0.668975	-1.254830	6
C	0.537343	1.219045	0.101020	6
H	-3.720307	-0.000265	0.856070	1
H	0.338003	-0.000955	1.896310	1
H	-0.177697	-2.046415	0.034760	1
H	1.457093	-1.587995	0.565570	1
H	1.082552	-1.285025	-2.114790	1
H	1.083903	1.287215	-2.113280	1
H	1.458573	1.586975	0.567630	1
H	-0.176587	2.047185	0.036980	1
Es	-0.020780	-0.000265	0.860122	99
Es	0.536757	1.218008	0.100955	99
Es	0.536605	-1.218814	0.098747	99
Es	0.860246	0.669467	-1.255221	99
Es	-1.463135	-0.000265	0.860442	99
Es	0.859393	-0.668560	-1.255261	99
Es	-2.656549	-0.000264	0.859691	99
Es	0.229053	-0.622955	0.499501	99
Es	-2.851454	-0.000294	0.840396	99
Es	0.718560	0.930341	-0.681471	99
Es	0.988055	1.099580	-1.760133	99
Es	0.195145	-0.000748	1.556403	99
Es	0.986712	-1.098352	-1.760863	99
Es	-2.487364	-0.000263	0.840172	99
Es	0.604915	0.000633	-1.310599	99
Es	-0.792151	-0.000214	0.847439	99
Es	1.144634	1.452719	0.417004	99
Es	1.143606	-1.453766	0.414682	99
Es	0.064328	-1.763825	0.065418	99
Es	0.718222	-0.930003	-0.683003	99
Es	0.229101	0.622299	0.500629	99
Es	0.064951	1.764005	0.067764	99
Es	-2.070346	-0.000303	0.881454	99
Es	-2.079694	-0.000239	0.861812	99
Es	1.097265	0.000396	-1.185986	99
