50
Properties=species:S:1:pos:R:3:Z:I:1 energy=-306.48120473185986 field_type=dipole dipole="0.000000 0.000000 0.000000" charge=0
C	-2.900314	-0.015498	0.970422	6
N	-1.448214	0.099252	1.021912	7
C	-0.833004	-0.478668	-0.176188	6
C	0.705826	-0.364128	-0.140008	6
C	1.290086	-1.105078	-1.350528	6
C	1.155466	1.109652	-0.111228	6
N	2.612016	1.239402	-0.036228	7
H	-3.333394	0.443332	1.864472	1
H	-3.218884	-1.062438	0.940472	1
H	-3.308994	0.508902	0.100702	1
H	-1.104014	-0.390208	1.848232	1
H	-1.213014	0.029752	-1.071258	1
H	-1.112524	-1.537108	-0.252578	1
H	1.071626	-0.864988	0.767092	1
H	0.981766	-0.633088	-2.289658	1
H	0.950516	-2.146318	-1.368478	1
H	2.384096	-1.121138	-1.320848	1
H	0.724566	1.625062	0.753782	1
H	0.802326	1.628442	-1.009568	1
H	2.942866	0.806722	0.824542	1
H	2.851196	2.228142	0.034942	1
Es	-1.447790	0.098625	1.021922	99
Es	2.611871	1.239390	-0.036012	99
Es	-0.832338	-0.478185	-0.175900	99
Es	-2.899943	-0.015468	0.970435	99
Es	1.155955	1.108899	-0.111209	99
Es	0.705736	-0.364234	-0.140057	99
Es	1.289707	-1.104701	-1.349957	99
Es	-1.338807	0.475714	1.027613	99
Es	2.034512	1.204082	-0.026173	99
Es	1.008438	-0.739223	-0.746089	99
Es	-3.114094	-0.738735	0.944605	99
Es	2.710699	1.814646	0.049006	99
Es	2.028584	-1.118897	-1.326975	99
Es	-1.099649	-0.134698	-0.787777	99
Es	-3.199137	0.297660	1.587149	99
Es	-1.018265	-1.207961	-0.228012	99
Es	0.861673	1.453814	0.475695	99
Es	2.767800	1.014095	0.492905	99
Es	-2.076192	-0.003956	0.991344	99
Es	-3.165969	0.331438	0.368175	99
Es	1.047553	-1.812233	-1.357790	99
Es	0.913544	1.462603	-0.723131	99
Es	1.070012	-0.775968	-1.982690	99
Es	-1.258710	-0.229415	1.492913	99
Es	0.948470	-0.694275	0.476824	99
Es	0.926420	0.368051	-0.125927	99
Es	-0.071317	-0.414710	-0.153176	99
Es	2.776668	1.072546	-0.361525	99
Es	-1.215815	-0.184619	0.543929	99
