44
Properties=species:S:1:pos:R:3:Z:I:1 energy=-304.08054285015254 field_type=dipole dipole="0.000000 0.000000 0.000000" charge=0
C	-2.098272	-1.245201	-0.141689	6
N	-0.680732	-0.910061	-0.119039	7
C	-0.460752	0.403069	0.527721	6
C	1.043547	0.809529	0.555461	6
N	1.879628	-0.311871	1.002571	7
C	1.496567	1.233699	-0.781859	6
C	1.871298	1.575629	-1.872159	6
H	-2.236822	-2.207071	-0.644959	1
H	-2.681762	-0.494431	-0.684389	1
H	-2.495722	-1.343961	0.873471	1
H	-0.334592	-0.854001	-1.079379	1
H	-0.815632	0.340999	1.564381	1
H	-1.044362	1.179889	0.017501	1
H	1.169648	1.644019	1.254771	1
H	1.601228	-1.112391	0.426751	1
H	1.569088	-0.580601	1.935091	1
H	2.217648	1.872759	-2.834239	1
Es	-0.680264	-0.909675	-0.119168	99
Es	1.878935	-0.311747	1.002516	99
Es	1.043874	0.809316	0.555152	99
Es	-0.459555	0.403023	0.527374	99
Es	-2.097832	-1.245082	-0.141694	99
Es	1.496043	1.233400	-0.780641	99
Es	1.871996	1.576204	-1.874272	99
Es	-0.466182	-1.177983	0.083240	99
Es	2.259001	-0.214849	0.972273	99
Es	1.877209	1.586936	-2.043246	99
Es	1.288721	1.047637	-0.162246	99
Es	-1.302455	-1.008628	-0.150612	99
Es	-0.705926	0.359905	1.236313	99
Es	1.813609	1.514827	-1.790938	99
Es	1.106916	1.367239	1.013336	99
Es	-0.510070	-0.841757	-0.683183	99
Es	0.324894	0.616529	0.508954	99
Es	-2.492593	-0.721588	-0.513018	99
Es	1.651882	-0.458712	1.519122	99
Es	1.689414	-0.735111	0.694782	99
Es	-2.360865	-1.295053	0.552878	99
Es	-0.854012	0.928963	0.180783	99
Es	-2.192554	-1.903631	-0.487460	99
Es	1.489341	0.123000	0.818774	99
Es	1.676551	1.452728	-1.322056	99
Es	1.738435	1.406054	-1.327555	99
Es	-0.612427	-0.336984	0.112668	99
