37
Properties=species:S:1:pos:R:3:Z:I:1 energy=-317.791113050123 field_type=dipole dipole="0.000000 0.000000 0.000000" charge=0
C	-1.340335	-0.943297	-0.255593	6
N	0.097005	-0.855067	-0.022213	7
C	0.581105	0.554442	-0.016333	6
C	0.081475	1.336742	1.139337	6
N	-0.339825	1.967232	2.020177	7
C	2.062205	0.599672	-0.064203	6
N	3.222425	0.624153	-0.151203	7
H	-1.634685	-1.996987	-0.292323	1
H	-1.621545	-0.484997	-1.209263	1
H	-1.913215	-0.476597	0.551447	1
H	0.581695	-1.362777	-0.763913	1
H	0.223695	1.037483	-0.935913	1
Es	0.097341	-0.855012	-0.022064	99
Es	3.223952	0.624235	-0.151380	99
Es	-0.340587	1.968339	2.021720	99
Es	0.581042	0.555007	-0.016886	99
Es	2.060160	0.600112	-0.063694	99
Es	0.082030	1.336434	1.138762	99
Es	-1.339788	-0.943141	-0.255438	99
Es	0.357615	-1.098761	-0.484696	99
Es	-0.151729	1.704240	1.557105	99
Es	2.665473	0.568068	-0.149704	99
Es	0.331245	0.969905	0.584194	99
Es	-1.709699	-0.610583	0.282678	99
Es	1.357409	0.601397	-0.025865	99
Es	0.360831	0.872435	-0.589778	99
Es	0.301578	-0.210733	-0.054487	99
Es	-0.494485	-0.850010	-0.161007	99
Es	-1.521852	-0.618595	-0.906996	99
Es	-0.463693	2.138439	2.281855	99
Es	3.551238	0.621107	-0.179942	99
Es	-1.533211	-1.654878	-0.282896	99
Es	-0.160844	1.645453	1.618848	99
Es	-0.109446	1.670197	1.645459	99
Es	2.701105	0.599876	-0.083436	99
Es	2.675573	0.672791	-0.089345	99
Es	0.198220	-1.003056	0.325087	99
