44
Properties=species:S:1:pos:R:3:Z:I:1 energy=-304.1219250186634 field_type=dipole dipole="0.000000 0.000000 0.000000" charge=0
C	-2.427419	-0.281313	-0.664499	6
N	-1.005979	-0.506733	-0.756579	7
C	-0.072889	0.466547	-0.561009	6
N	-0.216419	1.735357	-0.671159	7
C	1.273341	-0.031603	-0.195179	6
C	2.009301	0.558867	0.985141	6
C	1.471031	-0.836973	1.069860	6
H	-2.964019	-1.206513	-0.895469	1
H	-2.755859	0.481877	-1.377499	1
H	-2.702559	0.031087	0.347081	1
H	-0.717999	-1.439533	-0.478929	1
H	-1.172239	1.945887	-0.956849	1
H	1.885671	-0.295203	-1.052399	1
H	1.513221	1.339367	1.551430	1
H	3.079961	0.695667	0.889731	1
H	2.180311	-1.655853	1.042641	1
H	0.622541	-1.000933	1.723691	1
Es	-0.986927	-0.504763	-0.819989	99
Es	-0.216426	1.735630	-0.671042	99
Es	-0.072933	0.466347	-0.560990	99
Es	-2.426973	-0.281281	-0.664514	99
Es	1.273197	-0.031588	-0.194646	99
Es	1.471179	-0.836262	1.069365	99
Es	2.008839	0.558200	0.984667	99
Es	-0.613700	-0.090972	-0.579478	99
Es	-0.171069	1.162954	-0.705459	99
Es	0.902796	-0.940302	1.488102	99
Es	-2.637767	0.243497	-1.142159	99
Es	0.603354	0.199535	-0.361334	99
Es	2.731637	0.651387	0.919101	99
Es	-0.849267	-1.005862	-0.542144	99
Es	1.658388	-0.213624	-0.769957	99
Es	1.933870	-1.397611	1.049848	99
Es	-1.586685	-0.390024	-0.655098	99
Es	-2.605786	-0.060888	0.022802	99
Es	-0.782727	1.793102	-0.837730	99
Es	-2.787083	-0.914523	-0.818914	99
Es	1.644663	0.449574	0.290909	99
Es	1.682841	1.056499	1.353885	99
Es	-0.938252	-0.492231	-1.003926	99
Es	1.244985	-0.608608	0.367066	99
Es	1.796965	-0.156253	1.196769	99
Es	0.047820	2.003210	-0.605072	99
Es	-0.210007	1.319590	-0.565383	99
