44
Properties=species:S:1:pos:R:3:Z:I:1 energy=-304.0785988278846 field_type=dipole dipole="0.000000 0.000000 0.000000" charge=0
C	-2.419239	-0.403414	0.446569	6
N	-0.955349	-0.527893	0.470399	7
C	-0.612509	-1.958713	0.501399	6
N	-0.331709	0.191466	-0.503861	7
C	0.799371	0.689847	-0.117031	6
C	1.631651	1.496616	-1.031921	6
C	2.803851	1.990706	-0.620461	6
H	-2.706569	0.652766	0.497399	1
H	-2.870899	-0.898293	1.313389	1
H	-2.846879	-0.828744	-0.468401	1
H	-1.069889	-2.453084	1.365529	1
H	0.471051	-2.088824	0.599049	1
H	-0.934909	-2.469913	-0.412691	1
H	1.194951	0.539766	0.904809	1
H	1.247261	1.660766	-2.031770	1
H	3.185201	1.823457	0.381899	1
H	3.414621	2.583486	-1.294311	1
Es	-0.331933	0.191046	-0.503046	99
Es	-0.955093	-0.527734	0.469622	99
Es	0.799473	0.689896	-0.117045	99
Es	1.631375	1.496397	-1.031797	99
Es	-0.612567	-1.958314	0.501369	99
Es	2.803582	1.990759	-0.620591	99
Es	-2.418866	-0.403424	0.446558	99
Es	0.172230	0.425930	-0.305933	99
Es	-1.596604	-0.484068	0.403701	99
Es	2.221674	1.794706	-0.774809	99
Es	-0.934990	-2.283662	1.088708	99
Es	-2.700737	-0.703106	-0.180431	99
Es	1.222226	1.096374	-0.580304	99
Es	1.057504	0.585141	0.567790	99
Es	-0.608430	-0.176869	-0.025382	99
Es	1.359317	1.595119	-1.697725	99
Es	-0.800571	-1.138385	0.423930	99
Es	3.194290	2.385508	-1.086376	99
Es	3.037907	1.872187	0.062838	99
Es	0.128059	-2.038915	0.561829	99
Es	-0.837276	-2.304471	-0.125337	99
Es	-2.710237	-0.753710	1.037287	99
Es	-2.610496	0.318576	0.476310	99
Es	0.149775	0.383797	-0.353132	99
Es	-0.509565	0.217007	-0.850076	99
Es	2.206818	1.655954	-0.824682	99
Es	-0.826163	-0.377370	0.794753	99
