39
Properties=species:S:1:pos:R:3:Z:I:1 energy=-285.722958812371 field_type=dipole dipole="0.000000 0.000000 0.000000" charge=0
N	-0.114710	0.026186	-1.351153	7
C	-0.037700	-1.090344	-0.361243	6
C	1.202950	-0.652554	0.389937	6
C	1.168340	0.695256	0.419137	6
C	-0.093380	1.101846	-0.313273	6
C	-1.293850	0.631796	0.477417	6
C	-1.259310	-0.716904	0.448137	6
H	0.747750	0.060276	-1.888443	1
H	-0.024790	-2.074394	-0.828613	1
H	1.914490	-1.301054	0.872807	1
H	1.846510	1.357646	0.930427	1
H	-0.131410	2.104776	-0.737673	1
H	-1.996270	1.258276	1.000057	1
H	-1.928620	-1.400804	0.942477	1
Es	-0.114476	0.026195	-1.351293	99
Es	-0.093397	1.101672	-0.313267	99
Es	-0.037725	-1.090171	-0.361229	99
Es	1.203944	-0.653648	0.390633	99
Es	1.169270	0.696358	0.419876	99
Es	-1.259970	-0.717716	0.448680	99
Es	-1.294555	0.632555	0.477997	99
Es	-0.456185	0.022215	-1.571311	99
Es	-0.708990	-0.919294	0.098112	99
Es	1.629888	-1.093662	0.663214	99
Es	1.572920	1.145366	0.711974	99
Es	-1.710764	1.061345	0.775792	99
Es	-0.754728	0.876960	0.137340	99
Es	-0.045430	-0.440615	-0.918617	99
Es	-1.653641	-1.179886	0.727254	99
Es	0.609050	0.913331	0.108190	99
Es	-1.293093	-0.043116	0.470007	99
Es	1.219091	0.022542	0.387011	99
Es	-0.115401	1.782083	-0.594201	99
Es	-0.025269	-1.757894	-0.671323	99
Es	-0.068813	0.477003	-0.898490	99
Es	0.655271	-0.884963	0.069264	99
Es	0.421705	0.046004	-1.625733	99
Es	-1.291113	-0.043439	0.487687	99
Es	1.205734	0.021473	0.423956	99
