44
Properties=species:S:1:pos:R:3:Z:I:1 energy=-304.0826573291969 field_type=dipole dipole="0.000000 0.000000 0.000000" charge=0
N	-2.053053	-0.158056	-0.842703	7
C	-0.596003	-0.172316	-0.812183	6
C	-0.028303	-1.294706	0.065747	6
C	0.801817	-0.437536	1.022007	6
C	1.509787	0.636314	0.147657	6
C	0.013677	1.018723	-0.051173	6
N	-0.115013	0.705474	1.444077	7
H	-2.399783	-1.002396	-1.291693	1
H	-2.382963	0.633464	-1.390293	1
H	-0.205683	-0.229286	-1.834463	1
H	0.590936	-1.988387	-0.512583	1
H	-0.794724	-1.869437	0.597647	1
H	1.370397	-0.923826	1.815317	1
H	2.057977	0.282614	-0.730253	1
H	2.129057	1.365263	0.683507	1
H	-0.221213	2.038203	-0.362773	1
H	0.323087	1.395893	2.052157	1
Es	-2.052691	-0.158073	-0.843302	99
Es	-0.114355	0.705681	1.443875	99
Es	0.013379	1.019604	-0.051833	99
Es	0.802234	-0.438275	1.022488	99
Es	-0.596251	-0.172114	-0.811372	99
Es	1.509298	0.636395	0.148016	99
Es	-0.027992	-1.293581	0.066189	99
Es	-0.071238	0.887817	0.825779	99
Es	-1.487224	-0.167586	-0.883351	99
Es	0.399522	-1.760715	-0.324335	99
Es	0.796151	0.881153	-0.055306	99
Es	1.190032	-0.769234	1.568784	99
Es	-0.314909	0.469579	-0.426906	99
Es	-0.321147	-0.204544	-1.508710	99
Es	-0.154945	1.714451	-0.265279	99
Es	-2.204713	0.278965	-1.205813	99
Es	-2.210511	-0.632052	-1.152017	99
Es	1.880959	0.395611	-0.448066	99
Es	0.199034	1.103282	1.748724	99
Es	-0.531478	-1.676931	0.405532	99
Es	1.915958	1.122851	0.508576	99
Es	0.397264	-0.878208	0.589066	99
Es	0.290878	0.223940	1.314022	99
Es	-0.342586	-0.773370	-0.404303	99
Es	1.255122	0.036658	0.570622	99
Es	-2.159693	-0.136197	-0.469443	99
Es	-0.484519	0.597919	1.571971	99
