45
Properties=species:S:1:pos:R:3:Z:I:1 energy=-288.0923953542266 field_type=dipole dipole="0.000000 0.000000 0.000000" charge=0
N	-2.505861	-0.158257	0.087877	7
C	-1.114021	-0.054507	-0.332313	6
C	-0.385061	0.954933	0.578347	6
C	0.710159	-0.112267	0.816047	6
C	-0.300941	-1.182407	0.328367	6
C	1.994529	-0.034287	0.060457	6
C	2.119739	0.519163	-1.151883	6
H	-2.995921	-0.952877	-0.321493	1
H	-3.064051	0.663093	-0.142753	1
H	-0.953161	0.074023	-1.406433	1
H	-0.912171	1.226433	1.502807	1
H	-0.076391	1.885683	0.092487	1
H	0.940279	-0.222977	1.884567	1
H	0.086599	-1.937047	-0.363813	1
H	-0.792581	-1.706507	1.158036	1
H	2.868829	-0.465127	0.542957	1
H	1.291759	0.964513	-1.689403	1
H	3.088259	0.538423	-1.643853	1
Es	-2.505815	-0.158165	0.087182	99
Es	-1.114472	-0.054596	-0.331557	99
Es	1.995343	-0.034587	0.060662	99
Es	0.710307	-0.112347	0.815936	99
Es	2.119638	0.519089	-1.151759	99
Es	-0.300393	-1.181800	0.328225	99
Es	-0.384884	0.954616	0.578493	99
Es	-2.468813	-0.200538	0.476870	99
Es	0.226897	0.488743	0.734736	99
Es	2.571902	-0.333635	0.407034	99
Es	-0.043241	-1.687722	-0.126296	99
Es	0.872950	-0.195709	1.532002	99
Es	-1.001869	0.032328	-1.062658	99
Es	1.536313	0.780932	-1.450110	99
Es	-1.990034	-0.111558	-0.149369	99
Es	-0.174876	1.578175	0.247251	99
Es	-2.803417	0.306411	-0.107506	99
Es	2.777703	0.533359	-1.483373	99
Es	1.372399	-0.055829	0.401132	99
Es	-0.641292	-1.522618	0.878392	99
Es	2.029529	0.248905	-0.630206	99
Es	0.294396	-0.700435	0.583791	99
Es	-0.737610	1.131638	1.183724	99
Es	-0.806415	0.519249	0.094319	99
Es	-0.756850	-0.687213	-0.056211	99
Es	-2.765432	-0.590948	-0.206492	99
Es	2.075202	0.289710	-0.558167	99
