44
Properties=species:S:1:pos:R:3:Z:I:1 energy=-304.1250516542169 field_type=dipole dipole="0.000000 0.000000 0.000000" charge=0
N	-1.926395	0.415539	-0.604227	7
C	-0.472945	0.396899	-0.568937	6
C	0.140435	1.493119	0.314663	6
N	1.513664	1.030869	0.596753	7
C	1.359125	-0.421031	0.811453	6
C	0.128865	-0.830741	0.050733	6
C	-0.352475	-2.082931	0.018993	6
H	-2.249455	-0.275441	-1.278767	1
H	-2.245235	1.319549	-0.946237	1
H	-0.082695	0.501819	-1.590017	1
H	-0.404585	1.609979	1.260243	1
H	0.149105	2.465289	-0.188547	1
H	2.076215	1.158239	-0.244307	1
H	2.250605	-0.948481	0.459403	1
H	1.229325	-0.613471	1.881593	1
H	-1.266405	-2.327611	-0.510637	1
H	0.152855	-2.891591	0.537843	1
Es	-1.926004	0.415713	-0.604816	99
Es	1.513557	1.030704	0.596489	99
Es	-0.473394	0.396778	-0.568826	99
Es	0.140822	1.492361	0.314287	99
Es	1.358811	-0.420561	0.811225	99
Es	0.128712	-0.830987	0.050661	99
Es	-0.351594	-2.080660	0.018937	99
Es	1.796502	1.073661	0.076814	99
Es	-1.370891	0.413612	-0.639467	99
Es	-0.188251	-0.239918	-0.260004	99
Es	-0.202323	0.934236	-0.138643	99
Es	0.023989	-2.553502	0.369834	99
Es	1.954879	-0.783206	0.571025	99
Es	-0.193444	0.464700	-1.257335	99
Es	-0.214793	-1.654790	0.017784	99
Es	-2.069103	0.932014	-0.849987	99
Es	-2.072891	0.041849	-1.028941	99
Es	1.254612	-0.558285	1.524330	99
Es	-0.901686	-2.093673	-0.321082	99
Es	-0.229470	1.561122	0.948514	99
Es	0.950855	1.197316	0.446819	99
Es	1.432021	0.431488	0.637799	99
Es	0.147254	2.150270	-0.036695	99
Es	0.739922	-0.662259	0.421939	99
Es	-2.031726	0.340129	-0.236402	99
Es	1.671184	1.214617	0.910257	99
Es	-0.117299	-1.499461	0.008525	99
