38
Properties=species:S:1:pos:R:3:Z:I:1 energy=-301.7972685172118 field_type=dipole dipole="0.000000 0.000000 0.000000" charge=0
N	-3.462158	-0.051209	0.089938	7
C	-2.311148	-0.051209	0.089938	6
C	-0.905148	-0.051209	0.089938	6
C	-0.128548	-1.135519	0.031158	6
C	1.304242	-0.746849	0.032298	6
N	1.322262	0.725571	-0.051412	7
C	-0.073907	1.178271	0.134848	6
H	-0.472668	-2.159569	-0.005202	1
H	1.793452	-1.076339	0.954108	1
H	1.831762	-1.184119	-0.821252	1
H	1.618722	0.986131	-0.992072	1
H	-0.348318	1.884951	-0.655772	1
H	-0.168548	1.681101	1.103488	1
Es	-3.463966	-0.051338	0.089932	99
Es	1.321992	0.725390	-0.051671	99
Es	-0.073928	1.177704	0.134852	99
Es	-0.905717	-0.051125	0.089968	99
Es	1.303611	-0.746607	0.032332	99
Es	-2.306961	-0.050938	0.089946	99
Es	-0.128521	-1.139971	0.030848	99
Es	1.450050	0.844854	-0.610246	99
Es	-2.864391	-0.078921	0.082209	99
Es	-0.429547	-0.769536	0.051141	99
Es	0.332393	-1.077102	0.029685	99
Es	-1.650668	-0.043716	0.086329	99
Es	1.616517	-0.970109	0.644000	99
Es	-0.302536	-1.459875	0.013773	99
Es	-0.260899	1.648377	-0.399639	99
Es	1.288928	0.093887	-0.052543	99
Es	1.654692	-1.037146	-0.535813	99
Es	0.715812	0.878484	-0.016832	99
Es	-0.567108	0.529339	0.107488	99
Es	-3.781590	-0.067898	0.087155	99
Es	-0.147971	1.503407	0.789702	99
Es	-2.931128	-0.055076	0.095896	99
Es	-2.934999	-0.055494	0.089666	99
Es	1.557286	0.883609	0.221395	99
Es	-0.610384	-0.531869	0.073088	99
