47
Properties=species:S:1:pos:R:3:Z:I:1 energy=-305.286200939358 field_type=dipole dipole="0.000000 0.000000 0.000000" charge=0
N	-0.874797	-2.130314	-1.467269	7
C	-0.690257	-1.653794	-0.101079	6
C	0.156103	-0.389404	-0.091279	6
C	-0.497837	0.911206	-0.635619	6
C	0.091173	1.676436	0.565481	6
N	1.401263	2.217896	0.202771	7
C	0.275513	0.324326	1.282571	6
H	-1.437387	-2.980144	-1.455099	1
H	0.026593	-2.394504	-1.862989	1
H	-0.202447	-2.436203	0.490721	1
H	-1.672717	-1.467594	0.346431	1
H	1.146373	-0.572544	-0.534309	1
H	-1.595147	0.891966	-0.626569	1
H	-0.174757	1.221287	-1.634679	1
H	-0.574677	2.393527	1.051541	1
H	2.004773	1.586316	-0.321409	1
H	1.948013	2.539056	0.999811	1
H	1.217043	0.164836	1.817921	1
H	-0.546827	0.097646	1.973051	1
Es	-0.874656	-2.130336	-1.467039	99
Es	1.401068	2.218045	0.202671	99
Es	0.091375	1.676585	0.565479	99
Es	-0.689921	-1.653432	-0.101735	99
Es	0.155642	-0.390007	-0.091010	99
Es	-0.497248	0.911101	-0.634842	99
Es	0.275419	0.324511	1.281942	99
Es	0.918655	1.948247	0.382124	99
Es	-0.778446	-1.987435	-0.912343	99
Es	-0.187888	0.205754	-0.458157	99
Es	-0.355313	2.177906	0.905126	99
Es	-0.276160	1.121123	-1.302511	99
Es	-0.341196	-2.312129	-1.652817	99
Es	1.705614	2.335438	0.685812	99
Es	-0.218610	1.375889	-0.069319	99
Es	0.916117	0.223764	1.651714	99
Es	0.807384	-0.522776	-0.385064	99
Es	-1.163174	-2.643508	-1.420448	99
Es	-0.352041	-2.188004	0.316521	99
Es	1.726353	1.816121	-0.042157	99
Es	-0.280693	0.164481	1.737679	99
Es	-1.354142	-1.523320	0.200350	99
Es	0.190719	1.031309	1.001126	99
Es	-1.230772	0.896140	-0.620438	99
Es	-0.263009	-1.006767	-0.099829	99
Es	0.241803	-0.122811	0.653469	99
Es	-1.050802	-1.839800	-1.678049	99
Es	1.323019	2.532157	-0.035171	99
