37
Properties=species:S:1:pos:R:3:Z:I:1 energy=-317.77789032584155 field_type=dipole dipole="0.000000 0.000000 0.000000" charge=0
N	-3.467985	-0.496821	0.064167	7
C	-2.306265	-0.465801	0.097047	6
C	-0.877925	-0.363771	0.127757	6
N	-0.187465	-1.459391	0.139037	7
N	1.107705	-1.050071	0.208197	7
C	1.253255	0.352529	-0.178433	6
C	-0.121615	0.911589	0.149967	6
H	1.751315	-1.677271	-0.279693	1
H	1.451985	0.429289	-1.253393	1
H	2.053985	0.855489	0.370017	1
H	-0.487595	1.618469	-0.597643	1
H	-0.169395	1.345759	1.152977	1
Es	-0.186892	-1.459146	0.139076	99
Es	1.107326	-1.050390	0.208440	99
Es	-3.469822	-0.496909	0.064180	99
Es	-0.878242	-0.363499	0.127778	99
Es	1.252365	0.352134	-0.178004	99
Es	-2.303565	-0.465595	0.097069	99
Es	-0.121748	0.910800	0.149892	99
Es	1.140890	-1.054774	0.578907	99
Es	-2.927955	-0.500704	0.043356	99
Es	-0.467324	-0.971779	0.188243	99
Es	0.565980	0.661042	-0.014652	99
Es	-1.640656	-0.413235	0.105879	99
Es	-0.149943	1.188497	0.809307	99
Es	1.144648	-0.498228	-0.010320	99
Es	1.795879	0.686338	0.191430	99
Es	0.455862	-1.209277	0.111864	99
Es	-0.366501	1.374525	-0.340209	99
Es	-0.551758	0.281148	0.139934	99
Es	1.381819	0.401576	-0.909990	99
Es	-3.791858	-0.517658	0.064947	99
Es	-0.580881	-0.902194	0.076477	99
Es	-0.290557	-1.816091	0.120742	99
Es	-2.931516	-0.483186	0.107832	99
Es	-2.932894	-0.449228	0.080270	99
Es	1.418032	-1.380848	-0.126101	99
