47
Properties=species:S:1:pos:R:3:Z:I:1 energy=-305.284737292046 field_type=dipole dipole="0.000000 0.000000 0.000000" charge=0
N	-3.091966	0.451841	-0.117941	7
C	-1.745376	0.178061	-0.604661	6
C	-0.832996	-0.250859	0.544049	6
C	0.556114	-0.573499	0.009229	6
C	1.455314	0.609551	-0.423411	6
C	2.576643	-0.169739	0.282979	6
N	1.532173	-0.818599	1.106269	7
H	-3.662606	0.814421	-0.880301	1
H	-3.058696	1.185421	0.589279	1
H	-1.346496	1.074211	-1.092541	1
H	-1.792676	-0.610999	-1.363191	1
H	-1.252406	-1.138459	1.035299	1
H	-0.785236	0.544161	1.299839	1
H	0.540664	-1.390259	-0.726421	1
H	1.215374	1.569811	0.048549	1
H	1.576243	0.755481	-1.499501	1
H	3.120564	-0.864119	-0.368121	1
H	3.294724	0.434521	0.843179	1
H	1.700644	-1.800949	1.317419	1
Es	1.532328	-0.819217	1.105862	99
Es	-3.092051	0.451691	-0.117809	99
Es	0.555661	-0.573078	0.009945	99
Es	2.575771	-0.169687	0.283223	99
Es	-1.745586	0.178002	-0.603843	99
Es	1.455226	0.608837	-0.423055	99
Es	-0.832842	-0.250823	0.543621	99
Es	2.007257	-0.619756	0.754476	99
Es	-3.040487	0.908628	0.255097	99
Es	-1.293072	-0.035169	-0.028800	99
Es	2.076135	0.265029	-0.108480	99
Es	0.928936	0.068968	-0.269408	99
Es	-1.108138	-0.850048	0.870734	99
Es	0.541576	-1.131738	-0.490587	99
Es	1.638517	-1.405610	1.181165	99
Es	-3.379472	0.702063	-0.569949	99
Es	-1.460146	0.793503	-0.939136	99
Es	3.074980	0.241456	0.665243	99
Es	-2.553368	0.393358	-0.323829	99
Es	1.530868	0.708130	-1.152151	99
Es	2.940674	-0.646857	-0.167436	99
Es	1.294877	1.249587	-0.107454	99
Es	-0.799735	0.289759	1.048176	99
Es	-1.776786	-0.360366	-1.126922	99
Es	1.127080	-0.786514	0.662882	99
Es	-0.133389	-0.408890	0.269395	99
Es	-3.244044	0.114454	0.030910	99
Es	1.439152	-0.583341	1.407897	99
