44
Properties=species:S:1:pos:R:3:Z:I:1 energy=-304.0926748263024 field_type=dipole dipole="0.000000 0.000000 0.000000" charge=0
N	-1.003082	-1.726055	1.182880	7
C	-1.112572	-1.007135	-0.083130	6
C	-0.481622	0.363845	0.014060	6
C	-1.247122	1.468615	-0.071610	6
C	0.981068	0.382925	0.206920	6
C	1.877068	0.148295	-0.983680	6
N	1.762548	1.471005	-0.386740	7
H	-1.488232	-2.617315	1.096880	1
H	-1.508882	-1.199685	1.894730	1
H	-2.170982	-0.938155	-0.361010	1
H	-0.617162	-1.584875	-0.871510	1
H	-2.320662	1.418135	-0.213590	1
H	-0.800302	2.456615	-0.007090	1
H	1.319668	0.024615	1.174370	1
H	1.433118	0.037135	-1.965140	1
H	2.809918	-0.378845	-0.831050	1
H	2.567228	1.680885	0.204710	1
Es	1.762908	1.470395	-0.386306	99
Es	-1.002683	-1.726020	1.182974	99
Es	0.981146	0.383356	0.206400	99
Es	1.876801	0.148773	-0.983132	99
Es	-1.112241	-1.006887	-0.082599	99
Es	-0.481783	0.363987	0.014022	99
Es	-1.245128	1.465788	-0.070972	99
Es	1.564294	1.749297	-0.568890	99
Es	-0.617656	-1.775364	1.282880	99
Es	-0.881449	1.968039	-0.005470	99
Es	0.250499	0.410044	0.117053	99
Es	-1.328551	-2.211307	1.110880	99
Es	2.511897	-0.215649	-0.872318	99
Es	1.202147	0.152794	0.860242	99
Es	1.888704	0.911894	-0.667367	99
Es	-1.335359	-1.421904	1.559433	99
Es	-0.971451	1.115185	-0.012842	99
Es	-1.829504	-0.948186	-0.274587	99
Es	-1.921201	1.373330	-0.136323	99
Es	-0.777169	-1.395550	-0.615582	99
Es	1.578585	0.080468	-1.641568	99
Es	-0.779180	-0.314888	-0.043134	99
Es	1.334408	0.061156	-0.417432	99
Es	2.226917	1.535758	-0.024621	99
Es	-1.090763	-1.426612	0.676035	99
Es	1.430102	1.105865	-0.070753	99
Es	-0.865315	0.913943	-0.093182	99
