41
Properties=species:S:1:pos:R:3:Z:I:1 energy=-302.88570070078134 field_type=dipole dipole="0.000000 0.000000 0.000000" charge=0
N	-1.930526	-2.351457	0.320111	7
C	-0.476776	-2.329387	0.264971	6
C	0.005244	-0.968217	0.264971	6
C	0.402524	0.153682	0.264971	6
C	1.003434	1.451692	0.325691	6
C	0.961444	2.338372	-0.890629	6
N	0.147944	2.633632	0.281211	7
H	-2.256986	-3.304317	0.179971	1
H	-2.298076	-1.800977	-0.454629	1
H	-0.141256	-2.850427	-0.638069	1
H	-0.078656	-2.878287	1.124341	1
H	1.880494	1.530313	0.961501	1
H	0.420534	2.003732	-1.766589	1
H	1.803994	2.990433	-1.080659	1
H	0.556664	3.381213	0.842831	1
Es	0.148445	2.633441	0.281320	99
Es	-1.930559	-2.351116	0.320616	99
Es	1.003096	1.451612	0.325633	99
Es	-0.476642	-2.328349	0.264958	99
Es	0.961001	2.337227	-0.889599	99
Es	0.402805	0.154741	0.264729	99
Es	0.001732	-0.981157	0.265131	99
Es	0.468407	2.132861	0.400625	99
Es	-1.318656	-2.352036	0.243051	99
Es	-0.011805	-1.270615	0.371943	99
Es	0.121824	-0.831511	0.344510	99
Es	0.440949	3.042654	0.595628	99
Es	1.537679	2.765075	-1.006257	99
Es	1.569795	1.472365	0.757414	99
Es	-2.110686	-2.064456	-0.154083	99
Es	0.645226	0.809748	0.227326	99
Es	-0.234861	-2.630577	-0.332214	99
Es	-2.072986	-2.895859	0.197329	99
Es	-0.207819	-2.658692	0.824136	99
Es	0.592643	2.107370	-1.467792	99
Es	1.103581	1.712982	-0.378878	99
Es	0.500674	2.588281	-0.250463	99
Es	-0.231814	2.569072	0.270063	99
Es	-2.041093	-2.200942	0.667771	99
Es	0.126139	-0.371624	0.286070	99
Es	0.189160	-0.334451	0.081969	99
