45
Properties=species:S:1:pos:R:3:Z:I:1 energy=-288.1142354881005 field_type=dipole dipole="0.000000 0.000000 0.000000" charge=0
N	-1.358872	-0.250946	1.804792	7
C	-0.328002	-0.004846	0.791752	6
C	-0.719501	-0.695706	-0.536138	6
C	0.352458	-0.613536	-1.593878	6
C	0.970438	-1.676076	-2.127228	6
C	-0.194192	1.487324	0.645492	6
C	0.931898	2.176014	0.874432	6
H	-1.047092	0.156584	2.685942	1
H	-1.429892	-1.253406	1.970192	1
H	0.613628	-0.437666	1.153362	1
H	-1.636162	-0.247916	-0.942008	1
H	-0.954292	-1.750386	-0.336758	1
H	0.617578	0.381364	-1.946538	1
H	0.735838	-2.689726	-1.819528	1
H	1.728248	-1.547726	-2.894458	1
H	-1.086092	2.026994	0.331882	1
H	1.847758	1.685344	1.188752	1
H	0.956248	3.254304	0.749942	1
Es	-1.358423	-0.251137	1.804889	99
Es	-0.328122	-0.004592	0.791648	99
Es	0.352503	-0.613500	-1.593930	99
Es	-0.194029	1.487582	0.645483	99
Es	-0.719020	-0.695599	-0.536453	99
Es	0.931674	2.175782	0.874428	99
Es	0.970036	-1.675503	-2.127160	99
Es	-0.913379	-0.172623	1.423073	99
Es	0.774226	-2.318138	-1.906377	99
Es	0.501785	1.870896	0.797989	99
Es	-0.876984	-1.398588	-0.388703	99
Es	0.306478	-0.294104	1.026365	99
Es	1.420230	1.817683	1.056015	99
Es	0.509533	0.071211	-1.818217	99
Es	-1.131634	-0.044344	2.302956	99
Es	-1.341913	-0.832550	1.903851	99
Es	0.655353	-1.220747	-1.907614	99
Es	0.948475	2.861815	0.795062	99
Es	1.475346	-1.573073	-2.632678	99
Es	-0.151186	-0.662246	-1.081060	99
Es	-1.317748	-0.382367	-0.791571	99
Es	-0.509707	-0.354098	0.098867	99
Es	-0.236367	0.795971	0.711674	99
Es	-0.810769	1.808867	0.435596	99
Es	-1.699854	-0.092283	1.676353	99
Es	0.389449	1.840001	0.751410	99
Es	0.719858	-1.160938	-1.822479	99
