45
Properties=species:S:1:pos:R:3:Z:I:1 energy=-288.1226783671917 field_type=dipole dipole="0.000000 0.000000 0.000000" charge=0
N	-3.334553	-0.871112	0.222982	7
C	-1.892693	-1.007182	0.420562	6
C	-1.201213	0.360708	0.400802	6
C	0.283037	0.230138	0.610112	6
C	1.199097	0.599528	-0.297458	6
C	2.618097	0.473708	-0.070198	6
C	3.535477	0.848668	-0.969058	6
H	-3.756913	-1.798432	0.192462	1
H	-3.515363	-0.447682	-0.686698	1
H	-1.482053	-1.651112	-0.365648	1
H	-1.714803	-1.505552	1.380472	1
H	-1.607513	0.995548	1.197552	1
H	-1.412513	0.868678	-0.548238	1
H	0.596716	-0.178412	1.568982	1
H	0.879157	1.015448	-1.251008	1
H	2.948057	0.056118	0.878932	1
H	3.264177	1.272918	-1.930458	1
H	4.593807	0.738028	-0.754098	1
Es	-3.334713	-0.870889	0.223238	99
Es	-1.892982	-1.006487	0.420427	99
Es	2.618187	0.473491	-0.069761	99
Es	0.283024	0.230013	0.610463	99
Es	1.199175	0.599641	-0.297533	99
Es	-1.200646	0.360633	0.400886	99
Es	3.535101	0.848437	-0.968556	99
Es	-3.403536	-0.663712	-0.326079	99
Es	3.092811	0.685344	-0.567489	99
Es	3.333637	1.124224	-1.603366	99
Es	-1.525571	-0.302324	0.404620	99
Es	-2.755024	-0.948821	0.258905	99
Es	0.466307	-0.046591	1.235142	99
Es	0.968956	0.891701	-0.929395	99
Es	-3.536671	-1.421419	0.164559	99
Es	4.219774	0.769247	-0.802744	99
Es	-1.604166	-1.444060	-0.116500	99
Es	1.912775	0.533366	-0.172310	99
Es	-1.340625	0.688546	-0.237343	99
Es	-0.378195	0.291390	0.492788	99
Es	-1.473449	0.779060	0.926931	99
Es	2.826287	0.187234	0.580781	99
Es	-1.769890	-1.349422	1.073756	99
Es	0.737974	0.337054	0.135321	99
Es	3.058662	0.661070	-0.529222	99
Es	-3.487180	-0.649136	0.517610	99
Es	0.802530	0.483191	0.162724	99
