45
Properties=species:S:1:pos:R:3:Z:I:1 energy=-288.11850269204507 field_type=dipole dipole="0.000000 0.000000 0.000000" charge=0
N	-2.752478	-0.363297	-0.146322	7
C	-1.321068	-0.674197	-0.175672	6
C	-0.480938	0.597273	-0.355062	6
C	1.007672	0.306483	-0.385322	6
C	1.655332	0.221853	-1.560482	6
C	1.758571	0.151613	0.853378	6
C	1.271631	0.223303	2.099178	6
H	-3.280578	-1.233907	-0.089022	1
H	-3.023498	0.076063	-1.025672	1
H	-1.127588	-1.372047	-0.998962	1
H	-1.058048	-1.186177	0.755858	1
H	-0.711788	1.329193	0.428878	1
H	-0.777208	1.085513	-1.294262	1
H	1.132242	0.342463	-2.503802	1
H	2.722131	0.027943	-1.621752	1
H	2.827082	-0.036797	0.749598	1
H	0.226072	0.408973	2.318248	1
H	1.932462	0.095753	2.951198	1
Es	-2.752469	-0.363247	-0.146221	99
Es	-1.321143	-0.673480	-0.175805	99
Es	1.007783	0.306389	-0.385361	99
Es	1.759224	0.151512	0.853199	99
Es	-0.480647	0.597101	-0.355090	99
Es	1.271614	0.223331	2.099117	99
Es	1.662744	0.220235	-1.563004	99
Es	-2.188118	-0.509311	-0.202000	99
Es	0.565503	0.341362	2.203416	99
Es	-0.631568	1.078070	0.178297	99
Es	1.831053	0.166418	-1.452379	99
Es	-1.144928	-1.019972	0.455817	99
Es	2.398143	0.024302	0.676045	99
Es	1.447505	0.210116	0.338650	99
Es	1.639249	0.203870	-1.305360	99
Es	-3.026196	-0.886151	-0.159722	99
Es	1.470640	0.184440	1.498318	99
Es	-1.178561	-1.150647	-0.741066	99
Es	-2.884073	-0.149441	-0.682250	99
Es	1.513901	0.260004	-1.975743	99
Es	1.727597	0.141325	2.662715	99
Es	-0.876052	-0.028618	-0.267522	99
Es	-0.678217	0.917221	-0.993994	99
Es	0.287507	0.444109	-0.371924	99
Es	1.508037	0.207165	1.455998	99
Es	-2.824087	-0.124145	0.165513	99
Es	1.363593	0.289246	-0.949337	99
