38
Properties=species:S:1:pos:R:3:Z:I:1 energy=-301.80079715992474 field_type=dipole dipole="0.000000 0.000000 0.000000" charge=0
N	-1.613431	0.517817	0.082657	7
C	-0.231681	0.407447	0.061277	6
C	0.328219	-0.930763	-0.125473	6
C	-0.336791	-2.001953	-0.582463	6
C	0.551489	1.491387	0.231857	6
C	1.957489	1.491387	0.231857	6
N	3.108499	1.491387	0.231857	7
H	-1.963591	1.367427	0.516177	1
H	-2.068411	-0.309893	0.462057	1
H	1.383539	-1.071983	0.106847	1
H	-1.377871	-1.961613	-0.883613	1
H	0.172749	-2.953753	-0.698523	1
H	0.089789	2.463107	0.365487	1
Es	-1.614149	0.517980	0.080903	99
Es	3.110206	1.491407	0.231866	99
Es	-0.231767	0.407416	0.061278	99
Es	0.328221	-0.930496	-0.125446	99
Es	-0.337826	-2.001796	-0.582685	99
Es	1.957205	1.491381	0.231865	99
Es	0.550359	1.488471	0.231609	99
Es	-1.686162	0.530909	-0.276222	99
Es	2.548734	1.446939	0.250864	99
Es	-0.141761	-1.584489	-0.328093	99
Es	0.221331	2.110060	0.330077	99
Es	-0.094514	-2.500002	-0.646274	99
Es	1.288651	1.456373	0.225805	99
Es	-1.753307	0.961121	0.377133	99
Es	0.216656	0.955801	0.187279	99
Es	-1.795792	0.082800	0.356013	99
Es	-0.860326	-1.989204	-0.686001	99
Es	1.020447	-0.939972	0.033846	99
Es	-1.037013	0.487408	0.138548	99
Es	3.447046	1.491797	0.230415	99
Es	0.063046	-0.306294	-0.050826	99
Es	2.607579	1.483502	0.209330	99
Es	2.571201	1.510366	0.235231	99
Es	0.028234	-1.369457	-0.422736	99
Es	0.346599	1.071232	0.118975	99
