44
Properties=species:S:1:pos:R:3:Z:I:1 energy=-304.0825224427119 field_type=dipole dipole="0.000000 0.000000 0.000000" charge=0
N	-1.062006	-2.074230	-0.996577	7
C	-1.639667	-1.369501	0.154043	6
C	-1.151447	0.089280	0.255203	6
N	0.312704	0.172889	0.162253	7
C	0.758314	1.559459	0.259753	6
C	2.222814	1.611429	0.164653	6
C	3.421063	1.656909	0.091473	6
H	-1.424476	-3.027061	-1.010267	1
H	-0.059797	-2.170161	-0.824317	1
H	-1.370697	-1.911620	1.068183	1
H	-2.731776	-1.380240	0.073713	1
H	-1.497277	0.507470	1.207693	1
H	-1.607677	0.671769	-0.555227	1
H	0.581404	-0.183221	-0.756177	1
H	0.444873	1.992440	1.216583	1
H	0.319374	2.162839	-0.543347	1
H	4.484273	1.691550	0.032363	1
Es	0.312760	0.172749	0.162134	99
Es	-1.061962	-2.074145	-0.996682	99
Es	0.759185	1.559127	0.259646	99
Es	-1.151156	0.088503	0.255149	99
Es	-1.639111	-1.369291	0.153521	99
Es	2.221897	1.611454	0.164679	99
Es	3.422244	1.656787	0.091488	99
Es	0.477662	-0.051792	0.445979	99
Es	-1.137182	-1.867554	-1.333692	99
Es	3.684580	1.647531	0.052525	99
Es	-1.378411	-0.641134	0.196106	99
Es	0.562812	1.843254	0.893988	99
Es	-1.460187	0.491895	-0.299051	99
Es	3.184941	1.604690	0.093530	99
Es	-1.257537	-2.627600	-0.948406	99
Es	-1.453935	-1.731173	0.783990	99
Es	1.547456	1.596841	0.213557	99
Es	0.481962	1.965404	-0.284003	99
Es	0.487522	0.789085	0.166709	99
Es	-0.500144	-2.145794	-0.856671	99
Es	-1.380486	0.382436	0.905702	99
Es	-0.305350	0.172504	0.164955	99
Es	-2.380767	-1.369109	0.098770	99
Es	-1.271500	-1.823785	-0.510203	99
Es	2.824249	1.680075	0.153841	99
Es	2.844835	1.638362	0.123055	99
Es	0.441924	0.004888	-0.383542	99
