44
Properties=species:S:1:pos:R:3:Z:I:1 energy=-304.15325208925776 field_type=dipole dipole="0.000000 0.000000 0.000000" charge=0
N	-0.657417	-2.843416	-0.160474	7
C	-0.959427	-1.716966	0.380306	6
N	-0.323897	-0.537576	0.162696	7
C	-0.701937	0.729804	0.761006	6
C	0.071723	1.764294	-0.050924	6
C	1.329263	1.011054	-0.452404	6
C	0.808663	-0.394666	-0.740494	6
H	-1.299587	-3.565956	0.180966	1
H	-1.800847	-1.640686	1.092036	1
H	-0.393947	0.749964	1.812236	1
H	-1.780657	0.908614	0.703586	1
H	-0.498327	2.043424	-0.945454	1
H	0.281983	2.673104	0.519436	1
H	1.836343	1.454764	-1.313264	1
H	2.033893	0.986254	0.387336	1
H	0.469353	-0.476966	-1.779314	1
H	1.584813	-1.145046	-0.557274	1
Es	-0.323664	-0.537034	0.162589	99
Es	-0.656975	-2.843780	-0.160985	99
Es	-0.959703	-1.715881	0.380843	99
Es	-0.701289	0.730042	0.760116	99
Es	0.808646	-0.393724	-0.739844	99
Es	0.071933	1.763682	-0.050520	99
Es	1.328536	1.010924	-0.452545	99
Es	-0.625438	-1.079516	0.261137	99
Es	-0.796696	-2.309831	0.100226	99
Es	0.711001	1.430270	-0.256486	99
Es	1.327571	-0.904994	-0.611981	99
Es	-0.508039	-0.001720	0.412013	99
Es	1.807554	0.995153	0.118514	99
Es	-1.441531	0.837948	0.721666	99
Es	-1.507766	-1.632461	0.854526	99
Es	0.570419	-0.447875	-1.448946	99
Es	-1.052489	-3.209916	0.069921	99
Es	-0.489705	0.738058	1.485959	99
Es	-0.312808	1.952475	-0.656028	99
Es	0.209386	2.375095	0.339175	99
Es	0.156288	-0.490871	-0.216303	99
Es	-0.326363	1.233460	0.360758	99
Es	1.069666	0.302398	-0.592228	99
Es	1.668569	1.303648	-1.037870	99
Es	-0.362593	-0.642014	0.200120	99
Es	-0.378149	-2.936198	-0.416664	99
Es	-0.785664	-2.503542	0.026423	99
