41
Properties=species:S:1:pos:R:3:Z:I:1 energy=-302.9284703082205 field_type=dipole dipole="0.000000 0.000000 0.000000" charge=0
N	-1.889220	-1.599834	0.619376	7
N	-0.659010	-1.645014	0.057016	7
C	-0.032370	-0.506104	-0.007554	6
C	1.343040	-0.437694	-0.629504	6
C	1.591900	1.031366	-0.533374	6
C	0.599650	1.702176	0.061236	6
C	-0.534380	0.831466	0.494236	6
H	-2.209250	-2.556364	0.794866	1
H	-2.572140	-1.222564	-0.044374	1
H	1.315530	-0.783934	-1.664544	1
H	2.060770	-1.013394	-0.039794	1
H	2.494840	1.494246	-0.911854	1
H	0.602990	2.772366	0.222166	1
H	-0.644300	0.822266	1.581556	1
H	-1.468050	1.111016	0.000546	1
Es	-0.659227	-1.645186	0.057127	99
Es	-1.889025	-1.600043	0.618883	99
Es	-0.032292	-0.506085	-0.007611	99
Es	-0.534001	0.831502	0.494054	99
Es	0.599581	1.702902	0.061379	99
Es	1.342574	-0.437508	-0.629232	99
Es	1.592209	1.031347	-0.533527	99
Es	-1.321398	-1.590939	0.325559	99
Es	1.095924	1.359402	-0.232914	99
Es	-0.391470	-1.120504	0.075989	99
Es	0.090018	1.330869	0.257166	99
Es	1.480951	0.356667	-0.580353	99
Es	2.175305	1.310561	-0.780945	99
Es	-2.235502	-1.409777	0.207599	99
Es	-1.873419	-1.368818	0.947935	99
Es	-2.060829	-2.157874	0.659666	99
Es	-1.147613	1.008029	0.171986	99
Es	-0.310460	0.165749	0.253879	99
Es	1.803454	-0.818096	-0.238536	99
Es	0.565509	2.375609	0.179032	99
Es	1.317393	-0.667350	-1.303580	99
Es	-0.606864	0.820243	1.192829	99
Es	0.667960	-0.488220	-0.329246	99
Es	-0.509074	-1.992358	-0.066375	99
Es	1.090072	1.369955	-0.239499	99
Es	-0.431476	-1.178310	-0.003770	99
