44
Properties=species:S:1:pos:R:3:Z:I:1 energy=-307.9073629641579 field_type=dipole dipole="0.000000 0.000000 0.000000" charge=0
C	-2.466951	0.544595	0.283994	6
C	-1.593611	0.960485	-0.863546	6
C	-0.978271	0.652245	0.472804	6
O	-0.286911	-0.607465	0.569044	8
C	1.130839	-0.388795	0.683504	6
C	1.987379	-1.533975	0.217004	6
C	1.902129	-0.279325	-0.601366	6
H	-3.090071	1.296865	0.750694	1
H	-2.903311	-0.446755	0.260084	1
H	-1.623961	1.996105	-1.178886	1
H	-1.443011	0.250675	-1.668236	1
H	-0.631701	1.483435	1.079854	1
H	1.491349	0.163455	1.546094	1
H	1.488148	-2.420265	-0.156886	1
H	2.904409	-1.731245	0.757534	1
H	2.763238	0.378175	-0.618406	1
H	1.350308	-0.318205	-1.533286	1
Es	-0.286666	-0.606945	0.569023	99
Es	1.130870	-0.389207	0.682923	99
Es	-0.978709	0.651950	0.472383	99
Es	1.901935	-0.279749	-0.600528	99
Es	1.987195	-1.533336	0.216948	99
Es	-1.593736	0.960309	-0.862649	99
Es	-2.466381	0.544902	0.283755	99
Es	-0.431902	-0.870518	0.679358	99
Es	2.053649	-0.984328	-0.311198	99
Es	-2.175488	0.758427	-0.387036	99
Es	1.361113	-0.000508	1.263658	99
Es	-1.774539	0.536296	0.562557	99
Es	2.598226	-1.663652	0.582990	99
Es	-0.723323	1.210479	0.883197	99
Es	0.217085	-0.478762	0.614958	99
Es	-2.874120	1.043005	0.597058	99
Es	-1.480001	0.490375	-1.387306	99
Es	1.527780	-0.301366	-1.206262	99
Es	-0.260853	-0.592585	0.445726	99
Es	-1.607354	1.658971	-1.074220	99
Es	-2.743495	-0.100564	0.272158	99
Es	1.655508	-2.109461	-0.026522	99
Es	-0.496527	-0.126857	0.531520	99
Es	1.460907	-0.134684	-0.009998	99
Es	-1.120175	0.863949	-0.302607	99
Es	1.517119	-1.088622	0.604178	99
Es	2.480889	0.168812	-0.613788	99
