44
Properties=species:S:1:pos:R:3:Z:I:1 energy=-307.9387453629945 field_type=dipole dipole="0.000000 0.000000 0.000000" charge=0
C	-0.901080	-0.172773	-1.114548	6
C	-0.574810	0.850157	0.016392	6
C	-1.155690	-0.232083	0.975552	6
C	-0.516550	-1.231813	-0.030988	6
O	0.910380	-1.409763	0.173712	8
C	1.696590	-0.238733	-0.075528	6
C	0.927750	1.047337	0.258372	6
H	-1.952910	-0.198313	-1.424238	1
H	-0.276450	-0.130903	-2.010018	1
H	-1.135510	1.788907	-0.009848	1
H	-0.755400	-0.247433	1.992912	1
H	-2.250220	-0.268583	1.025912	1
H	-1.021770	-2.197523	-0.113218	1
H	1.976250	-0.248983	-1.134868	1
H	2.620530	-0.301003	0.507772	1
H	1.316820	1.874237	-0.346128	1
H	1.092070	1.317267	1.308762	1
Es	0.910147	-1.409242	0.173481	99
Es	-0.516756	-1.231533	-0.031088	99
Es	1.695967	-0.238574	-0.075329	99
Es	-0.575136	0.851461	0.016240	99
Es	0.927327	1.046869	0.257954	99
Es	-0.900346	-0.172641	-1.114527	99
Es	-1.154930	-0.231862	0.975537	99
Es	1.043452	-1.703912	0.193976	99
Es	-0.728133	0.422594	-0.631858	99
Es	1.308789	0.415709	0.095131	99
Es	-0.896137	-0.240767	1.657540	99
Es	2.320120	-0.282394	0.325660	99
Es	-0.843409	-1.901476	-0.086336	99
Es	-0.487596	-0.144596	-1.717659	99
Es	-0.940842	1.492820	-0.003821	99
Es	1.884630	-0.238527	-0.807031	99
Es	1.188895	1.600593	-0.152553	99
Es	1.144489	-0.955855	0.077017	99
Es	-1.896376	-0.264848	0.987634	99
Es	1.036502	1.229349	0.970856	99
Es	-1.610525	-0.196726	-1.304051	99
Es	0.392013	-1.284397	0.081760	99
Es	0.886965	-1.365178	0.237243	99
Es	0.163823	0.936567	0.121312	99
Es	-0.877052	0.382832	0.579777	99
Es	-0.684136	-0.764420	-0.658629	99
Es	-0.841291	-0.797520	0.557041	99
