44
Properties=species:S:1:pos:R:3:Z:I:1 energy=-307.9237742527038 field_type=dipole dipole="0.000000 0.000000 0.000000" charge=0
C	-0.289418	1.366991	-1.566717	6
C	-1.460208	0.523051	-1.143777	6
C	-0.083618	-0.081029	-1.211407	6
C	0.714852	-0.553749	-0.022147	6
C	0.632042	0.150491	1.340003	6
C	0.434602	-1.252169	1.900613	6
O	0.256062	-1.800449	0.573974	8
H	-0.216418	1.647321	-2.611887	1
H	0.060582	2.128001	-0.878907	1
H	-2.177258	0.227191	-1.902007	1
H	-1.903138	0.706101	-0.172397	1
H	0.097122	-0.773929	-2.028417	1
H	1.759412	-0.679499	-0.343077	1
H	-0.223038	0.813681	1.490334	1
H	1.547552	0.654991	1.658664	1
H	1.306632	-1.689279	2.396243	1
H	-0.455758	-1.387719	2.520903	1
Es	0.256287	-1.799944	0.574165	99
Es	0.714493	-0.553771	-0.022020	99
Es	0.434574	-1.251892	1.899851	99
Es	-0.083866	-0.080742	-1.211614	99
Es	-0.289764	1.366236	-1.566515	99
Es	0.632209	0.149874	1.339658	99
Es	-1.459455	0.523126	-1.144216	99
Es	0.192801	-2.084743	0.457657	99
Es	-0.975082	1.087998	-1.372724	99
Es	1.247771	0.506689	1.550637	99
Es	1.424844	-0.632803	-0.247023	99
Es	-1.739757	0.643544	-0.499102	99
Es	-0.174434	-1.341779	2.325303	99
Es	1.034158	-1.548442	2.245263	99
Es	0.266940	-0.274451	-0.636700	99
Es	0.319301	-1.607650	1.063138	99
Es	-0.232080	1.553630	-2.257941	99
Es	0.406690	-1.349658	0.347734	99
Es	-1.939143	0.316922	-1.640900	99
Es	0.052173	-0.536169	-1.749824	99
Es	0.054330	0.586968	1.432951	99
Es	-0.052648	1.856567	-1.109221	99
Es	0.546953	-0.519662	1.691030	99
Es	0.671036	-0.097691	0.628668	99
Es	-0.877935	0.035449	-1.085490	99
Es	0.038999	0.685824	-1.407638	99
Es	0.244431	-1.748641	0.590247	99
