42
Properties=species:S:1:pos:R:3:Z:I:1 energy=-343.78143576207907 field_type=dipole dipole="0.000000 0.000000 0.000000" charge=0
C	1.773577	0.141927	-0.741818	6
C	1.766617	-0.114523	0.743362	6
C	0.488407	0.005077	-0.006968	6
O	-0.316283	1.169917	0.195432	8
C	-1.644953	0.737217	-0.127018	6
C	-1.630483	-0.764233	0.126602	6
O	-0.299263	-1.171333	-0.209398	8
H	2.056277	1.128807	-1.085648	1
H	2.069817	-0.668013	-1.395978	1
H	2.057477	-1.097453	1.091152	1
H	2.042977	0.699377	1.401592	1
H	-2.381823	1.262007	0.486732	1
H	-1.824023	0.960517	-1.184568	1
H	-2.364483	-1.300533	-0.478728	1
H	-1.793833	-0.988753	1.185252	1
Es	-0.299426	-1.170792	-0.209219	99
Es	-0.316439	1.169373	0.195260	99
Es	0.489192	0.005081	-0.006959	99
Es	-1.644442	0.736883	-0.126840	99
Es	-1.629979	-0.763886	0.126420	99
Es	1.773104	0.141730	-0.740651	99
Es	1.766152	-0.114335	0.742202	99
Es	-0.176103	-1.441080	-0.296258	99
Es	-0.196730	1.442458	0.277631	99
Es	1.912207	0.014568	0.001639	99
Es	-1.656526	-0.013446	0.000009	99
Es	-1.748112	-0.913513	0.850604	99
Es	1.949661	0.774577	-0.961531	99
Es	-0.047457	-0.722576	-0.129264	99
Es	-0.760426	-0.989170	-0.082682	99
Es	1.948120	-0.744952	0.965361	99
Es	-2.146887	1.090255	0.294875	99
Es	-0.775689	0.978691	0.073838	99
Es	-1.773471	0.885571	-0.850273	99
Es	1.957360	-0.377913	-1.157317	99
Es	-0.326630	1.128959	0.194926	99
Es	-0.057806	0.725073	0.115073	99
Es	1.938011	0.408044	1.161527	99
Es	-2.130782	-1.125643	-0.289414	99
Es	-0.309906	-1.131013	-0.206620	99
Es	1.064107	-0.090394	0.587891	99
Es	1.067085	0.108085	-0.595106	99
