42
Properties=species:S:1:pos:R:3:Z:I:1 energy=-343.79397954799214 field_type=dipole dipole="0.000000 0.000000 0.000000" charge=0
C	1.387186	-0.121086	-0.025347	6
C	0.472406	-1.156266	0.604843	6
O	-0.667044	-1.458186	-0.203967	8
C	-1.669634	-0.526686	-0.121247	6
C	-1.562664	0.781864	0.145183	6
O	-0.418904	1.531664	0.248273	8
C	0.642596	1.074964	-0.594137	6
H	1.970266	-0.577966	-0.833807	1
H	2.105056	0.211614	0.733533	1
H	1.031516	-2.089996	0.735043	1
H	0.157666	-0.853636	1.613153	1
H	-2.627924	-1.004876	-0.289027	1
H	-2.430564	1.413284	0.297733	1
H	1.345816	1.908394	-0.705797	1
H	0.264226	0.866914	-1.604437	1
Es	-0.667106	-1.457734	-0.203647	99
Es	-0.419047	1.531237	0.247926	99
Es	0.472222	-1.155960	0.604509	99
Es	0.642375	1.074674	-0.593777	99
Es	-1.669397	-0.526924	-0.121441	99
Es	-1.562401	0.782066	0.145380	99
Es	1.386697	-0.121024	-0.025334	99
Es	-0.285597	-1.295835	0.089231	99
Es	-2.157889	1.192417	0.231385	99
Es	1.778367	-0.432247	-0.573582	99
Es	-1.624754	0.057394	0.302743	99
Es	0.854877	-1.790994	0.691211	99
Es	1.122996	1.640300	-0.668065	99
Es	-0.654411	-1.370188	-0.241849	99
Es	-0.823004	1.205106	0.179655	99
Es	0.375464	0.921405	-1.268858	99
Es	0.918319	-0.616130	0.283076	99
Es	-0.073074	1.319192	-0.057704	99
Es	1.869913	0.106714	0.490908	99
Es	-0.412322	1.832241	0.370955	99
Es	-1.010644	-1.065655	-0.145251	99
Es	-2.322498	-0.832459	-0.219817	99
Es	-0.710833	-1.759401	-0.317126	99
Es	0.250598	-0.938199	1.277466	99
Es	0.998639	0.457834	-0.302956	99
Es	-0.417826	1.440054	0.286130	99
Es	-1.599653	0.199345	-0.277347	99
