41
Properties=species:S:1:pos:R:3:Z:I:1 energy=-306.7721170226495 field_type=dipole dipole="0.000000 0.000000 0.000000" charge=0
C	1.627321	-0.604658	0.259504	6
O	0.714141	-1.719458	0.127864	8
C	-0.187089	-0.923578	-0.677046	6
C	-1.504169	-0.646838	-0.077656	6
C	-1.513699	0.565712	0.484594	6
C	-0.208849	1.289932	0.349144	6
C	0.667281	0.341732	-0.469426	6
H	2.566961	-0.803958	-0.265076	1
H	1.835391	-0.368908	1.307974	1
H	-0.236149	-1.294368	-1.706016	1
H	-2.328939	-1.343688	-0.089786	1
H	-2.368779	0.989652	0.995654	1
H	0.223871	1.504892	1.330334	1
H	-0.360829	2.234922	-0.182716	1
H	1.073541	0.778612	-1.387346	1
Es	0.714106	-1.718886	0.127677	99
Es	-0.187089	-0.923461	-0.676526	99
Es	1.626700	-0.604791	0.259165	99
Es	-1.513941	0.565935	0.484775	99
Es	-0.209154	1.289239	0.349000	99
Es	0.667439	0.342338	-0.470648	99
Es	-1.504794	-0.647319	-0.077638	99
Es	0.768887	-2.030200	0.126254	99
Es	-1.575549	0.023776	-0.037322	99
Es	0.250053	0.848495	-0.035147	99
Es	-0.990290	0.884549	0.439508	99
Es	2.270218	-0.738090	-0.101563	99
Es	-1.968271	-1.093569	-0.134999	99
Es	-0.221247	-1.182392	-1.371941	99
Es	0.933073	0.642168	-1.085752	99
Es	0.378929	-1.436150	-0.155122	99
Es	1.045138	-1.315518	0.185034	99
Es	-1.981820	0.869334	0.821417	99
Es	-0.304296	1.916220	-0.002351	99
Es	-0.976619	-0.786868	-0.327690	99
Es	0.075900	1.427175	0.994798	99
Es	1.773065	-0.445679	0.972366	99
Es	1.204099	-0.041505	-0.080372	99
Es	0.201207	-0.264851	-0.641564	99
Es	0.659001	-1.650630	0.206522	99
Es	-1.423367	-0.127153	0.410191	99
