47
Properties=species:S:1:pos:R:3:Z:I:1 energy=-309.13021841002376 field_type=dipole dipole="0.000000 0.000000 0.000000" charge=0
C	-2.153448	-0.797258	-0.207579	6
C	-0.676588	-0.866988	-0.399729	6
C	-0.066319	-0.575158	-1.745739	6
C	0.112151	0.403582	-0.609869	6
C	1.469671	0.582562	0.012501	6
C	1.381092	1.121192	1.438791	6
O	0.957672	0.105102	2.341460	8
H	-2.383698	-0.496818	0.819300	1
H	-2.603418	-1.778488	-0.385439	1
H	-2.623418	-0.078228	-0.886419	1
H	-0.231918	-1.664748	0.185451	1
H	-0.719708	-0.290878	-2.562989	1
H	0.781771	-1.176758	-2.054719	1
H	-0.426348	1.343142	-0.686189	1
H	2.029422	1.296332	-0.602359	1
H	2.020152	-0.365278	0.008051	1
H	0.688532	1.965872	1.514991	1
H	2.368562	1.456712	1.770161	1
H	0.075841	-0.183898	2.050331	1
Es	0.957138	0.105341	2.341249	99
Es	1.380935	1.120649	1.438488	99
Es	-0.676350	-0.867107	-0.399842	99
Es	0.112241	0.403716	-0.609889	99
Es	-0.066466	-0.575090	-1.745119	99
Es	1.469269	0.582511	0.012549	99
Es	-2.152719	-0.797208	-0.207718	99
Es	1.126494	-0.022044	2.567921	99
Es	0.149084	0.029942	-1.301522	99
Es	1.846568	1.068153	-0.410486	99
Es	-2.454268	-1.464419	-0.329430	99
Es	0.751898	0.477091	-0.301523	99
Es	0.493886	-0.967543	-1.944928	99
Es	-0.244948	0.999672	-0.651424	99
Es	0.508861	-0.005049	2.169628	99
Es	-0.493228	-0.385416	-2.273898	99
Es	-0.383834	-1.365551	-0.017540	99
Es	1.076953	0.458306	1.998074	99
Es	0.900157	1.693963	1.472630	99
Es	-2.302142	-0.592760	0.487171	99
Es	-2.465471	-0.305560	-0.667231	99
Es	1.829604	-0.056308	0.009887	99
Es	1.400202	0.839447	0.708825	99
Es	-1.378949	-0.819200	-0.305869	99
Es	2.060465	1.359429	1.664287	99
Es	0.931354	0.127515	2.320873	99
Es	-0.450049	-0.877140	-1.145106	99
Es	-0.316567	-0.181545	-0.288171	99
