45
Properties=species:S:1:pos:R:3:Z:I:1 energy=-344.96460965022413 field_type=dipole dipole="0.000000 0.000000 0.000000" charge=0
C	-1.985872	-0.453698	0.698431	6
C	-0.497812	-0.535778	0.726941	6
C	0.252468	-1.233098	-0.380029	6
C	0.359878	0.263562	-0.222959	6
O	-0.319482	1.060672	-1.213449	8
C	1.640368	0.882632	0.265351	6
O	2.420558	1.276552	-0.858739	8
H	-2.321962	0.452822	1.210631	1
H	-2.417002	-1.316108	1.216411	1
H	-2.386472	-0.441178	-0.319789	1
H	-0.134232	-0.668928	1.740661	1
H	-0.305252	-1.632938	-1.218049	1
H	1.110738	-1.838368	-0.108099	1
H	-0.858132	0.515022	-1.812129	1
H	2.231958	0.190432	0.871911	1
H	1.426898	1.773302	0.864531	1
H	1.783348	1.705092	-1.461629	1
Es	-0.319510	1.060122	-1.213774	99
Es	2.420116	1.276909	-0.858643	99
Es	0.360031	0.263400	-0.222640	99
Es	1.640066	0.882570	0.264881	99
Es	-0.497902	-0.535893	0.726973	99
Es	0.252299	-1.232608	-0.379462	99
Es	-1.985271	-0.453672	0.698316	99
Es	-0.307855	1.381515	-1.207150	99
Es	2.378736	1.246713	-0.866035	99
Es	-0.194359	-1.039222	0.214866	99
Es	-2.246260	-0.443346	0.007506	99
Es	2.078761	1.489744	-1.136798	99
Es	0.812443	-1.629961	-0.198210	99
Es	-1.194838	-0.490628	0.694912	99
Es	-0.090252	0.738939	-0.873122	99
Es	0.965099	0.561723	0.021079	99
Es	1.467452	1.480065	0.666592	99
Es	-0.562777	0.735182	-1.500353	99
Es	-2.205616	0.158905	1.038960	99
Es	2.020408	0.389438	0.678446	99
Es	-2.278752	-1.042092	1.047858	99
Es	-0.313202	1.026384	-1.215325	99
Es	-0.119579	-1.479590	-0.935721	99
Es	2.102950	1.120332	-0.480848	99
Es	-0.248696	-0.615847	1.379410	99
Es	2.735509	1.275699	-0.864346	99
Es	0.479870	-0.494471	-0.466115	99
Es	-0.144789	0.027827	0.385309	99
