47
Properties=species:S:1:pos:R:3:Z:I:1 energy=-309.12564126012387 field_type=dipole dipole="0.000000 0.000000 0.000000" charge=0
C	-1.626881	-0.034073	1.019423	6
C	-0.137701	-0.094123	1.078213	6
C	0.690379	-0.837863	0.048413	6
C	0.077019	-1.563143	-1.100877	6
C	0.759959	0.674637	0.125733	6
C	0.223619	1.554287	-0.958957	6
O	1.961219	1.205827	0.712123	8
H	-1.991961	0.746807	1.692833	1
H	-2.048411	-0.987243	1.351203	1
H	-2.019561	0.176727	0.023403	1
H	0.186079	-0.178313	2.111523	1
H	1.550809	-1.390443	0.414483	1
H	-0.825651	-1.086503	-1.490237	1
H	-0.190481	-2.579723	-0.795967	1
H	0.798369	-1.637263	-1.921127	1
H	-0.668531	1.156237	-1.448007	1
H	0.985269	1.698337	-1.732367	1
H	-0.032141	2.537627	-0.550387	1
H	2.308599	0.638207	1.420573	1
Es	1.961246	1.205327	0.712517	99
Es	0.759572	0.674759	0.125340	99
Es	-0.137799	-0.094126	1.078782	99
Es	0.690782	-0.838291	0.048439	99
Es	0.223780	1.553734	-0.958400	99
Es	0.077208	-1.562689	-1.100358	99
Es	-1.626153	-0.034074	1.019275	99
Es	2.100589	1.483277	0.628328	99
Es	0.177672	-0.666178	0.626097	99
Es	0.380633	-1.141019	-0.483233	99
Es	-0.365484	1.268214	-1.263780	99
Es	-0.503342	-1.246793	-1.348456	99
Es	2.092751	0.880822	1.062332	99
Es	-1.872519	0.100075	0.371457	99
Es	0.083268	-0.146240	1.720555	99
Es	-0.818972	-0.064178	1.009042	99
Es	-0.116499	-2.248461	-0.895582	99
Es	-1.879450	0.501886	1.465276	99
Es	-1.913057	-0.678626	1.235846	99
Es	0.040589	2.211340	-0.679411	99
Es	0.731554	1.638092	-1.483330	99
Es	0.558972	-1.608796	-1.659828	99
Es	1.513196	0.968648	0.523153	99
Es	1.946964	1.172294	0.715737	99
Es	0.502348	1.076669	-0.378263	99
Es	1.229508	-1.171192	0.292690	99
Es	0.206823	0.495471	0.715811	99
Es	0.879951	-0.109650	-0.112678	99
