41
Properties=species:S:1:pos:R:3:Z:I:1 energy=-306.82127625049895 field_type=dipole dipole="0.000000 0.000000 0.000000" charge=0
C	-2.092426	-0.045789	0.112666	6
C	-0.606256	-0.071019	0.033176	6
C	0.171484	-1.159679	-0.024314	6
C	1.629823	-0.847289	-0.099094	6
C	1.575214	0.662971	-0.080894	6
O	2.574904	1.374731	-0.133044	8
C	0.169194	1.210371	0.009366	6
H	-2.513786	-1.056309	0.108406	1
H	-2.510276	0.496731	-0.741144	1
H	-2.416246	0.450851	1.032636	1
H	-0.199576	-2.177009	-0.018744	1
H	2.165814	-1.221289	0.775486	1
H	2.069224	-1.203119	-1.033064	1
H	-0.060836	1.807891	-0.875544	1
H	0.043744	1.777961	0.934106	1
Es	2.574559	1.374485	-0.133026	99
Es	1.575163	0.662935	-0.080892	99
Es	-0.606514	-0.070877	0.033192	99
Es	0.169382	1.210014	0.009349	99
Es	1.629351	-0.846939	-0.099065	99
Es	0.171179	-1.161485	-0.024326	99
Es	-2.091848	-0.045660	0.112639	99
Es	2.776622	1.548437	-0.143494	99
Es	0.816419	-1.034456	-0.057432	99
Es	1.982341	-1.084184	0.470833	99
Es	0.870991	0.950966	-0.035404	99
Es	-2.364730	-0.719049	0.109503	99
Es	0.020589	1.597093	-0.569252	99
Es	-0.262027	0.581293	0.023993	99
Es	2.155021	1.088079	-0.111308	99
Es	0.089216	1.577200	0.613702	99
Es	-2.291453	0.291760	0.733894	99
Es	1.919693	-1.072768	-0.707969	99
Es	1.620406	-0.119162	-0.091201	99
Es	-2.355287	0.323016	-0.465858	99
Es	-1.335476	-0.087760	0.071188	99
Es	-0.157726	-0.729718	0.001891	99
Es	-0.068357	-1.701813	-0.018308	99
Es	2.282735	1.167227	-0.117588	99
Es	2.534271	1.316709	-0.131247	99
Es	-0.192549	-0.632042	-0.000023	99
