37
Properties=species:S:1:pos:R:3:Z:I:1 energy=-268.5113736377575 field_type=dipole dipole="0.000000 0.000000 0.000000" charge=0
C	-1.598124	-1.872834	2.101331	6
C	-1.238474	-1.570695	0.995201	6
C	-0.799864	-1.209525	-0.359089	6
C	-0.237964	0.180335	-0.358909	6
C	1.033536	0.475296	-0.666799	6
C	1.502866	1.800645	-0.666799	6
C	1.900146	2.922545	-0.666799	6
H	-1.914304	-2.137694	3.084221	1
H	-1.648004	-1.249315	-1.051709	1
H	-0.060924	-1.935915	-0.716439	1
H	-0.930314	0.980536	-0.102769	1
H	1.737176	-0.310395	-0.926389	1
H	2.254246	3.927016	-0.665049	1
Es	-0.799865	-1.209348	-0.358935	99
Es	-0.237941	0.180352	-0.358876	99
Es	1.033881	0.475415	-0.666801	99
Es	-1.238283	-1.570471	0.994801	99
Es	1.502843	1.800770	-0.666747	99
Es	-1.598555	-1.873150	2.103231	99
Es	1.900294	2.923966	-0.666709	99
Es	0.427500	0.342879	-0.472734	99
Es	-1.477532	-1.757234	1.794109	99
Es	2.015802	3.280017	-0.653434	99
Es	-0.319434	-1.686685	-0.569845	99
Es	1.482036	0.021827	-0.820245	99
Es	1.232476	1.089781	-0.664359	99
Es	-1.698809	-1.936937	2.444305	99
Es	1.757458	2.608891	-0.649447	99
Es	-1.028891	-1.395744	0.366981	99
Es	-0.484791	-0.516848	-0.356909	99
Es	-1.361539	-1.237933	-0.795645	99
Es	-0.695278	0.725834	-0.189165	99
Es	1.686466	2.344876	-0.674707	99
Es	1.749456	2.343552	-0.682029	99
Es	-1.403525	-1.738986	1.543896	99
Es	-1.443708	-1.733093	1.552444	99
Es	0.449211	0.378097	-0.567769	99
