39
Properties=species:S:1:pos:R:3:Z:I:1 energy=-342.6481753591959 field_type=dipole dipole="0.000000 0.000000 0.000000" charge=0
C	-1.848308	-0.202315	-0.002891	6
C	-0.368908	-0.157005	-0.000081	6
C	0.437162	0.957945	-0.001041	6
O	0.215542	2.255685	-0.004311	8
O	1.748432	0.628425	0.001939	8
C	1.802252	-0.729605	0.004799	6
C	0.532092	-1.259575	0.003749	6
H	-2.281188	0.803425	0.006969	1
H	-2.215618	-0.737045	0.878379	1
H	-2.212388	-0.718535	-0.896491	1
H	1.113692	2.630075	-0.003641	1
H	2.794342	-1.159455	0.007299	1
H	0.282892	-2.312024	0.005319	1
Es	1.748102	0.628158	0.001938	99
Es	0.216002	2.255651	-0.004311	99
Es	0.436267	0.956359	-0.001054	99
Es	1.808842	-0.732545	0.004816	99
Es	0.531743	-1.262201	0.003753	99
Es	-1.847745	-0.202326	-0.002892	99
Es	-0.368864	-0.157024	-0.000080	99
Es	2.004243	0.843169	0.002150	99
Es	0.328128	1.748938	-0.002642	99
Es	0.313722	-1.864412	0.004593	99
Es	2.371821	-1.001070	0.006370	99
Es	-2.085435	-0.563635	0.587620	99
Es	-0.002207	0.449049	-0.002238	99
Es	0.659317	2.402275	-0.003877	99
Es	1.261088	0.721003	0.000694	99
Es	1.726509	0.101285	0.002961	99
Es	1.641057	0.558989	0.001948	99
Es	-0.052211	2.426724	-0.005481	99
Es	0.147964	-0.832478	0.002398	99
Es	1.215363	-0.985511	0.005788	99
Es	-2.083097	-0.551060	-0.601554	99
Es	0.251317	2.183533	-0.004164	99
Es	-1.086036	-0.174089	-0.000942	99
Es	-2.132775	0.467198	0.003536	99
Es	1.168135	-0.989076	0.002598	99
Es	0.026366	0.216816	0.001035	99
