39
Properties=species:S:1:pos:R:3:Z:I:1 energy=-342.6855894516418 field_type=dipole dipole="0.000000 0.000000 0.000000" charge=0
C	-1.773780	0.004752	0.015042	6
C	-0.291230	-0.056548	-0.002208	6
C	0.475610	-1.140418	-0.097048	6
C	1.862420	-0.678278	-0.070748	6
O	2.837460	-1.402988	-0.137928	8
O	1.880420	0.677992	0.039812	8
C	0.538760	1.162832	0.090482	6
H	-2.218320	-0.992758	-0.063498	1
H	-2.140970	0.604222	-0.823808	1
H	-2.126400	0.458362	0.946582	1
H	0.196510	-2.175198	-0.179208	1
H	0.372390	1.841842	-0.751048	1
H	0.387130	1.696182	1.033572	1
Es	1.879861	0.677741	0.039796	99
Es	2.837339	-1.402777	-0.137910	99
Es	1.862356	-0.677998	-0.070725	99
Es	0.538927	1.162427	0.090448	99
Es	-0.291353	-0.056462	-0.002200	99
Es	-1.773105	0.004845	0.015044	99
Es	0.475118	-1.142872	-0.097244	99
Es	1.839533	0.163195	-0.001872	99
Es	2.445885	-1.063640	-0.107021	99
Es	0.242349	-1.702549	-0.140983	99
Es	0.436650	1.509376	0.716582	99
Es	-1.999985	0.406121	-0.543448	99
Es	2.120675	0.888586	0.055000	99
Es	0.153693	-0.709503	-0.059216	99
Es	1.382514	0.799925	0.053886	99
Es	0.426855	1.606178	-0.469393	99
Es	3.037343	-1.599021	-0.155570	99
Es	-2.059642	-0.655493	-0.037007	99
Es	-1.990266	0.308988	0.635304	99
Es	-1.006756	-0.037676	0.005227	99
Es	1.144018	-0.903588	-0.083242	99
Es	2.577363	-1.223338	-0.121116	99
Es	0.054801	0.529381	0.042781	99
Es	1.846551	0.589893	0.032915	99
Es	2.769269	-1.345395	-0.132666	99
Es	0.216213	-0.657024	-0.055424	99
