43
Properties=species:S:1:pos:R:3:Z:I:1 energy=-270.90940144749425 field_type=dipole dipole="0.000000 0.000000 0.000000" charge=0
C	-2.136741	-1.245207	0.512037	6
C	-0.652651	-1.060497	0.533636	6
C	0.048229	0.074893	0.332946	6
C	-0.567370	1.430203	0.099206	6
C	1.564540	0.061673	0.376586	6
C	2.126789	0.277523	-0.965043	6
C	2.591919	0.452943	-2.059034	6
H	-2.388981	-2.084027	-0.145024	1
H	-2.682311	-0.373617	0.145756	1
H	-2.496171	-1.482307	1.517926	1
H	-0.101531	-1.983117	0.716326	1
H	-1.642691	1.454783	0.288946	1
H	-0.401251	1.753823	-0.933113	1
H	-0.116550	2.170173	0.769557	1
H	1.936549	-0.890997	0.773066	1
H	1.917939	0.836673	1.066987	1
H	3.000279	0.607083	-3.030763	1
Es	1.564494	0.061805	0.376269	99
Es	0.048534	0.074762	0.332953	99
Es	2.126565	0.277491	-0.964933	99
Es	-0.650738	-1.063139	0.534138	99
Es	-2.136247	-1.245189	0.511974	99
Es	-0.567108	1.429895	0.099143	99
Es	2.592750	0.453176	-2.061129	99
Es	0.846770	0.042972	0.335300	99
Es	2.480817	0.425544	-1.887555	99
Es	2.627286	0.490138	-2.258500	99
Es	-1.280953	1.435028	0.226000	99
Es	-2.488227	-0.677187	0.278778	99
Es	-1.343165	-1.039480	0.492924	99
Es	-0.260929	0.724999	0.219185	99
Es	-0.405637	-0.749323	0.477593	99
Es	1.820862	0.169577	-0.336849	99
Es	1.796783	0.585010	0.819321	99
Es	-2.371756	-1.399485	1.186204	99
Es	-0.454681	1.636406	-0.596673	99
Es	1.808916	-0.569270	0.616852	99
Es	-0.255215	1.921049	0.555403	99
Es	-2.302734	-1.804467	0.067572	99
Es	-0.167665	-1.425497	0.590653	99
Es	2.402580	0.358708	-1.506971	99
Es	2.364314	0.365063	-1.533761	99
Es	-0.294298	-0.500775	0.445010	99
