44
Properties=species:S:1:pos:R:3:Z:I:1 energy=-307.96725108159114 field_type=dipole dipole="0.000000 0.000000 0.000000" charge=0
C	-1.718583	0.504604	-0.633061	6
C	-0.200053	0.427964	-0.596781	6
C	0.412757	1.516764	0.272069	6
O	1.736067	1.056244	0.576629	8
C	1.637287	-0.364136	0.772969	6
C	0.407187	-0.791886	0.032059	6
C	-0.064273	-2.046066	-0.007721	6
H	-2.136323	-0.262646	-1.293071	1
H	-2.045433	1.480184	-1.008051	1
H	-2.152563	0.364134	0.363129	1
H	0.200457	0.518304	-1.614881	1
H	-0.130283	1.665154	1.213269	1
H	0.476197	2.477194	-0.248981	1
H	2.544657	-0.830936	0.380549	1
H	1.548067	-0.558456	1.846529	1
H	-0.966613	-2.300346	-0.554171	1
H	0.451447	-2.856076	0.499519	1
Es	1.735613	1.055974	0.576666	99
Es	1.637043	-0.363659	0.772787	99
Es	0.413038	1.515957	0.271754	99
Es	0.407208	-0.792120	0.032155	99
Es	-0.200160	0.427979	-0.596619	99
Es	-1.717693	0.504509	-0.632947	99
Es	-0.063732	-2.044287	-0.007548	99
Es	1.993097	1.240154	0.625131	99
Es	0.082833	-0.215989	-0.287909	99
Es	-0.642371	-2.103867	-0.357484	99
Es	1.659891	0.538767	0.642006	99
Es	-1.937599	1.169023	-0.884647	99
Es	1.242023	1.187438	0.468375	99
Es	1.561261	-0.507004	1.493121	99
Es	2.244180	-0.690505	0.509218	99
Es	0.310166	-2.541184	0.355549	99
Es	0.094547	-1.542433	0.018370	99
Es	-1.993180	-0.018105	-1.078566	99
Es	-2.002670	0.408466	0.033025	99
Es	0.032853	1.607735	0.911345	99
Es	0.453296	2.170664	-0.084232	99
Es	-0.936344	0.456226	-0.597321	99
Es	0.064115	0.479626	-1.277238	99
Es	0.076798	0.977627	-0.165755	99
Es	1.017333	-0.612870	0.400299	99
Es	1.705421	1.028745	0.540508	99
Es	0.172508	-1.467685	-0.027088	99
