45
Properties=species:S:1:pos:R:3:Z:I:1 energy=-344.97081366137644 field_type=dipole dipole="0.000000 0.000000 0.000000" charge=0
C	-1.563013	-0.397175	0.305789	6
C	-0.085503	-0.212195	-0.016721	6
C	0.211487	-0.188595	-1.517981	6
O	-0.372653	0.964045	-2.124120	8
C	0.627157	0.873845	0.810569	6
C	1.452067	-0.277245	1.375229	6
O	0.691407	-1.258055	0.633219	8
H	-1.724373	-0.513115	1.383659	1
H	-1.964263	-1.290645	-0.186241	1
H	-2.150643	0.465695	-0.025311	1
H	-0.173023	-1.083715	-2.019980	1
H	1.290517	-0.144345	-1.702211	1
H	-1.319853	0.778665	-2.245620	1
H	0.008087	1.390015	1.549709	1
H	1.203667	1.609395	0.243279	1
H	2.505997	-0.285735	1.082469	1
H	1.362937	-0.430835	2.454260	1
Es	-0.373050	0.963848	-2.124083	99
Es	0.691392	-1.257568	0.633235	99
Es	-0.085321	-0.212280	-0.016425	99
Es	0.211205	-0.188184	-1.517907	99
Es	1.451366	-0.277089	1.374691	99
Es	0.627196	0.873205	0.810530	99
Es	-1.562442	-0.397091	0.305670	99
Es	0.686939	-1.569416	0.601952	99
Es	-0.195020	1.182957	-2.265158	99
Es	-0.851713	-0.302975	0.140085	99
Es	1.072743	0.340087	1.128027	99
Es	0.058737	-0.202162	-0.779167	99
Es	1.393734	-0.382863	2.115564	99
Es	1.011318	1.363857	0.428148	99
Es	-0.858563	0.832358	-2.168275	99
Es	2.174513	-0.279416	1.172281	99
Es	-0.068825	-0.807420	-1.836834	99
Es	0.981958	-0.888796	0.916449	99
Es	0.950429	-0.156732	-1.624921	99
Es	-1.821597	-1.004588	-0.044896	99
Es	-1.656911	-0.466035	1.038908	99
Es	0.207114	1.218864	1.305879	99
Es	-1.942339	0.192439	0.069922	99
Es	-0.207478	0.554989	-1.886774	99
Es	-0.397414	0.961289	-2.058704	99
Es	0.416031	-0.898466	0.394473	99
Es	0.222949	0.420338	0.360507	99
Es	0.680763	-1.210091	0.638173	99
