45
Properties=species:S:1:pos:R:3:Z:I:1 energy=-345.00273725736565 field_type=dipole dipole="0.000000 0.000000 0.000000" charge=0
C	-2.237442	0.250225	-0.652861	6
C	-0.725822	0.254125	-0.565401	6
C	-0.165842	1.390025	0.257149	6
O	1.132968	0.912475	0.609679	8
C	0.946048	-0.499085	0.774989	6
C	2.134718	-1.240665	0.196249	6
O	-0.260712	-0.912715	0.120059	8
H	-2.582201	-0.615135	-1.228651	1
H	-2.610142	1.161055	-1.130821	1
H	-2.689042	0.163105	0.341219	1
H	-0.282122	0.246535	-1.566531	1
H	-0.729312	1.558155	1.181869	1
H	-0.091482	2.329785	-0.296731	1
H	0.845878	-0.716785	1.844099	1
H	2.242678	-1.024265	-0.872661	1
H	2.008758	-2.322665	0.300579	1
H	3.063069	-0.934165	0.687759	1
Es	1.132341	0.912130	0.609672	99
Es	-0.260426	-0.912183	0.120058	99
Es	0.945960	-0.498984	0.775042	99
Es	-0.725849	0.254055	-0.565207	99
Es	-0.165562	1.389303	0.256927	99
Es	-2.236584	0.250223	-0.652754	99
Es	2.133988	-1.240196	0.196635	99
Es	-0.410785	-0.483056	-0.109161	99
Es	1.392555	1.068231	0.706397	99
Es	-0.473636	0.844588	-0.161953	99
Es	1.550544	-0.868082	0.474966	99
Es	-2.473747	0.874087	-0.974944	99
Es	0.184715	-0.716519	0.337247	99
Es	0.868162	-0.647898	1.512372	99
Es	-0.423228	0.256076	-1.252681	99
Es	1.027002	0.406545	0.648720	99
Es	0.647703	1.062213	0.479933	99
Es	-0.560398	1.498689	0.884596	99
Es	-0.116345	2.028582	-0.120847	99
Es	2.758672	-1.031286	0.538275	99
Es	-2.467648	-0.331813	-1.049812	99
Es	2.039549	-1.972368	0.277115	99
Es	-2.536436	0.200636	0.016550	99
Es	-0.400821	-1.195942	0.142328	99
Es	2.200536	-1.091993	-0.520936	99
Es	-1.477691	0.253665	-0.601464	99
Es	1.114911	0.884683	0.550790	99
Es	-0.240654	-0.878569	0.109286	99
