42
Properties=species:S:1:pos:R:3:Z:I:1 energy=-343.8028826145461 field_type=dipole dipole="0.000000 0.000000 0.000000" charge=0
C	-2.139905	0.031783	0.331360	6
C	-0.797565	0.015433	0.276660	6
C	0.015584	-1.242387	0.252710	6
O	0.902615	-1.207707	-0.859430	8
C	1.710535	-0.038897	-0.827070	6
O	0.928915	1.144573	-0.915970	8
C	0.043475	1.252393	0.192690	6
H	-2.696245	0.964183	0.323090	1
H	-2.716866	-0.887247	0.367580	1
H	-0.614176	-2.131887	0.149060	1
H	0.592304	-1.351207	1.178780	1
H	2.343125	-0.024467	0.069680	1
H	2.371805	-0.067247	-1.698150	1
H	0.622915	1.392813	1.112890	1
H	-0.566515	2.149863	0.046120	1
Es	0.928976	1.144356	-0.915495	99
Es	0.902682	-1.207469	-0.858965	99
Es	1.710910	-0.038918	-0.827750	99
Es	0.043758	1.252096	0.192428	99
Es	0.015873	-1.242109	0.252434	99
Es	-0.797902	0.015438	0.276680	99
Es	-2.135790	0.031731	0.331065	99
Es	0.928928	1.355559	-1.154146	99
Es	0.897817	-1.429852	-1.087175	99
Es	-0.403474	0.629217	0.248685	99
Es	-2.400862	0.661131	0.314991	99
Es	-0.370207	1.853724	0.094162	99
Es	2.121100	-0.028257	-0.192225	99
Es	0.618092	1.123121	-0.489862	99
Es	-0.411337	-1.838315	0.182958	99
Es	1.171651	-0.773889	-0.812134	99
Es	0.409571	-1.296198	0.882616	99
Es	-1.656829	0.025665	0.304195	99
Es	0.438882	1.327674	0.819582	99
Es	0.947785	1.127483	-0.877075	99
Es	2.162541	-0.058098	-1.415195	99
Es	-2.414601	-0.591573	0.345078	99
Es	0.921857	-1.189197	-0.821405	99
Es	-0.417354	-0.607508	0.278452	99
Es	1.188223	0.707670	-0.847746	99
Es	0.592558	-1.158876	-0.434999	99
Es	-1.482810	0.024601	0.339011	99
