44
Properties=species:S:1:pos:R:3:Z:I:1 energy=-307.9350394749015 field_type=dipole dipole="0.000000 0.000000 0.000000" charge=0
C	-2.262699	0.649238	0.041977	6
C	-0.803749	0.807418	-0.334493	6
O	-0.185259	1.886398	0.421727	8
C	0.967710	1.044068	0.683047	6
C	0.188801	-0.213842	0.267037	6
C	0.858860	-1.123512	-0.696583	6
C	1.872241	-1.899432	-0.295543	6
H	-2.688469	-0.239842	-0.434233	1
H	-2.842249	1.517468	-0.288573	1
H	-2.391799	0.549618	1.124967	1
H	-0.683689	0.993128	-1.410053	1
H	1.814570	1.335158	0.051837	1
H	1.264901	1.077968	1.734997	1
H	-0.223479	-0.759852	1.125817	1
H	0.511471	-1.162232	-1.725303	1
H	2.239531	-1.889703	0.726987	1
H	2.363310	-2.572042	-0.993613	1
Es	-0.185050	1.885948	0.421389	99
Es	-0.803500	0.807535	-0.334065	99
Es	0.966933	1.043916	0.682801	99
Es	0.858626	-1.123555	-0.697342	99
Es	0.188885	-0.213730	0.266751	99
Es	1.871459	-1.898916	-0.296009	99
Es	-2.261893	0.649303	0.041785	99
Es	-0.277120	2.169928	0.489864	99
Es	2.177993	-2.326083	-0.777077	99
Es	-1.534614	0.723919	-0.146234	99
Es	0.644192	0.345912	0.474260	99
Es	1.541621	1.233218	0.253537	99
Es	0.596829	-1.105861	-1.369062	99
Es	-0.715818	0.923185	-1.065069	99
Es	0.543518	-0.713015	-0.243690	99
Es	1.172450	1.064578	1.400577	99
Es	0.247540	1.587949	0.517777	99
Es	1.445225	-1.577717	-0.445006	99
Es	-2.653297	1.240422	-0.188143	99
Es	2.063351	-1.854942	0.373173	99
Es	-2.535285	0.041264	-0.282461	99
Es	-2.340380	0.576214	0.768623	99
Es	-0.074878	-0.568816	0.839461	99
Es	-0.411962	1.508710	0.153687	99
Es	-0.352171	0.205297	-0.069842	99
Es	-0.174969	1.841707	0.411843	99
Es	1.385122	-1.514434	-0.502144	99
