45
Properties=species:S:1:pos:R:3:Z:I:1 energy=-344.97132116807626 field_type=dipole dipole="0.000000 0.000000 0.000000" charge=0
C	-1.848036	0.071222	-0.347159	6
C	-0.330056	0.130712	-0.409419	6
O	0.072984	0.139022	-1.801829	8
C	0.313944	1.217782	0.489991	6
C	1.370324	0.182382	0.912701	6
C	0.403044	-0.938188	0.469721	6
O	1.011544	-2.026778	-0.257549	8
H	-2.210676	0.056012	0.686141	1
H	-2.221646	-0.829518	-0.844829	1
H	-2.290986	0.940282	-0.843879	1
H	1.034044	0.310202	-1.792399	1
H	-0.319716	1.559922	1.315821	1
H	0.710304	2.092672	-0.032399	1
H	2.294384	0.227272	0.323541	1
H	1.630054	0.188182	1.973680	1
H	-0.207776	-1.326168	1.294281	1
H	0.588264	-1.995018	-1.136409	1
Es	0.073542	0.139223	-1.801421	99
Es	1.010893	-2.026665	-0.257765	99
Es	-0.330411	0.130593	-0.409724	99
Es	0.403330	-0.938354	0.469168	99
Es	0.314044	1.217091	0.489775	99
Es	1.369146	0.182288	0.912499	99
Es	-1.847111	0.071251	-0.347108	99
Es	-0.118751	0.121012	-2.036203	99
Es	0.775770	-1.986564	-0.688125	99
Es	-0.013944	-1.190629	1.030297	99
Es	-2.132565	0.669764	-0.680126	99
Es	0.578544	1.799753	0.133142	99
Es	1.550908	0.188044	1.634380	99
Es	-0.113290	1.443252	1.042995	99
Es	0.560045	0.224093	-1.750370	99
Es	0.763528	-1.645844	-0.017815	99
Es	0.095508	0.113158	-1.768945	99
Es	0.886613	0.759626	0.732528	99
Es	-0.068570	0.754285	0.006842	99
Es	-0.034012	0.138425	-1.303557	99
Es	-2.083590	-0.549099	-0.685136	99
Es	-2.064092	0.061248	0.363478	99
Es	0.983511	-1.997868	-0.269930	99
Es	1.247886	-2.202825	-0.150893	99
Es	1.973325	0.214394	0.509403	99
Es	0.952604	-0.430731	0.718500	99
Es	-1.109284	0.097803	-0.387523	99
Es	-0.015729	-0.484812	-0.005958	99
