45
Properties=species:S:1:pos:R:3:Z:I:1 energy=-344.9727768562772 field_type=dipole dipole="0.000000 0.000000 0.000000" charge=0
C	-2.326612	0.384197	-0.249252	6
C	-0.833942	0.224017	-0.439402	6
O	-0.095032	1.273337	0.245968	8
C	0.841638	0.290017	0.770428	6
C	2.173408	0.394127	0.048768	6
C	-0.124842	-0.859053	0.398998	6
O	0.401448	-2.015223	-0.292662	8
H	-2.863142	-0.446893	-0.717672	1
H	-2.677492	1.312397	-0.711842	1
H	-2.599992	0.411337	0.811298	1
H	-0.565632	0.211417	-1.503482	1
H	0.962318	0.408267	1.852848	1
H	2.050048	0.379697	-1.039112	1
H	2.831728	-0.436803	0.326918	1
H	2.681558	1.328077	0.314448	1
H	-0.712832	-1.190873	1.263348	1
H	0.857378	-1.668043	-1.079602	1
Es	0.401470	-2.014735	-0.293047	99
Es	-0.094997	1.272804	0.245937	99
Es	-0.124983	-0.859023	0.398995	99
Es	-0.833775	0.224111	-0.439009	99
Es	0.841540	0.290104	0.770093	99
Es	2.172698	0.394066	0.049117	99
Es	-2.325764	0.384110	-0.249295	99
Es	-0.109510	1.581781	0.246711	99
Es	0.379696	-2.311814	-0.197324	99
Es	-1.578083	0.299616	-0.339841	99
Es	0.422328	-0.344634	0.596836	99
Es	2.079316	0.372794	-0.684106	99
Es	0.924650	0.371148	1.507726	99
Es	0.228698	-1.576740	-0.064537	99
Es	-0.642597	0.204963	-1.168187	99
Es	-2.675332	-0.183353	-0.563980	99
Es	0.393908	-1.977953	-0.305229	99
Es	0.621303	-1.800542	-0.686713	99
Es	-0.516137	-1.080322	0.981554	99
Es	1.503676	0.330261	0.404300	99
Es	-2.557316	1.015322	-0.566175	99
Es	2.605518	-0.171286	0.237398	99
Es	2.515043	1.027131	0.229182	99
Es	-2.500940	0.396024	0.461514	99
Es	-0.367829	0.904686	-0.005009	99
Es	0.253545	0.918965	0.432735	99
Es	-0.111317	1.221326	0.269271	99
Es	-0.539742	-0.391775	-0.053777	99
