44
Properties=species:S:1:pos:R:3:Z:I:1 energy=-307.9813943288558 field_type=dipole dipole="0.000000 0.000000 0.000000" charge=0
C	-1.704830	0.191489	-0.757399	6
C	-0.182781	0.166839	-0.715359	6
O	0.319319	0.306849	-2.034879	8
C	0.380949	-1.105971	-0.062639	6
C	0.735879	-0.717361	1.373821	6
C	0.885040	0.766389	1.291570	6
C	0.380469	1.249799	0.151351	6
H	-2.145640	0.086639	0.239101	1
H	-2.085371	-0.618061	-1.389859	1
H	-2.068250	1.126999	-1.197749	1
H	1.278880	0.449259	-1.964809	1
H	1.283219	-1.447401	-0.587659	1
H	-0.326280	-1.942521	-0.084359	1
H	1.661759	-1.202411	1.695171	1
H	-0.064941	-0.979831	2.072261	1
H	1.311589	1.370129	2.081410	1
H	0.340989	2.299169	-0.109969	1
Es	0.319813	0.307021	-2.034510	99
Es	-0.182762	0.167000	-0.715679	99
Es	0.885842	0.766528	1.293226	99
Es	0.735879	-0.716631	1.373327	99
Es	0.380593	1.250423	0.151505	99
Es	0.380694	-1.105098	-0.062226	99
Es	-1.704075	0.191486	-0.757382	99
Es	0.142500	0.275089	-2.290374	99
Es	0.333941	1.897729	-0.046851	99
Es	-1.935946	0.832684	-1.048871	99
Es	0.560860	-0.920936	0.699806	99
Es	0.202090	-0.887549	1.827181	99
Es	0.130611	0.797833	-0.232330	99
Es	1.159942	1.018951	1.780075	99
Es	0.800460	0.373154	-1.942103	99
Es	-1.941639	-0.360037	-1.181290	99
Es	0.711886	0.986211	0.679642	99
Es	0.076575	-0.489071	-0.407722	99
Es	1.348096	-1.046178	1.593255	99
Es	-1.983442	0.113253	-0.069027	99
Es	0.331754	0.328871	-2.002356	99
Es	0.849166	0.220317	1.360108	99
Es	0.994997	-1.324924	-0.417471	99
Es	-0.099364	-1.663276	-0.078338	99
Es	-0.947957	0.181690	-0.731269	99
Es	0.178272	0.259435	-1.567634	99
Es	0.550929	1.013270	0.728944	99
