41
Properties=species:S:1:pos:R:3:Z:I:1 energy=-306.78703161679533 field_type=dipole dipole="0.000000 0.000000 0.000000" charge=0
C	-2.085790	-1.300587	0.443881	6
C	-0.632110	-1.261667	0.105041	6
C	0.078270	-0.131147	0.002481	6
C	1.539680	0.001343	-0.342109	6
C	1.714280	1.487453	-0.368339	6
C	0.542690	2.046683	-0.068859	6
O	-0.470891	1.136413	0.170921	8
H	-2.375070	-2.319046	0.722241	1
H	-2.690290	-1.002567	-0.418089	1
H	-2.317270	-0.648987	1.292571	1
H	-0.141170	-2.214787	-0.065599	1
H	1.763420	-0.434997	-1.319819	1
H	2.174060	-0.447817	0.428171	1
H	2.631820	2.006563	-0.592279	1
H	0.268370	3.083143	0.009791	1
Es	-0.470356	1.136233	0.170766	99
Es	0.541320	2.051045	-0.068471	99
Es	0.078148	-0.130912	0.002522	99
Es	1.539451	0.001389	-0.342042	99
Es	1.714413	1.487500	-0.368368	99
Es	-0.631675	-1.262351	0.104923	99
Es	-2.085076	-1.300527	0.443686	99
Es	-0.250015	0.699856	0.104543	99
Es	1.658003	0.810977	-0.362505	99
Es	-0.262219	-1.860044	-0.024239	99
Es	1.047956	1.829190	-0.195153	99
Es	-0.314204	-0.700621	0.076964	99
Es	-0.044053	1.468281	0.068046	99
Es	0.805369	-0.109344	-0.169429	99
Es	-2.232775	-0.870384	0.993128	99
Es	1.941070	-0.305551	0.168058	99
Es	0.419477	2.664002	-0.029520	99
Es	2.333410	1.785894	-0.521892	99
Es	-0.402447	1.109136	0.143891	99
Es	-1.331909	-1.244124	0.272665	99
Es	-2.472045	-1.097135	-0.119806	99
Es	1.672468	-0.297141	-0.981127	99
Es	-2.283342	-1.988616	0.627223	99
Es	-0.779091	1.188003	0.264009	99
Es	1.194602	1.773785	-0.238288	99
Es	-0.284720	-0.763963	0.047163	99
