49
Properties=species:S:1:pos:R:3:Z:I:1 energy=-273.3101074664716 field_type=dipole dipole="0.000000 0.000000 0.000000" charge=0
C	-2.766281	-1.785955	-1.016484	6
C	-1.328241	-1.513566	-0.717124	6
C	-0.904031	-0.786926	0.328586	6
C	0.544209	-0.516086	0.629226	6
C	0.886169	0.985985	0.652836	6
C	2.331799	1.183695	1.115466	6
C	0.685469	1.645854	-0.714124	6
H	-3.017631	-1.405135	-2.011034	1
H	-3.436801	-1.314496	-0.291264	1
H	-2.951881	-2.864065	-1.003434	1
H	-0.604641	-1.941296	-1.407944	1
H	-1.629241	-0.364235	1.021316	1
H	1.191909	-1.031096	-0.091934	1
H	0.765069	-0.952865	1.611466	1
H	0.229859	1.489774	1.374976	1
H	3.037659	0.703065	0.429836	1
H	2.482789	0.756935	2.112406	1
H	2.581469	2.248544	1.167616	1
H	1.296629	1.160414	-1.482124	1
H	0.966699	2.703735	-0.677554	1
H	-0.360981	1.597725	-1.030714	1
Es	0.886149	0.985917	0.652810	99
Es	-1.328141	-1.513352	-0.716591	99
Es	-0.903988	-0.786852	0.328715	99
Es	0.543589	-0.515948	0.628966	99
Es	-2.765659	-1.785852	-1.016399	99
Es	2.331204	1.183556	1.115285	99
Es	0.685577	1.645536	-0.713547	99
Es	0.701259	0.214751	0.629174	99
Es	-1.140084	-1.200274	-0.240722	99
Es	-0.221629	-0.676159	0.444395	99
Es	0.882134	2.371212	-0.689857	99
Es	-2.047941	-1.614632	-0.825895	99
Es	2.499386	1.916092	1.146830	99
Es	-0.810542	-1.777769	-1.155610	99
Es	0.974233	-0.849665	0.146385	99
Es	0.698097	-0.806274	1.286637	99
Es	2.803115	0.849830	0.641354	99
Es	-0.021406	1.609442	-0.925576	99
Es	-2.931730	-1.527874	-1.681929	99
Es	-2.890172	-2.512535	-1.006363	99
Es	1.100141	1.307836	-1.230309	99
Es	-3.205970	-1.474025	-0.538467	99
Es	2.432097	0.887137	1.796634	99
Es	-1.365201	-0.487837	0.818742	99
Es	0.781320	1.315410	-0.034147	99
Es	0.439581	1.319191	1.138173	99
Es	1.621817	1.089099	0.895002	99
Es	-1.113451	-1.135626	-0.199378	99
