39
Properties=species:S:1:pos:R:3:Z:I:1 energy=-342.60290498083003 field_type=dipole dipole="0.000000 0.000000 0.000000" charge=0
C	-1.052770	-1.865404	-0.530911	6
C	-0.573710	-1.218254	0.541919	6
C	0.515220	-0.175204	0.563279	6
O	1.009670	0.116716	-0.767091	8
C	0.830920	1.478805	-0.816141	6
C	0.277900	1.968786	0.273579	6
O	0.001940	1.011896	1.219599	8
H	-1.846130	-2.599204	-0.429811	1
H	-0.670990	-1.674374	-1.529601	1
H	-0.998350	-1.448434	1.516089	1
H	1.357870	-0.548584	1.159149	1
H	1.141570	1.973006	-1.717641	1
H	0.006860	2.980255	0.517579	1
Es	1.009430	0.117132	-0.766630	99
Es	0.002213	1.011847	1.219026	99
Es	0.515312	-0.175318	0.563316	99
Es	0.277838	1.968557	0.273836	99
Es	0.830978	1.478466	-0.816191	99
Es	-0.573727	-1.218256	0.542054	99
Es	-1.052749	-1.865322	-0.530714	99
Es	0.191330	0.601848	0.941581	99
Es	0.814619	0.054981	-0.284139	99
Es	-0.040397	-0.699306	0.531025	99
Es	0.345443	1.702813	-0.377845	99
Es	-0.813682	-1.559077	-0.041909	99
Es	0.112544	2.633656	0.428958	99
Es	-0.795117	-1.737997	-1.179543	99
Es	0.032814	1.023494	1.159279	99
Es	-0.846042	-1.377933	1.207371	99
Es	0.117065	1.369644	0.842697	99
Es	0.941424	0.642313	-0.765743	99
Es	-1.573009	-2.331297	-0.444259	99
Es	1.102352	-0.104626	-0.967156	99
Es	-0.134144	1.007805	1.502678	99
Es	0.999366	0.173335	-0.728897	99
Es	1.087128	-0.417985	0.962803	99
Es	1.026070	1.812466	-1.401252	99
Es	-0.808554	-1.531233	0.015264	99
Es	0.771902	1.802972	-0.193800	99
