39
Properties=species:S:1:pos:R:3:Z:I:1 energy=-342.5847721200278 field_type=dipole dipole="0.000000 0.000000 0.000000" charge=0
C	-2.968953	0.094558	-0.769478	6
C	-1.778793	0.094558	-0.769478	6
C	-0.334793	0.094558	-0.769478	6
O	0.182877	1.172578	0.021322	8
C	1.394287	0.639418	0.549042	6
C	1.045147	-0.802922	0.797492	6
O	0.190107	-1.152412	-0.290788	8
H	-4.034203	0.094018	-0.764008	1
H	0.036507	0.227368	-1.792598	1
H	2.175817	0.741518	-0.213668	1
H	1.697876	1.176388	1.451162	1
H	1.919647	-1.458502	0.826662	1
H	0.474477	-0.921122	1.723812	1
Es	0.183102	1.172016	0.021198	99
Es	0.190222	-1.151833	-0.290601	99
Es	-0.335144	0.094589	-0.769703	99
Es	1.393760	0.639325	0.548856	99
Es	1.044908	-0.802619	0.797005	99
Es	-2.970991	0.094457	-0.769041	99
Es	-1.773120	0.094684	-0.769869	99
Es	0.001293	-0.660864	-0.425752	99
Es	0.046785	1.452502	0.057021	99
Es	0.659110	-0.873925	1.429833	99
Es	-3.148932	0.102313	-0.793035	99
Es	-1.102424	0.094220	-0.752880	99
Es	1.238142	-0.084379	0.685393	99
Es	0.003592	0.742730	-0.249919	99
Es	0.196137	1.132203	0.014342	99
Es	-2.846324	0.100973	-0.761109	99
Es	-0.092146	0.182299	-1.459548	99
Es	0.624337	0.953448	0.192739	99
Es	1.597711	1.003337	1.159835	99
Es	0.491952	-0.995967	0.092455	99
Es	0.125409	-1.430951	-0.420340	99
Es	1.638644	-1.250376	0.817233	99
Es	1.927835	0.699859	0.026196	99
Es	0.194043	-1.111982	-0.278577	99
Es	-2.352205	0.082849	-0.776899	99
Es	-2.379500	0.091904	-0.750661	99
