44
Properties=species:S:1:pos:R:3:Z:I:1 energy=-307.9346754946985 field_type=dipole dipole="0.000000 0.000000 0.000000" charge=0
C	-2.735362	-0.689490	0.892947	6
C	-1.274683	-0.824330	0.603177	6
C	-0.675422	-0.301610	-0.476713	6
C	0.787158	-0.455340	-0.795973	6
C	1.530888	0.843790	-0.852893	6
C	2.432627	1.287810	0.268697	6
O	2.957447	0.698580	-0.930163	8
H	-3.194502	-1.680590	0.958227	1
H	-3.260072	-0.122050	0.117917	1
H	-2.881212	-0.178250	1.849027	1
H	-0.692632	-1.392820	1.326177	1
H	-1.266103	0.257210	-1.200843	1
H	0.867497	-0.942580	-1.774873	1
H	1.263978	-1.132610	-0.076543	1
H	1.074048	1.585010	-1.495313	1
H	2.475648	0.697520	1.175507	1
H	2.590698	2.349750	0.411637	1
Es	2.957091	0.698905	-0.929800	99
Es	1.531420	0.843623	-0.852881	99
Es	2.432720	1.287427	0.267848	99
Es	-1.274610	-0.824230	0.602819	99
Es	-0.675261	-0.301529	-0.476855	99
Es	0.786807	-0.455065	-0.795864	99
Es	-2.734772	-0.689547	0.892868	99
Es	3.153451	0.684055	-1.127779	99
Es	-0.854160	-1.200577	1.073803	99
Es	-1.994226	-0.729413	0.707160	99
Es	1.797930	1.125763	-0.144569	99
Es	2.539419	2.009600	0.353234	99
Es	1.106584	-0.901968	-0.313682	99
Es	-1.062049	0.084656	-0.983033	99
Es	1.225345	1.343211	-1.296981	99
Es	1.160453	0.203616	-0.804451	99
Es	-0.995684	-0.589796	0.092383	99
Es	0.840577	-0.768912	-1.448248	99
Es	-3.042023	-1.356298	0.935955	99
Es	2.689780	0.928490	-0.471886	99
Es	2.473574	0.882218	0.873461	99
Es	-3.079603	-0.314920	0.383078	99
Es	-2.828640	-0.345556	1.530697	99
Es	0.034467	-0.380383	-0.606271	99
Es	2.904759	0.633255	-0.870034	99
Es	2.597630	0.731385	-0.933564	99
Es	-0.962332	-0.540563	0.061892	99
