44
Properties=species:S:1:pos:R:3:Z:I:1 energy=-307.9274154536326 field_type=dipole dipole="0.000000 0.000000 0.000000" charge=0
C	-1.205303	-2.301432	0.445162	6
C	-0.743013	-1.546952	-0.791818	6
C	-0.503033	-0.096002	-0.491708	6
C	0.686477	0.511908	-0.626038	6
C	0.963017	1.924857	-0.352848	6
C	1.203377	2.351947	1.073722	6
O	2.252117	2.369937	0.099592	8
H	-1.388293	-3.352273	0.199992	1
H	-2.134953	-1.880602	0.842142	1
H	-0.448823	-2.264682	1.235942	1
H	-1.509543	-1.622272	-1.572088	1
H	0.162557	-2.022563	-1.186908	1
H	-1.361283	0.480808	-0.155118	1
H	1.540487	-0.069662	-0.970018	1
H	0.423737	2.612957	-0.996478	1
H	1.259327	1.599468	1.850252	1
H	0.803147	3.304557	1.396212	1
Es	2.251552	2.369898	0.099803	99
Es	0.963561	1.925001	-0.352438	99
Es	1.203889	2.351820	1.072852	99
Es	-0.503055	-0.095964	-0.491706	99
Es	0.686856	0.511987	-0.626106	99
Es	-0.742944	-1.546427	-0.791619	99
Es	-1.205088	-2.301066	0.444621	99
Es	2.470681	2.491606	-0.011844	99
Es	0.116271	0.181201	-0.414834	99
Es	-1.832070	-2.010444	0.712162	99
Es	1.247537	1.838519	1.588809	99
Es	-1.077626	0.312630	-0.252470	99
Es	-0.138187	-1.858037	-1.049761	99
Es	0.607619	2.394969	-0.788098	99
Es	0.937198	3.004556	1.289399	99
Es	1.827881	2.354294	0.474951	99
Es	1.259529	0.120899	-0.847166	99
Es	-0.697162	-2.272875	0.978004	99
Es	0.817697	1.195216	-0.495477	99
Es	1.904468	2.228348	-0.076719	99
Es	-1.331476	-3.020591	0.275966	99
Es	-0.960951	-1.901897	-0.173382	99
Es	-1.254831	-1.592720	-1.318116	99
Es	-0.591435	-0.805824	-0.641121	99
Es	2.224789	2.274299	0.129928	99
Es	0.867439	2.085922	0.415816	99
Es	0.076497	0.255241	-0.708091	99
