38
Properties=species:S:1:pos:R:3:Z:I:1 energy=-305.5809029651664 field_type=dipole dipole="0.000000 0.000000 0.000000" charge=0
C	-1.334677	0.757719	-0.278326	6
C	-0.032758	0.691949	0.049334	6
C	0.843603	-0.527721	0.168444	6
C	0.147003	-1.794701	-0.113716	6
C	-0.403857	-2.838401	-0.340126	6
C	0.649583	1.983909	0.335594	6
O	1.833742	2.048749	0.642694	8
H	-1.877337	1.696439	-0.336286	1
H	-1.909727	-0.136191	-0.502896	1
H	1.258243	-0.574811	1.182964	1
H	1.689523	-0.431371	-0.523256	1
H	-0.889427	-3.766111	-0.540206	1
H	0.026093	2.890539	0.255784	1
Es	1.833251	2.048235	0.642525	99
Es	0.648642	1.983143	0.335289	99
Es	0.843676	-0.527885	0.168449	99
Es	-0.032789	0.692102	0.049340	99
Es	-1.339401	0.760933	-0.279258	99
Es	0.146978	-1.794520	-0.113707	99
Es	-0.404829	-2.839764	-0.340486	99
Es	2.043970	2.236265	0.712491	99
Es	-1.616972	0.493534	-0.373451	99
Es	-0.288729	-2.507807	-0.283304	99
Es	1.087136	-0.579050	0.821781	99
Es	0.192050	2.511829	0.265148	99
Es	0.331017	1.409107	0.204441	99
Es	-0.595467	-3.125178	-0.412460	99
Es	-0.966759	0.754965	-0.184185	99
Es	1.366749	2.031328	0.522682	99
Es	1.368422	-0.485438	-0.291484	99
Es	0.443123	-1.196730	0.011114	99
Es	-1.469599	1.003244	-0.291414	99
Es	0.370850	0.069015	0.098925	99
Es	1.469123	2.019719	0.546896	99
Es	1.787168	1.841616	0.612802	99
Es	-0.142513	-2.330956	-0.231283	99
Es	-0.063242	-2.359325	-0.214594	99
Es	-0.602286	0.790425	-0.088294	99
