41
Properties=species:S:1:pos:R:3:Z:I:1 energy=-306.7882736082675 field_type=dipole dipole="0.000000 0.000000 0.000000" charge=0
C	-2.182737	-0.912702	0.741977	6
C	-1.419717	-0.405272	-0.235203	6
C	-0.484957	0.761268	-0.070353	6
C	0.955103	0.335528	-0.102713	6
C	1.725873	0.204878	0.989397	6
C	1.576733	0.078308	-1.427563	6
O	0.972313	0.219098	-2.484303	8
H	-2.840067	-1.754812	0.548917	1
H	-2.166357	-0.508662	1.748847	1
H	-1.471607	-0.844532	-1.231093	1
H	-0.698577	1.282218	0.872337	1
H	-0.683537	1.496868	-0.859473	1
H	1.319073	0.389548	1.979817	1
H	2.768033	-0.094392	0.939197	1
H	2.630423	-0.247342	-1.409783	1
Es	0.972142	0.219161	-2.483558	99
Es	1.576589	0.078338	-1.426822	99
Es	1.724097	0.205104	0.986857	99
Es	0.955305	0.335479	-0.102806	99
Es	-0.484944	0.761042	-0.070416	99
Es	-1.419688	-0.405305	-0.235370	99
Es	-2.182563	-0.912581	0.741664	99
Es	0.999627	0.200638	-2.775342	99
Es	0.242621	0.532976	-0.075394	99
Es	-2.613259	-1.477040	0.594930	99
Es	1.407452	0.339505	1.597406	99
Es	2.259128	-0.130434	-1.347028	99
Es	-1.453687	-0.700868	-0.908945	99
Es	1.299916	0.189836	-0.810814	99
Es	1.428299	0.246480	0.568015	99
Es	1.211513	0.134214	-2.064250	99
Es	-1.787329	-0.690008	0.311924	99
Es	-0.614841	1.111311	0.563549	99
Es	-2.142316	-0.623125	1.407735	99
Es	2.364680	0.001741	0.855337	99
Es	1.159419	0.203358	-2.152812	99
Es	-0.602350	1.229830	-0.589446	99
Es	-0.947546	0.175271	-0.138938	99
Es	0.836886	0.265848	-2.337560	99
Es	1.357943	0.276647	0.346543	99
Es	-1.846608	-0.642849	0.260163	99
