44
Properties=species:S:1:pos:R:3:Z:I:1 energy=-307.964218834077 field_type=dipole dipole="0.000000 0.000000 0.000000" charge=0
C	-3.281895	0.709475	0.278875	6
C	-1.925045	0.219885	0.668605	6
C	-0.836585	0.350085	-0.103965	6
C	0.466585	-0.131755	0.291315	6
C	1.564365	0.045015	-0.458905	6
C	2.924875	-0.436655	-0.077545	6
O	3.440435	-1.218265	-1.143445	8
H	-3.629325	1.457425	0.997845	1
H	-3.991925	-0.123025	0.278205	1
H	-3.289105	1.163705	-0.716805	1
H	-1.854355	-0.260935	1.641285	1
H	-0.918185	0.838655	-1.072695	1
H	0.538925	-0.652695	1.244065	1
H	1.502396	0.578045	-1.405095	1
H	2.915895	-1.047855	0.830625	1
H	3.594685	0.413115	0.082595	1
H	2.778255	-1.904215	-1.334965	1
Es	3.440184	-1.218613	-1.143306	99
Es	2.924518	-0.436721	-0.077994	99
Es	-1.924839	0.219838	0.668620	99
Es	0.466536	-0.131788	0.291470	99
Es	-0.836389	0.350129	-0.104178	99
Es	1.564392	0.045015	-0.459057	99
Es	-3.281363	0.709280	0.279041	99
Es	3.740675	-1.202350	-1.239424	99
Es	-0.182457	0.113682	0.095544	99
Es	1.516144	0.378597	-1.092683	99
Es	2.899949	-0.846348	0.533460	99
Es	-1.424811	0.266581	0.312886	99
Es	-1.852092	-0.106467	1.314252	99
Es	0.528848	-0.482256	0.939969	99
Es	3.074048	-1.553171	-1.212841	99
Es	1.026170	-0.075291	-0.122483	99
Es	-2.561460	0.470736	0.446449	99
Es	3.375102	0.124163	0.034779	99
Es	-0.880989	0.683937	-0.768478	99
Es	-3.508034	1.208848	0.759241	99
Es	-3.752435	0.151039	0.277490	99
Es	2.191018	-0.182941	-0.240767	99
Es	-3.281241	1.009951	-0.381063	99
Es	3.207417	-0.953231	-0.770031	99
Es	3.390336	-1.192373	-1.158400	99
Es	1.000820	-0.005832	-0.066732	99
Es	-1.312667	0.282308	0.274294	99
