38
Properties=species:S:1:pos:R:3:Z:I:1 energy=-305.57888878214976 field_type=dipole dipole="0.000000 0.000000 0.000000" charge=0
C	-2.649640	-0.636629	0.002980	6
C	-1.156440	-0.608259	0.003580	6
C	-0.450610	0.530931	-0.002710	6
C	0.955390	0.530931	-0.002710	6
C	2.145550	0.530931	-0.002710	6
C	3.585360	0.543861	-0.002710	6
O	4.206160	1.596891	-0.002720	8
H	-3.002630	-1.672619	-0.019980	1
H	-3.050780	-0.127699	-0.878920	1
H	-3.049050	-0.167079	0.907150	1
H	-0.647070	-1.569289	0.009020	1
H	-0.958230	1.491921	-0.007550	1
H	4.071990	-0.443889	-0.002720	1
Es	4.205951	1.596454	-0.002720	99
Es	3.584611	0.543803	-0.002709	99
Es	-1.156013	-0.610547	0.003588	99
Es	-0.450230	0.531362	-0.002711	99
Es	0.953994	0.530805	-0.002705	99
Es	-2.649394	-0.636570	0.002991	99
Es	2.144639	0.531140	-0.002707	99
Es	3.938815	1.173164	-0.002825	99
Es	-0.642514	1.129020	-0.005036	99
Es	1.321509	0.444419	-0.001536	99
Es	-1.740009	-0.598147	0.003187	99
Es	3.832184	-0.109547	-0.002539	99
Es	-0.872079	-1.187628	0.006917	99
Es	2.879976	0.543437	-0.002435	99
Es	0.261314	0.469746	-0.002731	99
Es	4.328115	1.824023	-0.002620	99
Es	-0.744004	-0.073591	0.004054	99
Es	-2.895553	-0.319861	0.590402	99
Es	-2.886884	-1.335668	-0.012100	99
Es	3.994744	1.264450	-0.002676	99
Es	-2.897845	-0.294164	-0.569797	99
Es	1.679584	0.517808	-0.004286	99
Es	4.181152	1.531708	-0.002718	99
Es	1.531538	0.640091	-0.002729	99
Es	-0.674952	0.043038	-0.004426	99
