44
Properties=species:S:1:pos:R:3:Z:I:1 energy=-307.9854502831576 field_type=dipole dipole="0.000000 0.000000 0.000000" charge=0
C	-2.320534	0.296278	-0.084044	6
C	-0.845804	0.045038	0.102956	6
C	-0.491564	-1.399602	0.314546	6
C	0.014846	1.081158	0.112226	6
C	1.497976	1.052498	0.241106	6
C	2.294906	-0.023492	-0.445814	6
O	2.051326	1.961408	0.859746	8
H	-2.546074	1.355738	-0.245614	1
H	-2.877714	-0.031072	0.799826	1
H	-2.689594	-0.257012	-0.953904	1
H	-1.214974	-1.873232	0.987436	1
H	0.487266	-1.532942	0.779746	1
H	-0.507844	-1.937662	-0.638194	1
H	-0.361044	2.099957	0.037536	1
H	1.713466	-0.510732	-1.232234	1
H	2.628746	-0.760962	0.287456	1
H	3.166616	0.434638	-0.922774	1
Es	2.051098	1.961034	0.859536	99
Es	1.497951	1.052470	0.241085	99
Es	-0.845784	0.045083	0.103023	99
Es	-0.491305	-1.399112	0.314464	99
Es	-2.320229	0.296224	-0.083961	99
Es	2.294569	-0.023277	-0.445579	99
Es	0.014648	1.080572	0.112349	99
Es	2.181540	2.143066	0.959393	99
Es	-0.329250	0.641375	0.157192	99
Es	2.491785	-0.499752	0.039295	99
Es	0.153801	-1.473279	0.603197	99
Es	-2.552846	-0.079270	-0.671150	99
Es	-0.296236	1.680307	0.071882	99
Es	1.878270	0.508812	-0.110912	99
Es	0.743946	1.001915	0.187087	99
Es	-0.645335	-0.653492	0.208120	99
Es	-0.497463	-1.739850	-0.325756	99
Es	1.822951	1.610398	0.608376	99
Es	1.905451	-0.346567	-0.942391	99
Es	2.874662	0.261617	-0.772151	99
Es	-2.681332	0.067774	0.519497	99
Es	-0.969373	-1.713613	0.776120	99
Es	-2.461579	1.009444	-0.191540	99
Es	-1.575928	0.185066	-0.001987	99
Es	1.877031	1.675537	0.710244	99
Es	2.000624	1.925240	0.833768	99
Es	-0.320042	0.623632	0.032837	99
