38
Properties=species:S:1:pos:R:3:Z:I:1 energy=-305.5928627425606 field_type=dipole dipole="0.000000 0.000000 0.000000" charge=0
C	-3.093369	-0.438038	-0.015772	6
C	-1.649369	-0.438038	-0.015772	6
C	-0.459209	-0.438038	-0.015772	6
C	0.946791	-0.438038	-0.015772	6
C	1.637421	0.706972	0.025788	6
C	3.110771	0.679441	0.024378	6
O	3.767141	1.712302	0.061958	8
H	-3.487369	0.582842	-0.004082	1
H	-3.487439	-0.958568	0.862478	1
H	-3.487439	-0.938318	-0.905712	1
H	1.446861	-1.401409	-0.050952	1
H	1.170361	1.684251	0.061428	1
H	3.584851	-0.315359	-0.012192	1
Es	3.766698	1.711956	0.061946	99
Es	3.110922	0.678428	0.024341	99
Es	0.946549	-0.438405	-0.015786	99
Es	-3.092442	-0.438080	-0.015771	99
Es	1.637004	0.706767	0.025780	99
Es	-1.651177	-0.437782	-0.015761	99
Es	-0.458604	-0.437987	-0.015771	99
Es	3.962855	1.903158	0.068783	99
Es	1.206314	-1.071287	-0.038701	99
Es	-2.084383	-0.464191	-0.016860	99
Es	-1.239341	-0.497735	-0.018107	99
Es	2.339591	0.660297	0.023865	99
Es	3.412952	-0.008315	-0.000852	99
Es	0.311855	-0.405281	-0.014572	99
Es	1.266998	0.157797	0.006303	99
Es	-3.323732	0.238619	-0.008026	99
Es	3.474767	1.273082	0.046037	99
Es	-3.323102	-0.781127	0.559743	99
Es	-3.323711	-0.767720	-0.598850	99
Es	1.285568	1.333941	0.048532	99
Es	3.550636	1.391593	0.050305	99
Es	-0.954732	-0.428521	-0.015208	99
Es	3.647870	1.689073	0.061142	99
Es	-1.021758	-0.359067	-0.012846	99
Es	1.357971	0.165958	0.005632	99
