44
Properties=species:S:1:pos:R:3:Z:I:1 energy=-307.94862954217547 field_type=dipole dipole="0.000000 0.000000 0.000000" charge=0
C	-3.230485	-0.818485	-0.322484	6
C	-1.786485	-0.818485	-0.322484	6
C	-0.596326	-0.818485	-0.322484	6
C	0.847674	-0.818485	-0.322484	6
C	1.446084	0.595575	-0.346114	6
C	1.187524	1.376805	0.937567	6
O	2.860575	0.506315	-0.542304	8
H	-3.624365	0.202415	-0.308874	1
H	-3.624536	-1.340585	0.554837	1
H	-3.624585	-1.317085	-1.213344	1
H	1.218374	-1.372175	-1.194394	1
H	1.232324	-1.364765	0.547766	1
H	1.042735	1.158065	-1.195884	1
H	1.595535	0.849355	1.807416	1
H	0.119195	1.547505	1.102257	1
H	1.689845	2.349494	0.897466	1
H	3.246915	0.083025	0.243536	1
Es	2.860542	0.506163	-0.541799	99
Es	1.446284	0.595313	-0.346010	99
Es	0.846771	-0.818345	-0.322407	99
Es	-3.230082	-0.818420	-0.322459	99
Es	-1.787819	-0.818427	-0.322489	99
Es	1.187574	1.376441	0.937028	99
Es	-0.595714	-0.818528	-0.322512	99
Es	3.009909	0.608115	-0.797098	99
Es	0.079335	-0.828916	-0.317620	99
Es	-2.265173	-0.768463	-0.313150	99
Es	0.468104	1.479493	1.042743	99
Es	-1.430245	-0.760236	-0.301862	99
Es	1.173995	0.968219	-0.920370	99
Es	1.108181	-0.148594	-0.323516	99
Es	3.017835	0.283233	-0.123410	99
Es	2.358955	0.511966	-0.436526	99
Es	-3.453917	-0.146842	-0.312250	99
Es	1.083805	-1.174318	-0.895964	99
Es	-3.456752	-1.160292	0.254834	99
Es	-3.462110	-1.146306	-0.908838	99
Es	1.096477	-1.162073	0.257350	99
Es	1.464196	1.001342	1.520460	99
Es	1.525598	2.039302	0.910026	99
Es	1.303148	0.983674	0.302992	99
Es	2.836786	0.496983	-0.511688	99
Es	-1.180539	-0.882089	-0.298912	99
Es	-1.190996	-0.834680	-0.372627	99
