47
Properties=species:S:1:pos:R:3:Z:I:1 energy=-309.14580695257706 field_type=dipole dipole="0.000000 0.000000 0.000000" charge=0
C	-2.853203	-1.027316	0.819484	6
C	-1.341343	-1.007136	0.651944	6
C	-0.816693	0.420274	0.495374	6
C	0.677567	0.439154	0.333334	6
C	1.306747	0.938124	-0.742596	6
C	2.789107	0.978344	-0.911216	6
O	3.126437	0.239624	-2.073606	8
H	-3.207793	-2.055996	0.935854	1
H	-3.349713	-0.593416	-0.053856	1
H	-3.156863	-0.460706	1.705094	1
H	-1.069433	-1.607076	-0.225416	1
H	-0.878463	-1.485206	1.524314	1
H	-1.076323	1.010124	1.381834	1
H	-1.304973	0.900294	-0.361246	1
H	1.259047	0.031024	1.159494	1
H	0.727957	1.357334	-1.562376	1
H	3.322297	0.549284	-0.057076	1
H	3.127227	2.010574	-1.045706	1
H	2.718417	-0.637306	-1.973636	1
Es	3.126394	0.239242	-2.073336	99
Es	2.788695	0.978005	-0.911599	99
Es	0.677581	0.439116	0.333403	99
Es	-0.816178	0.420135	0.495318	99
Es	1.306771	0.938102	-0.742372	99
Es	-1.341459	-1.006757	0.651894	99
Es	-2.852644	-1.027272	0.819418	99
Es	3.352256	0.333798	-2.273176	99
Es	-0.019949	0.443895	0.380957	99
Es	2.029933	0.959456	-0.769497	99
Es	-3.185919	-0.726757	0.225326	99
Es	-1.064228	-0.276939	0.564508	99
Es	-1.021156	-1.327288	1.241898	99
Es	0.898329	1.212488	-1.285495	99
Es	2.903115	-0.198462	-1.988730	99
Es	-0.994808	0.813127	1.083862	99
Es	1.052775	0.149926	0.889338	99
Es	2.961839	0.469482	-1.649165	99
Es	-2.103451	-1.015381	0.737223	99
Es	-3.053754	-0.637354	1.418909	99
Es	-3.096430	-1.733544	0.899744	99
Es	3.128529	0.688026	-0.336867	99
Es	3.025707	1.667270	-0.996349	99
Es	-1.137523	0.731626	-0.073895	99
Es	-1.153678	-1.408631	0.061638	99
Es	0.996374	0.531632	-0.291837	99
Es	3.066223	0.247732	-2.070949	99
Es	1.021785	0.847881	-0.150602	99
