39
Properties=species:S:1:pos:R:3:Z:I:1 energy=-342.64440098177874 field_type=dipole dipole="0.000000 0.000000 0.000000" charge=0
C	-2.583814	-0.449329	0.202848	6
C	-1.139814	-0.449329	0.202848	6
C	0.050346	-0.449329	0.202848	6
C	1.494346	-0.449329	0.202848	6
C	2.130246	0.885411	-0.128782	6
O	1.437186	1.670411	-0.986522	8
O	3.237936	1.212041	0.277858	8
H	-2.977704	0.571601	0.213528	1
H	-2.977934	-0.969009	1.081568	1
H	-2.977844	-0.950389	-0.686662	1
H	1.876846	-1.178179	-0.519852	1
H	1.854636	-0.743529	1.195358	1
H	0.575566	1.298961	-1.257892	1
Es	1.436850	1.670072	-0.986571	99
Es	3.237551	1.211972	0.277672	99
Es	2.129799	0.885388	-0.128923	99
Es	1.493193	-0.449029	0.202895	99
Es	-2.582654	-0.449254	0.202857	99
Es	-1.140739	-0.449164	0.202823	99
Es	0.050802	-0.449375	0.202864	99
Es	1.659956	1.343831	-0.660140	99
Es	3.480946	1.294682	0.360944	99
Es	1.692308	-0.638879	0.840411	99
Es	-1.682384	-0.473162	0.205337	99
Es	-0.663355	-0.553856	0.208208	99
Es	1.027272	1.440596	-1.086644	99
Es	1.767239	0.231452	0.029834	99
Es	0.731582	-0.384005	0.180681	99
Es	1.703389	-0.897242	-0.270747	99
Es	-2.819125	-0.790647	0.780752	99
Es	2.926033	1.102343	0.175967	99
Es	-2.813225	-0.778829	-0.382295	99
Es	-2.810145	0.225575	0.208018	99
Es	1.465467	1.586829	-0.932679	99
Es	1.529490	1.958995	-1.097160	99
Es	2.774810	1.092345	0.102373	99
Es	3.161473	1.159399	0.267653	99
Es	-0.473585	-0.358659	0.172105	99
Es	-0.535386	-0.433637	0.217789	99
