42
Properties=species:S:1:pos:R:3:Z:I:1 energy=-343.8465685385498 field_type=dipole dipole="0.000000 0.000000 0.000000" charge=0
C	-1.248797	-1.723551	-0.693973	6
C	-0.160367	-1.368521	0.306887	6
C	-0.012377	0.120569	0.447977	6
C	1.110593	0.780599	0.119417	6
C	1.322203	2.231709	0.280917	6
O	0.207133	2.973030	0.153077	8
O	2.430433	2.707860	0.465607	8
H	-1.357057	-2.810581	-0.765063	1
H	-1.007217	-1.341691	-1.691773	1
H	-2.216217	-1.306501	-0.394323	1
H	0.782903	-1.830931	-0.006563	1
H	-0.412547	-1.791061	1.286227	1
H	-0.861777	0.638229	0.887347	1
H	1.989073	0.251889	-0.239113	1
H	-0.565977	2.468949	-0.156653	1
Es	0.206878	2.972669	0.152911	99
Es	2.430097	2.707774	0.465557	99
Es	1.321884	2.231766	0.280867	99
Es	-0.012395	0.120564	0.448007	99
Es	1.110492	0.780787	0.119404	99
Es	-0.160356	-1.367935	0.306895	99
Es	-1.248265	-1.723319	-0.693510	99
Es	0.601814	2.658310	0.188827	99
Es	2.684868	2.789935	0.511888	99
Es	0.484736	0.507725	0.078095	99
Es	-1.321128	-2.461399	-0.739124	99
Es	-0.074246	-0.598055	0.353663	99
Es	-0.140849	2.677919	-0.001362	99
Es	1.676490	0.405920	-0.125117	99
Es	1.174422	1.508365	0.208815	99
Es	1.965242	2.528954	0.389923	99
Es	-0.321599	-1.642542	0.967089	99
Es	0.466462	-1.663121	0.092646	99
Es	0.256295	2.890603	0.181708	99
Es	0.180610	3.296621	0.187790	99
Es	-0.589586	0.487170	0.741593	99
Es	-0.684749	-1.522610	-0.179885	99
Es	-1.085820	-1.461832	-1.362908	99
Es	-1.899028	-1.434479	-0.488144	99
Es	2.140119	2.564536	0.415648	99
Es	2.351392	2.679435	0.452824	99
Es	0.672008	0.498307	0.450026	99
