45
Properties=species:S:1:pos:R:3:Z:I:1 energy=-345.03616706122887 field_type=dipole dipole="0.000000 0.000000 0.000000" charge=0
C	-2.360472	-1.133879	0.079476	6
C	-0.843842	-1.116989	-0.025694	6
C	-0.293382	0.306281	0.048646	6
C	1.231008	0.318751	-0.051124	6
C	1.789958	1.721941	0.008946	6
O	3.137548	1.741900	-0.122494	8
O	1.135677	2.740211	0.161166	8
H	-2.733282	-2.161209	0.019516	1
H	-2.816692	-0.558939	-0.732724	1
H	-2.692302	-0.707189	1.031416	1
H	-0.543932	-1.583329	-0.971483	1
H	-0.420592	-1.723309	0.783686	1
H	-0.605402	0.775171	0.990126	1
H	-0.721062	0.910831	-0.760863	1
H	1.541458	-0.132479	-1.000174	1
H	1.661678	-0.255249	0.776917	1
H	3.533638	0.857491	-0.235344	1
Es	3.137584	1.741452	-0.122544	99
Es	1.092447	2.614739	0.154821	99
Es	1.790012	1.721297	0.008890	99
Es	1.231186	0.318972	-0.051140	99
Es	-0.293192	0.306108	0.048622	99
Es	-0.843952	-1.116731	-0.025669	99
Es	-2.359867	-1.133782	0.079442	99
Es	3.316074	2.007448	-0.113048	99
Es	1.071718	3.008747	0.190077	99
Es	0.493098	0.322654	-0.002486	99
Es	-1.600293	-1.118988	0.027495	99
Es	1.449859	0.027134	-0.668633	99
Es	2.635248	1.685643	-0.078674	99
Es	-0.547553	-1.526344	0.525537	99
Es	1.533359	1.037933	-0.021785	99
Es	1.527397	-0.052236	0.484264	99
Es	1.423862	2.322597	0.096547	99
Es	-0.631444	-1.431187	-0.670915	99
Es	-2.617043	-1.838646	0.038401	99
Es	3.050232	1.710284	-0.119942	99
Es	3.279437	1.277125	-0.175757	99
Es	-0.497422	0.612611	0.675126	99
Es	-2.580925	-0.841661	0.719907	99
Es	-2.664501	-0.742091	-0.466579	99
Es	-0.573576	0.702481	-0.491298	99
Es	-0.565540	-0.406550	0.011181	99
Es	1.295682	2.467954	0.122279	99
Es	1.135727	2.739768	0.161124	99
