41
Properties=species:S:1:pos:R:3:Z:I:1 energy=-306.7954063324387 field_type=dipole dipole="0.000000 0.000000 0.000000" charge=0
C	-2.169635	0.072984	-0.517181	6
C	-0.856965	-0.371686	0.063209	6
C	-0.726215	-1.552946	0.690009	6
C	0.256095	0.627244	-0.077841	6
O	0.006065	1.806824	-0.311091	8
C	1.659745	0.137854	0.024789	6
C	2.678965	1.006614	0.043109	6
H	-2.539075	0.963504	0.002119	1
H	-2.938855	-0.702156	-0.432141	1
H	-2.057105	0.308964	-1.580641	1
H	-1.571755	-2.230286	0.777079	1
H	0.191565	-1.882066	1.163139	1
H	1.849456	-0.926036	0.057989	1
H	2.512386	2.079874	-0.005371	1
H	3.705325	0.661314	0.102819	1
Es	0.006070	1.806340	-0.310967	99
Es	0.256013	0.627141	-0.077812	99
Es	-0.856840	-0.371630	0.063223	99
Es	2.678014	1.006196	0.042406	99
Es	-0.725994	-1.552091	0.689470	99
Es	1.659734	0.137730	0.024795	99
Es	-2.169236	0.073008	-0.517079	99
Es	0.079156	2.048703	-0.371759	99
Es	-0.737373	-1.127307	0.455752	99
Es	2.567211	1.680210	-0.006850	99
Es	-2.407627	0.656198	-0.162883	99
Es	-0.138083	-1.649586	0.910954	99
Es	2.223954	0.624784	-0.064779	99
Es	0.972572	0.371041	-0.012532	99
Es	-0.292993	0.096810	0.021290	99
Es	0.099479	1.356338	-0.188381	99
Es	3.313887	0.757023	0.067757	99
Es	-1.280569	-1.959831	0.725663	99
Es	-2.083064	0.225580	-1.227078	99
Es	1.760349	-0.581254	0.077729	99
Es	-2.680278	-0.456944	-0.455430	99
Es	0.081439	1.458123	-0.260020	99
Es	-1.492163	-0.147835	-0.226620	99
Es	-0.100619	1.730217	-0.296101	99
Es	2.046949	0.515014	0.139732	99
Es	-0.746813	-0.909080	0.373752	99
