44
Properties=species:S:1:pos:R:3:Z:I:1 energy=-307.9837056524324 field_type=dipole dipole="0.000000 0.000000 0.000000" charge=0
C	-1.441056	-1.397673	0.680628	6
C	-0.095306	-0.770983	0.324048	6
C	0.576624	-1.531143	-0.813772	6
C	-0.270256	0.691387	-0.072512	6
O	-1.288586	1.111467	-0.618092	8
C	0.882934	1.599797	0.206138	6
C	0.828044	2.899097	-0.110652	6
H	-1.934636	-0.830143	1.477238	1
H	-1.309386	-2.427193	1.029628	1
H	-2.117896	-1.416123	-0.180662	1
H	0.539924	-0.814913	1.217068	1
H	-0.021106	-1.483823	-1.730842	1
H	0.716254	-2.584643	-0.550812	1
H	1.560334	-1.107323	-1.041782	1
H	1.761464	1.170277	0.671538	1
H	-0.052036	3.333067	-0.578762	1
H	1.664684	3.558867	0.091598	1
Es	-1.288128	1.111286	-0.617868	99
Es	-0.270238	0.691187	-0.072523	99
Es	0.828109	2.898761	-0.110406	99
Es	0.882926	1.599586	0.206165	99
Es	-0.095330	-0.770912	0.324003	99
Es	0.576277	-1.530725	-0.813306	99
Es	-1.440478	-1.397360	0.680424	99
Es	-1.395371	1.362213	-0.701254	99
Es	0.225144	-1.123447	-0.226576	99
Es	0.837019	2.308995	0.046213	99
Es	-0.760288	-1.078112	0.497297	99
Es	-0.167701	-0.021540	0.130945	99
Es	0.285631	3.193667	-0.396963	99
Es	1.243549	-1.236375	-0.965836	99
Es	0.332204	1.165356	0.077650	99
Es	-0.909831	0.943661	-0.400832	99
Es	0.340835	-0.793698	0.915407	99
Es	1.353123	3.283611	0.026131	99
Es	0.669593	-2.235453	-0.631551	99
Es	0.173345	-1.496705	-1.422334	99
Es	1.459332	1.274559	0.513939	99
Es	-1.340043	-2.103078	0.921047	99
Es	-0.982813	0.993338	-0.495017	99
Es	-1.883857	-1.414538	0.101332	99
Es	-1.771163	-1.009902	1.217277	99
Es	-1.331177	0.937543	-0.595014	99
Es	0.841167	2.128516	0.040352	99
