44
Properties=species:S:1:pos:R:3:Z:I:1 energy=-307.9360050871883 field_type=dipole dipole="0.000000 0.000000 0.000000" charge=0
C	-0.359054	-1.833551	-1.229914	6
C	-0.711604	-0.992391	-0.009214	6
C	-0.156183	0.443409	-0.076354	6
C	-0.693014	1.262039	1.111766	6
O	-0.416553	2.653979	0.953916	8
C	1.287816	0.443409	-0.076354	6
C	2.477977	0.443409	-0.076354	6
H	-0.844404	-2.812931	-1.162964	1
H	0.719887	-2.004271	-1.304484	1
H	-0.697074	-1.350651	-2.152034	1
H	-0.346744	-1.501201	0.891796	1
H	-1.804614	-0.952481	0.069556	1
H	-0.506984	0.918149	-1.001994	1
H	-0.263274	0.932559	2.064796	1
H	-1.781673	1.164359	1.183626	1
H	0.551436	2.747829	0.895696	1
H	3.544056	0.438339	-0.081484	1
Es	-0.416113	2.653889	0.954180	99
Es	-0.692609	1.262078	1.111291	99
Es	-0.155918	0.443378	-0.076455	99
Es	-0.711133	-0.991971	-0.009466	99
Es	1.287961	0.443393	-0.076432	99
Es	2.478781	0.443609	-0.076014	99
Es	-0.359033	-1.833067	-1.229387	99
Es	-0.629328	2.878110	0.994962	99
Es	0.368134	-1.939198	-1.277477	99
Es	2.614727	0.427481	-0.063039	99
Es	-0.364648	0.755474	-0.687652	99
Es	-0.384734	1.021280	1.751778	99
Es	-0.466567	-1.321987	0.596668	99
Es	2.390663	0.435611	-0.056886	99
Es	-0.405235	0.834810	0.501162	99
Es	0.080670	2.660702	0.928247	99
Es	-0.398271	-0.251130	-0.044188	99
Es	-1.432528	1.189904	1.155812	99
Es	-0.694847	-2.503600	-1.183622	99
Es	-0.584273	-1.498389	-1.848563	99
Es	0.626490	0.448951	-0.063916	99
Es	-0.521289	-1.406026	-0.616976	99
Es	-1.452419	-0.953088	0.048485	99
Es	-0.473443	2.144972	0.990500	99
Es	-0.395761	2.620827	0.910027	99
Es	1.899774	0.456749	-0.105983	99
Es	1.887220	0.457911	-0.071509	99
