44
Properties=species:S:1:pos:R:3:Z:I:1 energy=-307.95021423562133 field_type=dipole dipole="0.000000 0.000000 0.000000" charge=0
C	-2.175545	-1.867429	1.391994	6
C	-0.758805	-1.452449	1.178203	6
C	-0.392015	-0.371299	0.480953	6
O	0.926565	-0.024119	0.333543	8
C	1.306616	0.988471	-0.540817	6
C	0.567495	1.147990	-1.837496	6
C	2.395736	1.709961	-0.246017	6
H	-2.406865	-1.867879	2.461593	1
H	-2.329595	-2.879709	1.006104	1
H	-2.882144	-1.199689	0.889174	1
H	0.010905	-2.076809	1.624864	1
H	-1.102175	0.303691	0.027623	1
H	0.412585	0.174871	-2.314617	1
H	1.125035	1.771621	-2.545127	1
H	-0.404505	1.624551	-1.678246	1
H	2.937535	1.537250	0.678653	1
H	2.769175	2.480980	-0.910386	1
Es	0.926142	-0.023839	0.333312	99
Es	1.306501	0.988269	-0.540665	99
Es	-0.391585	-0.371035	0.480674	99
Es	0.567568	1.147829	-1.837136	99
Es	-2.174796	-1.867215	1.391848	99
Es	-0.758578	-1.451721	1.177791	99
Es	2.395884	1.710581	-0.246730	99
Es	1.168322	-0.208781	0.450041	99
Es	-1.460235	-1.619429	1.250885	99
Es	2.555468	2.087667	-0.610510	99
Es	-0.076631	1.453117	-1.717126	99
Es	-0.602991	-0.999277	0.727184	99
Es	0.415408	-0.149470	0.376728	99
Es	-0.868528	0.089306	0.158768	99
Es	0.927951	1.060923	-1.171900	99
Es	-0.218636	-1.845780	1.473023	99
Es	1.974518	1.462864	-0.363122	99
Es	0.460966	0.502025	-2.139106	99
Es	2.693239	1.620028	0.270392	99
Es	-2.324454	-1.865466	2.106385	99
Es	0.882078	0.024036	0.348353	99
Es	-2.273713	-2.540635	1.131572	99
Es	0.935215	1.567891	-2.306155	99
Es	-2.640761	-1.423755	1.059200	99
Es	0.981795	0.366595	0.011320	99
Es	1.911855	1.394058	-0.403955	99
Es	-0.576449	-0.841420	0.933677	99
