49
Properties=species:S:1:pos:R:3:Z:I:1 energy=-273.30492491242967 field_type=dipole dipole="0.000000 0.000000 0.000000" charge=0
C	-2.274348	-0.950476	-0.362985	6
C	-0.819548	-0.591466	-0.047715	6
C	0.096062	-1.744206	-0.461475	6
C	-0.449368	0.733874	-0.743635	6
C	0.968042	1.251604	-0.467315	6
C	1.217472	1.543454	0.984485	6
C	2.163432	0.943924	1.718325	6
H	-2.951717	-0.155516	-0.033075	1
H	-2.568258	-1.872136	0.150715	1
H	-2.423687	-1.099506	-1.437975	1
H	-0.740968	-0.463216	1.038425	1
H	0.093202	-1.883546	-1.547915	1
H	-0.229858	-2.682956	-0.000015	1
H	1.128032	-1.570066	-0.142785	1
H	-1.169808	1.506464	-0.442895	1
H	-0.563838	0.616284	-1.829255	1
H	1.110343	2.184734	-1.026185	1
H	1.709953	0.548164	-0.861765	1
H	0.587382	2.298534	1.450255	1
H	2.818053	0.187004	1.297715	1
H	2.299423	1.199044	2.765065	1
Es	1.217445	1.543536	0.984644	99
Es	0.967964	1.251625	-0.466758	99
Es	-0.819628	-0.591452	-0.047613	99
Es	-0.448946	0.733591	-0.743260	99
Es	2.163322	0.944134	1.718200	99
Es	-2.273747	-0.950243	-0.362848	99
Es	0.095643	-1.743648	-0.461299	99
Es	-2.728750	-0.397919	-0.135984	99
Es	1.090674	1.397857	0.274740	99
Es	-0.931976	1.252072	-0.536127	99
Es	0.781382	-1.620275	-0.252497	99
Es	-0.350631	-1.162128	-0.255604	99
Es	2.249524	1.120857	2.415880	99
Es	0.785427	2.051145	1.304380	99
Es	-0.760005	-0.496186	0.679379	99
Es	1.041121	1.872644	-0.841045	99
Es	1.460042	0.776465	-0.732001	99
Es	1.702861	1.155013	1.385587	99
Es	-2.457628	-1.583529	-0.004965	99
Es	0.099856	-1.829524	-1.203019	99
Es	-2.355272	-1.044028	-1.098598	99
Es	-0.121099	-2.391196	-0.142579	99
Es	0.307121	0.997531	-0.576080	99
Es	2.557433	0.453867	1.403221	99
Es	-0.530986	0.652743	-1.478141	99
Es	-1.578684	-0.776317	-0.208859	99
Es	-0.624714	0.071345	-0.400430	99
Es	1.740041	1.269604	1.351608	99
