45
Properties=species:S:1:pos:R:3:Z:I:1 energy=-345.0136904223106 field_type=dipole dipole="0.000000 0.000000 0.000000" charge=0
C	-1.150116	-2.094243	0.478528	6
C	-0.981516	-1.139192	-0.686442	6
C	-0.485876	0.206418	-0.201402	6
O	-1.221086	0.960948	0.439868	8
C	0.964314	0.543748	-0.484492	6
C	1.316014	1.948718	-0.022422	6
O	1.314124	2.016747	1.398558	8
H	-1.502596	-3.068182	0.126618	1
H	-1.876186	-1.708022	1.201118	1
H	-0.202156	-2.240372	1.006208	1
H	-1.932336	-0.987212	-1.208412	1
H	-0.273936	-1.548942	-1.414722	1
H	1.125734	0.463858	-1.564202	1
H	1.584634	-0.194812	0.034708	1
H	0.620674	2.699687	-0.412302	1
H	2.322664	2.209838	-0.362252	1
H	0.377644	1.931017	1.671038	1
Es	-1.220811	0.960600	0.439621	99
Es	1.313619	2.016944	1.398466	99
Es	-0.485912	0.206521	-0.201332	99
Es	1.315782	1.948222	-0.022151	99
Es	0.963987	0.543718	-0.484455	99
Es	-0.981357	-1.138887	-0.686263	99
Es	-1.149983	-2.093653	0.477919	99
Es	-1.244605	0.876157	0.406179	99
Es	1.573888	2.058581	1.572061	99
Es	-0.712044	-0.444999	-0.447503	99
Es	2.007822	2.122460	-0.265018	99
Es	0.838735	1.975497	1.502910	99
Es	0.225677	0.360017	-0.341717	99
Es	-1.055243	-1.574961	-0.118893	99
Es	1.064830	0.478532	-1.209713	99
Es	1.355406	0.055171	-0.145416	99
Es	-1.607691	-1.034480	-1.035981	99
Es	-0.501234	-1.415546	-1.167137	99
Es	-0.949494	0.685936	0.192733	99
Es	1.121161	1.223954	-0.266074	99
Es	0.843332	2.441565	-0.295255	99
Es	-1.382379	-2.755982	0.235659	99
Es	-0.512049	-2.184624	0.828462	99
Es	-1.630665	-1.837196	0.957352	99
Es	1.277580	1.978869	0.889209	99
Es	-1.010174	0.748942	0.275747	99
Es	1.288585	2.004781	1.376300	99
Es	-1.298310	1.153550	0.568549	99
