45
Properties=species:S:1:pos:R:3:Z:I:1 energy=-345.015103976278 field_type=dipole dipole="0.000000 0.000000 0.000000" charge=0
C	-2.429958	-0.765438	0.145517	6
C	-0.924528	-0.893248	0.294987	6
C	-0.222548	0.452392	0.281877	6
O	-0.826678	1.524462	0.193147	8
C	1.305002	0.434052	0.391977	6
C	1.935232	0.198732	-0.968743	6
O	1.774212	1.678912	0.899217	8
H	-2.901708	-1.751538	0.184257	1
H	-2.690208	-0.298398	-0.809773	1
H	-2.855088	-0.151188	0.945827	1
H	-0.527928	-1.503268	-0.522303	1
H	-0.692658	-1.386368	1.244987	1
H	1.603332	-0.343518	1.101707	1
H	1.653552	0.991412	-1.671603	1
H	1.628692	-0.760108	-1.398133	1
H	3.027862	0.216022	-0.893753	1
H	1.143412	2.357092	0.580807	1
Es	-0.826410	1.524009	0.193162	99
Es	1.773802	1.678977	0.898838	99
Es	-0.222633	0.452536	0.281817	99
Es	1.304827	0.434423	0.392038	99
Es	-0.924402	-0.893130	0.294962	99
Es	1.934842	0.198853	-0.968063	99
Es	-2.429267	-0.765411	0.145559	99
Es	-1.019131	1.675161	0.196002	99
Es	2.016406	1.704568	1.094165	99
Es	-0.575737	-0.209091	0.284830	99
Es	2.670140	0.199082	-0.915844	99
Es	-2.709545	-0.359736	0.680619	99
Es	1.498395	-0.096328	0.865540	99
Es	0.525688	0.433223	0.336624	99
Es	-0.601521	1.124055	0.221657	99
Es	1.593185	0.302456	-0.280286	99
Es	-0.754137	-1.211042	0.921027	99
Es	-0.640817	-1.283009	-0.246421	99
Es	1.571128	1.246050	0.700958	99
Es	1.451263	1.987568	0.715650	99
Es	1.715448	-0.448504	-1.251082	99
Es	1.730956	0.730888	-1.434768	99
Es	-2.745245	-1.446495	0.173209	99
Es	-2.600017	-0.457244	-0.493325	99
Es	-1.652170	-0.824655	0.217627	99
Es	-0.654298	1.222064	0.198885	99
Es	1.756156	1.671979	0.863091	99
Es	-0.704208	1.529333	0.200380	99
