45
Properties=species:S:1:pos:R:3:Z:I:1 energy=-345.01351852368066 field_type=dipole dipole="0.000000 0.000000 0.000000" charge=0
C	-1.075068	-1.178743	1.218930	6
C	-0.890558	-0.875203	-0.264160	6
C	-0.520108	0.580197	-0.555130	6
O	-1.498178	1.449287	0.009250	8
C	0.877293	0.935637	-0.041640	6
C	2.055153	0.446947	-0.839350	6
O	1.021313	1.594267	0.992070	8
H	-1.351887	-2.228693	1.353740	1
H	-1.870647	-0.567213	1.655050	1
H	-0.154138	-0.999263	1.780170	1
H	-1.837927	-1.103603	-0.768730	1
H	-0.133367	-1.551453	-0.676710	1
H	-0.531377	0.754457	-1.637420	1
H	-1.136907	1.738787	0.872230	1
H	2.123183	-0.641103	-0.777960	1
H	2.974832	0.884177	-0.439260	1
H	1.948392	0.761517	-1.881080	1
Es	1.021250	1.593948	0.991587	99
Es	-1.497719	1.449233	0.009586	99
Es	0.877022	0.935624	-0.041575	99
Es	-0.520055	0.580433	-0.554700	99
Es	2.054750	0.446931	-0.839183	99
Es	-0.890419	-0.874753	-0.263980	99
Es	-1.074915	-1.178544	1.218239	99
Es	0.753163	1.607647	1.028053	99
Es	-1.790894	1.481177	-0.106238	99
Es	-0.667982	-0.119508	-0.396051	99
Es	1.461829	0.688887	-0.436526	99
Es	-1.260309	-1.895727	1.308042	99
Es	0.193775	0.754154	-0.289692	99
Es	-1.295602	1.565261	0.430204	99
Es	0.955272	1.328092	0.611022	99
Es	-0.521676	0.681936	-1.284105	99
Es	1.969016	0.648935	-1.526848	99
Es	2.082052	-0.269539	-0.794334	99
Es	-0.450581	-1.051996	1.588225	99
Es	-0.369519	-1.324681	-0.549232	99
Es	2.659066	0.729308	-0.584544	99
Es	-1.600664	-0.768239	1.509595	99
Es	-1.122436	1.125101	-0.159315	99
Es	-1.518243	-1.019844	-0.613342	99
Es	-0.978811	-1.014778	0.471677	99
Es	0.977260	1.410728	0.695105	99
Es	-1.436356	1.489228	-0.008712	99
Es	1.307603	1.687789	1.096700	99
