41
Properties=species:S:1:pos:R:3:Z:I:1 energy=-306.7628478521273 field_type=dipole dipole="0.000000 0.000000 0.000000" charge=0
C	-2.214461	-1.843856	0.186418	6
C	-1.026241	-1.359986	-0.180492	6
O	-0.617331	-0.095726	0.166518	8
C	0.488389	0.479514	-0.440852	6
C	0.770269	0.357264	-1.747992	6
C	1.291299	1.327264	0.421318	6
C	1.101169	1.504744	1.736628	6
H	-2.515081	-2.849266	-0.085132	1
H	-2.906171	-1.239356	0.763438	1
H	-0.305001	-1.937106	-0.742672	1
H	0.138829	-0.223066	-2.411692	1
H	1.624859	0.852154	-2.197792	1
H	2.116309	1.859564	-0.048822	1
H	0.301819	1.006564	2.276278	1
H	1.751349	2.161294	2.304848	1
Es	-0.617039	-0.095962	0.166068	99
Es	0.488213	0.479480	-0.440615	99
Es	-1.025477	-1.359841	-0.180797	99
Es	1.291419	1.327312	0.421022	99
Es	1.100654	1.504343	1.736445	99
Es	0.768903	0.355652	-1.751033	99
Es	-2.214067	-1.843366	0.186420	99
Es	-0.763487	0.061735	0.414039	99
Es	0.920908	0.939741	0.047477	99
Es	-1.590836	-1.643171	0.133789	99
Es	0.642884	0.105717	-2.074141	99
Es	1.546882	1.946037	2.087058	99
Es	-0.727418	-0.559004	-0.001137	99
Es	-0.531110	-1.740047	-0.563392	99
Es	0.561909	1.163220	2.082351	99
Es	0.635893	0.412308	-1.208643	99
Es	-2.667665	-1.420685	0.575956	99
Es	1.803032	1.629337	0.045519	99
Es	-0.623098	-0.112051	0.087907	99
Es	-2.371629	-2.510446	-0.015462	99
Es	1.060889	0.508632	-1.985362	99
Es	-0.189864	0.045447	-0.070789	99
Es	1.144837	1.431996	1.098679	99
Es	1.207591	1.357889	1.035859	99
Es	-1.715872	-1.592373	-0.114664	99
Es	0.639531	0.458718	-1.142531	99
