41
Properties=species:S:1:pos:R:3:Z:I:1 energy=-306.74112178796753 field_type=dipole dipole="0.000000 0.000000 0.000000" charge=0
C	-1.586778	-2.204815	0.617505	6
C	-1.981298	-0.939375	0.797585	6
O	-1.300588	0.218865	0.553325	8
C	0.020182	0.099985	0.016505	6
C	0.583102	1.503055	-0.193015	6
C	1.926432	1.461895	-0.787795	6
C	3.022352	1.428385	-1.278045	6
H	-2.258638	-3.021085	0.864265	1
H	-0.611388	-2.472915	0.230795	1
H	-2.964838	-0.698925	1.188625	1
H	-0.014548	-0.432535	-0.942515	1
H	0.658572	-0.455025	0.715755	1
H	0.609172	2.033955	0.766055	1
H	-0.095548	2.078495	-0.833995	1
H	3.993812	1.400035	-1.715055	1
Es	-1.300364	0.218383	0.553220	99
Es	-1.981196	-0.939011	0.797553	99
Es	0.020181	0.100602	0.016508	99
Es	0.583470	1.503120	-0.193186	99
Es	1.925521	1.461869	-0.787397	99
Es	3.024139	1.428137	-1.278834	99
Es	-1.586591	-2.204766	0.617424	99
Es	-1.421844	0.522006	0.612352	99
Es	0.330231	0.817995	-0.101305	99
Es	-1.743869	-1.577984	0.697780	99
Es	3.319322	1.387135	-1.415148	99
Es	-0.831154	0.133476	0.360705	99
Es	0.448658	-0.280376	0.488006	99
Es	2.747211	1.392561	-1.156917	99
Es	-2.645577	-0.770941	1.061674	99
Es	-0.005447	-0.263813	-0.628072	99
Es	-2.045647	-2.741557	0.786983	99
Es	1.308956	1.484001	-0.512920	99
Es	0.618223	1.843213	0.439849	99
Es	0.147920	1.872134	-0.629183	99
Es	-0.929361	-2.356175	0.356426	99
Es	-1.498497	-0.264087	0.620557	99
Es	-1.307179	0.143212	0.552332	99
Es	2.489689	1.491543	-1.016022	99
Es	2.482927	1.449580	-1.055970	99
Es	-1.772616	-1.675839	0.694910	99
