41
Properties=species:S:1:pos:R:3:Z:I:1 energy=-306.80460511622675 field_type=dipole dipole="0.000000 0.000000 0.000000" charge=0
C	-2.434869	-1.619947	0.052513	6
C	-0.943339	-1.410427	0.044943	6
O	-0.163299	-2.357237	0.114593	8
C	-0.463149	-0.001067	-0.007717	6
C	0.849801	0.266743	-0.011237	6
C	1.374351	1.611563	-0.055847	6
C	2.685071	1.878363	-0.058947	6
H	-2.947559	-0.797447	-0.452447	1
H	-2.784899	-1.693487	1.084553	1
H	-2.671039	-2.541897	-0.485927	1
H	-1.213899	0.778673	-0.038187	1
H	1.569371	-0.550597	0.022103	1
H	0.668161	2.439383	-0.087057	1
H	3.434721	1.093263	-0.028417	1
H	3.040581	2.904123	-0.092917	1
Es	-0.163476	-2.356789	0.114558	99
Es	-0.943414	-1.410319	0.044908	99
Es	0.849908	0.266806	-0.011254	99
Es	1.374129	1.611573	-0.055845	99
Es	2.684496	1.878371	-0.058937	99
Es	-0.463068	-0.001139	-0.007688	99
Es	-2.434507	-1.619974	0.052529	99
Es	-0.154767	-2.632815	0.127818	99
Es	1.104949	0.952742	-0.035243	99
Es	-0.691852	-0.706608	0.016687	99
Es	-1.683831	-1.486453	0.034423	99
Es	2.891319	2.532931	-0.082808	99
Es	0.876268	2.155349	-0.075078	99
Es	0.166291	0.132895	-0.031216	99
Es	3.159444	1.366583	-0.036151	99
Es	-0.445963	-1.984207	0.074959	99
Es	-2.771350	-1.061124	-0.275414	99
Es	-2.646622	-1.656266	0.725069	99
Es	2.089900	1.731552	-0.053108	99
Es	-0.962924	0.530111	-0.024731	99
Es	-2.598977	-2.225870	-0.295983	99
Es	1.339626	-0.268044	0.007538	99
Es	-0.371297	-2.083394	0.111489	99
Es	1.972233	1.690033	-0.061053	99
Es	-0.059450	-2.216815	0.108599	99
Es	0.080230	0.090523	0.012238	99
