35
Properties=species:S:1:pos:R:3:Z:I:1 energy=-304.3576944666407 field_type=dipole dipole="0.000000 0.000000 0.000000" charge=0
C	-1.810132	-1.450868	-0.003908	6
C	-0.311772	-1.520228	0.003612	6
O	0.312658	-2.573768	0.008002	8
C	0.401829	-0.265948	0.002422	6
C	0.994508	0.778222	0.001882	6
C	1.749318	2.110892	0.001632	6
C	2.340598	3.154772	0.001472	6
H	-2.160192	-0.414648	0.011232	1
H	-2.197822	-1.963328	0.880662	1
H	-2.187712	-1.934978	-0.908518	1
H	2.868718	4.079882	0.001512	1
Es	0.312614	-2.572707	0.008000	99
Es	-0.311483	-1.519423	0.003611	99
Es	0.994593	0.777862	0.001885	99
Es	1.748672	2.109687	0.001635	99
Es	2.342547	3.158288	0.001473	99
Es	0.405898	-0.259326	0.002393	99
Es	-1.808775	-1.450055	-0.003904	99
Es	0.441420	-2.771763	0.008549	99
Es	2.378274	3.161223	0.002725	99
Es	1.078450	0.914276	0.002092	99
Es	-0.938902	-1.355399	0.000536	99
Es	-0.036268	-0.931742	0.001991	99
Es	1.743140	2.133242	0.000985	99
Es	1.446240	1.562171	0.002529	99
Es	-2.048774	-1.783193	0.575700	99
Es	0.179010	-1.931593	0.007320	99
Es	-2.040942	-1.764271	-0.596195	99
Es	-2.030785	-0.755847	0.005588	99
Es	0.131241	-2.232714	0.005719	99
Es	2.066485	2.602189	0.001690	99
Es	2.017422	2.585386	0.002225	99
Es	0.261783	-2.508803	0.007657	99
Es	0.651519	0.187594	0.001088	99
Es	0.697440	0.328016	0.002028	99
