40
Properties=species:S:1:pos:R:3:Z:I:1 energy=-269.7039430828988 field_type=dipole dipole="0.000000 0.000000 0.000000" charge=0
C	-3.008803	-0.211167	0.324045	6
C	-1.564803	-0.211167	0.324045	6
C	-0.374644	-0.211167	0.324045	6
C	1.069356	-0.211167	0.324045	6
C	1.609076	-0.975577	-0.881765	6
C	1.551376	1.150003	0.324045	6
C	1.948657	2.271903	0.324045	6
H	-3.402773	0.809723	0.335695	1
H	-3.402864	-0.731697	1.202285	1
H	-3.402783	-0.711467	-0.565915	1
H	1.427006	-0.717297	1.229645	1
H	1.287867	-0.522927	-1.829875	1
H	1.258996	-2.014897	-0.878405	1
H	2.705697	-0.991477	-0.879825	1
H	2.298636	3.278373	0.323885	1
Es	1.068872	-0.210866	0.324011	99
Es	-3.007524	-0.210961	0.324012	99
Es	1.550498	1.149662	0.324114	99
Es	1.608725	-0.975089	-0.881103	99
Es	-1.569684	-0.210910	0.323997	99
Es	1.948955	2.273205	0.323954	99
Es	-0.374330	-0.211233	0.324120	99
Es	1.246188	0.499709	0.308580	99
Es	-1.973066	-0.192061	0.305833	99
Es	2.049459	2.567594	0.288465	99
Es	-1.107913	-0.215812	0.321171	99
Es	1.366595	-1.674245	-0.870304	99
Es	1.781815	1.972291	0.288038	99
Es	0.318867	-0.173086	0.312424	99
Es	1.280613	-0.529582	0.921306	99
Es	-3.230081	0.471477	0.330366	99
Es	-3.229683	-0.536965	-0.264149	99
Es	-3.238038	-0.552993	0.903476	99
Es	1.305429	-0.555071	-0.243927	99
Es	2.352304	-0.977308	-0.869119	99
Es	1.387172	-0.664374	-1.505574	99
Es	1.786198	1.707843	0.351445	99
Es	1.727250	1.730576	0.356800	99
Es	-0.956660	-0.223392	0.324917	99
Es	-0.962239	-0.197989	0.345922	99
