47
Properties=species:S:1:pos:R:3:Z:I:1 energy=-309.13836007770885 field_type=dipole dipole="0.000000 0.000000 0.000000" charge=0
C	-2.861912	-0.237589	-0.219606	6
C	-1.492922	-0.105679	0.418294	6
O	-0.508892	-0.425979	-0.563426	8
C	0.825288	-0.389439	-0.050056	6
C	1.704198	-1.181299	-1.012906	6
C	1.289858	1.039751	0.018044	6
C	1.733598	1.642631	1.128994	6
H	-3.651322	0.005271	0.497494	1
H	-3.019492	-1.257349	-0.586506	1
H	-2.951302	0.429631	-1.083456	1
H	-1.412842	-0.795359	1.265454	1
H	-1.353322	0.919961	0.774804	1
H	0.861308	-0.876359	0.932704	1
H	1.650118	-0.774429	-2.029556	1
H	1.357798	-2.218929	-1.074926	1
H	2.751308	-1.184499	-0.692726	1
H	1.241318	1.606721	-0.909416	1
H	1.791208	1.120401	2.079214	1
H	2.046008	2.682541	1.107574	1
Es	-0.508716	-0.425834	-0.562928	99
Es	0.825303	-0.389108	-0.050230	99
Es	-1.493097	-0.105768	0.417896	99
Es	1.289903	1.040003	0.018086	99
Es	1.733463	1.642309	1.128803	99
Es	1.703809	-1.180930	-1.012509	99
Es	-2.861503	-0.237537	-0.219483	99
Es	-0.573429	-0.651409	-0.803795	99
Es	1.554798	1.373906	0.711657	99
Es	-3.391316	-0.069713	0.277481	99
Es	1.469210	-1.887336	-1.046958	99
Es	1.074794	0.343661	0.002187	99
Es	-1.428717	-0.579859	1.005996	99
Es	0.841873	-0.709430	0.617603	99
Es	-1.393098	0.596727	0.665757	99
Es	-0.030990	-0.391159	-0.330800	99
Es	-2.177371	-0.175657	0.092488	99
Es	1.725977	1.263000	1.636966	99
Es	1.249140	1.418510	-0.616083	99
Es	2.411353	-1.171188	-0.787146	99
Es	1.666902	-0.893419	-1.691691	99
Es	-2.970142	-0.926485	-0.461716	99
Es	-2.922258	0.216254	-0.795362	99
Es	1.268052	-0.773221	-0.518640	99
Es	1.938403	2.307899	1.114841	99
Es	-0.845940	-0.290044	-0.170442	99
Es	-0.489095	-0.279505	-0.597892	99
Es	1.527527	1.346891	0.590298	99
