36
Properties=species:S:1:pos:R:3:Z:I:1 energy=-341.42847146758146 field_type=dipole dipole="0.000000 0.000000 0.000000" charge=0
C	-1.708575	-1.229157	-0.003944	6
C	-0.209535	-1.305507	0.004126	6
O	0.412675	-2.359057	0.008896	8
C	0.513746	-0.056007	0.002436	6
C	1.126745	0.977103	0.001736	6
C	1.864125	2.212993	0.001376	6
O	1.278645	3.285842	0.000856	8
H	-2.053804	-0.192097	0.011496	1
H	-2.098165	-1.741127	0.880116	1
H	-2.087355	-1.712157	-0.908764	1
H	2.961495	2.119173	0.001666	1
Es	1.278864	3.285422	0.000856	99
Es	0.412475	-2.358516	0.008895	99
Es	1.863762	2.212421	0.001377	99
Es	-0.209429	-1.305228	0.004126	99
Es	0.513403	-0.056744	0.002437	99
Es	1.126118	0.976621	0.001758	99
Es	-1.707951	-1.229022	-0.003941	99
Es	1.492863	2.832738	0.000890	99
Es	0.521692	-2.574104	0.009598	99
Es	0.163765	-0.651726	0.001863	99
Es	-0.901783	-1.192501	0.000739	99
Es	1.491034	1.585714	0.002607	99
Es	0.813682	0.411162	0.006396	99
Es	2.550183	2.089695	0.001682	99
Es	0.202853	-1.913203	0.009109	99
Es	1.205375	3.536312	0.000613	99
Es	-1.948174	-1.563559	0.575225	99
Es	-1.939603	-1.544057	-0.596237	99
Es	-1.927361	-0.539505	0.005698	99
Es	1.462919	2.910887	0.001291	99
Es	0.229676	-2.007736	0.005578	99
Es	1.269957	3.207727	0.000880	99
Es	0.381151	-2.299895	0.008622	99
Es	0.808010	0.484335	0.002044	99
Es	0.821337	0.463932	-0.002126	99
