48
Properties=species:S:1:pos:R:3:Z:I:1 energy=-346.1711444490721 field_type=dipole dipole="0.000000 0.000000 0.000000" charge=0
C	-1.809993	-1.023312	-0.000164	6
C	-0.299493	-0.877602	0.149986	6
O	0.326007	-1.823972	-0.725064	8
C	0.231347	0.539538	-0.165604	6
C	-0.424233	1.610708	0.707316	6
C	1.759927	0.607798	0.003316	6
O	2.422297	-0.216912	-0.946784	8
H	-2.351743	-0.440502	0.749676	1
H	-2.103803	-2.073332	0.107766	1
H	-2.137133	-0.705942	-0.996284	1
H	-0.017403	-1.159172	1.170956	1
H	-0.041363	-1.683652	-1.618124	1
H	0.010957	0.755978	-1.219764	1
H	-0.284903	1.393948	1.771716	1
H	-1.497793	1.684958	0.509536	1
H	0.007697	2.596648	0.503846	1
H	2.064457	0.293878	1.007606	1
H	2.119517	1.630368	-0.151694	1
H	2.025657	-1.109432	-0.858244	1
Es	0.325578	-1.823776	-0.725411	99
Es	2.422259	-0.217278	-0.946233	99
Es	-0.299390	-0.877560	0.149578	99
Es	1.759535	0.607388	0.002971	99
Es	0.231254	0.539518	-0.165393	99
Es	-1.809303	-1.023219	-0.000065	99
Es	-0.423915	1.610150	0.706901	99
Es	0.461049	-2.094876	-0.619454	99
Es	2.606860	-0.107248	-1.178427	99
Es	1.945105	0.386941	0.703329	99
Es	-2.013572	-0.797430	-0.678139	99
Es	-0.121950	2.277539	0.565387	99
Es	-0.098461	-1.062450	0.836191	99
Es	0.075915	0.670931	-0.868851	99
Es	-1.069539	-0.943464	0.079398	99
Es	0.132139	-1.709256	-1.170845	99
Es	0.103362	-1.465081	-0.452318	99
Es	2.226560	-0.639176	-0.860291	99
Es	2.160005	0.050366	-0.598795	99
Es	-1.152264	1.650403	0.567573	99
Es	1.995472	1.314373	-0.098799	99
Es	-2.005607	-1.738360	0.069880	99
Es	-0.327180	1.447487	1.429561	99
Es	-2.167596	-0.620488	0.508135	99
Es	0.371584	-1.757877	-0.742439	99
Es	-0.107850	1.083776	0.279116	99
Es	-0.045471	-0.159069	-0.000384	99
Es	2.422661	-0.229623	-0.899025	99
Es	0.989484	0.563616	-0.088302	99
