47
Properties=species:S:1:pos:R:3:Z:I:1 energy=-309.1210904277324 field_type=dipole dipole="0.000000 0.000000 0.000000" charge=0
C	-1.357854	-1.907937	-0.705171	6
O	-0.637684	-1.371427	0.395059	8
C	0.155266	-0.179127	0.164239	6
C	1.359816	-0.495827	-0.718511	6
C	-0.639994	1.105283	-0.219791	6
C	0.228246	1.895913	0.772049	6
C	0.541276	0.565723	1.478989	6
H	-2.044584	-2.670797	-0.327801	1
H	-0.670894	-2.379687	-1.412881	1
H	-1.940884	-1.131687	-1.208361	1
H	2.030306	0.364633	-0.819921	1
H	1.046876	-0.781847	-1.727871	1
H	1.942246	-1.321887	-0.295921	1
H	-1.700104	1.072443	0.059509	1
H	-0.564224	1.426003	-1.262781	1
H	1.103436	2.369423	0.313689	1
H	-0.299364	2.639143	1.375409	1
H	1.574686	0.452023	1.818529	1
H	-0.126564	0.349633	2.321539	1
Es	-0.637596	-1.371143	0.394591	99
Es	0.155161	-0.179035	0.164751	99
Es	-1.357668	-1.907780	-0.704919	99
Es	-0.639111	1.104913	-0.219708	99
Es	0.227912	1.895227	0.772083	99
Es	1.359182	-0.495705	-0.718106	99
Es	0.541408	0.565521	1.478085	99
Es	-0.689548	-1.420735	0.711526	99
Es	-0.593836	1.314889	-0.925186	99
Es	1.746735	-1.054103	-0.427481	99
Es	-1.834238	-2.424228	-0.446335	99
Es	1.239513	0.481309	1.706657	99
Es	0.820249	2.212694	0.456799	99
Es	-0.296383	0.412069	-0.117964	99
Es	-0.383896	-0.970862	0.253551	99
Es	0.431307	1.274946	1.178233	99
Es	-1.742919	-1.372646	-1.055978	99
Es	-0.885319	-1.527246	-0.056950	99
Es	1.132666	-0.686127	-1.407129	99
Es	0.766052	-0.327876	-0.282061	99
Es	1.806562	0.092373	-0.777080	99
Es	-1.346823	1.082746	-0.024709	99
Es	-0.885614	-2.225612	-1.194963	99
Es	0.091486	0.430038	2.034018	99
Es	-0.126712	2.396822	1.178709	99
Es	-0.227759	1.584846	0.235316	99
Es	0.373504	0.104625	0.871763	99
Es	-0.571242	-1.407789	0.355383	99
