47
Properties=species:S:1:pos:R:3:Z:I:1 energy=-309.12043988356584 field_type=dipole dipole="0.000000 0.000000 0.000000" charge=0
C	-2.664618	0.684858	0.845952	6
O	-1.248618	0.571478	0.856772	8
C	-0.773498	-0.180151	-0.259248	6
C	0.734432	-0.244761	-0.189788	6
C	1.274442	-1.092201	0.932101	6
C	1.515772	-0.214381	-1.488648	6
C	1.519693	0.988238	-0.588328	6
H	-2.969957	1.265258	1.720422	1
H	-3.128877	-0.304201	0.903342	1
H	-3.000587	1.207759	-0.054458	1
H	-1.102677	0.304259	-1.186818	1
H	-1.192087	-1.192901	-0.230368	1
H	2.370363	-1.090322	0.955922	1
H	0.944873	-2.130221	0.816501	1
H	0.920552	-0.723722	1.900332	1
H	0.973862	-0.141951	-2.425138	1
H	2.429612	-0.794441	-1.560558	1
H	2.429942	1.219729	-0.046148	1
H	0.967383	1.867679	-0.901838	1
Es	-1.248675	0.571142	0.856572	99
Es	-0.772846	-0.179943	-0.259184	99
Es	-2.664289	0.684887	0.846054	99
Es	0.734556	-0.244569	-0.190255	99
Es	1.515755	-0.213599	-1.488156	99
Es	1.519556	0.987364	-0.588902	99
Es	1.274255	-1.091953	0.931820	99
Es	-1.047977	0.742291	1.053645	99
Es	1.585520	0.450538	-1.129251	99
Es	1.034690	-0.840089	1.577177	99
Es	-1.043893	-0.873407	-0.240271	99
Es	-2.874952	1.082541	1.445901	99
Es	1.146423	1.556129	-0.782370	99
Es	0.007692	-0.207925	-0.233557	99
Es	-2.977617	0.004845	0.871652	99
Es	1.138165	-0.187781	-2.084550	99
Es	-1.800886	0.582225	0.799684	99
Es	2.109947	1.134472	-0.221995	99
Es	-1.096163	0.305327	0.438372	99
Es	1.039633	-1.794391	0.843345	99
Es	-0.994323	0.154450	-0.902893	99
Es	2.022747	-1.081507	0.934044	99
Es	2.100140	-0.601478	-1.526177	99
Es	-2.889012	1.031253	0.221983	99
Es	1.000196	-0.662736	0.362849	99
Es	-1.263977	0.503493	0.861991	99
Es	1.085413	-0.409891	-0.944091	99
Es	1.090487	0.504164	-0.236051	99
