42
Properties=species:S:1:pos:R:3:Z:I:1 energy=-343.75504506028756 field_type=dipole dipole="0.000000 0.000000 0.000000" charge=0
C	-1.753922	-1.281354	-0.830515	6
O	-0.472732	-1.100774	-0.239625	8
C	-0.163763	0.133256	0.305115	6
C	-0.996423	1.191036	0.302205	6
C	1.177998	0.213176	0.922005	6
C	2.372528	0.344796	0.008995	6
O	1.992308	1.399966	0.898195	8
H	-1.816232	-2.313354	-1.188425	1
H	-1.884942	-0.618494	-1.691745	1
H	-2.550512	-1.133434	-0.094205	1
H	-1.985562	1.180186	-0.135045	1
H	-0.680803	2.129276	0.751065	1
H	1.287588	-0.427854	1.790715	1
H	2.211688	0.504336	-1.049725	1
H	3.262787	-0.220764	0.250985	1
Es	-0.473012	-1.100293	-0.239631	99
Es	1.992143	1.399378	0.897964	99
Es	-0.163609	0.133063	0.305163	99
Es	1.178209	0.213644	0.921982	99
Es	2.371970	0.345322	0.009726	99
Es	-1.753566	-1.281133	-0.830280	99
Es	-0.996143	1.192589	0.302831	99
Es	2.057040	1.611991	1.051035	99
Es	-0.271555	-1.360145	-0.206031	99
Es	-0.789267	1.559448	0.480370	99
Es	-1.842641	-0.819644	-1.405957	99
Es	1.706918	0.094123	0.389844	99
Es	2.980086	-0.029489	0.181314	99
Es	0.506230	0.178834	0.601313	99
Es	-0.399395	-0.621561	-0.059062	99
Es	2.194029	1.051220	0.548322	99
Es	-0.682000	0.886401	0.317167	99
Es	-2.292477	-1.168088	-0.328925	99
Es	-1.792439	-1.983594	-1.075184	99
Es	1.643053	0.999503	0.942761	99
Es	-1.521442	1.192653	0.072017	99
Es	2.256551	0.463495	-0.697978	99
Es	-0.482752	-1.028257	-0.238710	99
Es	-0.944280	-1.098729	-0.436622	99
Es	1.945590	1.375840	0.834420	99
Es	1.241105	-0.205445	1.505904	99
Es	-0.635831	0.727435	0.350424	99
