41
Properties=species:S:1:pos:R:3:Z:I:1 energy=-306.72588435944067 field_type=dipole dipole="0.000000 0.000000 0.000000" charge=0
C	-0.399441	-2.014871	-0.984529	6
O	-0.532811	-1.174211	0.154271	8
C	-0.021161	0.145259	-0.064149	6
C	-0.527041	0.983459	1.075981	6
C	-1.265521	2.096019	0.951431	6
C	1.422839	0.145259	-0.064149	6
C	2.612999	0.145259	-0.064149	6
H	-0.909981	-2.958511	-0.773519	1
H	0.653539	-2.235361	-1.183759	1
H	-0.863271	-1.559421	-1.864719	1
H	-0.413801	0.532419	-1.012659	1
H	-0.279091	0.628209	2.074311	1
H	-1.553411	2.486749	-0.019189	1
H	-1.602281	2.635619	1.831171	1
H	3.678439	0.144129	-0.056349	1
Es	-0.532563	-1.173990	0.153823	99
Es	-0.021032	0.145306	-0.064123	99
Es	-0.399401	-2.014610	-0.984222	99
Es	-0.527020	0.983461	1.076054	99
Es	-1.265082	2.095472	0.951722	99
Es	1.422536	0.145266	-0.064279	99
Es	2.614369	0.145326	-0.063984	99
Es	-0.604793	-1.265442	0.457272	99
Es	0.750485	0.157639	-0.049148	99
Es	2.919030	0.133186	-0.067468	99
Es	-0.905408	1.639209	0.981082	99
Es	-0.704491	-1.688674	-1.586921	99
Es	-0.334180	0.735388	1.736426	99
Es	-0.251805	0.396914	-0.704295	99
Es	2.351391	0.122578	-0.056692	99
Es	-0.455473	-1.451205	-0.299806	99
Es	-0.281460	0.576860	0.487603	99
Es	0.316731	-2.152412	-1.123646	99
Es	-0.749737	-2.657865	-0.841752	99
Es	-1.475173	2.423703	1.528710	99
Es	-1.406767	2.311760	0.315617	99
Es	-0.320871	-0.698226	0.032239	99
Es	-0.574249	-1.139955	0.109363	99
Es	2.009478	0.171047	-0.059194	99
Es	2.020426	0.153989	-0.077301	99
Es	-0.937089	1.519019	1.005787	99
