47
Properties=species:S:1:pos:R:3:Z:I:1 energy=-309.1370348523235 field_type=dipole dipole="0.000000 0.000000 0.000000" charge=0
C	-0.091544	-1.811775	1.704115	6
O	-0.768193	-0.561235	1.673605	8
C	-0.982813	-0.077395	0.345285	6
C	-2.094293	0.964955	0.416195	6
C	0.285956	0.551005	-0.161695	6
C	0.920197	0.179995	-1.286095	6
C	2.189647	0.800695	-1.770565	6
H	-0.006123	-2.128075	2.747475	1
H	0.916717	-1.723795	1.288975	1
H	-0.659994	-2.571095	1.158095	1
H	-1.318023	-0.897475	-0.301735	1
H	-1.837693	1.776505	1.107465	1
H	-3.014813	0.510445	0.799335	1
H	-2.305263	1.397095	-0.567705	1
H	0.700407	1.347165	0.455225	1
H	0.512496	-0.621775	-1.897765	1
H	2.528946	1.612175	-1.119345	1
H	2.044926	1.207625	-2.775725	1
H	2.979466	0.044955	-1.815145	1
Es	-0.768079	-0.561420	1.673109	99
Es	-0.982482	-0.077132	0.345364	99
Es	-0.091636	-1.811469	1.704021	99
Es	0.919756	0.179959	-1.285554	99
Es	2.188988	0.800384	-1.770330	99
Es	0.285918	0.550991	-0.161567	99
Es	-2.093726	0.964451	0.416150	99
Es	-1.017525	-0.501373	1.888519	99
Es	0.608015	-0.343724	-1.603097	99
Es	-1.527747	0.434075	0.371820	99
Es	1.534581	0.508020	-1.482555	99
Es	0.585823	-1.752080	1.412432	99
Es	-0.307915	0.253035	0.040607	99
Es	0.529524	1.081330	0.278600	99
Es	0.664317	0.305971	-0.814990	99
Es	-0.499406	-1.030878	1.633342	99
Es	-1.905625	1.509349	0.875960	99
Es	-0.478638	-2.327633	1.315690	99
Es	-2.722714	0.650283	0.671735	99
Es	2.088026	1.074492	-2.445730	99
Es	2.714220	0.292782	-1.796562	99
Es	-2.221842	1.252444	-0.256718	99
Es	2.410015	1.332759	-1.338385	99
Es	-0.029992	-2.028605	2.418720	99
Es	-1.196438	-0.636664	-0.089398	99
Es	-0.816726	-0.418108	1.172621	99
Es	-0.621659	-0.470017	1.677689	99
Es	0.566355	0.390345	-0.733557	99
