43
Properties=species:S:1:pos:R:3:Z:I:1 energy=-270.90576261977674 field_type=dipole dipole="0.000000 0.000000 0.000000" charge=0
C	-0.179096	-2.098002	-0.874025	6
C	-0.528826	-1.052022	0.179785	6
C	0.040444	0.342648	-0.139165	6
C	-0.446737	1.340458	0.885775	6
C	-1.201836	2.411808	0.605165	6
C	1.484443	0.342648	-0.139165	6
C	2.674604	0.342648	-0.139165	6
H	-0.675806	-3.045582	-0.641785	1
H	0.898054	-2.289083	-0.907795	1
H	-0.505006	-1.779042	-1.869045	1
H	-0.169766	-1.403592	1.156205	1
H	-1.622766	-0.991572	0.249575	1
H	-0.317906	0.640068	-1.133515	1
H	-0.156776	1.163178	1.920575	1
H	-1.517436	2.639708	-0.408105	1
H	-1.515726	3.089818	1.392795	1
H	3.740144	0.345918	-0.138105	1
Es	0.040621	0.342698	-0.139081	99
Es	-0.446752	1.340568	0.885923	99
Es	-0.528423	-1.051729	0.179484	99
Es	1.484059	0.342560	-0.139236	99
Es	-1.201494	2.411449	0.605178	99
Es	2.675660	0.342798	-0.138968	99
Es	-0.179141	-2.097518	-0.873640	99
Es	-0.198124	0.846406	0.369038	99
Es	-0.338943	-1.563388	-0.350643	99
Es	2.891139	0.306345	-0.128099	99
Es	-0.172160	0.535858	-0.800770	99
Es	-0.397125	-1.870558	-1.545538	99
Es	-1.325569	2.479393	-0.016813	99
Es	2.498329	0.326195	-0.126217	99
Es	0.805906	0.345259	-0.129359	99
Es	-0.873960	1.990363	0.673951	99
Es	-1.405042	2.838014	1.113266	99
Es	-0.210967	-0.312085	0.022163	99
Es	0.545216	-2.218647	-0.896434	99
Es	-0.234842	1.208751	1.580402	99
Es	-0.523117	-2.745982	-0.715523	99
Es	-0.280625	-1.275509	0.833253	99
Es	-1.265017	-1.001937	0.232951	99
Es	2.081693	0.341309	-0.157781	99
Es	2.093356	0.388805	-0.137970	99
Es	-0.877877	1.863032	0.749095	99
