42
Properties=species:S:1:pos:R:3:Z:I:1 energy=-343.7893495528418 field_type=dipole dipole="0.000000 0.000000 0.000000" charge=0
O	-2.028665	0.238814	-0.167193	8
C	-0.595055	0.079914	-0.356893	6
C	0.267226	1.032134	0.532137	6
C	1.172926	-0.162836	0.869367	6
C	0.022305	-1.097456	0.463627	6
C	-0.228905	0.087564	-1.901323	6
O	0.886635	-0.028316	-2.408823	8
H	-2.167544	0.222764	0.795997	1
H	-0.266665	1.442984	1.396857	1
H	0.766325	1.854034	0.010517	1
H	2.053725	-0.243296	0.222357	1
H	1.493816	-0.233256	1.911837	1
H	0.325866	-1.976336	-0.112673	1
H	-0.597085	-1.430566	1.304447	1
H	-1.104915	0.213854	-2.560243	1
Es	-2.028488	0.238775	-0.166639	99
Es	0.886258	-0.028280	-2.408545	99
Es	-0.230000	0.087676	-1.900750	99
Es	-0.595416	0.079968	-0.357297	99
Es	0.267138	1.031575	0.531777	99
Es	0.022346	-1.096870	0.463306	99
Es	1.172168	-0.162751	0.869436	99
Es	1.009545	-0.033810	-2.684917	99
Es	-2.233986	0.270351	-0.398129	99
Es	0.640266	-0.704453	0.691995	99
Es	-0.400220	0.083536	-1.167596	99
Es	-0.398867	-1.303198	1.029682	99
Es	-0.832572	0.172225	-2.283801	99
Es	-0.100419	1.291626	1.113102	99
Es	-2.042822	0.223889	0.329578	99
Es	1.752309	-0.215500	0.436880	99
Es	0.441629	0.017789	-2.188210	99
Es	1.390202	-0.210437	1.572792	99
Es	-0.216139	0.636811	0.030655	99
Es	-2.002717	0.234896	-0.144704	99
Es	0.217641	-1.684881	0.079780	99
Es	0.551991	0.005947	-2.253756	99
Es	0.593468	1.583183	0.184824	99
Es	-1.532716	0.183161	-0.212242	99
Es	0.778306	0.495619	0.730616	99
Es	-0.355155	-0.571814	-0.008062	99
Es	0.942244	-0.041593	-2.208412	99
