42
Properties=species:S:1:pos:R:3:Z:I:1 energy=-343.8434694901813 field_type=dipole dipole="0.000000 0.000000 0.000000" charge=0
O	-2.234703	0.077497	-0.732980	8
C	-0.828212	0.065157	-0.776160	6
C	-0.240543	1.159597	0.106260	6
C	1.161637	0.661027	0.432170	6
C	0.989258	-0.830233	0.704200	6
C	-0.190012	-1.175793	-0.168900	6
O	-0.611613	-2.312073	-0.345270	8
H	-2.523782	-0.799533	-1.051260	1
H	-0.483953	0.163327	-1.811090	1
H	-0.831363	1.281807	1.022960	1
H	-0.227572	2.128837	-0.402200	1
H	1.821157	0.810797	-0.431520	1
H	1.600988	1.185607	1.285690	1
H	1.875067	-1.401463	0.419190	1
H	0.723648	-1.014553	1.748910	1
Es	-2.234448	0.076992	-0.733213	99
Es	-0.611375	-2.311673	-0.345152	99
Es	-0.190074	-1.175875	-0.168947	99
Es	-0.828443	0.065090	-0.775967	99
Es	0.988980	-0.829956	0.703729	99
Es	1.160993	0.660619	0.432358	99
Es	-0.240247	1.159073	0.105771	99
Es	-0.433674	-1.869181	-0.300243	99
Es	-1.733261	0.036805	-0.764917	99
Es	1.459814	1.019769	1.005393	99
Es	0.468221	0.932438	0.273249	99
Es	-0.509243	-0.570681	-0.475381	99
Es	0.806816	-0.946390	1.380516	99
Es	-2.344539	-0.375778	-0.896378	99
Es	-0.580923	0.126858	-1.466018	99
Es	-0.688864	-2.554514	-0.363024	99
Es	0.399181	-1.024816	0.260399	99
Es	1.570685	-1.208912	0.517282	99
Es	-0.629694	1.224529	0.721447	99
Es	-2.390661	0.332198	-0.655979	99
Es	1.093926	-0.104556	0.585795	99
Es	-0.561000	0.613474	-0.357232	99
Es	1.601866	0.757246	-0.158315	99
Es	-0.228088	1.815135	-0.231749	99
Es	-0.504173	-1.979786	-0.278766	99
Es	-2.207838	0.043730	-0.717844	99
Es	-0.609910	-2.244275	-0.350945	99
