45
Properties=species:S:1:pos:R:3:Z:I:1 energy=-344.9997816954858 field_type=dipole dipole="0.000000 0.000000 0.000000" charge=0
O	-1.614156	0.289305	1.337518	8
C	-0.187876	0.301505	1.211328	6
C	0.247854	-1.058535	0.673728	6
C	-0.125266	-1.208935	-0.800232	6
C	0.363984	-0.013205	-1.605662	6
O	-0.148646	1.208975	-1.070692	8
C	0.282324	1.426195	0.278738	6
H	-1.938756	1.195795	1.202838	1
H	0.218644	0.459595	2.214668	1
H	-0.220636	-1.867595	1.246328	1
H	1.334374	-1.161225	0.780388	1
H	0.296084	-2.136185	-1.204532	1
H	-1.216206	-1.278175	-0.886182	1
H	1.459894	0.031395	-1.625542	1
H	0.019074	-0.093425	-2.640782	1
H	1.373724	1.520525	0.293988	1
H	-0.144416	2.383995	0.594098	1
Es	-0.148182	1.208811	-1.070508	99
Es	-1.614033	0.289867	1.337402	99
Es	0.281994	1.425702	0.278545	99
Es	-0.188168	0.301264	1.211011	99
Es	0.363758	-0.013116	-1.605204	99
Es	0.247426	-1.057989	0.673392	99
Es	-0.124961	-1.208721	-0.799832	99
Es	-0.117785	1.194882	-1.054801	99
Es	-1.770991	0.044863	1.470191	99
Es	0.067793	-1.127361	-0.062327	99
Es	1.027123	1.473315	0.295589	99
Es	0.980668	-1.109147	0.744875	99
Es	0.063781	0.757862	-1.218877	99
Es	0.103868	0.415405	1.898077	99
Es	0.051692	0.851567	0.739649	99
Es	-1.744296	0.766941	1.254325	99
Es	0.129109	-0.066115	-2.312508	99
Es	1.118516	0.014741	-1.604492	99
Es	0.131873	-0.617533	-1.196970	99
Es	-0.016746	2.077520	0.504911	99
Es	0.028351	-0.370728	0.935063	99
Es	-0.055966	-1.593651	1.062887	99
Es	-1.108274	0.333877	1.273684	99
Es	-1.600856	0.302627	1.272281	99
Es	0.166070	-1.836980	-1.071386	99
Es	0.035657	1.242980	-0.581929	99
Es	-0.855763	-1.253724	-0.862397	99
Es	-0.354723	1.402201	-1.219834	99
