39
Properties=species:S:1:pos:R:3:Z:I:1 energy=-342.66004946095677 field_type=dipole dipole="0.000000 0.000000 0.000000" charge=0
O	-2.431285	-0.254365	-0.426264	8
C	-1.236545	-0.202975	-0.151824	6
C	-0.551445	1.068625	0.267246	6
C	0.897475	0.988315	-0.169604	6
O	1.562465	-0.169175	0.352476	8
C	0.868245	-1.334695	0.161056	6
C	-0.432665	-1.440625	-0.126794	6
H	-1.042355	1.923475	-0.207504	1
H	-0.635755	1.155635	1.355576	1
H	1.442955	1.868304	0.186226	1
H	0.982674	0.973165	-1.263834	1
H	1.515645	-2.192065	0.297736	1
H	-0.939405	-2.383615	-0.274494	1
Es	1.562090	-0.169260	0.352174	99
Es	-2.430829	-0.254450	-0.426185	99
Es	-1.236357	-0.202922	-0.151784	99
Es	0.868318	-1.334362	0.161133	99
Es	0.897297	0.987931	-0.169376	99
Es	-0.551481	1.068145	0.267063	99
Es	-0.432884	-1.441057	-0.126846	99
Es	1.855765	-0.143393	0.486974	99
Es	-2.680908	-0.236425	-0.468121	99
Es	-0.901114	0.438383	0.047737	99
Es	0.194752	-1.351489	0.046213	99
Es	0.944625	0.964408	-0.906919	99
Es	-0.792713	-0.833955	-0.155238	99
Es	-0.593879	1.113682	0.970644	99
Es	1.300969	-1.905791	0.250972	99
Es	1.248184	-0.597288	0.254594	99
Es	1.270011	1.583721	0.071951	99
Es	-0.856897	1.634423	-0.038224	99
Es	1.278970	0.208816	0.157174	99
Es	0.158333	1.016102	0.054119	99
Es	-0.735511	-2.074180	-0.221364	99
Es	-2.072602	-0.240948	-0.362875	99
Es	-1.966889	-0.235518	-0.312404	99
Es	1.489726	-0.212124	0.339374	99
Es	-2.371640	-0.281117	-0.417244	99
Es	0.044882	-1.353820	-0.058815	99
