36
Properties=species:S:1:pos:R:3:Z:I:1 energy=-341.3937205946019 field_type=dipole dipole="0.000000 0.000000 0.000000" charge=0
O	-1.962265	0.750271	0.836976	8
C	-0.780555	0.659711	0.576826	6
C	0.315455	1.648741	0.200676	6
O	1.229196	0.531981	0.084606	8
C	0.260405	-0.459389	0.516686	6
C	0.047935	-1.450209	-0.509834	6
C	-0.125515	-2.286319	-1.354974	6
H	0.604155	2.336291	0.997386	1
H	0.166405	2.164691	-0.748674	1
H	0.522185	-0.861819	1.500006	1
H	-0.277405	-3.033949	-2.099684	1
Es	1.228711	0.532014	0.084676	99
Es	-1.961742	0.750122	0.836859	99
Es	-0.780465	0.659485	0.576762	99
Es	0.260537	-0.459305	0.516391	99
Es	0.315445	1.647949	0.200699	99
Es	0.048091	-1.449599	-0.508901	99
Es	-0.126060	-2.287777	-1.356971	99
Es	1.531900	0.503559	0.020141	99
Es	-2.198222	0.839211	0.882370	99
Es	0.139206	-0.972365	-0.031450	99
Es	-0.289939	1.212744	0.392166	99
Es	-0.203313	-2.546987	-1.608021	99
Es	0.502829	2.100931	0.727742	99
Es	0.425275	-0.746325	1.148929	99
Es	-0.091502	-2.056140	-1.113875	99
Es	-1.501414	0.703112	0.741894	99
Es	-0.318881	0.018485	0.565191	99
Es	0.215194	1.985288	-0.426372	99
Es	0.870681	0.163328	0.230944	99
Es	-1.606260	0.720955	0.749008	99
Es	0.887054	0.943921	0.130211	99
Es	1.177820	0.531895	0.081619	99
Es	-1.883834	0.676897	0.826718	99
Es	-0.003417	-1.843989	-0.915350	99
Es	-0.042371	-1.860700	-0.932753	99
