38
Properties=species:S:1:pos:R:3:Z:I:1 energy=-305.61478997634646 field_type=dipole dipole="0.000000 0.000000 0.000000" charge=0
O	-1.098992	-2.478135	-0.400258	8
C	-0.920522	-1.597035	0.438402	6
C	0.253688	-0.626935	0.444752	6
C	-0.179402	0.724725	0.953102	6
C	0.017608	1.653185	0.001972	6
C	0.571238	1.025085	-1.170398	6
C	0.721228	-0.287805	-0.943928	6
H	-1.579892	-1.543735	1.322812	1
H	1.058238	-1.034875	1.063642	1
H	-0.571512	0.919165	1.940352	1
H	-0.191252	2.709765	0.082872	1
H	0.815998	1.547665	-2.083308	1
H	1.103578	-1.011075	-1.650018	1
Es	-1.098610	-2.477666	-0.400107	99
Es	-0.920558	-1.596866	0.438622	99
Es	0.253545	-0.626902	0.444711	99
Es	0.017506	1.653738	0.001836	99
Es	-0.179389	0.724618	0.953135	99
Es	0.721209	-0.287824	-0.943830	99
Es	0.571305	1.025706	-1.171058	99
Es	-1.234521	-2.696580	-0.513988	99
Es	0.710703	0.445487	-1.045945	99
Es	-0.114060	2.323847	0.079823	99
Es	-0.006659	1.253812	0.457630	99
Es	-1.356988	-1.533328	1.047546	99
Es	-0.336074	-1.096253	0.424124	99
Es	0.305661	1.341758	-0.581158	99
Es	-0.444664	0.806443	1.609693	99
Es	0.755231	-0.888906	0.837561	99
Es	-1.020341	-2.125014	-0.064503	99
Es	0.012676	0.070178	0.744131	99
Es	0.962403	-0.783840	-1.374508	99
Es	0.743578	1.341332	-1.757904	99
Es	0.511863	-0.482253	-0.289110	99
Es	-1.047026	-2.194982	-0.148346	99
Es	-0.989890	-2.396456	-0.425426	99
Es	-0.161505	1.138908	0.453258	99
Es	0.558757	0.368547	-1.054881	99
