49
Properties=species:S:1:pos:R:3:Z:I:1 energy=-273.3047931025636 field_type=dipole dipole="0.000000 0.000000 0.000000" charge=0
C	-0.400930	-2.219872	-1.284556	6
C	-0.774080	-1.427372	-0.037636	6
C	-0.238190	0.019998	-0.043586	6
C	-0.796500	0.779888	1.178434	6
C	-0.401740	2.251258	1.216454	6
C	1.274610	0.037138	-0.050656	6
C	2.012980	0.587248	-1.021916	6
H	-0.863390	-3.211462	-1.249556	1
H	0.680820	-2.362202	-1.363916	1
H	-0.752060	-1.714562	-2.189536	1
H	-0.410280	-1.963302	0.848394	1
H	-1.868770	-1.405782	0.036354	1
H	-0.615890	0.515968	-0.948286	1
H	-0.468760	0.297888	2.108474	1
H	-1.892490	0.721898	1.164524	1
H	0.675250	2.374438	1.363774	1
H	-0.907960	2.752808	2.047244	1
H	-0.686290	2.758868	0.289864	1
H	1.778790	-0.429392	0.793494	1
H	1.557570	1.065868	-1.884366	1
H	3.097310	0.570678	-0.973006	1
Es	1.275037	0.037217	-0.050788	99
Es	-0.237977	0.019966	-0.043532	99
Es	2.012652	0.587210	-1.021855	99
Es	-0.796245	0.779995	1.178248	99
Es	-0.773822	-1.427263	-0.037822	99
Es	-0.401031	-2.219472	-1.284038	99
Es	-0.401852	2.250601	1.216388	99
Es	0.553919	0.033427	-0.056956	99
Es	1.649437	0.812665	-1.431715	99
Es	-0.577064	-1.816656	-0.667172	99
Es	-0.720263	-2.900399	-1.259828	99
Es	-1.538230	0.729963	1.160901	99
Es	-1.513787	-1.399919	0.016516	99
Es	1.597004	-0.287185	0.536528	99
Es	-0.566019	0.441794	1.802194	99
Es	1.703011	0.406758	-0.706698	99
Es	-0.751186	2.595048	1.787159	99
Es	-0.590122	2.589328	0.586987	99
Es	2.697016	0.578323	-0.994064	99
Es	-0.588753	1.516540	1.187822	99
Es	-0.634476	-1.872092	-1.894557	99
Es	0.322710	2.330278	1.311111	99
Es	-0.519549	-1.778530	0.570190	99
Es	0.325993	-2.310343	-1.336876	99
Es	-0.479758	0.348565	-0.642467	99
Es	-0.497650	0.409178	0.554956	99
Es	-0.489608	-0.697206	-0.054178	99
Es	1.663090	0.323580	-0.554849	99
