36
Properties=species:S:1:pos:R:3:Z:I:1 energy=-341.3794150892761 field_type=dipole dipole="0.000000 0.000000 0.000000" charge=0
O	-2.294478	-1.640951	-0.119330	8
C	-1.124958	-1.749261	-0.464200	6
C	-0.086618	-0.871341	0.095380	6
O	0.968342	-0.546171	-0.821500	8
C	0.082472	0.521589	-0.447100	6
C	0.719352	1.519919	0.356010	6
C	1.251552	2.358849	1.029360	6
H	-0.794238	-2.508981	-1.191750	1
H	0.176022	-1.055681	1.129190	1
H	-0.625008	0.868919	-1.191620	1
H	1.727562	3.103109	1.625560	1
Es	0.967785	-0.546062	-0.821331	99
Es	-2.294042	-1.640749	-0.119271	99
Es	-1.124813	-1.749173	-0.464212	99
Es	0.082966	0.521229	-0.446969	99
Es	-0.086326	-0.870875	0.094970	99
Es	0.718898	1.519524	0.355634	99
Es	1.252760	2.360033	1.030768	99
Es	1.191611	-0.608675	-0.938529	99
Es	-2.569160	-1.701016	-0.102425	99
Es	1.377659	2.616861	1.242054	99
Es	-0.618439	-1.321709	-0.205264	99
Es	-0.376888	0.758719	-0.937656	99
Es	-0.873202	-2.232829	-0.941445	99
Es	0.416539	1.017659	-0.014342	99
Es	1.086257	2.133339	0.888157	99
Es	-0.173749	-0.107655	-0.049197	99
Es	-1.804191	-1.675923	-0.242737	99
Es	0.095769	-0.985719	0.770323	99
Es	0.694941	-0.116839	-0.727072	99
Es	-1.925147	-1.664093	-0.238768	99
Es	0.595155	-0.725972	-0.470794	99
Es	0.901006	-0.542066	-0.820037	99
Es	-2.213167	-1.566811	-0.075031	99
Es	0.973376	1.943962	0.676552	99
Es	1.028019	1.915418	0.640135	99
