39
Properties=species:S:1:pos:R:3:Z:I:1 energy=-342.6329341404806 field_type=dipole dipole="0.000000 0.000000 0.000000" charge=0
O	-1.838951	-1.600689	-1.362213	8
C	-0.883521	-1.689519	-0.592723	6
C	0.274839	-0.701119	-0.517213	6
O	0.737289	-0.626589	0.845247	8
C	0.602529	0.730231	1.308627	6
C	0.065369	1.495981	0.161847	6
C	-0.121611	0.683931	-0.875373	6
H	-0.770821	-2.581129	0.047797	1
H	1.094929	-1.073909	-1.137643	1
H	1.585989	1.095091	1.618207	1
H	-0.079021	0.744371	2.163457	1
H	-0.149201	2.554071	0.179617	1
H	-0.517821	0.969281	-1.839633	1
Es	0.737114	-0.626143	0.844885	99
Es	-1.838456	-1.600319	-1.362098	99
Es	-0.883358	-1.689444	-0.592564	99
Es	0.274736	-0.701186	-0.517123	99
Es	0.602304	0.730308	1.308110	99
Es	0.065231	1.496663	0.162067	99
Es	-0.121789	0.683868	-0.875969	99
Es	0.672238	-0.113017	0.975028	99
Es	-1.444791	-1.627537	-1.053273	99
Es	0.190385	1.121476	-0.431836	99
Es	0.055082	0.042253	-0.732457	99
Es	-0.779896	-2.266595	-0.149178	99
Es	-0.334417	-1.198882	-0.557114	99
Es	0.546283	-0.624650	0.344808	99
Es	-0.365962	0.838718	-1.482293	99
Es	0.807113	-0.958819	-0.932092	99
Es	-2.082107	-1.677510	-1.482990	99
Es	0.148339	0.741054	1.877295	99
Es	1.257927	0.973531	1.519918	99
Es	-0.038313	2.147910	0.229384	99
Es	0.290671	1.203003	0.653520	99
Es	0.804894	-0.883576	1.030710	99
Es	-1.545772	-1.624015	-1.125659	99
Es	0.769258	-0.591655	0.805665	99
Es	-1.754951	-1.504263	-1.367237	99
Es	-0.245907	1.027317	-0.289032	99
