45
Properties=species:S:1:pos:R:3:Z:I:1 energy=-344.96606714936564 field_type=dipole dipole="0.000000 0.000000 0.000000" charge=0
O	-1.627788	1.426456	-0.756835	8
C	-1.928578	0.050456	-0.568315	6
C	-0.996418	-0.547604	0.475045	6
C	0.421742	-0.651494	-0.068895	6
C	1.293702	0.613506	-0.066445	6
C	2.270932	-0.224664	0.748625	6
O	1.296982	-1.283014	0.908885	8
H	-2.292638	1.782397	-1.371845	1
H	-1.837318	-0.463414	-1.530565	1
H	-2.965398	-0.024504	-0.225125	1
H	-1.356638	-1.550204	0.732425	1
H	-1.009908	0.056886	1.389455	1
H	0.469112	-1.213704	-1.010825	1
H	0.884722	1.471266	0.474665	1
H	1.656733	0.930196	-1.047185	1
H	3.153892	-0.577244	0.207565	1
H	2.566862	0.204676	1.709375	1
Es	-1.628161	1.426472	-0.757144	99
Es	1.296995	-1.282521	0.908533	99
Es	-1.928068	0.050674	-0.567997	99
Es	0.421607	-0.651307	-0.068329	99
Es	2.270213	-0.224787	0.748427	99
Es	-0.996293	-0.547469	0.474640	99
Es	1.293781	0.612630	-0.066289	99
Es	1.292386	-1.576245	1.019290	99
Es	-1.404769	1.586201	-0.594425	99
Es	-1.456424	-0.239483	-0.048129	99
Es	1.840253	0.248044	0.331364	99
Es	0.988586	-1.069860	0.572295	99
Es	2.473780	0.073536	1.407580	99
Es	0.445855	-1.034326	-0.721333	99
Es	-1.989479	1.572436	-1.082351	99
Es	1.536288	0.831631	-0.731302	99
Es	-1.863809	-0.308634	-1.227844	99
Es	-2.647525	-0.007212	-0.336684	99
Es	2.882381	-0.462748	0.374505	99
Es	-1.243055	-1.228181	0.646531	99
Es	-1.751194	0.940036	-0.714644	99
Es	1.022889	1.180766	0.301518	99
Es	-0.296060	-0.591061	0.195877	99
Es	-1.001204	-0.140538	1.077248	99
Es	-1.637328	1.404877	-0.786287	99
Es	1.669723	-0.896505	0.851864	99
Es	0.792535	0.039662	-0.122438	99
Es	1.264479	-1.208225	0.939099	99
