47
Properties=species:S:1:pos:R:3:Z:I:1 energy=-309.1436555943617 field_type=dipole dipole="0.000000 0.000000 0.000000" charge=0
O	-3.028435	-2.113556	-0.481853	8
C	-1.640345	-1.966106	-0.215253	6
C	-1.270805	-0.495196	-0.338343	6
C	0.214025	-0.262426	-0.068463	6
C	0.575985	1.218464	-0.198363	6
C	2.038336	1.446794	0.056117	6
C	2.516695	2.224314	1.035467	6
H	-3.236845	-3.059506	-0.394823	1
H	-1.081485	-2.571926	-0.936093	1
H	-1.438395	-2.337396	0.794857	1
H	-1.880135	0.091564	0.359867	1
H	-1.534984	-0.137216	-1.340893	1
H	0.811535	-0.854456	-0.774283	1
H	0.464215	-0.618626	0.939577	1
H	-0.034595	1.809204	0.495197	1
H	0.340946	1.570434	-1.209703	1
H	2.738915	0.952514	-0.613903	1
H	1.859035	2.745303	1.724477	1
H	3.586325	2.357823	1.166417	1
Es	-3.028429	-2.113994	-0.481791	99
Es	-1.640602	-1.965671	-0.215366	99
Es	2.038552	1.446708	0.056012	99
Es	0.576531	1.218442	-0.198304	99
Es	0.213704	-0.262038	-0.068486	99
Es	2.516688	2.224268	1.035092	99
Es	-1.270404	-0.495392	-0.338221	99
Es	-3.222600	-1.871850	-0.553394	99
Es	1.327877	1.350842	-0.054787	99
Es	-1.461808	-1.234831	-0.277402	99
Es	3.228469	2.304440	1.110326	99
Es	0.414561	0.493114	-0.127175	99
Es	-1.492134	-2.222694	0.482282	99
Es	2.504966	1.101403	-0.410767	99
Es	-3.095815	-2.618095	-0.426451	99
Es	-1.245575	-2.385448	-0.709630	99
Es	0.419490	1.445565	-0.873071	99
Es	0.165019	1.606254	0.263751	99
Es	2.284448	1.879407	0.595376	99
Es	-2.538631	-2.090928	-0.383701	99
Es	0.382256	-0.501536	0.602624	99
Es	2.057656	2.559752	1.461448	99
Es	-1.672188	-0.101540	0.133852	99
Es	-1.440307	-0.255886	-1.008879	99
Es	0.618130	-0.661353	-0.544598	99
Es	-0.528554	-0.385409	-0.202557	99
Es	-3.006756	-2.137639	-0.475936	99
Es	2.292334	1.831383	0.582792	99
