42
Properties=species:S:1:pos:R:3:Z:I:1 energy=-343.80841372855036 field_type=dipole dipole="0.000000 0.000000 0.000000" charge=0
O	-0.153927	-1.832183	0.755257	8
C	-0.810397	-1.209563	-0.336823	6
C	-0.439708	0.245587	-0.351383	6
C	-1.369697	1.217536	-0.355383	6
C	1.033163	0.566297	-0.408833	6
C	1.598083	0.720037	0.985047	6
O	2.311092	1.664817	1.317807	8
H	-0.471707	-2.751283	0.782027	1
H	-1.889597	-1.356183	-0.223273	1
H	-0.488287	-1.693173	-1.264733	1
H	-2.432077	0.994036	-0.325743	1
H	-1.091328	2.267986	-0.376783	1
H	1.206283	1.499286	-0.957923	1
H	1.586723	-0.224073	-0.926123	1
H	1.411383	-0.109123	1.686857	1
Es	-0.153970	-1.832645	0.755067	99
Es	2.310838	1.664550	1.317550	99
Es	1.597380	0.718928	0.985190	99
Es	-0.810132	-1.209400	-0.336562	99
Es	-0.439767	0.245687	-0.351368	99
Es	1.033209	0.566239	-0.408233	99
Es	-1.367213	1.215265	-0.355061	99
Es	-0.013089	-1.673937	1.000717	99
Es	2.470792	1.805929	1.509829	99
Es	-0.631284	-0.468218	-0.332016	99
Es	1.449620	0.158442	1.424694	99
Es	-0.593590	-1.527921	-0.976715	99
Es	1.308717	0.654795	0.314169	99
Es	-1.071941	1.776322	-0.343193	99
Es	-0.343965	-2.298657	0.733245	99
Es	-1.547256	-1.301558	-0.261057	99
Es	1.379451	0.040587	-0.732421	99
Es	2.021193	1.287684	1.190356	99
Es	1.129518	1.168567	-0.777284	99
Es	-1.056182	0.919299	-0.338372	99
Es	-0.403656	-1.622780	0.361673	99
Es	-2.008059	1.003450	-0.328672	99
Es	0.312861	0.408094	-0.385333	99
Es	2.082178	1.377640	1.207978	99
Es	-0.099755	-1.863467	0.680882	99
Es	2.262431	1.686073	1.169461	99
Es	-0.909443	0.720183	-0.391997	99
