42
Properties=species:S:1:pos:R:3:Z:I:1 energy=-343.76905331059584 field_type=dipole dipole="0.000000 0.000000 0.000000" charge=0
O	-0.501364	-1.993115	0.375594	8
C	-0.704113	-1.106555	-0.723056	6
C	-0.156304	0.297605	-0.427836	6
C	-0.704364	0.832065	0.904814	6
O	-0.450773	2.232075	1.037104	8
C	1.287696	0.297605	-0.427836	6
C	2.477857	0.297605	-0.427836	6
H	-0.755274	-2.883525	0.075874	1
H	-1.782594	-1.055965	-0.909506	1
H	-0.224103	-1.538195	-1.609206	1
H	-0.489434	0.965605	-1.232966	1
H	-0.267223	0.322915	1.770644	1
H	-1.790524	0.702455	0.948224	1
H	0.516716	2.338634	1.072384	1
H	3.543797	0.290795	-0.426396	1
Es	-0.501605	-1.993443	0.375300	99
Es	-0.450350	2.231954	1.037341	99
Es	-0.703696	-1.106134	-0.722494	99
Es	-0.703834	0.832111	0.904251	99
Es	-0.156098	0.297592	-0.427825	99
Es	1.287603	0.297663	-0.427919	99
Es	2.479072	0.297473	-0.427503	99
Es	-0.373111	-1.904018	0.651084	99
Es	-0.671378	2.446378	1.083151	99
Es	0.619027	0.299352	-0.414199	99
Es	2.689933	0.271735	-0.413423	99
Es	-0.371986	-1.391330	-1.328747	99
Es	-0.395189	0.482348	1.474274	99
Es	-0.574973	-1.701450	-0.031182	99
Es	2.302860	0.269720	-0.411502	99
Es	-0.400813	-0.394085	-0.558631	99
Es	-0.498400	1.724860	0.972271	99
Es	-1.445927	-1.059393	-0.856210	99
Es	-0.407817	0.539159	0.211101	99
Es	-1.441998	0.738187	0.927313	99
Es	-0.360293	0.733306	-0.964285	99
Es	-0.641990	-2.437819	0.179992	99
Es	0.047842	2.246710	1.049435	99
Es	-0.526227	-1.981776	0.350451	99
Es	-0.427429	2.207217	1.007597	99
Es	1.900095	0.338397	-0.456252	99
Es	1.888992	0.310246	-0.418843	99
