41
Properties=species:S:1:pos:R:3:Z:I:1 energy=-359.74981800367345 field_type=dipole dipole="0.000000 0.000000 0.000000" charge=0
C	0.811076	-0.755544	0.641461	6
C	-0.447014	-1.153924	-0.100979	6
C	-1.532324	-0.109944	-0.169749	6
N	-1.468014	1.164116	0.079241	7
O	-0.226684	1.619256	0.564481	8
C	0.838036	1.395336	-0.361719	6
O	1.580326	0.208326	-0.074349	8
H	1.450556	-1.637173	0.757541	1
H	0.598036	-0.389524	1.652891	1
H	-0.890634	-2.034034	0.378191	1
H	-0.210914	-1.427854	-1.135859	1
H	-2.505474	-0.476394	-0.541769	1
H	1.529296	2.241117	-0.293289	1
H	0.473726	1.356236	-1.396089	1
Es	-0.226399	1.618517	0.564473	99
Es	1.580022	0.208497	-0.073959	99
Es	-1.467588	1.163770	0.079233	99
Es	0.837836	1.395172	-0.361637	99
Es	-1.532220	-0.109989	-0.169775	99
Es	0.810820	-0.755220	0.641315	99
Es	-0.447329	-1.153456	-0.101033	99
Es	-0.244691	1.906683	0.717781	99
Es	1.842705	0.129399	-0.251099	99
Es	-2.148393	-0.368963	-0.413400	99
Es	-0.292224	-1.319977	-0.774706	99
Es	1.307421	1.971426	-0.310850	99
Es	0.658006	-0.512652	1.312734	99
Es	0.126214	1.487049	0.205641	99
Es	1.268581	0.621513	-0.143315	99
Es	1.257661	-0.107929	0.182174	99
Es	-1.428382	0.570154	-0.043055	99
Es	-1.003163	-0.554824	-0.119862	99
Es	0.136181	-0.948991	0.259624	99
Es	1.584336	0.244661	0.008540	99
Es	-0.743396	-1.739305	0.210487	99
Es	-0.720216	1.371222	0.324180	99
Es	-0.185992	1.465936	0.632738	99
Es	1.243273	-1.360723	0.716024	99
Es	-1.750150	1.424155	0.064238	99
Es	0.569271	1.352736	-1.058265	99
Es	-1.499402	0.644842	-0.015157	99
