43
Properties=species:S:1:pos:R:3:Z:I:1 energy=-270.9185478666586 field_type=dipole dipole="0.000000 0.000000 0.000000" charge=0
C	-3.038112	-1.039376	0.010482	6
C	-1.517762	-1.035126	0.010292	6
C	-0.960562	0.388254	-0.007328	6
C	0.483438	0.388254	-0.007328	6
C	1.673598	0.388254	-0.007328	6
C	3.079597	0.388254	-0.007328	6
C	3.781477	1.526264	-0.007298	6
H	-3.414302	-2.067186	0.023172	1
H	-3.432392	-0.544566	-0.883208	1
H	-3.432222	-0.522706	0.891792	1
H	-1.156732	-1.591236	-0.863408	1
H	-1.156572	-1.569506	0.897392	1
H	-1.332212	0.938044	0.865482	1
H	-1.332232	0.916274	-0.893468	1
H	3.593838	-0.568116	-0.007348	1
H	3.295017	2.497004	-0.007278	1
H	4.866138	1.507214	-0.007298	1
Es	3.079120	0.388023	-0.007328	99
Es	-0.958472	0.388300	-0.007328	99
Es	3.781189	1.525779	-0.007298	99
Es	-1.517740	-1.034496	0.010284	99
Es	0.482052	0.388301	-0.007331	99
Es	-3.037416	-1.039268	0.010481	99
Es	1.674916	0.388810	-0.007327	99
Es	-1.164205	0.727444	-0.589737	99
Es	2.424498	0.415234	-0.007273	99
Es	3.423011	2.156865	-0.007329	99
Es	-3.293010	-1.741826	0.019146	99
Es	1.093671	0.256110	-0.006363	99
Es	-2.280614	-1.023993	0.010227	99
Es	3.305910	-0.248828	-0.007414	99
Es	-0.151408	0.376480	-0.007469	99
Es	-1.164007	0.741893	0.566529	99
Es	3.321209	1.001112	-0.006539	99
Es	-1.200098	-0.293154	0.001147	99
Es	-3.297757	-0.698359	-0.592134	99
Es	4.503782	1.479931	-0.007399	99
Es	-3.297694	-0.683627	0.604578	99
Es	-1.273330	-1.391935	0.607323	99
Es	-1.273485	-1.406569	-0.577802	99
Es	3.393142	0.937663	-0.007936	99
Es	1.106178	0.518124	-0.007479	99
Es	1.130000	0.391802	-0.008050	99
