43
Properties=species:S:1:pos:R:3:Z:I:1 energy=-323.93764324102006 field_type=dipole dipole="0.000000 0.000000 0.000000" charge=0
C	-1.309026	-0.000935	0.745786	6
C	-0.673236	-1.007935	-0.237194	6
C	0.831374	-1.214515	0.016586	6
N	1.611744	0.000385	-0.329524	7
C	0.832894	1.213925	0.020406	6
C	-0.672526	1.008945	-0.234434	6
O	-0.884846	0.002525	-1.308854	8
H	-0.931256	-0.002425	1.770706	1
H	-2.403475	-0.000305	0.753916	1
H	-1.252806	-1.920575	-0.399654	1
H	1.009444	-1.482305	1.064056	1
H	1.201834	-2.044295	-0.595444	1
H	1.677964	0.001505	-1.352484	1
H	1.203094	2.045025	-0.588784	1
H	1.010404	1.478155	1.068616	1
H	-1.251586	1.922825	-0.393694	1
Es	-0.884763	0.002525	-1.308378	99
Es	1.611466	0.000385	-0.329453	99
Es	-0.673229	-1.008054	-0.237265	99
Es	-0.672519	1.009062	-0.234504	99
Es	0.830816	-1.213916	0.016248	99
Es	0.832334	1.213325	0.020065	99
Es	-1.309342	-0.000934	0.745144	99
Es	-1.014516	0.003038	-1.580941	99
Es	1.964701	-0.000068	-0.145403	99
Es	-1.008457	0.576080	0.335915	99
Es	1.082855	-1.781223	-0.399097	99
Es	1.602485	0.001137	-0.917464	99
Es	0.068448	1.112578	-0.107667	99
Es	-2.033279	-0.000603	0.756953	99
Es	-1.056700	-1.634965	-0.355241	99
Es	0.067400	-1.112334	-0.110985	99
Es	1.084353	1.781628	-0.393293	99
Es	-0.795474	0.378185	-0.934594	99
Es	-1.050919	-0.001978	1.433557	99
Es	-1.055670	1.636846	-0.350287	99
Es	1.241330	-0.478748	-0.204856	99
Es	0.936940	1.384415	0.730212	99
Es	0.935681	-1.387412	0.725922	99
Es	-0.795727	-0.374540	-0.935709	99
Es	-1.008831	-0.576812	0.334243	99
Es	-0.810730	0.002508	-1.290857	99
Es	1.242069	0.479039	-0.203454	99
