38
Properties=species:S:1:pos:R:3:Z:I:1 energy=-358.5536087066075 field_type=dipole dipole="0.000000 0.000000 0.000000" charge=0
C	1.453384	-0.132245	0.229547	6
O	0.621244	-1.305955	0.424577	8
C	-0.455756	-0.681815	-0.315063	6
C	-1.605146	-0.094445	0.510617	6
N	-1.532276	1.183615	0.707247	7
O	-0.335376	1.685715	0.084527	8
C	0.354804	0.578955	-0.557723	6
H	2.354014	-0.373165	-0.343573	1
H	1.731954	0.326685	1.182677	1
H	-0.752656	-1.252615	-1.196593	1
H	-2.424076	-0.730245	0.876377	1
H	0.589884	0.795515	-1.602613	1
Es	-0.335390	1.685134	0.084353	99
Es	0.621143	-1.305489	0.424308	99
Es	-1.532057	1.183490	0.707061	99
Es	-0.455673	-0.681703	-0.314707	99
Es	0.354539	0.578655	-0.557195	99
Es	-1.605074	-0.094401	0.510601	99
Es	1.452781	-0.132513	0.229336	99
Es	-0.833587	1.405850	0.334240	99
Es	0.923676	-0.886411	0.356762	99
Es	-1.752871	1.433810	0.884595	99
Es	-0.099903	-0.038596	-0.497913	99
Es	1.640463	0.179498	0.871159	99
Es	-2.072231	-0.504234	0.712224	99
Es	-0.118338	1.257751	-0.149792	99
Es	-0.660731	-1.069171	-0.899484	99
Es	-1.127229	-0.383673	0.161358	99
Es	0.214213	-1.082166	0.155839	99
Es	0.512906	0.733053	-1.265907	99
Es	2.062329	-0.294821	-0.165506	99
Es	-0.360745	1.635151	0.074771	99
Es	-0.238433	1.973559	0.117249	99
Es	0.946537	0.305913	-0.167519	99
Es	-1.526129	0.582000	0.598457	99
Es	0.655777	-1.577572	0.565453	99
Es	0.608179	-1.261094	0.404763	99
Es	-1.567424	0.603511	0.607673	99
