46
Properties=species:S:1:pos:R:3:Z:I:1 energy=-272.1096651309781 field_type=dipole dipole="0.000000 0.000000 0.000000" charge=0
C	-2.616623	-1.988107	0.023506	6
C	-1.096993	-1.942727	0.010316	6
C	-0.579273	-0.504607	-0.005844	6
C	0.948717	-0.463577	-0.022184	6
C	1.441876	0.921314	-0.018804	6
C	1.848417	2.051574	-0.013214	6
C	2.343647	3.428273	-0.004024	6
H	-2.964703	-3.025687	0.037996	1
H	-3.031293	-1.503077	-0.865944	1
H	-3.016703	-1.483277	0.908656	1
H	-0.728783	-2.481457	-0.870444	1
H	-0.714423	-2.465937	0.894456	1
H	-0.955944	0.031773	0.874636	1
H	-0.973573	0.019343	-0.886134	1
H	1.325067	-0.983647	-0.910874	1
H	1.344387	-0.993297	0.852256	1
H	1.543477	4.131433	-0.253994	1
H	3.149086	3.557024	-0.733344	1
H	2.733636	3.694654	0.982986	1
Es	0.949088	-0.462938	-0.022179	99
Es	2.343465	3.428182	-0.004003	99
Es	-0.578816	-0.504832	-0.005844	99
Es	-1.096998	-1.942446	0.010317	99
Es	1.849245	2.054055	-0.013188	99
Es	-2.615352	-1.987378	0.023494	99
Es	1.441901	0.921207	-0.018804	99
Es	1.251729	0.325410	-0.020634	99
Es	1.842827	2.315829	-0.012052	99
Es	-2.888782	-1.652907	-0.572045	99
Es	1.712073	1.859771	-0.012615	99
Es	-0.839362	-1.223346	0.001961	99
Es	-0.841995	-2.305940	-0.588079	99
Es	1.206989	-0.803053	0.552297	99
Es	-0.828497	-0.146283	0.582062	99
Es	1.809338	3.868099	-0.168079	99
Es	-2.842671	-2.685218	0.033215	99
Es	-2.879392	-1.640000	0.616000	99
Es	2.863676	3.492585	-0.482642	99
Es	2.590093	3.579329	0.643166	99
Es	0.223094	-0.464720	-0.014063	99
Es	1.194148	-0.797368	-0.606384	99
Es	-1.855555	-1.953200	0.016673	99
Es	-0.839888	-0.153673	-0.593510	99
Es	-0.832185	-2.295748	0.611297	99
Es	1.640600	1.489482	-0.022382	99
Es	1.758496	1.445380	-0.010523	99
