43
Properties=species:S:1:pos:R:3:Z:I:1 energy=-323.9378669179218 field_type=dipole dipole="0.000000 0.000000 0.000000" charge=0
C	-1.553457	0.294998	0.137844	6
C	-0.025127	0.248878	0.185124	6
C	0.469783	0.307308	1.627134	6
C	0.540283	-0.946282	-0.558276	6
C	0.852123	-0.284452	-1.842516	6
N	0.834183	1.002618	-1.830186	7
O	0.484213	1.397998	-0.516446	8
H	-1.918247	0.302358	-0.895446	1
H	-1.928147	1.213778	0.603034	1
H	-1.996537	-0.562402	0.655044	1
H	1.564193	0.352208	1.664104	1
H	0.137143	-0.563202	2.201614	1
H	0.108603	1.213508	2.126424	1
H	-0.165247	-1.769752	-0.690946	1
H	1.474293	-1.331422	-0.137986	1
H	1.121943	-0.876142	-2.728526	1
Es	0.484130	1.397479	-0.516546	99
Es	0.834038	1.002352	-1.829699	99
Es	-0.024841	0.249026	0.184893	99
Es	0.852109	-0.284297	-1.842523	99
Es	0.540335	-0.945663	-0.558694	99
Es	0.469548	0.307234	1.626188	99
Es	-1.552658	0.294971	0.137810	99
Es	0.316123	0.963623	-0.298649	99
Es	0.792586	0.401939	-1.808811	99
Es	0.263799	-0.401481	-0.183912	99
Es	0.213806	0.923198	1.958559	99
Es	1.214152	0.324371	1.638733	99
Es	0.620962	1.164717	-1.081443	99
Es	0.984544	-0.683875	-2.296948	99
Es	0.734148	-0.582693	-1.354312	99
Es	1.145099	-1.189487	-0.280596	99
Es	0.074193	-1.489539	-0.639386	99
Es	-1.789485	0.288159	-0.568941	99
Es	0.399308	1.374161	-0.557339	99
Es	0.235052	-0.290533	2.001801	99
Es	-1.797342	0.913898	0.461106	99
Es	-1.838298	-0.292006	0.490963	99
Es	0.592605	1.650981	-0.376477	99
Es	-0.795575	0.264245	0.158331	99
Es	0.222914	0.278150	0.913501	99
Es	0.912815	1.264320	-2.087148	99
Es	0.865496	0.438180	-1.834001	99
