40
Properties=species:S:1:pos:R:3:Z:I:1 energy=-322.7852113677819 field_type=dipole dipole="0.000000 0.000000 0.000000" charge=0
C	-2.464969	-0.660366	-0.017585	6
C	-1.005019	-0.469336	-0.007145	6
C	-0.179789	0.627544	-0.001465	6
C	1.123901	0.083014	0.007835	6
C	2.419861	0.795124	0.017315	6
N	1.091681	-1.255486	0.007835	7
O	-0.248729	-1.598786	-0.001775	8
H	-2.987459	0.301244	-0.009925	1
H	-2.784279	-1.227526	0.861955	1
H	-2.774119	-1.208396	-0.912975	1
H	-0.472489	1.666513	-0.003625	1
H	2.274111	1.880264	0.004195	1
H	3.015381	0.524064	-0.860445	1
H	2.991921	0.542134	0.915805	1
Es	-0.248522	-1.598210	-0.001774	99
Es	1.091052	-1.254951	0.007831	99
Es	-1.005053	-0.469693	-0.007146	99
Es	1.123932	0.082989	0.007836	99
Es	-2.464550	-0.660403	-0.017582	99
Es	2.419561	0.794818	0.017313	99
Es	-0.180048	0.628502	-0.001467	99
Es	-0.343070	-1.902771	-0.002546	99
Es	1.065834	-0.656276	0.008122	99
Es	-0.596316	0.118856	-0.004158	99
Es	2.805619	0.619079	-0.559573	99
Es	-2.666012	-1.027918	0.559338	99
Es	-0.507486	-1.144675	-0.003623	99
Es	0.454850	0.399725	0.002834	99
Es	1.754394	0.427545	0.012162	99
Es	-0.256714	-1.449438	-0.001818	99
Es	-0.370981	1.297225	-0.003002	99
Es	-1.708558	-0.563863	-0.011851	99
Es	2.789995	0.630823	0.607799	99
Es	-2.658979	-1.015436	-0.604696	99
Es	-2.802921	-0.021025	-0.012710	99
Es	0.269114	-1.403360	0.001831	99
Es	2.316000	1.510658	0.008735	99
Es	1.358472	-1.521478	0.009769	99
Es	-0.348551	0.229640	-0.002481	99
Es	1.034306	-0.795728	0.006835	99
