46
Properties=species:S:1:pos:R:3:Z:I:1 energy=-325.1271964843307 field_type=dipole dipole="0.000000 0.000000 0.000000" charge=0
C	-2.444499	-0.295023	-0.372707	6
C	-0.939929	-0.153873	-0.475937	6
C	-0.275309	0.907767	0.424793	6
C	0.773101	-0.183273	0.740433	6
C	2.057662	-0.188303	-0.091247	6
O	2.893651	0.896087	0.302573	8
N	-0.225469	-1.192563	0.298233	7
H	-2.790169	-1.182943	-0.912767	1
H	-2.940218	0.575747	-0.814417	1
H	-2.779948	-0.378483	0.667013	1
H	-0.607419	-0.094563	-1.520777	1
H	-0.870209	1.208767	1.295703	1
H	0.083342	1.805597	-0.085357	1
H	1.007761	-0.262633	1.809153	1
H	1.864481	-0.101423	-1.165667	1
H	2.617131	-1.113773	0.079003	1
H	2.435411	1.721967	0.072203	1
H	0.140622	-1.969073	-0.250227	1
Es	2.893412	0.896336	0.302207	99
Es	-0.224929	-1.192559	0.297587	99
Es	2.057289	-0.187867	-0.090805	99
Es	-0.940213	-0.154068	-0.475363	99
Es	0.772587	-0.183370	0.740398	99
Es	-0.275098	0.907205	0.424622	99
Es	-2.443618	-0.294954	-0.372726	99
Es	3.185714	0.863012	0.412853	99
Es	-0.449287	-1.293982	0.604454	99
Es	-2.771917	0.302213	-0.673359	99
Es	-0.662647	1.111252	1.000485	99
Es	1.909200	-0.126735	-0.814708	99
Es	1.398797	-0.181696	0.310465	99
Es	0.011803	-1.609787	-0.051656	99
Es	2.621520	1.298684	0.168423	99
Es	-0.711076	-0.117503	-1.186790	99
Es	2.431070	-0.826162	0.015190	99
Es	2.564063	0.536878	0.160565	99
Es	0.940341	-0.242619	1.463903	99
Es	-2.673412	-0.903479	-0.742611	99
Es	-2.662984	-0.344670	0.319090	99
Es	-0.028237	1.512311	0.076328	99
Es	-1.686826	-0.221573	-0.419253	99
Es	-0.674904	0.459555	-0.041891	99
Es	-0.507562	-0.809616	-0.079818	99
Es	2.853186	0.898412	0.304988	99
Es	0.308483	0.432755	0.605046	99
Es	0.250128	-0.810683	0.433786	99
