40
Properties=species:S:1:pos:R:3:Z:I:1 energy=-322.8115053455172 field_type=dipole dipole="0.000000 0.000000 0.000000" charge=0
C	-1.781298	-0.418431	0.014143	6
C	-0.300788	-0.355681	0.018073	6
C	0.506022	0.762289	0.067853	6
N	0.251052	2.073119	0.116903	7
O	1.814582	0.414169	0.056593	8
C	1.865012	-0.940351	0.004423	6
C	0.594502	-1.463691	-0.021277	6
H	-2.231378	0.579389	0.023253	1
H	-2.141588	-0.959471	0.895343	1
H	-2.137868	-0.940571	-0.879787	1
H	1.022642	2.705079	-0.070267	1
H	-0.656578	2.429089	-0.157627	1
H	2.855512	-1.371611	-0.006687	1
H	0.340172	-2.513331	-0.060937	1
Es	1.814216	0.413846	0.056556	99
Es	0.250122	2.074019	0.130713	99
Es	0.506075	0.761693	0.067909	99
Es	1.874386	-0.944730	0.004248	99
Es	-1.780784	-0.418401	0.014148	99
Es	0.594010	-1.466624	-0.021396	99
Es	-0.300748	-0.355654	0.018087	99
Es	1.332705	0.512133	0.068474	99
Es	0.359617	1.504464	0.028100	99
Es	0.367389	-2.056551	-0.038355	99
Es	2.410269	-1.202070	-0.010433	99
Es	-2.074029	0.258131	0.018473	99
Es	0.060173	0.220543	0.053033	99
Es	-0.233541	2.230381	-0.112924	99
Es	2.068197	0.628866	0.067143	99
Es	0.675763	2.383242	-0.068849	99
Es	1.706474	0.349361	0.042872	99
Es	1.791131	-0.123355	0.036624	99
Es	-2.014198	-0.769474	-0.588805	99
Es	-2.016427	-0.779799	0.607373	99
Es	0.226732	-1.038097	0.000326	99
Es	-1.027733	-0.368739	0.011826	99
Es	1.287602	-1.186409	-0.024329	99
Es	0.229482	2.082401	0.437815	99
Es	1.241892	-1.196033	0.007751	99
Es	0.069471	-0.013139	0.023710	99
