43
Properties=species:S:1:pos:R:3:Z:I:1 energy=-323.94466886056654 field_type=dipole dipole="0.000000 0.000000 0.000000" charge=0
C	-2.230843	-0.603204	0.441898	6
C	-0.766393	-0.755604	0.211908	6
C	-0.188363	-0.581774	-1.171012	6
N	0.013737	0.430826	-0.133142	7
C	1.359077	0.414316	0.455458	6
C	2.107367	1.616216	-0.069992	6
O	3.281327	1.578996	-0.435132	8
H	-2.418093	-0.261254	1.464648	1
H	-2.734003	-1.565974	0.308158	1
H	-2.687303	0.116506	-0.246122	1
H	-0.322703	-1.495954	0.867748	1
H	-0.851593	-0.299114	-1.980732	1
H	0.644357	-1.208784	-1.466842	1
H	1.937397	-0.489164	0.232278	1
H	1.289017	0.525536	1.542628	1
H	1.567017	2.578436	-0.021752	1
Es	3.280960	1.578790	-0.434973	99
Es	0.014301	0.429961	-0.133086	99
Es	2.106430	1.616090	-0.069623	99
Es	1.359218	0.414964	0.455032	99
Es	-0.766471	-0.755254	0.211805	99
Es	-0.188514	-0.581461	-1.170309	99
Es	-2.230068	-0.603202	0.441746	99
Es	3.521326	1.704253	-0.533898	99
Es	0.598565	0.367805	0.113671	99
Es	1.725672	-0.198943	0.309516	99
Es	-2.352005	-0.375444	1.131759	99
Es	0.390496	-0.991843	-1.363003	99
Es	-0.449563	-1.233161	0.663085	99
Es	1.712798	2.197604	-0.018623	99
Es	-0.299428	-0.038067	0.128376	99
Es	1.306700	0.494255	1.162637	99
Es	1.769204	1.080228	0.169301	99
Es	2.799636	1.592083	-0.299828	99
Es	-0.615423	-0.379337	-1.701889	99
Es	-2.560797	-1.260291	0.351006	99
Es	-2.535684	-0.122754	-0.018755	99
Es	-1.476179	-0.657260	0.316266	99
Es	2.922806	1.587889	-0.315556	99
Es	0.018774	0.014336	-0.649324	99
Es	-0.577693	-0.847275	-0.560470	99
Es	3.235557	1.440030	-0.397481	99
Es	-0.175870	0.767060	-0.159667	99
