42
Properties=species:S:1:pos:R:3:Z:I:1 energy=-339.9333396366264 field_type=dipole dipole="0.000000 0.000000 0.000000" charge=0
C	-1.884325	0.825649	-0.267690	6
C	-0.768345	-0.157441	-0.173730	6
C	0.011455	-0.540151	-1.401110	6
N	0.601775	0.317139	-0.370860	7
N	1.440265	-0.457641	0.424730	7
C	1.865815	0.032359	1.633160	6
O	2.757315	-0.484811	2.294440	8
H	-1.999435	1.358089	0.682570	1
H	-2.824805	0.306799	-0.481350	1
H	-1.720975	1.568899	-1.056380	1
H	-0.958855	-0.917001	0.576290	1
H	-0.216155	-0.047091	-2.338270	1
H	0.343455	-1.566521	-1.498990	1
H	2.034355	-1.169281	0.012260	1
H	1.318455	0.930999	1.964930	1
Es	2.757201	-0.484910	2.294150	99
Es	0.601699	0.316025	-0.370697	99
Es	1.440139	-0.457515	0.424731	99
Es	1.865084	0.033164	1.633115	99
Es	0.011610	-0.539753	-1.400451	99
Es	-0.768210	-0.156972	-0.174035	99
Es	-1.883744	0.825267	-0.267692	99
Es	1.023874	-0.084851	0.013002	99
Es	2.945330	-0.536988	2.502623	99
Es	1.656121	-0.190239	0.950525	99
Es	-2.506150	0.460344	-0.409375	99
Es	-0.126122	-0.205140	-2.013942	99
Es	1.803398	-0.829842	0.159851	99
Es	-0.871658	-0.655880	0.335057	99
Es	0.424693	-0.092815	-0.839415	99
Es	1.485220	0.626102	1.824689	99
Es	0.256834	-1.227499	-1.458187	99
Es	2.379593	-0.283504	1.997452	99
Es	-1.956405	1.177718	0.376364	99
Es	-1.772402	1.322968	-0.802259	99
Es	1.312241	-0.579205	0.608821	99
Es	-1.297059	0.339873	-0.224281	99
Es	0.687409	0.687475	-0.428495	99
Es	0.049005	0.163331	-0.174502	99
Es	2.535993	-0.356465	2.138617	99
Es	2.714835	-0.511752	2.195401	99
Es	-0.547846	-0.450012	-0.890040	99
