46
Properties=species:S:1:pos:R:3:Z:I:1 energy=-325.1273731729133 field_type=dipole dipole="0.000000 0.000000 0.000000" charge=0
C	-1.929977	-0.228003	0.829962	6
C	-0.438947	-0.222753	0.824112	6
C	0.373173	-0.895103	-0.254208	6
N	-0.256517	-1.584383	-1.374608	7
C	0.312473	0.610817	-0.187708	6
C	1.517973	1.388767	0.216782	6
O	2.306803	1.653607	-0.933538	8
H	-2.301777	0.547297	1.507142	1
H	-2.301357	-1.194153	1.184612	1
H	-2.356367	-0.037573	-0.159498	1
H	-0.047847	-0.279963	1.835142	1
H	1.295974	-1.368873	0.078742	1
H	-1.043387	-1.057603	-1.751798	1
H	-0.637557	-2.482513	-1.077868	1
H	-0.263947	1.143207	-0.936258	1
H	2.135313	0.853877	0.945582	1
H	1.222163	2.345896	0.655952	1
H	2.413803	0.807457	-1.402548	1
Es	2.306932	1.653135	-0.933457	99
Es	-0.256306	-1.584361	-1.374830	99
Es	1.517818	1.388287	0.216191	99
Es	0.373088	-0.895197	-0.254416	99
Es	-0.439304	-0.222817	0.824288	99
Es	0.312971	0.610523	-0.187188	99
Es	-1.929239	-0.227971	0.829837	99
Es	2.464594	1.924372	-0.973282	99
Es	-0.056764	-1.284981	-0.869907	99
Es	-0.150576	0.386929	0.434616	99
Es	-2.205761	-0.104128	0.158013	99
Es	1.926478	0.998580	0.712096	99
Es	0.505587	-0.121346	-0.397343	99
Es	-0.179250	-0.249699	1.460913	99
Es	1.310708	2.028481	0.510904	99
Es	0.981298	-1.212792	-0.028874	99
Es	-0.504015	-2.054786	-1.159854	99
Es	2.344407	1.207516	-1.141776	99
Es	2.002544	1.516200	-0.545638	99
Es	-2.179714	0.300028	1.282010	99
Es	-2.178850	-0.884277	1.066817	99
Es	2.257176	1.633069	-0.945853	99
Es	-0.715049	-1.286410	-1.529494	99
Es	-1.128070	-0.224260	0.803861	99
Es	0.015585	-1.642733	-1.656884	99
Es	0.878119	0.978991	0.018515	99
Es	-0.068533	0.940408	-0.674449	99
Es	-0.109134	-0.743352	0.374087	99
