46
Properties=species:S:1:pos:R:3:Z:I:1 energy=-325.12645568145365 field_type=dipole dipole="0.000000 0.000000 0.000000" charge=0
C	-1.825250	0.243660	0.050164	6
C	-0.314750	0.180540	-0.152216	6
C	0.065060	0.254260	-1.630476	6
N	0.394980	1.231180	0.627404	7
C	1.379380	0.231690	1.092414	6
C	0.403770	-0.900760	0.714784	6
O	0.947730	-2.060600	0.047404	8
H	-2.097280	0.243890	1.112044	1
H	-2.312070	-0.621670	-0.413276	1
H	-2.248560	1.147840	-0.401376	1
H	1.150500	0.268630	-1.779796	1
H	-0.343060	1.157660	-2.097306	1
H	-0.331440	-0.610400	-2.173846	1
H	-0.158690	1.627150	1.388314	1
H	2.313380	0.241780	0.519554	1
H	1.626970	0.300980	2.156154	1
H	-0.192820	-1.226580	1.577204	1
H	1.542150	-1.709250	-0.637146	1
Es	0.948119	-2.060065	0.047343	99
Es	0.394714	1.230790	0.627993	99
Es	0.403401	-0.901016	0.715213	99
Es	-0.314736	0.180805	-0.152111	99
Es	1.378633	0.231661	1.092144	99
Es	0.064936	0.254184	-1.629747	99
Es	-1.824738	0.243615	0.050187	99
Es	0.872902	-2.362833	0.096772	99
Es	0.060238	0.817434	0.334989	99
Es	-2.141919	-0.345243	-0.260958	99
Es	0.955627	-0.385588	0.934356	99
Es	-0.205578	-0.337216	-1.981718	99
Es	-1.101418	0.211799	-0.055185	99
Es	0.063376	1.394750	1.086708	99
Es	1.245383	-1.845409	-0.289360	99
Es	1.543399	0.281964	1.816190	99
Es	-2.097316	0.870014	-0.263636	99
Es	0.760911	-1.623246	0.262588	99
Es	-1.981531	0.240386	0.782394	99
Es	0.808710	0.249156	-1.707613	99
Es	-0.006426	-1.115855	1.292173	99
Es	0.966737	-2.020277	0.056640	99
Es	-0.215399	0.870582	-1.935570	99
Es	2.010432	0.234585	0.689778	99
Es	-0.107179	0.211760	-0.907013	99
Es	0.793534	0.830039	0.865957	99
Es	-0.011539	-0.433777	0.238829	99
Es	0.558655	1.498946	0.393399	99
