46
Properties=species:S:1:pos:R:3:Z:I:1 energy=-325.11612394923935 field_type=dipole dipole="0.000000 0.000000 0.000000" charge=0
C	-1.676239	-0.418260	0.791557	6
C	-0.187629	-0.465209	0.839777	6
C	0.647231	-1.184720	-0.189763	6
O	-0.020749	-1.777830	-1.314233	8
C	0.709131	0.335410	-0.093213	6
C	0.126922	1.168630	-1.209763	6
N	1.915881	0.940720	0.514437	7
H	-2.044069	0.342731	1.486997	1
H	-2.087718	-1.383290	1.103677	1
H	-2.081928	-0.185879	-0.195023	1
H	0.134971	-0.585739	1.870737	1
H	1.512611	-1.731239	0.176137	1
H	-0.898889	-1.404130	-1.485023	1
H	-0.737988	0.711990	-1.697193	1
H	0.882921	1.337310	-1.985093	1
H	-0.188838	2.144930	-0.825513	1
H	2.316521	0.338500	1.231947	1
H	1.677851	1.816071	0.979547	1
Es	-0.021269	-1.777482	-1.314052	99
Es	1.915988	0.940829	0.514559	99
Es	0.647389	-1.184303	-0.189406	99
Es	0.709223	0.335465	-0.093342	99
Es	-0.187978	-0.465209	0.839818	99
Es	-1.675691	-0.418205	0.791430	99
Es	0.127061	1.168305	-1.209266	99
Es	0.100043	-2.022415	-1.480359	99
Es	0.827138	-0.419292	-0.301412	99
Es	2.182984	1.009920	0.224852	99
Es	0.415508	0.726292	-0.621789	99
Es	-1.926213	0.104962	1.253215	99
Es	1.207328	-1.544107	0.043070	99
Es	0.032693	-0.529644	1.490095	99
Es	-0.457051	0.847184	-1.517073	99
Es	0.178844	-1.520672	-0.872427	99
Es	2.076405	0.590985	0.937725	99
Es	-0.870350	-0.446127	0.786405	99
Es	-0.089876	1.826916	-0.933192	99
Es	-1.953750	-1.071093	0.993036	99
Es	-0.451050	-1.560816	-1.362517	99
Es	0.633861	1.274332	-1.732908	99
Es	1.392820	0.685285	0.319045	99
Es	-0.023175	-1.729129	-1.308460	99
Es	-1.930918	-0.268758	0.130494	99
Es	1.729107	1.395397	0.812474	99
Es	0.155422	-1.001354	0.401040	99
Es	0.146179	0.119410	0.479338	99
