49
Properties=species:S:1:pos:R:3:Z:I:1 energy=-273.3240543007222 field_type=dipole dipole="0.000000 0.000000 0.000000" charge=0
C	-0.731187	-2.050539	-1.595163	6
C	-0.408267	-1.660809	-0.160333	6
C	0.303633	-0.311809	-0.059583	6
C	-0.535587	0.879911	-0.514113	6
C	0.208143	2.075471	0.065487	6
C	0.837043	1.578121	1.365617	6
C	0.648213	0.062061	1.382097	6
H	-1.182627	-3.047489	-1.621643	1
H	0.174463	-2.072249	-2.209283	1
H	-1.439947	-1.351259	-2.048543	1
H	0.229043	-2.437119	0.280407	1
H	-1.337197	-1.646009	0.422867	1
H	1.230423	-0.344859	-0.648603	1
H	-1.548317	0.828571	-0.095533	1
H	-0.619737	0.946721	-1.603133	1
H	0.997343	2.395651	-0.625173	1
H	-0.454807	2.930551	0.228017	1
H	1.900013	1.842011	1.398247	1
H	0.360223	2.034761	2.239587	1
H	1.544053	-0.456139	1.738737	1
H	-0.174917	-0.195549	2.060046	1
Es	0.303143	-0.312236	-0.059285	99
Es	-0.408297	-1.660660	-0.160619	99
Es	-0.534783	0.879854	-0.513881	99
Es	0.207699	2.074548	0.066229	99
Es	-0.731029	-2.050359	-1.594579	99
Es	0.836194	1.577255	1.364299	99
Es	0.648693	0.062404	1.381330	99
Es	0.482119	-0.144328	0.675219	99
Es	-0.116453	-2.056885	-2.010383	99
Es	1.253573	-0.290515	1.619681	99
Es	-0.174340	1.491845	-0.233186	99
Es	-1.033999	-1.628817	0.246611	99
Es	1.562973	1.757138	1.390637	99
Es	-1.226594	0.843095	-0.229910	99
Es	-0.591727	0.920544	-1.249454	99
Es	-0.242170	2.652421	0.172580	99
Es	0.031720	-2.183687	0.143835	99
Es	0.075191	-0.116970	1.833360	99
Es	0.750812	2.287585	-0.412105	99
Es	-1.039888	-2.738240	-1.614016	99
Es	-1.208227	-1.572519	-1.899674	99
Es	-0.568778	-1.839891	-0.879857	99
Es	0.751725	0.815184	1.371402	99
Es	0.524883	1.856079	0.730751	99
Es	0.921090	-0.334660	-0.454109	99
Es	0.507379	1.886707	1.959083	99
Es	-0.057777	-0.994898	-0.124882	99
Es	-0.122614	0.252374	-0.309829	99
