38
Properties=species:S:1:pos:R:3:Z:I:1 energy=-358.57416307529076 field_type=dipole dipole="0.000000 0.000000 0.000000" charge=0
C	-1.920621	-0.166057	0.175408	6
C	-0.597511	-0.120157	-0.020852	6
C	0.207359	1.135493	-0.112532	6
O	1.384319	0.957602	0.674088	8
N	2.163669	-0.138147	0.237218	7
C	1.477689	-1.185437	-0.088842	6
O	0.122079	-1.321647	-0.142302	8
H	-2.513241	0.736602	0.280358	1
H	-2.439241	-1.117607	0.238768	1
H	-0.335531	1.999013	0.284278	1
H	0.490109	1.351423	-1.149092	1
H	1.960919	-2.131078	-0.376502	1
Es	0.122383	-1.321173	-0.142216	99
Es	1.383945	0.957229	0.673723	99
Es	2.163160	-0.138137	0.237216	99
Es	1.477765	-1.186465	-0.089243	99
Es	-0.597414	-0.120420	-0.020869	99
Es	0.207606	1.135028	-0.112432	99
Es	-1.920237	-0.166053	0.175334	99
Es	-0.094811	-0.870643	-0.090106	99
Es	0.951975	0.967581	0.364379	99
Es	1.775468	-0.590349	0.080482	99
Es	-2.239237	0.416985	0.235461	99
Es	-0.211281	0.489782	-0.070889	99
Es	-1.339947	-0.152017	0.107834	99
Es	0.643977	-1.201128	-0.114735	99
Es	1.660404	0.460678	0.447116	99
Es	1.798752	-1.785689	-0.275248	99
Es	-0.153313	1.699898	0.148712	99
Es	0.393849	1.261722	-0.809459	99
Es	0.174889	-1.262013	-0.125729	99
Es	-0.033405	-1.601908	-0.191934	99
Es	-2.222942	-0.774616	0.216341	99
Es	1.331875	0.893842	0.688768	99
Es	1.509664	1.165840	0.858923	99
Es	2.538314	-0.106219	0.250849	99
Es	1.914652	-0.537887	0.103286	99
Es	-1.307679	-0.115871	0.052045	99
