43
Properties=species:S:1:pos:R:3:Z:I:1 energy=-323.9637354834463 field_type=dipole dipole="0.000000 0.000000 0.000000" charge=0
C	-2.088337	-0.888400	-0.002485	6
C	-0.668307	-0.558470	0.306305	6
N	0.400143	-1.411990	-0.192125	7
C	0.257883	-0.064080	-0.779535	6
C	1.428763	0.824330	-0.545145	6
C	1.580183	1.454270	0.809865	6
O	2.206303	1.054290	-1.466485	8
H	-2.711597	0.003110	0.113905	1
H	-2.456937	-1.653090	0.687965	1
H	-2.216627	-1.260410	-1.023875	1
H	-0.548727	-0.202370	1.322175	1
H	0.062263	-2.112550	-0.854485	1
H	-0.122617	-0.033860	-1.795335	1
H	0.674883	2.010180	1.065045	1
H	2.421813	2.152910	0.793905	1
H	1.780913	0.686130	1.560305	1
Es	2.205970	1.054185	-1.466116	99
Es	0.399876	-1.411930	-0.192307	99
Es	1.428699	0.824323	-0.545041	99
Es	-0.667976	-0.558596	0.305856	99
Es	0.258410	-0.064024	-0.779132	99
Es	-2.087654	-0.888213	-0.002482	99
Es	1.579899	1.453866	0.809452	99
Es	2.400608	1.140611	-1.606863	99
Es	0.168008	-1.772972	-0.587699	99
Es	1.488874	1.127236	0.125440	99
Es	-2.164661	-1.137783	-0.693506	99
Es	0.827900	0.395536	-0.635226	99
Es	-0.565387	-0.316288	0.991025	99
Es	-0.304911	-0.094190	-0.241548	99
Es	0.407340	-0.835442	-0.521459	99
Es	2.129460	1.917330	0.813005	99
Es	1.883618	0.993160	-1.114981	99
Es	0.978351	1.801941	0.969908	99
Es	-2.495557	-0.294748	0.071555	99
Es	-2.331392	-1.406077	0.468134	99
Es	1.694646	0.944712	1.290881	99
Es	-1.351280	-0.715771	0.133939	99
Es	0.703160	-1.485397	0.038780	99
Es	0.004862	-0.060526	-1.457506	99
Es	1.992418	0.956002	-1.182570	99
Es	2.126082	0.996663	-1.469895	99
Es	-0.109792	-1.149210	0.048584	99
