42
Properties=species:S:1:pos:R:3:Z:I:1 energy=-339.99948197154833 field_type=dipole dipole="0.000000 0.000000 0.000000" charge=0
C	-1.997833	-0.908656	-0.119026	6
C	-0.739403	-0.269156	0.354044	6
N	0.504637	-1.031886	0.380774	7
C	0.369287	0.061414	-0.613596	6
C	1.203567	1.274544	-0.394956	6
N	2.077687	1.211564	0.645554	7
O	1.096197	2.254244	-1.118226	8
H	-2.728613	-0.140246	-0.389906	1
H	-2.431103	-1.523506	0.676274	1
H	-1.837033	-1.546876	-0.994446	1
H	-0.906953	0.396674	1.193654	1
H	0.397577	-1.933926	-0.087956	1
H	0.274066	-0.248396	-1.647966	1
H	2.073756	0.389234	1.238524	1
H	2.644167	2.014974	0.877254	1
Es	1.096172	2.253968	-1.118061	99
Es	0.504476	-1.031982	0.380628	99
Es	2.077764	1.211524	0.645447	99
Es	1.203564	1.274293	-0.394747	99
Es	-0.738968	-0.269426	0.353643	99
Es	0.369501	0.061590	-0.613124	99
Es	-1.997266	-0.908410	-0.118881	99
Es	1.155768	1.851089	-0.820332	99
Es	0.753491	-0.988058	0.681573	99
Es	2.392262	1.696906	0.790374	99
Es	-1.881899	-1.334837	-0.703231	99
Es	0.796289	0.642527	-0.492392	99
Es	0.406849	-1.520302	0.074314	99
Es	1.685657	1.240887	0.211548	99
Es	2.061087	0.744739	1.007721	99
Es	-0.834938	0.168252	0.928510	99
Es	0.309433	-0.158232	-1.293048	99
Es	-2.288801	-1.324318	0.419673	99
Es	-2.475056	-0.398336	-0.300660	99
Es	1.090032	2.476070	-1.278519	99
Es	1.100462	2.028371	-0.939094	99
Es	-1.338951	-0.589096	0.102093	99
Es	0.536869	-0.599938	-0.086416	99
Es	-0.274969	0.090230	-0.225898	99
Es	1.082674	2.181123	-1.088547	99
Es	2.057248	1.174159	0.499535	99
Es	-0.070086	-0.798644	0.417077	99
