43
Properties=species:S:1:pos:R:3:Z:I:1 energy=-323.94039024089403 field_type=dipole dipole="0.000000 0.000000 0.000000" charge=0
C	-1.332564	0.454949	1.195875	6
C	0.145116	0.252249	0.883065	6
N	0.442286	-1.130661	0.451755	7
C	0.458026	-1.170131	-1.021015	6
C	0.846336	0.212119	-1.415515	6
O	-0.201204	1.188069	-1.422205	8
C	0.626206	1.099789	-0.253565	6
H	-1.528884	1.499899	1.458875	1
H	-1.642004	-0.171871	2.039005	1
H	-1.971804	0.206329	0.341255	1
H	0.733446	0.466909	1.781815	1
H	-0.255854	-1.779041	0.809125	1
H	1.180436	-1.912921	-1.370355	1
H	-0.532804	-1.424171	-1.413305	1
H	1.709956	0.322619	-2.048555	1
H	1.323316	1.885859	-0.016255	1
Es	-0.201040	1.187591	-1.421773	99
Es	0.441924	-1.130594	0.451809	99
Es	0.846080	0.212909	-1.415454	99
Es	0.626309	1.100315	-0.253819	99
Es	0.145188	0.251840	0.882831	99
Es	0.458357	-1.169540	-1.020476	99
Es	-1.331724	0.454814	1.195623	99
Es	-0.276171	1.418696	-1.604217	99
Es	0.396976	-1.136433	-0.157830	99
Es	0.370822	0.706717	0.298153	99
Es	1.398464	0.269617	-1.840954	99
Es	-1.533219	0.022703	1.774262	99
Es	-0.208726	-1.341924	-1.284935	99
Es	0.225041	0.939755	-1.152987	99
Es	0.896329	0.585165	-0.746885	99
Es	0.003825	-1.482462	0.634650	99
Es	0.542389	0.398531	1.491140	99
Es	0.945499	-1.670886	-1.261060	99
Es	0.241902	-0.563052	0.592834	99
Es	1.082121	1.632704	-0.095609	99
Es	-1.465084	1.162259	1.367996	99
Es	-1.750788	0.276990	0.626281	99
Es	0.655288	-0.435380	-1.254120	99
Es	-0.589525	0.362324	1.024694	99
Es	-0.293475	1.050366	-1.339647	99
Es	-0.006239	1.073096	-1.297684	99
Es	0.809883	-1.213232	0.579282	99
