42
Properties=species:S:1:pos:R:3:Z:I:1 energy=-339.9306462312177 field_type=dipole dipole="0.000000 0.000000 0.000000" charge=0
C	-2.288335	-0.128800	0.124957	6
C	-0.781785	-0.051510	0.013507	6
N	-0.264045	1.133520	0.040327	7
C	1.199595	1.182890	-0.117613	6
C	1.868615	-0.156620	0.157387	6
O	1.193595	-1.156090	-0.613503	8
N	-0.101165	-1.252330	-0.085903	7
H	-2.631065	-1.166520	0.149687	1
H	-2.738544	0.375360	-0.735153	1
H	-2.611105	0.374470	1.041027	1
H	1.411085	1.499050	-1.145693	1
H	1.608425	1.944580	0.554217	1
H	2.917085	-0.131240	-0.155173	1
H	1.839625	-0.421000	1.221817	1
H	-0.621985	-2.045760	-0.449893	1
Es	1.193057	-1.155017	-0.613747	99
Es	-0.101157	-1.252826	-0.084020	99
Es	-0.263724	1.133677	0.040236	99
Es	-0.781660	-0.051532	0.013503	99
Es	1.868146	-0.156858	0.157087	99
Es	1.199344	1.182450	-0.117501	99
Es	-2.287980	-0.128705	0.124946	99
Es	1.325877	-1.433782	-0.715038	99
Es	-0.443040	0.565997	0.014354	99
Es	-0.096549	-1.297543	0.284395	99
Es	-2.506703	-0.834669	0.137482	99
Es	1.533759	0.506865	0.028308	99
Es	0.348420	1.081906	-0.020970	99
Es	-0.393160	-0.726855	-0.137560	99
Es	0.603312	-1.162745	-0.390048	99
Es	1.343596	1.386508	-0.817107	99
Es	1.481591	1.695574	0.345525	99
Es	1.391104	-0.791230	-0.310775	99
Es	-2.502487	0.198001	0.732783	99
Es	2.574379	-0.145725	-0.060933	99
Es	-2.578497	0.193830	-0.446101	99
Es	-1.517636	-0.125449	0.069568	99
Es	1.837949	-0.337573	0.879525	99
Es	-0.400948	-1.632437	-0.359998	99
Es	1.153837	-1.035607	-0.719674	99
Es	-0.456291	1.469418	0.077635	99
Es	-0.416609	0.734606	0.038860	99
