40
Properties=species:S:1:pos:R:3:Z:I:1 energy=-322.847986545218 field_type=dipole dipole="0.000000 0.000000 0.000000" charge=0
C	-1.515161	0.084679	-0.946682	6
C	-0.012361	0.039319	-0.727182	6
N	0.385669	-1.118301	0.015888	7
C	1.047109	-0.808921	1.176558	6
O	1.527069	-1.585671	1.977008	8
C	1.083439	0.654889	1.274568	6
C	0.479079	1.123909	0.175888	6
H	-1.842841	-0.774201	-1.542612	1
H	-1.805461	0.997939	-1.476842	1
H	-2.065451	0.053209	0.000798	1
H	0.525359	0.045579	-1.680902	1
H	0.296919	-2.077351	-0.289802	1
H	1.535059	1.189879	2.089578	1
H	0.361569	2.175049	-0.046262	1
Es	1.527001	-1.585634	1.976901	99
Es	0.385675	-1.118218	0.015779	99
Es	1.047001	-0.808726	1.176396	99
Es	-0.012040	0.039156	-0.726704	99
Es	0.479120	1.123781	0.175890	99
Es	1.083828	0.655275	1.275405	99
Es	-1.514327	0.084653	-0.946542	99
Es	1.314383	-1.270334	1.628615	99
Es	0.667929	-0.973177	0.505203	99
Es	0.369748	1.790656	-0.012115	99
Es	1.073767	-0.052911	1.229011	99
Es	0.344657	0.043335	-1.362607	99
Es	0.328928	-1.681276	-0.164357	99
Es	0.186462	-0.642960	-0.328304	99
Es	-0.724162	0.066574	-0.808740	99
Es	0.931454	0.862565	0.731646	99
Es	1.354179	1.029273	1.743722	99
Es	0.247080	0.656483	-0.231193	99
Es	-1.873924	0.068657	-0.310320	99
Es	1.636194	-1.788268	2.143378	99
Es	-1.701032	0.704419	-1.305542	99
Es	1.409402	-1.391866	1.789006	99
Es	-1.727731	-0.499598	-1.353228	99
Es	1.509411	-1.504133	1.948851	99
Es	0.421476	-1.080290	0.122549	99
Es	0.672248	0.826192	0.833104	99
