39
Properties=species:S:1:pos:R:3:Z:I:1 energy=-338.7747372370209 field_type=dipole dipole="0.000000 0.000000 0.000000" charge=0
C	-2.189997	0.276330	-0.004927	6
C	-0.694147	0.313370	-0.012277	6
N	-0.057337	1.439500	-0.043377	7
N	1.338103	1.472140	-0.051287	7
C	1.956323	0.340170	-0.017477	6
C	1.257853	-0.981430	0.030643	6
O	-0.153007	-0.925260	0.021653	8
H	-2.556987	-0.753780	-0.021467	1
H	-2.570707	0.799590	-0.885987	1
H	-2.559567	0.768650	0.899023	1
H	3.056913	0.329050	-0.021667	1
H	1.590403	-1.573130	-0.828037	1
H	1.582153	-1.505200	0.935183	1
Es	-0.152551	-0.924790	0.021646	99
Es	1.337545	1.471880	-0.051275	99
Es	-0.056861	1.439347	-0.043377	99
Es	-0.694272	0.313209	-0.012276	99
Es	1.257801	-0.981225	0.030638	99
Es	1.956349	0.340068	-0.017474	99
Es	-2.189649	0.276483	-0.004933	99
Es	-0.309949	-0.430289	0.008824	99
Es	0.666039	1.353588	-0.044248	99
Es	-1.388979	0.293579	-0.010809	99
Es	-0.284236	0.855510	-0.025986	99
Es	1.611183	-0.262241	0.004773	99
Es	1.565350	0.905926	-0.037695	99
Es	0.352667	-0.882431	0.023541	99
Es	2.658969	0.296157	-0.019046	99
Es	1.471234	-1.325674	0.631571	99
Es	1.476838	-1.371425	-0.540334	99
Es	-2.424768	0.596880	0.588112	99
Es	-0.329152	-1.197114	0.022781	99
Es	-2.425002	-0.402177	-0.015375	99
Es	-2.434566	0.618663	-0.583075	99
Es	-0.156981	-0.835906	0.023671	99
Es	1.584806	0.965777	-0.032728	99
Es	-0.243255	1.775473	-0.051032	99
Es	1.485785	1.821888	-0.063421	99
Es	-0.222845	1.065295	-0.034385	99
