38
Properties=species:S:1:pos:R:3:Z:I:1 energy=-358.6647816331287 field_type=dipole dipole="0.000000 0.000000 0.000000" charge=0
C	-1.745087	-0.432389	-0.002670	6
C	-0.287037	-0.248049	-0.000010	6
C	0.563733	0.828591	-0.000290	6
O	0.176303	2.105441	-0.003450	8
N	1.864163	0.430361	0.002990	7
C	1.765323	-0.881419	0.005100	6
O	0.493553	-1.374499	0.003440	8
H	-2.266337	0.529611	0.006170	1
H	-2.061797	-0.998079	0.878910	1
H	-2.060377	-0.981199	-0.895340	1
H	0.994053	2.632611	-0.002820	1
H	2.563503	-1.610979	0.007970	1
Es	0.493705	-1.373942	0.003439	99
Es	0.176725	2.105573	-0.003450	99
Es	1.864311	0.430570	0.002990	99
Es	1.766225	-0.882593	0.005104	99
Es	0.563540	0.828486	-0.000295	99
Es	-0.286937	-0.248310	-0.000009	99
Es	-1.744453	-0.432338	-0.002669	99
Es	0.376005	-1.676051	0.003714	99
Es	0.361567	1.627524	-0.002080	99
Es	1.304389	0.592127	0.001533	99
Es	0.091512	0.323514	-0.001250	99
Es	-0.982933	-0.351285	-0.000856	99
Es	0.590204	2.326838	-0.002923	99
Es	1.777633	-0.196083	0.003817	99
Es	0.983973	-1.152310	0.004124	99
Es	2.265762	-1.326143	0.006874	99
Es	0.589758	-1.261528	0.003406	99
Es	0.249412	-0.978951	0.002132	99
Es	0.213484	2.052146	-0.002686	99
Es	-0.116122	2.228491	-0.005120	99
Es	-1.945372	-0.791144	-0.591035	99
Es	-2.078276	0.206231	0.002993	99
Es	-1.946623	-0.802311	0.578514	99
Es	2.180684	0.657169	0.003385	99
Es	1.758013	-0.000659	0.003512	99
Es	0.165704	0.173560	0.000947	99
