41
Properties=species:S:1:pos:R:3:Z:I:1 energy=-359.77003211635446 field_type=dipole dipole="0.000000 0.000000 0.000000" charge=0
C	-1.492610	0.141516	-0.299919	6
C	0.027360	0.113396	-0.332519	6
O	0.473760	0.302946	-1.662979	8
C	0.625320	-1.118464	0.323661	6
O	0.913750	-0.735734	1.675671	8
N	1.070800	0.672266	1.710211	7
C	0.575080	1.131026	0.613021	6
H	-1.885140	0.033066	0.717121	1
H	-1.908190	-0.659134	-0.921189	1
H	-1.870410	1.086396	-0.706949	1
H	1.445990	0.237716	-1.671378	1
H	1.560150	-1.436354	-0.151229	1
H	-0.059770	-1.971624	0.333021	1
H	0.523910	2.202986	0.373451	1
Es	0.913708	-0.735575	1.675146	99
Es	0.474289	0.302936	-1.662633	99
Es	1.070753	0.672144	1.710037	99
Es	0.027452	0.113623	-0.332733	99
Es	0.625077	-1.117406	0.323828	99
Es	0.575186	1.130962	0.613238	99
Es	-1.491828	0.141465	-0.299909	99
Es	0.801658	-0.832264	1.164697	99
Es	0.285678	0.356708	-1.904120	99
Es	0.800218	0.851207	1.207076	99
Es	0.895018	0.874621	1.196877	99
Es	-1.735001	0.781842	-0.572085	99
Es	0.521896	1.781351	0.437924	99
Es	0.335245	0.698000	0.185092	99
Es	0.349982	0.227356	-1.176590	99
Es	0.837032	-0.692425	1.651944	99
Es	0.300933	-0.521166	-0.030420	99
Es	0.166555	-1.686268	0.332951	99
Es	0.962404	0.262129	-1.614800	99
Es	1.266261	-1.314487	-0.012708	99
Es	-1.755360	-0.399749	-0.711378	99
Es	-1.738493	0.065193	0.391418	99
Es	1.012966	-0.918680	1.907943	99
Es	-0.715756	0.126986	-0.314305	99
Es	1.238044	0.834824	2.006353	99
Es	0.490060	0.298406	-1.628252	99
Es	0.963568	-0.126602	1.631145	99
