38
Properties=species:S:1:pos:R:3:Z:I:1 energy=-358.607847576585 field_type=dipole dipole="0.000000 0.000000 0.000000" charge=0
C	-1.757904	-0.613068	-0.000609	6
C	-0.297744	-0.430808	-0.001539	6
C	0.540746	0.650022	0.002391	6
O	0.140516	1.930732	0.008831	8
C	1.834936	0.109132	-0.001809	6
N	1.806886	-1.226638	-0.008029	7
O	0.458406	-1.566898	-0.007899	8
H	-2.277724	0.349672	0.011771	1
H	-2.072844	-1.179998	0.880711	1
H	-2.076374	-1.159248	-0.893689	1
H	0.908786	2.528252	0.010591	1
H	2.792316	0.608852	-0.000719	1
Es	0.458612	-1.566429	-0.007897	99
Es	0.141116	1.930802	0.008830	99
Es	1.806397	-1.226385	-0.008027	99
Es	-0.297683	-0.431099	-0.001540	99
Es	0.540691	0.650232	0.002391	99
Es	1.835730	0.109434	-0.001809	99
Es	-1.757321	-0.613085	-0.000610	99
Es	0.362081	-1.870053	-0.009261	99
Es	0.553984	2.181822	0.009491	99
Es	1.783580	-0.590100	-0.005053	99
Es	0.095765	0.173700	0.000696	99
Es	-1.953831	-0.980405	0.574817	99
Es	0.326456	1.454864	0.006366	99
Es	2.362062	0.457768	-0.000873	99
Es	0.992039	-1.372254	-0.007695	99
Es	0.478614	-1.423967	-0.007176	99
Es	1.285231	0.370516	0.000022	99
Es	-0.158313	2.038933	0.009631	99
Es	0.176337	1.886680	0.008632	99
Es	0.208548	-1.105212	-0.005412	99
Es	-1.955834	-0.966834	-0.583648	99
Es	-2.091988	0.022586	0.007385	99
Es	-0.985199	-0.527651	-0.000928	99
Es	2.064680	-1.502281	-0.009593	99
Es	0.340884	0.147819	0.000402	99
Es	1.759434	-0.703044	-0.005507	99
