40
Properties=species:S:1:pos:R:3:Z:I:1 energy=-322.76085573831665 field_type=dipole dipole="0.000000 0.000000 0.000000" charge=0
C	-0.811640	-2.334751	-0.531069	6
C	-0.886180	-0.997341	-0.552809	6
C	-0.126080	-0.087211	0.303131	6
C	1.270320	0.270429	-0.059499	6
N	0.195170	1.202339	-0.239709	7
C	0.108530	2.329889	0.561961	6
O	0.397979	2.417019	1.747681	8
H	-1.418330	-2.936971	-1.199919	1
H	-0.147940	-2.853451	0.153541	1
H	-1.577650	-0.538641	-1.258099	1
H	-0.401500	-0.088491	1.353701	1
H	1.696410	-0.077651	-0.990049	1
H	1.970280	0.508819	0.731231	1
H	-0.269370	3.186009	-0.020089	1
Es	0.397947	2.416830	1.747373	99
Es	0.195380	1.201941	-0.239356	99
Es	0.108022	2.330656	0.560892	99
Es	-0.126120	-0.087040	0.302665	99
Es	1.269386	0.270803	-0.059466	99
Es	-0.886158	-0.997239	-0.552809	99
Es	-0.811715	-2.333984	-0.531203	99
Es	0.421773	2.582664	1.991665	99
Es	0.705248	0.911842	-0.132672	99
Es	-1.209175	-2.715634	-0.991599	99
Es	0.168709	1.679451	0.173521	99
Es	-0.520643	-0.564327	-0.136532	99
Es	1.545116	0.046162	-0.674540	99
Es	-0.297414	-0.081937	1.000965	99
Es	-0.142969	2.880821	0.164582	99
Es	0.283183	2.363227	1.257204	99
Es	-1.346025	-0.658362	-1.013160	99
Es	-0.840265	-1.739602	-0.506729	99
Es	1.743710	0.432677	0.468269	99
Es	-0.028976	0.757277	0.029828	99
Es	0.620357	-0.107247	0.163517	99
Es	-0.367599	-2.629331	-0.061248	99
Es	0.314116	2.390371	1.406203	99
Es	0.422651	2.265576	1.698813	99
Es	0.085489	1.225093	-0.615802	99
Es	-0.835308	-1.673731	-0.563593	99
