45
Properties=species:S:1:pos:R:3:Z:I:1 energy=-288.10608638040776 field_type=dipole dipole="0.000000 0.000000 0.000000" charge=0
C	-1.329823	-0.000656	0.837092	6
C	-0.723273	-1.024636	-0.150248	6
C	0.773127	-1.269526	0.076092	6
C	1.575377	-0.000186	-0.227218	6
C	0.773977	1.268814	0.079642	6
C	-0.722653	1.025494	-0.147258	6
N	-0.959193	0.001774	-1.224988	7
H	-0.943743	-0.002146	1.859782	1
H	-2.426363	-0.000496	0.873562	1
H	-1.297963	-1.949396	-0.261308	1
H	0.941917	-1.582826	1.113112	1
H	1.128077	-2.085056	-0.564418	1
H	1.820597	0.001284	-1.298288	1
H	2.534457	-0.001166	0.302012	1
H	1.129427	2.086024	-0.558498	1
H	0.942747	1.579014	1.117532	1
H	-1.296763	1.950954	-0.256068	1
H	-1.919933	0.002734	-1.570528	1
Es	-0.959931	0.001773	-1.224383	99
Es	-0.722790	1.026173	-0.147340	99
Es	-0.723409	-1.025314	-0.150331	99
Es	0.773343	1.268182	0.079184	99
Es	0.772494	-1.268892	0.075636	99
Es	-1.330496	-0.000655	0.836249	99
Es	1.574809	-0.000186	-0.226712	99
Es	-0.890467	0.451657	-0.800824	99
Es	0.876628	1.475454	0.784425	99
Es	-0.890788	-0.449139	-0.802084	99
Es	-1.033447	-0.581447	0.429444	99
Es	1.742282	0.000786	-0.943898	99
Es	1.011688	-1.821760	-0.354385	99
Es	-1.538422	0.002208	-1.351275	99
Es	-1.114252	-1.648788	-0.236471	99
Es	2.224059	-0.000878	0.141232	99
Es	1.012874	1.822162	-0.349231	99
Es	0.875748	-1.478259	0.780293	99
Es	-2.057047	-0.000510	0.852779	99
Es	-1.071372	-0.001668	1.531928	99
Es	0.007817	1.145238	-0.048811	99
Es	1.169039	-0.642005	-0.063563	99
Es	-1.033128	0.581008	0.431081	99
Es	1.169444	0.641479	-0.061773	99
Es	0.007096	-1.145122	-0.052052	99
Es	-1.113229	1.650122	-0.231958	99
Es	-0.678939	0.002051	-1.518878	99
