39
Properties=species:S:1:pos:R:3:Z:I:1 energy=-338.7311309461088 field_type=dipole dipole="0.000000 0.000000 0.000000" charge=0
C	-1.371590	-1.138441	-0.146697	6
C	0.142600	-0.997681	-0.146277	6
C	0.579000	0.419838	-0.155727	6
N	0.766420	1.084439	-1.299757	7
O	1.165310	2.362009	-0.912307	8
N	1.220550	2.470768	0.476953	7
C	0.858010	1.269499	0.921043	6
H	-1.654950	-2.195632	-0.135987	1
H	-1.812530	-0.676971	-1.037277	1
H	-1.813930	-0.658611	0.733263	1
H	0.554590	-1.520391	-1.018627	1
H	0.550190	-1.499671	0.738663	1
H	0.816330	1.080849	1.982733	1
Es	1.165183	2.361572	-0.912009	99
Es	1.220408	2.470399	0.476651	99
Es	0.766503	1.084718	-1.299175	99
Es	0.579059	0.420039	-0.155925	99
Es	0.857921	1.269096	0.923691	99
Es	0.142701	-0.997294	-0.146342	99
Es	-1.370891	-1.138280	-0.146692	99
Es	1.212988	2.576052	-1.104119	99
Es	0.735600	0.806369	-0.784022	99
Es	1.033873	1.922306	0.641289	99
Es	-0.581666	-1.041667	-0.145185	99
Es	-1.662319	-0.809487	0.448323	99
Es	0.999204	1.820707	-1.008991	99
Es	0.731789	0.881796	0.481603	99
Es	0.804702	1.099756	1.526340	99
Es	1.144569	2.243666	-0.803584	99
Es	0.372738	-0.256000	-0.149814	99
Es	0.415211	-1.322501	0.452683	99
Es	1.170812	2.349864	-0.318783	99
Es	0.414921	-1.334610	-0.722121	99
Es	0.722486	0.985042	-1.646295	99
Es	-1.559966	-1.856299	-0.136918	99
Es	-1.660516	-0.826560	-0.740611	99
Es	1.328059	2.772181	0.645929	99
Es	1.044950	1.851130	0.632867	99
Es	0.660357	0.860223	-0.743950	99
