46
Properties=species:S:1:pos:R:3:Z:I:1 energy=-325.12256534127937 field_type=dipole dipole="0.000000 0.000000 0.000000" charge=0
C	-1.462119	-2.032670	0.479003	6
C	-0.544879	-1.781530	-0.708457	6
C	0.500311	-0.763541	-0.384147	6
O	0.794631	0.149159	-1.451107	8
C	0.152851	0.701430	-0.291667	6
C	0.996721	1.622639	0.521013	6
N	0.578411	2.998639	0.270933	7
H	-2.185609	-2.818430	0.242823	1
H	-2.017359	-1.126740	0.741313	1
H	-0.890409	-2.341630	1.359383	1
H	-1.147519	-1.466171	-1.569137	1
H	-0.051829	-2.719951	-0.990987	1
H	1.320351	-1.153951	0.201923	1
H	-0.889209	0.987030	-0.351777	1
H	2.059361	1.512379	0.279423	1
H	0.868891	1.396260	1.584073	1
H	0.725921	3.206850	-0.717627	1
H	1.191481	3.630229	0.785013	1
Es	0.794215	0.149178	-1.450692	99
Es	0.578106	2.998625	0.270970	99
Es	0.500174	-0.763094	-0.384742	99
Es	0.153524	0.700822	-0.292194	99
Es	0.996023	1.622684	0.520409	99
Es	-0.544728	-1.781157	-0.708186	99
Es	-1.461669	-2.032519	0.478444	99
Es	0.980289	0.164062	-1.658685	99
Es	0.794147	2.457556	0.352260	99
Es	-0.945608	-1.565498	-1.272199	99
Es	0.573460	1.129826	0.112793	99
Es	-1.830437	-1.419353	0.651669	99
Es	1.712481	1.535647	0.356637	99
Es	1.068821	-1.022174	0.002702	99
Es	-0.991393	-1.904447	-0.116864	99
Es	0.692638	0.122906	-1.224348	99
Es	0.976367	3.335336	0.544664	99
Es	-0.019548	-1.238283	-0.541617	99
Es	-1.070051	-2.235860	1.077794	99
Es	0.711540	3.100166	-0.292432	99
Es	-1.958154	-2.569077	0.318803	99
Es	0.914069	1.475747	1.235920	99
Es	0.569210	0.103698	-0.947520	99
Es	-0.548772	0.891998	-0.345664	99
Es	-0.209052	-2.413109	-0.903390	99
Es	0.712090	0.119419	-1.435924	99
Es	0.230963	-0.060404	-0.117887	99
Es	0.195372	3.037493	0.378800	99
