46
Properties=species:S:1:pos:R:3:Z:I:1 energy=-325.1165030988107 field_type=dipole dipole="0.000000 0.000000 0.000000" charge=0
C	-0.715888	-1.760073	-1.206511	6
C	-0.416688	-1.236623	0.190299	6
C	0.371142	0.071417	0.142239	6
O	1.658052	-0.162223	-0.490331	8
C	-0.409088	1.323437	-0.345421	6
N	0.166472	2.095827	0.777689	7
C	0.429702	0.829947	1.498129	6
H	-1.293358	-2.687983	-1.146811	1
H	0.205312	-1.970693	-1.758901	1
H	-1.296208	-1.034843	-1.785431	1
H	0.150202	-1.992393	0.747169	1
H	-1.365048	-1.095853	0.723249	1
H	2.102092	0.701777	-0.474791	1
H	-1.501788	1.239487	-0.299831	1
H	-0.132358	1.697257	-1.336231	1
H	1.010312	2.612867	0.532589	1
H	1.393362	0.800217	2.016189	1
H	-0.356228	0.568447	2.216709	1
Es	1.658015	-0.161567	-0.490100	99
Es	0.166637	2.095883	0.777565	99
Es	0.370818	0.070643	0.142302	99
Es	-0.408611	1.323475	-0.344852	99
Es	0.429636	0.830293	1.497745	99
Es	-0.416607	-1.236336	0.189999	99
Es	-0.715719	-1.759811	-1.205835	99
Es	1.773076	-0.434389	-0.565856	99
Es	0.681468	2.326035	0.604120	99
Es	-1.106734	-1.262317	-1.592280	99
Es	1.088464	0.811546	1.847637	99
Es	-0.034119	1.811295	0.289770	99
Es	-0.016829	-1.714614	0.578978	99
Es	-1.147407	1.257762	-0.298457	99
Es	1.842919	0.304567	-0.460627	99
Es	-0.217641	1.577366	-1.018477	99
Es	-1.114565	-2.394744	-1.165811	99
Es	0.325362	1.586538	1.077104	99
Es	-0.100592	-1.896637	-1.575720	99
Es	-0.116130	0.652109	1.967433	99
Es	1.204823	-0.048616	-0.269235	99
Es	-0.049546	0.642092	-0.195551	99
Es	-0.542728	-1.458691	-0.503605	99
Es	1.632301	-0.126259	-0.501692	99
Es	-1.043391	-1.093826	0.557100	99
Es	-0.037946	-0.626827	0.152834	99
Es	0.421824	0.345739	0.861353	99
Es	-0.094470	2.328123	0.954179	99
