43
Properties=species:S:1:pos:R:3:Z:I:1 energy=-323.9232134110257 field_type=dipole dipole="0.000000 0.000000 0.000000" charge=0
C	-1.077939	-1.415549	0.922491	6
C	-0.682539	-0.942709	-0.469209	6
C	-0.324849	0.516661	-0.489889	6
C	-1.176299	1.485811	-0.859169	6
C	1.058691	0.923981	-0.127019	6
N	1.984541	0.083781	0.206811	7
O	3.164021	0.788831	0.476041	8
H	-1.327599	-2.481380	0.901221	1
H	-1.956299	-0.872499	1.288251	1
H	-0.265459	-1.273519	1.642471	1
H	-1.516789	-1.133519	-1.155959	1
H	0.153361	-1.545629	-0.842879	1
H	-2.196319	1.250121	-1.148419	1
H	-0.893459	2.533881	-0.881239	1
H	1.269130	2.008991	-0.161879	1
H	3.787811	0.072751	0.698381	1
Es	3.164240	0.788315	0.476169	99
Es	1.984677	0.083899	0.206865	99
Es	1.058558	0.923865	-0.127029	99
Es	-0.324725	0.516866	-0.489827	99
Es	-1.175784	1.490357	-0.859503	99
Es	-0.682459	-0.942495	-0.469119	99
Es	-1.077706	-1.415240	0.921879	99
Es	3.173761	1.096667	0.436597	99
Es	1.585287	0.484884	0.065094	99
Es	-0.929613	1.829066	-0.803514	99
Es	-0.121148	-1.337795	-0.718821	99
Es	-0.500423	-0.180502	-0.483169	99
Es	0.481759	0.752126	-0.265798	99
Es	1.103505	1.581655	-0.165112	99
Es	3.458493	0.392855	0.588052	99
Es	2.662862	0.520288	0.359520	99
Es	-1.730307	1.365447	-1.015329	99
Es	-1.672341	-1.043357	1.169473	99
Es	3.129384	0.757761	0.483068	99
Es	-0.909934	1.309267	-0.743926	99
Es	-0.536088	-1.315947	1.399063	99
Es	-0.874511	-1.151127	0.218061	99
Es	-1.244321	-2.144539	0.906773	99
Es	-1.249213	-1.060298	-0.931627	99
Es	1.971543	-0.302555	0.234506	99
Es	1.565437	0.428165	0.054101	99
Es	-0.694882	1.015045	-0.688128	99
