46
Properties=species:S:1:pos:R:3:Z:I:1 energy=-325.20519772284666 field_type=dipole dipole="0.000000 0.000000 0.000000" charge=0
C	-2.364476	-1.643331	-0.045100	6
C	-0.862006	-1.412981	-0.004030	6
C	-0.523166	0.077369	-0.003920	6
C	0.985764	0.304829	0.040540	6
C	1.341874	1.775789	0.012370	6
N	2.683654	2.023659	0.025100	7
O	0.533423	2.694389	-0.016920	8
H	-2.582926	-2.715391	-0.055130	1
H	-2.804806	-1.198141	-0.942470	1
H	-2.851636	-1.205121	0.831170	1
H	-0.399846	-1.899251	-0.871620	1
H	-0.448836	-1.889571	0.893040	1
H	-0.995646	0.563929	0.858450	1
H	-0.942226	0.550229	-0.900850	1
H	1.462924	-0.179571	-0.819060	1
H	1.402994	-0.130941	0.955820	1
H	3.381793	1.294109	0.039480	1
H	2.983153	2.989999	0.003130	1
Es	0.533444	2.693873	-0.016910	99
Es	2.683631	2.023645	0.025164	99
Es	1.341882	1.775263	0.012381	99
Es	0.985928	0.305125	0.040532	99
Es	-0.862159	-1.412734	-0.004041	99
Es	-0.522924	0.077138	-0.003913	99
Es	-2.363874	-1.643154	-0.045083	99
Es	0.482694	2.977474	-0.023190	99
Es	2.098461	1.891172	0.014458	99
Es	-0.835490	0.395041	0.571081	99
Es	1.180039	1.055444	0.026197	99
Es	-2.659570	-1.338878	-0.648595	99
Es	-1.611799	-1.521326	-0.024304	99
Es	2.858254	2.594115	0.008231	99
Es	3.094802	1.585692	0.029312	99
Es	1.268395	0.022739	0.636766	99
Es	-0.798993	0.384844	-0.601320	99
Es	-2.691289	-1.343327	0.544214	99
Es	0.873620	2.322267	-0.005338	99
Es	-0.539693	-1.740058	-0.596041	99
Es	0.719647	2.470846	-0.009776	99
Es	-2.516507	-2.379633	-0.051948	99
Es	1.307220	-0.008547	-0.519638	99
Es	0.254420	0.203658	0.018206	99
Es	-0.573641	-1.733253	0.607789	99
Es	-0.691885	-0.669375	-0.003201	99
Es	0.461548	2.550264	-0.014642	99
Es	2.576554	1.995346	0.042084	99
