43
Properties=species:S:1:pos:R:3:Z:I:1 energy=-324.0043240159856 field_type=dipole dipole="0.000000 0.000000 0.000000" charge=0
C	-2.156796	-0.011307	0.229245	6
C	-0.683646	-0.292377	0.077105	6
C	-0.339476	-1.757417	0.065825	6
C	0.189324	0.723643	-0.033425	6
N	1.541574	0.572773	-0.173195	7
C	2.438724	1.600223	-0.285835	6
O	3.644204	1.427173	-0.409015	8
H	-2.377706	1.061273	0.236245	1
H	-2.527906	-0.432787	1.169155	1
H	-2.715416	-0.460007	-0.598665	1
H	-0.861226	-2.258777	-0.756275	1
H	-0.652136	-2.222947	1.006475	1
H	0.727354	-1.956467	-0.057645	1
H	-0.167666	1.752513	-0.013745	1
H	1.958663	-0.348667	-0.200165	1
H	1.982134	2.603153	-0.256085	1
Es	3.643909	1.426969	-0.408980	99
Es	1.541607	0.572783	-0.173199	99
Es	2.437712	1.600938	-0.285742	99
Es	0.186629	0.729881	-0.033252	99
Es	-0.683228	-0.292259	0.077059	99
Es	-0.339588	-1.757164	0.065835	99
Es	-2.156100	-0.011334	0.229170	99
Es	3.919019	1.472571	-0.438916	99
Es	1.742503	0.062276	-0.184808	99
Es	-0.020472	1.186717	-0.020236	99
Es	0.381648	-1.873267	-0.017486	99
Es	-2.392699	-0.299744	0.864400	99
Es	2.107274	2.261067	-0.262938	99
Es	-0.119761	0.377079	0.004132	99
Es	1.930444	1.033592	-0.222222	99
Es	-0.495978	-1.002238	0.069210	99
Es	3.132033	1.487405	-0.356471	99
Es	-0.544049	-2.059892	0.701791	99
Es	0.852450	0.640493	-0.102092	99
Es	1.570342	0.668139	-0.178054	99
Es	-2.295297	0.713820	0.232795	99
Es	-2.519793	-0.318232	-0.333273	99
Es	-0.685812	-2.084345	-0.492126	99
Es	-1.407324	-0.126503	0.151953	99
Es	3.343179	1.473227	-0.378040	99
Es	3.555444	1.349930	-0.398311	99
Es	-0.271793	0.217194	0.026084	99
