40
Properties=species:S:1:pos:R:3:Z:I:1 energy=-322.7963224121891 field_type=dipole dipole="0.000000 0.000000 0.000000" charge=0
C	-3.092512	-0.534424	-0.018362	6
C	-1.648512	-0.534424	-0.018362	6
C	-0.458352	-0.534424	-0.018362	6
C	0.985648	-0.534424	-0.018362	6
N	1.486168	0.815746	0.021538	7
C	2.829828	1.065636	0.047138	6
O	3.709938	0.217596	0.045308	8
H	-3.486502	0.486456	-0.006702	1
H	-3.486592	-1.054914	0.859908	1
H	-3.486592	-1.034734	-0.908282	1
H	1.383618	-1.018114	-0.917002	1
H	1.384189	-1.072624	0.848478	1
H	0.831718	1.586056	0.012918	1
H	3.047958	2.146595	0.070148	1
Es	3.709696	0.217612	0.045304	99
Es	1.486102	0.815531	0.021522	99
Es	2.829595	1.067090	0.047158	99
Es	0.984602	-0.534209	-0.018359	99
Es	-3.092214	-0.534326	-0.018358	99
Es	-1.650490	-0.534432	-0.018363	99
Es	-0.458065	-0.534447	-0.018364	99
Es	3.311049	0.560101	0.046057	99
Es	1.118921	1.260540	0.014971	99
Es	-1.841184	-0.445169	-0.014747	99
Es	-1.502338	-0.477091	-0.015798	99
Es	1.198478	0.241053	0.003000	99
Es	2.942332	1.787833	0.061694	99
Es	2.101846	0.927043	0.030126	99
Es	-3.309899	-0.871859	0.549998	99
Es	1.235564	-0.845872	-0.605134	99
Es	1.235401	-0.880658	0.547538	99
Es	0.161911	-0.562767	-0.019691	99
Es	-3.310774	0.133749	-0.010895	99
Es	-3.309662	-0.858541	-0.594004	99
Es	3.986751	0.133705	0.048404	99
Es	3.497549	0.421971	0.045253	99
Es	3.569140	0.169245	0.041919	99
Es	1.617226	0.857173	0.035235	99
Es	-1.020297	-0.647213	-0.022006	99
Es	-1.054664	-0.526498	-0.019946	99
