46
Properties=species:S:1:pos:R:3:Z:I:1 energy=-325.09839089317956 field_type=dipole dipole="0.000000 0.000000 0.000000" charge=0
C	-1.844018	-0.453233	-0.153067	6
C	-0.316688	-0.334323	-0.086197	6
C	0.213022	-1.268313	1.007913	6
C	0.275672	-0.687153	-1.455387	6
O	-0.048558	1.041137	0.244333	8
N	1.332612	1.277077	0.339093	7
C	1.517172	2.518747	0.630443	6
H	-2.255868	0.231697	-0.903437	1
H	-2.299028	-0.172593	0.803973	1
H	-2.161988	-1.471093	-0.402117	1
H	-0.161628	-0.965973	1.992503	1
H	1.306712	-1.237873	1.066393	1
H	-0.083298	-2.306943	0.825953	1
H	-0.058618	0.024487	-2.219046	1
H	-0.013118	-1.696143	-1.768887	1
H	1.370362	-0.641033	-1.442807	1
H	2.539302	2.908677	0.750413	1
H	0.687952	3.232857	0.769923	1
Es	-0.048231	1.040772	0.244257	99
Es	1.332049	1.277335	0.339136	99
Es	-0.317158	-0.334094	-0.086155	99
Es	1.517260	2.518985	0.630501	99
Es	-1.843406	-0.453126	-0.153026	99
Es	0.275387	-0.686965	-1.454694	99
Es	0.212766	-1.267831	1.007361	99
Es	-0.270318	1.252177	0.288940	99
Es	1.379497	1.869674	0.476448	99
Es	-0.039817	-0.807261	0.462500	99
Es	-2.138155	-0.265178	0.508685	99
Es	-0.048476	-1.053664	1.672747	99
Es	2.205904	2.759722	0.706344	99
Es	0.558900	1.141079	0.284853	99
Es	0.041343	-0.197206	-1.966789	99
Es	-0.089016	0.558747	0.129983	99
Es	-0.010856	1.032056	0.241934	99
Es	0.954721	2.978717	0.719480	99
Es	1.009707	-0.661024	-1.440927	99
Es	-2.108235	0.014742	-0.673635	99
Es	-2.037152	-1.150624	-0.323058	99
Es	0.004081	-1.971774	0.878300	99
Es	0.071560	-1.373304	-1.662487	99
Es	0.946635	-1.249589	1.039622	99
Es	-1.103312	-0.390656	-0.119525	99
Es	-0.008352	-0.515497	-0.774331	99
Es	1.566280	0.970744	0.275409	99
Es	1.427310	1.823885	0.468155	99
