45
Properties=species:S:1:pos:R:3:Z:I:1 energy=-341.11783655970896 field_type=dipole dipole="0.000000 0.000000 0.000000" charge=0
C	-1.244502	-1.595176	1.047403	6
C	-0.710472	-1.263976	-0.333707	6
C	0.173428	-0.031746	-0.300637	6
C	-0.500011	1.314664	-0.047667	6
O	-0.225232	2.216884	-1.105997	8
N	1.455058	-0.192896	-0.491697	7
N	2.216578	0.924544	-0.449917	7
H	-1.829712	-2.518936	1.017003	1
H	-1.891662	-0.797686	1.425153	1
H	-0.427242	-1.727186	1.764183	1
H	-1.536242	-1.082576	-1.030427	1
H	-0.132122	-2.112166	-0.717837	1
H	-0.130932	1.735734	0.892633	1
H	-1.583242	1.193824	0.026363	1
H	0.739478	2.109214	-1.258677	1
H	3.094188	0.737014	-0.948067	1
H	2.532638	1.090464	0.511893	1
Es	-0.224701	2.216728	-1.105761	99
Es	2.216639	0.923966	-0.449712	99
Es	1.455586	-0.192543	-0.491686	99
Es	-0.499544	1.314609	-0.047803	99
Es	0.173435	-0.031924	-0.300648	99
Es	-0.710433	-1.263757	-0.333652	99
Es	-1.244203	-1.594964	1.046659	99
Es	-0.439268	2.389118	-1.247034	99
Es	1.833983	0.400658	-0.436628	99
Es	0.882800	-0.053763	-0.456594	99
Es	-1.644633	-2.221880	1.028849	99
Es	-0.158596	0.615316	-0.171521	99
Es	-0.333226	-1.826970	-0.585622	99
Es	0.239782	2.143226	-1.160679	99
Es	2.383733	0.965614	0.088033	99
Es	2.717216	0.773557	-0.700274	99
Es	-0.238191	1.588056	0.595809	99
Es	-0.287023	1.864661	-0.720989	99
Es	-1.675118	-1.052546	1.297040	99
Es	-0.202447	2.200911	-1.077530	99
Es	2.006963	1.257134	-0.598418	99
Es	-1.228444	1.224026	0.007401	99
Es	-0.965383	-1.402109	0.347207	99
Es	-0.695192	-1.676864	1.527624	99
Es	-1.265503	-1.127965	-0.797780	99
Es	-0.239356	-0.640421	-0.319473	99
Es	1.616275	-0.543618	-0.571440	99
Es	0.978426	-0.130121	-0.349980	99
