41
Properties=species:S:1:pos:R:3:Z:I:1 energy=-359.7728702587189 field_type=dipole dipole="0.000000 0.000000 0.000000" charge=0
C	-0.691023	-1.747881	0.052340	6
C	0.579917	-0.961581	-0.211240	6
C	0.310877	0.523509	-0.136110	6
C	0.384367	1.165669	1.233940	6
O	0.583067	0.492029	2.233840	8
N	0.003247	1.170609	-1.222720	7
O	-0.237373	2.526559	-0.985770	8
H	-0.494983	-2.822241	-0.013310	1
H	-1.466123	-1.495891	-0.678790	1
H	-1.092013	-1.532951	1.047840	1
H	0.961287	-1.200631	-1.210670	1
H	1.359627	-1.235051	0.507090	1
H	0.257177	2.257489	1.261300	1
H	-0.458053	2.860359	-1.877740	1
Es	-0.237483	2.526549	-0.986313	99
Es	0.583003	0.491434	2.232902	99
Es	0.003154	1.170767	-1.222739	99
Es	0.384192	1.166641	1.233615	99
Es	0.310846	0.523615	-0.136095	99
Es	0.579825	-0.961209	-0.211197	99
Es	-0.690449	-1.747393	0.052242	99
Es	-0.210966	2.659660	-0.703071	99
Es	0.620410	0.506535	2.527071	99
Es	-0.017945	1.030125	-1.585254	99
Es	0.828091	-1.117096	-0.878426	99
Es	0.297651	1.886048	1.225743	99
Es	-0.957137	-1.598417	0.714571	99
Es	0.341423	0.864219	0.558364	99
Es	-0.136947	1.961327	-1.067380	99
Es	-0.346658	2.660935	-1.453234	99
Es	0.483752	0.751412	1.832119	99
Es	0.032027	0.868817	-0.691432	99
Es	0.440792	-0.184292	-0.183304	99
Es	1.096283	-1.137607	0.264226	99
Es	0.531761	0.704203	1.900894	99
Es	-0.037613	-1.322468	-0.078279	99
Es	-0.555353	-2.477817	0.009887	99
Es	0.582947	0.364431	2.099903	99
Es	-1.211289	-1.573290	-0.440875	99
Es	0.240346	0.956152	-0.734054	99
Es	-0.233680	2.482313	-1.002123	99
