45
Properties=species:S:1:pos:R:3:Z:I:1 energy=-288.11463554645337 field_type=dipole dipole="0.000000 0.000000 0.000000" charge=0
C	2.034908	0.186307	-0.654106	6
N	1.951318	-0.033483	0.782954	7
C	0.695698	0.052717	0.035194	6
C	-0.187962	1.256107	0.249404	6
C	-1.592992	0.740547	-0.070836	6
C	-1.537232	-0.732063	0.321314	6
C	-0.154312	-1.175873	-0.156956	6
H	2.368528	1.170117	-0.961266	1
H	2.408728	-0.637183	-1.249756	1
H	2.176168	-1.001223	1.019444	1
H	-0.138842	1.586907	1.293314	1
H	0.076448	2.099207	-0.396866	1
H	-2.369922	1.291547	0.466624	1
H	-1.789492	0.831147	-1.145946	1
H	-2.342082	-1.320223	-0.128196	1
H	-1.606162	-0.829423	1.411664	1
H	-0.191842	-1.438873	-1.220446	1
H	0.199038	-2.046263	0.404464	1
Es	1.951358	-0.034064	0.782364	99
Es	0.695968	0.053550	0.035306	99
Es	2.034699	0.186061	-0.653188	99
Es	-0.154417	-1.175862	-0.156376	99
Es	-1.536730	-0.731754	0.320714	99
Es	-1.592494	0.740230	-0.070227	99
Es	-0.188008	1.255665	0.248969	99
Es	2.048682	0.023409	0.129327	99
Es	-1.577357	-0.796930	1.059851	99
Es	-0.179153	-1.342151	-0.885477	99
Es	1.286151	0.164339	-0.518686	99
Es	2.261145	-0.354688	-1.057525	99
Es	-1.720439	0.799457	-0.804296	99
Es	-0.870775	1.009888	0.077765	99
Es	0.297068	-0.575199	-0.048134	99
Es	0.101659	-1.760251	0.221468	99
Es	2.241890	0.837837	-0.860355	99
Es	0.012889	1.814812	-0.192854	99
Es	-2.120018	1.116696	0.290361	99
Es	-0.152597	1.466134	0.960393	99
Es	0.275390	0.663134	0.154796	99
Es	-1.600142	-0.014716	0.133552	99
Es	-2.083427	-1.135495	0.019973	99
Es	-0.829105	-0.964826	0.078448	99
Es	2.011744	0.240831	1.047989	99
Es	2.043436	-0.603776	0.873886	99
Es	1.433125	-0.047380	0.588279	99
