42
Properties=species:S:1:pos:R:3:Z:I:1 energy=-340.02064640709904 field_type=dipole dipole="0.000000 0.000000 0.000000" charge=0
C	-1.371168	-0.440699	-1.006431	6
C	-0.890878	-0.407269	0.433269	6
C	0.113372	0.701421	0.635579	6
N	-0.219958	1.864271	1.074949	7
N	1.428202	0.537261	0.326849	7
C	2.094012	-0.556719	-0.168781	6
O	3.299043	-0.570219	-0.384431	8
H	-2.089447	-1.254049	-1.149631	1
H	-0.541748	-0.588919	-1.705061	1
H	-1.864118	0.500491	-1.273601	1
H	-0.448308	-1.369049	0.708959	1
H	-1.742648	-0.245069	1.102779	1
H	-1.227538	1.909641	1.265099	1
H	2.004773	1.350121	0.500869	1
H	1.456402	-1.431209	-0.360421	1
Es	3.298849	-0.569927	-0.384288	99
Es	1.428158	0.537218	0.326861	99
Es	-0.219547	1.865096	1.075108	99
Es	2.092358	-0.557800	-0.168742	99
Es	0.113865	0.701206	0.635448	99
Es	-0.890530	-0.407068	0.433252	99
Es	-1.370872	-0.440651	-1.005695	99
Es	3.568595	-0.616094	-0.441742	99
Es	0.837713	0.579190	0.453196	99
Es	-0.798109	1.826762	1.160675	99
Es	-1.698428	0.190814	-1.181665	99
Es	-0.584153	-1.052160	0.606700	99
Es	1.644459	-1.124669	-0.284654	99
Es	1.749994	1.005708	0.424768	99
Es	1.709427	0.032927	0.106777	99
Es	-0.075711	1.313897	0.912411	99
Es	-0.352866	0.144059	0.539861	99
Es	-0.807935	-0.538335	-1.466748	99
Es	2.790207	-0.544543	-0.273517	99
Es	1.402854	0.453499	0.298065	99
Es	-1.106918	-0.410586	-0.256884	99
Es	-1.852366	-0.993824	-1.102688	99
Es	-1.454283	-0.295216	0.879745	99
Es	2.978420	-0.562830	-0.346900	99
Es	3.225745	-0.537286	-0.359972	99
Es	0.005767	2.181729	1.126874	99
Es	-0.141470	1.466123	0.894189	99
