45
Properties=species:S:1:pos:R:3:Z:I:1 energy=-341.1035865499874 field_type=dipole dipole="0.000000 0.000000 0.000000" charge=0
C	-1.418016	-0.825686	0.430439	6
C	0.094654	-0.687456	0.276079	6
C	0.626054	-1.605476	-0.822941	6
N	0.467514	0.701854	-0.003501	7
O	-0.048877	1.211634	-1.201961	8
C	0.586984	1.643664	0.986419	6
N	0.462184	2.919284	0.855149	7
H	-1.791166	-0.175226	1.228739	1
H	-1.689256	-1.856776	0.681499	1
H	-1.945066	-0.554506	-0.491311	1
H	0.566984	-0.996176	1.217159	1
H	0.177124	-1.376976	-1.795561	1
H	0.409554	-2.653676	-0.590501	1
H	1.711733	-1.498916	-0.925311	1
H	0.758714	1.453324	-1.694870	1
H	0.830924	1.215774	1.973409	1
H	0.199964	3.085334	-0.122941	1
Es	-0.048239	1.211714	-1.201993	99
Es	0.467336	0.701947	-0.003584	99
Es	0.462324	2.920039	0.855514	99
Es	0.587201	1.642995	0.987062	99
Es	0.094694	-0.687198	0.275835	99
Es	0.625769	-1.604911	-0.822436	99
Es	-1.417256	-0.825576	0.430316	99
Es	-0.345982	1.224829	-1.236589	99
Es	0.537072	2.313419	0.851312	99
Es	0.241440	0.165103	0.124005	99
Es	0.445668	1.133229	0.467309	99
Es	-1.594144	-1.527207	0.597548	99
Es	0.319411	-1.443041	-1.466055	99
Es	0.740795	1.330232	1.621120	99
Es	0.387244	1.322366	-1.430119	99
Es	0.414595	-0.859217	0.905866	99
Es	0.163239	1.009518	-0.711890	99
Es	-0.663913	-0.758067	0.350286	99
Es	-1.664948	-0.377480	0.977369	99
Es	0.320853	2.962740	0.305637	99
Es	-0.015417	1.212557	-1.192211	99
Es	-1.758167	-0.645942	-0.189755	99
Es	1.361687	-1.526284	-0.891433	99
Es	0.470380	-2.313228	-0.651572	99
Es	0.367973	-1.139455	-0.277587	99
Es	0.464803	2.463509	0.892583	99
Es	0.523624	3.199118	1.104671	99
Es	0.787943	0.702337	-0.010838	99
