45
Properties=species:S:1:pos:R:3:Z:I:1 energy=-341.1872404585062 field_type=dipole dipole="0.000000 0.000000 0.000000" charge=0
C	-2.465627	-1.240102	-0.160240	6
C	-0.968057	-1.243172	0.088150	6
C	-0.368507	0.151278	-0.045750	6
O	1.045783	0.051018	0.194140	8
C	1.817873	1.152818	0.156820	6
N	3.101053	0.868828	0.443310	7
N	1.425933	2.335948	-0.140480	7
H	-2.867907	-2.253482	-0.065780	1
H	-2.695377	-0.875982	-1.166620	1
H	-2.981657	-0.600732	0.562920	1
H	-0.475147	-1.924032	-0.616240	1
H	-0.756747	-1.640092	1.088400	1
H	-0.814857	0.827258	0.692120	1
H	-0.537117	0.537108	-1.057180	1
H	3.371523	-0.083932	0.245890	1
H	3.742143	1.577368	0.110760	1
H	0.426693	2.359898	-0.330220	1
Es	1.045578	0.051511	0.194046	99
Es	3.101175	0.869644	0.453226	99
Es	1.426176	2.336567	-0.140677	99
Es	1.817827	1.152518	0.156865	99
Es	-0.368416	0.150733	-0.045688	99
Es	-0.968077	-1.242981	0.088119	99
Es	-2.464851	-1.240000	-0.160127	99
Es	1.169307	-0.257372	0.263759	99
Es	2.561029	0.974824	0.259649	99
Es	1.555854	1.778954	-0.004051	99
Es	-0.671695	-0.534317	0.019172	99
Es	-2.616928	-0.988332	-0.836254	99
Es	-0.823621	-1.500635	0.765934	99
Es	-0.665152	0.617863	0.449704	99
Es	3.222698	0.360231	0.254757	99
Es	-0.478070	0.422515	-0.729603	99
Es	3.422124	1.235893	0.196928	99
Es	0.859476	2.281605	-0.227511	99
Es	-0.630859	-1.694550	-0.393146	99
Es	-2.740146	-1.931588	-0.095758	99
Es	-2.809148	-0.803353	0.323809	99
Es	0.556322	0.140961	0.106747	99
Es	-1.711363	-1.227731	-0.037513	99
Es	3.092855	0.900188	0.788397	99
Es	1.295679	0.510381	0.168857	99
Es	1.068522	0.120995	0.176153	99
Es	1.642868	2.655131	-0.161680	99
Es	1.503973	1.995681	-0.071485	99
