44
Properties=species:S:1:pos:R:3:Z:I:1 energy=-360.94849485537554 field_type=dipole dipole="0.000000 0.000000 0.000000" charge=0
C	-1.450796	-0.752616	-0.008706	6
C	0.039574	-0.610586	-0.295176	6
C	0.460494	-1.525836	-1.438696	6
O	0.318894	0.742294	-0.709826	8
C	0.579844	1.663784	0.246314	6
N	0.604264	1.413074	1.509174	7
O	0.911574	2.592334	2.200004	8
H	-1.755096	-0.092526	0.809784	1
H	-1.705086	-1.781066	0.264994	1
H	-2.046316	-0.464186	-0.881816	1
H	0.627004	-0.875596	0.591884	1
H	-0.071506	-1.273106	-2.362496	1
H	0.269914	-2.576216	-1.198706	1
H	1.528744	-1.404346	-1.647966	1
H	0.769634	2.649514	-0.208196	1
H	0.918854	2.295074	3.129434	1
Es	0.318869	0.742091	-0.709266	99
Es	0.911560	2.592054	2.200455	99
Es	0.604336	1.413523	1.509003	99
Es	0.580017	1.665033	0.245268	99
Es	0.039728	-0.610530	-0.295320	99
Es	0.460285	-1.525371	-1.438200	99
Es	-1.450074	-0.752490	-0.008826	99
Es	0.345681	0.803970	-1.033033	99
Es	0.955451	2.855644	2.043250	99
Es	0.567809	1.551634	0.915341	99
Es	0.250288	-1.068725	-0.881136	99
Es	-1.652307	-0.306490	0.543346	99
Es	0.412757	1.063215	-0.283002	99
Es	0.439593	-0.778402	0.299957	99
Es	0.701171	2.307073	-0.043332	99
Es	0.785434	2.117904	1.907390	99
Es	0.294765	0.782329	-0.633771	99
Es	0.907324	2.407665	2.673454	99
Es	0.238928	0.296137	-0.516484	99
Es	0.908350	2.560542	2.204870	99
Es	-1.843142	-0.560669	-0.605732	99
Es	0.090416	-1.349783	-2.052865	99
Es	0.318266	-2.231004	-1.256264	99
Es	-1.611880	-1.457339	0.174442	99
Es	1.187979	-1.442124	-1.574294	99
Es	-0.709693	-0.679309	-0.147137	99
Es	0.549850	1.078442	1.711270	99
Es	0.618870	1.497208	1.051386	99
