44
Properties=species:S:1:pos:R:3:Z:I:1 energy=-360.963165975262 field_type=dipole dipole="0.000000 0.000000 0.000000" charge=0
C	-0.345892	-0.580164	1.312754	6
C	0.685458	-0.055864	0.319164	6
C	1.833728	-1.046304	0.167004	6
O	0.089858	0.102396	-0.977396	8
N	-0.653052	1.306436	-1.002426	7
C	-1.977892	1.138676	-1.292586	6
O	-2.707892	2.039696	-1.681376	8
H	-1.139822	0.156636	1.473554	1
H	0.112038	-0.801304	2.281664	1
H	-0.829582	-1.487034	0.933744	1
H	1.093288	0.903296	0.663154	1
H	1.475418	-2.006484	-0.220906	1
H	2.339968	-1.219904	1.121484	1
H	2.568138	-0.670794	-0.553836	1
H	-0.205712	2.108566	-1.433036	1
H	-2.338052	0.112146	-1.110956	1
Es	0.089892	0.102689	-0.976959	99
Es	-2.707617	2.039588	-1.681298	99
Es	-0.652927	1.306151	-1.002641	99
Es	-1.978048	1.137470	-1.292339	99
Es	0.685406	-0.055800	0.318977	99
Es	1.833145	-1.045841	0.167030	99
Es	-0.345397	-0.579904	1.312269	99
Es	0.215692	-0.015239	-1.248633	99
Es	-2.918926	2.204378	-1.767253	99
Es	-1.227468	1.206270	-1.202122	99
Es	2.332991	-0.786135	-0.318502	99
Es	-0.882560	-0.082794	1.413210	99
Es	-2.194321	0.449376	-1.169737	99
Es	0.956139	0.601619	0.543968	99
Es	-0.258880	0.654313	-0.993994	99
Es	-0.408756	1.719831	-1.304710	99
Es	0.283887	0.086916	-0.504185	99
Es	0.164989	-0.317211	0.821406	99
Es	-2.380895	1.673685	-1.516897	99
Es	-0.030273	-0.729262	1.969941	99
Es	2.159950	-1.153531	0.821300	99
Es	1.580746	-1.689819	-0.087523	99
Es	-2.527789	1.808632	-1.580759	99
Es	-0.660167	-1.189946	1.050354	99
Es	1.258107	-0.553972	0.234462	99
Es	-0.013761	0.044766	-0.924621	99
Es	-2.615225	2.017105	-1.656951	99
Es	-0.734710	1.399684	-0.683829	99
