43
Properties=species:S:1:pos:R:3:Z:I:1 energy=-323.99482451415014 field_type=dipole dipole="0.000000 0.000000 0.000000" charge=0
C	0.088493	-1.655952	1.138911	6
C	-0.545737	-1.312352	-0.198879	6
N	-0.284777	0.035818	-0.633259	7
C	-0.711387	1.276358	0.018021	6
C	0.500913	1.952578	-0.653309	6
C	0.945283	0.513518	-0.972859	6
O	1.964623	-0.042832	-1.301709	8
H	-0.128547	-2.694982	1.405191	1
H	-0.296557	-1.013782	1.937391	1
H	1.176203	-1.533402	1.106791	1
H	-1.631967	-1.439922	-0.148399	1
H	-0.156997	-1.990672	-0.966709	1
H	-0.676697	1.235318	1.110121	1
H	-1.688927	1.626428	-0.321459	1
H	0.279343	2.549958	-1.541129	1
H	1.166733	2.493918	0.021291	1
Es	1.964241	-0.043060	-1.301539	99
Es	-0.284576	0.035877	-0.632988	99
Es	0.945151	0.513475	-0.972791	99
Es	-0.710626	1.275877	0.017328	99
Es	-0.545531	-1.312009	-0.198757	99
Es	0.500759	1.952027	-0.653310	99
Es	0.088346	-1.655761	1.138508	99
Es	2.233588	-0.027838	-1.406705	99
Es	0.298975	0.207875	-0.738624	99
Es	-0.222663	-1.469756	0.471727	99
Es	-0.129412	1.687043	-0.290264	99
Es	-0.464560	0.503898	-0.300898	99
Es	-0.344190	-0.494796	-0.397765	99
Es	-0.286706	-1.762817	-0.714452	99
Es	-0.683216	1.238541	0.758665	99
Es	0.792528	1.251810	-0.856784	99
Es	1.530042	0.163472	-1.166610	99
Es	-1.286125	-1.392788	-0.159731	99
Es	-0.061517	-2.362069	1.324465	99
Es	0.935012	2.303683	-0.208149	99
Es	0.351539	2.346850	-1.227805	99
Es	-1.385243	1.511112	-0.209227	99
Es	1.726559	0.092299	-1.195974	99
Es	0.808453	-1.567468	1.116806	99
Es	-0.171932	-1.214232	1.671893	99
Es	1.846812	-0.121910	-1.267748	99
Es	-0.384084	0.108377	-0.935435	99
