44
Properties=species:S:1:pos:R:3:Z:I:1 energy=-304.062548621726 field_type=dipole dipole="0.000000 0.000000 0.000000" charge=0
C	-0.177872	-0.464752	-0.344247	6
C	-0.605632	-0.403262	1.094623	6
C	-1.937842	0.192518	1.468853	6
N	-1.711352	-1.248082	1.558843	7
N	0.613118	0.739778	-0.630237	7
C	2.042048	0.483128	-0.800277	6
C	1.156728	0.748798	-1.987047	6
H	0.374898	-1.398012	-0.511857	1
H	-1.054572	-0.486682	-1.003777	1
H	0.227708	-0.295262	1.778783	1
H	-2.601613	0.521338	0.678513	1
H	-2.016442	0.736748	2.401343	1
H	-1.564542	-1.528742	2.530313	1
H	2.420778	-0.520752	-0.651027	1
H	2.705117	1.275628	-0.474067	1
H	1.217588	1.721097	-2.460607	1
H	0.911888	-0.073482	-2.648127	1
Es	0.613343	0.738758	-0.630530	99
Es	-1.711168	-1.247715	1.559338	99
Es	2.041337	0.483307	-0.800435	99
Es	-0.606143	-0.403461	1.094680	99
Es	1.156615	0.748734	-1.986289	99
Es	-0.177976	-0.464426	-0.343504	99
Es	-1.937483	0.191933	1.468822	99
Es	0.755930	0.725437	-1.275045	99
Es	-1.867398	-1.492425	1.298697	99
Es	0.319551	0.189225	-0.537839	99
Es	-1.212411	0.108886	1.212433	99
Es	2.281618	-0.201977	-0.689184	99
Es	0.977364	0.187436	-2.424173	99
Es	-0.035325	-0.348216	1.550241	99
Es	-1.981671	0.562274	2.108905	99
Es	1.196530	1.409759	-2.304997	99
Es	0.213137	-1.088500	-0.464884	99
Es	-2.391381	0.401531	0.937658	99
Es	-0.758080	-0.478470	-0.790127	99
Es	2.487420	1.015715	-0.568160	99
Es	-0.426673	-0.450305	0.410191	99
Es	-1.220231	-1.001036	1.393111	99
Es	-1.592937	-1.361254	2.127393	99
Es	1.747253	0.597861	-1.514478	99
Es	1.240071	0.579404	-0.594723	99
Es	-1.858542	-0.616748	1.578537	99
Es	0.498428	1.072364	-0.473053	99
