45
Properties=species:S:1:pos:R:3:Z:I:1 energy=-341.2036980298435 field_type=dipole dipole="0.000000 0.000000 0.000000" charge=0
C	-0.553877	-1.655852	1.205143	6
C	-0.520497	-1.202992	-0.247097	6
N	-0.051957	0.173118	-0.398827	7
C	-1.026977	1.223058	-0.131037	6
C	1.308763	0.376148	-0.473297	6
N	1.716863	1.661718	-0.602567	7
O	2.152053	-0.513602	-0.430487	8
H	-0.880018	-2.698592	1.268793	1
H	-1.248007	-1.048312	1.794163	1
H	0.434833	-1.577412	1.668293	1
H	-1.517327	-1.282442	-0.695007	1
H	0.138443	-1.871052	-0.813837	1
H	-1.920447	1.041038	-0.735527	1
H	-0.650597	2.221117	-0.361237	1
H	-1.292057	1.195428	0.929923	1
H	1.191483	2.230768	-1.248217	1
H	2.719323	1.727867	-0.729177	1
Es	2.151528	-0.513869	-0.430392	99
Es	-0.052031	0.173116	-0.398621	99
Es	1.714307	1.666565	-0.591409	99
Es	1.308298	0.376280	-0.473247	99
Es	-1.026611	1.222722	-0.131129	99
Es	-0.520312	-1.202668	-0.246979	99
Es	-0.553856	-1.655607	1.204553	99
Es	2.405814	-0.631897	-0.454594	99
Es	-0.243515	-0.409127	-0.286006	99
Es	2.262824	1.660298	-0.730886	99
Es	0.102935	-1.599916	1.514238	99
Es	-0.761492	1.892151	-0.296706	99
Es	-0.085258	-1.640900	-0.632720	99
Es	0.538214	0.277100	-0.395107	99
Es	1.438314	1.919856	-1.006575	99
Es	-0.444327	0.644459	-0.262342	99
Es	-1.634010	1.085715	-0.543089	99
Es	1.529707	1.118483	-0.612791	99
Es	-1.025576	-1.237446	1.600415	99
Es	1.974671	-0.330772	-0.444924	99
Es	1.797789	-0.148925	-0.428968	99
Es	-1.202738	1.200879	0.591002	99
Es	-0.531021	-1.417178	0.486170	99
Es	-0.781564	-2.366065	1.246094	99
Es	-1.207471	-1.237062	-0.545400	99
Es	2.032063	-0.537322	-0.411093	99
Es	1.638595	1.785833	-0.286970	99
Es	0.033439	0.193124	-0.579244	99
