39
Properties=species:S:1:pos:R:3:Z:I:1 energy=-338.84075322489457 field_type=dipole dipole="0.000000 0.000000 0.000000" charge=0
C	-0.884553	-1.426163	-0.652364	6
C	0.511167	-0.942223	-0.302884	6
N	0.562867	0.498867	-0.180894	7
C	0.222957	1.148367	0.990716	6
O	-0.106883	0.570457	2.020566	8
C	0.269277	2.607017	0.950366	6
N	0.322417	3.765477	0.858876	7
H	-0.894723	-2.515013	-0.760864	1
H	-1.227043	-0.983613	-1.593724	1
H	-1.604903	-1.152623	0.125546	1
H	1.217667	-1.227783	-1.088484	1
H	0.840937	-1.395713	0.637836	1
H	0.770817	1.052947	-1.004694	1
Es	-0.106718	0.569824	2.019833	99
Es	0.562889	0.498909	-0.180884	99
Es	0.322493	3.766876	0.858775	99
Es	0.223041	1.148653	0.990424	99
Es	0.269175	2.605113	0.950547	99
Es	0.511052	-0.941733	-0.302809	99
Es	-0.884072	-1.425868	-0.652203	99
Es	0.042022	0.825509	1.592411	99
Es	0.393705	0.815331	0.316327	99
Es	0.277661	3.226443	0.926531	99
Es	-1.359267	-1.239266	-0.134158	99
Es	0.247456	1.911150	0.956413	99
Es	0.735551	-1.236388	0.325846	99
Es	0.646790	0.827786	-0.648760	99
Es	0.504181	-0.094094	-0.237655	99
Es	-0.188870	0.547158	2.292924	99
Es	-0.026280	0.734952	1.753408	99
Es	0.988796	-1.123157	-0.840266	99
Es	0.343107	4.092401	0.820455	99
Es	-0.186165	-1.171856	-0.472370	99
Es	-0.888246	-2.164006	-0.725440	99
Es	-1.111249	-1.119847	-1.290879	99
Es	0.304804	3.241721	0.876861	99
Es	0.307141	3.186035	0.902437	99
Es	-0.076141	0.502438	1.904962	99
Es	0.639995	0.585736	-0.034707	99
