41
Properties=species:S:1:pos:R:3:Z:I:1 energy=-359.8575284792324 field_type=dipole dipole="0.000000 0.000000 0.000000" charge=0
C	-0.451188	-1.991179	0.034695	6
C	0.683562	-1.018909	0.291545	6
N	0.189602	0.332071	0.427305	7
C	0.284842	1.272481	-0.571035	6
O	0.831532	1.137161	-1.653895	8
C	-0.365848	2.599651	-0.228985	6
O	-1.051648	2.721591	0.777295	8
H	-0.067438	-3.011049	-0.063345	1
H	-0.990868	-1.735309	-0.884245	1
H	-1.173278	-1.975029	0.859165	1
H	1.411202	-1.067769	-0.523785	1
H	1.193752	-1.272879	1.224665	1
H	-0.337828	0.600042	1.256115	1
H	-0.156398	3.409122	-0.945495	1
Es	-1.051356	2.721210	0.777042	99
Es	0.831500	1.136774	-1.653593	99
Es	0.189587	0.332037	0.427300	99
Es	0.284740	1.272393	-0.570778	99
Es	-0.365537	2.599775	-0.229500	99
Es	0.683229	-1.018441	0.291504	99
Es	-0.450832	-1.990829	0.034786	99
Es	-1.217102	2.900424	0.943454	99
Es	0.933443	1.213490	-1.899452	99
Es	0.193245	0.717285	-0.034465	99
Es	-0.812843	-1.816531	-0.583015	99
Es	-0.213500	3.116540	-0.713885	99
Es	1.019146	-1.184594	0.927728	99
Es	-0.134367	0.477614	0.874909	99
Es	-0.055899	1.954407	-0.380624	99
Es	-0.996733	2.551345	0.780872	99
Es	0.346344	-0.243866	0.358681	99
Es	0.612429	1.171932	-1.208452	99
Es	0.678174	1.184715	-1.383430	99
Es	-0.938392	-1.974788	0.599641	99
Es	0.112079	-1.494810	0.158105	99
Es	-0.186739	-2.682109	-0.029738	99
Es	-0.832546	2.670151	0.450862	99
Es	-0.773271	2.673796	0.374805	99
Es	1.172020	-1.040864	-0.248903	99
Es	0.823529	1.058974	-1.575451	99
Es	0.328719	0.488660	0.387284	99
