39
Properties=species:S:1:pos:R:3:Z:I:1 energy=-338.7655582941981 field_type=dipole dipole="0.000000 0.000000 0.000000" charge=0
C	-0.623904	-2.092331	0.579731	6
C	-1.005584	-0.811191	0.490311	6
N	-0.197774	0.244628	0.096021	7
C	-0.690294	1.558428	0.095681	6
O	-0.088564	2.606478	-0.116089	8
N	1.127456	-0.066732	-0.140289	7
C	1.838716	0.717588	-0.876579	6
H	-1.322804	-2.858032	0.897111	1
H	0.387566	-2.407542	0.344651	1
H	-2.032404	-0.556651	0.739371	1
H	-1.766794	1.586879	0.336641	1
H	2.902496	0.475419	-1.029259	1
H	1.471886	1.603059	-1.417299	1
Es	-0.088394	2.606073	-0.116135	99
Es	-0.197544	0.244483	0.095909	99
Es	1.198406	-0.393060	0.057056	99
Es	-0.691171	1.557796	0.095859	99
Es	1.838700	0.718213	-0.876948	99
Es	-1.005462	-0.810751	0.490224	99
Es	-0.623797	-2.092049	0.579585	99
Es	-0.043807	2.883983	-0.138528	99
Es	0.487532	0.137766	-0.042962	99
Es	1.575543	1.280813	-1.216951	99
Es	-0.786502	-1.439492	0.511184	99
Es	-1.409161	1.539125	0.259383	99
Es	-0.533137	-0.245629	0.277739	99
Es	1.405236	0.339760	-0.532148	99
Es	-1.684265	-0.602251	0.650619	99
Es	-0.393206	0.835339	0.090388	99
Es	-0.262079	0.310097	0.049500	99
Es	-0.316024	2.145160	-0.055321	99
Es	0.047545	-2.303193	0.413377	99
Es	2.535393	0.538319	-0.965525	99
Es	-1.109526	-2.573226	0.793061	99
Es	-0.235558	2.337511	-0.050825	99
Es	-0.047647	2.495840	-0.119389	99
Es	1.400847	0.266504	-0.412846	99
Es	1.126687	-0.066253	-0.140522	99
Es	-0.817355	-1.493609	0.558748	99
