42
Properties=species:S:1:pos:R:3:Z:I:1 energy=-339.90055098998045 field_type=dipole dipole="0.000000 0.000000 0.000000" charge=0
C	-1.343921	-0.128187	-0.406601	6
C	0.146629	-0.279457	-0.254711	6
N	0.799659	-1.402657	-0.195321	7
N	0.048639	-2.526987	-0.238361	7
C	0.954599	0.960193	-0.195671	6
C	0.577429	2.120933	0.692409	6
O	1.592578	1.192153	1.076159	8
H	-1.612251	0.907963	-0.628561	1
H	-1.834731	-0.430117	0.522909	1
H	-1.705171	-0.755387	-1.226471	1
H	0.666379	-3.330257	-0.384771	1
H	-0.375801	-2.701837	0.676589	1
H	1.543348	1.167183	-1.081061	1
H	-0.352241	2.093183	1.245719	1
H	0.894859	3.113282	0.397749	1
Es	1.592373	1.192509	1.075695	99
Es	0.799859	-1.403112	-0.195311	99
Es	0.049040	-2.526763	-0.238021	99
Es	0.954760	0.960012	-0.195051	99
Es	0.578007	2.120118	0.692302	99
Es	0.146696	-0.279303	-0.254657	99
Es	-1.343573	-0.128331	-0.406512	99
Es	1.748060	1.078249	1.264385	99
Es	0.431583	-2.962324	-0.271664	99
Es	0.472666	-0.906956	-0.244966	99
Es	-0.583756	-0.204937	-0.333715	99
Es	0.576967	1.580957	0.099918	99
Es	0.798911	2.793408	0.490654	99
Es	0.541354	0.355406	-0.212888	99
Es	-0.142612	-2.591896	0.290763	99
Es	1.429921	1.060691	0.668148	99
Es	-1.660089	-0.326899	0.212764	99
Es	0.380338	-1.978751	-0.187561	99
Es	-0.041556	2.092010	1.072105	99
Es	-1.516148	0.567783	-0.550990	99
Es	1.188216	1.574938	0.936219	99
Es	-1.579979	-0.540924	-0.939436	99
Es	-0.233631	-2.484320	-0.520179	99
Es	1.584830	1.233877	1.019959	99
Es	1.348122	1.081055	-0.790487	99
Es	1.193376	-1.431379	-0.182227	99
Es	0.519612	-0.930485	-0.191271	99
