42
Properties=species:S:1:pos:R:3:Z:I:1 energy=-339.9892982315954 field_type=dipole dipole="0.000000 0.000000 0.000000" charge=0
C	-2.622223	-0.008117	0.865512	6
C	-1.364113	-0.719217	0.475112	6
N	-0.319933	-0.052297	0.105672	7
N	0.759166	-0.814047	-0.221478	7
C	1.951567	-0.269317	-0.633438	6
C	2.020247	1.232473	-0.708398	6
O	2.902897	-0.990167	-0.931848	8
H	-2.872793	-0.273997	1.895462	1
H	-3.432593	-0.339187	0.211412	1
H	-2.502423	1.074843	0.783922	1
H	-1.383503	-1.822597	0.522532	1
H	0.718257	-1.826447	-0.176518	1
H	1.354467	1.596223	-1.495018	1
H	3.044507	1.536743	-0.945978	1
H	1.746467	1.675103	0.253052	1
Es	2.902526	-0.990503	-0.931720	99
Es	-0.319201	-0.052971	0.105458	99
Es	0.759009	-0.813882	-0.221401	99
Es	1.951214	-0.269115	-0.633315	99
Es	-1.364363	-0.719066	0.475176	99
Es	-2.621627	-0.008310	0.865322	99
Es	2.019884	1.232273	-0.708254	99
Es	0.189158	-0.468738	-0.047595	99
Es	3.165510	-1.044541	-1.017532	99
Es	-0.793564	-0.431917	0.278171	99
Es	-2.781418	-0.187256	1.543494	99
Es	1.833261	1.515943	-0.080240	99
Es	0.714836	-1.406511	-0.191487	99
Es	1.272824	-0.534250	-0.405436	99
Es	-1.373853	-1.443804	0.503954	99
Es	2.800509	-1.041064	-0.896370	99
Es	1.580519	1.460100	-1.217300	99
Es	-3.151296	-0.230391	0.431794	99
Es	2.479538	-0.706709	-0.796959	99
Es	-1.917874	-0.356307	0.644723	99
Es	-2.547216	0.691337	0.813562	99
Es	0.821092	-0.758253	-0.233519	99
Es	2.690000	1.435212	-0.864335	99
Es	2.675274	-0.814934	-0.862964	99
Es	-0.269567	0.329007	0.073913	99
Es	1.963082	0.445489	-0.659171	99
Es	-0.759390	-0.340369	0.261888	99
