42
Properties=species:S:1:pos:R:3:Z:I:1 energy=-339.94193666695975 field_type=dipole dipole="0.000000 0.000000 0.000000" charge=0
C	-1.788365	-1.678148	-1.337186	6
C	-1.153455	-1.089008	-0.116966	6
N	-0.053335	-0.413068	-0.209456	7
N	0.389415	0.065212	0.978274	7
C	1.660574	0.797292	0.950144	6
C	1.498785	2.063192	0.145264	6
O	1.545694	3.189792	0.634364	8
H	-2.801535	-1.279538	-1.435276	1
H	-1.848875	-2.762718	-1.216816	1
H	-1.211485	-1.438968	-2.234096	1
H	-1.667135	-1.266558	0.845554	1
H	-0.312456	0.640902	1.454894	1
H	2.456904	0.191712	0.506594	1
H	1.958594	1.056512	1.971024	1
H	1.326674	1.923392	-0.936316	1
Es	1.545697	3.189342	0.634343	99
Es	-0.053114	-0.412828	-0.208637	99
Es	0.389018	0.064445	0.978638	99
Es	1.498741	2.062716	0.144899	99
Es	-1.153615	-1.089148	-0.117167	99
Es	1.660235	0.797443	0.949787	99
Es	-1.788078	-1.677948	-1.336743	99
Es	1.555023	3.458939	0.684354	99
Es	0.127614	-0.141837	0.390600	99
Es	0.909627	0.431147	0.898118	99
Es	-1.424347	-1.345803	-0.713970	99
Es	1.596099	1.461077	0.534494	99
Es	-1.494029	-1.201333	0.521647	99
Es	-0.013929	0.421084	1.193458	99
Es	-0.565765	-0.755308	-0.111263	99
Es	1.379739	1.945193	-0.579678	99
Es	2.175749	0.393551	0.647477	99
Es	1.525618	2.734602	0.436806	99
Es	-2.454044	-1.414940	-1.396942	99
Es	1.848032	0.959450	1.627178	99
Es	-1.827539	-2.397266	-1.253828	99
Es	-1.420561	-1.524490	-1.919750	99
Es	0.421510	-0.248852	1.189992	99
Es	1.520337	2.843031	0.487873	99
Es	0.178392	-0.339227	-0.515678	99
Es	1.553931	3.108277	0.671672	99
Es	-0.539643	-0.649357	-0.178932	99
