45
Properties=species:S:1:pos:R:3:Z:I:1 energy=-341.09960518883986 field_type=dipole dipole="0.000000 0.000000 0.000000" charge=0
C	-3.463526	-1.205259	-0.076090	6
C	-1.969256	-1.221779	-0.021620	6
N	-1.293166	-0.122589	-0.063600	7
O	0.074344	-0.432489	0.015670	8
C	0.814314	0.791001	0.060780	6
C	2.303464	0.452761	0.145360	6
N	3.154854	1.642171	0.185080	7
H	-3.794216	-1.812019	-0.923040	1
H	-3.840796	-0.185209	-0.184740	1
H	-3.855266	-1.645669	0.844000	1
H	-1.481346	-2.208939	0.063890	1
H	0.502695	1.370641	0.938280	1
H	0.604954	1.372371	-0.845590	1
H	2.587034	-0.171779	-0.709660	1
H	2.487604	-0.152839	1.039790	1
H	3.035834	2.176561	-0.675430	1
H	4.132464	1.353061	0.206920	1
Es	0.074182	-0.432035	0.015726	99
Es	-1.292659	-0.122767	-0.063549	99
Es	3.154687	1.642572	0.185488	99
Es	-1.969253	-1.222201	-0.021559	99
Es	0.814486	0.790437	0.060779	99
Es	2.303404	0.453342	0.145335	99
Es	-3.462987	-1.205235	-0.076075	99
Es	0.163145	-0.733614	0.100647	99
Es	2.829483	1.155484	0.123853	99
Es	-1.580570	-0.655961	-0.032626	99
Es	-3.714284	-0.543786	-0.146111	99
Es	1.550284	0.618671	0.108272	99
Es	0.677784	1.190199	-0.562549	99
Es	-1.656264	-1.875694	0.037386	99
Es	-0.507154	-0.303501	-0.017038	99
Es	2.433099	0.045708	0.748712	99
Es	0.055193	-0.417039	-0.061935	99
Es	0.310882	0.043961	0.027628	99
Es	3.705677	1.440320	0.150702	99
Es	-3.677071	-1.609306	-0.637121	99
Es	-3.715424	-1.498216	0.531266	99
Es	3.095010	1.904197	-0.340591	99
Es	-2.671567	-1.175869	-0.049201	99
Es	2.489377	0.026637	-0.443143	99
Es	0.601286	1.186782	0.656100	99
Es	-1.391164	0.254454	-0.095408	99
Es	3.059068	1.862605	0.504443	99
Es	-1.581242	-0.570306	-0.056632	99
