39
Properties=species:S:1:pos:R:3:Z:I:1 energy=-338.75825939107335 field_type=dipole dipole="0.000000 0.000000 0.000000" charge=0
C	-2.152756	1.444638	0.687969	6
C	-1.312026	0.351748	0.108949	6
N	-0.024806	0.370608	0.228469	7
O	0.502444	-0.767062	-0.406321	8
C	1.929824	-0.738332	-0.291511	6
C	2.509654	-1.922722	-0.936371	6
N	2.986363	-2.853842	-1.442061	7
H	-2.868836	1.006908	1.388069	1
H	-2.705646	1.930718	-0.119861	1
H	-1.535066	2.181918	1.206379	1
H	-1.840306	-0.459282	-0.422971	1
H	2.203344	-0.717312	0.769389	1
H	2.307814	0.172018	-0.770131	1
Es	0.502765	-0.766741	-0.406106	99
Es	-0.024575	0.370331	0.228319	99
Es	2.987415	-2.855699	-1.443064	99
Es	1.929968	-0.738784	-0.291766	99
Es	-1.312380	0.351522	0.108776	99
Es	2.509248	-1.921851	-0.935898	99
Es	-2.152396	1.444230	0.687756	99
Es	0.311582	-0.978754	-0.553227	99
Es	2.744485	-2.395972	-1.194205	99
Es	-0.622183	0.329796	0.153296	99
Es	-1.754277	1.927334	1.026200	99
Es	2.184499	-0.154852	-0.609850	99
Es	-1.666589	-0.174751	-0.237758	99
Es	0.285878	-0.288155	-0.139367	99
Es	1.062302	-0.731105	-0.345686	99
Es	2.116035	-0.735744	0.395109	99
Es	2.251877	-1.396226	-0.649919	99
Es	-2.513124	1.756972	0.152337	99
Es	-2.621667	1.149135	1.145622	99
Es	3.134031	-3.125530	-1.588990	99
Es	0.509840	-0.743754	-0.384103	99
Es	-1.673061	0.877426	0.391210	99
Es	2.754695	-2.410307	-1.201527	99
Es	0.234131	0.611872	0.395694	99
Es	2.778922	-2.448225	-1.221224	99
Es	-0.535061	0.371832	0.186377	99
