41
Properties=species:S:1:pos:R:3:Z:I:1 energy=-359.7993028903527 field_type=dipole dipole="0.000000 0.000000 0.000000" charge=0
C	-0.846187	2.331046	1.690656	6
C	-0.743497	0.966436	1.086306	6
N	0.122113	0.718126	0.162306	7
O	0.004033	-0.629434	-0.227064	8
C	0.902353	-0.916214	-1.227464	6
C	0.755083	-2.359684	-1.609964	6
O	1.717503	-0.158984	-1.739364	8
H	-0.684347	2.253606	2.769116	1
H	-1.852657	2.720296	1.515406	1
H	-0.108627	3.010256	1.255996	1
H	-1.438567	0.197626	1.465176	1
H	1.103143	-2.994654	-0.792504	1
H	1.358343	-2.561234	-2.499163	1
H	-0.288687	-2.577184	-1.849444	1
Es	0.004408	-0.629115	-0.227318	99
Es	1.717273	-0.159235	-1.739224	99
Es	0.121901	0.717550	0.162290	99
Es	0.902072	-0.916270	-1.227222	99
Es	-0.743786	0.966221	1.086500	99
Es	-0.846121	2.330569	1.690416	99
Es	0.754906	-2.359540	-1.609735	99
Es	-0.223696	-0.812976	-0.090781	99
Es	1.912035	-0.052303	-1.892796	99
Es	-0.301765	0.792948	0.597137	99
Es	0.066764	-2.500344	-1.759121	99
Es	-0.763330	1.608170	1.343342	99
Es	0.049739	-0.084614	-0.067313	99
Es	0.372824	-0.693800	-0.615181	99
Es	-1.198421	0.471149	1.336654	99
Es	0.817050	-1.607487	-1.403619	99
Es	0.070825	-0.623737	-0.274313	99
Es	-1.510832	2.578172	1.573387	99
Es	1.364265	-0.451014	-1.505726	99
Es	-0.740907	2.271092	2.400454	99
Es	0.980411	-2.765595	-1.069900	99
Es	-0.369694	2.774689	1.411147	99
Es	1.149073	-2.493704	-2.188955	99
Es	1.507609	-0.365507	-1.606755	99
Es	0.383879	0.926655	-0.008518	99
Es	1.646285	-0.168897	-1.673552	99
Es	-0.222246	0.817774	0.529060	99
