46
Properties=species:S:1:pos:R:3:Z:I:1 energy=-325.1220050948879 field_type=dipole dipole="0.000000 0.000000 0.000000" charge=0
C	-0.251299	-2.539641	-0.477911	6
N	-0.592679	-1.279772	0.169949	7
C	0.539891	-0.339952	0.182019	6
C	0.736121	0.589149	-0.985321	6
C	0.312261	1.146308	0.343379	6
C	-1.059149	1.713618	0.516799	6
O	1.330701	1.846268	1.077079	8
H	-1.124059	-3.199421	-0.478441	1
H	0.561321	-3.050662	0.048189	1
H	0.044821	-2.379542	-1.519421	1
H	-0.891569	-1.468412	1.127669	1
H	1.439921	-0.724862	0.659289	1
H	0.010041	0.558378	-1.788971	1
H	1.751861	0.765288	-1.316231	1
H	-1.798749	1.226948	-0.128611	1
H	-1.060369	2.781708	0.272959	1
H	-1.386839	1.601788	1.555709	1
H	1.437771	2.752809	0.741869	1
Es	1.330563	1.846644	1.076773	99
Es	-0.592210	-1.279726	0.170492	99
Es	0.312661	1.146200	0.343325	99
Es	0.539354	-0.338988	0.181800	99
Es	-0.251384	-2.539241	-0.477719	99
Es	0.736256	0.589029	-0.984598	99
Es	-1.058627	1.713435	0.516717	99
Es	1.446015	1.739971	1.351586	99
Es	-0.087217	-0.916933	0.204080	99
Es	0.691373	-0.017659	-0.524968	99
Es	-1.048429	2.446389	0.347365	99
Es	0.312160	-2.885708	-0.114211	99
Es	0.257905	0.565225	-1.501080	99
Es	1.142376	-0.600272	0.500274	99
Es	1.354614	2.291666	0.866266	99
Es	-0.720522	-1.404207	0.740603	99
Es	-0.363799	1.411994	0.424122	99
Es	-0.403814	-1.824855	-0.079323	99
Es	-0.851455	-2.992804	-0.477271	99
Es	-0.040029	-2.419775	-1.177479	99
Es	-1.272148	1.629429	1.216846	99
Es	-1.540466	1.385766	0.083803	99
Es	0.955172	1.630606	0.797334	99
Es	1.389670	0.706376	-1.202089	99
Es	1.357465	1.828869	1.007630	99
Es	0.364138	0.370327	0.473541	99
Es	0.524299	1.052534	-0.437333	99
Es	-0.877949	-1.086952	-0.025965	99
