46
Properties=species:S:1:pos:R:3:Z:I:1 energy=-325.11137603068676 field_type=dipole dipole="0.000000 0.000000 0.000000" charge=0
C	-1.751403	-1.530092	-0.139709	6
N	-0.357403	-1.183322	0.108101	7
C	-0.089973	0.257808	-0.018179	6
C	-0.879514	1.108258	0.981891	6
C	1.387587	0.436998	0.221461	6
C	2.364926	0.540478	-0.923089	6
O	1.915077	1.701658	-0.212129	8
H	-1.855833	-2.619582	-0.145909	1
H	-2.096573	-1.155692	-1.109059	1
H	-2.409113	-1.155042	0.650691	1
H	0.220507	-1.680472	-0.569199	1
H	-0.338813	0.585678	-1.036959	1
H	-0.704803	0.778708	2.010461	1
H	-1.954003	1.071818	0.783091	1
H	-0.573533	2.157088	0.917561	1
H	1.728677	0.053548	1.174130	1
H	2.009247	0.412388	-1.936639	1
H	3.384947	0.219768	-0.756509	1
Es	1.914598	1.701363	-0.212572	99
Es	-0.357163	-1.183131	0.107811	99
Es	2.364545	0.540980	-0.922538	99
Es	1.388227	0.437667	0.220988	99
Es	-0.089716	0.257810	-0.018202	99
Es	-1.751018	-1.529966	-0.139643	99
Es	-0.879123	1.107711	0.981330	99
Es	1.667589	1.779937	-0.389574	99
Es	-0.281639	-0.584467	0.012053	99
Es	-0.757936	0.872242	1.667835	99
Es	1.759765	1.385753	-0.068766	99
Es	2.117645	0.461021	-1.611379	99
Es	-1.986219	-1.259850	-0.804671	99
Es	-0.256429	0.476810	-0.706901	99
Es	0.707955	0.359930	0.095340	99
Es	1.577363	0.191928	0.861393	99
Es	-0.046415	-1.439089	-0.328610	99
Es	-0.946358	-1.304642	-0.039137	99
Es	-1.824326	-2.278185	-0.150626	99
Es	-1.612018	1.075629	0.836812	99
Es	2.071242	1.214307	-0.467099	99
Es	-0.665207	1.807517	0.939868	99
Es	-0.484139	0.676179	0.476212	99
Es	-2.190556	-1.262381	0.391648	99
Es	3.055236	0.324123	-0.794802	99
Es	2.141510	1.828886	0.009332	99
Es	1.871601	0.258210	-0.410130	99
Es	-0.243042	-1.285847	0.476805	99
