46
Properties=species:S:1:pos:R:3:Z:I:1 energy=-325.1623844605827 field_type=dipole dipole="0.000000 0.000000 0.000000" charge=0
C	-0.682787	-2.036684	0.543767	6
N	-0.841347	-0.687834	1.071897	7
C	-0.486017	0.345286	0.078947	6
C	-0.921977	1.711346	0.599687	6
C	1.031083	0.364276	-0.151253	6
C	1.495623	0.346796	-1.583593	6
O	1.836573	0.358496	0.782607	8
H	-0.986667	-2.760604	1.305087	1
H	0.354843	-2.253784	0.273177	1
H	-1.320237	-2.193914	-0.331953	1
H	-0.219107	-0.571814	1.877877	1
H	-1.000507	0.147806	-0.868513	1
H	-0.438427	1.954876	1.553327	1
H	-2.006417	1.746026	0.750247	1
H	-0.654007	2.499996	-0.111213	1
H	0.985493	1.130716	-2.147503	1
H	1.281863	-0.632164	-2.019293	1
H	2.572013	0.531176	-1.623303	1
Es	1.836132	0.358508	0.782210	99
Es	-0.840683	-0.687633	1.071633	99
Es	1.031237	0.364290	-0.151079	99
Es	-0.485800	0.345345	0.079189	99
Es	-0.682828	-2.036256	0.543858	99
Es	1.495295	0.346761	-1.583174	99
Es	-0.921721	1.710549	0.599410	99
Es	2.159545	0.359227	0.675702	99
Es	-0.620782	-0.278662	0.647207	99
Es	-0.697536	1.019027	0.330848	99
Es	1.340254	-0.298236	-1.857125	99
Es	0.025817	-2.172558	0.350302	99
Es	0.285270	0.356593	-0.052891	99
Es	-0.822305	0.199427	-0.557058	99
Es	1.270105	0.366431	-0.864488	99
Es	-0.456311	-0.635821	1.490102	99
Es	1.141859	0.863634	-1.952135	99
Es	-0.725675	-1.242230	0.835330	99
Es	1.526732	0.399831	0.447545	99
Es	-0.886201	-2.537886	1.062196	99
Es	2.199856	0.466977	-1.622202	99
Es	-0.724355	2.233276	0.103391	99
Es	-1.654528	1.732034	0.690144	99
Es	-0.590408	1.859719	1.240094	99
Es	-1.105931	-2.126127	-0.061488	99
Es	1.609402	0.332090	0.517562	99
Es	1.622266	0.341471	1.010933	99
Es	-1.219154	-0.608571	1.171940	99
