46
Properties=species:S:1:pos:R:3:Z:I:1 energy=-325.1518002164531 field_type=dipole dipole="0.000000 0.000000 0.000000" charge=0
C	-2.425912	-0.832918	0.812881	6
N	-0.968042	-0.850158	0.743661	7
C	-0.469062	0.395282	0.144801	6
C	1.063768	0.440932	0.096521	6
C	1.679698	-0.660778	-0.763609	6
C	1.530047	1.780892	-0.447339	6
O	0.786278	2.672052	-0.845799	8
H	-2.781162	-1.772468	1.247241	1
H	-2.872082	-0.733228	-0.182309	1
H	-2.783632	-0.018008	1.450181	1
H	-0.684362	-1.644758	0.172191	1
H	-0.826602	1.246332	0.738631	1
H	-0.875813	0.511382	-0.867799	1
H	1.464718	0.364882	1.114971	1
H	1.305838	-0.614428	-1.792659	1
H	1.460837	-1.655088	-0.362649	1
H	2.770188	-0.559718	-0.807439	1
H	2.625298	1.929802	-0.451469	1
Es	0.786241	2.671489	-0.845559	99
Es	-0.967689	-0.850213	0.743410	99
Es	1.530119	1.780226	-0.447018	99
Es	-0.468254	0.394951	0.144889	99
Es	1.064000	0.441326	0.096370	99
Es	-2.425435	-0.832909	0.812855	99
Es	1.679385	-0.660194	-0.763294	99
Es	0.781419	2.942946	-0.956220	99
Es	-0.788268	-0.356523	0.444516	99
Es	1.354195	-0.090858	-0.328217	99
Es	-0.718151	0.959836	0.544049	99
Es	-2.727418	-0.757865	0.127403	99
Es	2.270882	1.837721	-0.433615	99
Es	-0.736141	0.466570	-0.542534	99
Es	-0.828826	-1.293056	0.367796	99
Es	1.311507	1.154399	-0.192811	99
Es	1.080248	2.334584	-0.662963	99
Es	1.527060	-1.322751	-0.492868	99
Es	-2.660042	-0.270408	1.234572	99
Es	-1.589561	-0.830210	0.726187	99
Es	2.421414	-0.583498	-0.794655	99
Es	1.422084	-0.629190	-1.448595	99
Es	1.012182	2.385864	-0.755668	99
Es	-2.673564	-1.479570	1.108877	99
Es	1.328241	0.396193	0.766391	99
Es	0.320845	0.415007	0.110828	99
Es	0.669427	2.534455	-0.795475	99
Es	-0.794156	-0.873371	1.104354	99
