42
Properties=species:S:1:pos:R:3:Z:I:1 energy=-339.96630017871985 field_type=dipole dipole="0.000000 0.000000 0.000000" charge=0
C	-0.833258	-0.941892	2.271301	6
N	-1.363828	0.012818	1.300441	7
N	-0.820938	-0.236662	0.019981	7
C	0.226452	0.542228	-0.442209	6
O	0.771492	1.423218	0.215341	8
C	0.626202	0.201198	-1.831979	6
C	1.635472	0.852318	-2.427289	6
H	-1.269218	-0.742812	3.254681	1
H	0.255312	-0.860862	2.358871	1
H	-1.091888	-1.968492	1.992331	1
H	-1.046958	0.952148	1.580341	1
H	-1.296658	-0.901102	-0.582799	1
H	0.090162	-0.580982	-2.351669	1
H	2.183062	1.639498	-1.916209	1
H	1.934592	0.609378	-3.441139	1
Es	0.770959	1.422998	0.215920	99
Es	-0.821152	-0.236594	0.020098	99
Es	-1.363267	0.012923	1.300156	99
Es	0.226214	0.542045	-0.442116	99
Es	1.635365	0.852600	-2.426910	99
Es	0.626133	0.201237	-1.831745	99
Es	-0.833449	-0.941572	2.270924	99
Es	0.973543	1.633498	0.225527	99
Es	-1.067672	-0.095940	0.696055	99
Es	-1.086972	-0.641229	-0.332106	99
Es	1.814586	0.672689	-3.111615	99
Es	-1.132055	-0.802126	2.937768	99
Es	0.422405	0.363692	-1.148836	99
Es	-0.373711	0.106591	-0.177035	99
Es	0.247565	-0.340752	-2.159611	99
Es	-1.756995	-0.014183	1.252248	99
Es	-1.133291	0.513006	1.448642	99
Es	0.525380	1.046260	-0.031274	99
Es	1.130644	0.573199	-2.144326	99
Es	-0.092183	-0.887256	2.328394	99
Es	0.651670	1.229481	0.064471	99
Es	1.991782	1.378758	-2.085896	99
Es	-1.007389	-1.639472	2.069762	99
Es	-0.679513	-0.192975	-0.045523	99
Es	0.667780	1.358583	0.287990	99
Es	1.083215	0.461229	-2.047970	99
Es	-1.088072	-0.371677	1.680302	99
