38
Properties=species:S:1:pos:R:3:Z:I:1 energy=-358.603855999804 field_type=dipole dipole="0.000000 0.000000 0.000000" charge=0
C	-0.010653	-2.143522	0.296027	6
O	-0.877163	-1.049752	0.016777	8
C	-0.298963	0.147458	-0.064433	6
C	-0.799163	1.399567	-0.311843	6
C	0.330057	2.234278	-0.261673	6
N	1.449737	1.554328	-0.002593	7
O	1.049237	0.230188	0.122357	8
H	-0.616092	-3.053482	0.333377	1
H	0.476057	-2.019252	1.269647	1
H	0.735748	-2.264512	-0.496723	1
H	-1.829023	1.661008	-0.499603	1
H	0.390217	3.303698	-0.401313	1
Es	1.048828	0.230557	0.122246	99
Es	-0.876853	-1.049560	0.016796	99
Es	1.448995	1.554138	-0.002676	99
Es	-0.298824	0.147257	-0.064385	99
Es	-0.010785	-2.143034	0.295940	99
Es	0.330102	2.234218	-0.261658	99
Es	-0.799101	1.399513	-0.311826	99
Es	1.141600	0.765190	0.061658	99
Es	-0.521810	-1.394542	0.116890	99
Es	0.898179	1.846066	-0.124219	99
Es	-0.593262	0.748370	-0.191152	99
Es	0.492446	-2.214516	-0.242327	99
Es	0.523788	0.221809	0.046243	99
Es	-0.198428	1.873113	-0.289247	99
Es	0.335511	2.893674	-0.352426	99
Es	-0.822220	-0.981267	0.015350	99
Es	-1.197094	-1.092653	-0.024306	99
Es	-1.487124	1.572614	-0.437048	99
Es	0.923786	0.289791	0.095633	99
Es	-0.604959	-0.601922	-0.005381	99
Es	1.268166	0.005492	0.185751	99
Es	-0.428574	-2.751031	0.318943	99
Es	0.316685	-2.048527	0.953156	99
Es	1.817531	1.624947	0.041692	99
Es	1.049742	1.740750	-0.087303	99
Es	-0.539369	1.137287	-0.237218	99
