38
Properties=species:S:1:pos:R:3:Z:I:1 energy=-358.5966855983616 field_type=dipole dipole="0.000000 0.000000 0.000000" charge=0
C	-0.607677	-1.902232	0.291227	6
O	-1.333787	-0.718122	0.001917	8
C	-0.562457	0.382688	-0.125533	6
N	-1.210837	1.515338	-0.397533	7
O	-0.223767	2.486938	-0.480103	8
C	0.986364	1.914808	-0.256503	6
C	0.828173	0.572948	-0.024753	6
H	-1.324027	-2.725472	0.372927	1
H	-0.081537	-1.820892	1.248787	1
H	0.091123	-2.146322	-0.516523	1
H	1.832623	2.584528	-0.297213	1
H	1.605803	-0.144212	0.183307	1
Es	-0.223582	2.486405	-0.479987	99
Es	-1.333234	-0.718048	0.001958	99
Es	-1.210374	1.515111	-0.397446	99
Es	-0.562610	0.382497	-0.125513	99
Es	0.994269	1.920208	-0.256726	99
Es	-0.607804	-1.901793	0.291134	99
Es	0.828288	0.572848	-0.024723	99
Es	-0.309578	2.785984	-0.543578	99
Es	-1.022876	-1.120049	0.106422	99
Es	-0.894896	1.014084	-0.274339	99
Es	0.968201	1.403002	-0.164057	99
Es	-0.239962	-1.834085	0.938129	99
Es	0.170320	0.427940	-0.062289	99
Es	0.252895	2.223354	-0.384982	99
Es	1.462356	2.190875	-0.260901	99
Es	-1.275459	-0.679034	0.000430	99
Es	1.334994	0.078699	0.115830	99
Es	-0.989832	-0.323680	-0.037136	99
Es	-0.129910	2.363744	-0.448241	99
Es	-1.093076	-2.457673	0.346149	99
Es	-0.553610	2.065784	-0.434740	99
Es	-1.653312	-0.714473	-0.030032	99
Es	-0.123090	-2.054376	-0.256833	99
Es	-1.571028	1.615294	-0.451130	99
Es	0.788103	1.008146	-0.108769	99
Es	-0.918618	1.194293	-0.309832	99
