46
Properties=species:S:1:pos:R:3:Z:I:1 energy=-325.0981524929998 field_type=dipole dipole="0.000000 0.000000 0.000000" charge=0
C	-1.111041	-2.325208	-1.141275	6
O	-0.849181	-1.737898	0.125065	8
C	0.019919	-0.580578	0.110785	6
C	-0.575351	0.755312	-0.391695	6
N	0.005679	1.458202	0.772255	7
C	1.297199	2.052162	0.426715	6
C	0.196029	0.158632	1.456145	6
H	-1.760471	-3.191748	-0.995045	1
H	-0.176541	-2.655738	-1.602785	1
H	-1.617611	-1.608428	-1.793005	1
H	0.984509	-0.825848	-0.355015	1
H	-1.671701	0.775672	-0.397765	1
H	-0.229681	1.079872	-1.379255	1
H	1.793629	2.415431	1.333505	1
H	1.144489	2.918772	-0.225815	1
H	1.982739	1.363512	-0.081065	1
H	1.160709	0.006602	1.952435	1
H	-0.593321	-0.058718	2.185815	1
Es	-0.848900	-1.737658	0.124690	99
Es	0.005995	1.457457	0.771902	99
Es	0.019493	-0.580181	0.111313	99
Es	-1.110962	-2.325100	-1.140972	99
Es	0.196077	0.158794	1.455650	99
Es	-0.574845	0.755186	-0.391406	99
Es	1.296859	2.051987	0.426802	99
Es	-0.968189	-1.827819	0.413720	99
Es	0.134753	0.924600	1.060517	99
Es	-0.529750	-1.338913	0.063042	99
Es	-1.557843	-2.914983	-1.042903	99
Es	0.857557	0.069972	1.798825	99
Es	1.756905	1.562813	0.076347	99
Es	-1.312602	0.762092	-0.384769	99
Es	-0.337184	0.989566	-1.064695	99
Es	-0.466779	-2.542549	-1.463612	99
Es	-1.446492	-1.830684	-1.589525	99
Es	0.571696	1.659158	0.599381	99
Es	1.639471	2.289768	1.049679	99
Es	1.190337	2.636888	-0.027832	99
Es	0.677824	-0.748537	-0.219438	99
Es	-0.336817	0.019864	1.928136	99
Es	-0.304870	0.042725	-0.227357	99
Es	0.124435	-0.299140	0.822500	99
Es	-0.199532	1.194809	0.262542	99
Es	-0.919780	-1.917614	-0.375484	99
Es	-0.832574	-1.728226	0.099657	99
Es	-0.243451	1.695696	0.950978	99
