46
Properties=species:S:1:pos:R:3:Z:I:1 energy=-325.1033028381376 field_type=dipole dipole="0.000000 0.000000 0.000000" charge=0
C	-2.749790	-0.412808	0.999054	6
O	-1.334070	-0.542468	1.000554	8
C	-0.772130	-0.198549	-0.265726	6
C	0.731360	-0.351358	-0.171756	6
C	1.543911	0.154412	-1.380186	6
N	2.549790	0.689492	-0.433886	7
C	1.496000	0.735042	0.609984	6
H	-3.124310	-0.713118	1.981424	1
H	-3.194810	-1.064828	0.240994	1
H	-3.037490	0.627261	0.818004	1
H	-1.052000	0.829272	-0.525036	1
H	-1.169420	-0.874228	-1.031836	1
H	1.023650	-1.369598	0.124514	1
H	1.057020	0.934312	-1.977826	1
H	1.917390	-0.620668	-2.055736	1
H	3.288950	0.019762	-0.216026	1
H	1.831481	0.449892	1.611414	1
H	0.994461	1.708182	0.672074	1
Es	-1.334262	-0.542285	1.000119	99
Es	2.549885	0.689383	-0.433888	99
Es	-0.771859	-0.198720	-0.265374	99
Es	-2.749486	-0.412884	0.999143	99
Es	1.544073	0.154429	-1.379674	99
Es	1.496163	0.734643	0.609439	99
Es	0.731144	-0.351610	-0.171881	99
Es	-1.340084	-0.467608	0.997774	99
Es	1.802671	-0.376860	-1.845707	99
Es	-0.013468	-0.275952	-0.219621	99
Es	-2.942827	0.297576	0.861275	99
Es	1.728164	0.541148	1.293628	99
Es	1.067539	-0.155489	-0.848420	99
Es	0.916035	-1.010136	0.018012	99
Es	2.164549	0.432377	-0.841667	99
Es	-1.051089	-0.660752	-0.797647	99
Es	1.210956	0.690379	-1.773713	99
Es	-1.879832	-0.476901	0.943684	99
Es	-3.049490	-0.852039	0.470246	99
Es	-3.007652	-0.616794	1.672753	99
Es	1.153817	1.393469	0.637260	99
Es	2.922624	0.254188	-0.295774	99
Es	2.151995	0.689922	0.025860	99
Es	-1.158647	-0.405161	0.535139	99
Es	-0.965060	0.505775	-0.446742	99
Es	1.037600	0.172077	0.307928	99
Es	-1.161787	-0.706253	1.230349	99
Es	2.699975	1.044927	-0.534659	99
