49
Properties=species:S:1:pos:R:3:Z:I:1 energy=-326.31925027177226 field_type=dipole dipole="0.000000 0.000000 0.000000" charge=0
C	-2.608536	-1.232334	1.047104	6
O	-1.413206	-0.462814	1.029834	8
C	-0.516676	-0.905904	0.011334	6
C	0.749114	-0.035774	0.026024	6
C	1.762884	-0.589944	-0.979396	6
C	0.393284	1.434356	-0.261376	6
N	1.566604	2.305616	-0.219236	7
H	-3.251526	-0.852264	1.845704	1
H	-2.384866	-2.284484	1.248994	1
H	-3.139766	-1.135424	0.095224	1
H	-1.011896	-0.843434	-0.965286	1
H	-0.251986	-1.952484	0.202674	1
H	1.188564	-0.088764	1.031644	1
H	1.378174	-0.529454	-2.002936	1
H	1.986475	-1.640284	-0.764206	1
H	2.708884	-0.041074	-0.938196	1
H	-0.332436	1.800086	0.474254	1
H	-0.072876	1.522296	-1.249366	1
H	1.982394	2.260056	0.712094	1
H	1.267394	3.272026	-0.344886	1
Es	-1.413260	-0.463197	1.029482	99
Es	1.566507	2.305566	-0.219048	99
Es	-0.516475	-0.905325	0.011446	99
Es	-2.608286	-1.232140	1.047137	99
Es	0.394028	1.434004	-0.261205	99
Es	0.749048	-0.035930	0.025961	99
Es	1.762274	-0.589691	-0.978883	99
Es	-1.318382	-0.248941	1.261595	99
Es	1.824439	2.193885	-0.504916	99
Es	0.571921	0.694424	-0.121455	99
Es	-2.450595	-1.954542	1.173853	99
Es	1.903419	-1.309372	-0.828581	99
Es	-0.335105	-1.629949	0.139179	99
Es	1.489272	-0.546491	-1.671600	99
Es	-2.960797	-1.174007	0.389735	99
Es	1.760587	2.286825	0.342655	99
Es	-1.115922	-0.640501	0.652165	99
Es	-3.050388	-0.970251	1.592836	99
Es	-0.099699	1.677794	0.238328	99
Es	1.353151	2.854177	-0.249196	99
Es	2.399977	-0.223349	-0.947766	99
Es	-0.857326	-0.862173	-0.664702	99
Es	0.073348	1.492258	-0.935808	99
Es	-1.856526	-0.794388	0.993577	99
Es	1.261116	-0.309261	-0.479723	99
Es	1.042438	-0.068363	0.698234	99
Es	0.104334	-0.473836	0.022874	99
Es	-1.439131	-0.453289	0.977586	99
Es	1.087313	1.979841	-0.199765	99
