40
Properties=species:S:1:pos:R:3:Z:I:1 energy=-322.74366703877877 field_type=dipole dipole="0.000000 0.000000 0.000000" charge=0
C	-0.664932	-2.098608	0.546522	6
O	-0.713032	-1.355058	-0.666498	8
N	-0.159222	-0.097218	-0.436928	7
C	-0.869652	1.009022	-0.074538	6
C	0.018698	2.060652	0.013392	6
C	1.300458	1.561792	-0.340018	6
C	1.152588	0.221542	-0.632318	6
H	-1.103902	-3.082338	0.358262	1
H	-1.250052	-1.607208	1.330952	1
H	0.369118	-2.242818	0.876892	1
H	-1.936252	0.954402	0.088602	1
H	-0.229572	3.078882	0.285832	1
H	2.224858	2.122722	-0.390798	1
H	1.860898	-0.525768	-0.959358	1
Es	-0.712838	-1.354940	-0.665967	99
Es	-0.159366	-0.097501	-0.437050	99
Es	-0.664865	-2.098198	0.546192	99
Es	1.153466	0.220579	-0.632705	99
Es	-0.871017	1.008925	-0.074308	99
Es	1.300589	1.561937	-0.340018	99
Es	0.018708	2.060846	0.013425	99
Es	-0.810409	-1.405583	-0.944936	99
Es	-0.527984	0.388960	-0.272601	99
Es	-0.140213	2.730243	0.176826	99
Es	1.249409	0.833534	-0.349507	99
Es	0.035953	-2.183489	0.768949	99
Es	0.454864	0.005974	-0.543702	99
Es	-0.474946	-0.825420	-0.552477	99
Es	-1.518081	0.958811	0.041752	99
Es	-0.667933	-1.578377	-0.191785	99
Es	-1.053916	-1.755577	1.074526	99
Es	-0.415295	1.481838	0.109375	99
Es	1.580591	-0.248561	-0.812991	99
Es	1.898447	1.936345	-0.385459	99
Es	-0.338027	1.576484	-0.179695	99
Es	0.658911	1.813551	-0.169107	99
Es	-0.964703	-2.765623	0.411504	99
Es	-0.697208	-1.336480	-0.636418	99
Es	-0.072823	0.078108	-0.371130	99
Es	1.130988	1.004463	-0.585089	99
