43
Properties=species:S:1:pos:R:3:Z:I:1 energy=-323.90610376765477 field_type=dipole dipole="0.000000 0.000000 0.000000" charge=0
C	3.090383	-1.588779	0.190852	6
O	2.137303	-0.777229	-0.485268	8
N	0.911533	-0.878539	0.189413	7
C	0.026473	-0.188979	-0.454848	6
C	-1.401047	-0.121349	0.022512	6
C	-1.703027	1.288191	0.435093	6
C	-2.623447	2.064561	-0.152317	6
H	4.041252	-1.524579	-0.344007	1
H	2.761163	-2.632429	0.200092	1
H	3.235703	-1.229589	1.214683	1
H	0.275503	0.362221	-1.379107	1
H	-1.545017	-0.796209	0.871842	1
H	-2.046547	-0.450949	-0.798097	1
H	-1.135987	1.683881	1.276512	1
H	-3.222347	1.713431	-0.987247	1
H	-2.801897	3.076341	0.199892	1
Es	2.137279	-0.777498	-0.484892	99
Es	0.911851	-0.878399	0.189150	99
Es	0.026472	-0.188666	-0.455244	99
Es	3.090074	-1.588560	0.190702	99
Es	-1.400736	-0.121135	0.022549	99
Es	-1.702987	1.288217	0.435141	99
Es	-2.623013	2.064352	-0.152133	99
Es	2.152085	-0.592050	-0.751899	99
Es	0.531794	-0.550869	-0.121290	99
Es	-2.719207	2.719607	0.081084	99
Es	-1.556681	0.583539	0.213972	99
Es	3.185561	-1.346092	0.889498	99
Es	0.166853	0.176342	-1.052585	99
Es	-1.320650	1.546167	1.012843	99
Es	1.616596	-0.816427	-0.204626	99
Es	2.466281	-1.099228	-0.193199	99
Es	2.113590	-0.784970	-0.457163	99
Es	-2.199063	1.715569	0.076075	99
Es	-2.977342	1.806699	-0.691957	99
Es	3.734449	-1.539170	-0.178511	99
Es	-0.639804	-0.162008	-0.218781	99
Es	-1.821836	-0.343323	-0.518957	99
Es	-1.495043	-0.550211	0.577891	99
Es	2.863335	-2.299427	0.200253	99
Es	0.885559	-1.096048	0.509346	99
Es	0.529775	-0.589814	-0.067312	99
Es	-2.187160	1.676369	0.151901	99
