43
Properties=species:S:1:pos:R:3:Z:I:1 energy=-323.9486095086812 field_type=dipole dipole="0.000000 0.000000 0.000000" charge=0
N	-1.899679	-0.492356	-0.519502	7
C	-0.598359	-0.179416	0.084428	6
C	0.188891	-1.333956	0.652528	6
C	0.647711	-0.618106	-0.586902	6
C	1.616721	0.507514	-0.509212	6
O	0.874611	1.667114	-0.089222	8
C	-0.323529	1.220604	0.575418	6
H	-2.227209	0.281914	-1.100952	1
H	-2.609199	-0.629086	0.201888	1
H	-0.205789	-2.337436	0.532668	1
H	0.735681	-1.183806	1.574898	1
H	0.596071	-1.105216	-1.548602	1
H	2.407141	0.313824	0.223518	1
H	2.078231	0.723974	-1.475832	1
H	-0.155229	1.243314	1.656468	1
H	-1.126069	1.921124	0.328408	1
Es	0.874499	1.666658	-0.089111	99
Es	-1.899621	-0.492153	-0.519416	99
Es	-0.323161	1.220223	0.575041	99
Es	1.616072	0.507531	-0.509032	99
Es	-0.598498	-0.180074	0.084153	99
Es	0.188899	-1.333220	0.652040	99
Es	0.647485	-0.618426	-0.588125	99
Es	0.986720	1.972591	-0.084413	99
Es	-1.851907	-0.824842	-0.731364	99
Es	-0.074497	-1.989461	0.570757	99
Es	2.155199	0.373931	-0.006190	99
Es	1.128554	-0.092883	-0.534980	99
Es	-0.000481	-0.286504	-0.407758	99
Es	0.607826	-0.929570	-1.194098	99
Es	-1.394723	-0.313158	-0.254578	99
Es	-0.208137	1.229249	1.309911	99
Es	-2.280692	-0.509140	-0.082517	99
Es	-0.872165	1.685758	0.413028	99
Es	0.451077	1.463460	0.149990	99
Es	0.536516	-1.227695	1.239996	99
Es	1.926785	0.650344	-1.170425	99
Es	-0.491231	0.490033	0.348954	99
Es	1.118528	1.219189	-0.222869	99
Es	0.615966	-1.095556	0.036809	99
Es	0.831662	1.632703	-0.140891	99
Es	-0.337906	-0.770048	0.555119	99
Es	-2.071113	-0.018949	-0.800967	99
