43
Properties=species:S:1:pos:R:3:Z:I:1 energy=-323.94082056633886 field_type=dipole dipole="0.000000 0.000000 0.000000" charge=0
N	-1.416334	0.159509	1.202184	7
C	0.003276	-0.057081	0.931194	6
C	0.336596	-1.473561	0.409674	6
O	0.581616	-1.378161	-1.007466	8
C	0.863306	0.002149	-1.326006	6
C	-0.298764	0.928789	-1.488396	6
C	0.438876	0.853979	-0.170346	6
H	-1.556224	1.114009	1.527064	1
H	-1.723394	-0.456641	1.951504	1
H	0.564806	0.134109	1.852394	1
H	-0.460135	-2.200281	0.595834	1
H	1.254996	-1.844621	0.878474	1
H	1.787025	0.236269	-1.839676	1
H	-0.159514	1.815089	-2.095456	1
H	-1.289634	0.495779	-1.559456	1
H	1.073506	1.670669	0.138484	1
Es	0.581653	-1.377732	-1.007083	99
Es	-1.415941	0.159572	1.202604	99
Es	0.863134	0.002373	-1.325701	99
Es	0.336530	-1.472805	0.409294	99
Es	0.002913	-0.057146	0.930861	99
Es	-0.298090	0.928595	-1.487954	99
Es	0.439996	0.854706	-0.170055	99
Es	0.588042	-1.621236	-1.216954	99
Es	-1.610978	0.081765	0.864853	99
Es	-0.200768	1.525252	-1.888594	99
Es	0.971544	-1.716733	0.742061	99
Es	0.218015	0.412455	0.365269	99
Es	1.486278	0.145667	-1.670134	99
Es	0.858874	1.381855	0.018918	99
Es	0.245363	0.388916	-1.587978	99
Es	0.693909	-0.857898	-1.088345	99
Es	-1.546241	-0.177232	1.670845	99
Es	0.397378	0.089537	1.548316	99
Es	-0.210366	-1.958714	0.539276	99
Es	0.561766	-1.338110	-0.986257	99
Es	-0.920398	0.652034	-1.530991	99
Es	-1.450969	0.703120	1.427942	99
Es	0.486433	-1.363523	-0.486636	99
Es	0.149713	-0.774469	0.688360	99
Es	-0.102563	1.035062	-0.715034	99
Es	-0.849733	0.078618	1.137918	99
Es	0.808085	0.394067	-0.654089	99
