43
Properties=species:S:1:pos:R:3:Z:I:1 energy=-323.96276343169217 field_type=dipole dipole="0.000000 0.000000 0.000000" charge=0
N	-1.796681	0.489437	-0.636108	7
C	-0.343261	0.466747	-0.582998	6
C	0.263619	1.545897	0.312733	6
O	1.590179	1.084978	0.609513	8
C	1.492719	-0.341403	0.765752	6
C	0.248079	-0.758103	0.040383	6
C	-0.248241	-2.004703	0.043862	6
H	-2.111061	-0.207622	-1.308228	1
H	-2.107181	1.389167	-0.998028	1
H	0.068379	0.571217	-1.594827	1
H	-0.280691	1.667297	1.257822	1
H	0.317649	2.518988	-0.185618	1
H	2.392169	-0.795642	0.341112	1
H	1.429389	-0.565933	1.835472	1
H	-1.174311	-2.249292	-0.465218	1
H	0.259239	-2.811032	0.564372	1
Es	1.589730	1.084688	0.609524	99
Es	-1.796226	0.489612	-0.636676	99
Es	1.492438	-0.340948	0.765606	99
Es	0.263931	1.545206	0.312444	99
Es	-0.343629	0.466665	-0.582899	99
Es	0.248082	-0.758285	0.040417	99
Es	-0.247562	-2.002769	0.043864	99
Es	1.847715	1.266747	0.654114	99
Es	-1.934378	0.999278	-0.889620	99
Es	0.861640	-0.590823	0.394226	99
Es	-0.076600	0.991618	-0.146060	99
Es	0.127001	-2.487919	0.406513	99
Es	-0.052092	-0.165120	-0.269391	99
Es	-0.076000	-1.517214	0.042268	99
Es	-1.221955	0.487429	-0.661664	99
Es	2.093255	-0.658670	0.479644	99
Es	-1.939075	0.112461	-1.056947	99
Es	1.432821	-0.505563	1.481744	99
Es	-0.832882	-2.052059	-0.297815	99
Es	1.087806	1.214853	0.501247	99
Es	0.299574	2.205793	-0.032866	99
Es	1.518252	0.572279	0.660461	99
Es	-0.114920	1.619932	0.950936	99
Es	-0.059325	0.533824	-1.261923	99
Es	1.561821	1.061502	0.580234	99
Es	-1.919767	0.421993	-0.270268	99
Es	-0.001790	-1.423294	0.013620	99
