42
Properties=species:S:1:pos:R:3:Z:I:1 energy=-339.97884156480205 field_type=dipole dipole="0.000000 0.000000 0.000000" charge=0
N	-2.321711	-0.121833	0.999704	7
C	-1.136261	-0.118173	0.489704	6
C	-0.333190	-1.417163	0.400524	6
O	0.669310	-1.413503	-0.619546	8
C	1.461589	-0.221893	-0.554156	6
C	0.597809	1.022267	-0.794076	6
N	-0.553530	1.065197	0.094934	7
H	-2.683400	0.830327	0.942014	1
H	-1.001301	-2.261793	0.226854	1
H	0.163159	-1.571843	1.371004	1
H	1.967609	-0.174883	0.416364	1
H	2.227609	-0.289763	-1.331086	1
H	1.195809	1.932737	-0.673306	1
H	0.218469	1.006057	-1.822616	1
H	-0.471971	1.734257	0.853684	1
Es	0.669252	-1.413163	-0.619080	99
Es	-0.554209	1.066110	0.094329	99
Es	-2.322089	-0.122180	0.999976	99
Es	-1.135936	-0.118272	0.489535	99
Es	-0.333018	-1.416858	0.400514	99
Es	1.461187	-0.222041	-0.554161	99
Es	0.597503	1.021946	-0.793670	99
Es	0.742384	-1.665025	-0.797887	99
Es	-0.815599	1.202782	-0.107752	99
Es	-1.771397	-0.070951	0.784749	99
Es	1.004071	1.641369	-0.705434	99
Es	-0.039203	1.008040	-0.194460	99
Es	1.021474	0.409306	-0.656495	99
Es	-0.475453	1.372949	0.542002	99
Es	-2.480921	0.436163	0.949072	99
Es	-0.771473	-1.979190	0.285272	99
Es	0.311080	-1.362046	-0.230285	99
Es	-0.001776	-1.494729	1.050547	99
Es	1.982680	-0.267020	-1.081908	99
Es	0.929060	-0.965809	-0.557366	99
Es	-0.747258	-0.735805	0.413935	99
Es	1.796123	-0.185320	0.115625	99
Es	0.342448	0.997596	-1.490924	99
Es	0.632952	-1.364290	-0.629764	99
Es	-1.916731	-0.110955	0.794326	99
Es	-2.510585	-0.423812	1.157947	99
Es	-0.742057	0.525647	0.302901	99
