44
Properties=species:S:1:pos:R:3:Z:I:1 energy=-360.9600017721314 field_type=dipole dipole="0.000000 0.000000 0.000000" charge=0
N	-1.509465	-0.114276	0.252417	7
C	-0.045815	-0.045526	-0.009873	6
C	0.291245	-0.015666	-1.483523	6
O	-0.480985	1.001014	-2.122113	8
C	0.581875	1.019404	0.913377	6
O	0.879125	-0.000136	1.914767	8
C	0.694445	-1.036536	0.909507	6
H	-1.732285	-0.009296	1.247307	1
H	-1.930225	-1.005566	-0.015843	1
H	0.049575	-0.970096	-1.963613	1
H	1.350845	0.193084	-1.659513	1
H	-1.351345	0.982394	-1.674163	1
H	-0.082205	1.796444	1.303977	1
H	1.505715	1.483144	0.551407	1
H	1.661655	-1.395336	0.542037	1
H	0.117845	-1.883056	1.293847	1
Es	0.879316	-0.000167	1.913993	99
Es	-0.481331	1.000581	-2.121890	99
Es	-1.509593	-0.114429	0.252446	99
Es	0.581830	1.018693	0.913586	99
Es	0.694320	-1.035766	0.909720	99
Es	0.290816	-0.015313	-1.483138	99
Es	-0.046038	-0.045542	-0.010178	99
Es	1.058646	0.007718	2.163543	99
Es	-0.384329	1.162811	-2.374873	99
Es	-0.921858	-0.137434	0.173200	99
Es	0.237529	0.558377	0.368997	99
Es	0.130300	1.545013	1.178719	99
Es	0.117352	-0.686105	-1.788731	99
Es	1.350249	-1.271650	0.655325	99
Es	-0.904206	0.963654	-1.888952	99
Es	-1.696765	-0.654617	0.127532	99
Es	0.318363	-0.621142	0.373325	99
Es	-1.582616	-0.097570	0.816676	99
Es	-0.223803	0.644409	-1.843053	99
Es	0.801972	-0.377297	1.552895	99
Es	-0.483481	0.984440	-2.083125	99
Es	1.208624	1.323503	0.656923	99
Es	0.771517	0.367134	1.569462	99
Es	0.299964	-1.614461	1.168756	99
Es	1.014090	0.125568	-1.581163	99
Es	0.113028	-0.038040	-0.732889	99
Es	0.769415	-0.006639	1.905733	99
Es	-1.674846	0.194253	0.035874	99
