42
Properties=species:S:1:pos:R:3:Z:I:1 energy=-286.9238161024564 field_type=dipole dipole="0.000000 0.000000 0.000000" charge=0
C	-2.257806	-0.090453	0.253479	6
C	-0.816856	0.067397	-0.048931	6
C	-0.068146	1.178158	0.003779	6
C	1.313594	0.916887	-0.367971	6
C	2.131944	-0.055623	0.438249	6
N	1.408194	-0.523322	-0.743771	7
C	0.055414	-1.083693	-0.461101	6
H	-2.430576	-0.995872	0.841349	1
H	-2.834946	-0.164913	-0.670881	1
H	-2.642226	0.756598	0.830629	1
H	-0.427356	2.160928	0.272259	1
H	1.806243	1.602237	-1.046821	1
H	3.209414	-0.008413	0.340479	1
H	1.780804	-0.367772	1.413419	1
H	0.105934	-1.848012	0.320279	1
H	-0.333626	-1.544132	-1.374451	1
Es	1.407428	-0.523068	-0.743116	99
Es	1.313520	0.916376	-0.368107	99
Es	2.131356	-0.055403	0.437562	99
Es	0.055503	-1.083180	-0.461010	99
Es	-0.817124	0.067319	-0.048817	99
Es	-2.257422	-0.090457	0.253309	99
Es	-0.068529	1.180137	0.004267	99
Es	0.839419	-0.722572	-0.563354	99
Es	-0.414603	0.734241	-0.127476	99
Es	0.090703	-1.583402	0.068389	99
Es	-1.503894	0.010671	0.124501	99
Es	1.890304	-0.278050	1.084951	99
Es	1.652590	1.391987	-0.812173	99
Es	-0.311401	1.750085	0.150449	99
Es	0.589057	1.057587	-0.154210	99
Es	1.713199	-0.399490	-0.173135	99
Es	-0.203742	-1.395138	-1.070923	99
Es	-2.507422	0.469150	0.632977	99
Es	-2.364574	-0.694471	0.644180	99
Es	-2.635264	-0.138415	-0.372679	99
Es	2.851059	-0.031718	0.361771	99
Es	-0.447006	-0.501755	-0.245062	99
Es	1.730097	0.590242	0.174362	99
Es	1.304459	0.068107	-0.662947	99
Es	1.599335	-0.648139	-1.053273	99
Es	-0.393086	0.624931	0.096439	99
