39
Properties=species:S:1:pos:R:3:Z:I:1 energy=-338.82068942921364 field_type=dipole dipole="0.000000 0.000000 0.000000" charge=0
N	-2.591467	-0.037895	0.015948	7
C	-1.306227	-0.050945	0.008168	6
N	-0.557157	-1.179625	0.020098	7
C	0.799423	-1.220125	0.014868	6
C	1.499963	-0.086775	-0.006142	6
C	0.781183	1.225295	-0.024592	6
O	-0.666937	1.141755	-0.013112	8
H	-2.857937	0.953215	0.003388	1
H	-1.073827	-2.049155	0.036618	1
H	1.252303	-2.205675	0.028698	1
H	2.583753	-0.094165	-0.010612	1
H	1.074473	1.817705	0.847888	1
H	1.062453	1.786395	-0.921222	1
Es	-0.666532	1.141277	-0.013109	99
Es	-0.557090	-1.179528	0.020096	99
Es	-2.592435	-0.038742	0.015967	99
Es	-1.305645	-0.051083	0.008166	99
Es	0.781149	1.225034	-0.024588	99
Es	0.802674	-1.227935	0.014979	99
Es	1.500221	-0.086678	-0.006145	99
Es	-0.820826	1.432519	-0.016129	99
Es	-0.865177	-0.666485	0.014649	99
Es	-1.989548	-0.023700	0.012139	99
Es	1.094618	-0.682258	0.004756	99
Es	0.966163	1.597441	-0.621822	99
Es	0.106557	-1.191408	0.017571	99
Es	-0.849116	-1.690584	0.030150	99
Es	-0.844111	0.643499	-0.004933	99
Es	1.047552	-1.805383	0.023092	99
Es	-0.680306	1.067314	-0.011721	99
Es	-2.687424	0.523052	0.008432	99
Es	-0.163487	1.093938	-0.016103	99
Es	2.225491	-0.096898	-0.009016	99
Es	-0.540374	-1.103381	0.017526	99
Es	0.974149	1.618346	0.556618	99
Es	1.139995	0.537155	-0.014854	99
Es	-2.848432	-0.327899	0.021707	99
Es	-2.206487	-0.023714	0.013296	99
Es	1.217042	-0.594178	0.003589	99
