37
Properties=species:S:1:pos:R:3:Z:I:1 energy=-321.6281881398294 field_type=dipole dipole="0.000000 0.000000 0.000000" charge=0
N	-2.874315	0.306212	0.893906	7
C	-1.723305	0.306212	0.893906	6
C	-0.279305	0.306212	0.893906	6
C	0.286975	-0.942208	0.199086	6
C	0.757854	-0.382528	-1.091064	6
C	0.701294	0.941662	-1.016384	6
O	0.226315	1.463352	0.168366	8
H	0.096235	0.369682	1.921636	1
H	-0.449625	-1.740878	0.066766	1
H	1.140965	-1.346858	0.753686	1
H	1.117614	-0.953518	-1.932894	1
H	0.999305	1.672662	-1.750914	1
Es	0.226262	1.462770	0.168231	99
Es	-2.876459	0.306212	0.893787	99
Es	-0.279783	0.306418	0.893964	99
Es	0.701725	0.943228	-1.017457	99
Es	-1.722824	0.306225	0.893937	99
Es	0.286327	-0.941355	0.199132	99
Es	0.757903	-0.382768	-1.091268	99
Es	0.042331	1.015623	0.404628	99
Es	-2.316344	0.169510	1.079707	99
Es	0.974272	-0.787020	-1.608415	99
Es	0.688529	0.356357	-1.067643	99
Es	-1.062034	0.301676	0.907666	99
Es	0.403323	1.229477	-0.297660	99
Es	-0.207162	-1.456788	0.121509	99
Es	0.547603	-0.656508	-0.510170	99
Es	0.883293	1.360305	-1.475028	99
Es	-0.041379	-0.299966	0.567047	99
Es	-0.039184	0.335432	1.561509	99
Es	-3.208299	0.306317	0.872633	99
Es	0.215208	1.759152	0.284345	99
Es	0.841673	-1.197337	0.578142	99
Es	0.239515	1.403835	0.130613	99
Es	-2.348111	0.421978	0.704286	99
Es	-2.363381	0.308610	0.896157	99
Es	0.770163	0.209371	-1.067828	99
