39
Properties=species:S:1:pos:R:3:Z:I:1 energy=-338.7687433164367 field_type=dipole dipole="0.000000 0.000000 0.000000" charge=0
N	-0.436966	-1.743425	-1.015956	7
C	-0.899356	-1.024285	0.174134	6
C	-0.275166	0.329715	0.261754	6
N	-0.990046	1.366065	0.726104	7
O	-0.139466	2.456305	0.698154	8
C	1.073895	2.069315	0.237794	6
C	1.049425	0.730345	-0.045876	6
H	-0.956836	-2.616635	-1.087696	1
H	0.538274	-2.006005	-0.890686	1
H	-0.652476	-1.603105	1.071174	1
H	-1.990556	-0.934025	0.126364	1
H	1.820844	2.845845	0.175314	1
H	1.858425	0.129895	-0.430576	1
Es	-0.139253	2.455788	0.697977	99
Es	-0.989372	1.366044	0.725874	99
Es	-0.436976	-1.743147	-1.016402	99
Es	1.077089	2.072646	0.237491	99
Es	-0.275302	0.329762	0.261815	99
Es	-0.898941	-1.023882	0.174060	99
Es	1.049396	0.730420	-0.045845	99
Es	-0.258296	2.737189	0.786928	99
Es	-0.609333	-1.478096	-0.493907	99
Es	-0.647468	0.933865	0.500937	99
Es	1.516064	2.430471	0.185858	99
Es	-0.727207	-1.400792	0.777254	99
Es	0.436501	0.513567	0.087125	99
Es	0.342306	2.265895	0.510360	99
Es	1.102786	1.544131	0.132236	99
Es	-0.723087	-2.258536	-0.999969	99
Es	-0.051848	2.334969	0.647762	99
Es	0.112132	-1.912724	-0.896385	99
Es	1.573836	0.303974	-0.298495	99
Es	-0.578924	-0.315692	0.215180	99
Es	-0.421533	1.994358	0.685960	99
Es	-1.608268	-0.967341	0.143341	99
Es	-1.341029	1.390777	0.846577	99
Es	-0.483515	-1.515177	-1.337902	99
Es	0.966621	1.181317	0.065374	99
Es	-0.672066	1.032463	0.566475	99
