46
Properties=species:S:1:pos:R:3:Z:I:1 energy=-325.1273077844109 field_type=dipole dipole="0.000000 0.000000 0.000000" charge=0
N	-2.690254	-1.274961	-0.269964	7
C	-1.239654	-1.161281	-0.351824	6
C	-0.723504	-0.128071	0.647016	6
C	0.794176	-0.039470	0.566406	6
C	1.403456	0.677520	-0.648124	6
C	2.099146	1.552739	0.388976	6
O	1.297256	0.995379	1.456366	8
H	-3.024594	-1.922421	-0.982354	1
H	-3.122024	-0.374210	-0.473624	1
H	-0.954774	-0.882390	-1.372074	1
H	-0.791744	-2.139631	-0.145934	1
H	-1.017354	-0.417630	1.663766	1
H	-1.175114	0.852179	0.448426	1
H	1.282396	-0.994321	0.800976	1
H	0.694056	1.214289	-1.284394	1
H	2.068506	0.067469	-1.263944	1
H	3.162396	1.346649	0.542626	1
H	1.937626	2.628159	0.277676	1
Es	1.297340	0.995207	1.455753	99
Es	-2.690361	-1.275004	-0.269696	99
Es	0.793894	-0.038957	0.566329	99
Es	2.098565	1.552206	0.389036	99
Es	-1.240062	-1.160788	-0.351296	99
Es	1.403491	0.677385	-0.647293	99
Es	-0.723089	-0.128286	0.646698	99
Es	1.215165	1.054498	1.390853	99
Es	-2.115737	-1.211505	-0.351437	99
Es	0.036073	-0.086197	0.597641	99
Es	1.797253	1.147464	-0.193839	99
Es	2.832428	1.411999	0.488231	99
Es	-1.034430	-0.963301	-1.050498	99
Es	1.124570	-0.701287	0.722128	99
Es	1.847244	0.262399	-1.072729	99
Es	1.989408	2.289496	0.309924	99
Es	-0.931576	-1.830766	-0.216103	99
Es	-2.852437	-1.618079	-0.722976	99
Es	1.116653	0.633953	1.152461	99
Es	-2.906913	-0.748730	-0.436237	99
Es	-0.915004	-0.321622	1.328095	99
Es	0.923596	1.038122	-1.069684	99
Es	-0.983131	-0.641041	0.146837	99
Es	-1.023636	0.534779	0.501287	99
Es	1.603615	1.206909	1.065953	99
Es	1.053852	0.262202	-0.118729	99
Es	1.326390	0.984508	1.773039	99
Es	-2.786648	-1.400313	0.095353	99
