46
Properties=species:S:1:pos:R:3:Z:I:1 energy=-325.140020064935 field_type=dipole dipole="0.000000 0.000000 0.000000" charge=0
N	-1.729281	-0.343692	1.026908	7
C	-1.583691	0.120218	-0.356292	6
C	-0.285851	0.908948	-0.583302	6
C	0.974899	0.076518	-0.464542	6
C	1.568849	-0.448312	-1.551492	6
C	1.571509	-0.082752	0.909208	6
O	0.877769	-1.077782	1.640858	8
H	-2.581791	-0.905102	1.093218	1
H	-1.887891	0.461968	1.635438	1
H	-2.440701	0.757748	-0.602212	1
H	-1.618861	-0.744112	-1.028892	1
H	-0.233591	1.761068	0.105888	1
H	-0.333341	1.351918	-1.587471	1
H	1.152029	-0.325932	-2.545922	1
H	2.476089	-1.039142	-1.466402	1
H	1.529399	0.860358	1.463388	1
H	2.623869	-0.378002	0.858978	1
H	-0.079421	-0.953912	1.452638	1
Es	0.877400	-1.077362	1.640622	99
Es	-1.729624	-0.343404	1.026790	99
Es	-1.582929	0.120481	-0.355755	99
Es	1.571198	-0.083002	0.909209	99
Es	-0.285966	0.908671	-0.583191	99
Es	0.974918	0.076438	-0.464790	99
Es	1.571080	-0.449819	-1.551630	99
Es	1.002523	-1.274961	1.836393	99
Es	-1.396297	-0.564830	1.147213	99
Es	1.869907	-0.666574	-1.329607	99
Es	-0.316614	1.197238	-1.264977	99
Es	2.292475	-0.286429	0.862399	99
Es	-1.605984	-0.463053	-0.803184	99
Es	1.473644	-0.376525	-1.254004	99
Es	-2.246978	-0.632228	1.037370	99
Es	1.529261	0.579784	1.270056	99
Es	0.346270	0.488874	-0.517817	99
Es	-1.845881	0.149181	1.358949	99
Es	-2.172913	0.562638	-0.531537	99
Es	1.274276	-0.006326	0.198351	99
Es	1.327840	-0.376623	-2.106963	99
Es	1.092740	-0.698392	1.341704	99
Es	-0.907318	0.491769	-0.464556	99
Es	-0.252357	1.476671	-0.112107	99
Es	0.459859	-0.994841	1.530989	99
Es	-1.687964	-0.138301	0.465307	99
Es	0.867021	-1.059151	1.607399	99
Es	1.312589	-0.147566	-1.033671	99
