42
Properties=species:S:1:pos:R:3:Z:I:1 energy=-340.00768444898034 field_type=dipole dipole="0.000000 0.000000 0.000000" charge=0
N	-1.201398	-0.449887	0.699861	7
C	0.233662	-0.539077	0.345261	6
C	0.468842	-0.685467	-1.135319	6
C	-0.434528	-0.629457	-2.124830	6
C	0.996962	0.718043	0.852551	6
N	0.206712	1.705013	1.380341	7
O	2.216452	0.850203	0.797981	8
H	-1.261658	-0.470847	1.718391	1
H	-1.643498	-1.314427	0.387381	1
H	0.657892	-1.405717	0.865221	1
H	1.511872	-0.849927	-1.411049	1
H	-1.487988	-0.448997	-1.936819	1
H	-0.127698	-0.747627	-3.159920	1
H	-0.778138	1.675493	1.136231	1
H	0.642512	2.592673	1.584721	1
Es	2.216063	0.849856	0.797845	99
Es	0.207112	1.700326	1.387425	99
Es	-1.201196	-0.450167	0.699978	99
Es	0.996746	0.718104	0.852593	99
Es	0.233624	-0.539044	0.345389	99
Es	0.469142	-0.685535	-1.135344	99
Es	-0.434269	-0.629654	-2.124515	99
Es	2.460202	0.983495	0.838655	99
Es	-1.369046	-0.122365	0.540248	99
Es	0.224969	1.520228	1.658452	99
Es	1.173341	-0.807857	-1.295486	99
Es	0.598212	0.097295	0.595276	99
Es	-1.107135	-0.523518	-1.965027	99
Es	0.526024	1.325585	1.086478	99
Es	0.456434	2.206407	1.414741	99
Es	-1.198213	-0.502646	1.280322	99
Es	0.517777	-1.110661	0.678260	99
Es	-1.406061	-0.962559	0.548698	99
Es	-0.051173	-0.650811	-1.663920	99
Es	-0.214386	-0.707137	-2.792791	99
Es	1.720908	0.808607	0.829011	99
Es	1.928273	0.815520	0.802555	99
Es	0.325474	-0.600933	-0.406172	99
Es	-0.621806	-0.510801	0.574583	99
Es	2.159111	0.718557	0.748677	99
Es	-0.308803	1.710471	1.171067	99
Es	0.009741	-0.654415	-1.632003	99
