42
Properties=species:S:1:pos:R:3:Z:I:1 energy=-339.9195405228792 field_type=dipole dipole="0.000000 0.000000 0.000000" charge=0
N	-2.040271	-1.317162	-0.093511	7
C	-0.607851	-1.023062	-0.012211	6
C	-0.280271	0.439658	0.103789	6
C	-1.150231	1.458748	0.203569	6
C	1.164629	0.795028	0.115369	6
N	2.111649	-0.083872	0.021429	7
O	3.347079	0.573238	0.066059	8
H	-2.161301	-2.328932	-0.091351	1
H	-2.382831	-1.000282	-0.999351	1
H	-0.123641	-1.441362	-0.902341	1
H	-0.203331	-1.547192	0.861319	1
H	-2.221051	1.278318	0.219989	1
H	-0.833821	2.493118	0.288469	1
H	1.401239	1.870558	0.210619	1
H	3.980009	-0.166802	0.008159	1
Es	3.347294	0.572712	0.066013	99
Es	2.111799	-0.083837	0.021430	99
Es	-2.040287	-1.317148	-0.093521	99
Es	1.164390	0.794926	0.115348	99
Es	-0.608133	-1.022599	-0.012170	99
Es	-0.279949	0.439913	0.103797	99
Es	-1.150330	1.466680	0.204065	99
Es	3.360517	0.882659	0.087547	99
Es	-1.467171	-1.213697	-0.103594	99
Es	1.709128	0.332832	0.057976	99
Es	-1.026069	1.636661	0.188249	99
Es	-0.342365	-1.363574	0.570283	99
Es	1.242380	1.461469	0.172783	99
Es	0.541427	0.626035	0.108852	99
Es	3.647076	0.166860	0.034415	99
Es	2.826584	0.320075	0.050160	99
Es	-2.195872	-1.161334	-0.633204	99
Es	-2.063758	-1.898872	-0.138381	99
Es	-0.914129	1.299509	0.179360	99
Es	3.317340	0.542491	0.066319	99
Es	-1.546194	1.497196	0.216122	99
Es	-0.277193	-1.289386	-0.609690	99
Es	-0.450232	-0.260860	0.049274	99
Es	2.088516	-0.467035	-0.014303	99
Es	1.684904	0.275242	0.070046	99
Es	-2.231504	-1.142583	0.210557	99
Es	-0.656970	0.950942	0.175571	99
