38
Properties=species:S:1:pos:R:3:Z:I:1 energy=-358.6285886461672 field_type=dipole dipole="0.000000 0.000000 0.000000" charge=0
N	-1.867714	-1.493807	0.110763	7
C	-0.416114	-1.481817	0.058363	6
C	0.065906	-0.120647	0.058363	6
C	0.463186	1.001253	0.058363	6
C	0.984906	2.344723	0.051173	6
O	2.333196	2.402214	0.109013	8
O	0.256556	3.319523	-0.015037	8
H	-2.201374	-2.451847	0.028893	1
H	-2.238814	-0.991537	-0.694827	1
H	-0.079164	-2.007777	-0.841107	1
H	-0.022224	-2.027367	0.921873	1
H	2.721656	1.507083	0.154163	1
Es	2.333323	2.401850	0.109031	99
Es	0.256905	3.319097	-0.015007	99
Es	-1.867836	-1.493342	0.111416	99
Es	0.985081	2.344181	0.051192	99
Es	-0.415709	-1.480103	0.058317	99
Es	0.064903	-0.124405	0.058411	99
Es	0.463200	1.001419	0.058206	99
Es	1.820113	2.325340	0.089470	99
Es	0.553824	2.903977	0.016511	99
Es	-1.242140	-1.494906	0.036077	99
Es	0.203847	0.076912	0.082654	99
Es	-0.039239	-0.542029	0.072860	99
Es	0.721934	1.652153	0.049134	99
Es	2.474898	1.937528	0.129631	99
Es	-2.046897	-1.236979	-0.377422	99
Es	0.094048	3.533934	-0.029828	99
Es	-0.168730	-1.754368	-0.529659	99
Es	2.239772	2.366339	0.104963	99
Es	-2.018952	-2.050620	0.019198	99
Es	2.514918	2.666304	0.109151	99
Es	-0.143454	-1.762355	0.609696	99
Es	0.442828	3.037688	-0.000721	99
Es	0.310688	3.245023	-0.010222	99
Es	-1.979983	-1.323815	0.447323	99
Es	0.207565	0.451894	0.051217	99
Es	0.314297	0.555567	0.030897	99
