41
Properties=species:S:1:pos:R:3:Z:I:1 energy=-359.82181394010945 field_type=dipole dipole="0.000000 0.000000 0.000000" charge=0
N	-1.765816	-0.057987	0.309720	7
C	-0.402326	0.072513	0.052960	6
C	0.302274	-1.202887	-0.390770	6
O	-0.456076	-2.333447	0.042890	8
C	0.230734	1.246373	0.230600	6
C	1.666374	1.483363	-0.026090	6
O	2.173654	2.579273	0.183320	8
H	-2.283776	0.818503	0.274930	1
H	-2.200596	-0.778547	-0.272430	1
H	1.299364	-1.297897	0.045350	1
H	0.372424	-1.242707	-1.481890	1
H	-0.886866	-2.052947	0.873640	1
H	-0.302536	2.124423	0.580860	1
H	2.253165	0.641973	-0.423090	1
Es	-0.456008	-2.333171	0.043392	99
Es	2.173181	2.578891	0.183314	99
Es	-1.765979	-0.058511	0.311331	99
Es	1.666734	1.482565	-0.026428	99
Es	-0.402463	0.072564	0.053041	99
Es	0.301935	-1.202808	-0.390594	99
Es	0.230268	1.245362	0.230444	99
Es	-0.460781	-2.606867	-0.103709	99
Es	2.355519	2.784255	0.197640	99
Es	-1.737965	-0.180575	0.663289	99
Es	-0.058200	-0.542616	-0.168098	99
Es	-0.204182	-1.900008	-0.085077	99
Es	2.054820	0.892328	-0.297714	99
Es	0.950861	1.327646	0.099262	99
Es	-0.061968	0.672461	0.153347	99
Es	0.347871	-1.216177	-1.120534	99
Es	-1.222741	0.034010	0.145156	99
Es	-2.003154	0.427806	0.221388	99
Es	0.971166	-1.243801	-0.097124	99
Es	1.976068	2.135671	0.095364	99
Es	-0.176822	1.786553	0.464687	99
Es	-1.959415	-0.398347	-0.068675	99
Es	-0.645237	-2.165137	0.461394	99
Es	2.017991	2.251182	0.125924	99
Es	-0.473240	-2.290561	0.047486	99
Es	2.058538	2.555700	0.202468	99
Es	0.092377	0.825984	0.132010	99
