39
Properties=species:S:1:pos:R:3:Z:I:1 energy=-338.7630997933982 field_type=dipole dipole="0.000000 0.000000 0.000000" charge=0
N	-1.431555	-1.493137	-0.974718	7
C	-0.381976	-1.570577	-0.230788	6
N	0.484304	-0.569077	0.151072	7
C	0.793794	0.455873	-0.860598	6
C	-0.102225	0.781603	0.286022	6
C	0.397655	1.584693	1.414022	6
O	0.438094	2.807303	1.351132	8
H	-1.854316	-2.424247	-1.065898	1
H	-0.076406	-2.540857	0.197922	1
H	0.355335	0.296263	-1.836848	1
H	1.824774	0.779643	-0.835038	1
H	-1.165056	0.856893	0.088652	1
H	0.717574	1.035623	2.315063	1
Es	0.437968	2.806920	1.350806	99
Es	0.484162	-0.568822	0.150943	99
Es	-1.431899	-1.492662	-0.975067	99
Es	0.397532	1.584026	1.413689	99
Es	-0.381268	-1.571338	-0.230126	99
Es	-0.101846	0.781515	0.286321	99
Es	0.793380	0.455553	-0.859838	99
Es	0.466712	3.076383	1.426013	99
Es	0.612096	-0.237551	-0.343349	99
Es	-1.589856	-1.179056	-1.148220	99
Es	0.048148	-0.985413	-0.059369	99
Es	0.592804	1.186597	1.960041	99
Es	1.476735	0.662054	-0.836957	99
Es	-0.793920	0.827289	0.168690	99
Es	0.406371	2.745371	1.277225	99
Es	-0.954310	-1.540098	-0.638129	99
Es	-0.165356	-2.200704	0.057980	99
Es	0.422857	2.294608	1.354920	99
Es	0.505105	0.345863	-1.511810	99
Es	0.154583	-0.076339	0.267870	99
Es	0.335308	0.817902	-0.321292	99
Es	0.424730	2.426273	1.371280	99
Es	-1.620739	-2.037260	-0.987616	99
Es	0.174111	1.191220	0.911448	99
Es	-1.045187	-1.550829	-0.692613	99
Es	0.773518	-0.637165	0.408447	99
