42
Properties=species:S:1:pos:R:3:Z:I:1 energy=-339.9629047022658 field_type=dipole dipole="0.000000 0.000000 0.000000" charge=0
N	-1.420490	-1.047130	-1.148621	7
C	-1.058010	0.244580	-0.906721	6
N	-1.206290	1.169640	-1.793531	7
C	-0.420810	0.590150	0.425689	6
C	1.032700	0.244430	0.429329	6
C	1.736730	-0.159970	1.696369	6
O	1.320460	-1.129530	0.721229	8
H	-0.942400	-1.739500	-0.575581	1
H	-1.471360	-1.324230	-2.120031	1
H	-1.659940	0.779740	-2.621271	1
H	-0.959500	0.053700	1.217339	1
H	-0.542280	1.663060	0.614439	1
H	1.597780	0.738650	-0.349631	1
H	1.195730	-0.125990	2.632909	1
H	2.797690	0.042400	1.778089	1
Es	1.320675	-1.129040	0.721350	99
Es	-1.427791	-1.046795	-1.146025	99
Es	-1.206101	1.170028	-1.793621	99
Es	-1.057966	0.244419	-0.906541	99
Es	1.032718	0.243721	0.429713	99
Es	1.736381	-0.160346	1.695655	99
Es	-0.420910	0.589886	0.425414	99
Es	1.269649	-1.385776	0.637436	99
Es	-1.375754	-1.171375	-1.688043	99
Es	-1.182622	0.730595	-1.414202	99
Es	-0.745711	0.401974	-0.251141	99
Es	1.369079	-0.152528	2.330971	99
Es	1.409727	0.563443	-0.103535	99
Es	-1.193470	-0.525934	-1.072177	99
Es	1.480077	-0.729008	1.097312	99
Es	-1.096002	-1.389532	-0.868323	99
Es	-1.467633	0.887319	-2.247059	99
Es	2.452621	-0.024789	1.733138	99
Es	1.221355	-0.754849	0.583167	99
Es	-0.493541	1.290909	0.552421	99
Es	0.292872	0.404014	0.433271	99
Es	-0.766965	0.228050	0.945396	99
Es	-1.756654	-1.020228	-1.022579	99
Es	1.335862	-1.077379	0.728037	99
Es	1.385826	0.257836	1.153198	99
Es	-1.105193	1.544256	-1.756900	99
Es	-1.130583	0.856518	-1.528153	99
