39
Properties=species:S:1:pos:R:3:Z:I:1 energy=-338.81955366471726 field_type=dipole dipole="0.000000 0.000000 0.000000" charge=0
N	-1.964310	-1.667801	0.834747	7
C	-2.039630	-0.414362	0.553017	6
N	-1.024260	0.395938	0.132637	7
C	0.286980	0.037868	-0.076853	6
C	1.282830	0.831518	-0.480883	6
C	2.638690	0.278478	-0.655063	6
O	3.567100	0.987358	-1.021433	8
H	-2.885790	-2.013132	1.124237	1
H	-2.999300	0.124818	0.640097	1
H	-1.245760	1.369569	-0.044833	1
H	0.457600	-1.019682	0.128767	1
H	1.159730	1.884778	-0.694873	1
H	2.766120	-0.795352	-0.439563	1
Es	3.566636	0.987221	-1.021299	99
Es	-1.024200	0.395884	0.132633	99
Es	-1.963793	-1.668268	0.834746	99
Es	-2.040208	-0.413284	0.552891	99
Es	2.638554	0.277971	-0.654919	99
Es	0.286770	0.037966	-0.076828	99
Es	1.282446	0.831245	-0.480737	99
Es	3.192605	0.701967	-0.874109	99
Es	-0.420441	0.257381	0.030708	99
Es	-2.004909	-1.087142	0.705210	99
Es	0.396098	-0.645987	0.056402	99
Es	-1.458185	-0.000378	0.324566	99
Es	-1.159493	0.970924	0.029330	99
Es	2.707231	-0.459904	-0.502652	99
Es	1.946789	0.531443	-0.559875	99
Es	-2.508854	-1.799073	0.988195	99
Es	-2.663689	-0.033016	0.602415	99
Es	0.753150	0.440384	-0.274370	99
Es	3.473950	1.002321	-1.004230	99
Es	-1.014601	0.328687	0.143766	99
Es	1.154471	1.533962	-0.613278	99
Es	3.283426	0.778915	-0.911032	99
Es	-1.654155	-1.901788	0.820937	99
Es	-2.021739	-1.239623	0.745910	99
Es	3.805851	1.092921	-1.098101	99
Es	0.976371	0.478923	-0.330458	99
