42
Properties=species:S:1:pos:R:3:Z:I:1 energy=-340.00345924481076 field_type=dipole dipole="0.000000 0.000000 0.000000" charge=0
N	-1.628811	-0.768337	-0.546843	7
C	-1.138781	0.068303	0.408687	6
N	-1.502151	-0.010447	1.642417	7
C	-0.093721	1.091223	0.013647	6
C	1.304709	0.541653	0.252827	6
C	1.682509	-0.543117	-0.728273	6
O	0.949879	-0.963027	-1.621163	8
H	-0.989771	-0.915997	-1.335803	1
H	-2.015351	-1.644747	-0.222613	1
H	-2.222231	-0.729707	1.737557	1
H	-0.244531	1.988693	0.625007	1
H	-0.238151	1.375123	-1.035013	1
H	1.402739	0.127793	1.262157	1
H	2.039409	1.345273	0.139077	1
H	2.694249	-0.962687	-0.591673	1
Es	0.948956	-0.962254	-1.620749	99
Es	-1.631704	-0.766298	-0.548053	99
Es	-1.501942	-0.010252	1.642874	99
Es	1.682620	-0.542961	-0.728047	99
Es	-1.138774	0.068282	0.408443	99
Es	1.304571	0.541303	0.252484	99
Es	-0.093723	1.090805	0.013601	99
Es	0.961981	-1.177324	-1.844786	99
Es	-1.905122	-0.551091	-0.658414	99
Es	-1.387088	0.004666	1.071244	99
Es	-0.183390	1.692502	0.411447	99
Es	1.379851	0.265990	0.893723	99
Es	2.362861	-0.798885	-0.610867	99
Es	-1.772081	-1.256073	-0.327027	99
Es	1.497274	-0.037298	-0.271254	99
Es	-1.257224	-0.862322	-0.896641	99
Es	1.236919	-0.782876	-1.257921	99
Es	-1.909138	-0.438838	1.643869	99
Es	1.793314	1.059593	0.170872	99
Es	0.592389	0.802139	0.134221	99
Es	1.156987	-0.842306	-1.363593	99
Es	-0.174640	1.266093	-0.672944	99
Es	-0.633785	0.563792	0.192436	99
Es	-1.363139	-0.471300	-0.131100	99
Es	0.810075	-0.824474	-1.545026	99
Es	-1.373213	0.209908	1.939410	99
Es	-1.369038	-0.019271	1.256872	99
