39
Properties=species:S:1:pos:R:3:Z:I:1 energy=-338.6952719651994 field_type=dipole dipole="0.000000 0.000000 0.000000" charge=0
N	-3.124729	-0.503660	-1.051453	7
C	-1.872019	-0.235950	-0.927013	6
N	-1.238389	-0.115091	0.271177	7
O	0.098861	-0.525070	0.215867	8
C	0.890851	0.563869	0.706497	6
C	2.310050	0.195600	0.643357	6
C	3.472921	-0.103940	0.590117	6
H	-3.364499	-0.535331	-2.049233	1
H	-1.219799	-0.069590	-1.802313	1
H	-1.772469	-0.536561	1.029257	1
H	0.606111	0.783979	1.742047	1
H	0.710321	1.453290	0.091497	1
H	4.502791	-0.371540	0.540197	1
Es	0.098743	-0.524545	0.215918	99
Es	-1.238382	-0.113829	0.271472	99
Es	-3.125365	-0.503856	-1.050954	99
Es	0.891172	0.563376	0.706323	99
Es	-1.871064	-0.235704	-0.927832	99
Es	2.309189	0.195893	0.643412	99
Es	3.474658	-0.104529	0.589969	99
Es	0.179408	-0.805920	0.109962	99
Es	-2.549411	-0.347552	-1.000223	99
Es	-3.199981	-0.502519	-1.623793	99
Es	3.225120	-0.046224	0.592665	99
Es	0.712108	0.704543	1.397082	99
Es	-1.526758	-0.410895	0.656350	99
Es	1.647722	0.354044	0.670917	99
Es	3.761316	-0.164096	0.569537	99
Es	-1.422130	-0.128354	-1.492586	99
Es	0.376435	-0.099108	0.399059	99
Es	-1.510224	-0.230400	-0.272863	99
Es	0.783858	1.150569	0.292148	99
Es	-0.508092	-0.344202	0.235588	99
Es	-1.258225	0.249892	0.322183	99
Es	0.092146	-0.499053	0.230819	99
Es	-3.391973	-0.571480	-0.777089	99
Es	2.863957	0.063297	0.621810	99
Es	2.913462	0.033743	0.628245	99
Es	-2.679884	-0.437357	-1.047941	99
