43
Properties=species:S:1:pos:R:3:Z:I:1 energy=-323.9990512004171 field_type=dipole dipole="0.000000 0.000000 0.000000" charge=0
N	-1.768136	0.438711	-1.658448	7
C	-1.627996	-0.535459	-0.713288	6
O	-2.093926	-1.655079	-0.886687	8
C	-0.842806	-0.134539	0.518942	6
C	0.601924	-0.524039	0.418792	6
C	1.639714	0.465181	-0.047128	6
C	1.601984	0.039981	1.394882	6
H	-1.203956	1.276481	-1.647207	1
H	-2.213576	0.170421	-2.526438	1
H	-1.301016	-0.635049	1.379762	1
H	-0.955386	0.943171	0.688372	1
H	0.722994	-1.566249	0.138752	1
H	1.337534	1.479671	-0.279207	1
H	2.451783	0.094161	-0.663108	1
H	2.386873	-0.618389	1.751392	1
H	1.263994	0.761031	2.130612	1
Es	-2.093696	-1.654778	-0.886553	99
Es	-1.770376	0.439427	-1.656688	99
Es	-1.627782	-0.535187	-0.713083	99
Es	0.601814	-0.523738	0.418971	99
Es	-0.842869	-0.134556	0.518620	99
Es	1.639497	0.464761	-0.046489	99
Es	1.601815	0.040004	1.394147	99
Es	-2.243702	-1.858217	-1.010878	99
Es	-1.984266	0.493822	-1.473393	99
Es	1.748450	0.355986	0.708414	99
Es	-1.137385	-0.459647	1.091430	99
Es	1.424081	1.134266	-0.204040	99
Es	0.688629	-1.203582	0.233500	99
Es	-1.637176	0.007292	-1.285954	99
Es	-1.391033	0.880633	-1.666374	99
Es	2.118819	-0.404617	1.634104	99
Es	-1.925415	-1.186529	-0.830497	99
Es	1.365945	0.514030	1.878959	99
Es	-1.229741	-0.323716	-0.111099	99
Es	-0.898767	0.593124	0.618878	99
Es	-1.953325	-1.398958	-0.853605	99
Es	2.174718	0.214791	-0.468522	99
Es	-0.125201	-0.321918	0.453059	99
Es	1.025151	-0.325863	1.088426	99
Es	1.040134	-0.012594	-0.031888	99
Es	-1.960704	0.258720	-2.173008	99
Es	-2.021844	-1.626718	-0.767909	99
