40
Properties=species:S:1:pos:R:3:Z:I:1 energy=-322.82151332169724 field_type=dipole dipole="0.000000 0.000000 0.000000" charge=0
N	-0.668392	-2.056674	-0.252899	7
C	-1.204282	-0.937964	0.310361	6
O	-2.326572	-0.956734	0.801551	8
C	-0.344913	0.294616	0.239771	6
C	-0.980892	1.473986	0.341361	6
C	1.104358	0.188176	0.196541	6
C	1.918437	0.977316	-0.517359	6
H	0.188658	-2.044274	-0.786149	1
H	-1.250182	-2.882794	-0.281539	1
H	-2.063632	1.526806	0.422601	1
H	-0.445943	2.416986	0.361901	1
H	1.535948	-0.612164	0.795791	1
H	1.543698	1.784426	-1.139709	1
H	2.993708	0.828296	-0.492229	1
Es	-2.326120	-0.956525	0.801440	99
Es	-0.667986	-2.056674	-0.251907	99
Es	-1.203958	-0.937914	0.310264	99
Es	-0.344949	0.294599	0.239794	99
Es	1.104198	0.188096	0.196599	99
Es	-0.979935	1.471796	0.341185	99
Es	1.917681	0.977094	-0.516448	99
Es	-1.866175	-0.961697	0.619709	99
Es	-0.896404	-1.558479	-0.062249	99
Es	-1.666093	1.455896	0.384731	99
Es	1.529060	0.702696	-0.113499	99
Es	-0.746716	-0.339165	0.275869	99
Es	0.403582	0.233995	0.201107	99
Es	-0.186865	-2.025906	-0.597622	99
Es	-2.573237	-0.990251	0.873888	99
Es	-1.028780	-2.521930	-0.305528	99
Es	1.634057	1.514511	-0.903381	99
Es	-0.705023	1.007324	0.320905	99
Es	2.627809	0.856560	-0.479096	99
Es	-2.061931	-0.941807	0.693077	99
Es	-0.566685	2.033589	0.352131	99
Es	1.361257	-0.368091	0.597810	99
Es	1.459450	0.505764	-0.258609	99
Es	-2.253104	-0.907252	0.782748	99
Es	-0.616699	-2.002655	-0.052136	99
Es	-0.618197	0.795938	0.223596	99
