35
Properties=species:S:1:pos:R:3:Z:I:1 energy=-357.45822358288524 field_type=dipole dipole="0.000000 0.000000 0.000000" charge=0
N	-1.446108	-1.051136	1.106887	7
C	-0.482308	-0.833036	0.156087	6
O	-0.112378	-1.690636	-0.629013	8
C	0.106312	0.586164	0.149247	6
O	-0.306428	1.402394	0.967837	8
C	1.129432	0.971494	-0.798753	6
C	1.979242	1.295944	-1.584543	6
H	-1.718108	-0.304276	1.737367	1
H	-1.881938	-1.959526	1.176267	1
H	2.732282	1.582614	-2.281383	1
Es	-0.306219	1.402070	0.967463	99
Es	-0.112499	-1.690471	-0.628807	99
Es	-1.446066	-1.051134	1.106839	99
Es	0.106358	0.585954	0.149103	99
Es	-0.482321	-0.832807	0.156203	99
Es	1.982016	1.297174	-1.587032	99
Es	1.129036	0.971322	-0.798396	99
Es	-0.296170	1.652312	1.068650	99
Es	-0.267374	-1.340473	-0.304098	99
Es	-1.013397	-0.934884	0.688817	99
Es	2.134185	1.348497	-1.730129	99
Es	-0.174468	-0.122548	0.138227	99
Es	0.627878	0.763917	-0.342478	99
Es	-1.601292	-0.611363	1.472997	99
Es	1.821342	1.255002	-1.429607	99
Es	-0.112820	1.105437	0.622850	99
Es	-1.694966	-1.585805	1.139882	99
Es	-0.136674	-1.633696	-0.577221	99
Es	-0.199521	-1.449402	-0.426377	99
Es	-0.167927	1.130793	0.693985	99
Es	-0.387938	1.258031	0.992218	99
Es	-0.012406	-1.859274	-0.813306	99
Es	-1.350585	-1.022356	1.013762	99
Es	1.559667	1.113277	-1.206713	99
Es	1.464565	1.099391	-1.109566	99
