39
Properties=species:S:1:pos:R:3:Z:I:1 energy=-338.8098838899122 field_type=dipole dipole="0.000000 0.000000 0.000000" charge=0
N	-2.021262	-0.039112	0.433175	7
N	-0.639932	-0.017082	0.204535	7
C	0.134778	-1.197891	-0.049995	6
C	1.459248	-0.591822	-0.381035	6
C	1.441798	0.747318	-0.368325	6
C	0.070287	1.156448	-0.022215	6
O	-0.328232	2.305738	0.033085	8
H	-2.412022	0.782658	-0.043415	1
H	-2.165512	0.167798	1.424905	1
H	-0.283052	-1.752182	-0.894715	1
H	0.176208	-1.817961	0.849635	1
H	2.331908	-1.185881	-0.611195	1
H	2.235787	1.441968	-0.574435	1
Es	-0.328390	2.305509	0.033137	99
Es	-0.640099	-0.017427	0.204471	99
Es	-2.020859	-0.038350	0.433383	99
Es	0.070359	1.156064	-0.022211	99
Es	0.135008	-1.197309	-0.050022	99
Es	1.459142	-0.591763	-0.381009	99
Es	1.442141	0.747713	-0.368419	99
Es	-0.188467	1.815788	0.023980	99
Es	-0.359574	0.499603	0.106035	99
Es	-2.187679	0.432413	0.197325	99
Es	1.441445	0.121220	-0.365565	99
Es	0.159524	-1.606106	0.545246	99
Es	0.791312	0.956239	-0.200038	99
Es	-1.387321	0.006258	0.324283	99
Es	-0.137327	-1.553306	-0.603467	99
Es	-0.325297	-0.554693	0.081635	99
Es	1.964420	1.146504	-0.505801	99
Es	-2.062543	0.119394	0.968973	99
Es	1.952051	-1.024063	-0.509438	99
Es	-0.351943	2.585025	0.031280	99
Es	0.925656	-0.859880	-0.248541	99
Es	-0.234877	2.032297	0.009071	99
Es	-2.140038	-0.384531	0.319202	99
Es	-0.357385	2.219108	0.043176	99
Es	1.404834	0.153072	-0.368023	99
Es	-0.535602	0.078109	0.257912	99
