39
Properties=species:S:1:pos:R:3:Z:I:1 energy=-338.7168371522243 field_type=dipole dipole="0.000000 0.000000 0.000000" charge=0
N	-2.977689	0.300865	-0.034931	7
N	-1.627549	0.400525	-0.032441	7
C	-1.037249	-0.739205	0.108849	6
O	0.306131	-0.891355	0.134879	8
C	1.065531	0.317435	0.008219	6
C	2.494441	-0.008755	0.101459	6
C	3.663101	-0.274015	0.181079	6
H	-3.380819	1.214585	0.192719	1
H	-3.316239	0.115825	-0.984211	1
H	-1.538279	-1.714735	0.223149	1
H	0.794070	1.012565	0.810749	1
H	0.855800	0.780385	-0.963861	1
H	4.698750	-0.514125	0.254339	1
Es	0.306008	-0.891012	0.134872	99
Es	-1.627526	0.400665	-0.032422	99
Es	-2.977164	0.301309	-0.035411	99
Es	-1.037817	-0.741094	0.109072	99
Es	1.066494	0.316850	0.008333	99
Es	2.493226	-0.008387	0.101376	99
Es	3.664887	-0.274526	0.181205	99
Es	0.459579	-1.183103	0.164970	99
Es	-2.318622	0.328848	-0.063759	99
Es	0.941816	0.615248	-0.636101	99
Es	-1.360504	-0.157457	0.048169	99
Es	3.931042	-0.327283	0.201597	99
Es	-1.358543	-1.358383	0.181012	99
Es	-0.228903	-0.772364	0.117530	99
Es	3.422819	-0.236116	0.169266	99
Es	-3.122707	0.233906	-0.574243	99
Es	0.229867	-0.853407	0.130245	99
Es	-3.169435	0.832161	0.046982	99
Es	1.826214	0.133686	0.058558	99
Es	0.901029	0.769757	0.543269	99
Es	0.553667	-0.434531	0.088198	99
Es	-1.458376	0.748851	-0.059543	99
Es	-1.432563	-0.010885	-0.005477	99
Es	3.061396	-0.118291	0.137464	99
Es	3.105038	-0.148724	0.138094	99
Es	-3.096053	0.013932	0.211223	99
