48
Properties=species:S:1:pos:R:3:Z:I:1 energy=-289.2967939320964 field_type=dipole dipole="0.000000 0.000000 0.000000" charge=0
C	-2.521119	-0.143261	-0.644336	6
C	-1.022469	-0.016251	-0.821016	6
C	-0.306999	1.071150	0.008374	6
C	0.744051	-0.023991	0.319874	6
C	1.130002	-0.140261	1.788314	6
C	1.958511	-0.055361	-0.605846	6
N	-0.277829	-1.037181	-0.050476	7
H	-2.896929	-1.042781	-1.144176	1
H	-3.031569	0.718859	-1.087016	1
H	-2.809269	-0.196181	0.411644	1
H	-0.743039	0.006529	-1.882496	1
H	-0.873489	1.425060	0.878614	1
H	0.046731	1.940179	-0.554876	1
H	0.250741	-0.160441	2.442234	1
H	1.747551	0.711650	2.093264	1
H	1.704911	-1.054101	1.975944	1
H	1.677231	-0.005311	-1.663206	1
H	2.541041	-0.971710	-0.460306	1
H	2.617031	0.795870	-0.402626	1
H	0.064911	-1.822470	-0.601886	1
Es	-0.277291	-1.037286	-0.051206	99
Es	0.743844	-0.024099	0.320096	99
Es	-1.022776	-0.016419	-0.820459	99
Es	1.957950	-0.055335	-0.605501	99
Es	-0.306772	1.070674	0.008098	99
Es	-2.520327	-0.143190	-0.644392	99
Es	1.129740	-0.140174	1.787761	99
Es	0.199057	-0.659230	0.067324	99
Es	1.374267	-0.035570	-0.167999	99
Es	-2.708869	-0.171245	0.057495	99
Es	1.744668	-0.020290	-1.315073	99
Es	0.277069	0.604072	0.198343	99
Es	-0.824947	-0.002149	-1.544491	99
Es	-0.054403	-1.463250	-0.404074	99
Es	-0.727974	0.596791	-0.427570	99
Es	0.954558	-0.082757	1.094995	99
Es	1.521116	-0.774098	1.887706	99
Es	0.522968	-0.142645	2.211495	99
Es	-2.859558	0.448758	-0.946624	99
Es	2.396149	0.530158	-0.464108	99
Es	2.337977	-0.693509	-0.497639	99
Es	-2.769762	-0.762763	-0.987510	99
Es	-0.072285	1.651228	-0.366068	99
Es	1.547058	0.449654	1.976731	99
Es	-0.576631	-0.656557	-0.432232	99
Es	-0.678355	1.302313	0.591056	99
Es	-1.770720	-0.077481	-0.723990	99
Es	-0.492263	-1.131879	0.269220	99
