37
Properties=species:S:1:pos:R:3:Z:I:1 energy=-321.5931914220838 field_type=dipole dipole="0.000000 0.000000 0.000000" charge=0
O	-2.331178	-0.333974	1.271648	8
C	-1.158628	-0.162014	1.053068	6
C	-0.203348	1.019196	0.826838	6
C	0.729932	-0.047594	0.215728	6
N	-0.167268	-1.058264	0.793268	7
C	0.754882	-0.144954	-1.226472	6
C	0.764962	-0.221434	-2.424992	6
H	0.149852	1.478976	1.754398	1
H	-0.584498	1.784966	0.147038	1
H	1.722082	-0.080674	0.679088	1
H	-0.443448	-1.947244	0.399468	1
H	0.766652	-0.286984	-3.489081	1
Es	-2.330795	-0.333958	1.271499	99
Es	-0.167189	-1.058411	0.793609	99
Es	-1.158364	-0.162109	1.052991	99
Es	0.729647	-0.047957	0.215536	99
Es	-0.203057	1.018398	0.826448	99
Es	0.755010	-0.144719	-1.224588	99
Es	0.764627	-0.221531	-2.427790	99
Es	-2.235879	-0.359666	1.249856	99
Es	-0.055407	-1.085750	1.123786	99
Es	0.727655	-0.237457	-2.629994	99
Es	0.328922	0.531590	0.452368	99
Es	1.398191	-0.075574	0.500871	99
Es	-0.335616	-1.493522	0.531899	99
Es	0.742906	-0.085595	-0.547430	99
Es	0.752701	-0.204899	-2.243522	99
Es	0.186290	-0.684873	0.454809	99
Es	-0.624873	-0.710187	0.849890	99
Es	-1.838117	-0.273442	1.180732	99
Es	0.033737	1.310176	1.424160	99
Es	-0.445112	1.507231	0.388672	99
Es	-0.743127	0.500116	0.978205	99
Es	-2.592722	-0.328774	1.344805	99
Es	-2.039922	-0.284375	1.178637	99
Es	0.780343	-0.186001	-1.820844	99
Es	0.761383	-0.185590	-1.818286	99
