43
Properties=species:S:1:pos:R:3:Z:I:1 energy=-323.94328300824975 field_type=dipole dipole="0.000000 0.000000 0.000000" charge=0
O	-1.422217	0.315726	1.293448	8
C	-0.017607	0.156056	1.135608	6
C	0.296283	-1.255364	0.666068	6
C	0.283262	-1.154274	-0.858492	6
N	0.769332	0.200836	-1.192542	7
C	-0.286608	1.206456	-1.256742	6
C	0.489843	1.014576	0.016878	6
H	-1.576997	1.251156	1.513188	1
H	0.469182	0.376636	2.090458	1
H	-0.415567	-2.001804	1.030748	1
H	1.304193	-1.536134	0.994648	1
H	0.946753	-1.907584	-1.296732	1
H	-0.722047	-1.334944	-1.258702	1
H	-0.064578	2.079456	-1.859382	1
H	-1.316147	0.872946	-1.314032	1
H	1.262923	1.716266	0.295578	1
Es	-1.421980	0.316241	1.293570	99
Es	0.768658	0.200587	-1.191975	99
Es	-0.017734	0.156089	1.135282	99
Es	-0.285993	1.206030	-1.256166	99
Es	0.490769	1.014795	0.017089	99
Es	0.283508	-1.153622	-0.858076	99
Es	0.295867	-1.254694	0.665720	99
Es	-1.621164	0.070828	1.333093	99
Es	0.248134	0.600335	-1.267375	99
Es	0.238170	0.609085	0.559264	99
Es	0.983824	-1.445427	0.897213	99
Es	-0.962012	0.971858	-1.308054	99
Es	0.735944	-1.659479	-1.150390	99
Es	0.512346	-0.334439	-1.032537	99
Es	-0.046606	1.263795	-0.482267	99
Es	-1.462985	0.809226	1.394593	99
Es	0.321095	0.320633	1.782537	99
Es	-0.922199	0.290063	1.242096	99
Es	-0.124331	1.790297	-1.660705	99
Es	-0.402752	-1.268129	-1.130772	99
Es	0.275459	-1.211441	-0.093878	99
Es	-0.178503	-1.742260	0.909772	99
Es	1.013664	1.490671	0.198586	99
Es	0.124812	-0.557764	0.927588	99
Es	-1.407237	0.346252	1.230933	99
Es	0.721491	0.459117	-0.667968	99
Es	1.097586	0.239208	-1.391870	99
