41
Properties=species:S:1:pos:R:3:Z:I:1 energy=-359.75912509059685 field_type=dipole dipole="0.000000 0.000000 0.000000" charge=0
O	-1.902688	-0.331826	0.522076	8
C	-0.491278	-0.372286	0.730756	6
C	0.118782	0.949874	0.298396	6
C	0.809542	0.781694	-1.038094	6
O	1.726322	-0.305056	-0.909204	8
N	1.068542	-1.550026	-0.835094	7
C	0.037942	-1.558126	-0.045814	6
H	-2.286088	0.200704	1.240996	1
H	-0.323788	-0.563346	1.795876	1
H	-0.623098	1.753334	0.249846	1
H	0.873322	1.236794	1.041476	1
H	1.382402	1.681103	-1.287784	1
H	0.106032	0.589934	-1.856364	1
H	-0.495948	-2.512766	0.092926	1
Es	1.725838	-0.304938	-0.909142	99
Es	-1.902680	-0.331673	0.522503	99
Es	1.068366	-1.549698	-0.834939	99
Es	-0.491237	-0.372507	0.730186	99
Es	0.037927	-1.557956	-0.045835	99
Es	0.809555	0.781295	-1.037710	99
Es	0.118643	0.949272	0.298214	99
Es	2.019999	-0.304461	-1.026277	99
Es	-2.053562	-0.504081	0.303417	99
Es	-0.309399	-1.907870	0.106516	99
Es	-0.196290	0.250036	0.505009	99
Es	-2.057452	-0.042638	0.907477	99
Es	1.384065	-0.805326	-0.857419	99
Es	0.326932	0.642767	-1.582726	99
Es	-0.365636	-0.486636	1.441396	99
Es	-0.169344	-1.221710	0.223306	99
Es	0.539280	-1.485795	-0.494115	99
Es	0.431404	0.881057	-0.350025	99
Es	1.350953	0.052510	-0.943953	99
Es	1.201054	1.389539	-1.205801	99
Es	-0.386423	1.474664	0.273197	99
Es	-1.403641	-0.334302	0.620708	99
Es	1.690937	-0.297397	-0.783450	99
Es	0.630236	1.146678	0.802479	99
Es	-1.881424	-0.293348	0.526977	99
Es	1.233542	-1.841742	-1.021462	99
Es	0.646887	-1.560986	-0.457038	99
