43
Properties=species:S:1:pos:R:3:Z:I:1 energy=-323.92431100006525 field_type=dipole dipole="0.000000 0.000000 0.000000" charge=0
O	-2.232857	0.690361	-0.564579	8
C	-0.808027	0.692251	-0.322819	6
C	-0.287497	1.642811	0.780031	6
N	0.639733	0.579541	1.235271	7
C	-0.244177	-0.424139	0.598021	6
C	0.507543	-1.549599	-0.011839	6
C	1.422753	-1.406449	-0.981479	6
H	-2.382467	-0.093119	-1.121209	1
H	-0.271807	0.832271	-1.269949	1
H	-1.035727	1.921511	1.531071	1
H	0.205503	2.551511	0.423181	1
H	1.564813	0.637221	0.811800	1
H	-1.000677	-0.810229	1.296281	1
H	0.290413	-2.542089	0.374301	1
H	1.693083	-0.444729	-1.402539	1
H	1.939394	-2.277119	-1.375539	1
Es	-2.232621	0.689979	-0.564848	99
Es	0.639791	0.579586	1.234820	99
Es	-0.808356	0.692053	-0.322410	99
Es	-0.243684	-0.424554	0.597942	99
Es	-0.287260	1.642083	0.779744	99
Es	0.507329	-1.550062	-0.011559	99
Es	1.422770	-1.406349	-0.981399	99
Es	-2.427334	0.903361	-0.456394	99
Es	0.662534	0.550578	1.626816	99
Es	0.343848	-2.214712	0.258233	99
Es	-0.602758	1.227958	0.192963	99
Es	0.975986	-1.438903	-0.499911	99
Es	-0.546533	0.047827	0.072495	99
Es	-0.431505	0.773114	-0.963358	99
Es	-2.269760	0.272664	-0.844814	99
Es	0.151427	-1.012167	0.261421	99
Es	1.766616	-1.997225	-1.243367	99
Es	-1.737640	0.672059	-0.506939	99
Es	1.128730	0.618171	0.933004	99
Es	1.602332	-0.738126	-1.236708	99
Es	-0.791288	1.817113	1.285601	99
Es	-0.758056	-0.670117	1.073779	99
Es	0.298382	1.044440	1.030091	99
Es	-2.206003	0.661377	-0.567690	99
Es	0.054663	2.262385	0.533994	99
Es	0.950404	-1.480015	-0.531462	99
Es	0.310291	0.126682	0.923417	99
