40
Properties=species:S:1:pos:R:3:Z:I:1 energy=-322.78427910841225 field_type=dipole dipole="0.000000 0.000000 0.000000" charge=0
O	-2.170526	0.334265	1.283469	8
C	-1.128076	0.030045	0.727959	6
C	-0.647516	-1.366385	0.364439	6
N	0.622264	-1.197505	-0.391831	7
C	1.017214	0.218515	-0.289711	6
C	0.284274	1.270175	-1.067481	6
C	-0.087386	1.012365	0.366989	6
H	-1.391606	-1.874455	-0.252411	1
H	-0.463626	-1.921755	1.288789	1
H	1.330124	-1.820135	-0.000031	1
H	2.044204	0.422985	-0.005671	1
H	0.810894	2.190545	-1.294231	1
H	-0.400846	0.956985	-1.847381	1
H	0.180604	1.744355	1.117099	1
Es	-2.170116	0.334191	1.283261	99
Es	0.622335	-1.197439	-0.391392	99
Es	-1.128084	0.030052	0.727952	99
Es	1.016978	0.218787	-0.289555	99
Es	-0.647356	-1.365875	0.364302	99
Es	0.284277	1.269706	-1.066741	99
Es	-0.087095	1.012310	0.366997	99
Es	-2.394846	0.399426	1.394017	99
Es	0.114629	-1.245222	-0.030723	99
Es	-0.156420	1.065676	-1.562097	99
Es	-0.901557	-0.675852	0.547685	99
Es	-0.607597	0.543138	0.526271	99
Es	0.792912	-0.599276	-0.301015	99
Es	0.491788	0.561071	0.220515	99
Es	-1.743908	0.210617	1.080360	99
Es	-1.141096	-1.697984	-0.039540	99
Es	1.708119	0.341818	-0.094268	99
Es	-0.526709	-1.731692	0.971955	99
Es	1.020285	-1.510113	-0.111319	99
Es	0.078844	1.490759	0.857375	99
Es	0.633961	1.884414	-1.204380	99
Es	-1.870445	0.247973	1.110279	99
Es	0.738901	0.692050	-0.865851	99
Es	-0.084031	1.247295	-0.354004	99
Es	-2.113445	0.314402	1.253146	99
Es	0.563894	-1.288196	-0.773324	99
