41
Properties=species:S:1:pos:R:3:Z:I:1 energy=-359.8448938353388 field_type=dipole dipole="0.000000 0.000000 0.000000" charge=0
O	-2.464789	0.307349	1.378416	8
C	-1.402839	0.255769	0.759026	6
C	-0.653319	-1.062611	0.583866	6
N	0.313771	-1.087091	-0.528884	7
C	1.150331	0.106729	-0.461694	6
C	0.257911	1.326239	-0.636334	6
O	-0.792629	1.394948	0.342976	8
H	-1.392869	-1.849451	0.403746	1
H	-0.138609	-1.276572	1.527296	1
H	0.890871	-1.923461	-0.445614	1
H	1.679981	0.145119	0.498066	1
H	1.900041	0.078089	-1.258894	1
H	0.856841	2.236598	-0.532114	1
H	-0.204699	1.348348	-1.629864	1
Es	-0.792494	1.394577	0.342676	99
Es	-2.464491	0.307504	1.378209	99
Es	0.313831	-1.087152	-0.528864	99
Es	-1.402408	0.255645	0.758780	99
Es	0.257699	1.325992	-0.635978	99
Es	-0.653267	-1.062195	0.583747	99
Es	1.149768	0.106552	-0.461750	99
Es	-0.892157	1.694751	0.427208	99
Es	-2.697091	0.317117	1.513322	99
Es	-0.056487	-1.058813	-0.024264	99
Es	-1.019299	-0.370988	0.631704	99
Es	-1.136150	-1.582749	0.474239	99
Es	0.691956	0.711752	-0.539434	99
Es	-0.055231	1.329071	-1.304346	99
Es	-0.427254	1.297386	0.005332	99
Es	-1.000049	0.922932	0.454107	99
Es	0.665236	1.942677	-0.559357	99
Es	-0.313850	-1.182861	1.211150	99
Es	-2.021944	0.304594	1.123825	99
Es	1.510140	0.137175	0.198084	99
Es	0.666620	-1.553600	-0.424227	99
Es	0.677739	-0.609950	-0.453196	99
Es	-0.785501	1.300721	0.390511	99
Es	1.653067	0.093300	-1.001365	99
Es	-2.193331	0.282292	1.211697	99
Es	-2.390949	0.286670	1.338752	99
Es	0.116392	-1.077178	-0.875472	99
