39
Properties=species:S:1:pos:R:3:Z:I:1 energy=-338.7744148172605 field_type=dipole dipole="0.000000 0.000000 0.000000" charge=0
O	-2.240948	0.100865	1.257195	8
C	-1.166878	-0.150585	0.741535	6
N	-0.695758	-1.373085	0.310755	7
N	0.547182	-1.343705	-0.382395	7
C	0.977701	0.069335	-0.228995	6
C	0.277922	1.179215	-0.959345	6
C	-0.125228	0.851805	0.454815	6
H	-1.334788	-2.159025	0.245035	1
H	1.193941	-1.959965	0.119035	1
H	2.003922	0.234585	0.080225	1
H	0.824052	2.099824	-1.126685	1
H	-0.402868	0.919875	-1.762255	1
H	0.141752	1.530865	1.251075	1
Es	-2.240634	0.100815	1.257055	99
Es	0.547021	-1.343760	-0.381516	99
Es	-0.695509	-1.373090	0.311055	99
Es	-1.166713	-0.150742	0.741470	99
Es	0.977414	0.069455	-0.228925	99
Es	0.277905	1.178791	-0.958669	99
Es	-0.124914	0.851728	0.454870	99
Es	-2.489560	0.157508	1.353865	99
Es	-0.086656	-1.341461	-0.031601	99
Es	0.712813	0.578184	-0.777032	99
Es	-0.907931	-0.835120	0.447957	99
Es	-0.635987	0.378319	0.587001	99
Es	0.719894	-0.757472	-0.271548	99
Es	0.045507	1.297054	0.972422	99
Es	0.911343	-1.654236	-0.047306	99
Es	-1.073582	-1.817877	0.227814	99
Es	1.666125	0.161384	-0.023575	99
Es	-1.790346	-0.040168	1.073664	99
Es	-0.661778	-1.319755	0.530391	99
Es	-0.157979	1.008723	-1.471845	99
Es	0.648858	1.793907	-1.057383	99
Es	0.507002	-1.442987	-0.765744	99
Es	0.465368	0.389284	0.281515	99
Es	-0.104655	1.120694	-0.258383	99
Es	-2.165206	0.100822	1.223641	99
Es	-1.988865	0.048465	1.125446	99
