42
Properties=species:S:1:pos:R:3:Z:I:1 energy=-339.9524776739398 field_type=dipole dipole="0.000000 0.000000 0.000000" charge=0
O	0.135047	-2.384775	-0.188780	8
C	-0.543452	-1.331145	0.490200	6
C	0.272228	-0.044924	0.398350	6
C	0.420327	0.471605	-1.025140	6
C	0.262118	1.932755	-0.769770	6
N	-0.163882	2.255325	0.407580	7
N	-0.385202	1.086765	1.057220	7
H	-0.419683	-3.179494	-0.099520	1
H	-0.675122	-1.627835	1.536320	1
H	-1.533702	-1.210615	0.036650	1
H	1.271818	-0.199105	0.824490	1
H	-0.366442	0.146235	-1.711880	1
H	1.404957	0.267445	-1.452590	1
H	0.486157	2.667426	-1.555780	1
H	-0.165163	1.150335	2.052650	1
Es	0.134767	-2.385068	-0.188658	99
Es	-0.163915	2.254637	0.407864	99
Es	-0.384887	1.087151	1.057277	99
Es	-0.542817	-1.330811	0.489946	99
Es	0.271854	-0.044694	0.397968	99
Es	0.262061	1.932795	-0.769652	99
Es	0.420155	0.472197	-1.024563	99
Es	0.421778	-2.355882	-0.325714	99
Es	-0.749707	1.016236	0.998417	99
Es	0.343623	0.182051	-0.349584	99
Es	0.086302	2.068430	-0.109266	99
Es	-0.136886	-0.677881	0.445972	99
Es	0.946696	-0.148348	0.695501	99
Es	-0.056113	0.645756	0.794481	99
Es	-0.195871	1.136236	1.604436	99
Es	-0.183160	-2.775774	-0.121807	99
Es	-0.011484	2.107960	-0.139703	99
Es	-1.220294	-1.240028	0.180097	99
Es	0.410281	2.241477	-1.253226	99
Es	1.064895	0.324555	-1.307823	99
Es	-0.128362	-2.025887	0.054001	99
Es	-0.094284	0.257598	-1.460435	99
Es	-0.233969	2.581808	0.584726	99
Es	-0.636450	-1.529307	1.216119	99
Es	0.103550	-2.381986	-0.181353	99
Es	0.337893	1.403032	-0.925294	99
Es	-0.214263	1.662641	0.705436	99
