42
Properties=species:S:1:pos:R:3:Z:I:1 energy=-339.9379305296462 field_type=dipole dipole="0.000000 0.000000 0.000000" charge=0
O	0.150040	-2.705895	-0.509307	8
C	-0.624110	-1.560155	-0.182027	6
C	0.300570	-0.416815	0.053453	6
C	0.671170	0.511785	-1.056647	6
N	-0.234840	0.953505	0.017983	7
C	0.276280	1.832995	0.938223	6
N	-0.389160	2.772385	1.515873	7
H	-0.472060	-3.449105	-0.594907	1
H	-1.198360	-1.772875	0.725103	1
H	-1.321180	-1.364595	-1.003847	1
H	1.021140	-0.619565	0.835803	1
H	0.172680	0.426265	-2.012547	1
H	1.650870	0.969885	-1.060497	1
H	1.345380	1.692785	1.180293	1
H	-1.348420	2.729404	1.153043	1
Es	0.149711	-2.706149	-0.509200	99
Es	-0.234257	0.953378	0.017995	99
Es	-0.389029	2.773248	1.516650	99
Es	0.276651	1.832780	0.938148	99
Es	-0.623469	-1.559933	-0.181988	99
Es	0.300160	-0.416653	0.053328	99
Es	0.670703	0.511719	-1.055915	99
Es	0.464039	-2.701326	-0.565924	99
Es	0.053934	1.320467	0.438059	99
Es	-0.116600	2.333432	1.208396	99
Es	-0.158564	-0.948738	-0.065407	99
Es	0.337807	0.463067	-1.674954	99
Es	-1.014472	-1.697755	0.440514	99
Es	0.987509	1.725395	1.084114	99
Es	0.195869	0.860771	-0.442927	99
Es	-0.146125	-2.307342	-0.398749	99
Es	0.592323	-0.110883	-0.613853	99
Es	-1.104020	-1.419648	-0.738249	99
Es	-0.907848	2.710713	1.289199	99
Es	-0.209101	-3.066250	-0.543453	99
Es	-0.611922	0.967608	-0.082897	99
Es	0.777303	-0.539315	0.584906	99
Es	1.335580	0.825046	-1.056224	99
Es	0.120826	-2.707677	-0.479013	99
Es	-0.279304	3.034914	1.774199	99
Es	-0.146868	2.383061	1.293528	99
Es	-0.054960	0.418184	0.160768	99
