48
Properties=species:S:1:pos:R:3:Z:I:1 energy=-289.2882801268941 field_type=dipole dipole="0.000000 0.000000 0.000000" charge=0
C	-2.073209	0.024558	0.083445	6
C	-0.576259	0.037838	-0.222455	6
C	-0.320839	0.063348	-1.728976	6
C	0.208761	1.116897	0.577214	6
C	1.109071	0.023228	1.174784	6
N	2.407221	0.046198	0.502124	7
C	0.221541	-1.058812	0.538554	6
H	-2.264419	0.006098	1.161995	1
H	-2.552819	-0.857502	-0.354155	1
H	-2.562709	0.914747	-0.325665	1
H	0.746491	0.068828	-1.966265	1
H	-0.764209	0.956017	-2.183015	1
H	-0.760909	-0.815552	-2.212145	1
H	-0.389649	1.631667	1.338854	1
H	0.700811	1.889887	-0.023935	1
H	1.167301	0.006348	2.266365	1
H	2.370321	0.131938	-0.512335	1
H	2.980402	-0.774762	0.692895	1
H	0.723401	-1.803843	-0.088925	1
H	-0.370299	-1.607122	1.281644	1
Es	2.407076	0.046251	0.502276	99
Es	1.109165	0.023243	1.174612	99
Es	-0.576470	0.037829	-0.222457	99
Es	-0.320763	0.063340	-1.728483	99
Es	-2.072700	0.024552	0.083465	99
Es	0.208608	1.116399	0.577490	99
Es	0.221149	-1.058414	0.538919	99
Es	2.592919	0.374688	0.646604	99
Es	0.693878	-0.577682	0.902824	99
Es	0.406373	0.066680	-1.852194	99
Es	-2.381354	-0.589363	-0.221867	99
Es	-0.194910	1.476115	1.082859	99
Es	1.160021	0.005250	1.922180	99
Es	0.570066	-1.548836	0.108453	99
Es	2.680113	-0.461745	0.586491	99
Es	2.339746	0.044759	-0.063140	99
Es	-0.618307	-0.551199	-2.046536	99
Es	-1.367344	0.030904	-0.067422	99
Es	-2.168965	0.011995	0.821590	99
Es	-0.620631	0.686063	-2.025156	99
Es	-0.180800	-1.436699	1.026810	99
Es	-2.387737	0.644632	-0.202453	99
Es	0.538712	1.612882	0.168171	99
Es	-0.233114	-0.593787	0.117788	99
Es	-0.442915	0.050590	-1.007396	99
Es	-0.236823	0.659310	0.140606	99
Es	0.710384	0.624506	0.913959	99
Es	1.879504	-0.025211	0.727195	99
