41
Properties=species:S:1:pos:R:3:Z:I:1 energy=-359.7579258782651 field_type=dipole dipole="0.000000 0.000000 0.000000" charge=0
O	-2.072423	-1.480297	0.083774	8
C	-0.687023	-1.158667	-0.009986	6
C	-0.468302	0.322723	0.055394	6
C	-1.415902	1.265183	0.186564	6
C	0.939727	0.787103	-0.034296	6
N	1.942677	-0.022887	-0.155246	7
O	3.125227	0.724343	-0.211636	8
H	-2.131682	-2.448867	0.030494	1
H	-0.313593	-1.556837	-0.959246	1
H	-0.170012	-1.656747	0.816844	1
H	-2.463892	0.986503	0.257654	1
H	-1.189492	2.325163	0.227904	1
H	1.096877	1.880613	0.008234	1
H	3.807807	0.032673	-0.296456	1
Es	3.125475	0.723834	-0.211678	99
Es	-2.072296	-1.480819	0.083731	99
Es	1.942826	-0.022841	-0.155254	99
Es	-0.687226	-1.158220	-0.009945	99
Es	0.939567	0.787053	-0.034286	99
Es	-0.468073	0.322862	0.055383	99
Es	-1.416049	1.272074	0.186969	99
Es	3.117181	1.033996	-0.195394	99
Es	-2.309497	-1.273243	0.115729	99
Es	1.510812	0.361430	-0.101092	99
Es	-1.305778	1.563041	0.193856	99
Es	-0.431129	-1.417812	-0.645238	99
Es	0.989152	1.478030	-0.003351	99
Es	0.311222	0.554686	0.004338	99
Es	-2.054653	-1.977291	0.052442	99
Es	2.626221	0.432087	-0.186502	99
Es	3.453676	0.341347	-0.254878	99
Es	-0.335053	-1.484635	0.543242	99
Es	-1.111802	1.064771	0.150217	99
Es	3.098205	0.691655	-0.212109	99
Es	-1.872535	1.215188	0.221518	99
Es	-1.575507	-1.384821	0.048849	99
Es	-0.577468	-0.396103	0.024001	99
Es	-2.048527	-1.501312	0.080473	99
Es	1.948241	-0.409964	-0.175477	99
Es	1.494852	0.304506	-0.102964	99
Es	-0.872312	0.794768	0.115439	99
