44
Properties=species:S:1:pos:R:3:Z:I:1 energy=-360.94436925340483 field_type=dipole dipole="0.000000 0.000000 0.000000" charge=0
O	-2.800340	-0.316817	0.609273	8
C	-1.386680	-0.465597	0.567163	6
C	-0.757621	0.920953	0.509683	6
C	0.763989	0.878372	0.537563	6
C	1.308650	0.282893	-0.730517	6
N	1.926869	-0.852707	-0.710547	7
O	2.320169	-1.173657	-2.013847	8
H	-3.178530	-1.212237	0.650023	1
H	-1.130490	-1.057137	-0.317127	1
H	-1.066960	-1.005077	1.464413	1
H	-1.118181	1.512043	1.360653	1
H	-1.112561	1.442403	-0.388107	1
H	1.123479	0.311922	1.403353	1
H	1.156620	1.898392	0.611203	1
H	1.145370	0.846512	-1.666127	1
H	2.806220	-2.010257	-1.887057	1
Es	2.320348	-1.174111	-2.013675	99
Es	-2.800458	-0.317182	0.609190	99
Es	1.926901	-0.852841	-0.710607	99
Es	1.308483	0.283073	-0.730621	99
Es	-1.386799	-0.465184	0.567077	99
Es	0.763885	0.878041	0.537101	99
Es	-0.757120	0.920660	0.509600	99
Es	2.259816	-0.986444	-2.255069	99
Es	-2.952155	-0.037835	0.627389	99
Es	1.603635	-0.376483	-0.763829	99
Es	-1.203951	-0.870438	-0.038194	99
Es	1.064156	0.539493	-0.133647	99
Es	-0.980932	1.262227	-0.093643	99
Es	1.181670	0.664354	-1.331975	99
Es	2.563533	-1.606694	-1.914234	99
Es	-2.958097	-0.801813	0.629239	99
Es	2.150839	-1.030652	-1.483807	99
Es	-1.157571	-0.838987	1.183594	99
Es	1.018619	1.563321	0.589511	99
Es	2.309712	-1.183064	-1.975680	99
Es	0.988092	0.503433	1.105395	99
Es	-2.303219	-0.395492	0.598482	99
Es	0.039891	0.884351	0.508331	99
Es	-0.996926	1.320234	1.081368	99
Es	-1.067359	0.226112	0.533121	99
Es	2.026689	-1.075236	-0.410636	99
Es	-2.784466	-0.344952	0.585668	99
Es	1.707987	-0.361666	-0.699942	99
