40
Properties=species:S:1:pos:R:3:Z:I:1 energy=-322.80928704675676 field_type=dipole dipole="0.000000 0.000000 0.000000" charge=0
O	-1.689881	-0.611848	0.903826	8
C	-0.379901	-0.418788	0.368787	6
C	-0.275361	-1.191798	-0.947443	6
C	1.105119	-1.230978	-1.439353	6
N	2.197859	-1.270228	-1.826174	7
C	-0.194941	1.063722	0.203977	6
C	0.773849	1.775392	0.795197	6
H	-1.750941	-0.061378	1.705246	1
H	0.330289	-0.825508	1.099556	1
H	-0.939711	-0.753698	-1.703844	1
H	-0.638631	-2.215468	-0.795673	1
H	-0.905921	1.578952	-0.439993	1
H	1.513649	1.315142	1.443967	1
H	0.854519	2.846482	0.631927	1
Es	-1.689742	-0.611474	0.904128	99
Es	2.199818	-1.270319	-1.826941	99
Es	-0.380102	-0.418603	0.368699	99
Es	-0.274743	-1.191699	-0.947613	99
Es	1.104673	-1.230973	-1.439231	99
Es	-0.194925	1.063914	0.203929	99
Es	0.773548	1.775184	0.795053	99
Es	-1.895173	-0.822380	0.784648	99
Es	1.673505	-1.288540	-1.662680	99
Es	0.474844	-1.216077	-1.223658	99
Es	0.371725	1.449048	0.557780	99
Es	-0.255381	0.354120	0.287862	99
Es	-0.692119	1.380814	-0.235660	99
Es	-1.676561	-0.311954	1.309277	99
Es	0.100596	-0.687464	0.847094	99
Es	-0.498363	-1.846386	-0.832520	99
Es	-0.296515	-0.814748	-0.338248	99
Es	0.820033	2.450248	0.691560	99
Es	-0.689319	-0.892165	-1.429058	99
Es	2.521208	-1.277805	-1.939408	99
Es	1.191763	1.447401	1.181819	99
Es	-1.217155	-0.518965	0.732476	99
Es	-1.669566	-0.572315	0.899671	99
Es	1.713666	-1.248735	-1.656895	99
Es	1.717685	-1.212448	-1.620044	99
Es	0.279732	1.404067	0.498196	99
