42
Properties=species:S:1:pos:R:3:Z:I:1 energy=-339.9734540170986 field_type=dipole dipole="0.000000 0.000000 0.000000" charge=0
O	-2.852155	0.036705	-0.527513	8
C	-1.616545	-0.423495	0.007157	6
C	-0.611935	0.730145	0.071127	6
N	-1.054215	1.954315	0.081587	7
N	0.737715	0.518215	0.126117	7
C	1.475915	-0.630615	0.174997	6
C	2.808405	-0.710455	0.223657	6
H	-2.667275	0.307775	-1.445503	1
H	-1.242985	-1.235205	-0.621613	1
H	-1.789775	-0.796165	1.020547	1
H	-2.086815	1.912575	0.063987	1
H	1.266575	1.385125	0.162007	1
H	0.893105	-1.548415	0.176007	1
H	3.435625	0.174905	0.226697	1
H	3.304355	-1.675415	0.260747	1
Es	-2.851901	0.036626	-0.527974	99
Es	0.737744	0.518165	0.126140	99
Es	-1.054064	1.954814	0.081575	99
Es	-0.611266	0.729144	0.071132	99
Es	-1.616459	-0.423281	0.007064	99
Es	1.475282	-0.630441	0.174963	99
Es	2.807148	-0.709921	0.223636	99
Es	-3.123190	-0.029023	-0.390926	99
Es	0.091337	0.575183	0.102717	99
Es	-0.854449	1.377371	0.076530	99
Es	2.181933	-0.650259	0.217303	99
Es	-1.033351	0.153133	0.037716	99
Es	3.093621	-1.361495	0.253737	99
Es	1.046541	1.021909	0.153813	99
Es	-2.718655	0.168835	-0.987061	99
Es	-1.354885	-0.959819	-0.415105	99
Es	1.073744	0.000640	0.152349	99
Es	-1.726115	-0.671992	0.674979	99
Es	-1.619875	1.870659	0.072414	99
Es	1.054128	-1.236648	0.169636	99
Es	0.690997	0.476080	0.104560	99
Es	3.195075	-0.093641	0.223063	99
Es	-2.387448	-0.100857	-0.365383	99
Es	-2.811371	0.086595	-0.519036	99
Es	-0.848389	2.288610	0.093175	99
Es	-0.939321	1.531346	0.064500	99
Es	2.231001	-0.697309	0.182503	99
