38
Properties=species:S:1:pos:R:3:Z:I:1 energy=-358.6520290437166 field_type=dipole dipole="0.000000 0.000000 0.000000" charge=0
O	-1.954196	-1.672297	0.827932	8
C	-0.851476	-1.582247	0.307152	6
N	-0.094367	-0.452317	0.274002	7
C	-0.517246	0.925352	0.540342	6
C	0.659274	1.366473	-0.354068	6
O	1.109023	2.430702	-0.723878	8
C	1.030904	-0.111097	-0.594398	6
H	-0.365057	-2.433078	-0.197838	1
H	-0.422147	1.210412	1.589422	1
H	-1.503646	1.171872	0.143292	1
H	0.910963	-0.445448	-1.626488	1
H	1.997974	-0.408327	-0.185468	1
Es	1.108835	2.430244	-0.723716	99
Es	-1.953999	-1.672027	0.827905	99
Es	-0.094407	-0.452176	0.273863	99
Es	0.659256	1.366350	-0.354052	99
Es	-0.850708	-1.582708	0.306644	99
Es	1.030464	-0.110893	-0.593995	99
Es	-0.516768	0.924954	0.540057	99
Es	1.194693	2.657539	-0.800690	99
Es	-1.478889	-1.610924	0.623858	99
Es	0.344949	-0.372407	-0.139451	99
Es	0.911575	0.639428	-0.531653	99
Es	-0.449189	1.111977	1.232288	99
Es	-0.500897	-2.128639	-0.037364	99
Es	1.672158	-0.309257	-0.320975	99
Es	0.939268	2.011401	-0.574319	99
Es	0.946437	-0.333352	-1.271548	99
Es	-2.194190	-1.805415	0.917329	99
Es	0.046347	1.226987	0.108206	99
Es	-0.465192	-0.946122	0.224313	99
Es	-1.158744	1.083687	0.273872	99
Es	-0.340725	0.093958	0.368307	99
Es	-1.686694	-1.647790	0.680185	99
Es	0.972070	2.110164	-0.615891	99
Es	-1.888396	-1.561364	0.824473	99
Es	1.082209	2.352479	-0.701453	99
Es	-0.000810	-0.566452	0.497458	99
