41
Properties=species:S:1:pos:R:3:Z:I:1 energy=-359.8204750043645 field_type=dipole dipole="0.000000 0.000000 0.000000" charge=0
O	-1.867584	-1.042552	0.453704	8
C	-0.856004	-1.501362	-0.337376	6
O	-0.938954	-2.600872	-0.878356	8
C	0.341726	-0.526862	-0.465406	6
C	0.021026	0.946238	-0.804476	6
N	-0.043824	1.197178	0.661564	7
C	0.910756	0.068978	0.841894	6
H	-1.645074	-0.150642	0.808704	1
H	1.116776	-0.956492	-1.113156	1
H	-0.915124	1.129958	-1.338816	1
H	0.832376	1.481218	-1.312626	1
H	0.323376	2.108018	0.948474	1
H	1.965385	0.364098	0.783934	1
H	0.755146	-0.516902	1.751944	1
Es	-1.867172	-1.042141	0.453700	99
Es	-0.938936	-2.600548	-0.878193	99
Es	-0.043284	1.197469	0.661427	99
Es	-0.856083	-1.501119	-0.337204	99
Es	0.909935	0.069028	0.841470	99
Es	0.020818	0.945683	-0.803765	99
Es	0.341675	-0.526904	-0.465401	99
Es	-2.141656	-1.194381	0.520908	99
Es	-1.022705	-2.849262	-0.965437	99
Es	0.398541	0.778104	0.770270	99
Es	0.647129	-0.335846	0.208100	99
Es	-0.604527	1.075695	-1.159440	99
Es	-0.271173	-1.002060	-0.387387	99
Es	-1.459243	-1.175558	0.162186	99
Es	0.199980	1.694355	0.794731	99
Es	0.807788	-0.316823	1.453965	99
Es	-0.926278	-2.152655	-0.646404	99
Es	0.580657	1.298145	-1.139728	99
Es	-1.777772	-1.046986	0.402801	99
Es	1.621487	0.271907	0.786253	99
Es	-1.722601	-0.621344	0.599794	99
Es	0.006906	1.164255	0.045566	99
Es	0.834575	-0.815398	-0.885481	99
Es	0.141845	0.162360	-0.726900	99
Es	-0.902282	-2.306031	-0.741083	99
Es	-0.842136	-2.509826	-0.882166	99
Es	-0.411216	1.103422	0.810147	99
