35
Properties=species:S:1:pos:R:3:Z:I:1 energy=-357.37535544583045 field_type=dipole dipole="0.000000 0.000000 0.000000" charge=0
O	-2.640136	0.588987	1.193904	8
C	-2.195556	1.294557	0.301334	6
O	-1.007236	1.186067	-0.369326	8
N	-0.280766	0.079987	0.110314	7
C	0.828704	0.001507	-0.530866	6
C	1.634314	-1.105413	-0.102716	6
C	2.311354	-2.031543	0.252844	6
H	-2.729186	2.167377	-0.106026	1
H	1.177604	0.675717	-1.327816	1
H	2.900904	-2.857243	0.578354	1
Es	-1.007501	1.185776	-0.368906	99
Es	-2.640026	0.589207	1.193644	99
Es	-0.280808	0.080528	0.109880	99
Es	-2.195550	1.295200	0.300778	99
Es	0.828804	0.001347	-0.530794	99
Es	1.634043	-1.105164	-0.102756	99
Es	2.312300	-2.033182	0.253635	99
Es	-0.872377	1.361285	-0.605666	99
Es	-2.767916	0.449737	1.395766	99
Es	0.264732	0.062263	-0.223140	99
Es	2.477208	-2.271373	0.350731	99
Es	-2.534162	1.872181	0.022440	99
Es	1.198189	-0.511352	-0.329893	99
Es	-1.456077	1.181226	-0.076847	99
Es	2.137966	-1.812643	0.177092	99
Es	-0.703802	0.735557	-0.178518	99
Es	-1.064921	1.163809	-0.313475	99
Es	1.056550	0.381754	-1.000182	99
Es	-2.426372	0.870502	0.814271	99
Es	-2.524399	0.787014	0.949339	99
Es	-0.435227	-0.125110	0.383598	99
Es	0.211253	0.024843	-0.156182	99
Es	-2.581253	0.627907	1.122571	99
Es	1.991222	-1.554396	0.051339	99
Es	1.941195	-1.521609	0.055622	99
