38
Properties=species:S:1:pos:R:3:Z:I:1 energy=-358.58724139639116 field_type=dipole dipole="0.000000 0.000000 0.000000" charge=0
O	-2.936918	0.121550	0.179892	8
N	-1.639558	0.645200	0.129242	7
C	-0.798798	-0.333080	0.014642	6
C	0.665752	-0.132880	-0.054678	6
C	1.459452	-1.214690	-0.073298	6
C	1.262982	1.224910	-0.094238	6
O	2.470062	1.429440	-0.171418	8
H	-3.484398	0.919540	0.307852	1
H	-1.149888	-1.381060	-0.030578	1
H	1.068232	-2.225130	-0.038148	1
H	2.540382	-1.111850	-0.115488	1
H	0.542702	2.058050	-0.053778	1
Es	-2.937067	0.122087	0.179969	99
Es	2.469603	1.429081	-0.171385	99
Es	-1.639777	0.645172	0.129266	99
Es	1.262433	1.224890	-0.094162	99
Es	-0.798377	-0.332998	0.014604	99
Es	1.458857	-1.213775	-0.073464	99
Es	0.665667	-0.132818	-0.054676	99
Es	-2.984690	-0.184025	0.159855	99
Es	1.986808	1.340577	-0.125637	99
Es	-1.576629	1.028809	0.149332	99
Es	2.132780	-1.116256	-0.106111	99
Es	0.969627	0.559562	-0.068239	99
Es	-0.971400	-1.012160	-0.014006	99
Es	0.756324	1.746834	-0.064644	99
Es	-3.190900	0.553819	0.246038	99
Es	-2.395208	0.323822	0.159357	99
Es	2.693140	1.596127	-0.187072	99
Es	1.120856	-0.816244	-0.083039	99
Es	-2.902210	0.149262	0.171819	99
Es	1.142967	-1.792655	-0.059090	99
Es	-0.125313	-0.200949	-0.016170	99
Es	2.103976	1.356591	-0.162516	99
Es	-1.284666	0.194848	0.051413	99
Es	-1.247854	0.233498	0.104964	99
Es	2.439721	1.279678	-0.169311	99
Es	0.969821	-0.552905	-0.040509	99
