38
Properties=species:S:1:pos:R:3:Z:I:1 energy=-358.5354208176862 field_type=dipole dipole="0.000000 0.000000 0.000000" charge=0
O	-2.737221	-0.607149	-0.408728	8
N	-1.370601	-0.665179	-0.703448	7
C	-0.699791	-0.446189	0.386942	6
C	0.819509	-0.418909	0.392912	6
O	1.346969	-1.113659	-0.727138	8
C	1.301519	0.942261	0.392912	6
C	1.698809	2.064161	0.392912	6
H	-3.150361	-0.792419	-1.273608	1
H	-1.204031	-0.234179	1.346532	1
H	1.151099	-0.943539	1.294592	1
H	0.783059	-0.851809	-1.479558	1
H	2.061039	3.066611	0.385682	1
Es	-2.737304	-0.607251	-0.409219	99
Es	1.346585	-1.113184	-0.727290	99
Es	-1.370685	-0.665097	-0.703399	99
Es	0.819599	-0.419023	0.392821	99
Es	-0.699540	-0.446038	0.387031	99
Es	1.301310	0.941861	0.393045	99
Es	1.699494	2.066071	0.392833	99
Es	-2.836411	-0.551878	-0.118994	99
Es	1.601215	-1.283250	-0.716050	99
Es	-1.239108	-0.743440	-1.067139	99
Es	1.755486	2.335237	0.396663	99
Es	1.065475	0.300725	0.399219	99
Es	-0.971344	-0.301725	1.013547	99
Es	1.056724	-0.955775	-1.078331	99
Es	-2.164811	-0.628348	-0.520723	99
Es	1.596215	1.858824	0.383770	99
Es	-1.088917	-0.548979	-0.197483	99
Es	-0.013978	-0.424494	0.378463	99
Es	1.043094	-0.738143	0.991757	99
Es	-2.702638	-0.606688	-0.432811	99
Es	1.131137	-0.824812	-0.340935	99
Es	1.295344	-1.117715	-0.714221	99
Es	-2.922014	-0.704985	-0.871200	99
Es	1.539292	1.499478	0.415394	99
Es	1.494349	1.483532	0.380722	99
Es	-1.072757	-0.580924	-0.248355	99
