44
Properties=species:S:1:pos:R:3:Z:I:1 energy=-645.4772635491416 field_type=dipole dipole="0.000000 0.000000 0.000000" charge=0
C	-1.728167	0.540759	-0.005681	6
C	-0.236027	0.552759	0.000999	6
C	0.530533	1.705128	0.004049	6
S	2.211073	1.389338	0.012429	16
C	1.941823	-0.298491	0.012359	6
C	0.602383	-0.604742	0.005579	6
N	0.144543	-1.869511	0.003969	7
H	-2.136927	1.556418	0.002789	1
H	-2.109897	0.016519	0.876299	1
H	-2.101397	0.034369	-0.901611	1
H	0.182283	2.728868	0.001889	1
H	2.782473	-0.976891	0.017349	1
H	-0.843137	-2.098442	-0.019761	1
H	0.760433	-2.676081	-0.010651	1
Es	2.211076	1.389337	0.012429	99
Es	0.144595	-1.869429	0.004180	99
Es	0.602440	-0.604447	0.005578	99
Es	0.530501	1.704489	0.004052	99
Es	-0.236100	0.552860	0.000999	99
Es	-1.727818	0.540670	-0.005685	99
Es	1.942134	-0.298318	0.012364	99
Es	2.239994	1.264552	0.013193	99
Es	2.108008	1.460011	0.011894	99
Es	2.288250	1.450396	0.011540	99
Es	2.210988	1.389282	0.013141	99
Es	0.351215	-1.310127	-0.004827	99
Es	0.250854	2.298631	0.002275	99
Es	-0.947926	0.552086	-0.001936	99
Es	1.363726	-0.439369	0.011161	99
Es	0.139238	-0.056066	0.002066	99
Es	2.061321	0.579397	0.013021	99
Es	2.408855	-0.765203	0.016320	99
Es	0.523236	-2.337517	-0.013969	99
Es	-0.450760	-1.983668	-0.021977	99
Es	0.208133	1.216935	0.003286	99
Es	-1.969249	0.197001	-0.602454	99
Es	-1.975286	0.184927	0.581695	99
Es	0.172512	-1.805166	0.043966	99
Es	-2.001719	1.217366	-0.000291	99
Es	2.550193	1.639385	0.014659	99
Es	1.406519	1.516864	0.008231	99
Es	2.003187	1.314060	0.010693	99
Es	0.191498	1.040968	0.002359	99
Es	1.394971	-0.302295	0.006998	99
