41
Properties=species:S:1:pos:R:3:Z:I:1 energy=-644.2887670134668 field_type=dipole dipole="0.000000 0.000000 0.000000" charge=0
C	-0.633630	-2.089107	0.244574	6
C	-1.143710	-0.874217	-0.003566	6
C	-0.431220	0.368943	-0.108466	6
N	-1.090030	1.503113	-0.361286	7
S	-0.024610	2.766253	-0.426806	16
C	1.371680	1.834523	-0.116556	6
C	0.990450	0.518323	0.039214	6
H	-1.289370	-2.953277	0.298174	1
H	0.424840	-2.265357	0.399264	1
H	-2.221560	-0.803337	-0.144376	1
H	2.357610	2.273453	-0.065436	1
H	1.689550	-0.279317	0.245264	1
Es	-0.024650	2.766171	-0.426799	99
Es	-1.089907	1.503076	-0.361265	99
Es	-0.431271	0.369013	-0.108483	99
Es	1.371506	1.834747	-0.116612	99
Es	0.990532	0.518495	0.039198	99
Es	-1.144151	-0.874061	-0.003643	99
Es	-0.633322	-2.088712	0.244550	99
Es	0.095735	2.734419	-0.407545	99
Es	-0.134526	2.694233	-0.428963	99
Es	-0.033599	2.872142	-0.444033	99
Es	-0.024608	2.766123	-0.426808	99
Es	-1.448893	1.535358	-0.409345	99
Es	-0.844678	-1.474937	0.124159	99
Es	2.006903	2.067089	-0.076122	99
Es	0.318774	0.425342	-0.027040	99
Es	-1.853883	-0.797142	-0.100998	99
Es	0.680327	2.304867	-0.271623	99
Es	0.086270	-2.170926	0.343886	99
Es	1.197162	1.248124	-0.048173	99
Es	-1.075082	-2.657976	0.278674	99
Es	1.423824	-0.022169	0.174168	99
Es	-0.526907	2.032041	-0.374700	99
Es	-0.767728	1.126504	-0.264931	99
Es	-0.787055	-0.288577	-0.050419	99
Es	-0.113670	3.148045	-0.495835	99
Es	-0.793551	1.073873	-0.259873	99
Es	-0.879647	-1.427129	0.113822	99
Es	1.025711	1.045913	-0.036900	99
Es	0.086997	2.527450	-0.376886	99
