47
Properties=species:S:1:pos:R:3:Z:I:1 energy=-305.27988905338987 field_type=dipole dipole="0.000000 0.000000 0.000000" charge=0
C	-2.151226	0.294183	-0.370129	6
C	-0.634576	0.269313	-0.393579	6
C	0.079794	1.350943	0.465941	6
C	1.100754	0.277583	0.909920	6
N	2.252934	0.305783	-0.003039	7
C	0.048424	-0.795867	0.509561	6
N	0.619694	-1.857347	-0.324129	7
H	-2.558246	-0.577787	-0.893269	1
H	-2.529126	1.192453	-0.869899	1
H	-2.541426	0.287083	0.653561	1
H	-0.276856	0.283873	-1.433139	1
H	-0.527796	1.725653	1.299971	1
H	0.465384	2.215443	-0.083389	1
H	1.375194	0.296193	1.967991	1
H	2.024844	0.482853	-0.977780	1
H	2.756994	-0.581777	0.015091	1
H	-0.556506	-1.152207	1.351061	1
H	1.134424	-1.517897	-1.133169	1
H	-0.082686	-2.498467	-0.691569	1
Es	2.252721	0.305718	-0.002919	99
Es	0.619646	-1.857312	-0.324167	99
Es	1.100786	0.277531	0.909696	99
Es	0.048316	-0.796312	0.509841	99
Es	-0.635141	0.269478	-0.393559	99
Es	0.079960	1.350201	0.465880	99
Es	-2.150662	0.294121	-0.370094	99
Es	1.764677	0.235697	0.306518	99
Es	0.356449	-1.419148	-0.046267	99
Es	0.642581	0.875334	0.726448	99
Es	-0.371809	-0.324345	0.027491	99
Es	0.340527	1.925547	0.094638	99
Es	1.301844	0.282905	1.631658	99
Es	-0.357744	-1.039308	1.052429	99
Es	0.616623	-0.326774	0.761103	99
Es	2.482263	-0.218129	-0.011837	99
Es	-0.390327	0.263763	-1.077936	99
Es	2.075040	0.355648	-0.546583	99
Es	-2.406470	0.913101	-0.709512	99
Es	-2.419339	-0.310490	-0.724924	99
Es	0.859213	-1.629221	-0.790733	99
Es	-2.399674	0.286189	0.327879	99
Es	-1.398969	0.288909	-0.385935	99
Es	-0.327259	1.597752	1.021726	99
Es	0.184957	-2.168303	-0.558392	99
Es	-0.327094	0.897084	-0.008672	99
Es	2.475959	0.602426	0.136713	99
Es	0.873912	-2.063975	-0.084029	99
