50
Properties=species:S:1:pos:R:3:Z:I:1 energy=-704.6430529543828 field_type=dipole dipole="0.000000 0.000000 0.000000" charge=0
C	-1.433361	-0.717549	0.601294	6
C	0.090169	-0.668289	0.612844	6
C	0.674609	-1.475590	-0.540696	6
S	0.709759	1.023961	0.633084	16
C	0.156319	1.760221	-0.889196	6
O	0.048709	1.728170	1.716574	8
O	2.158909	0.969071	0.582714	8
H	-1.855561	-0.148709	1.435754	1
H	-1.785471	-1.750689	0.691474	1
H	-1.844571	-0.305819	-0.325456	1
H	0.444299	-1.103839	1.555484	1
H	0.341769	-1.094329	-1.510986	1
H	0.365679	-2.524129	-0.471646	1
H	1.768909	-1.450229	-0.529336	1
H	0.578629	1.212281	-1.732036	1
H	0.514779	2.792201	-0.909276	1
H	-0.933581	1.753271	-0.920596	1
Es	0.709805	1.023974	0.633160	99
Es	2.158443	0.969036	0.582733	99
Es	0.048897	1.727898	1.716242	99
Es	0.090148	-0.668033	0.612635	99
Es	0.156539	1.759874	-0.888553	99
Es	0.674395	-1.474984	-0.540134	99
Es	-1.432539	-0.717315	0.601295	99
Es	0.723658	0.987853	0.682670	99
Es	0.689512	1.052795	0.576379	99
Es	0.709584	1.023867	0.632978	99
Es	0.715036	1.032227	0.637393	99
Es	2.369311	1.038041	0.494705	99
Es	-0.068670	1.916436	1.803940	99
Es	0.384141	-1.039788	0.042469	99
Es	-0.554611	1.730913	-0.895456	99
Es	-1.709910	-0.335609	1.150351	99
Es	0.330642	-0.927188	1.228449	99
Es	0.398090	1.399225	-0.197872	99
Es	-1.658193	-1.416708	0.658403	99
Es	0.126943	1.577310	1.686686	99
Es	0.278460	1.467185	1.331121	99
Es	1.397822	-1.451725	-0.534483	99
Es	0.430169	1.378691	-1.423871	99
Es	0.397130	2.440049	-0.893436	99
Es	-1.695735	-0.436960	-0.024282	99
Es	0.108391	1.654868	1.597760	99
Es	0.457554	-2.177356	-0.485903	99
Es	0.445052	-1.208437	-1.184906	99
Es	-0.651235	-0.667598	0.603265	99
Es	2.027250	0.894363	0.664184	99
Es	1.640264	0.977505	0.599427	99
Es	2.007113	0.972450	0.578165	99
Es	0.369239	0.140786	0.590852	99
