45
Properties=species:S:1:pos:R:3:Z:I:1 energy=-739.2965939143933 field_type=dipole dipole="0.000000 0.000000 0.000000" charge=0
C	-0.083566	-2.076990	0.724428	6
C	-0.329396	-0.783970	-0.015992	6
O	-1.226936	-0.748930	-0.866772	8
S	0.576764	0.767870	0.245008	16
C	-0.166016	1.906600	-0.891392	6
O	0.265544	1.177560	1.601718	8
O	1.939694	0.498690	-0.173212	8
H	0.811394	-1.976150	1.343588	1
H	0.072944	-2.884760	0.005618	1
H	-0.940506	-2.295840	1.365588	1
H	-0.034806	1.531920	-1.908171	1
H	0.339204	2.868920	-0.783491	1
H	-1.224316	2.015080	-0.646922	1
Es	0.577515	0.767803	0.245715	99
Es	-1.226551	-0.748928	-0.866411	99
Es	0.265764	1.177416	1.601410	99
Es	1.939393	0.498775	-0.172965	99
Es	-0.329381	-0.783814	-0.016050	99
Es	-0.165830	1.906073	-0.891017	99
Es	-0.083548	-2.076687	0.724366	99
Es	0.576339	0.757066	0.248585	99
Es	0.576528	0.767901	0.245032	99
Es	0.525704	0.766793	0.198301	99
Es	0.625885	0.779849	0.285679	99
Es	0.395278	1.019516	1.105406	99
Es	-1.417458	-0.824610	-1.015189	99
Es	2.123422	0.471645	-0.343473	99
Es	-0.847830	1.960458	-0.720211	99
Es	-0.168746	-1.374273	0.362598	99
Es	0.164333	1.348523	-0.366010	99
Es	0.117346	1.291822	1.772897	99
Es	0.302484	1.074820	1.487708	99
Es	-0.643375	-2.202494	1.133269	99
Es	1.439519	0.594790	-0.003115	99
Es	-0.870806	-0.754226	-0.545083	99
Es	0.016163	-2.593020	0.248138	99
Es	0.186881	2.529398	-0.797234	99
Es	-0.074492	1.646023	-1.540406	99
Es	0.498942	-2.010151	1.130532	99
Es	-1.163021	-0.662552	-0.840641	99
Es	-0.953137	-0.743087	-0.600666	99
Es	1.800856	0.477068	-0.107043	99
Es	0.363450	1.145849	1.473697	99
Es	1.820557	0.552882	-0.074572	99
Es	0.090341	-0.074776	0.107662	99
