40
Properties=species:S:1:pos:R:3:Z:I:1 energy=-717.057509810519 field_type=dipole dipole="0.000000 0.000000 0.000000" charge=0
C	-1.204713	-1.115012	0.561581	6
C	0.057397	-0.892472	0.170201	6
S	0.768607	0.671808	0.314311	16
O	-0.023523	1.600908	1.091191	8
O	2.212687	0.600828	0.364001	8
C	0.568377	1.408128	-1.325129	6
N	0.420577	1.842778	-2.396889	7
H	-1.644223	-2.104712	0.475141	1
H	-1.831923	-0.332122	0.982901	1
H	0.676737	-1.680132	-0.237309	1
Es	0.782808	0.713517	0.314185	99
Es	-0.023230	1.600511	1.090985	99
Es	2.212177	0.600845	0.364095	99
Es	0.420213	1.843814	-2.399458	99
Es	-1.204831	-1.114596	0.561568	99
Es	0.057467	-0.892160	0.170271	99
Es	0.568419	1.407822	-1.324540	99
Es	0.720849	0.646621	0.239801	99
Es	0.792734	0.658525	0.389290	99
Es	0.768859	0.671697	0.315061	99
Es	0.777076	0.668725	0.310778	99
Es	-0.196356	1.753939	1.162973	99
Es	2.431367	0.557586	0.289070	99
Es	0.499444	1.650347	-1.860034	99
Es	-0.607532	-0.966428	0.315705	99
Es	0.379558	-0.148433	0.234675	99
Es	0.631077	1.089636	-0.677342	99
Es	0.481450	-1.389598	-0.103069	99
Es	1.674852	0.627657	0.368935	99
Es	-1.469538	-1.774670	0.493065	99
Es	0.277248	1.241702	0.812927	99
Es	-1.607278	-0.587926	0.819629	99
Es	0.377262	1.975749	-2.721056	99
Es	2.058684	0.607927	0.359596	99
Es	2.041065	0.616485	0.426610	99
Es	0.055489	1.491171	1.014909	99
Es	0.479595	1.606289	-1.883205	99
Es	0.100456	1.487973	1.043553	99
Es	0.485196	1.637524	-1.910628	99
Es	-0.384775	-0.934002	0.407029	99
