48
Properties=species:S:1:pos:R:3:Z:I:1 energy=-740.4758853297742 field_type=dipole dipole="0.000000 0.000000 0.000000" charge=0
C	-1.975257	-1.016404	-0.123665	6
C	-0.471007	-0.840284	-0.173425	6
S	-0.008347	0.882006	-0.106225	16
O	-0.473597	1.525596	-1.319475	8
O	-0.370657	1.400396	1.201945	8
C	1.788122	0.811816	-0.160865	6
O	2.412792	0.236936	0.994865	8
H	-2.235917	-2.078014	-0.171825	1
H	-2.460337	-0.506944	-0.962395	1
H	-2.389807	-0.604304	0.801905	1
H	-0.068617	-1.251854	-1.103685	1
H	0.000313	-1.342404	0.676325	1
H	2.147413	1.839216	-0.270195	1
H	2.078093	0.239296	-1.045685	1
H	2.026813	0.704946	1.762395	1
Es	-0.008462	0.882093	-0.106216	99
Es	2.412590	0.237296	0.995082	99
Es	-0.473451	1.525446	-1.319050	99
Es	-0.370550	1.400294	1.201489	99
Es	1.787959	0.811645	-0.160445	99
Es	-0.470936	-0.839844	-0.173434	99
Es	-1.974568	-1.016156	-0.123660	99
Es	-0.005482	0.887287	-0.105009	99
Es	-0.075116	0.917894	-0.105207	99
Es	0.057445	0.838757	-0.107255	99
Es	-0.008146	0.882126	-0.107498	99
Es	-0.518051	1.576403	-1.541346	99
Es	2.653257	0.048698	0.971911	99
Es	-0.365156	1.366667	1.454476	99
Es	-0.149661	-1.151671	0.382019	99
Es	1.953875	0.419381	-0.746089	99
Es	-1.198068	-0.897143	-0.149325	99
Es	-0.441238	1.489935	-1.174076	99
Es	2.196567	0.488172	1.357141	99
Es	-0.309825	1.301447	-0.874150	99
Es	-0.250695	-0.031884	-0.139054	99
Es	-0.189005	-1.091194	-0.787705	99
Es	2.139252	0.455768	0.596376	99
Es	-0.249173	1.220840	0.720377	99
Es	2.359001	0.237641	0.988714	99
Es	-2.137011	-1.735925	-0.156640	99
Es	-2.290389	-0.680595	-0.675407	99
Es	-2.243204	-0.744692	0.485235	99
Es	1.993600	1.512846	-0.237085	99
Es	-0.325530	1.354254	1.074817	99
Es	0.963013	0.822052	-0.126091	99
Es	-0.382939	1.442281	1.037981	99
Es	-0.422551	1.462718	-1.194742	99
