42
Properties=species:S:1:pos:R:3:Z:I:1 energy=-681.3039899303071 field_type=dipole dipole="0.000000 0.000000 0.000000" charge=0
C	-0.596522	-1.903870	0.287245	6
O	-1.353452	-0.736720	0.011235	8
C	-0.619182	0.392530	-0.125135	6
N	-1.348152	1.472790	-0.382285	7
S	-0.334792	2.775990	-0.524945	16
C	1.111148	1.906050	-0.241905	6
C	0.792798	0.579430	-0.033545	6
H	-1.292892	-2.743380	0.375475	1
H	-0.061292	-1.814150	1.238805	1
H	0.096008	-2.130600	-0.530655	1
H	2.078248	2.387650	-0.242205	1
H	1.528088	-0.185720	0.167915	1
Es	-0.334771	2.775874	-0.524922	99
Es	-1.352877	-0.736632	0.011271	99
Es	-1.348603	1.473072	-0.382375	99
Es	-0.619265	0.392421	-0.125123	99
Es	1.110995	1.906354	-0.241973	99
Es	-0.596650	-1.903431	0.287155	99
Es	0.792687	0.579677	-0.033599	99
Es	-0.432096	2.692221	-0.518601	99
Es	-0.211473	2.758682	-0.510985	99
Es	-0.356402	2.881876	-0.545728	99
Es	-0.334791	2.775869	-0.524914	99
Es	-1.674482	-0.743922	-0.016190	99
Es	-0.818174	2.023636	-0.433607	99
Es	0.971299	1.310862	-0.148504	99
Es	-0.999418	1.011094	-0.269122	99
Es	-0.115701	-2.043084	-0.266317	99
Es	0.096181	0.446086	-0.071356	99
Es	-1.024468	-0.330570	-0.032000	99
Es	1.266928	0.066460	0.099939	99
Es	-1.294425	-0.692441	0.008652	99
Es	-1.027554	-1.132465	0.110991	99
Es	1.740744	2.172712	-0.233845	99
Es	0.390856	2.349605	-0.384765	99
Es	-1.006601	1.218789	-0.306726	99
Es	-1.068496	-2.474605	0.347353	99
Es	-0.221909	-1.829414	0.928436	99
Es	-0.426636	3.161978	-0.601859	99
Es	-1.709664	1.534566	-0.425298	99
Es	0.788804	1.057923	-0.118850	99
Es	-0.163026	2.581895	-0.475125	99
