43
Properties=species:S:1:pos:R:3:Z:I:1 energy=-661.4690237910766 field_type=dipole dipole="0.000000 0.000000 0.000000" charge=0
N	-2.038791	-0.532412	0.118158	7
C	-0.684101	-0.586942	0.081778	6
C	0.194779	0.473328	-0.028122	6
N	-0.195391	1.769048	-0.070712	7
C	1.551419	0.062328	-0.084422	6
C	1.672679	-1.307212	0.007568	6
S	0.151509	-2.078432	0.156368	16
H	-2.474831	0.262738	-0.339422	1
H	-2.532581	-1.401522	-0.058042	1
H	0.484899	2.504728	0.093228	1
H	-1.109871	2.003148	0.306048	1
H	2.400309	0.725818	-0.180092	1
H	2.579969	-1.894612	-0.002332	1
Es	0.151500	-2.078451	0.156369	99
Es	-2.039247	-0.532108	0.119361	99
Es	-0.196178	1.769565	-0.073555	99
Es	-0.684067	-0.587009	0.081719	99
Es	0.194708	0.473348	-0.028110	99
Es	1.672231	-1.307364	0.007636	99
Es	1.554263	0.064421	-0.084630	99
Es	0.247361	-2.039567	0.141769	99
Es	0.061620	-1.989160	0.156209	99
Es	0.136862	-2.204904	0.205887	99
Es	0.147096	-2.088518	0.120518	99
Es	-1.491975	-0.575742	0.038564	99
Es	-0.025404	1.253278	0.021693	99
Es	0.906314	-1.676163	0.079512	99
Es	2.000784	0.465895	-0.142211	99
Es	-0.263754	-0.040206	-0.084960	99
Es	0.965286	0.250253	-0.045865	99
Es	-2.214024	-0.127253	-0.215190	99
Es	-0.668797	1.855618	0.221766	99
Es	-2.265339	-1.004140	-0.053022	99
Es	0.190235	2.133414	0.102996	99
Es	2.269149	-1.702349	0.000015	99
Es	1.592352	-0.596465	-0.153544	99
Es	1.570827	-0.630323	0.083541	99
Es	-0.198771	-1.423300	0.109196	99
Es	-2.089738	-0.450180	0.483789	99
Es	-0.029899	-2.412601	0.223779	99
Es	-0.266638	1.784047	-0.437226	99
Es	0.222226	-1.905835	0.112303	99
Es	-0.089262	-0.123549	0.129039	99
