38
Properties=species:S:1:pos:R:3:Z:I:1 energy=-301.742297211529 field_type=dipole dipole="0.000000 0.000000 0.000000" charge=0
C	-1.929580	-0.341116	0.017860	6
C	-0.594320	-0.225516	-0.003000	6
C	0.145040	1.057994	-0.039080	6
C	1.629360	0.843394	0.011410	6
N	2.251820	-0.292326	0.037660	7
N	1.523360	-1.484826	0.024630	7
C	0.232720	-1.444776	0.011120	6
H	-2.566820	0.538524	0.008640	1
H	-2.428190	-1.305526	0.045130	1
H	-0.125500	1.690984	0.813030	1
H	-0.076320	1.611894	-0.957810	1
H	2.248140	1.756274	0.020180	1
H	-0.309710	-2.404976	0.010230	1
Es	2.251555	-0.292515	0.037654	99
Es	1.523607	-1.484538	0.024641	99
Es	1.629235	0.843492	0.011417	99
Es	0.232372	-1.444355	0.011123	99
Es	-0.594230	-0.225707	-0.002992	99
Es	0.145403	1.057874	-0.039092	99
Es	-1.932729	-0.345090	0.017977	99
Es	1.882078	0.211942	0.032684	99
Es	-0.163506	-1.883322	0.007847	99
Es	1.046587	0.952162	-0.008864	99
Es	-1.541405	-0.374112	0.016908	99
Es	1.800445	-0.834010	0.028602	99
Es	-2.021763	-0.728686	0.031905	99
Es	0.883866	-1.380285	0.018388	99
Es	-0.039954	1.456459	0.507918	99
Es	1.897484	1.402866	0.015096	99
Es	-0.005087	1.399712	-0.628312	99
Es	-2.266811	0.073473	0.014240	99
Es	-0.105229	-1.003317	0.005037	99
Es	-0.243954	0.425873	-0.021325	99
Es	0.974513	-1.414864	0.018725	99
Es	2.632910	-0.330344	0.049674	99
Es	-1.214424	-0.325537	0.001359	99
Es	1.735065	-1.806105	0.026368	99
Es	1.965293	0.143979	0.016801	99
