41
Properties=species:S:1:pos:R:3:Z:I:1 energy=-302.9817780376774 field_type=dipole dipole="0.000000 0.000000 0.000000" charge=0
C	-2.182293	0.007319	0.046106	6
C	-0.697773	-0.074091	0.044336	6
C	0.031007	-1.200251	-0.012434	6
C	1.414727	-0.715361	-0.003184	6
N	2.427657	-1.484091	-0.166684	7
N	1.470797	0.636519	0.161356	7
C	0.128917	1.184439	0.099886	6
H	-2.640863	-0.985521	-0.012464	1
H	-2.533153	0.591069	-0.810544	1
H	-2.536453	0.488349	0.963126	1
H	-0.267133	-2.230031	-0.075984	1
H	3.277946	-0.920351	-0.102174	1
H	2.201987	1.135599	-0.326004	1
H	-0.008443	1.791429	-0.799894	1
H	-0.086923	1.774969	0.994556	1
Es	1.470843	0.637151	0.162238	99
Es	2.427686	-1.484616	-0.166827	99
Es	1.414558	-0.715306	-0.003146	99
Es	0.129070	1.183865	0.099954	99
Es	-0.697857	-0.073980	0.044344	99
Es	-2.181843	0.007372	0.046130	99
Es	0.028862	-1.206582	-0.012869	99
Es	1.836457	0.867522	-0.172973	99
Es	1.990610	-1.100839	-0.061396	99
Es	-0.275853	-0.738943	0.006712	99
Es	-2.400480	0.397470	-0.528347	99
Es	-0.342437	0.532549	0.074289	99
Es	0.665800	-0.986429	-0.001415	99
Es	1.420557	0.072735	0.021945	99
Es	1.551604	0.656108	0.508808	99
Es	-0.017611	1.573474	0.692682	99
Es	-0.156439	-1.732705	-0.051417	99
Es	-2.478750	-0.652706	0.007848	99
Es	-1.428399	-0.047964	0.045809	99
Es	-2.403680	0.331386	0.659939	99
Es	2.883157	-1.114407	-0.123315	99
Es	0.038604	1.588134	-0.501131	99
Es	0.942027	0.847025	0.059055	99
Es	2.431637	-1.865192	-0.226220	99
Es	-0.237524	-0.679216	0.023704	99
Es	2.102101	-1.220283	-0.143861	99
