44
Properties=species:S:1:pos:R:3:Z:I:1 energy=-304.1133289332881 field_type=dipole dipole="0.000000 0.000000 0.000000" charge=0
C	-2.170252	0.088968	-0.675641	6
C	-0.661732	0.085978	-0.843241	6
C	0.133588	0.931708	0.157829	6
N	0.638988	-0.280012	0.738059	7
C	0.079648	-1.129022	-0.276571	6
C	1.983577	-0.368242	0.969169	6
N	2.744347	0.514568	1.519359	7
H	-2.628712	-0.667232	-1.320451	1
H	-2.585032	1.063348	-0.954841	1
H	-2.465242	-0.121742	0.357579	1
H	-0.388412	0.299068	-1.885391	1
H	-0.451473	1.513128	0.875169	1
H	0.898288	1.565778	-0.302411	1
H	0.816548	-1.562872	-0.961391	1
H	-0.540402	-1.920582	0.152419	1
H	2.424767	-1.333332	0.666259	1
H	2.171508	1.320498	1.784099	1
Es	0.638864	-0.279740	0.737493	99
Es	2.745136	0.514675	1.519670	99
Es	1.983724	-0.369219	0.968820	99
Es	0.079793	-1.128169	-0.276456	99
Es	0.133566	0.930671	0.157599	99
Es	-0.661520	0.085953	-0.843168	99
Es	-2.169528	0.088956	-0.675679	99
Es	0.484666	-0.338412	1.046881	99
Es	2.341338	0.132474	1.264658	99
Es	-0.344126	-0.590026	-0.610093	99
Es	-0.315772	0.593068	-0.354917	99
Es	-2.448810	0.753669	-0.861289	99
Es	2.246427	-1.000008	0.755665	99
Es	0.589428	-1.421129	-0.739698	99
Es	1.270449	-0.304785	0.777710	99
Es	0.516807	0.228972	0.500083	99
Es	2.375431	0.947299	1.644373	99
Es	-2.360688	-0.052874	0.020173	99
Es	-2.479099	-0.430228	-1.111679	99
Es	0.657814	1.354246	-0.154986	99
Es	-0.482759	0.228031	-1.534085	99
Es	0.487573	-0.643703	0.306185	99
Es	-1.391126	0.087386	-0.759559	99
Es	-0.253618	1.326881	0.643662	99
Es	-0.332656	-1.666191	0.012252	99
Es	3.114882	0.497470	1.605930	99
Es	2.478580	0.233013	1.307512	99
