45
Properties=species:S:1:pos:R:3:Z:I:1 energy=-288.10404281732605 field_type=dipole dipole="0.000000 0.000000 0.000000" charge=0
C	-1.430582	0.258438	1.258356	6
C	0.055058	0.062648	0.979086	6
C	0.385338	-1.366102	0.496046	6
N	0.442548	-1.308682	-0.975504	7
C	0.842128	0.065358	-1.310994	6
C	-0.171052	1.157298	-1.429154	6
C	0.566078	0.950968	-0.128074	6
H	-1.648592	1.308448	1.477736	1
H	-1.737222	-0.340602	2.121886	1
H	-2.053632	-0.044362	0.411486	1
H	0.614238	0.271358	1.899786	1
H	-0.334702	-2.113362	0.842556	1
H	1.376258	-1.649722	0.871796	1
H	1.107468	-1.999472	-1.321244	1
H	1.786048	0.187728	-1.833664	1
H	0.090518	2.024928	-2.023044	1
H	-1.212732	0.875848	-1.514064	1
H	1.322838	1.659288	0.177006	1
Es	0.442952	-1.308601	-0.975354	99
Es	0.842043	0.065789	-1.310642	99
Es	0.385211	-1.365385	0.495500	99
Es	0.055044	0.062442	0.979090	99
Es	-0.170592	1.156889	-1.428697	99
Es	0.567445	0.951619	-0.127721	99
Es	-1.429969	0.258309	1.258291	99
Es	0.075337	-1.371315	-1.122868	99
Es	1.064067	1.411391	0.058644	99
Es	-0.673278	0.160247	1.111898	99
Es	-1.643430	-0.154825	1.850042	99
Es	1.069178	-1.565406	0.760513	99
Es	0.856618	0.449855	-0.630977	99
Es	-0.834891	0.977286	-1.477852	99
Es	1.475700	0.135750	-1.667167	99
Es	-0.102763	-1.864849	0.729024	99
Es	0.871423	-1.672774	-1.142208	99
Es	-1.839464	0.054382	0.683386	99
Es	0.012491	1.739957	-1.821560	99
Es	-1.577705	0.971969	1.400396	99
Es	0.656253	-0.735921	-1.098805	99
Es	0.432263	0.217388	1.588341	99
Es	0.198850	-0.674135	0.762578	99
Es	0.287565	0.534938	0.406971	99
Es	0.273274	0.541691	-1.552650	99
Es	0.049084	1.219780	-0.674111	99
Es	0.464889	-1.320434	-0.375835	99
