47
Properties=species:S:1:pos:R:3:Z:I:1 energy=-305.2754100018947 field_type=dipole dipole="0.000000 0.000000 0.000000" charge=0
C	-1.846066	0.396579	0.063734	6
C	-0.332796	0.296549	-0.129046	6
C	0.044294	0.375629	-1.610416	6
N	0.387524	1.357399	0.642464	7
C	1.368884	0.343909	1.104714	6
C	0.334724	-0.760281	0.810634	6
N	0.950764	-1.865471	0.072924	7
H	-2.124196	0.420289	1.123614	1
H	-2.347796	-0.465571	-0.389016	1
H	-2.247166	1.302639	-0.404556	1
H	1.128644	0.385859	-1.765816	1
H	-0.358536	1.286349	-2.070016	1
H	-0.363896	-0.479581	-2.160226	1
H	-0.158656	1.750859	1.409694	1
H	2.284083	0.333349	0.499894	1
H	1.658774	0.443819	2.156604	1
H	-0.257086	-1.064141	1.681034	1
H	1.603074	-1.578711	-0.656356	1
H	0.275434	-2.479471	-0.379856	1
Es	0.950870	-1.865604	0.073081	99
Es	0.387272	1.357028	0.643054	99
Es	0.334414	-0.761177	0.811233	99
Es	-0.332782	0.296844	-0.128878	99
Es	1.368115	0.343894	1.104515	99
Es	0.044187	0.375599	-1.609754	99
Es	-1.845494	0.396501	0.063774	99
Es	0.544811	1.630859	0.400653	99
Es	1.149650	-2.075596	0.347413	99
Es	-1.129985	0.351534	-0.038167	99
Es	-0.237938	0.996520	-1.909698	99
Es	0.791017	0.952477	0.877492	99
Es	1.982958	0.331002	0.681125	99
Es	-0.073620	-0.963368	1.375441	99
Es	-2.170920	-0.194549	-0.240224	99
Es	0.671094	-1.412401	0.302739	99
Es	1.270018	-1.665207	-0.356259	99
Es	0.050489	0.947144	0.351919	99
Es	-2.105160	1.022928	-0.264075	99
Es	-2.003491	0.405627	0.795503	99
Es	0.784006	0.367050	-1.693990	99
Es	-0.234561	-0.212748	-1.964867	99
Es	1.561121	0.418572	1.816760	99
Es	0.900190	-0.263744	1.002564	99
Es	-0.124641	0.322108	-0.881429	99
Es	-0.060029	-0.305411	0.308048	99
Es	0.057804	1.517700	1.108329	99
Es	0.538434	-2.158732	-0.213215	99
