38
Properties=species:S:1:pos:R:3:Z:I:1 energy=-301.82068033987423 field_type=dipole dipole="0.000000 0.000000 0.000000" charge=0
C	-2.063146	-0.054197	0.113219	6
C	-0.570556	-0.020807	0.042699	6
C	0.125654	1.183663	-0.003311	6
N	1.476294	1.251003	-0.081921	7
C	2.110094	0.058783	-0.118271	6
C	1.427484	-1.144587	-0.078711	6
N	0.078384	-1.211007	0.001219	7
H	-2.483816	0.942383	0.283299	1
H	-2.384626	-0.700907	0.936479	1
H	-2.471126	-0.445487	-0.824421	1
H	-0.385006	2.139703	0.022589	1
H	3.191244	0.095123	-0.181681	1
H	1.949124	-2.093667	-0.111191	1
Es	1.476253	1.251181	-0.081927	99
Es	0.078508	-1.210757	0.001212	99
Es	-0.570460	-0.021014	0.042698	99
Es	1.427221	-1.144575	-0.078688	99
Es	0.125046	1.185019	-0.003273	99
Es	2.110018	0.058907	-0.118265	99
Es	-2.062646	-0.054329	0.113203	99
Es	-0.123458	-1.545230	0.012364	99
Es	2.797484	0.082695	-0.158012	99
Es	0.835062	1.170874	-0.046847	99
Es	-2.270502	-0.483450	0.663307	99
Es	1.756457	-0.519251	-0.097477	99
Es	-0.169168	0.701979	0.019228	99
Es	1.763919	-1.766688	-0.099263	99
Es	-0.177275	-0.661736	0.020338	99
Es	-0.214931	1.684909	0.007153	99
Es	-2.319483	-0.307766	-0.511248	99
Es	1.741791	0.655855	-0.092306	99
Es	-2.331564	0.615009	0.222997	99
Es	1.668948	0.190911	-0.098028	99
Es	-1.301171	-0.033166	0.081370	99
Es	1.659469	1.597197	-0.090473	99
Es	0.340544	-0.889928	-0.018435	99
Es	0.711520	-1.122296	-0.033834	99
Es	0.346347	0.755033	-0.010442	99
