40
Properties=species:S:1:pos:R:3:Z:I:1 energy=-269.7666998038468 field_type=dipole dipole="0.000000 0.000000 0.000000" charge=0
C	0.913035	-1.288209	0.079816	6
C	-0.573235	-1.432739	0.000066	6
C	-1.554755	-0.526239	-0.048064	6
C	-1.461255	0.906941	-0.014334	6
C	-0.371945	1.679431	-0.014334	6
C	1.011255	1.292771	-0.048514	6
C	1.541985	0.066481	-0.000344	6
H	1.337695	-1.887769	-0.735734	1
H	1.246785	-1.758859	1.012956	1
H	-0.890955	-2.475809	-0.021284	1
H	-2.577245	-0.899939	-0.104894	1
H	-2.427105	1.411221	0.011426	1
H	-0.528485	2.757951	0.011226	1
H	1.702625	2.134251	-0.105724	1
H	2.631595	0.020511	-0.022264	1
Es	0.912761	-1.287824	0.079775	99
Es	1.543292	0.066315	-0.000359	99
Es	-0.573512	-1.434030	0.000051	99
Es	-0.371832	1.681299	-0.014324	99
Es	1.012620	1.295249	-0.048618	99
Es	-1.557568	-0.526712	-0.048168	99
Es	-1.463053	0.907452	-0.014323	99
Es	-0.772313	-2.133333	-0.024818	99
Es	1.491606	1.791740	-0.066552	99
Es	-2.093293	1.242295	-0.003021	99
Es	-2.184522	-0.814156	-0.065772	99
Es	-1.446859	0.198357	-0.028015	99
Es	-0.893440	1.260545	-0.264773	99
Es	2.269175	0.022245	-0.025547	99
Es	0.291801	1.431043	-0.028213	99
Es	1.204904	0.709924	0.026641	99
Es	1.122972	-1.584308	0.686591	99
Es	1.197447	-0.547674	0.037454	99
Es	1.190714	-1.680283	-0.453505	99
Es	0.120104	-1.311111	0.037682	99
Es	-1.068594	-0.901862	0.027253	99
Es	-0.479281	2.386942	-0.003160	99
Es	-1.075589	-0.927256	-0.086979	99
Es	1.231217	0.707749	-0.087144	99
Es	-0.888668	1.253850	0.246771	99
