38
Properties=species:S:1:pos:R:3:Z:I:1 energy=-301.830116880249 field_type=dipole dipole="0.000000 0.000000 0.000000" charge=0
C	-1.916012	-0.022306	0.000729	6
C	-0.427063	-0.011366	-0.001071	6
C	0.296968	1.164334	0.000399	6
N	1.642867	1.217534	0.000459	7
C	2.269808	0.031604	-0.000511	6
N	1.680288	-1.173276	-0.001351	7
C	0.332888	-1.163276	-0.001301	6
H	-2.309402	-1.044206	-0.014771	1
H	-2.300802	0.497344	-0.882771	1
H	-2.298132	0.470334	0.900649	1
H	-0.197432	2.132134	0.001629	1
H	3.354028	0.048534	-0.000561	1
H	-0.128002	-2.147386	-0.001531	1
Es	1.642728	1.217903	0.000460	99
Es	1.680194	-1.173667	-0.001350	99
Es	2.270018	0.031640	-0.000513	99
Es	0.295193	1.168502	0.000403	99
Es	0.331602	-1.166561	-0.001303	99
Es	-0.427301	-0.011335	-0.001071	99
Es	-1.915652	-0.022305	0.000732	99
Es	1.921350	-0.577103	-0.001246	99
Es	1.872928	-1.515985	-0.001896	99
Es	2.937387	0.045959	-0.000641	99
Es	-2.158744	0.329663	-0.589595	99
Es	-0.047526	1.707676	0.000999	99
Es	1.004351	1.129073	0.001159	99
Es	0.011295	-1.694796	-0.001205	99
Es	1.036397	-1.105655	-0.000483	99
Es	-1.155822	-0.011493	-0.000451	99
Es	-2.156604	0.311193	0.601874	99
Es	-0.022532	0.678944	-0.000148	99
Es	-0.004591	-0.718634	-0.001039	99
Es	-2.171361	-0.709610	-0.009433	99
Es	1.519616	-0.850805	-0.001276	99
Es	1.825556	1.564623	0.000650	99
Es	1.471164	0.904727	-0.000085	99
Es	1.904464	0.623698	-0.000253	99
Es	-0.002473	-0.025643	-0.001601	99
