41
Properties=species:S:1:pos:R:3:Z:I:1 energy=-302.9727002984491 field_type=dipole dipole="0.000000 0.000000 0.000000" charge=0
C	-2.188602	0.120767	0.361465	6
C	-0.851112	0.141737	0.256305	6
C	-0.011042	1.390777	0.154725	6
N	1.148138	0.894627	-0.539185	7
C	1.267828	-0.454863	-0.438405	6
N	2.349118	-1.099743	-0.708025	7
C	0.001248	-1.094183	0.081455	6
H	-2.737602	-0.816153	0.375065	1
H	-2.765692	1.037657	0.429215	1
H	0.265878	1.751697	1.150135	1
H	-0.501392	2.185147	-0.413875	1
H	2.007178	1.427997	-0.539395	1
H	2.210718	-2.103233	-0.550675	1
H	-0.400992	-1.794863	-0.654365	1
H	0.206328	-1.587373	1.035555	1
Es	1.147898	0.894646	-0.540301	99
Es	2.349960	-1.099622	-0.708196	99
Es	1.267691	-0.454622	-0.438444	99
Es	-0.010912	1.390117	0.154467	99
Es	-0.851174	0.141795	0.256290	99
Es	0.001400	-1.093817	0.081366	99
Es	-2.186605	0.120748	0.361004	99
Es	1.218415	0.315742	-0.422361	99
Es	1.828215	-0.825791	-0.612517	99
Es	-0.265194	-1.548417	-0.387528	99
Es	0.639791	-0.786444	-0.185974	99
Es	0.706077	1.094137	-0.193571	99
Es	1.631446	1.162752	-0.471105	99
Es	-2.507773	0.750376	0.386210	99
Es	2.204436	-1.659851	-0.602004	99
Es	0.173996	1.629374	0.826981	99
Es	-2.474097	-0.515973	0.345992	99
Es	-0.451888	-0.497876	0.184478	99
Es	0.128005	-1.407146	0.701228	99
Es	-1.644828	0.129056	0.283315	99
Es	-0.343843	1.929109	-0.222115	99
Es	-0.455438	0.776008	0.226889	99
Es	1.052347	0.854222	-0.864038	99
Es	2.695153	-0.956514	-0.830730	99
Es	-1.542054	0.131754	0.375294	99
Es	2.003766	-0.927262	-0.576990	99
