38
Properties=species:S:1:pos:R:3:Z:I:1 energy=-301.7959745529229 field_type=dipole dipole="0.000000 0.000000 0.000000" charge=0
C	-2.054594	-0.014898	0.002544	6
C	-0.562414	-0.018018	0.000174	6
N	0.162746	-1.093768	-0.000376	7
C	1.446796	-0.645258	-0.001916	6
N	2.426436	-1.461528	-0.003386	7
C	1.471437	0.816092	-0.001606	6
C	0.203076	1.226662	-0.000316	6
H	-2.434694	-1.039618	-0.010846	1
H	-2.421744	0.513622	-0.881166	1
H	-2.418303	0.489172	0.901834	1
H	1.997696	-2.394999	-0.003116	1
H	2.374936	1.397251	-0.002236	1
H	-0.191374	2.225291	0.000414	1
Es	2.427176	-1.461565	-0.003387	99
Es	0.162537	-1.094172	-0.000377	99
Es	-0.562212	-0.018176	0.000172	99
Es	1.446712	-0.645211	-0.001916	99
Es	1.472084	0.816346	-0.001605	99
Es	0.202354	1.227822	-0.000315	99
Es	-2.054283	-0.014807	0.002548	99
Es	1.490437	0.123555	-0.001791	99
Es	1.957001	-1.111727	-0.002466	99
Es	0.860602	1.027545	-0.006231	99
Es	-1.281391	-0.043476	0.000840	99
Es	-0.181379	0.654190	0.000041	99
Es	0.723293	-0.855698	-0.000928	99
Es	2.159020	-1.953576	-0.003191	99
Es	-0.064488	1.873321	0.000877	99
Es	2.025067	1.201796	-0.002945	99
Es	-2.281023	0.323914	0.595921	99
Es	0.045719	-1.471948	-0.000026	99
Es	-2.284023	0.340388	-0.581025	99
Es	0.760953	0.980108	0.004408	99
Es	-2.307485	-0.675754	-0.005888	99
Es	2.816851	-1.407466	-0.003911	99
Es	-0.155104	-0.582241	-0.000704	99
Es	1.950474	-1.075134	-0.002858	99
Es	-0.004230	-0.711394	0.000105	99
