46
Properties=species:S:1:pos:R:3:Z:I:1 energy=-272.1038919581078 field_type=dipole dipole="0.000000 0.000000 0.000000" charge=0
C	-2.430393	-1.052102	0.874857	6
C	-0.939994	-1.025952	0.853227	6
C	-0.184184	-1.658892	-0.286503	6
C	-0.216734	-0.155552	-0.146453	6
C	1.007426	0.604738	0.275107	6
C	1.791496	1.160538	-0.880143	6
C	2.010487	2.465638	-1.083063	6
H	-2.811224	-0.234682	1.495157	1
H	-2.784994	-1.996562	1.298867	1
H	-2.858963	-0.946202	-0.127313	1
H	-0.523574	-1.124162	1.849727	1
H	-0.746264	-2.102872	-1.100573	1
H	0.734296	-2.185192	-0.051213	1
H	-0.822284	0.409108	-0.848203	1
H	1.674747	-0.039332	0.861287	1
H	0.693387	1.414668	0.944987	1
H	2.199226	0.438498	-1.584633	1
H	1.622726	3.221338	-0.406303	1
H	2.584816	2.806978	-1.938813	1
Es	1.791544	1.160502	-0.880234	99
Es	-0.216321	-0.155494	-0.146116	99
Es	-0.939900	-1.026098	0.853365	99
Es	1.007425	0.604689	0.274728	99
Es	-0.184502	-1.658379	-0.286091	99
Es	2.010507	2.465368	-1.083019	99
Es	-2.429674	-1.052032	0.874761	99
Es	-0.617902	-1.530753	0.334537	99
Es	1.736825	2.933460	-0.618421	99
Es	-2.714123	-0.979033	0.199005	99
Es	1.438643	0.158848	0.662452	99
Es	0.422659	-2.001951	-0.130016	99
Es	-0.662744	-1.078840	1.491437	99
Es	2.071648	0.663075	-1.355202	99
Es	1.393232	0.888770	-0.315581	99
Es	-0.609454	0.198034	-0.598816	99
Es	-0.547918	-1.940378	-0.820354	99
Es	1.876512	1.872547	-0.991604	99
Es	-2.685517	-0.497876	1.289644	99
Es	-2.670478	-1.693752	1.162816	99
Es	0.795034	1.139716	0.719934	99
Es	2.389915	2.680575	-1.658493	99
Es	0.399369	0.225075	0.050904	99
Es	-1.648173	-1.029234	0.842936	99
Es	-0.059553	-0.904758	-0.390505	99
Es	-0.652165	-0.399757	0.480419	99
Es	1.925966	1.836480	-0.973752	99
