42
Properties=species:S:1:pos:R:3:Z:I:1 energy=-286.96296779328367 field_type=dipole dipole="0.000000 0.000000 0.000000" charge=0
C	-0.026581	-2.211849	-0.387975	6
C	-0.655931	-0.991449	0.264115	6
C	0.285959	0.174561	0.268455	6
C	0.384769	1.080840	-0.929305	6
C	-0.260621	1.584261	0.340885	6
C	0.428239	2.560561	1.138115	6
N	0.984359	3.349041	1.781935	7
H	-0.723301	-3.055540	-0.371095	1
H	0.886459	-2.510809	0.137425	1
H	0.238929	-2.006719	-1.430255	1
H	-0.926551	-1.232479	1.298345	1
H	-1.585351	-0.741769	-0.261275	1
H	1.200079	-0.045629	0.812125	1
H	-0.258751	0.891421	-1.781415	1
H	1.367579	1.452991	-1.200495	1
H	-1.339291	1.702571	0.320415	1
Es	0.985179	3.350143	1.782809	99
Es	-0.259985	1.584847	0.341415	99
Es	0.427334	2.559521	1.137175	99
Es	0.285497	0.174932	0.268347	99
Es	0.384454	1.080924	-0.928157	99
Es	-0.655695	-0.991074	0.264077	99
Es	-0.026878	-2.211135	-0.387608	99
Es	0.796127	2.924548	1.466126	99
Es	-0.059876	0.918032	0.515350	99
Es	0.152882	-2.068494	-1.082504	99
Es	0.083166	2.111654	0.760016	99
Es	0.885105	0.049528	0.631985	99
Es	-0.170914	-0.363248	0.264710	99
Es	1.029387	1.329887	-1.089661	99
Es	-0.952751	1.655565	0.341617	99
Es	-0.840540	-1.145992	0.961174	99
Es	-0.503061	-2.788363	-0.378117	99
Es	-0.040180	0.961232	-1.480969	99
Es	1.160038	3.566267	1.962329	99
Es	-0.329219	-1.568383	-0.062618	99
Es	0.590216	-2.403758	-0.033671	99
Es	0.745631	3.019444	1.486271	99
Es	-1.278983	-0.807367	-0.095223	99
Es	0.668726	3.007475	1.505922	99
Es	0.420254	0.480655	-0.456590	99
Es	0.035367	1.499156	-0.339410	99
