48
Properties=species:S:1:pos:R:3:Z:I:1 energy=-289.28007317184904 field_type=dipole dipole="0.000000 0.000000 0.000000" charge=0
C	-1.401532	-2.044346	0.959370	6
C	-1.261022	-1.588756	-0.484040	6
C	-0.035932	-0.748036	-0.681250	6
C	-0.067682	0.437104	-1.616330	6
N	-0.027582	0.620914	-0.167110	7
C	1.284178	1.017653	0.351410	6
C	1.221498	2.464254	0.818570	6
H	-2.267772	-2.704376	1.068890	1
H	-1.540092	-1.188516	1.629460	1
H	-0.509912	-2.587616	1.291500	1
H	-2.165832	-1.045136	-0.779120	1
H	-1.191602	-2.467247	-1.135260	1
H	0.878758	-1.327127	-0.615880	1
H	-1.004052	0.702193	-2.093210	1
H	0.816528	0.662934	-2.199360	1
H	2.093658	0.910594	-0.382390	1
H	1.542298	0.384323	1.209420	1
H	0.967368	3.138134	-0.005580	1
H	2.192528	2.772103	1.220520	1
H	0.476198	2.590954	1.610390	1
Es	-0.026646	0.620549	-0.167560	99
Es	-0.036380	-0.747902	-0.681276	99
Es	1.283771	1.018115	0.351378	99
Es	-0.067772	0.436925	-1.615716	99
Es	-1.260837	-1.588611	-0.483801	99
Es	-1.401435	-2.044066	0.958668	99
Es	1.221498	2.463766	0.818403	99
Es	-0.347428	0.739807	0.010233	99
Es	-0.087020	-0.300579	-1.324649	99
Es	-0.639798	-1.147725	-0.566904	99
Es	1.250103	1.751229	0.581201	99
Es	-0.792753	-2.406338	1.179276	99
Es	-0.692758	0.623052	-1.925680	99
Es	0.582817	-1.120446	-0.618328	99
Es	0.548480	0.749734	0.004355	99
Es	1.829250	0.931094	-0.162100	99
Es	1.454533	0.579921	0.927804	99
Es	-1.488554	-1.474762	1.404336	99
Es	-1.995608	-2.498314	1.038730	99
Es	1.892293	2.664079	1.089259	99
Es	1.048999	2.919893	0.257003	99
Es	-1.316996	-1.796094	0.231924	99
Es	0.541933	0.597706	-2.001693	99
Es	0.721477	2.548454	1.355591	99
Es	-1.863854	-1.216254	-0.688500	99
Es	0.007692	0.633963	-0.821742	99
Es	-1.198940	-2.178001	-0.935279	99
Es	0.001310	0.013923	-0.275670	99
