48
Properties=species:S:1:pos:R:3:Z:I:1 energy=-289.2870043257068 field_type=dipole dipole="0.000000 0.000000 0.000000" charge=0
C	-2.044825	-0.637724	0.249375	6
C	-0.845715	-0.919143	-0.642235	6
C	0.342235	-0.007393	-0.367865	6
C	1.229725	-0.419693	0.789945	6
N	0.641025	0.013797	2.046765	7
C	1.040715	0.576806	-1.587255	6
C	0.217445	1.469266	-0.709605	6
H	-2.878285	-1.292683	-0.024985	1
H	-2.382765	0.398687	0.146905	1
H	-1.817725	-0.816414	1.304205	1
H	-1.167355	-0.813553	-1.685175	1
H	-0.540615	-1.965313	-0.523215	1
H	2.227595	0.023646	0.696275	1
H	1.362305	-1.507064	0.797655	1
H	0.550785	1.027576	2.039255	1
H	1.278225	-0.210793	2.808075	1
H	0.656885	0.347636	-2.574475	1
H	2.117555	0.705266	-1.567285	1
H	0.739165	2.194267	-0.095445	1
H	-0.726385	1.832826	-1.100915	1
Es	0.641006	0.013734	2.046605	99
Es	1.229166	-0.419240	0.790121	99
Es	0.342772	-0.007376	-0.368039	99
Es	0.217909	1.468635	-0.710018	99
Es	1.040218	0.577444	-1.586919	99
Es	-0.845812	-0.918944	-0.642087	99
Es	-2.044187	-0.637832	0.248996	99
Es	0.290473	-0.170212	2.097610	99
Es	0.651817	1.118037	-1.212300	99
Es	-0.622297	-1.613518	-0.561624	99
Es	0.777452	-0.195338	0.200731	99
Es	-0.265209	-0.458649	-0.495125	99
Es	-0.408969	1.695923	-0.952556	99
Es	1.054804	-0.090438	2.455841	99
Es	-2.267434	0.063458	0.180363	99
Es	1.751608	0.642276	-1.561735	99
Es	-2.619454	-1.083604	0.054947	99
Es	0.908316	-0.132507	1.540196	99
Es	0.784384	0.409738	-2.225931	99
Es	-1.892476	-0.759105	0.949722	99
Es	1.309915	-1.155126	0.779243	99
Es	0.553414	1.930769	-0.288733	99
Es	-1.414727	-0.759981	-0.183898	99
Es	-1.041022	-0.825583	-1.360948	99
Es	1.910920	-0.097500	0.700074	99
Es	0.169423	0.811123	-0.385940	99
Es	0.793329	0.131017	-1.061926	99
Es	0.636362	0.608397	2.029554	99
