41
Properties=species:S:1:pos:R:3:Z:I:1 energy=-302.99633313338745 field_type=dipole dipole="0.000000 0.000000 0.000000" charge=0
C	-0.641631	-1.673943	-1.034476	6
C	-0.520321	-1.121303	0.376734	6
C	-0.051631	0.288227	0.374974	6
C	-0.731401	1.487377	0.365754	6
N	0.140179	2.545197	0.369214	7
C	1.337479	2.007807	0.381434	6
N	1.274599	0.643747	0.386464	7
H	-0.993001	-2.710303	-1.007046	1
H	0.323669	-1.656213	-1.552256	1
H	-1.352251	-1.089923	-1.629616	1
H	0.170739	-1.745333	0.955374	1
H	-1.494831	-1.182973	0.875034	1
H	-1.802551	1.644537	0.355994	1
H	2.274838	2.547467	0.387284	1
H	2.066119	0.015637	0.395134	1
Es	1.274543	0.643799	0.386489	99
Es	0.139927	2.545362	0.369215	99
Es	1.338469	2.008225	0.381462	99
Es	-0.051431	0.288073	0.375037	99
Es	-0.520183	-1.121038	0.376653	99
Es	-0.740343	1.488368	0.365574	99
Es	-0.641569	-1.673634	-1.033812	99
Es	1.329913	1.271971	0.399569	99
Es	0.732511	2.253141	0.373222	99
Es	-0.266386	-0.399223	0.390534	99
Es	-0.500469	0.996479	0.233433	99
Es	-1.117851	-1.279094	-1.431596	99
Es	1.732670	0.263056	0.377614	99
Es	0.721972	0.447341	0.373874	99
Es	-0.048697	-1.530160	0.762743	99
Es	-0.249309	2.033474	0.364877	99
Es	-0.878435	-2.384735	-1.015806	99
Es	1.189110	0.782499	0.391119	99
Es	-1.171708	-1.157488	0.705442	99
Es	-1.296625	1.487920	0.320237	99
Es	-0.573303	-1.370036	-0.314791	99
Es	1.900903	2.331278	0.385271	99
Es	0.012791	-1.657031	-1.379216	99
Es	0.035856	2.924903	0.371570	99
Es	0.514480	2.269241	0.368631	99
Es	-0.337837	0.953938	0.533958	99
