41
Properties=species:S:1:pos:R:3:Z:I:1 energy=-302.92830277668105 field_type=dipole dipole="0.000000 0.000000 0.000000" charge=0
C	-1.972445	-1.229719	-0.327089	6
C	-0.514275	-1.154809	-0.010179	6
C	0.224295	-0.039909	0.003961	6
C	1.672975	0.138611	0.307831	6
N	1.867105	1.576801	0.068171	7
N	0.693195	2.243841	-0.145779	7
C	-0.231675	1.339361	-0.239809	6
H	-2.219075	-2.230618	-0.694509	1
H	-2.259865	-0.518239	-1.106369	1
H	-2.566785	-1.042479	0.571751	1
H	-0.030265	-2.100979	0.225911	1
H	2.311375	-0.444599	-0.361389	1
H	1.888985	-0.111179	1.351231	1
H	2.426605	2.020791	0.796621	1
H	-1.290155	1.553121	-0.440359	1
Es	0.693724	2.243702	-0.145652	99
Es	1.866874	1.576882	0.068400	99
Es	-0.231584	1.339181	-0.239801	99
Es	1.672616	0.139174	0.307591	99
Es	0.224492	-0.039766	0.003989	99
Es	-0.513747	-1.156194	-0.009871	99
Es	-1.971902	-1.229646	-0.326849	99
Es	0.306479	1.795909	-0.218227	99
Es	-0.255336	-0.719698	-0.018134	99
Es	1.736821	1.006901	0.228297	99
Es	0.940331	-0.012747	0.161249	99
Es	-1.192686	-1.102002	-0.177145	99
Es	-0.028203	0.718694	-0.134749	99
Es	1.262644	1.859538	0.011463	99
Es	-2.155952	-0.759385	-0.826987	99
Es	2.082036	-0.256685	-0.146689	99
Es	-0.126987	-1.682447	0.158357	99
Es	1.806403	-0.034158	1.009783	99
Es	-2.346924	-1.094193	0.257343	99
Es	2.115829	1.812031	0.519392	99
Es	-2.143360	-1.904084	-0.566643	99
Es	-0.892844	1.413177	-0.360166	99
Es	0.248221	1.785297	-0.140261	99
Es	0.683739	2.622691	-0.168932	99
Es	-0.139044	-0.557072	-0.014969	99
Es	2.030673	1.589876	-0.262696	99
