35
Properties=species:S:1:pos:R:3:Z:I:1 energy=-300.5436146772694 field_type=dipole dipole="0.000000 0.000000 0.000000" charge=0
C	-2.578923	-0.353234	0.388841	6
C	-1.381053	-0.334184	0.463541	6
C	0.049347	-0.313204	0.554701	6
N	0.823607	-1.046074	-0.443899	7
C	0.838857	0.420936	-0.504829	6
C	2.002387	1.155486	-0.091799	6
N	2.925797	1.773436	0.243291	7
H	-3.643213	-0.373734	0.329321	1
H	0.460447	-0.350804	1.559851	1
H	0.204427	-1.430884	-1.158519	1
H	0.298317	0.852256	-1.340499	1
Es	0.823241	-1.045954	-0.443909	99
Es	2.927501	1.774564	0.243985	99
Es	0.838250	0.420947	-0.504680	99
Es	0.049397	-0.312994	0.554280	99
Es	2.001246	1.154852	-0.092318	99
Es	-1.380483	-0.334182	0.463601	99
Es	-2.582108	-0.353094	0.388374	99
Es	0.889570	-0.391694	-0.563874	99
Es	2.552929	1.348123	0.173839	99
Es	-2.932785	-0.359779	0.349009	99
Es	1.452878	0.807409	-0.299703	99
Es	-0.672979	-0.306396	0.484430	99
Es	0.447875	-1.204058	-0.842445	99
Es	0.474662	0.695551	-1.042582	99
Es	-2.246727	-0.335715	0.390436	99
Es	0.327438	-0.322152	1.206242	99
Es	0.379564	0.240036	0.091255	99
Es	3.184394	1.940223	0.351819	99
Es	0.386744	-0.810250	0.008723	99
Es	1.137245	-1.232859	-0.336484	99
Es	2.417381	1.609428	0.020885	99
Es	2.506173	1.492376	0.089206	99
Es	-1.959161	-0.345315	0.450721	99
Es	-1.972767	-0.357323	0.423302	99
