47
Properties=species:S:1:pos:R:3:Z:I:1 energy=-305.27077506592724 field_type=dipole dipole="0.000000 0.000000 0.000000" charge=0
C	-0.664197	-1.744744	-1.724303	6
C	-0.672357	-1.228744	-0.293133	6
C	0.228364	-0.006874	-0.144793	6
N	-0.352947	1.229566	-0.744263	7
C	0.168983	2.003386	0.412237	6
C	0.177253	0.700176	1.236277	6
N	1.452034	0.548656	1.944757	7
H	-1.285067	-2.641924	-1.807533	1
H	0.351293	-2.000654	-2.042743	1
H	-1.055207	-0.995074	-2.419003	1
H	-0.312997	-2.025064	0.369747	1
H	-1.702327	-1.003794	0.010317	1
H	1.244443	-0.204594	-0.516123	1
H	-1.372807	1.225086	-0.786043	1
H	1.145043	2.460866	0.207767	1
H	-0.507117	2.783505	0.775557	1
H	-0.721137	0.526946	1.837047	1
H	2.272893	0.764906	1.377507	1
H	1.605853	-0.391624	2.306717	1
Es	1.452051	0.548758	1.944916	99
Es	-0.353252	1.229414	-0.743869	99
Es	0.177122	0.699906	1.236886	99
Es	0.227606	-0.006985	-0.144838	99
Es	0.168696	2.002700	0.411990	99
Es	-0.672234	-1.228616	-0.293316	99
Es	-0.664190	-1.744456	-1.723529	99
Es	-0.186280	1.333418	-1.088252	99
Es	1.442490	0.806247	2.253519	99
Es	-1.369750	-1.053834	-0.081101	99
Es	0.191408	1.403289	0.901062	99
Es	-0.186385	1.568599	-0.272137	99
Es	-0.295575	2.537092	0.657618	99
Es	-0.212096	-0.623231	-0.227572	99
Es	-0.667864	-1.476652	-1.011005	99
Es	1.529247	-0.010928	2.088422	99
Es	-0.427419	-1.763248	0.161926	99
Es	1.882416	0.630129	1.581994	99
Es	0.198903	0.252176	0.595461	99
Es	0.026288	-1.912923	-1.936187	99
Es	-0.413884	0.573864	1.636113	99
Es	-1.090438	-2.361488	-1.781697	99
Es	0.835144	2.298165	0.274863	99
Es	-0.926189	-1.239134	-2.186083	99
Es	0.922887	-0.130463	-0.393801	99
Es	-0.167477	0.690726	-0.509873	99
Es	-0.938587	1.208876	-0.700825	99
Es	0.963742	0.551131	1.626780	99
