45
Properties=species:S:1:pos:R:3:Z:I:1 energy=-288.0948134018891 field_type=dipole dipole="0.000000 0.000000 0.000000" charge=0
C	-2.962938	0.232839	0.425264	6
C	-1.478488	0.076739	0.385674	6
C	-0.771298	-0.085581	-0.744256	6
C	0.702842	-0.237821	-0.767606	6
C	1.555252	0.887069	-0.143806	6
C	2.413322	-0.268631	0.402604	6
N	1.218272	-1.135661	0.294064	7
H	-3.224628	1.191119	0.884204	1
H	-3.405958	-0.568401	1.024564	1
H	-3.409858	0.199099	-0.573416	1
H	-0.970288	0.090239	1.348064	1
H	-1.276638	-0.105231	-1.705756	1
H	1.053332	-0.525081	-1.768966	1
H	1.070722	1.484749	0.637314	1
H	2.055282	1.558149	-0.847256	1
H	3.236972	-0.567801	-0.256176	1
H	2.795092	-0.137271	1.418254	1
H	1.399012	-2.088521	-0.012766	1
Es	1.218637	-1.135923	0.293423	99
Es	0.702109	-0.237818	-0.767497	99
Es	2.412480	-0.268537	0.402538	99
Es	-1.478517	0.076817	0.385735	99
Es	1.555256	0.886413	-0.144131	99
Es	-2.962384	0.232776	0.425218	99
Es	-0.771158	-0.085893	-0.748110	99
Es	0.991490	-0.803125	-0.200064	99
Es	-0.480104	-0.122982	-0.910391	99
Es	1.055697	0.379211	-0.502827	99
Es	2.042177	0.365970	0.147596	99
Es	-3.252476	0.210332	-0.243727	99
Es	-2.214080	0.161275	0.383749	99
Es	1.228303	1.270569	0.376307	99
Es	1.349619	-1.672024	0.076297	99
Es	-0.694141	-0.144254	-1.223948	99
Es	-1.115302	0.012201	-0.182045	99
Es	-3.132205	0.877970	0.731936	99
Es	-3.255106	-0.310792	0.827930	99
Es	1.768811	-0.835724	0.316218	99
Es	2.973012	-0.472780	-0.055258	99
Es	0.945140	-0.431982	-1.446191	99
Es	-1.120420	0.103115	1.030919	99
Es	1.887169	1.348117	-0.617159	99
Es	2.681017	-0.184803	1.098086	99
Es	1.007196	-1.104255	0.625999	99
Es	-1.105654	-0.017640	-0.217117	99
