48
Properties=species:S:1:pos:R:3:Z:I:1 energy=-289.2841092939206 field_type=dipole dipole="0.000000 0.000000 0.000000" charge=0
C	-1.761960	-0.074438	-0.056950	6
C	-0.254160	-0.362938	-0.175970	6
C	0.169630	-1.258598	1.002390	6
C	0.000530	-1.136268	-1.484910	6
C	0.488220	0.963182	-0.244290	6
C	0.827780	1.778632	0.981590	6
N	1.865130	1.075622	0.231350	7
H	-2.116600	0.535122	-0.896220	1
H	-1.985780	0.477432	0.863240	1
H	-2.346770	-1.001058	-0.044650	1
H	-0.037230	-0.785458	1.967890	1
H	1.239330	-1.492728	0.967480	1
H	-0.373840	-2.210768	0.987170	1
H	-0.319510	-0.556178	-2.358260	1
H	-0.542020	-2.088248	-1.499270	1
H	1.067270	-1.353948	-1.611800	1
H	0.250140	1.518782	-1.147380	1
H	0.610410	1.389902	1.967420	1
H	0.820160	2.859132	0.902640	1
H	2.399270	1.722822	-0.351470	1
Es	1.864885	1.076317	0.231092	99
Es	0.488459	0.963763	-0.244517	99
Es	0.828028	1.778338	0.981179	99
Es	-0.254065	-0.363005	-0.176015	99
Es	-1.761444	-0.074459	-0.056984	99
Es	0.000495	-1.136057	-1.484636	99
Es	0.169547	-1.258179	1.001954	99
Es	2.026498	0.748459	0.363458	99
Es	-0.119266	-0.761598	-0.855375	99
Es	-1.994508	0.340357	-0.633565	99
Es	0.026908	-0.920530	1.655170	99
Es	0.679214	1.504838	1.645929	99
Es	0.153543	0.310362	-0.190724	99
Es	-0.227286	-0.722085	-2.074964	99
Es	2.114352	1.473542	-0.123576	99
Es	0.455077	1.445040	0.441414	99
Es	-1.019293	-0.208058	-0.117084	99
Es	0.728729	-1.275048	-1.561785	99
Es	-2.150196	-0.714555	-0.048102	99
Es	-0.375439	-1.785521	-1.476358	99
Es	-0.213005	-1.907003	0.984309	99
Es	0.890697	-1.413919	0.972047	99
Es	1.400718	1.006932	-0.024125	99
Es	-1.904039	0.306700	0.571652	99
Es	0.806867	2.515659	0.911956	99
Es	-0.036075	-0.806202	0.422126	99
Es	0.335781	1.328081	-0.859925	99
Es	1.435013	1.426559	0.559209	99
