43
Properties=species:S:1:pos:R:3:Z:I:1 energy=-270.935757702631 field_type=dipole dipole="0.000000 0.000000 0.000000" charge=0
C	-2.287783	-0.123859	-0.045241	6
C	-0.833293	0.174581	0.062369	6
C	-0.243503	1.351241	-0.223091	6
C	1.246737	1.241861	-0.023401	6
C	1.478387	-0.190009	0.415519	6
C	1.169557	-1.361109	-0.482551	6
C	0.123157	-0.869279	0.479209	6
H	-2.446523	-1.129199	-0.452831	1
H	-2.793843	0.585011	-0.705261	1
H	-2.758753	-0.074909	0.942759	1
H	-0.746453	2.246941	-0.555501	1
H	1.783907	1.457241	-0.951331	1
H	1.574757	1.939401	0.753159	1
H	2.172267	-0.308719	1.234039	1
H	1.649897	-2.307319	-0.263411	1
H	1.028637	-1.179569	-1.542801	1
H	-0.117153	-1.452309	1.358369	1
Es	1.169341	-1.360638	-0.481909	99
Es	-0.833454	0.174469	0.062350	99
Es	0.123516	-0.869638	0.479895	99
Es	1.478629	-0.189785	0.416421	99
Es	1.246264	1.241520	-0.023401	99
Es	-2.287424	-0.123825	-0.045163	99
Es	-0.244318	1.354381	-0.224199	99
Es	1.509606	-0.728766	-0.149673	99
Es	-0.517103	0.839169	-0.039529	99
Es	-0.496151	1.848784	-0.416921	99
Es	-2.589317	-0.087989	0.624648	99
Es	1.490076	-1.992792	-0.331516	99
Es	1.599202	1.388691	-0.639964	99
Es	-0.042102	-1.264356	1.050199	99
Es	1.393225	0.505593	0.175438	99
Es	-1.550306	0.040242	-0.005508	99
Es	-2.624050	0.352883	-0.485951	99
Es	-2.381457	-0.801824	-0.318057	99
Es	1.475264	1.700502	0.498310	99
Es	1.075187	-1.240777	-1.158996	99
Es	-0.388087	-0.359346	0.263031	99
Es	1.932346	-0.277506	0.967508	99
Es	0.369369	1.331140	-0.145759	99
Es	0.495314	-1.243477	-0.105015	99
Es	0.753026	-0.434598	0.601037	99
Es	-0.519629	0.775762	-0.129545	99
