33
Properties=species:S:1:pos:R:3:Z:I:1 energy=-283.34771790049416 field_type=dipole dipole="0.000000 0.000000 0.000000" charge=0
C	-3.572652	-0.273631	0.000000	6
C	-2.372662	-0.274511	0.000000	6
C	-0.840412	-0.274481	0.000000	6
C	0.349748	-0.274481	0.000000	6
C	1.793748	-0.274481	0.000000	6
C	2.275768	1.086689	0.000000	6
N	2.659978	2.171679	0.000000	7
H	-4.637372	-0.270141	0.000000	1
H	2.171928	-0.808321	-0.878630	1
H	2.171928	-0.808321	0.878630	1
Es	2.660780	2.174111	0.000000	99
Es	1.793328	-0.274544	0.000000	99
Es	-0.842427	-0.274369	0.000000	99
Es	-2.372477	-0.274509	0.000000	99
Es	2.273475	1.085747	-0.000000	99
Es	0.352333	-0.274923	-0.000000	99
Es	-3.576433	-0.273543	-0.000000	99
Es	2.488921	1.617491	-0.000000	99
Es	-0.360427	-0.222988	0.000000	99
Es	-0.219180	-0.252993	0.000000	99
Es	-2.055398	-0.272857	-0.000000	99
Es	-1.204915	-0.259542	0.000000	99
Es	1.960734	0.439171	0.000000	99
Es	-3.883902	-0.296639	-0.000000	99
Es	1.960774	-0.592970	-0.547102	99
Es	1.960774	-0.592970	0.547102	99
Es	2.771263	2.493620	0.000000	99
Es	-0.257887	-0.248866	0.000000	99
Es	2.486344	1.683079	0.000000	99
Es	2.423086	1.697356	-0.000000	99
Es	-0.274919	-0.272938	0.000000	99
Es	-2.951590	-0.344253	-0.000000	99
Es	-2.942957	-0.274694	-0.000000	99
