48
Properties=species:S:1:pos:R:3:Z:I:1 energy=-289.30262233426174 field_type=dipole dipole="0.000000 0.000000 0.000000" charge=0
C	-2.125923	-0.710735	0.330585	6
C	-0.621793	-0.634055	0.218655	6
C	0.018727	-2.001585	0.209855	6
C	0.072697	0.528095	0.132295	6
C	-0.583853	1.889115	0.046165	6
C	1.583107	0.610075	0.139735	6
N	2.088647	0.853885	-1.204185	7
H	-2.586933	0.222075	0.664975	1
H	-2.410903	-1.468565	1.070215	1
H	-2.562853	-0.992135	-0.633355	1
H	-0.541303	-2.675145	-0.449165	1
H	0.014357	-2.426825	1.218765	1
H	1.045937	-2.000675	-0.162465	1
H	-1.635253	1.846545	-0.246795	1
H	-0.089153	2.510935	-0.708185	1
H	-0.512033	2.401705	1.011185	1
H	2.048187	-0.289795	0.552325	1
H	1.899487	1.428385	0.797655	1
H	1.792777	0.083965	-1.802875	1
H	3.106077	0.824735	-1.185385	1
Es	2.088460	0.853857	-1.204112	99
Es	1.582905	0.610094	0.139161	99
Es	-0.620729	-0.632418	0.218389	99
Es	0.072889	0.528000	0.132324	99
Es	0.018598	-2.001368	0.209982	99
Es	-2.125747	-0.710751	0.330499	99
Es	-0.583788	1.888905	0.046206	99
Es	1.895507	0.707803	-0.671554	99
Es	0.698939	-1.992323	-0.037651	99
Es	0.825760	0.534239	0.140953	99
Es	-2.422888	-0.091044	0.546457	99
Es	-0.288122	1.202335	0.088329	99
Es	-0.282014	-0.073550	0.154892	99
Es	1.939537	0.375923	-1.510858	99
Es	-0.249030	-1.285013	0.200395	99
Es	1.884974	-0.008155	0.417212	99
Es	0.022582	-2.275550	0.896020	99
Es	2.673521	0.786378	-1.162104	99
Es	-0.371992	-2.452276	-0.239560	99
Es	-0.533740	2.215402	0.712427	99
Es	1.796880	1.167898	0.592650	99
Es	-2.406917	-0.889411	-0.328562	99
Es	-1.286963	1.843246	-0.147601	99
Es	-2.307279	-1.234109	0.837248	99
Es	-0.242854	2.297493	-0.460933	99
Es	-1.380485	-0.619931	0.265696	99
Es	1.944109	1.201836	-1.332881	99
Es	-0.257806	-0.051479	0.199799	99
