45
Properties=species:S:1:pos:R:3:Z:I:1 energy=-288.16561389917837 field_type=dipole dipole="0.000000 0.000000 0.000000" charge=0
C	-1.699828	0.133379	-0.002736	6
C	-0.171148	-0.070521	0.000654	6
C	0.210382	-0.861411	1.265794	6
C	0.212482	-0.887360	-1.247226	6
C	0.505372	1.323589	-0.013136	6
C	1.948742	1.281219	-0.012216	6
N	3.099262	1.247459	-0.011476	7
H	-2.023238	0.682379	-0.893896	1
H	-2.024718	0.700899	0.876184	1
H	-2.228978	-0.826221	0.006844	1
H	-0.035398	-0.297191	2.172174	1
H	1.280652	-1.091411	1.292784	1
H	-0.328598	-1.814880	1.311684	1
H	-0.031478	-0.341861	-2.165516	1
H	-0.326668	-1.841330	-1.274396	1
H	1.282752	-1.118160	-1.267516	1
H	0.164862	1.899559	0.857114	1
H	0.165552	1.881859	-0.895116	1
Es	3.100918	1.247505	-0.011476	99
Es	0.506169	1.323310	-0.013133	99
Es	1.946515	1.281341	-0.012218	99
Es	-0.171169	-0.070414	0.000653	99
Es	-1.699489	0.133364	-0.002736	99
Es	0.210319	-0.861112	1.265420	99
Es	0.212418	-0.887054	-1.246859	99
Es	2.568101	1.229207	-0.011415	99
Es	0.030028	-0.485773	-0.641297	99
Es	1.281569	1.297998	-0.012596	99
Es	-1.904309	0.513745	-0.617002	99
Es	0.941903	-1.004131	1.266115	99
Es	0.943937	-1.030279	-1.243291	99
Es	0.288208	1.679834	0.558873	99
Es	0.288654	1.668217	-0.592405	99
Es	0.243806	0.694008	-0.006881	99
Es	0.040138	-0.497595	-1.866805	99
Es	-1.905338	0.526512	0.603094	99
Es	3.430521	1.240139	-0.011281	99
Es	-2.046681	-0.528064	0.003880	99
Es	-0.166285	-1.503223	1.279269	99
Es	0.036787	-0.459009	1.876872	99
Es	-0.164345	-1.529194	-1.248176	99
Es	0.028971	-0.472475	0.651434	99
Es	-0.956104	0.045432	-0.001199	99
Es	2.593109	1.259037	-0.011819	99
Es	2.584166	1.270868	-0.011888	99
