45
Properties=species:S:1:pos:R:3:Z:I:1 energy=-288.1639189305001 field_type=dipole dipole="0.000000 0.000000 0.000000" charge=0
C	-1.647162	-0.474318	1.163361	6
C	-0.261722	-0.333168	0.526181	6
C	0.132798	-1.649078	-0.145579	6
C	-0.262072	0.855862	-0.457069	6
C	1.078628	1.148292	-1.136209	6
C	2.116128	1.548242	-0.176409	6
N	2.937288	1.863692	0.579291	7
H	-1.930562	0.445122	1.686501	1
H	-1.658552	-1.289768	1.894381	1
H	-2.412472	-0.685418	0.408601	1
H	0.453188	-0.133008	1.333611	1
H	-0.506462	-1.861618	-1.009039	1
H	0.042188	-2.485738	0.555711	1
H	1.172178	-1.626068	-0.486579	1
H	-0.591672	1.756822	0.077881	1
H	-1.008822	0.672252	-1.240729	1
H	0.932098	1.963312	-1.855299	1
H	1.415008	0.284582	-1.718609	1
Es	2.938592	1.864127	0.580473	99
Es	1.079087	1.148274	-1.135753	99
Es	2.115736	1.548079	-0.176828	99
Es	-0.261499	0.855637	-0.457082	99
Es	-0.261711	-0.333124	0.526214	99
Es	0.132621	-1.648425	-0.145283	99
Es	-1.646580	-0.474208	1.163070	99
Es	3.174171	1.948958	0.805466	99
Es	1.301120	0.588538	-1.494754	99
Es	-0.299711	-1.782406	-0.734913	99
Es	-1.837803	0.156840	1.514317	99
Es	-0.477745	1.453497	-0.102546	99
Es	-0.256289	0.266529	0.015311	99
Es	1.638505	1.363842	-0.618304	99
Es	0.967407	1.681590	-1.592848	99
Es	0.839757	-1.626009	-0.380083	99
Es	0.503085	1.015504	-0.812503	99
Es	0.066627	-2.216678	0.330624	99
Es	2.580133	1.771874	0.183911	99
Es	-2.157621	-0.615245	0.637390	99
Es	-0.757247	0.734608	-0.984734	99
Es	-1.646664	-1.035934	1.659286	99
Es	-0.968552	-0.400810	0.853669	99
Es	0.222002	-0.191959	1.058209	99
Es	-0.061786	-0.989078	0.181671	99
Es	2.584803	1.704321	0.242558	99
Es	2.533045	1.685974	0.303140	99
