43
Properties=species:S:1:pos:R:3:Z:I:1 energy=-270.96301385513567 field_type=dipole dipole="0.000000 0.000000 0.000000" charge=0
C	-2.149864	-0.358015	0.082000	6
C	-0.662234	-0.378455	0.007100	6
C	0.107296	-1.469955	-0.112930	6
C	1.563816	-1.136525	-0.141720	6
C	1.586506	0.391465	-0.223110	6
C	0.165486	0.809915	0.053560	6
C	-0.230674	2.060925	0.312630	6
H	-2.568604	-1.366465	-0.004520	1
H	-2.569314	0.244315	-0.730700	1
H	-2.485774	0.059985	1.036400	1
H	-0.265554	-2.483865	-0.159940	1
H	2.053816	-1.493875	0.770550	1
H	2.062716	-1.587425	-1.004980	1
H	1.881126	0.708895	-1.230740	1
H	2.294316	0.815915	0.496060	1
H	0.483736	2.877475	0.331010	1
H	-1.266794	2.305695	0.519330	1
Es	0.165736	0.810162	0.053540	99
Es	-0.662230	-0.378502	0.007117	99
Es	0.109236	-1.479537	-0.113754	99
Es	1.562818	-1.135856	-0.141753	99
Es	1.586073	0.390950	-0.222963	99
Es	-2.149316	-0.358087	0.081958	99
Es	-0.231669	2.061101	0.312831	99
Es	0.128315	-1.616107	-0.115210	99
Es	1.593921	-0.406198	-0.175385	99
Es	-0.801813	2.054195	0.415029	99
Es	-2.362493	-0.075301	0.726906	99
Es	-0.140994	-1.170451	-0.048315	99
Es	2.052680	0.687395	0.261192	99
Es	-0.137153	1.616365	0.237529	99
Es	-1.389012	-0.355214	0.035531	99
Es	1.887738	-1.365561	0.465382	99
Es	-2.422770	-1.038792	0.021568	99
Es	-2.419483	0.046947	-0.462312	99
Es	0.239013	2.557059	0.315355	99
Es	-0.319531	0.159332	0.022464	99
Es	1.770541	0.612606	-0.900375	99
Es	1.900391	-1.436303	-0.720823	99
Es	0.414090	-1.541795	-0.124598	99
Es	0.882406	0.640121	-0.074366	99
Es	-0.260177	-0.863914	-0.081957	99
Es	-0.066686	1.460081	0.180264	99
