42
Properties=species:S:1:pos:R:3:Z:I:1 energy=-286.9720289182457 field_type=dipole dipole="0.000000 0.000000 0.000000" charge=0
C	-0.597334	-1.277775	-1.345193	6
C	-0.761694	-0.815725	0.096227	6
C	-0.213944	0.576435	0.341497	6
C	-1.031554	1.582115	0.703147	6
C	1.276416	0.797565	0.165107	6
C	2.071236	-0.030545	1.086327	6
N	2.711386	-0.686895	1.799687	7
H	-1.078244	-2.251605	-1.483833	1
H	0.457936	-1.389995	-1.613343	1
H	-1.056834	-0.570615	-2.043583	1
H	-0.273584	-1.530345	0.768867	1
H	-1.829794	-0.851445	0.346147	1
H	-2.099954	1.429325	0.831597	1
H	-0.662274	2.587345	0.886147	1
H	1.530056	1.851735	0.332387	1
H	1.558176	0.580425	-0.871183	1
Es	2.712151	-0.687705	1.800521	99
Es	1.276627	0.797075	0.165266	99
Es	2.071085	-0.030403	1.086163	99
Es	-0.213845	0.576627	0.341528	99
Es	-0.761398	-0.815569	0.096223	99
Es	-1.028907	1.578917	0.701962	99
Es	-0.597360	-1.277495	-1.344569	99
Es	2.418166	-0.359962	1.477615	99
Es	0.585452	0.694782	0.262451	99
Es	-0.481548	-0.109894	0.215587	99
Es	-0.720352	2.198513	0.811320	99
Es	-0.898052	-0.796620	-1.813157	99
Es	1.690578	0.354107	0.663883	99
Es	1.433103	1.476222	0.282635	99
Es	1.450429	0.639048	-0.496530	99
Es	-0.755996	1.213170	0.574980	99
Es	0.117598	-1.345113	-1.518698	99
Es	-0.925132	-1.940238	-1.437404	99
Es	-1.645837	1.372023	0.738214	99
Es	2.889030	-0.877186	2.006919	99
Es	-0.667541	-1.010840	-0.623834	99
Es	-1.475877	-0.822187	0.268874	99
Es	-0.414854	-1.277320	0.555860	99
Es	2.425144	-0.395683	1.484973	99
Es	2.404976	-0.428283	1.468862	99
Es	-0.629007	1.102408	0.523739	99
