27
Properties=species:S:1:pos:R:3:Z:I:1 energy=-172.11277363916986 field_type=dipole dipole="0.000000 0.000000 0.000000" charge=0
C	-1.239611	-0.008605	0.579296	6
N	0.213849	-0.079675	0.698436	7
C	0.850879	-0.748455	-0.430544	6
C	0.920349	0.749585	-0.271084	6
H	-1.624341	0.749155	1.269866	1
H	-1.681221	-0.969605	0.862736	1
H	-1.599181	0.242405	-0.426174	1
H	0.223419	-1.160965	-1.210554	1
H	1.735969	-1.326505	-0.194884	1
H	1.853749	1.181394	0.069916	1
H	0.346139	1.371275	-0.947014	1
Es	0.213965	-0.079629	0.697955	99
Es	0.920126	0.749153	-0.270960	99
Es	0.850693	-0.748043	-0.430315	99
Es	-1.239507	-0.008601	0.579219	99
Es	0.470455	0.402507	0.321823	99
Es	-1.494766	0.513419	1.047627	99
Es	0.521401	1.165704	-0.726500	99
Es	0.416227	-1.022409	-0.955372	99
Es	1.442564	-1.141652	-0.264914	99
Es	-0.416925	-0.044229	0.603545	99
Es	-1.533348	-0.668541	0.769819	99
Es	-1.469860	0.164267	-0.123303	99
Es	1.010558	0.014136	-0.530772	99
Es	1.546728	1.044125	-0.033423	99
Es	0.432970	-0.495264	0.228975	99
Es	0.352149	-0.120426	1.027545	99
