27
Properties=species:S:1:pos:R:3:Z:I:1 energy=-173.28089055735268 field_type=dipole dipole="0.000000 0.000000 0.000000" charge=0
C	-1.239611	-0.008605	0.579296	6
N	0.213849	-0.079675	0.698436	7
C	0.850879	-0.748455	-0.430544	6
C	0.920349	0.749585	-0.271084	6
H	-1.624341	0.749155	1.269866	1
H	-1.681221	-0.969605	0.862736	1
H	-1.599181	0.242405	-0.426174	1
H	0.223419	-1.160965	-1.210554	1
H	1.735969	-1.326505	-0.194884	1
H	1.853749	1.181394	0.069916	1
H	0.346139	1.371275	-0.947014	1
Es	0.213825	-0.079595	0.697756	99
Es	0.920089	0.749076	-0.270958	99
Es	0.850670	-0.747997	-0.430300	99
Es	-1.239458	-0.008605	0.579215	99
Es	0.471001	0.397695	0.310348	99
Es	-1.467579	0.161754	-0.113830	99
Es	0.418625	-1.019034	-0.951328	99
Es	0.523472	1.161364	-0.722697	99
Es	1.540617	1.040561	-0.034182	99
Es	-0.412965	-0.043369	0.590425	99
Es	-1.528584	-0.657881	0.766965	99
Es	-1.490677	0.504971	1.040040	99
Es	1.437649	-1.136923	-0.265183	99
Es	1.002607	0.012781	-0.519463	99
Es	0.434032	-0.488926	0.220224	99
Es	0.348021	-0.118854	1.024528	99
