30
Properties=species:S:1:pos:R:3:Z:I:1 energy=-173.31666377844908 field_type=dipole dipole="0.000000 0.000000 0.000000" charge=0
C	-1.300289	-0.239857	0.420012	6
N	0.161661	-0.232907	0.416952	7
C	0.673681	-0.956407	-0.745708	6
C	0.666212	1.139203	0.427842	6
H	-1.685889	0.265693	1.312772	1
H	-1.680459	-1.267307	0.453232	1
H	-1.719949	0.254393	-0.464148	1
H	0.330842	-1.997367	-0.733098	1
H	1.769141	-0.987287	-0.728378	1
H	0.356761	-0.500697	-1.691238	1
H	0.315932	1.671343	1.319712	1
H	0.350892	1.704843	-0.456908	1
H	1.761461	1.146353	0.468952	1
Es	0.161490	-0.232661	0.416512	99
Es	0.666129	1.139116	0.427755	99
Es	-1.300178	-0.239809	0.419926	99
Es	0.673598	-0.956288	-0.745679	99
Es	0.386490	-0.550470	-0.115628	99
Es	-1.552480	0.112966	1.029222	99
Es	0.416095	1.494670	1.036367	99
Es	0.448730	-0.632993	-1.398161	99
Es	-1.583284	0.105463	-0.197696	99
Es	-0.497813	-0.229465	0.406587	99
Es	0.383135	0.388328	0.410098	99
Es	0.442391	1.524813	-0.190310	99
Es	0.428592	-1.662757	-0.730694	99
Es	1.421204	-0.965673	-0.727388	99
Es	1.413695	1.132422	0.449186	99
Es	-1.548708	-0.945013	0.436043	99
Es	0.254297	-0.366360	0.655858	99
