27
Properties=species:S:1:pos:R:3:Z:I:1 energy=-173.30553513540198 field_type=dipole dipole="0.000000 0.000000 0.000000" charge=0
N	-1.425706	-0.857731	-0.424904	7
C	-0.012166	-0.746121	-0.104294	6
C	0.410474	0.685479	-0.157484	6
C	0.949874	1.355269	0.871456	6
H	-1.704706	-1.834271	-0.356194	1
H	-1.572816	-0.590591	-1.395864	1
H	0.576464	-1.327031	-0.823254	1
H	0.166064	-1.174331	0.888126	1
H	0.273704	1.205949	-1.101704	1
H	1.104254	0.886159	1.837656	1
H	1.234555	2.397219	0.766456	1
Es	-1.425489	-0.857859	-0.425043	99
Es	-0.012239	-0.745991	-0.104483	99
Es	0.410415	0.685339	-0.157438	99
Es	0.949856	1.355243	0.871432	99
Es	-0.778737	-0.806957	-0.294366	99
Es	0.650694	1.038357	0.376583	99
Es	0.395173	-1.126884	-0.596139	99
Es	0.313093	1.018270	-0.787311	99
Es	-1.512950	-0.687491	-1.011378	99
Es	1.140561	2.056024	0.796302	99
Es	-1.586319	-1.449855	-0.384834	99
Es	0.186164	-0.037720	-0.135869	99
Es	0.098491	-1.021114	0.568710	99
Es	1.050334	1.028039	1.519686	99
Es	0.728503	1.007515	0.349831	99
Es	-1.578005	-0.684151	-0.231912	99
