27
Properties=species:S:1:pos:R:3:Z:I:1 energy=-172.14058363759688 field_type=dipole dipole="0.000000 0.000000 0.000000" charge=0
N	-1.425706	-0.857731	-0.424904	7
C	-0.012166	-0.746121	-0.104294	6
C	0.410474	0.685479	-0.157484	6
C	0.949874	1.355269	0.871456	6
H	-1.704706	-1.834271	-0.356194	1
H	-1.572816	-0.590591	-1.395864	1
H	0.576464	-1.327031	-0.823254	1
H	0.166064	-1.174331	0.888126	1
H	0.273704	1.205949	-1.101704	1
H	1.104254	0.886159	1.837656	1
H	1.234555	2.397219	0.766456	1
Es	-1.425453	-0.857908	-0.425093	99
Es	-0.012238	-0.746129	-0.104400	99
Es	0.410446	0.685459	-0.157527	99
Es	0.949888	1.355283	0.871495	99
Es	-0.777924	-0.804758	-0.292666	99
Es	0.721152	1.016137	0.355577	99
Es	0.397345	-1.133191	-0.606820	99
Es	0.312991	1.018001	-0.788908	99
Es	-1.585831	-1.456054	-0.387761	99
Es	1.144218	2.062566	0.794532	99
Es	-1.508882	-0.692479	-1.015620	99
Es	1.053086	1.025179	1.524312	99
Es	0.099909	-1.019402	0.578582	99
Es	0.181157	-0.037170	-0.138635	99
Es	-1.597769	-0.676053	-0.225465	99
Es	0.664866	1.037581	0.376060	99
