26
Properties=species:S:1:pos:R:3:Z:I:1 energy=-193.16530450108507 field_type=dipole dipole="0.000000 0.000000 0.000000" charge=0
C	-1.161662	0.280251	0.325012	6
C	0.314898	0.142251	0.430662	6
C	1.117378	-0.486139	-0.675728	6
O	1.057118	0.938381	-0.498488	8
H	-1.516362	1.066781	0.998552	1
H	-1.648122	-0.657769	0.610312	1
H	-1.480122	0.534441	-0.691608	1
H	0.673058	0.069631	1.447752	1
H	0.597768	-0.907769	-1.526658	1
H	2.046048	-0.980059	-0.419808	1
Es	1.056989	0.937965	-0.498366	99
Es	0.315170	0.142475	0.430227	99
Es	1.117126	-0.485718	-0.675435	99
Es	-1.161428	0.280237	0.325035	99
Es	1.128756	1.195121	-0.580603	99
Es	-1.467526	-0.352122	0.520827	99
Es	1.749959	-0.806651	-0.504350	99
Es	0.564367	0.109180	1.096320	99
Es	1.123971	0.380157	-0.633051	99
Es	-0.436366	0.223707	0.368930	99
Es	0.755230	0.697744	-0.092444	99
Es	-1.387114	0.804342	0.775971	99
Es	0.763837	-0.756797	-1.252534	99
Es	-1.359059	0.444735	-0.354473	99
Es	0.662086	-0.381188	-0.068517	99
Es	1.038080	0.882233	-0.477780	99
