14
Properties=species:S:1:pos:R:3:Z:I:1 energy=-78.05594248631878 field_type=dipole dipole="0.000000 0.000000 0.000000" charge=0
C	-0.662428	0.000105	0.000000	6
C	0.662428	-0.000105	0.000000	6
H	-1.231463	0.920907	-0.000000	1
H	-1.231756	-0.920515	-0.000000	1
H	1.231757	0.920515	-0.000000	1
H	1.231463	-0.920907	-0.000000	1
Es	-0.662472	0.000105	-0.000000	99
Es	0.662472	-0.000105	0.000000	99
Es	1.051067	0.626218	0.000000	99
Es	-1.051066	-0.626218	-0.000000	99
Es	-1.050867	0.626552	-0.000000	99
Es	0.000000	0.000000	0.000000	99
Es	1.050867	-0.626552	0.000000	99
Es	-0.000000	-0.000000	-0.000000	99
