33
Properties=species:S:1:pos:R:3:Z:I:1 energy=-230.75586901179227 field_type=dipole dipole="0.000000 0.000000 0.000000" charge=0
C	-1.213100	-0.688400	0.000000	6
C	-1.202800	0.706400	0.000100	6
C	-0.010300	-1.394800	0.000000	6
C	0.010400	1.394800	-0.000100	6
C	1.202800	-0.706300	0.000000	6
C	1.213100	0.688400	0.000000	6
H	-2.157700	-1.224400	0.000000	1
H	-2.139300	1.256400	0.000100	1
H	-0.018400	-2.480900	-0.000100	1
H	0.018400	2.480800	0.000000	1
H	2.139400	-1.256300	0.000100	1
H	2.157700	1.224500	0.000000	1
Es	-0.010299	-1.394695	-0.000001	99
Es	0.010399	1.394695	-0.000098	99
Es	1.213009	0.688348	-0.000001	99
Es	1.202709	-0.706247	0.000001	99
Es	-1.213009	-0.688348	0.000001	99
Es	-1.202710	0.706347	0.000098	99
Es	-1.243108	0.009253	0.000342	99
Es	1.826220	1.036369	-0.000065	99
Es	-0.629508	-1.071928	0.000038	99
Es	1.243124	-0.009215	0.000074	99
Es	0.613624	-1.081159	0.000180	99
Es	0.015608	2.099742	0.000078	99
Es	-1.810695	1.063415	0.000008	99
Es	-0.613550	1.081180	0.000109	99
Es	-1.826234	-1.036329	0.000086	99
Es	-0.015552	-2.099772	-0.000080	99
Es	0.661933	0.677696	-0.000522	99
Es	1.810718	-1.063290	0.000108	99
Es	0.629562	1.071921	0.000323	99
Es	-0.917880	0.234376	-0.000381	99
Es	0.256000	-0.912021	-0.000256	99
