14
Properties=species:S:1:pos:R:3:Z:I:1 energy=-187.68919801895981 field_type=dipole dipole="0.000000 0.000000 0.000000" charge=0
O	-1.157569	0.000000	0.000000	8
O	1.157569	0.000000	0.000000	8
C	0.000000	0.000000	0.000000	6
Es	-1.157166	-0.000000	0.000000	99
Es	1.157166	0.000000	-0.000000	99
Es	-0.000000	0.000000	0.000000	99
Es	1.427449	-0.000000	-0.000000	99
Es	-0.664397	0.000000	0.000000	99
Es	0.664397	0.000000	0.000000	99
Es	-1.427449	-0.000000	-0.000000	99
Es	-0.940547	-0.000000	0.000000	99
Es	0.940547	0.000000	-0.000000	99
Es	-0.940547	0.000000	0.000000	99
Es	0.940547	-0.000000	-0.000000	99
