14
Properties=species:S:1:pos:R:3:Z:I:1 energy=-187.70925751098383 field_type=dipole dipole="0.000000 0.000000 0.000000" charge=0
O	-1.160482	0.000000	-0.000000	8
O	1.160482	0.000000	-0.000000	8
C	-0.000000	-0.000000	0.000000	6
Es	-1.160493	0.000000	-0.000000	99
Es	1.160493	0.000000	-0.000000	99
Es	-0.000000	-0.000000	-0.000000	99
Es	0.662560	0.000000	0.000000	99
Es	-0.662560	-0.000000	-0.000000	99
Es	-1.432583	0.000000	0.000000	99
Es	1.432583	-0.000000	-0.000000	99
Es	-0.940514	-0.000000	0.000000	99
Es	0.940514	0.000000	0.000000	99
Es	0.940514	0.000000	-0.000000	99
Es	-0.940514	-0.000000	-0.000000	99
