14
Properties=species:S:1:pos:R:3:Z:I:1 energy=-187.68857431785779 field_type=dipole dipole="0.000000 0.000000 0.000000" charge=0
O	-1.160482	0.000000	-0.000000	8
O	1.160482	0.000000	-0.000000	8
C	-0.000000	-0.000000	0.000000	6
Es	-1.160083	-0.000000	0.000000	99
Es	1.160083	0.000000	-0.000000	99
Es	-0.000000	-0.000000	0.000000	99
Es	1.429629	0.000000	0.000000	99
Es	-0.665816	0.000000	-0.000000	99
Es	0.665816	0.000000	-0.000000	99
Es	-1.429629	-0.000000	0.000000	99
Es	-0.943317	0.000000	-0.000000	99
Es	0.943317	0.000000	-0.000000	99
Es	0.943317	-0.000000	-0.000000	99
Es	-0.943317	0.000000	0.000000	99
