31
Properties=species:S:1:pos:R:3:Z:I:1 energy=-551.3811869889138 field_type=dipole dipole="0.000000 0.000000 0.000000" charge=0
S	-0.562156	-1.669827	0.023547	16
C	-1.352065	-0.135529	0.007030	6
C	-0.451572	0.888278	-0.009534	6
C	0.896834	0.434329	-0.009065	6
C	0.994826	-0.925617	0.007882	6
H	-2.427134	-0.079983	0.010532	1
H	-0.737651	1.929391	-0.021685	1
H	1.754292	1.090476	-0.020807	1
H	1.884626	-1.531514	0.012102	1
Es	-0.562749	-1.671590	0.023573	99
Es	-1.351779	-0.135950	0.007034	99
Es	0.994343	-0.925779	0.007886	99
Es	-0.451533	0.888294	-0.009534	99
Es	0.896813	0.434365	-0.009065	99
Es	-0.656189	-1.585516	0.022831	99
Es	-0.436278	-1.659551	0.022906	99
Es	-0.596512	-1.771874	0.025082	99
Es	-0.562128	-1.669743	0.023471	99
Es	0.220970	0.656371	-0.009226	99
Es	0.946747	-0.238872	-0.000717	99
Es	-0.939938	-0.910287	0.015311	99
Es	-0.898452	0.382325	-0.001261	99
Es	1.585258	-1.329267	0.010705	99
Es	1.451413	0.860776	-0.016691	99
Es	-0.635346	1.563287	-0.017424	99
Es	-2.066404	-0.099943	0.009381	99
Es	0.198059	-1.293397	0.015725	99
Es	-0.824402	0.334720	-0.001106	99
Es	-0.702687	-2.087257	0.029403	99
Es	-0.490297	-1.456374	0.020578	99
Es	0.858985	-0.231998	-0.000390	99
