31
Properties=species:S:1:pos:R:3:Z:I:1 energy=-551.3501190495632 field_type=dipole dipole="0.000000 0.000000 0.000000" charge=0
S	-0.562156	-1.669827	0.023547	16
C	-1.352065	-0.135529	0.007030	6
C	-0.451572	0.888278	-0.009534	6
C	0.896834	0.434329	-0.009065	6
C	0.994826	-0.925617	0.007882	6
H	-2.427134	-0.079983	0.010532	1
H	-0.737651	1.929391	-0.021685	1
H	1.754292	1.090476	-0.020807	1
H	1.884626	-1.531514	0.012102	1
Es	-0.561659	-1.668349	0.023526	99
Es	-1.351909	-0.135667	0.007031	99
Es	0.994619	-0.925632	0.007883	99
Es	0.896743	0.434168	-0.009063	99
Es	-0.451597	0.888095	-0.009532	99
Es	-0.559513	-1.661974	0.023437	99
Es	-0.557703	-1.678701	0.023643	99
Es	-0.571068	-1.674200	0.023638	99
Es	-0.562147	-1.669801	0.023544	99
Es	-0.949261	0.393145	-0.001126	99
Es	0.993751	-0.260977	-0.000407	99
Es	-0.887205	-1.017456	0.016485	99
Es	0.235977	0.700949	-0.009850	99
Es	-0.636969	1.569705	-0.017499	99
Es	1.456587	0.864905	-0.016764	99
Es	1.561295	-1.329476	0.010809	99
Es	-2.047446	-0.114602	0.009498	99
Es	0.091252	-1.346860	0.016842	99
Es	-0.829361	0.343580	-0.001286	99
Es	-0.661890	-1.966073	0.027689	99
Es	-0.492457	-1.462793	0.020663	99
Es	0.868292	-0.227942	-0.000707	99
