32
Properties=species:S:1:pos:R:3:Z:I:1 energy=-698.2473096191089 field_type=dipole dipole="0.000000 0.000000 0.000000" charge=0
S	-0.007035	-0.007972	0.006533	16
O	1.257110	-0.004178	1.003448	8
O	-1.242462	0.026794	1.038254	8
O	-0.046202	1.246271	-0.689258	8
O	0.013171	-1.287795	-0.641871	8
H	1.467336	0.913111	1.234842	1
H	-1.445719	-0.880931	1.310054	1
Es	-0.007044	-0.007984	0.005874	99
Es	-1.242488	0.026584	1.038527	99
Es	1.257144	-0.003958	1.003712	99
Es	-0.046135	1.245979	-0.689087	99
Es	0.013109	-1.287497	-0.641710	99
Es	-0.006716	-0.007540	0.029090	99
Es	-0.007032	-0.007971	0.006642	99
Es	-0.007325	-0.008361	-0.013825	99
Es	-0.007032	-0.007968	0.006697	99
Es	1.312944	0.458459	1.094485	99
Es	-1.295521	-0.432022	1.148277	99
Es	-0.002348	-0.803577	-0.390001	99
Es	-0.023343	0.771978	-0.419682	99
Es	-0.841236	-0.031191	0.726975	99
Es	0.847197	0.042153	0.701688	99
Es	-0.037998	1.119123	-0.594699	99
Es	-1.380091	0.289639	1.090155	99
Es	1.396323	-0.264920	1.061344	99
Es	0.031984	-1.503186	-0.767822	99
Es	-1.186794	0.001280	1.007324	99
Es	1.200576	0.020169	0.973158	99
Es	-0.068691	1.456728	-0.822724	99
Es	-0.029269	1.104620	-0.614200	99
Es	-0.001705	-1.143386	-0.571802	99
Es	0.007569	-1.157139	-0.552026	99
