27
Properties=species:S:1:pos:R:3:Z:I:1 energy=-172.13138253571316 field_type=dipole dipole="0.000000 0.000000 0.000000" charge=0
C	-1.239611	-0.008605	0.579296	6
N	0.213849	-0.079675	0.698436	7
C	0.850879	-0.748455	-0.430544	6
C	0.920349	0.749585	-0.271084	6
H	-1.624341	0.749155	1.269866	1
H	-1.681221	-0.969605	0.862736	1
H	-1.599181	0.242405	-0.426174	1
H	0.223419	-1.160965	-1.210554	1
H	1.735969	-1.326505	-0.194884	1
H	1.853749	1.181394	0.069916	1
H	0.346139	1.371275	-0.947014	1
Es	-1.501593	0.511601	1.045542	99
Es	1.553416	1.047620	-0.040656	99
Es	-1.239484	-0.008610	0.579297	99
Es	0.213661	-0.079598	0.697795	99
Es	0.850795	-0.748278	-0.430398	99
Es	0.469182	0.407895	0.335427	99
Es	0.521470	1.171696	-0.727418	99
Es	1.450583	-1.145443	-0.272972	99
Es	0.416422	-1.027998	-0.958497	99
Es	0.429507	-0.499691	0.236977	99
Es	0.355144	-0.121403	1.019748	99
Es	0.920248	0.749396	-0.270975	99
Es	-1.538956	-0.665885	0.768478	99
Es	1.008904	0.013951	-0.538227	99
Es	-1.476300	0.163733	-0.121268	99
Es	-0.414718	-0.043298	0.607081	99
