30
Properties=species:S:1:pos:R:3:Z:I:1 energy=-173.33419629567496 field_type=dipole dipole="0.000000 0.000000 0.000000" charge=0
C	-1.300289	-0.239857	0.420012	6
N	0.161661	-0.232907	0.416952	7
C	0.673681	-0.956407	-0.745708	6
C	0.666212	1.139203	0.427842	6
H	-1.685889	0.265693	1.312772	1
H	-1.680459	-1.267307	0.453232	1
H	-1.719949	0.254393	-0.464148	1
H	0.330842	-1.997367	-0.733098	1
H	1.769141	-0.987287	-0.728378	1
H	0.356761	-0.500697	-1.691238	1
H	0.315932	1.671343	1.319712	1
H	0.350892	1.704843	-0.456908	1
H	1.761461	1.146353	0.468952	1
Es	-0.479616	-0.219399	0.388665	99
Es	0.451295	-0.636749	-1.400028	99
Es	-1.587522	0.104273	-0.195517	99
Es	1.414487	1.140341	0.448288	99
Es	0.370496	-0.527744	-0.113631	99
Es	0.367363	0.374701	0.391848	99
Es	0.666173	1.139091	0.427842	99
Es	0.272567	-0.392398	0.702259	99
Es	0.161414	-0.232560	0.416341	99
Es	-1.556397	-0.942993	0.435013	99
Es	0.444980	1.528364	-0.188121	99
Es	0.418945	1.501816	1.034138	99
Es	-1.560161	0.112676	1.027071	99
Es	0.673639	-0.956348	-0.745611	99
Es	1.422025	-0.968947	-0.734654	99
Es	0.431540	-1.664630	-0.737904	99
Es	-1.300171	-0.239859	0.420013	99
