27
Properties=species:S:1:pos:R:3:Z:I:1 energy=-172.15869190080335 field_type=dipole dipole="0.000000 0.000000 0.000000" charge=0
N	-1.425706	-0.857731	-0.424904	7
C	-0.012166	-0.746121	-0.104294	6
C	0.410474	0.685479	-0.157484	6
C	0.949874	1.355269	0.871456	6
H	-1.704706	-1.834271	-0.356194	1
H	-1.572816	-0.590591	-1.395864	1
H	0.576464	-1.327031	-0.823254	1
H	0.166064	-1.174331	0.888126	1
H	0.273704	1.205949	-1.101704	1
H	1.104254	0.886159	1.837656	1
H	1.234555	2.397219	0.766456	1
Es	-0.012293	-0.746090	-0.104339	99
Es	0.110014	-1.035674	0.574934	99
Es	-0.803033	-0.820462	-0.305222	99
Es	0.201734	-0.024277	-0.130310	99
Es	0.949920	1.355317	0.871531	99
Es	0.402386	-1.137556	-0.600189	99
Es	-1.495832	-0.707806	-1.020497	99
Es	0.987607	0.929838	0.268054	99
Es	0.410431	0.685411	-0.157572	99
Es	-1.622303	-0.659226	-0.212121	99
Es	1.058454	1.039969	1.529029	99
Es	0.391936	1.116369	0.460669	99
Es	-1.425410	-0.858029	-0.425219	99
Es	1.146979	2.062379	0.807632	99
Es	-1.575676	-1.455584	-0.397080	99
Es	0.310241	1.028019	-0.807010	99
