33
Properties=species:S:1:pos:R:3:Z:I:1 energy=-231.03446168095607 field_type=dipole dipole="0.000000 0.000000 0.000000" charge=0
C	-1.223819	-1.880607	-0.044909	6
O	-0.002109	-1.157047	-0.015469	8
C	-0.216469	0.219893	0.276381	6
C	1.119511	0.891143	0.278381	6
C	1.444711	1.949303	-0.475689	6
H	-0.999709	-2.926697	-0.271629	1
H	-1.883679	-1.488467	-0.825119	1
H	-1.721479	-1.833177	0.928551	1
H	-0.674179	0.320053	1.267131	1
H	-0.885139	0.659833	-0.473069	1
H	1.865691	0.465663	0.944161	1
H	0.736251	2.401533	-1.162779	1
H	2.440421	2.378573	-0.425939	1
Es	-0.531273	0.292147	0.956460	99
Es	0.156749	-1.267415	0.222753	99
Es	-0.002470	-1.156886	-0.015399	99
Es	0.452253	0.562464	0.273670	99
Es	1.378681	1.232631	-0.340222	99
Es	-0.678494	0.526417	-0.238324	99
Es	-1.223634	-1.880488	-0.044903	99
Es	1.174557	1.629058	0.137515	99
Es	2.116482	2.247362	-0.445965	99
Es	0.105739	-1.163050	-0.300793	99
Es	0.965937	2.260138	-0.942845	99
Es	1.119454	0.891063	0.278438	99
Es	1.444730	1.949396	-0.475743	99
Es	1.616848	0.598594	0.733332	99
Es	-1.073449	-2.592313	-0.198851	99
Es	-0.216397	0.219706	0.276346	99
Es	-0.486852	-1.403741	-0.018746	99
Es	-1.683384	-1.605823	-0.577555	99
Es	-1.572268	-1.842141	0.624190	99
Es	-0.118100	-0.636984	0.099006	99
