32
Properties=species:S:1:pos:R:3:Z:I:1 energy=-247.08238966949875 field_type=dipole dipole="0.000000 0.000000 0.000000" charge=0
C	-1.361708	0.132376	-0.149840	6
N	0.069102	0.130326	0.076370	7
C	0.761962	-1.142754	0.028090	6
C	0.780572	1.307386	0.180420	6
O	1.996812	1.406946	0.277380	8
H	-1.774838	1.139816	-0.051480	1
H	-1.838948	-0.524974	0.582540	1
H	-1.559188	-0.237394	-1.159790	1
H	0.293602	-1.829194	0.738590	1
H	1.820102	-1.034034	0.282230	1
H	0.678842	-1.548654	-0.983560	1
H	0.133692	2.200156	0.179050	1
Es	-1.361526	0.132388	-0.149811	99
Es	1.996487	1.406895	0.277346	99
Es	0.321444	1.910272	0.176338	99
Es	-0.541310	0.134773	-0.026172	99
Es	1.458241	-1.068951	0.197916	99
Es	0.780467	1.307250	0.180408	99
Es	2.135968	1.128606	0.271385	99
Es	0.435102	-1.609842	0.509082	99
Es	-1.499059	-0.121788	-0.837369	99
Es	0.360774	-0.408398	0.047917	99
Es	0.761839	-1.142594	0.028091	99
Es	-1.631169	0.817774	-0.081865	99
Es	0.699467	-1.421404	-0.661837	99
Es	1.571091	1.356052	0.492197	99
Es	2.078628	1.701030	0.300902	99
Es	0.319596	0.524323	-0.129694	99
Es	-1.686942	-0.316452	0.346080	99
Es	0.187782	0.377842	0.385244	99
Es	1.609025	1.385349	-0.002754	99
Es	0.069154	0.130396	0.076149	99
