29
Properties=species:S:1:pos:R:3:Z:I:1 energy=-192.81319929536596 field_type=dipole dipole="0.000000 0.000000 0.000000" charge=0
C	-1.440354	-0.200146	-0.004593	6
C	0.060525	-0.211656	-0.000503	6
C	0.745795	-1.364916	0.007357	6
C	0.776056	1.022484	-0.002003	6
C	1.375565	2.061674	-0.001953	6
H	-1.834454	0.821664	0.022177	1
H	-1.833385	-0.728286	0.870697	1
H	-1.826774	-0.680636	-0.909703	1
H	0.235836	-2.322796	0.009297	1
H	1.831655	-1.382296	0.011147	1
H	1.909535	2.984914	-0.001923	1
Es	1.021966	1.556317	-0.351836	99
Es	-1.701708	0.490400	0.013421	99
Es	0.418217	-0.766094	-0.317672	99
Es	0.775929	1.022270	-0.002002	99
Es	-1.440287	-0.200149	-0.004593	99
Es	0.834857	1.684025	0.221811	99
Es	0.416313	-0.762993	0.324494	99
Es	0.745829	-1.364990	0.007358	99
Es	-1.694183	-0.561492	0.584007	99
Es	1.723624	2.663427	-0.002002	99
Es	1.375686	2.061886	-0.001967	99
Es	-0.675773	-0.186318	-0.002345	99
Es	-1.689450	-0.528822	-0.613442	99
Es	0.399884	-2.015110	0.008885	99
Es	0.060492	-0.211458	-0.000503	99
Es	0.421799	0.432286	-0.001344	99
Es	1.476821	-1.383193	0.009878	99
Es	1.371690	1.381343	0.123460	99
