34
Properties=species:S:1:pos:R:3:Z:I:1 energy=-211.19470882244283 field_type=dipole dipole="0.000000 0.000000 0.000000" charge=0
C	-1.808789	-0.521856	0.421194	6
C	-0.322439	-0.468266	0.505744	6
N	0.488780	-1.155516	-0.498856	7
C	0.484261	0.305714	-0.508126	6
C	1.716480	1.034064	-0.096066	6
H	-2.248129	0.219784	1.095554	1
H	-2.169849	-1.510666	0.722224	1
H	-2.174129	-0.317446	-0.589906	1
H	0.039591	-0.539436	1.525034	1
H	-0.091679	-1.525896	-1.253646	1
H	-0.020959	0.783464	-1.339496	1
H	2.237961	0.536394	0.728444	1
H	1.460130	2.047734	0.227444	1
H	2.408771	1.111924	-0.939546	1
Es	0.484261	0.305482	-0.508091	99
Es	2.184543	1.087713	-0.672557	99
Es	1.716462	1.034069	-0.096073	99
Es	-2.102787	-0.017474	0.880137	99
Es	0.128102	0.629646	-1.075880	99
Es	1.108446	0.659253	-0.297817	99
Es	0.560652	-0.524726	-0.625199	99
Es	2.063930	0.694555	0.464365	99
Es	1.534219	1.723726	0.121197	99
Es	-1.808777	-0.521854	0.421194	99
Es	0.786626	-1.329373	-0.399162	99
Es	-2.050787	-1.195235	0.625684	99
Es	0.121990	-1.361382	-0.950336	99
Es	-2.049915	-0.384612	-0.273098	99
Es	-0.322333	-0.468349	0.505538	99
Es	0.080928	-0.984868	-0.025872	99
Es	-0.071130	-0.514589	1.200514	99
Es	-1.069222	-0.497346	0.447651	99
Es	0.006122	0.116999	0.093580	99
Es	0.488293	-1.155154	-0.498965	99
