31
Properties=species:S:1:pos:R:3:Z:I:1 energy=-209.99963598432316 field_type=dipole dipole="0.000000 0.000000 0.000000" charge=0
C	-1.240317	-0.378650	0.280690	6
C	0.287323	-0.337640	0.293990	6
N	0.819473	-1.042090	-0.869200	7
C	0.769343	1.023530	0.293990	6
C	1.166623	2.145430	0.293990	6
H	-1.649787	0.133270	1.158130	1
H	-1.605257	-1.410810	0.296980	1
H	-1.651547	0.112560	-0.608350	1
H	0.641373	-0.852160	1.194330	1
H	0.512653	-0.563360	-1.714680	1
H	0.419363	-1.976700	-0.910780	1
H	1.530753	3.146620	0.290910	1
Es	0.552553	-1.598076	-0.886174	99
Es	-1.516010	-0.032190	0.879163	99
Es	0.567151	-0.726990	-0.367050	99
Es	1.403303	2.800239	0.292292	99
Es	0.535951	0.371918	0.291912	99
Es	-1.240295	-0.378654	0.280694	99
Es	0.641759	1.715524	0.206138	99
Es	-1.477375	-1.088131	0.289697	99
Es	0.527131	-0.671774	0.902942	99
Es	-1.510347	-0.046601	-0.329052	99
Es	1.058255	1.559422	0.635417	99
Es	1.198974	1.508430	0.037940	99
Es	0.818882	-1.042067	-0.869209	99
Es	1.170492	-1.061507	-0.861578	99
Es	0.769244	1.023290	0.293988	99
Es	1.166710	2.145682	0.293986	99
Es	-0.476953	-0.337773	0.289836	99
Es	0.287367	-0.337585	0.293865	99
Es	0.609361	-0.752599	-1.369497	99
