37
Properties=species:S:1:pos:R:3:Z:I:1 energy=-212.39231874584624 field_type=dipole dipole="0.000000 0.000000 0.000000" charge=0
C	-1.662444	-1.162657	-0.260702	6
N	-0.215734	-1.065468	-0.110872	7
C	0.278386	0.314842	-0.217022	6
C	-0.115534	1.160443	0.995888	6
C	1.804656	0.273452	-0.340522	6
H	-1.954224	-2.217328	-0.248942	1
H	-1.999004	-0.734148	-1.209522	1
H	-2.190964	-0.676608	0.564168	1
H	0.222236	-1.634078	-0.835892	1
H	-0.116394	0.782852	-1.128352	1
H	0.219506	0.698382	1.930448	1
H	-1.198534	1.302542	1.054668	1
H	0.337546	2.155813	0.934078	1
H	2.266386	-0.187918	0.539078	1
H	2.211026	1.285293	-0.442412	1
H	2.113096	-0.295418	-1.224092	1
Es	-2.020175	-0.823384	0.299429	99
Es	-0.850297	-1.088495	-0.198958	99
Es	0.072266	0.736837	0.397558	99
Es	-1.662319	-1.162651	-0.260690	99
Es	2.009570	-0.120296	-0.947650	99
Es	1.804648	0.273458	-0.340536	99
Es	0.278376	0.314727	-0.216972	99
Es	-0.215919	-1.065226	-0.111446	99
Es	2.077626	0.966458	-0.411364	99
Es	0.115126	0.844487	1.627781	99
Es	-1.897658	-0.859912	-0.917491	99
Es	-1.860533	-1.883461	-0.257842	99
Es	-0.023044	-0.462843	-0.182213	99
Es	0.000397	0.644610	-0.849633	99
Es	2.114920	-0.039263	0.258845	99
Es	0.038889	-1.393502	-0.572090	99
Es	-0.115536	1.160445	0.995866	99
Es	1.050962	0.291814	-0.277615	99
Es	-0.120226	-1.192358	0.203421	99
Es	-0.856132	1.254172	1.032931	99
Es	0.195969	1.838294	0.945650	99
