40
Properties=species:S:1:pos:R:3:Z:I:1 energy=-266.26382611244725 field_type=dipole dipole="0.000000 0.000000 0.000000" charge=0
C	0.792495	1.199234	-0.317192	6
C	-0.680385	1.206534	0.148258	6
N	-1.416225	0.001684	-0.262432	7
C	-0.681075	-1.207856	0.132868	6
C	0.791115	-1.195646	-0.332412	6
N	1.526845	-0.001446	0.122938	7
H	0.839145	1.271944	-1.411152	1
H	1.300455	2.085345	0.078868	1
H	-1.183595	2.085764	-0.268082	1
H	-0.717905	1.300644	1.240758	1
H	-2.338325	-0.000066	0.169798	1
H	-0.719125	-1.315666	1.224128	1
H	-1.185315	-2.081125	-0.294572	1
H	1.298595	-2.086976	0.052688	1
H	0.838115	-1.254676	-1.427022	1
H	1.535185	-0.007696	1.142558	1
Es	0.792512	1.199115	-0.317121	99
Es	1.526265	-0.001446	0.123172	99
Es	0.817661	1.241487	-1.064519	99
Es	1.130425	-1.807694	-0.060760	99
Es	1.860953	-0.000803	-0.001955	99
Es	-1.963407	0.000277	0.024515	99
Es	1.183375	0.512941	-0.056113	99
Es	-0.680430	1.206409	0.148213	99
Es	1.182955	-0.513231	-0.062451	99
Es	0.043239	-1.190478	-0.098858	99
Es	-1.094014	-0.514144	-0.062558	99
Es	0.816432	-1.228538	-1.080104	99
Es	-0.696776	-1.280672	0.896899	99
Es	-0.695774	1.269670	0.913090	99
Es	0.044160	1.191750	-0.083696	99
Es	0.791132	-1.195529	-0.332340	99
Es	-1.447486	0.003827	-0.616789	99
Es	-1.416125	0.001699	-0.261822	99
Es	1.132189	1.807585	-0.037969	99
Es	-1.025496	-1.808506	-0.157677	99
Es	-1.024282	1.811198	-0.134662	99
Es	1.504202	-0.005183	0.744697	99
Es	-1.093596	0.515210	-0.056110	99
Es	-0.681122	-1.207731	0.132824	99
