34
Properties=species:S:1:pos:R:3:Z:I:1 energy=-263.92860406228743 field_type=dipole dipole="0.000000 0.000000 0.000000" charge=0
C	-1.883202	0.246511	0.001351	6
C	-0.403622	0.153251	0.000141	6
N	0.351897	1.258191	-0.005179	7
N	1.611038	0.792971	-0.004889	7
C	1.686237	-0.568149	0.000141	6
C	0.388638	-1.018179	0.003461	6
H	-2.222142	1.287601	0.015341	1
H	-2.295362	-0.255569	0.882311	1
H	-2.294922	-0.231989	-0.892839	1
H	2.370968	1.464471	-0.008379	1
H	2.635877	-1.083049	0.000861	1
H	0.054598	-2.046059	0.007681	1
Es	-2.151636	-0.081407	-0.601691	99
Es	-0.051268	-0.473089	0.001247	99
Es	1.610977	0.792976	-0.004890	99
Es	0.281773	1.630107	-0.006594	99
Es	-1.142241	0.196994	0.000884	99
Es	0.352118	1.257609	-0.005180	99
Es	2.326540	-0.909707	0.000629	99
Es	-2.152121	-0.097491	0.595478	99
Es	1.686341	-0.567960	0.000135	99
Es	0.388638	-1.018209	0.003458	99
Es	-0.403642	0.153311	0.000139	99
Es	1.614871	0.401558	-0.267609	99
Es	1.617546	0.397518	0.260126	99
Es	0.070967	0.770868	0.272618	99
Es	-1.883152	0.246489	0.001351	99
Es	0.157837	-1.711374	0.006349	99
Es	0.914599	-0.789872	-0.296314	99
Es	2.064497	1.183583	-0.006468	99
Es	1.016397	1.017595	-0.004849	99
Es	0.913415	-0.786879	0.300679	99
Es	-2.106544	0.945876	0.010729	99
Es	0.069339	0.768671	-0.277949	99
