40
Properties=species:S:1:pos:R:3:Z:I:1 energy=-266.23499465239433 field_type=dipole dipole="0.000000 0.000000 0.000000" charge=0
C	-1.347935	0.486203	-0.845564	6
C	0.066405	0.233913	-0.390164	6
C	0.298935	0.347723	1.103306	6
N	-0.070075	-0.900557	1.760296	7
C	0.902365	-0.751857	-1.182234	6
N	1.134085	0.681413	-1.304484	7
H	-1.445945	0.430593	-1.935414	1
H	-1.678345	1.482353	-0.531764	1
H	-2.029565	-0.253617	-0.413044	1
H	-0.284775	1.177413	1.518676	1
H	1.353365	0.555783	1.321276	1
H	-1.067415	-1.064297	1.636116	1
H	0.075235	-0.802647	2.763646	1
H	0.458175	-1.239317	-2.041014	1
H	1.658075	-1.330437	-0.665454	1
H	1.977415	0.947333	-0.794184	1
Es	-0.070389	-0.900108	1.760510	99
Es	0.005835	-0.820922	2.368650	99
Es	0.070301	-0.344533	1.487971	99
Es	1.047215	0.855231	-1.611105	99
Es	-0.678616	-0.977765	1.690183	99
Es	-0.105457	0.926429	1.381054	99
Es	0.370876	-0.432403	-0.697932	99
Es	1.025555	0.488765	1.246740	99
Es	1.145423	0.032501	-1.332057	99
Es	0.902369	-0.751592	-1.182223	99
Es	-1.347923	0.486188	-0.845541	99
Es	0.656444	0.629242	-0.856653	99
Es	-1.570403	1.163426	-0.625636	99
Es	-1.409956	0.442398	-1.580372	99
Es	-0.641554	0.364240	-0.621714	99
Es	1.419554	-1.142076	-0.831324	99
Es	0.066568	0.233962	-0.390299	99
Es	-1.806808	-0.020525	-0.539989	99
Es	1.636841	0.827291	-0.977900	99
Es	1.134172	0.681076	-1.303978	99
Es	0.298893	0.347596	1.103343	99
Es	0.117096	-1.171660	1.636006	99
Es	0.599514	-1.084402	-1.767967	99
Es	0.188944	0.295311	0.353520	99
