35
Properties=species:S:1:pos:R:3:Z:I:1 energy=-247.83628899377248 field_type=dipole dipole="0.000000 0.000000 0.000000" charge=0
C	-2.803754	-0.194459	-0.528135	6
C	-1.604674	-0.130469	-0.551815	6
C	-0.165284	-0.051959	-0.586995	6
C	0.497126	0.994761	0.334405	6
C	1.495636	-0.131449	0.651965	6
N	0.434836	-1.094869	0.282345	7
H	-3.866964	-0.256159	-0.500305	1
H	0.248996	-0.052019	-1.603935	1
H	-0.102344	1.312811	1.196555	1
H	0.914516	1.876881	-0.158085	1
H	2.368576	-0.159459	-0.010765	1
H	1.830736	-0.190939	1.690624	1
H	0.752596	-1.922669	-0.215855	1
Es	-2.233042	0.132980	-0.750012	99
Es	0.945397	-0.731247	0.442588	99
Es	0.089009	1.198082	0.914026	99
Es	0.089877	0.533759	-0.171805	99
Es	-1.604445	-0.130456	-0.551828	99
Es	0.780410	1.599560	-0.005787	99
Es	-2.803997	-0.194469	-0.528120	99
Es	-0.919232	-0.087081	-0.585915	99
Es	-2.197004	-0.487461	-0.694323	99
Es	0.639718	-1.586701	-0.035648	99
Es	0.435219	-1.094691	0.281862	99
Es	1.733388	-0.174955	1.364018	99
Es	-3.498198	-0.234352	-0.509894	99
Es	-2.210958	-0.126942	-0.182659	99
Es	1.052795	0.495466	0.529600	99
Es	0.146420	-0.684111	-0.149655	99
Es	0.224623	-1.158543	0.556302	99
Es	-0.165334	-0.052046	-0.586898	99
Es	0.497134	0.994697	0.334361	99
Es	0.105987	-0.049425	-1.277514	99
Es	2.092535	-0.147438	0.186338	99
Es	1.495517	-0.131520	0.651910	99
