35
Properties=species:S:1:pos:R:3:Z:I:1 energy=-247.83234818478323 field_type=dipole dipole="0.000000 0.000000 0.000000" charge=0
C	-2.697310	-0.013152	-0.536477	6
C	-1.497831	0.000768	-0.538277	6
C	-0.049941	0.017878	-0.545807	6
C	0.634299	1.028908	0.400353	6
N	1.651659	-0.005142	0.719383	7
C	0.658509	-1.038702	0.330173	6
H	-3.763641	-0.025542	-0.533087	1
H	0.364059	0.057248	-1.563427	1
H	0.045019	1.334558	1.273883	1
H	1.035339	1.927348	-0.078757	1
H	2.462500	0.025378	0.099963	1
H	1.080090	-1.892962	-0.208427	1
H	0.077250	-1.416592	1.180503	1
Es	2.110926	0.014274	0.310354	99
Es	0.221709	0.044182	-1.227560	99
Es	0.658583	-1.038566	0.330166	99
Es	-0.809096	0.009407	-0.553483	99
Es	-1.497591	0.000773	-0.538278	99
Es	0.634377	1.028777	0.400336	99
Es	0.257475	-1.281982	0.906810	99
Es	0.228078	1.223085	0.991872	99
Es	-2.107228	0.078653	-0.184974	99
Es	1.249208	0.486784	0.584628	99
Es	-0.050050	0.017875	-0.545778	99
Es	-2.114745	0.252889	-0.783921	99
Es	0.948420	-1.624580	-0.041197	99
Es	-2.697557	-0.013155	-0.536465	99
Es	-3.393347	-0.021304	-0.533595	99
Es	1.260625	-0.496165	0.551014	99
Es	1.651428	-0.005117	0.718778	99
Es	1.769491	-0.015419	1.060987	99
Es	0.219458	-0.568602	-0.156163	99
Es	0.910103	1.645219	0.069763	99
Es	0.206094	0.582697	-0.117103	99
Es	-2.103996	-0.350796	-0.636788	99
