35
Properties=species:S:1:pos:R:3:Z:I:1 energy=-247.83709959669974 field_type=dipole dipole="0.000000 0.000000 0.000000" charge=0
C	0.918026	-2.591733	0.253345	6
C	0.104806	-1.722743	0.254435	6
C	-0.881864	-0.668403	0.255755	6
C	-0.087734	0.597797	0.365905	6
C	0.412706	1.308357	-0.867145	6
N	-0.691924	1.856397	-0.086815	7
H	1.644586	-3.371463	0.251085	1
H	-1.557504	-0.758963	1.112525	1
H	-1.488904	-0.692403	-0.655845	1
H	0.490606	0.662117	1.281205	1
H	0.153866	0.909917	-1.841264	1
H	1.358506	1.833207	-0.814144	1
H	-0.375174	2.637917	0.490955	1
Es	0.236847	1.036911	-1.527733	99
Es	-0.497340	-0.042955	0.301076	99
Es	0.309506	0.641454	0.986992	99
Es	-1.271497	-0.693033	-0.355730	99
Es	-0.691357	1.856314	-0.086632	99
Es	-0.881758	-0.668475	0.255763	99
Es	0.623687	-2.065239	0.585827	99
Es	-0.207342	1.735459	-0.505217	99
Es	1.056570	1.667219	-0.830249	99
Es	0.264497	-2.411349	0.214210	99
Es	-0.512494	1.315463	0.228410	99
Es	-1.023259	1.852269	-0.222552	99
Es	0.318230	0.786104	-0.284351	99
Es	0.677168	-2.018045	-0.035687	99
Es	0.104630	-1.722543	0.254450	99
Es	1.394071	-3.100643	0.252174	99
Es	0.918214	-2.591916	0.253332	99
Es	-0.087842	0.597982	0.365773	99
Es	0.412533	1.308407	-0.866967	99
Es	-0.378568	-1.221502	0.255839	99
Es	-0.481030	2.316194	0.263677	99
Es	-1.320605	-0.740364	0.832011	99
