41
Properties=species:S:1:pos:R:3:Z:I:1 energy=-250.26004755730781 field_type=dipole dipole="0.000000 0.000000 0.000000" charge=0
C	-1.784543	-1.888910	-1.033446	6
C	-0.803993	-1.593760	0.090514	6
C	-0.453733	-0.135200	0.142654	6
C	0.794257	0.339460	-0.003066	6
C	1.158978	1.787800	0.045314	6
N	2.116198	2.008800	1.116884	7
H	-2.029553	-2.955740	-1.050916	1
H	-1.361773	-1.622470	-2.007866	1
H	-2.717543	-1.330900	-0.902256	1
H	0.093597	-2.209470	-0.042956	1
H	-1.250383	-1.882870	1.048854	1
H	-1.275543	0.555600	0.321524	1
H	1.617127	-0.351070	-0.178266	1
H	0.278717	2.420840	0.199494	1
H	1.610037	2.075080	-0.910466	1
H	1.668488	1.782010	2.003603	1
H	2.339667	3.000800	1.160404	1
Es	2.115714	2.009116	1.116952	99
Es	-0.626108	-0.859816	0.114220	99
Es	-1.020715	0.330936	0.263381	99
Es	-2.420389	-1.504066	-0.939983	99
Es	2.409289	1.814688	1.072529	99
Es	1.159066	1.787783	0.045415	99
Es	-1.293781	-1.730633	-0.471898	99
Es	1.355684	-0.125822	-0.122460	99
Es	0.220465	0.086090	0.398856	99
Es	0.541466	2.219328	0.147783	99
Es	-0.453839	-0.135254	0.142666	99
Es	0.968404	1.061776	0.022224	99
Es	-1.110617	-1.783207	0.743277	99
Es	2.230978	2.615829	1.142326	99
Es	0.794351	0.339519	-0.003081	99
Es	1.827580	1.884205	1.647198	99
Es	1.684817	1.925840	0.659983	99
Es	1.466895	1.981125	-0.605952	99
Es	-0.804016	-1.593719	0.090490	99
Es	-0.187792	-2.009314	-0.003209	99
Es	-1.784529	-1.888905	-1.033419	99
Es	-1.493719	-1.705996	-1.695390	99
Es	-1.950827	-2.617580	-1.042776	99
Es	0.123448	0.131119	-0.256287	99
