41
Properties=species:S:1:pos:R:3:Z:I:1 energy=-250.2297163944218 field_type=dipole dipole="0.000000 0.000000 0.000000" charge=0
C	-2.337223	-0.804657	-0.574419	6
C	-0.826343	-0.764177	-0.747729	6
C	-0.222303	0.479863	-0.091189	6
N	1.228067	0.501123	-0.307319	7
C	1.939307	1.341103	0.649961	6
C	1.990267	-0.162267	0.746081	6
H	-2.747303	-1.705497	-1.040379	1
H	-2.808163	0.065433	-1.042759	1
H	-2.610263	-0.815307	0.485001	1
H	-0.588013	-0.779197	-1.817940	1
H	-0.394413	-1.670857	-0.306329	1
H	-0.499803	0.506553	0.971131	1
H	-0.653623	1.377033	-0.552549	1
H	1.368187	1.889673	1.389101	1
H	2.812997	1.855953	0.267311	1
H	2.895697	-0.662367	0.424531	1
H	1.452936	-0.652407	1.547501	1
Es	1.616560	-0.495299	1.289360	99
Es	-1.587805	-0.779419	-0.655525	99
Es	-0.222172	0.479842	-0.091214	99
Es	1.227938	0.501161	-0.306694	99
Es	1.348525	0.482499	-0.640003	99
Es	1.542581	1.713367	1.150146	99
Es	2.100085	0.605348	0.877414	99
Es	-0.523572	-0.142384	-0.415064	99
Es	1.502979	0.078181	0.119397	99
Es	1.990162	-0.162096	0.745950	99
Es	-2.656361	-0.207129	-0.893731	99
Es	-0.665699	-0.770067	-1.477398	99
Es	-0.518527	1.095513	-0.406328	99
Es	-0.826379	-0.764151	-0.747695	99
Es	-2.521069	-0.810010	0.152448	99
Es	0.609292	0.493543	-0.173563	99
Es	1.477601	0.991198	0.060114	99
Es	2.531987	1.695758	0.391919	99
Es	-0.529071	-1.383125	-0.438726	99
Es	2.604628	-0.506595	0.530137	99
Es	1.939213	1.340910	0.649850	99
Es	-0.405442	0.494408	0.650880	99
Es	-2.337203	-0.804655	-0.574419	99
Es	-2.616822	-1.419368	-0.892155	99
