35
Properties=species:S:1:pos:R:3:Z:I:1 energy=-247.82623106150626 field_type=dipole dipole="0.000000 0.000000 0.000000" charge=0
C	0.757612	-2.856606	-0.376904	6
C	0.200172	-1.869096	0.022116	6
C	-0.484827	-0.662396	0.510696	6
N	0.423722	0.489174	0.476066	7
C	0.372722	1.245904	-0.772194	6
C	-0.266838	1.774884	0.486546	6
H	1.260672	-3.726986	-0.728084	1
H	-0.798298	-0.824736	1.548776	1
H	-1.402457	-0.505256	-0.071834	1
H	-0.263547	0.888724	-1.572504	1
H	1.310723	1.683934	-1.091274	1
H	0.237943	2.574914	1.014546	1
H	-1.347597	1.787544	0.554046	1
Es	-0.011605	1.694474	-0.250506	99
Es	-0.063870	0.996460	-1.310490	99
Es	0.002766	-0.005981	0.463537	99
Es	0.523644	-2.219481	-0.506040	99
Es	-1.099564	-0.557286	0.103983	99
Es	0.065645	1.022134	0.615885	99
Es	1.084469	-3.425390	-0.606326	99
Es	-0.126687	-1.289332	0.251736	99
Es	0.071135	2.316929	0.848402	99
Es	0.733833	-2.334775	0.070164	99
Es	-0.484671	-0.662409	0.510634	99
Es	-1.003640	1.773439	0.534283	99
Es	0.757721	-2.856805	-0.376982	99
Es	0.423200	0.489299	0.475750	99
Es	0.372682	1.245826	-0.771953	99
Es	0.454197	0.702513	-0.143276	99
Es	-0.266724	1.774676	0.486475	99
Es	0.180265	-2.560058	-0.110489	99
Es	-0.690072	-0.781437	1.202928	99
Es	0.200039	-1.868873	0.022207	99
Es	1.007470	1.541763	-0.991844	99
Es	0.729990	0.461237	0.646415	99
