40
Properties=species:S:1:pos:R:3:Z:I:1 energy=-266.27608543972974 field_type=dipole dipole="0.000000 0.000000 0.000000" charge=0
C	-1.509377	-1.266603	0.567660	6
C	-1.186197	-0.516073	-0.717110	6
C	-0.158747	0.595807	-0.502910	6
N	1.126212	0.037807	-0.134120	7
C	2.163193	0.748717	0.384470	6
N	2.151753	1.925527	0.894360	7
H	-2.281898	-2.019023	0.380260	1
H	-1.880477	-0.583463	1.337420	1
H	-0.628227	-1.781943	0.960850	1
H	-2.109687	-0.073403	-1.108030	1
H	-0.824627	-1.225863	-1.470800	1
H	-0.526608	1.279977	0.271050	1
H	-0.047277	1.170257	-1.429870	1
H	1.392953	-0.789193	-0.661490	1
H	3.113383	0.190787	0.348960	1
H	1.205632	2.306687	0.879300	1
Es	2.430272	2.100807	1.035964	99
Es	-0.659002	0.037381	-0.605702	99
Es	1.569506	2.142820	0.873585	99
Es	-0.158594	0.595710	-0.502855	99
Es	-1.813702	-0.208064	-0.984272	99
Es	-2.036785	-1.778195	0.435871	99
Es	1.289418	-0.443236	-0.468066	99
Es	-0.401461	1.059489	0.029638	99
Es	-1.340662	-0.888853	-0.071707	99
Es	2.085765	1.351457	0.940197	99
Es	-1.186166	-0.516058	-0.717080	99
Es	1.126535	0.038185	-0.134526	99
Es	2.195411	1.580722	0.432902	99
Es	-0.909603	-1.616131	0.831012	99
Es	2.802820	0.357493	0.352388	99
Es	-0.082118	0.992687	-1.138786	99
Es	1.561377	0.390155	-0.038672	99
Es	-0.927043	-1.000789	-1.233611	99
Es	2.151365	1.925236	0.894148	99
Es	1.169130	-0.019065	0.166583	99
Es	0.592351	0.292361	-0.296786	99
Es	-1.761280	-0.795216	1.088745	99
Es	-1.509375	-1.266586	0.567626	99
Es	2.163093	0.748557	0.384395	99
