34
Properties=species:S:1:pos:R:3:Z:I:1 energy=-263.8693621586424 field_type=dipole dipole="0.000000 0.000000 0.000000" charge=0
C	-2.313547	-1.452732	-0.024046	6
C	-0.984647	-1.311482	0.019324	6
C	-0.377697	0.033768	-0.016486	6
N	0.904883	0.197848	0.024824	7
N	1.231273	1.550158	-0.021786	7
C	2.511053	1.707948	0.021224	6
H	-2.760547	-2.441652	0.002334	1
H	-2.986417	-0.603142	-0.085896	1
H	-0.310197	-2.157182	0.081144	1
H	-1.074037	0.889608	-0.080026	1
H	2.939273	2.721428	-0.006556	1
H	3.220603	0.865428	0.085944	1
Es	-0.984549	-1.311410	0.019329	99
Es	-1.636804	-1.341720	0.316392	99
Es	1.790958	1.585093	-0.284780	99
Es	1.178229	-0.067724	0.046598	99
Es	-0.853249	0.603118	-0.059215	99
Es	-0.377736	0.033704	-0.016484	99
Es	0.349418	0.155812	0.287617	99
Es	2.511091	1.707984	0.021221	99
Es	1.231694	1.549717	-0.021750	99
Es	-0.532365	-1.877695	0.060597	99
Es	0.370643	0.131409	-0.274258	99
Es	-0.674714	-0.642049	0.001737	99
Es	1.068673	0.874891	0.001492	99
Es	-2.768276	-0.879863	-0.065738	99
Es	2.992911	1.147014	0.064582	99
Es	-2.313652	-1.452743	-0.024045	99
Es	0.956750	1.811886	-0.043913	99
Es	0.904462	0.198279	0.024789	99
Es	-1.613232	-1.369394	-0.321469	99
Es	1.768975	1.609779	0.279981	99
Es	-2.623183	-2.116326	-0.006782	99
Es	2.805253	2.389953	0.002747	99
