39
Properties=species:S:1:pos:R:3:Z:I:1 energy=-233.0545727111277 field_type=dipole dipole="0.000000 0.000000 0.000000" charge=0
C	-2.527990	-1.322309	-0.070224	6
C	-1.571180	-0.503419	-0.526014	6
C	-0.605170	0.236151	0.355346	6
C	0.832280	-0.112329	0.093176	6
C	1.702560	0.782991	-0.752524	6
C	1.928130	0.701861	0.731786	6
H	-3.198080	-1.831239	-0.756214	1
H	-2.664970	-1.505329	0.991446	1
H	-1.471980	-0.348939	-1.598124	1
H	-0.820670	0.028811	1.410776	1
H	-0.769020	1.311581	0.212306	1
H	0.991260	-1.184529	0.039096	1
H	1.281670	1.699801	-1.149614	1
H	2.431970	0.314101	-1.402854	1
H	2.807680	0.174631	1.084576	1
H	1.653510	1.558171	1.337066	1
Es	-0.714556	0.965544	0.250863	99
Es	-1.571086	-0.503339	-0.526039	99
Es	1.734676	1.283451	1.140248	99
Es	1.928047	0.701820	0.731631	99
Es	1.702521	0.782928	-0.752365	99
Es	1.408974	1.403770	-1.018244	99
Es	-2.528068	-1.322373	-0.070188	99
Es	-2.624476	-1.449525	0.650829	99
Es	1.169132	0.282776	-0.496673	99
Es	2.199535	0.463278	-1.191805	99
Es	1.335331	0.231746	0.586689	99
Es	-1.852992	-1.175692	-0.309070	99
Es	-2.267747	-0.671137	-0.275900	99
Es	2.524970	0.341940	0.968123	99
Es	1.958175	0.865689	-0.023989	99
Es	-0.605174	0.236127	0.355303	99
Es	0.832384	-0.112186	0.093163	99
Es	0.947879	-0.839033	0.051943	99
Es	-1.496091	-0.393025	-1.253966	99
Es	0.110374	0.070589	0.210377	99
Es	-1.085508	-0.141070	-0.089854	99
Es	-2.987325	-1.671286	-0.530024	99
Es	-0.756321	0.088075	1.073486	99
