37
Properties=species:S:1:pos:R:3:Z:I:1 energy=-265.0263462242818 field_type=dipole dipole="0.000000 0.000000 0.000000" charge=0
N	-2.793689	-0.376509	-0.223938	7
N	-1.493409	-0.726099	-0.357828	7
C	-0.717889	-0.116119	0.476612	6
C	0.726041	-0.422339	0.419602	6
C	1.550171	0.045381	-0.755138	6
C	1.736521	0.686131	0.588412	6
H	-3.368059	-1.015339	-0.780448	1
H	-2.962049	0.544801	-0.636238	1
H	-1.068999	0.608271	1.233202	1
H	0.984321	-1.389699	0.839042	1
H	1.054391	0.614791	-1.533548	1
H	2.325221	-0.618719	-1.120238	1
H	2.645631	0.462791	1.135332	1
H	1.381801	1.702661	0.715172	1
Es	1.182435	0.149759	0.694449	99
Es	0.009412	-0.250310	0.450562	99
Es	0.726135	-0.422195	0.419538	99
Es	-2.878891	-0.379014	0.116964	99
Es	0.896030	-1.069667	0.704049	99
Es	-1.394539	-0.989148	-0.605794	99
Es	2.352761	0.532268	0.959213	99
Es	-1.125560	-0.233388	-0.186474	99
Es	-0.956282	0.380611	0.984111	99
Es	-2.793471	-0.376505	-0.224528	99
Es	-0.717831	-0.116077	0.476597	99
Es	-2.870486	0.174020	-0.481604	99
Es	1.212179	0.434888	-1.275814	99
Es	1.485401	1.373225	0.674679	99
Es	1.736433	0.686012	0.588313	99
Es	1.550129	0.045393	-0.754955	99
Es	1.778756	0.481259	-0.153007	99
Es	1.039856	-0.313695	-0.272801	99
Es	2.077556	-0.405117	-0.997227	99
Es	-1.493624	-0.725669	-0.357419	99
Es	-2.146957	-0.533051	-0.300278	99
Es	-3.131655	-0.756885	-0.575672	99
Es	-1.189085	-0.648775	0.211495	99
