37
Properties=species:S:1:pos:R:3:Z:I:1 energy=-268.91188652425717 field_type=dipole dipole="0.000000 0.000000 0.000000" charge=0
C	-1.769588	-0.324592	0.479869	6
C	-0.278958	-0.324072	0.502169	6
C	0.494422	-0.954132	-0.624701	6
C	0.494132	0.547978	-0.460691	6
C	1.730462	1.235008	-0.023611	6
O	2.558732	1.614978	-0.840561	8
H	-2.154688	0.491888	1.098609	1
H	-2.151608	-1.267642	0.883019	1
H	-2.167188	-0.201202	-0.532901	1
H	0.104502	-0.459272	1.507619	1
H	-0.048058	-1.366262	-1.468521	1
H	1.401172	-1.498102	-0.382411	1
H	-0.071458	1.110568	-1.197361	1
H	1.858122	1.394858	1.059469	1
Es	1.100789	0.880122	-0.220136	99
Es	-2.025729	-0.966782	0.754376	99
Es	0.625129	-0.159255	-0.677445	99
Es	1.109296	-1.314387	-0.455966	99
Es	-1.020528	-0.320880	0.474898	99
Es	0.058982	0.279849	0.116331	99
Es	-2.028341	0.231993	0.901670	99
Es	2.806322	1.757383	-0.711812	99
Es	-1.769562	-0.324591	0.479867	99
Es	0.122777	-1.225352	-1.192645	99
Es	0.054016	-0.815565	-0.009478	99
Es	1.811878	1.335921	0.722562	99
Es	0.494118	0.547816	-0.460619	99
Es	-0.278869	-0.324045	0.502016	99
Es	-2.031825	-0.239706	-0.213517	99
Es	2.471052	1.547495	-1.131560	99
Es	2.137348	1.698852	-0.553062	99
Es	2.558583	1.614928	-0.840428	99
Es	2.378228	1.256255	-0.524028	99
Es	-0.002459	-0.407605	1.181695	99
Es	0.117188	0.928547	-0.946250	99
Es	1.730446	1.234998	-0.023609	99
Es	0.494392	-0.953941	-0.624626	99
