36
Properties=species:S:1:pos:R:3:Z:I:1 energy=-231.87925578052108 field_type=dipole dipole="0.000000 0.000000 0.000000" charge=0
C	-0.571107	-2.124362	-0.692650	6
C	-1.064407	-1.077931	-0.016970	6
C	-0.368217	0.191388	0.177780	6
C	-1.128137	1.269379	0.450720	6
C	1.088292	0.284819	0.281100	6
C	1.841233	1.344118	-0.044770	6
H	-1.154367	-3.032601	-0.801600	1
H	0.406193	-2.100711	-1.163460	1
H	-2.062727	-1.165151	0.409510	1
H	-2.213267	1.223559	0.442110	1
H	-0.698287	2.235359	0.692880	1
H	1.588993	-0.614071	0.638780	1
H	1.415293	2.262158	-0.434850	1
H	2.920513	1.304048	0.061420	1
Es	1.477840	0.706579	-0.183591	99
Es	-1.740741	-1.123874	0.273292	99
Es	0.357788	0.228971	0.209567	99
Es	1.418988	-0.325633	0.524661	99
Es	1.841283	1.344193	-0.044781	99
Es	-1.064423	-1.077824	-0.016923	99
Es	1.426087	0.934016	0.418640	99
Es	-0.747937	0.787927	-0.006348	99
Es	-1.865928	1.238026	0.446257	99
Es	-0.936710	-1.476035	-0.621913	99
Es	-1.128188	1.269460	0.450700	99
Es	2.572067	1.323785	0.028564	99
Es	-0.961025	-2.742710	-0.770590	99
Es	-0.368148	0.191287	0.177756	99
Es	1.088195	0.284734	0.281118	99
Es	-0.839761	1.926807	0.611385	99
Es	1.556964	1.967598	-0.308835	99
Es	-0.571067	-2.124441	-0.692697	99
Es	-0.696043	-0.449562	0.074670	99
Es	0.091402	-2.112795	-1.009261	99
Es	-0.730752	0.655329	0.616610	99
Es	-0.679768	-1.710862	-0.077502	99
