40
Properties=species:S:1:pos:R:3:Z:I:1 energy=-270.0820224725894 field_type=dipole dipole="0.000000 0.000000 0.000000" charge=0
C	-0.025391	-2.415202	-0.635473	6
C	-0.737621	-1.170662	-0.131493	6
C	0.226068	-0.062322	0.144977	6
O	0.596469	0.709128	-1.006573	8
C	-0.188971	1.378328	-0.010103	6
C	0.526369	2.465648	0.706927	6
H	-0.745201	-3.217912	-0.821893	1
H	0.705109	-2.773022	0.097367	1
H	0.509449	-2.209672	-1.568433	1
H	-1.276151	-1.410462	0.792577	1
H	-1.487921	-0.861012	-0.868853	1
H	0.994299	-0.317422	0.863167	1
H	-1.215151	1.620808	-0.247273	1
H	1.576319	2.215378	0.894147	1
H	0.045829	2.659238	1.671247	1
H	0.496499	3.389158	0.119687	1
Es	0.336018	-2.273660	-1.267419	99
Es	-0.025408	-2.415181	-0.635453	99
Es	0.472821	-2.655540	-0.129526	99
Es	-0.737583	-1.170674	-0.131485	99
Es	-1.098481	-1.331796	0.505931	99
Es	0.175027	1.919925	0.353808	99
Es	1.233778	2.288759	0.833935	99
Es	0.192173	2.593268	1.358969	99
Es	-0.188786	1.378186	-0.010306	99
Es	-1.245754	-0.952936	-0.632148	99
Es	0.526346	2.465639	0.706928	99
Es	0.501084	3.087914	0.305729	99
Es	-0.891102	1.541156	-0.180284	99
Es	-0.375344	-1.789187	-0.380872	99
Es	0.416858	0.617229	-1.242890	99
Es	-0.518646	-2.961466	-0.760470	99
Es	0.521390	0.335645	-0.608321	99
Es	-0.099668	0.649467	0.287670	99
Es	0.759482	-0.236161	0.630367	99
Es	0.596309	0.709117	-1.006241	99
Es	0.291592	1.047260	-0.697201	99
Es	0.226134	-0.062145	0.144732	99
Es	-0.256549	-0.612136	0.004544	99
Es	0.888765	0.810490	-0.980178	99
