37
Properties=species:S:1:pos:R:3:Z:I:1 energy=-268.94413260707654 field_type=dipole dipole="0.000000 0.000000 0.000000" charge=0
C	-2.351849	-0.135140	0.268962	6
C	-0.867169	-0.239440	0.123372	6
C	-0.073449	0.819960	-0.090748	6
C	1.406891	0.758730	-0.241408	6
C	2.112341	-0.568840	-0.159818	6
O	2.023001	1.806730	-0.430528	8
H	-2.844439	-0.733920	-0.503358	1
H	-2.706469	0.896400	0.179072	1
H	-2.657579	-0.517140	1.247832	1
H	-0.459378	-1.243250	0.202772	1
H	-0.481789	1.823820	-0.169438	1
H	1.756052	-1.234310	-0.950418	1
H	1.957091	-1.018010	0.824452	1
H	3.186741	-0.415590	-0.300748	1
Es	-1.604211	-0.182299	0.194940	99
Es	-0.073363	0.819989	-0.090760	99
Es	1.406865	0.758700	-0.241401	99
Es	-0.593099	-0.919379	0.177391	99
Es	1.992821	-0.863590	0.498082	99
Es	-2.543917	-0.395526	0.926737	99
Es	2.022858	1.806470	-0.430480	99
Es	2.828981	-0.467472	-0.253595	99
Es	-0.382392	0.352572	0.326496	99
Es	1.832301	2.059676	-0.440938	99
Es	0.657360	0.764704	-0.162273	99
Es	1.750890	0.080512	-0.198113	99
Es	-0.867260	-0.239531	0.123395	99
Es	2.112292	-0.568820	-0.159815	99
Es	1.823468	1.456978	-0.114156	99
Es	-2.669906	-0.541569	-0.251780	99
Es	-2.351793	-0.135155	0.268958	99
Es	2.337886	1.765253	-0.459267	99
Es	-0.450463	0.274689	-0.311145	99
Es	-2.584586	0.563900	0.207239	99
Es	-0.351812	1.492509	-0.143074	99
Es	1.858673	-1.008268	-0.686175	99
Es	1.770650	1.396761	-0.608177	99
