43
Properties=species:S:1:pos:R:3:Z:I:1 energy=-271.29006081898325 field_type=dipole dipole="0.000000 0.000000 0.000000" charge=0
C	-2.286562	-1.282481	-0.114359	6
C	-0.767452	-1.214251	-0.107909	6
C	-0.272962	0.234769	-0.102809	6
C	1.256758	0.322599	-0.119509	6
C	1.732578	1.768199	-0.169679	6
O	1.795918	-0.295231	1.045841	8
H	-2.619152	-2.325311	-0.118729	1
H	-2.698202	-0.790971	-1.001809	1
H	-2.704792	-0.796461	0.773091	1
H	-0.380613	-1.735061	-0.991249	1
H	-0.391943	-1.745831	0.773511	1
H	-0.660462	0.733569	0.794851	1
H	-0.680052	0.763029	-0.973799	1
H	1.651498	-0.215421	-0.988239	1
H	1.386758	2.327079	0.706941	1
H	1.373898	2.273899	-1.071249	1
H	2.827038	1.809949	-0.157219	1
H	1.437748	0.167919	1.822321	1
Es	0.483451	0.282580	-0.111969	99
Es	1.524314	-0.047079	-0.715355	99
Es	1.491664	1.063668	-0.148466	99
Es	-0.272956	0.234757	-0.102808	99
Es	-0.515745	-0.485640	-0.105915	99
Es	1.795666	-0.294964	1.045836	99
Es	1.487104	2.143126	0.433474	99
Es	-0.531288	0.580722	0.519882	99
Es	1.587989	-0.028975	1.450716	99
Es	1.577523	-0.047697	0.623645	99
Es	1.483017	2.110051	-0.785661	99
Es	1.683759	-0.581243	1.057694	99
Es	2.475107	1.795169	-0.165386	99
Es	-0.501261	-1.567196	-0.718238	99
Es	1.256821	0.322545	-0.119305	99
Es	-2.514140	-1.994896	-0.117331	99
Es	2.097385	-0.236194	1.043671	99
Es	-2.286548	-1.282479	-0.114359	99
Es	-0.767490	-1.214206	-0.107924	99
Es	-0.548921	0.597432	-0.702431	99
Es	-0.515865	-1.572987	0.494426	99
Es	1.732565	1.768208	-0.169681	99
Es	-2.569621	-0.946868	0.493873	99
Es	-2.566111	-0.943133	-0.722590	99
Es	-1.534320	-1.242762	-0.112977	99
