37
Properties=species:S:1:pos:R:3:Z:I:1 energy=-268.8807872660419 field_type=dipole dipole="0.000000 0.000000 0.000000" charge=0
C	-2.686553	-0.653159	-0.557703	6
C	-1.494143	-0.573689	0.035267	6
O	-0.667393	0.503471	-0.150414	8
C	0.560037	0.385781	0.596357	6
C	1.706437	-0.298589	-0.097733	6
C	1.709076	1.193971	0.057186	6
H	-3.329073	-1.512869	-0.406294	1
H	-3.037643	0.142101	-1.206743	1
H	-1.111213	-1.348839	0.684757	1
H	0.493967	0.312801	1.678476	1
H	1.533057	-0.705139	-1.087233	1
H	2.391916	-0.876129	0.509916	1
H	2.397237	1.632161	0.769646	1
H	1.534297	1.798131	-0.825483	1
Es	-0.667329	0.503147	-0.150173	99
Es	0.503699	0.325479	1.329384	99
Es	2.173742	1.484949	0.544779	99
Es	1.709004	1.193790	0.057223	99
Es	-0.215481	0.428586	0.146895	99
Es	1.583861	-0.568683	-0.761158	99
Es	1.050932	-0.140669	0.283711	99
Es	-0.827750	0.722173	-0.036641	99
Es	-1.987541	-0.779434	-0.529871	99
Es	-2.265029	-0.479470	-0.011793	99
Es	-3.119688	-1.232977	-0.455290	99
Es	-1.493871	-0.573492	0.035302	99
Es	1.054181	0.950584	0.390488	99
Es	0.559999	0.385801	0.596111	99
Es	-1.225507	-1.095315	0.480647	99
Es	2.170781	-0.686309	0.318985	99
Es	-0.959103	0.073487	-0.058783	99
Es	1.873066	0.455315	-0.104809	99
Es	-0.598075	0.483903	-0.435060	99
Es	-2.926954	-0.120468	-0.995324	99
Es	1.588153	1.594463	-0.535554	99
Es	1.706367	-0.298442	-0.097664	99
Es	-2.686614	-0.653170	-0.557734	99
