34
Properties=species:S:1:pos:R:3:Z:I:1 energy=-267.7253157491752 field_type=dipole dipole="0.000000 0.000000 0.000000" charge=0
C	-1.417097	-0.698716	-0.325993	6
C	0.019183	-0.809746	-0.772173	6
O	0.428623	-1.827106	-1.335223	8
C	0.916283	0.392874	-0.565213	6
C	0.935033	0.853124	0.830187	6
C	0.953883	1.236374	1.968357	6
H	-1.855997	0.221284	-0.720313	1
H	-1.472657	-0.709226	0.764887	1
H	-1.986707	-1.547666	-0.715073	1
H	0.570813	1.189854	-1.231773	1
H	1.931323	0.121954	-0.876443	1
H	0.977313	1.576994	2.978776	1
Es	-1.695448	-0.074461	-0.590827	99
Es	1.224252	1.252955	1.324511	99
Es	0.910694	0.625194	0.155656	99
Es	-0.699971	-0.739698	-0.540822	99
Es	-1.417037	-0.698689	-0.326003	99
Es	0.203745	-2.044917	-1.367275	99
Es	0.472065	-0.189275	-0.637073	99
Es	-1.795663	-1.264755	-0.586991	99
Es	-1.437551	-0.700536	0.394609	99
Es	0.220888	-1.358664	-1.356457	99
Es	0.953886	1.236453	1.968569	99
Es	0.345772	-1.555123	-0.908224	99
Es	0.916225	0.392905	-0.565077	99
Es	1.585327	0.220575	-0.754716	99
Es	0.671876	0.915606	-0.990973	99
Es	0.735052	-1.810442	-1.412663	99
Es	0.428519	-1.826842	-1.335066	99
Es	0.019201	-0.809699	-0.772152	99
Es	0.935029	0.853020	0.829900	99
Es	0.968250	1.457534	2.625664	99
Es	0.993722	0.706510	1.517297	99
Es	0.608541	1.175345	1.371632	99
