40
Properties=species:S:1:pos:R:3:Z:I:1 energy=-270.08744731439276 field_type=dipole dipole="0.000000 0.000000 0.000000" charge=0
C	-2.439431	-1.243653	0.045302	6
C	-0.924341	-1.291323	0.033612	6
O	-0.434891	0.030337	-0.171138	8
C	0.988939	0.065597	-0.189148	6
C	1.398399	1.486097	-0.407768	6
C	2.207859	2.182027	0.401212	6
H	-2.860671	-2.241523	0.198982	1
H	-2.820561	-0.840803	-0.899428	1
H	-2.798651	-0.582203	0.841212	1
H	-0.579221	-1.943803	-0.775308	1
H	-0.558131	-1.679073	0.989992	1
H	1.363120	-0.550113	-1.014248	1
H	1.382949	-0.323993	0.756652	1
H	0.987869	1.971027	-1.291258	1
H	2.632149	1.745317	1.300062	1
H	2.454609	3.216087	0.181272	1
Es	-1.684443	-1.269521	0.039668	99
Es	1.264623	-0.203462	0.461733	99
Es	-0.520648	0.191734	0.074952	99
Es	-0.585855	-0.482141	-0.090888	99
Es	2.071285	1.729834	-0.171083	99
Es	0.111130	0.012080	-0.172557	99
Es	-0.434715	0.030096	-0.171087	99
Es	1.118578	1.805045	-1.008902	99
Es	2.498999	1.888474	1.012233	99
Es	-0.680518	-1.745831	-0.524137	99
Es	1.200170	0.779020	-0.294220	99
Es	-2.694265	-0.976460	-0.599145	99
Es	-2.679355	-0.800012	0.589925	99
Es	1.249528	-0.356735	-0.754903	99
Es	-2.718133	-1.927709	0.150402	99
Es	-2.439406	-1.243669	0.045305	99
Es	2.207943	2.182072	0.401265	99
Es	0.988727	0.065633	-0.189159	99
Es	2.381661	2.882509	0.257821	99
Es	1.398332	1.486017	-0.407820	99
Es	-0.924295	-1.291111	0.033580	99
Es	-0.521786	0.106513	-0.455652	99
Es	-0.665910	-1.562963	0.694049	99
Es	1.557032	1.934790	0.176098	99
