38
Properties=species:S:1:pos:R:3:Z:I:1 energy=-305.89857259116775 field_type=dipole dipole="0.000000 0.000000 0.000000" charge=0
C	-0.632712	-2.163288	-0.520139	6
O	-1.000012	-0.877938	-0.039049	8
C	0.141528	-0.083718	0.346331	6
C	0.587938	0.940922	-0.656229	6
C	-0.139152	1.376022	0.579721	6
O	0.673288	2.019352	1.573771	8
H	-1.540432	-2.693698	-0.819889	1
H	-0.134982	-2.734758	0.269111	1
H	0.025138	-2.070898	-1.389719	1
H	0.889878	-0.536478	0.990031	1
H	0.057068	0.995232	-1.599499	1
H	1.649388	1.144042	-0.726599	1
H	-1.170732	1.698402	0.480491	1
H	0.593798	2.986802	1.511671	1
Es	0.141322	-0.083673	0.346196	99
Es	-0.832943	1.602135	0.512994	99
Es	0.351819	1.802501	1.187436	99
Es	0.673063	2.019505	1.573573	99
Es	0.226188	0.971063	-1.289539	99
Es	0.235450	1.334675	-0.112819	99
Es	-1.156859	-0.929604	0.218704	99
Es	0.958411	1.949723	1.495979	99
Es	-0.540449	-0.602348	0.101502	99
Es	0.555781	1.943911	1.845125	99
Es	-0.283327	-2.557136	0.019749	99
Es	-1.121822	-0.725462	-0.276042	99
Es	-0.823033	-1.355849	-0.219319	99
Es	-0.175375	-2.103565	-1.116171	99
Es	-1.250072	-2.523561	-0.723790	99
Es	0.452479	0.295654	-0.270486	99
Es	0.613330	2.534210	1.514078	99
Es	1.302037	1.082474	-0.696639	99
Es	0.587863	0.940875	-0.656083	99
Es	-0.138907	1.376011	0.579803	99
Es	-0.632764	-2.163084	-0.520061	99
Es	-0.086236	0.603935	0.631748	99
Es	-0.999644	-0.878092	-0.039004	99
Es	0.646161	-0.399926	0.774004	99
