38
Properties=species:S:1:pos:R:3:Z:I:1 energy=-305.9469565031077 field_type=dipole dipole="0.000000 0.000000 0.000000" charge=0
C	-0.947922	-1.312649	1.153100	6
O	-1.076332	-0.846269	-0.184450	8
C	-0.894972	0.557701	-0.285320	6
C	0.552348	1.008571	-0.126300	6
C	1.560138	0.394331	-1.060080	6
O	0.877148	1.859511	0.702840	8
H	-1.157322	-2.386418	1.162780	1
H	-1.668022	-0.812339	1.809560	1
H	0.070668	-1.156499	1.521700	1
H	-1.526032	1.079511	0.444150	1
H	-1.226212	0.870541	-1.281510	1
H	1.563908	-0.691539	-0.941830	1
H	2.558528	0.774021	-0.823570	1
H	1.314078	0.661521	-2.091070	1
Es	0.709492	1.729668	0.233177	99
Es	-0.947936	-1.312570	1.152886	99
Es	-1.318398	0.910610	0.216687	99
Es	0.552341	1.008561	-0.126310	99
Es	-0.894925	0.557482	-0.285324	99
Es	1.185225	1.929243	0.691052	99
Es	0.877083	1.859316	0.702652	99
Es	2.226744	0.649496	-0.902710	99
Es	-0.164524	0.767518	-0.198396	99
Es	-1.437290	-0.963413	1.603713	99
Es	1.560082	0.394340	-1.060066	99
Es	-0.988056	-0.303932	-0.188307	99
Es	-0.845001	-0.972130	-0.342266	99
Es	0.633698	1.962977	0.878369	99
Es	-1.100840	0.771369	-0.961871	99
Es	0.803287	1.370071	0.574668	99
Es	-1.089283	-2.041031	1.158370	99
Es	-0.248786	-1.198690	1.406698	99
Es	1.378244	0.576192	-1.742100	99
Es	-1.366683	-0.889099	-0.260696	99
Es	1.053485	0.690581	-0.599864	99
Es	1.550206	-0.325134	-0.975972	99
Es	-1.018455	-0.986330	0.333958	99
Es	-1.076279	-0.846033	-0.184151	99
