33
Properties=species:S:1:pos:R:3:Z:I:1 energy=-283.7728829343788 field_type=dipole dipole="0.000000 0.000000 0.000000" charge=0
C	-1.680288	-0.087359	-0.007366	6
C	-0.205028	-0.042419	-0.000706	6
C	0.638402	1.045151	0.000074	6
O	1.921302	0.587781	0.007064	8
C	1.782122	-0.766019	0.010174	6
N	0.541522	-1.198749	0.005724	7
H	-2.109588	0.919291	0.002444	1
H	-2.048428	-0.623849	0.872454	1
H	-2.040818	-0.603599	-0.902316	1
H	0.507612	2.116921	-0.003456	1
H	2.693191	-1.347149	0.015914	1
Es	1.035249	-0.991680	-0.268073	99
Es	-0.205021	-0.042527	-0.000699	99
Es	1.920918	0.587465	0.006958	99
Es	0.638710	1.045132	0.000075	99
Es	-1.963072	0.598899	-0.000858	99
Es	0.225543	0.517485	0.331014	99
Es	-1.912186	-0.432649	-0.609448	99
Es	1.865659	0.474305	0.238813	99
Es	0.205773	-0.692879	0.001395	99
Es	1.782162	-0.765755	0.010170	99
Es	2.165168	0.740199	-0.097992	99
Es	1.865155	0.098101	-0.085454	99
Es	0.541747	-1.198204	0.005723	99
Es	0.414343	-1.541702	0.005641	99
Es	-1.680228	-0.087342	-0.007366	99
Es	2.393910	-1.150594	0.013356	99
Es	0.227865	0.517771	-0.329683	99
Es	0.549329	1.762762	-0.002451	99
Es	1.444272	0.762532	-0.029421	99
Es	-0.937773	-0.059556	-0.004193	99
Es	-1.917288	-0.446153	0.584763	99
Es	1.028962	-0.988258	0.285466	99
