39
Properties=species:S:1:pos:R:3:Z:I:1 energy=-286.07605335829555 field_type=dipole dipole="0.000000 0.000000 0.000000" charge=0
C	-1.666705	0.041625	-0.024597	6
C	-0.175184	-0.053385	0.162073	6
N	0.291036	-0.058855	1.570223	7
C	0.625096	-0.836235	-0.850097	6
C	0.701005	0.661115	-0.851787	6
O	1.907776	1.229195	-0.312427	8
H	-1.947064	0.066575	-1.083037	1
H	-2.052875	0.951175	0.446893	1
H	-2.162575	-0.821165	0.432343	1
H	1.216176	-0.485135	1.629153	1
H	-0.310674	-0.660845	2.133873	1
H	0.102206	-1.310225	-1.672727	1
H	1.504845	-1.381975	-0.530917	1
H	0.222235	1.189395	-1.669347	1
H	1.744705	1.468745	0.620383	1
Es	0.841333	-0.326964	1.590941	99
Es	2.107286	1.000469	-0.304357	99
Es	0.097340	-0.082090	0.955096	99
Es	-1.666671	0.041610	-0.024599	99
Es	1.798201	1.351111	0.177081	99
Es	-0.072888	-0.433808	1.889107	99
Es	0.701176	0.661054	-0.851622	99
Es	-2.000546	-0.548368	0.289995	99
Es	0.297774	0.272591	1.698983	99
Es	1.958471	1.485165	-0.466070	99
Es	0.625045	-0.836102	-0.850049	99
Es	1.434950	1.015057	-0.498215	99
Es	1.216688	-1.200088	-0.621304	99
Es	-1.844542	0.057210	-0.745405	99
Es	0.291029	-0.059338	1.569999	99
Es	1.907448	1.229205	-0.312261	99
Es	-1.925577	0.657583	0.296244	99
Es	0.261852	-1.154747	-1.407488	99
Es	-0.175041	-0.053398	0.162100	99
Es	0.774312	-0.106392	-0.999965	99
Es	0.375914	1.023682	-1.406114	99
Es	0.202766	0.477523	-0.277981	99
Es	0.160407	-0.623202	-0.286994	99
Es	-0.919727	-0.010569	0.069332	99
