36
Properties=species:S:1:pos:R:3:Z:I:1 energy=-284.9531711994465 field_type=dipole dipole="0.000000 0.000000 0.000000" charge=0
C	-1.488567	0.028096	0.525697	6
C	0.037302	0.044816	0.469077	6
C	0.533692	-0.689164	-0.780623	6
O	1.930912	-0.963824	-0.697763	8
C	0.519322	1.405986	0.469077	6
N	0.903533	2.490976	0.469077	7
H	-1.855098	0.547576	1.419107	1
H	-1.866657	-0.999784	0.559117	1
H	-1.929898	0.522386	-0.348363	1
H	0.427102	-0.467754	1.357257	1
H	0.342112	-0.126304	-1.702223	1
H	0.031603	-1.658554	-0.873823	1
H	2.414642	-0.134454	-0.865613	1
Es	1.001029	1.905310	0.580371	99
Es	0.037312	0.044976	0.469050	99
Es	0.282378	-0.285023	-0.141562	99
Es	0.903388	2.490569	0.469072	99
Es	-1.730722	-0.671916	0.546046	99
Es	1.403808	-0.829167	-0.730899	99
Es	1.983842	-1.043996	-0.405909	99
Es	0.392267	-0.290745	-1.401356	99
Es	-0.704884	0.059670	0.491318	99
Es	0.533907	-0.689153	-0.780541	99
Es	-1.488489	0.028095	0.525691	99
Es	0.502030	2.078632	0.657683	99
Es	-1.776369	0.361346	-0.070458	99
Es	1.930776	-0.963528	-0.697800	99
Es	0.183427	-1.343759	-0.831514	99
Es	-1.727502	0.378846	1.129404	99
Es	1.026592	2.838681	0.467595	99
Es	2.167764	-0.507022	-0.786263	99
Es	0.295283	0.768401	0.467616	99
Es	0.302530	-0.278337	1.058061	99
Es	0.519215	1.405656	0.469077	99
Es	1.991561	-1.144011	-0.933603	99
Es	0.687934	2.011909	0.159857	99
