39
Properties=species:S:1:pos:R:3:Z:I:1 energy=-286.0497014432866 field_type=dipole dipole="0.000000 0.000000 0.000000" charge=0
C	-1.389142	-0.904735	0.129613	6
C	0.107218	-0.629105	0.058013	6
C	0.735178	-1.335565	-1.135957	6
O	0.324628	0.776805	-0.111497	8
N	0.346688	1.395065	1.148263	7
C	0.566238	2.655635	0.981423	6
H	-1.835982	-0.392585	0.988593	1
H	-1.591412	-1.976225	0.223153	1
H	-1.901402	-0.526765	-0.762387	1
H	0.600868	-0.979325	0.973203	1
H	0.294318	-0.987415	-2.076837	1
H	0.608468	-2.420754	-1.068817	1
H	1.806298	-1.112245	-1.189697	1
H	0.623648	3.322915	1.854463	1
H	0.704388	3.114295	-0.011537	1
Es	0.107226	-0.628885	0.057934	99
Es	0.346771	1.395381	1.147713	99
Es	0.642736	-2.072760	-1.081540	99
Es	-1.688469	-0.560072	0.714657	99
Es	0.159253	2.011146	1.059444	99
Es	0.077933	0.898509	-0.249477	99
Es	-1.729813	-0.651542	-0.482696	99
Es	0.242608	0.255730	-0.017488	99
Es	-1.518795	-1.638033	0.192606	99
Es	0.605021	3.102373	1.565669	99
Es	0.330131	1.042191	0.447658	99
Es	0.735166	-1.335566	-1.135939	99
Es	0.444178	-0.867613	0.683554	99
Es	0.427610	-1.100154	-1.771693	99
Es	0.658876	2.965831	0.318359	99
Es	0.612525	0.823763	-0.215451	99
Es	0.566242	2.655664	0.981445	99
Es	0.292610	1.176292	1.451717	99
Es	0.324575	0.776618	-0.111195	99
Es	-0.651788	-0.772574	0.094347	99
Es	1.463855	-1.187153	-1.166928	99
Es	-1.389130	-0.904747	0.129613	99
Es	0.730604	1.915823	1.093456	99
Es	0.419731	-0.981801	-0.548452	99
