42
Properties=species:S:1:pos:R:3:Z:I:1 energy=-287.27376147143144 field_type=dipole dipole="0.000000 0.000000 0.000000" charge=0
C	0.031679	-0.882899	1.583466	6
N	-0.314371	-1.158949	0.194166	7
C	-0.259201	0.017131	-0.703624	6
C	-1.231141	1.131611	-0.321054	6
C	1.178039	0.551001	-0.872374	6
O	2.054878	-0.528729	-1.188204	8
H	-0.035381	-1.813479	2.157446	1
H	-0.653091	-0.166059	2.046616	1
H	1.059028	-0.521129	1.685846	1
H	-1.261301	-1.540959	0.167426	1
H	-0.567611	-0.366139	-1.685624	1
H	-0.942141	1.625841	0.611546	1
H	-2.247711	0.741841	-0.203694	1
H	-1.259351	1.896441	-1.104594	1
H	1.543369	1.035171	0.038566	1
H	1.228549	1.279521	-1.687594	1
H	1.675759	-1.300209	-0.718314	1
Es	-0.314726	-1.158511	0.194390	99
Es	-1.922468	0.858231	-0.239754	99
Es	1.178129	0.550807	-0.872414	99
Es	-0.748195	0.587146	-0.496343	99
Es	0.729212	-0.630037	1.644439	99
Es	-0.437719	-0.383534	1.902420	99
Es	-0.894678	-1.368974	0.185397	99
Es	1.709772	-0.126267	-1.056402	99
Es	0.454905	0.287255	-0.768035	99
Es	-0.018630	-1.517014	1.972732	99
Es	2.011323	-0.584969	-1.483864	99
Es	0.031647	-0.882924	1.583332	99
Es	2.331203	-0.461118	-1.068372	99
Es	-0.259203	0.017065	-0.703495	99
Es	-1.030534	1.463918	0.315936	99
Es	-0.302296	-0.626125	-0.159211	99
Es	-1.231134	1.131605	-0.321056	99
Es	1.851137	-0.922956	-0.929127	99
Es	1.200148	1.052485	-1.428363	99
Es	-1.245236	1.649187	-0.856296	99
Es	-0.077924	-1.404175	0.065756	99
Es	1.415409	0.889500	-0.236219	99
Es	2.054611	-0.528741	-1.188021	99
Es	-0.181247	-1.006956	0.800553	99
Es	-0.473830	-0.241916	-1.375284	99
