39
Properties=species:S:1:pos:R:3:Z:I:1 energy=-286.0629367450184 field_type=dipole dipole="0.000000 0.000000 0.000000" charge=0
C	-0.616235	-2.274364	-0.579593	6
O	-1.007205	-1.027314	-0.021803	8
C	0.109395	-0.143764	0.203117	6
C	0.408025	0.837196	-0.895093	6
C	-0.250645	1.312646	0.365217	6
N	0.497015	2.170536	1.286977	7
H	-1.512525	-2.880604	-0.735483	1
H	0.051975	-2.803124	0.106807	1
H	-0.121455	-2.122334	-1.543623	1
H	0.941755	-0.518094	0.790617	1
H	-0.198675	0.801406	-1.792363	1
H	1.442575	1.102536	-1.073153	1
H	-1.307215	1.562576	0.287717	1
H	1.466625	1.871716	1.377277	1
H	0.096585	2.110986	2.223387	1
Es	0.497017	2.170023	1.287133	99
Es	-0.269934	-2.173604	-1.241516	99
Es	0.109214	-0.143768	0.202973	99
Es	-0.250456	1.312603	0.365229	99
Es	-1.006845	-1.027394	-0.021946	99
Es	-0.961317	1.477582	0.317085	99
Es	-0.616289	-2.274174	-0.579506	99
Es	-0.822875	-1.490672	-0.236729	99
Es	-0.002233	0.806790	-1.495544	99
Es	-0.149556	-2.639017	-0.110439	99
Es	-0.138895	0.529827	0.460611	99
Es	0.678337	-0.405716	0.601756	99
Es	0.255191	2.108520	1.849417	99
Es	0.186879	1.765402	0.900801	99
Es	-1.172732	-0.884068	-0.235742	99
Es	-1.225873	-2.687215	-0.685593	99
Es	0.347245	0.208967	-0.461191	99
Es	0.085507	1.243507	-0.339025	99
Es	1.074786	1.961069	1.340093	99
Es	-0.555123	-0.720068	0.051314	99
Es	0.487835	2.497856	1.175213	99
Es	-1.120186	-1.092849	0.256310	99
Es	1.111712	1.018902	-1.005399	99
Es	0.407978	0.837166	-0.894941	99
