39
Properties=species:S:1:pos:R:3:Z:I:1 energy=-286.0578555592229 field_type=dipole dipole="0.000000 0.000000 0.000000" charge=0
C	-0.640772	-1.865687	-1.158042	6
O	-0.411952	-1.321837	0.133218	8
C	0.373028	-0.108257	0.169728	6
C	-0.317392	1.205373	-0.259932	6
N	0.353438	1.900723	0.863548	7
C	0.492628	0.589453	1.542628	6
H	-1.226682	-2.782247	-1.051332	1
H	0.311448	-2.107327	-1.639032	1
H	-1.201482	-1.156417	-1.773422	1
H	1.352738	-0.256957	-0.305142	1
H	-1.410602	1.195303	-0.177562	1
H	-0.044592	1.577533	-1.251792	1
H	1.249728	2.314503	0.605098	1
H	1.444618	0.446663	2.062198	1
H	-0.324152	0.369183	2.239838	1
Es	1.047457	-0.204080	-0.162452	99
Es	0.353774	1.900281	0.863248	99
Es	1.148808	0.493996	1.899781	99
Es	-1.058804	1.191249	-0.194723	99
Es	-0.129509	1.465288	-0.943754	99
Es	-0.005398	0.505867	-0.135336	99
Es	0.904578	2.111334	0.688796	99
Es	0.450580	1.353460	1.195656	99
Es	0.066420	1.645287	0.341045	99
Es	-1.022573	-1.375971	-1.588084	99
Es	0.492632	0.589565	1.542524	99
Es	0.452718	0.147575	0.894476	99
Es	-0.688184	-1.236855	0.236842	99
Es	0.159649	2.144303	1.033588	99
Es	-1.038725	-2.488013	-1.086316	99
Es	-0.411868	-1.321651	0.132912	99
Es	-0.474911	-1.497397	-0.376479	99
Es	-0.317303	1.205427	-0.259831	99
Es	-0.112144	-0.871804	0.099552	99
Es	-0.068065	0.442188	2.005393	99
Es	-0.640731	-1.865593	-1.157844	99
Es	0.015684	-2.027641	-1.496209	99
Es	-0.243538	-1.529856	0.281587	99
Es	0.372890	-0.108423	0.169730	99
