42
Properties=species:S:1:pos:R:3:Z:I:1 energy=-287.27403569018236 field_type=dipole dipole="0.000000 0.000000 0.000000" charge=0
C	-1.417965	-1.631941	0.435699	6
O	-0.153695	-0.982511	0.482849	8
C	-0.132905	0.278579	-0.210881	6
C	-0.872625	1.347019	0.589709	6
C	1.344555	0.685279	-0.389091	6
N	2.067415	-0.291191	-1.214461	7
H	-1.295795	-2.640951	0.837049	1
H	-1.781535	-1.709351	-0.592311	1
H	-2.145195	-1.105271	1.057989	1
H	-0.595505	0.163759	-1.199741	1
H	-0.498635	1.394969	1.617929	1
H	-1.942655	1.122969	0.650839	1
H	-0.765105	2.333359	0.127759	1
H	1.834665	0.731489	0.590349	1
H	1.420605	1.670669	-0.859271	1
H	1.864795	-1.217521	-0.827821	1
H	3.069585	-0.149361	-1.096591	1
Es	1.671165	0.726821	0.293184	99
Es	-1.417766	-1.631832	0.435700	99
Es	0.607263	0.479808	-0.301139	99
Es	-1.671834	-1.678368	-0.271877	99
Es	1.972193	-0.272454	-1.560488	99
Es	1.387222	1.363788	-0.709328	99
Es	1.956702	-0.838567	-0.967103	99
Es	-0.185041	-0.513384	0.214440	99
Es	-0.872629	1.347013	0.589692	99
Es	2.672551	-0.201436	-1.122946	99
Es	-0.153928	-0.982392	0.482724	99
Es	-0.612134	1.379369	1.284125	99
Es	-0.132893	0.278415	-0.210727	99
Es	-0.795314	2.014389	0.268958	99
Es	1.344587	0.685173	-0.389174	99
Es	-1.924080	-1.267493	0.857022	99
Es	1.763687	0.128389	-0.840407	99
Es	-1.335830	-2.319180	0.708492	99
Es	-0.103115	-0.914693	0.777924	99
Es	-0.510826	0.822219	0.195258	99
Es	-0.456784	0.199202	-0.889156	99
Es	0.038985	-1.165458	0.324399	99
Es	-0.650016	-1.200341	0.444449	99
Es	-1.601294	1.190254	0.626844	99
Es	2.067568	-0.291218	-1.213875	99
