39
Properties=species:S:1:pos:R:3:Z:I:1 energy=-286.077418052885 field_type=dipole dipole="0.000000 0.000000 0.000000" charge=0
N	-1.876531	0.174716	-0.428333	7
C	-0.426331	0.180616	-0.573893	6
C	0.185039	1.201896	0.405637	6
C	1.243799	0.126986	0.743837	6
C	0.200939	-0.937244	0.315057	6
O	0.704969	-2.099134	-0.373963	8
H	-2.314271	-0.670024	-0.796323	1
H	-2.340331	0.956506	-0.887403	1
H	-0.052661	0.225406	-1.601483	1
H	-0.438951	1.474456	1.266337	1
H	0.576499	2.116886	-0.047963	1
H	2.136019	0.163976	0.108797	1
H	1.553679	0.091066	1.791277	1
H	-0.428591	-1.252734	1.158547	1
H	1.276729	-1.753374	-1.080133	1
Es	-1.876455	0.174693	-0.428890	99
Es	-0.426469	0.180626	-0.573849	99
Es	1.243753	0.127004	0.743811	99
Es	-0.242563	1.373082	0.984483	99
Es	0.201068	-0.937373	0.314910	99
Es	-1.942902	0.190652	-0.090429	99
Es	1.843240	0.147226	0.293664	99
Es	-0.230166	-1.146047	0.880494	99
Es	0.528608	-1.652772	-0.127335	99
Es	0.767111	0.728010	0.614653	99
Es	-2.140135	0.646064	-0.730513	99
Es	-1.261232	0.176768	-0.550096	99
Es	0.786300	-0.462239	0.566140	99
Es	1.010736	-1.893640	-0.751368	99
Es	-0.159876	-0.434331	-0.183729	99
Es	-0.161852	0.761253	-0.123676	99
Es	0.453233	1.832150	0.093392	99
Es	-0.154368	0.207999	-1.276890	99
Es	0.705075	-2.098805	-0.373995	99
Es	0.185085	1.201835	0.405614	99
Es	-2.124787	-0.333126	-0.677442	99
Es	0.462792	-2.229097	-0.512648	99
Es	1.462737	0.101607	1.461081	99
Es	0.886682	-2.248141	-0.178558	99
