39
Properties=species:S:1:pos:R:3:Z:I:1 energy=-286.07115621872634 field_type=dipole dipole="0.000000 0.000000 0.000000" charge=0
N	-0.046578	-2.175333	-0.474333	7
C	-0.687318	-1.080793	0.238807	6
C	0.254582	0.078157	0.262367	6
C	0.407992	0.968997	-0.944663	6
C	-0.287898	1.482907	0.284577	6
O	0.440592	2.419327	1.088697	8
H	-0.674958	-2.976393	-0.488413	1
H	0.780352	-2.475183	0.039077	1
H	-0.928618	-1.388993	1.262407	1
H	-1.627298	-0.823753	-0.263673	1
H	1.135221	-0.127573	0.858567	1
H	-0.197588	0.754147	-1.818683	1
H	1.399231	1.333207	-1.181833	1
H	-1.363788	1.617077	0.225977	1
H	1.396072	2.394197	0.911117	1
Es	0.192976	2.055921	0.766125	99
Es	1.081024	1.224421	-1.091505	99
Es	-0.687243	-1.080884	0.238735	99
Es	0.254552	0.078286	0.262268	99
Es	0.443344	-2.355518	-0.141996	99
Es	-0.854751	-1.285984	0.950547	99
Es	0.407946	0.968956	-0.944501	99
Es	-1.013304	1.578328	0.254137	99
Es	0.034361	1.389597	-0.432704	99
Es	-0.328303	-1.718047	-0.143822	99
Es	-0.221998	-0.488687	0.241325	99
Es	0.859601	-0.053379	0.664954	99
Es	0.039942	-2.081395	-0.802743	99
Es	-0.287669	1.482955	0.284629	99
Es	0.418953	0.386786	-0.435795	99
Es	0.440734	2.419179	1.088419	99
Es	0.947074	2.377275	0.968733	99
Es	0.406202	2.324793	1.377134	99
Es	-0.430177	-2.661217	-0.460887	99
Es	-0.046722	-2.175497	-0.473796	99
Es	0.350796	2.695730	1.000181	99
Es	-0.085260	0.735005	0.452203	99
Es	-1.331195	-0.900026	-0.108248	99
Es	-0.005489	0.821561	-1.531221	99
