33
Properties=species:S:1:pos:R:3:Z:I:1 energy=-283.7448625598307 field_type=dipole dipole="0.000000 0.000000 0.000000" charge=0
O	-1.939671	-0.230148	0.365575	8
C	-0.514941	-0.232358	0.544865	6
C	0.250199	-0.982358	-0.505215	6
C	0.278999	0.524762	-0.489705	6
C	1.475179	1.201072	-0.079755	6
N	2.440759	1.744982	0.261975	7
H	-2.390841	0.233102	1.093895	1
H	-0.133521	-0.287738	1.560806	1
H	-0.313361	-1.470488	-1.292305	1
H	1.132979	-1.528778	-0.192735	1
H	-0.285781	1.027952	-1.267405	1
Es	-1.986404	-0.073126	0.110339	99
Es	-0.185177	-0.771297	0.087214	99
Es	-2.151165	0.028021	0.763690	99
Es	-0.120764	0.346140	0.095385	99
Es	1.474883	1.200903	-0.079858	99
Es	0.250177	-0.982147	-0.505153	99
Es	2.159793	1.387648	-0.133920	99
Es	-0.515087	-0.232304	0.544656	99
Es	1.991491	1.332996	0.371426	99
Es	-2.016282	-0.518471	0.394482	99
Es	0.401929	-0.191520	-0.631782	99
Es	1.854945	1.768397	0.086414	99
Es	2.440384	1.744770	0.261844	99
Es	2.745983	1.917205	0.372055	99
Es	0.910981	0.875407	-0.275050	99
Es	-1.395859	-0.206034	0.462171	99
Es	-1.939498	-0.229974	0.365854	99
Es	0.845550	-1.336638	-0.291850	99
Es	-0.261996	-0.257429	1.229697	99
Es	-0.082934	0.862531	-0.996198	99
Es	-0.127892	-1.295049	-1.032272	99
Es	0.279112	0.524663	-0.489586	99
