36
Properties=species:S:1:pos:R:3:Z:I:1 energy=-284.89250650849164 field_type=dipole dipole="0.000000 0.000000 0.000000" charge=0
O	-2.800726	0.483862	1.047089	8
C	-1.681046	0.936992	0.813879	6
C	-0.804036	0.451362	-0.316291	6
N	0.570974	0.346832	0.188959	7
C	1.003954	-1.026698	0.437019	6
C	1.480494	-0.269268	-0.773941	6
H	-1.298686	1.803282	1.380739	1
H	-0.848896	1.205441	-1.109161	1
H	-1.213816	-0.488668	-0.704981	1
H	0.299114	-1.837838	0.297699	1
H	1.700264	-1.162868	1.256229	1
H	2.496024	0.108592	-0.770281	1
H	1.096384	-0.551018	-1.746961	1
Es	1.209792	-0.455352	-1.433819	99
Es	2.167612	-0.010962	-0.775952	99
Es	0.517099	-1.569007	0.340991	99
Es	0.570807	0.346307	0.188566	99
Es	1.364028	-0.821295	-0.231922	99
Es	0.950577	0.192112	-0.320416	99
Es	-2.949219	0.628890	1.282217	99
Es	1.472274	-1.119393	0.994567	99
Es	-2.800413	0.483997	1.047031	99
Es	-1.235643	0.685514	0.254928	99
Es	0.687155	0.608550	0.399599	99
Es	1.003913	-1.026469	0.436917	99
Es	-0.029196	0.360749	-0.047223	99
Es	-0.803922	0.451391	-0.316201	99
Es	-1.406862	1.524089	1.195297	99
Es	-2.288615	0.485186	1.127452	99
Es	-0.840696	0.966279	-0.838652	99
Es	0.655468	-0.262643	0.409154	99
Es	-1.681048	0.936965	0.813865	99
Es	-2.492769	0.809809	0.799321	99
Es	-2.871453	0.245738	0.855346	99
Es	1.480332	-0.269226	-0.773751	99
Es	-1.072425	-0.190705	-0.580052	99
