36
Properties=species:S:1:pos:R:3:Z:I:1 energy=-284.93494532898353 field_type=dipole dipole="0.000000 0.000000 0.000000" charge=0
O	-3.081275	-1.023080	-0.178578	8
C	-1.990585	-0.759630	0.308502	6
N	-1.104795	0.112750	-0.258858	7
C	0.149835	0.457040	0.315272	6
C	1.333525	-0.462300	0.198692	6
C	1.309755	0.828140	-0.567008	6
H	-1.628925	-1.204410	1.250082	1
H	-1.414075	0.552660	-1.117818	1
H	0.051135	1.018460	1.242092	1
H	1.221845	-1.384070	-0.360468	1
H	2.004456	-0.536520	1.046742	1
H	1.962225	1.628120	-0.236268	1
H	1.186875	0.772840	-1.642388	1
Es	1.333449	-0.462138	0.198646	99
Es	0.653397	-0.132521	0.381286	99
Es	1.785294	-0.506594	0.774690	99
Es	-1.475159	0.012966	0.053248	99
Es	-2.816202	-0.749613	0.117882	99
Es	1.490122	0.147958	-0.254713	99
Es	-3.118719	-0.862225	-0.443978	99
Es	1.309663	0.828028	-0.566889	99
Es	-1.278669	0.387284	-0.757688	99
Es	-2.610521	-1.124276	-0.138443	99
Es	1.746370	1.368314	-0.338135	99
Es	0.629433	0.802536	-0.177275	99
Es	1.250342	-1.079911	-0.180055	99
Es	-1.170208	-0.274069	-0.276422	99
Es	-1.104884	0.112867	-0.258703	99
Es	-3.080980	-1.023015	-0.178436	99
Es	0.088732	0.834232	0.948974	99
Es	-0.566907	0.261117	-0.012946	99
Es	0.149832	0.456941	0.315096	99
Es	-1.732576	-1.056045	0.951392	99
Es	-3.242244	-1.225390	-0.011447	99
Es	-1.990457	-0.759526	0.308458	99
Es	1.215433	0.788451	-1.290511	99
