44
Properties=species:S:1:pos:R:3:Z:I:1 energy=-304.0889470442223 field_type=dipole dipole="0.000000 0.000000 0.000000" charge=0
C	-1.525855	-0.616874	0.669223	6
C	-0.029655	-0.588624	0.370873	6
C	0.411645	-1.294064	-0.889277	6
C	-0.361475	-1.737344	-1.889767	6
C	0.415585	0.852846	0.239803	6
N	1.333885	1.338906	1.015223	7
N	1.605265	2.639106	0.757353	7
H	-1.734825	-0.112584	1.619813	1
H	-1.893705	-1.645684	0.748443	1
H	-2.108235	-0.099404	-0.101767	1
H	0.497705	-1.047264	1.216353	1
H	1.488605	-1.450624	-0.971477	1
H	-1.439835	-1.619884	-1.894537	1
H	0.083125	-2.233384	-2.748437	1
H	-0.076675	1.460956	-0.543917	1
H	2.457315	2.909016	1.256513	1
H	0.877135	3.244906	1.145583	1
Es	-1.093331	-1.659714	-1.895247	99
Es	-1.771249	-1.315282	0.720360	99
Es	0.042678	-1.226192	-1.546519	99
Es	1.532009	1.152372	1.274615	99
Es	-1.660298	-0.271882	1.314460	99
Es	1.159989	2.981294	1.003130	99
Es	-1.916419	-0.263362	0.138222	99
Es	-0.066521	-2.073214	-2.473827	99
Es	-0.017961	-1.804500	-1.244555	99
Es	1.605177	2.638943	0.757956	99
Es	0.170313	-0.939046	-0.268088	99
Es	0.326188	-0.900069	0.933082	99
Es	0.192660	0.132341	0.300728	99
Es	-0.029679	-0.588583	0.370801	99
Es	-1.525821	-0.616868	0.669210	99
Es	1.632934	2.684738	0.409975	99
Es	0.415529	0.852810	0.239826	99
Es	1.117627	1.053622	0.476497	99
Es	0.727655	1.216281	0.875817	99
Es	0.073356	1.261834	-0.287834	99
Es	1.333588	1.339247	1.014803	99
Es	1.142520	-1.394223	-0.936578	99
Es	2.111261	2.796981	1.075848	99
Es	-0.361536	-1.737374	-1.889836	99
Es	0.411688	-1.294007	-0.889170	99
Es	-0.778024	-0.599805	0.501767	99
Es	1.453676	2.000297	0.895258	99
