41
Properties=species:S:1:pos:R:3:Z:I:1 energy=-302.89448984821007 field_type=dipole dipole="0.000000 0.000000 0.000000" charge=0
C	-3.313820	0.097270	-0.006686	6
C	-1.869820	0.097270	-0.006686	6
C	-0.679660	0.097270	-0.006686	6
C	0.759660	0.029620	-0.044756	6
C	1.434540	-1.305370	-0.074626	6
N	1.299650	1.209110	-0.056996	7
N	2.654760	1.232940	-0.097406	7
H	-3.707870	1.118120	0.004984	1
H	-3.707850	-0.423290	0.871564	1
H	-3.707840	-0.403060	-0.896616	1
H	0.699380	-2.115100	-0.076916	1
H	2.073210	-1.414260	0.806404	1
H	2.049440	-1.387890	-0.975286	1
H	2.965660	2.196230	-0.249186	1
H	3.050560	0.971140	0.808894	1
Es	-3.559316	-0.251539	0.580979	99
Es	2.654463	1.233304	-0.096963	99
Es	-1.248659	-0.070636	-0.319403	99
Es	-0.679396	0.097264	-0.006673	99
Es	-1.247713	-0.100750	0.292522	99
Es	0.013913	0.051987	-0.020048	99
Es	1.090237	-0.631010	-0.053734	99
Es	1.049945	0.661220	-0.329476	99
Es	-3.561962	0.779725	0.001208	99
Es	-1.870097	0.097283	-0.006684	99
Es	2.832526	1.818347	-0.172402	99
Es	-3.313708	0.097266	-0.006686	99
Es	0.759544	0.029583	-0.044711	99
Es	-2.569947	0.098254	-0.006282	99
Es	1.434510	-1.305294	-0.074611	99
Es	1.987907	1.211785	-0.053952	99
Es	2.866747	1.074557	0.455365	99
Es	1.112730	1.534239	-0.071952	99
Es	1.070643	0.683605	0.244228	99
Es	0.935784	-1.844214	-0.073763	99
Es	2.753505	1.014470	-0.349799	99
Es	1.861286	-1.365866	0.519478	99
Es	-3.559246	-0.237980	-0.601924	99
Es	-1.271468	0.454590	0.011439	99
Es	1.839378	-1.349100	-0.673425	99
Es	1.300010	1.208577	-0.056984	99
