42
Properties=species:S:1:pos:R:3:Z:I:1 energy=-286.88369180740904 field_type=dipole dipole="0.000000 0.000000 0.000000" charge=0
C	-3.369610	-0.676500	-0.341437	6
C	-1.925610	-0.676500	-0.341437	6
C	-0.735450	-0.676500	-0.341437	6
C	0.708550	-0.676500	-0.341437	6
N	1.226610	0.696780	-0.385397	7
C	1.536891	1.255550	0.928013	6
C	2.631500	0.798390	-0.002557	6
H	-3.763580	0.344390	-0.329537	1
H	-3.763660	-1.197180	0.536723	1
H	-3.763690	-1.176600	-1.231467	1
H	1.070460	-1.205450	-1.231437	1
H	1.078960	-1.244400	0.522533	1
H	1.320080	0.666290	1.810093	1
H	1.369210	2.320260	1.033692	1
H	3.205570	1.555900	-0.522627	1
H	3.173770	-0.107930	0.237723	1
Es	1.106405	0.910876	-0.637591	99
Es	-3.369502	-0.676501	-0.341436	99
Es	1.883016	0.659032	-0.333156	99
Es	0.940938	-1.032555	-0.940394	99
Es	-1.327265	-0.472896	-0.040098	99
Es	0.708481	-0.676376	-0.341433	99
Es	2.631247	0.798388	-0.002553	99
Es	1.217926	0.936271	0.226704	99
Es	1.226879	0.696464	-0.384928	99
Es	1.012040	0.088182	-0.332277	99
Es	-1.925905	-0.676505	-0.341433	99
Es	-0.735183	-0.676515	-0.341439	99
Es	1.387120	0.847460	1.523200	99
Es	-3.618026	-1.011866	-0.937816	99
Es	1.536913	1.255440	0.927788	99
Es	-3.618179	-1.025899	0.247608	99
Es	-0.037830	-0.673418	-0.337022	99
Es	2.994049	0.175088	0.158610	99
Es	-3.616799	0.006748	-0.333108	99
Es	0.953214	-1.054977	0.254074	99
Es	-2.626748	-0.677006	-0.341341	99
Es	3.024470	1.308368	-0.357485	99
Es	-1.316423	-1.041746	-0.309397	99
Es	1.421802	1.977483	1.003593	99
Es	-1.331851	-0.524944	-0.667852	99
Es	2.239589	1.088118	0.611903	99
