41
Properties=species:S:1:pos:R:3:Z:I:1 energy=-302.953768930365 field_type=dipole dipole="0.000000 0.000000 0.000000" charge=0
C	-1.210344	-2.960712	-0.550577	6
C	-0.387034	-2.011363	-0.091477	6
C	-0.619654	-0.601673	-0.299227	6
C	0.219086	0.348417	0.138513	6
N	0.062686	1.704887	-0.004007	7
C	0.886636	2.725827	0.375563	6
N	2.064886	2.684777	0.886483	7
H	-0.996434	-4.009442	-0.367777	1
H	-2.107494	-2.728483	-1.115367	1
H	0.498846	-2.306922	0.467673	1
H	-1.521244	-0.320563	-0.837427	1
H	1.122526	0.067757	0.673713	1
H	-0.806734	1.980547	-0.450737	1
H	0.427947	3.712917	0.191343	1
H	2.366326	1.714027	0.983313	1
Es	-1.071550	-3.673949	-0.430475	99
Es	1.475357	2.674366	0.940945	99
Es	0.417128	2.121263	0.203454	99
Es	-0.619685	-0.601696	-0.299240	99
Es	0.217758	-2.198695	0.288867	99
Es	-0.973292	-2.464436	-0.051585	99
Es	0.560006	3.385316	0.242849	99
Es	-0.057381	-0.187458	-0.371182	99
Es	-0.386970	-2.011254	-0.091439	99
Es	0.062848	1.704855	-0.004266	99
Es	-1.233407	-0.407248	-0.665247	99
Es	0.153175	1.711326	-0.037670	99
Es	1.707963	2.689050	0.421248	99
Es	0.886456	2.725699	0.375482	99
Es	-1.210403	-2.960780	-0.550612	99
Es	-1.820600	-2.803221	-0.934212	99
Es	0.219155	0.348689	0.138536	99
Es	0.831574	0.168053	0.499634	99
Es	-0.461274	1.874982	-0.260350	99
Es	0.135179	1.120586	0.078066	99
Es	-0.498657	-1.298220	-0.192643	99
Es	-0.637113	-2.490508	-0.599246	99
Es	2.064542	2.684398	0.886326	99
Es	-0.381890	-0.156379	0.191218	99
Es	2.230564	2.087728	0.939962	99
Es	2.263164	2.960966	0.983015	99
