48
Properties=species:S:1:pos:R:3:Z:I:1 energy=-289.285667725578 field_type=dipole dipole="0.000000 0.000000 0.000000" charge=0
C	-2.317394	-1.657492	1.548308	6
C	-1.190354	-1.578302	0.529168	6
C	-0.687544	-0.143662	0.364068	6
N	0.356106	-0.099532	-0.660822	7
C	0.916046	1.243677	-0.829702	6
C	2.240486	1.563708	-0.197402	6
C	2.139616	1.407917	-1.686632	6
H	-2.657034	-2.691792	1.657368	1
H	-3.172264	-1.051242	1.233238	1
H	-1.986194	-1.302432	2.528938	1
H	-1.552974	-1.966382	-0.431022	1
H	-0.367944	-2.228763	0.851808	1
H	-0.290894	0.216758	1.319998	1
H	-1.520524	0.508478	0.076638	1
H	-0.023824	-0.440532	-1.543612	1
H	0.188216	2.051337	-0.891692	1
H	2.746926	0.783177	0.358538	1
H	2.383886	2.559968	0.202658	1
H	2.213326	2.299858	-2.297032	1
H	2.582336	0.525257	-2.132812	1
Es	0.618515	-0.312316	-0.569054	99
Es	-0.941487	-0.859936	0.444145	99
Es	-2.900542	-1.240458	1.330962	99
Es	-1.271305	0.309745	0.167562	99
Es	2.139546	1.407929	-1.686474	99
Es	-0.108554	-0.092220	-0.229297	99
Es	2.579303	1.035658	0.176019	99
Es	-1.759086	-1.612912	1.042344	99
Es	0.416642	1.801155	-0.867484	99
Es	2.434271	0.809160	-1.986534	99
Es	0.577219	0.500595	-0.741519	99
Es	1.496407	1.407751	-0.330327	99
Es	-0.414772	0.104460	1.018427	99
Es	2.335997	2.244471	0.070280	99
Es	2.240396	1.563692	-0.197554	99
Es	0.916178	1.243564	-0.829704	99
Es	-2.087887	-1.412207	2.217177	99
Es	-0.687452	-0.143686	0.363966	99
Es	-1.439936	-1.837992	-0.135575	99
Es	-2.549133	-2.363727	1.622656	99
Es	-0.628923	-2.020138	0.751967	99
Es	0.355644	-0.099123	-0.660997	99
Es	-2.317377	-1.657489	1.548293	99
Es	2.186436	2.016896	-2.098921	99
Es	0.104591	-0.281772	-1.196337	99
Es	1.428373	1.289404	-1.420065	99
Es	-1.190390	-1.578273	0.529187	99
Es	2.372770	1.524442	-0.961371	99
