48
Properties=species:S:1:pos:R:3:Z:I:1 energy=-289.306153946902 field_type=dipole dipole="0.000000 0.000000 0.000000" charge=0
C	-0.739416	-2.140707	-0.326061	6
C	-1.491646	-0.988567	0.329779	6
C	-0.981666	0.395653	-0.109041	6
N	-1.810466	1.441683	0.488849	7
C	0.444704	0.638823	0.298799	6
C	1.447464	0.871423	-0.565401	6
C	2.863134	1.112162	-0.155591	6
H	-1.192956	-3.094847	-0.039991	1
H	0.308664	-2.164797	-0.014301	1
H	-0.775676	-2.061857	-1.416661	1
H	-1.424326	-1.097007	1.420769	1
H	-2.554456	-1.083207	0.069959	1
H	-1.078776	0.476773	-1.198731	1
H	-1.842396	1.314213	1.498389	1
H	-2.769356	1.333593	0.164359	1
H	0.657444	0.619732	1.364749	1
H	1.243194	0.902003	-1.632931	1
H	2.995404	1.059923	0.929819	1
H	3.185544	2.102082	-0.492071	1
H	3.515584	0.362933	-0.614691	1
Es	-1.491622	-0.988595	0.329763	99
Es	-0.981723	0.395729	-0.108939	99
Es	2.155906	0.991272	-0.355892	99
Es	1.002302	0.424069	-0.148273	99
Es	2.863103	1.112154	-0.155608	99
Es	-0.739440	-2.140691	-0.326052	99
Es	-1.693780	1.767446	0.411796	99
Es	-1.441235	-1.054089	1.082123	99
Es	1.314655	0.891256	-1.295400	99
Es	2.947345	1.075213	0.583179	99
Es	-1.832067	1.339327	1.099353	99
Es	0.578797	0.622081	1.030899	99
Es	-0.766263	-2.082058	-1.072180	99
Es	-1.810672	1.441152	0.488985	99
Es	-1.046707	0.446471	-0.857089	99
Es	-1.107708	-1.564736	-0.001410	99
Es	3.298513	0.603592	-0.470136	99
Es	0.444611	0.638800	0.298865	99
Es	3.075042	1.780298	-0.387034	99
Es	-1.222542	-0.308333	0.114756	99
Es	-2.391837	1.351064	0.297490	99
Es	0.881813	1.073149	-0.113440	99
Es	-0.027944	-2.154821	-0.112954	99
Es	-0.260820	0.509227	0.098323	99
Es	1.447579	0.871439	-0.565466	99
Es	-2.222938	-1.045414	0.147666	99
Es	-1.462884	0.972730	0.242737	99
Es	-1.052211	-2.791956	-0.130327	99
