48
Properties=species:S:1:pos:R:3:Z:I:1 energy=-289.29770266347043 field_type=dipole dipole="0.000000 0.000000 0.000000" charge=0
C	-3.196089	-0.998680	0.430220	6
C	-1.693609	-1.231429	0.415459	6
C	-0.929909	0.076270	0.204770	6
N	0.508471	-0.191199	0.190439	7
C	1.267771	1.037540	-0.019941	6
C	2.729081	0.712210	-0.012041	6
C	3.570901	0.960070	-1.024291	6
H	-3.725019	-1.943909	0.590369	1
H	-3.537589	-0.576120	-0.521121	1
H	-3.480319	-0.310329	1.233359	1
H	-1.451679	-1.942990	-0.382321	1
H	-1.394019	-1.692110	1.363809	1
H	-1.173129	0.774150	1.015469	1
H	-1.240819	0.534531	-0.742471	1
H	0.723791	-0.839589	-0.566771	1
H	1.069701	1.749161	0.789449	1
H	0.980191	1.511750	-0.965281	1
H	3.115111	0.249811	0.894599	1
H	3.235171	1.422240	-1.947320	1
H	4.621991	0.698620	-0.946391	1
Es	-1.693643	-1.231394	0.415441	99
Es	3.091641	0.542247	-0.658281	99
Es	-1.149869	0.396617	-0.454655	99
Es	1.133158	1.519041	0.531852	99
Es	3.220503	1.133379	-0.408006	99
Es	-1.523269	-1.715471	-0.138316	99
Es	-1.093491	0.558018	0.760660	99
Es	0.605978	-0.336620	0.498854	99
Es	2.005803	0.876643	-0.023846	99
Es	-3.556778	-1.643904	0.539561	99
Es	-3.386030	-0.526068	0.979447	99
Es	-1.313186	-0.576292	0.306889	99
Es	0.830734	0.353529	0.075635	99
Es	3.570966	0.960091	-1.024371	99
Es	3.346726	1.274066	-1.653952	99
Es	2.729001	0.712199	-0.011971	99
Es	-1.490179	-1.542693	1.063751	99
Es	-3.426697	-0.707858	-0.221529	99
Es	0.627681	-0.565547	-0.287033	99
Es	0.508312	-0.190954	0.189933	99
Es	-0.929782	0.076220	0.204771	99
Es	4.285926	0.786138	-0.979562	99
Es	-2.450248	-1.109558	0.419949	99
Es	1.072706	1.368633	-0.676492	99
Es	1.267755	1.037418	-0.019915	99
Es	-0.112845	-0.058796	0.170582	99
Es	-3.196070	-0.998682	0.430218	99
Es	2.983299	0.399887	0.604845	99
