41
Properties=species:S:1:pos:R:3:Z:I:1 energy=-302.8807999525214 field_type=dipole dipole="0.000000 0.000000 0.000000" charge=0
C	-0.475708	-1.464465	0.942984	6
C	-0.218688	-0.948255	-0.462066	6
C	0.324502	0.452885	-0.423346	6
N	-0.313928	1.582695	-0.405136	7
N	-1.666158	1.499005	-0.432116	7
C	1.751602	0.659365	-0.358936	6
C	2.939532	0.826915	-0.303916	6
H	-0.860758	-2.488115	0.907564	1
H	-1.207948	-0.841805	1.467004	1
H	0.444162	-1.465655	1.537144	1
H	-1.141388	-0.978135	-1.050006	1
H	0.505902	-1.598895	-0.965026	1
H	-2.045178	2.407475	-0.715256	1
H	-2.027588	1.369484	0.517094	1
H	3.991642	0.987505	-0.255986	1
Es	3.625278	0.929996	-0.272623	99
Es	1.751351	0.659311	-0.358934	99
Es	-0.041028	1.070975	-0.119637	99
Es	-1.882952	2.053630	-0.588346	99
Es	0.059414	-0.228993	-0.441300	99
Es	2.939772	0.826945	-0.303905	99
Es	0.278485	-1.379979	-0.798349	99
Es	-0.976185	-1.034592	1.294882	99
Es	2.306078	1.084425	-0.255542	99
Es	2.359409	0.495671	-0.068257	99
Es	-0.996890	1.531452	-0.402526	99
Es	0.324644	0.452876	-0.423297	99
Es	-0.834465	-0.960465	-0.853189	99
Es	-1.665869	1.499476	-0.431722	99
Es	-0.218650	-0.948178	-0.462016	99
Es	-0.475704	-1.464441	0.942936	99
Es	-0.737487	-2.158815	0.913420	99
Es	1.070173	0.540991	-0.389673	99
Es	-0.149848	1.921860	-0.411088	99
Es	-0.314254	1.582127	-0.405133	99
Es	0.150554	-1.462670	1.341647	99
Es	2.360415	0.630683	-0.669127	99
Es	-1.853880	1.422489	0.142595	99
Es	-1.764858	1.235400	-0.647674	99
Es	-0.341553	-1.185412	0.235907	99
Es	-0.018404	1.065265	-0.693586	99
