48
Properties=species:S:1:pos:R:3:Z:I:1 energy=-289.27998837056515 field_type=dipole dipole="0.000000 0.000000 0.000000" charge=0
C	-0.758883	-1.851691	-1.711481	6
C	-0.665973	-1.248271	-0.316041	6
N	0.226557	-0.086011	-0.316101	7
C	-0.467263	1.125319	-0.831692	6
C	0.202467	1.916078	0.306839	6
C	0.253667	0.551009	1.033539	6
C	1.529647	0.238839	1.790558	6
H	-1.381393	-2.752151	-1.690161	1
H	0.230287	-2.136721	-2.085792	1
H	-1.207213	-1.151031	-2.423622	1
H	-0.254343	-2.010641	0.356449	1
H	-1.673503	-1.012031	0.049389	1
H	-1.563083	1.116039	-0.771251	1
H	-0.172283	1.425169	-1.841491	1
H	1.179297	2.337298	0.040949	1
H	-0.408623	2.690199	0.777389	1
H	-0.639993	0.373479	1.649539	1
H	2.422987	0.411079	1.180308	1
H	1.540347	-0.805301	2.120358	1
H	1.607287	0.869349	2.682318	1
Es	0.896694	0.390387	1.425314	99
Es	1.529631	0.238837	1.790578	99
Es	0.253691	0.550979	1.033419	99
Es	0.225997	-0.085897	-0.315872	99
Es	-0.758898	-1.851684	-1.711465	99
Es	-0.272978	1.328502	-1.532069	99
Es	-1.065946	-1.368344	-2.193551	99
Es	-0.717229	-1.548553	-1.022329	99
Es	-1.187704	-2.465626	-1.693497	99
Es	2.131756	0.360408	1.372988	99
Es	-0.382794	-1.770028	0.150975	99
Es	-0.086674	-2.044973	-1.963131	99
Es	0.550308	-0.136375	-0.452454	99
Es	-0.179529	-0.586776	-0.311649	99
Es	1.576335	0.671497	2.400508	99
Es	0.226244	0.133845	0.297634	99
Es	-1.222796	1.107143	-0.779210	99
Es	-0.367364	0.423780	1.450680	99
Es	-0.467195	1.125234	-0.831621	99
Es	-1.366012	-1.073777	-0.062597	99
Es	1.532302	-0.475130	2.014415	99
Es	0.870682	2.193388	0.125967	99
Es	-0.114031	0.403495	-0.591074	99
Es	0.202438	1.916035	0.306826	99
Es	-0.665903	-1.248200	-0.316081	99
Es	-0.159189	1.607197	-0.304325	99
Es	-0.216794	2.452193	0.631699	99
Es	0.253218	1.287139	0.751658	99
