39
Properties=species:S:1:pos:R:3:Z:I:1 energy=-285.7870335836186 field_type=dipole dipole="0.000000 0.000000 0.000000" charge=0
C	-0.582947	-2.441691	0.196282	6
C	-1.022048	-1.184381	0.048092	6
N	-0.247828	-0.023391	-0.013558	7
C	-0.750418	1.256799	-0.167988	6
C	0.288412	2.160309	-0.188158	6
C	1.480652	1.423259	-0.041698	6
C	1.128062	0.095509	0.062762	6
H	-1.287858	-3.267071	0.230272	1
H	0.468982	-2.690631	0.287132	1
H	-2.091738	-1.012181	-0.036548	1
H	-1.817028	1.416569	-0.251238	1
H	0.192402	3.232889	-0.296818	1
H	2.490162	1.812549	-0.014578	1
H	1.751193	-0.778541	0.186042	1
Es	1.268741	0.816759	0.317932	99
Es	1.309523	0.756097	-0.302623	99
Es	-1.473935	1.354365	-0.223495	99
Es	-0.768378	-1.863186	-0.200946	99
Es	-0.247519	-0.023088	-0.014787	99
Es	1.541462	-0.500194	0.145918	99
Es	-0.809745	-1.800896	0.450692	99
Es	-0.582920	-2.441734	0.196288	99
Es	-0.750441	1.256571	-0.167968	99
Es	-1.057023	-2.995811	0.219098	99
Es	1.480679	1.423271	-0.041699	99
Es	1.127861	0.095388	0.062756	99
Es	2.161642	1.689707	-0.023881	99
Es	-1.021975	-1.184103	0.048075	99
Es	0.128946	-2.608137	0.257514	99
Es	-0.211770	1.745021	0.134813	99
Es	0.226987	2.885648	-0.261332	99
Es	-0.572717	-0.530779	0.006513	99
Es	0.343616	-0.020352	0.003038	99
Es	-1.740112	-1.050556	-0.010493	99
Es	0.917092	1.843845	-0.118774	99
Es	-0.201795	0.068847	0.031405	99
Es	-0.500939	0.505706	-0.102831	99
Es	0.288416	2.160345	-0.188173	99
Es	-0.173933	1.686311	-0.486148	99
