45
Properties=species:S:1:pos:R:3:Z:I:1 energy=-288.12305398229375 field_type=dipole dipole="0.000000 0.000000 0.000000" charge=0
C	0.063296	-2.405927	-0.325776	6
C	-0.429794	-1.234667	0.515694	6
N	0.355546	-0.025817	0.286524	7
C	0.234506	0.525463	-1.074556	6
C	0.291606	2.000913	-0.878366	6
C	0.167426	2.301673	0.416014	6
C	0.013726	1.059623	1.222804	6
H	-0.497764	-3.311267	-0.071496	1
H	1.124226	-2.605797	-0.140536	1
H	-0.070894	-2.222077	-1.396606	1
H	-0.342164	-1.524787	1.569924	1
H	-1.494544	-1.061157	0.317004	1
H	-0.713764	0.264613	-1.559376	1
H	1.065946	0.179273	-1.695986	1
H	0.393236	2.714513	-1.681686	1
H	0.152046	3.298413	0.830214	1
H	0.703466	1.051613	2.072174	1
H	-1.016094	0.995403	1.594034	1
Es	0.063275	-2.405914	-0.325767	99
Es	-0.419652	0.346319	-1.403714	99
Es	0.234508	0.525450	-1.074431	99
Es	0.167431	0.441415	0.692051	99
Es	0.167410	2.301686	0.416141	99
Es	-0.369914	-1.427862	1.241152	99
Es	0.271748	1.271309	-1.010622	99
Es	-1.171514	-1.111455	0.373246	99
Es	0.354862	-0.025643	0.286418	99
Es	-0.029944	-2.275050	-1.055868	99
Es	0.291614	2.000868	-0.878486	99
Es	0.477591	1.056791	1.808538	99
Es	0.783354	-2.539884	-0.198134	99
Es	-0.015353	-0.534363	0.373911	99
Es	0.093051	1.704950	0.848519	99
Es	0.557966	2.162287	-0.202611	99
Es	0.686201	-0.101251	0.334908	99
Es	-0.088715	2.186935	-0.270269	99
Es	-0.695405	1.014501	1.473272	99
Es	0.796013	0.289404	-1.506534	99
Es	-0.324408	-3.020786	-0.149813	99
Es	0.261646	0.204807	-0.309900	99
Es	0.013750	1.059565	1.222705	99
Es	0.360370	2.475275	-1.433397	99
Es	-0.180983	-1.818637	0.082750	99
Es	-0.429703	-1.234593	0.515648	99
Es	0.154770	2.973637	0.709658	99
