47
Properties=species:S:1:pos:R:3:Z:I:1 energy=-305.2761591509063 field_type=dipole dipole="0.000000 0.000000 0.000000" charge=0
C	0.014583	-2.166414	-0.678437	6
C	-0.697807	-0.955104	-0.081277	6
N	-1.205947	-1.280894	1.252603	7
C	0.239833	0.218176	0.035203	6
C	0.578833	1.052306	-1.184947	6
N	-0.282197	1.577226	-0.135237	7
C	0.368853	2.549056	0.736213	6
H	0.383593	-1.940454	-1.684877	1
H	-0.662177	-3.024404	-0.754717	1
H	0.878293	-2.465304	-0.073227	1
H	-1.550467	-0.696514	-0.720707	1
H	-0.452407	-1.639794	1.834263	1
H	-1.890967	-2.030154	1.176553	1
H	1.030073	0.055606	0.760453	1
H	0.085783	0.828096	-2.124257	1
H	1.582502	1.448546	-1.279667	1
H	-0.119327	2.549276	1.716333	1
H	0.259753	3.552206	0.311293	1
H	1.439203	2.368546	0.894433	1
Es	1.262616	1.327834	-1.245654	99
Es	0.578709	1.052336	-1.184746	99
Es	0.239783	0.218388	0.035101	99
Es	0.014591	-2.166420	-0.678441	99
Es	0.368806	2.548965	0.736129	99
Es	0.245837	0.897503	-1.826144	99
Es	-0.697797	-0.955161	-0.081143	99
Es	-0.105842	0.976368	0.078490	99
Es	-1.604895	-1.749476	1.193330	99
Es	-0.737908	-1.513953	1.585395	99
Es	-1.351898	-1.001127	1.410151	99
Es	0.603170	-2.365809	-0.255840	99
Es	-0.452575	-2.749872	-0.724933	99
Es	0.532443	0.468119	-0.666318	99
Es	-0.228410	-0.359339	-0.027549	99
Es	0.299291	3.232865	0.442917	99
Es	-1.275852	-0.781050	-0.520498	99
Es	0.265329	-2.011833	-1.366685	99
Es	0.106179	1.478184	-0.659428	99
Es	-0.975579	-1.163979	0.675605	99
Es	-0.325138	-1.568876	-0.387506	99
Es	0.035200	1.982726	0.237331	99
Es	0.779555	0.112604	0.536304	99
Es	1.110123	2.413484	0.837978	99
Es	-0.281537	1.577093	-0.135143	99
Es	-1.205712	-1.281343	1.252355	99
Es	-0.625313	1.614714	-0.206934	99
Es	0.040322	2.545892	1.403757	99
