47
Properties=species:S:1:pos:R:3:Z:I:1 energy=-305.2762679844236 field_type=dipole dipole="0.000000 0.000000 0.000000" charge=0
C	-0.562998	-1.378086	-1.388218	6
C	-0.375748	-0.914016	0.054662	6
N	0.354282	-1.934146	0.810972	7
C	0.392852	0.401624	0.085882	6
C	-0.345168	1.660293	-0.425968	6
N	0.282672	2.430774	0.673082	7
C	0.419782	1.162584	1.432102	6
H	-1.138288	-0.643436	-1.962648	1
H	-1.104708	-2.329596	-1.429788	1
H	0.398912	-1.510746	-1.897478	1
H	-1.362088	-0.786286	0.515362	1
H	1.232322	-2.153026	0.340972	1
H	-0.180308	-2.802836	0.811822	1
H	1.397912	0.309944	-0.355668	1
H	-1.438758	1.622304	-0.355098	1
H	-0.071678	1.992184	-1.431848	1
H	1.184172	2.833774	0.415112	1
H	1.345482	1.072384	2.008101	1
H	-0.428648	0.966314	2.098652	1
Es	-0.473597	-1.147814	-0.687230	99
Es	0.419249	-1.830568	1.145833	99
Es	1.081730	0.338218	-0.217750	99
Es	0.026788	-2.459338	0.788225	99
Es	0.875843	-2.065364	0.502906	99
Es	0.010140	2.143210	0.157294	99
Es	-1.053378	-0.823115	0.370188	99
Es	-0.168582	1.027564	1.874781	99
Es	-0.932483	-2.030777	-1.411550	99
Es	-0.956684	-0.873445	-1.779722	99
Es	0.419778	1.162697	1.432003	99
Es	0.354165	-1.934337	0.810362	99
Es	0.392828	0.401645	0.085887	99
Es	-0.345092	1.660348	-0.425864	99
Es	-0.563003	-1.378085	-1.388238	99
Es	0.013191	-0.266152	0.064377	99
Es	-1.092660	1.624715	-0.367792	99
Es	0.100972	-1.468467	-1.728345	99
Es	-0.375663	-0.914132	0.054686	99
Es	0.042092	-1.510371	0.465049	99
Es	0.838436	2.633856	0.499922	99
Es	0.429682	0.694938	0.803090	99
Es	-0.158777	1.891943	-1.120543	99
Es	0.283016	2.430332	0.672818	99
Es	0.374106	1.909554	1.043659	99
Es	0.080023	2.693540	0.824541	99
Es	-0.007672	0.975193	-0.255721	99
Es	1.056716	1.106081	1.829896	99
