42
Properties=species:S:1:pos:R:3:Z:I:1 energy=-286.9033040920689 field_type=dipole dipole="0.000000 0.000000 0.000000" charge=0
C	-1.636078	-0.171061	0.512021	6
C	-0.109968	-0.154911	0.346131	6
N	0.483122	-0.861731	1.482991	7
C	0.263882	-0.925961	-0.901019	6
C	0.866322	-0.485001	-2.016989	6
C	0.372052	1.206259	0.346131	6
C	0.769332	2.328159	0.346131	6
H	-2.132658	0.335939	-0.325259	1
H	-1.949098	0.343649	1.429541	1
H	-2.030828	-1.193871	0.556681	1
H	0.244012	-0.359281	2.335781	1
H	1.496602	-0.793401	1.398311	1
H	-0.002048	-1.983281	-0.870989	1
H	1.168702	0.548869	-2.146799	1
H	1.071352	-1.166861	-2.836339	1
H	1.125302	3.332479	0.343681	1
Es	1.005736	-0.943473	-2.573599	99
Es	1.072023	0.209024	-2.110205	99
Es	0.369275	-1.198087	1.488247	99
Es	0.483287	-0.861210	1.482963	99
Es	0.263836	-0.925956	-0.900897	99
Es	0.371973	1.206033	0.346132	99
Es	0.237975	-0.520303	0.986714	99
Es	0.088613	-0.510119	-0.285202	99
Es	-1.636032	-0.171052	0.512018	99
Es	0.862637	-0.767150	-1.327051	99
Es	1.002281	2.984243	0.345638	99
Es	0.769425	2.328405	0.346146	99
Es	-0.858182	-0.150660	0.420804	99
Es	0.275667	-0.625843	-1.588925	99
Es	0.915217	1.658429	0.334210	99
Es	-1.964110	0.174305	-0.056863	99
Es	-0.109894	-0.154893	0.346202	99
Es	0.340839	-0.541357	1.987801	99
Es	1.091874	-0.803712	1.428568	99
Es	0.414436	1.829172	0.669932	99
Es	0.395720	1.846520	0.044104	99
Es	0.076292	-1.635976	-0.868289	99
Es	-1.891151	-0.865881	0.539394	99
Es	0.139874	0.559928	0.330553	99
Es	-1.834274	0.178291	1.139494	99
Es	0.866358	-0.484977	-2.017061	99
