46
Properties=species:S:1:pos:R:3:Z:I:1 energy=-272.1444780325312 field_type=dipole dipole="0.000000 0.000000 0.000000" charge=0
C	-1.883952	-0.093581	-1.321992	6
C	-0.360322	-0.106341	-1.292982	6
C	0.206048	-1.364151	-0.618842	6
C	0.529738	-0.966801	0.822548	6
C	0.670068	0.520329	0.729668	6
C	1.254138	1.309209	1.845348	6
C	0.184408	0.989609	-0.427352	6
H	-2.262662	-0.917681	-1.935712	1
H	-2.258092	0.843419	-1.748492	1
H	-2.311622	-0.199491	-0.318482	1
H	0.028188	-0.021001	-2.313882	1
H	1.134278	-1.660401	-1.126542	1
H	-0.470792	-2.223921	-0.665262	1
H	1.449718	-1.451471	1.162648	1
H	-0.287022	-1.230941	1.502318	1
H	1.277088	2.379109	1.613098	1
H	2.280638	0.985779	2.044128	1
H	0.664068	1.174139	2.757118	1
H	0.156088	2.034189	-0.707332	1
Es	0.851480	1.209557	2.457218	99
Es	0.731077	0.745686	0.003246	99
Es	0.135325	0.805492	0.277855	99
Es	1.268211	2.035753	1.685194	99
Es	1.158405	-1.293352	1.060349	99
Es	-1.883942	-0.093580	-1.321995	99
Es	0.529733	-0.966784	0.822530	99
Es	0.963119	0.918081	1.291139	99
Es	0.184364	0.989643	-0.427455	99
Es	-0.263760	-1.953358	-0.652500	99
Es	0.844781	-1.563866	-0.965464	99
Es	-0.092918	-0.750658	-0.964832	99
Es	-2.140015	-0.658857	-1.742834	99
Es	-1.127598	-0.096239	-1.299145	99
Es	0.206051	-1.364133	-0.618818	99
Es	1.945875	1.082340	1.974914	99
Es	-0.098449	-0.045630	-1.995773	99
Es	-0.027388	-1.137937	1.288727	99
Es	1.254127	1.309188	1.845329	99
Es	-0.360346	-0.106338	-1.292950	99
Es	0.159509	1.702436	-0.625475	99
Es	0.361290	-1.186549	0.113660	99
Es	-2.169840	-0.168149	-0.634061	99
Es	-2.137264	0.549093	-1.613452	99
Es	-0.093398	0.470949	-0.884355	99
Es	0.619913	-0.223046	0.807500	99
Es	0.670124	0.520281	0.729808	99
