38
Properties=species:S:1:pos:R:3:Z:I:1 energy=-301.7352532440894 field_type=dipole dipole="0.000000 0.000000 0.000000" charge=0
C	-1.691110	0.645748	0.062134	6
C	-0.358220	0.533308	0.016734	6
N	0.401100	-0.611332	-0.019306	7
C	0.019310	-1.914732	-0.013366	6
N	0.802160	-2.935241	-0.053856	7
C	0.434690	1.718838	0.000764	6
C	1.106590	2.714889	-0.012856	6
H	-2.174970	1.617788	0.086954	1
H	-2.343410	-0.219172	0.075424	1
H	1.398540	-0.438882	-0.056726	1
H	-1.069490	-2.077902	0.031194	1
H	1.778100	-2.635261	-0.093106	1
H	1.696710	3.601948	-0.023986	1
Es	1.490165	3.290282	-0.020258	99
Es	-1.691140	0.645729	0.062136	99
Es	0.802268	-2.934707	-0.053858	99
Es	-0.357917	0.533249	0.016737	99
Es	0.947983	2.080323	-0.288058	99
Es	0.995144	-0.512079	-0.034450	99
Es	0.019303	-1.914505	-0.013352	99
Es	1.391344	-2.729421	-0.077014	99
Es	-1.048257	0.606891	-0.284895	99
Es	0.344499	-0.637700	-0.067519	99
Es	-0.715483	-2.005902	0.016821	99
Es	0.046533	-0.125123	0.012249	99
Es	0.707636	-3.279097	-0.051948	99
Es	0.881847	2.128624	0.321022	99
Es	0.476438	2.411287	-0.051170	99
Es	-2.126461	0.056341	0.070993	99
Es	0.395645	-0.614045	-0.014093	99
Es	0.434547	1.718622	0.000768	99
Es	0.507974	-2.513182	0.246276	99
Es	1.106720	2.715077	-0.012859	99
Es	0.062483	1.137228	0.008029	99
Es	-1.026244	0.601032	0.364701	99
Es	0.220782	-1.166896	0.007199	99
Es	0.484326	-2.509347	-0.322747	99
Es	-2.011596	1.295095	0.078755	99
