44
Properties=species:S:1:pos:R:3:Z:I:1 energy=-304.0815373918017 field_type=dipole dipole="0.000000 0.000000 0.000000" charge=0
C	-1.442257	0.142159	1.017834	6
C	0.002473	0.082259	0.517784	6
N	0.071813	-0.512291	-0.827876	7
N	-0.340867	-1.801420	-0.942856	7
C	-0.317357	-2.234940	-2.159146	6
C	0.577103	1.475549	0.453784	6
C	1.644653	1.891459	1.149004	6
H	-1.494037	0.623719	2.001054	1
H	-1.867377	-0.861981	1.123294	1
H	-2.085247	0.709419	0.334594	1
H	0.591623	-0.533791	1.209174	1
H	1.036503	-0.410041	-1.154906	1
H	-0.632387	-3.268170	-2.373226	1
H	-0.000417	-1.623031	-3.022076	1
H	0.071813	2.179529	-0.205246	1
H	2.181173	1.229279	1.821654	1
H	2.002793	2.912289	1.057154	1
Es	-0.136110	-0.350490	-1.042887	99
Es	0.410985	-0.334706	0.998504	99
Es	1.892133	2.582169	1.093131	99
Es	-0.589992	-1.908121	-1.547660	99
Es	-0.317311	-2.234970	-2.159151	99
Es	0.072208	-0.512763	-0.827462	99
Es	0.051755	-0.285606	-0.232374	99
Es	-1.723653	-0.535766	1.087965	99
Es	-0.340655	-1.801071	-0.943331	99
Es	1.319668	1.592870	0.558456	99
Es	-0.525989	-2.931674	-2.310325	99
Es	0.228326	1.945475	0.005707	99
Es	0.299227	0.783086	0.477419	99
Es	-0.095380	-1.820915	-2.743460	99
Es	-0.718462	0.118921	0.761743	99
Es	0.655412	-0.475564	-1.016777	99
Es	-0.048253	-2.085907	-1.451596	99
Es	-1.467688	0.471382	1.686149	99
Es	0.002447	0.082264	0.517641	99
Es	-1.871764	0.532199	0.549742	99
Es	1.644732	1.891489	1.149059	99
Es	-1.442221	0.142169	1.017834	99
Es	0.924107	1.769835	1.050300	99
Es	2.012284	1.445559	1.606155	99
Es	-0.107803	-1.162585	-0.878007	99
Es	0.577014	1.475494	0.453740	99
Es	-0.460688	-1.978878	-0.639337	99
