46
Properties=species:S:1:pos:R:3:Z:I:1 energy=-272.09979828977674 field_type=dipole dipole="0.000000 0.000000 0.000000" charge=0
C	-2.013058	-1.023823	0.488204	6
C	-1.023848	-1.307433	-0.630446	6
C	0.319692	-0.711793	-0.338456	6
C	1.179042	-0.201453	-1.463816	6
C	0.552202	0.772557	-0.498556	6
C	1.404952	1.449907	0.480654	6
C	1.006782	1.890167	1.682574	6
H	-2.969528	-1.514853	0.285014	1
H	-2.195788	0.051477	0.584774	1
H	-1.636448	-1.386853	1.449914	1
H	-1.427938	-0.923423	-1.574466	1
H	-0.910798	-2.391333	-0.748066	1
H	0.819132	-1.227743	0.475554	1
H	0.786282	-0.226543	-2.474456	1
H	2.245692	-0.388373	-1.407886	1
H	-0.265018	1.378537	-0.879196	1
H	2.443792	1.612327	0.199734	1
H	-0.016998	1.762408	2.016874	1
H	1.701862	2.386237	2.352044	1
Es	0.983091	1.108527	-0.011218	99
Es	1.124728	1.961907	0.961268	99
Es	0.328186	0.083495	-0.257879	99
Es	1.472349	2.228148	2.142025	99
Es	-2.013048	-1.023828	0.488191	99
Es	1.404975	1.449869	0.480552	99
Es	0.552261	0.772403	-0.498600	99
Es	-1.518638	-1.163822	-0.065098	99
Es	-2.667107	-1.360268	0.348640	99
Es	-1.298173	-1.036770	-1.278025	99
Es	-0.002571	1.177242	-0.751865	99
Es	0.319750	-0.711656	-0.338560	99
Es	0.949923	0.428443	-1.073755	99
Es	1.178954	-0.201404	-1.463687	99
Es	-2.135990	-0.288355	0.551624	99
Es	1.282190	1.388260	1.226924	99
Es	-1.752008	-1.274163	1.143641	99
Es	-0.350779	-0.993184	-0.493592	99
Es	1.006746	1.890207	1.682665	99
Es	0.784115	-0.633475	-0.970850	99
Es	1.905838	-0.319564	-1.419628	99
Es	0.664645	-1.052874	0.216927	99
Es	0.905645	-0.221449	-2.148411	99
Es	2.112186	1.553279	0.282765	99
Es	0.311382	1.807038	1.915798	99
Es	-1.023850	-1.307413	-0.630413	99
Es	-0.943941	-2.049570	-0.708624	99
