45
Properties=species:S:1:pos:R:3:Z:I:1 energy=-288.0865462018385 field_type=dipole dipole="0.000000 0.000000 0.000000" charge=0
C	-1.822631	-0.186993	-1.042278	6
N	-0.368461	-0.224163	-0.974138	7
C	0.150009	-1.297443	-0.118658	6
C	1.011959	-0.485583	0.835292	6
C	1.676439	0.583587	-0.084528	6
C	0.169439	0.974277	-0.286438	6
C	0.066449	0.673617	1.250942	6
H	-2.197341	-1.090123	-1.536668	1
H	-2.151141	0.666027	-1.646388	1
H	-2.305991	-0.113213	-0.062368	1
H	0.750139	-2.001373	-0.704298	1
H	-0.625891	-1.854733	0.419432	1
H	1.610219	-0.980843	1.597452	1
H	2.220399	0.216677	-0.961198	1
H	2.299929	1.329887	0.422412	1
H	-0.075711	1.961287	-0.676838	1
H	0.502989	1.432797	1.911802	1
H	-0.910801	0.396317	1.656462	1
Es	-2.152772	-0.136999	-0.360714	99
Es	-0.368729	-0.224101	-0.973496	99
Es	0.560889	-1.785510	-0.516294	99
Es	2.090981	1.094731	0.274056	99
Es	1.419392	-0.840861	1.355922	99
Es	0.595898	-0.924327	0.378139	99
Es	-0.235758	-0.244892	-1.300876	99
Es	0.149979	-1.297324	-0.118712	99
Es	0.522844	0.056128	1.137588	99
Es	-2.076781	-0.808121	-1.374001	99
Es	2.049324	0.329568	-0.688544	99
Es	-1.822514	-0.186995	-1.042275	99
Es	-0.611978	0.478794	1.526734	99
Es	0.169443	0.974138	-0.286425	99
Es	-0.015333	1.644491	-0.563385	99
Es	-1.008590	-0.208775	-0.965620	99
Es	1.676373	0.583571	-0.084488	99
Es	0.029558	0.897823	0.508482	99
Es	1.436652	0.000508	0.379430	99
Es	-0.390495	-1.674615	0.249488	99
Es	-0.164415	0.311306	-0.661146	99
Es	1.011934	-0.485505	0.835257	99
Es	-2.044651	0.400388	-1.450411	99
Es	0.960488	0.847967	-0.258904	99
Es	0.066476	0.673593	1.250887	99
Es	0.375734	1.192117	1.692748	99
Es	-0.174381	-0.701118	-0.590393	99
