46
Properties=species:S:1:pos:R:3:Z:I:1 energy=-272.1326302780269 field_type=dipole dipole="0.000000 0.000000 0.000000" charge=0
C	-2.074466	-1.798240	-0.506549	6
C	-0.739386	-1.750160	-0.410589	6
C	0.125584	-0.519810	-0.443329	6
C	-0.571806	0.841380	-0.482359	6
C	0.555144	1.807450	-0.148519	6
C	1.397454	1.079040	0.894921	6
C	1.016894	-0.399680	0.798831	6
H	-2.594736	-2.751070	-0.477109	1
H	-2.683756	-0.908010	-0.619279	1
H	-0.204226	-2.694370	-0.312119	1
H	0.774104	-0.600690	-1.327079	1
H	-1.357556	0.913780	0.279631	1
H	-1.016836	1.056890	-1.458659	1
H	1.159844	2.000150	-1.042999	1
H	0.183494	2.769610	0.216471	1
H	2.465454	1.232540	0.708621	1
H	1.182974	1.456960	1.900741	1
H	1.904584	-1.037250	0.722821	1
H	0.477234	-0.698520	1.706551	1
Es	2.130912	1.183712	0.765624	99
Es	-0.879259	0.988187	-1.151365	99
Es	-0.324998	-1.133014	-0.425058	99
Es	-0.254779	0.143626	-0.475305	99
Es	1.397435	1.079025	0.894904	99
Es	-0.364714	-2.388692	-0.341768	99
Es	1.220187	0.334516	0.850364	99
Es	-2.074559	-1.798241	-0.506550	99
Es	0.555142	1.807424	-0.148510	99
Es	-0.571782	0.841368	-0.482353	99
Es	1.248103	1.337745	1.585419	99
Es	0.640315	-0.604148	1.416184	99
Es	-0.739267	-1.750146	-0.410586	99
Es	-1.448720	-1.747248	-0.131383	99
Es	0.970594	1.934804	-0.765696	99
Es	-2.491736	-1.196046	-0.583023	99
Es	0.299892	2.468336	0.101554	99
Es	0.565119	-0.489667	0.177815	99
Es	-1.106478	0.884768	0.044624	99
Es	-1.402605	-1.796646	-0.783997	99
Es	1.016889	-0.399660	0.798809	99
Es	0.982412	1.458381	0.380065	99
Es	-0.021773	1.340728	-0.324143	99
Es	0.125557	-0.519837	-0.443309	99
Es	-2.433935	-2.442203	-0.486507	99
Es	1.625145	-0.840312	0.744802	99
Es	0.564625	-0.577036	-1.046018	99
