43
Properties=species:S:1:pos:R:3:Z:I:1 energy=-270.95769032403405 field_type=dipole dipole="0.000000 0.000000 0.000000" charge=0
C	-2.004853	-1.957680	-0.178504	6
C	-0.676753	-1.799360	-0.160524	6
C	0.008627	-0.543180	-0.016314	6
C	1.340357	-0.408380	0.038346	6
C	1.753847	1.013640	0.221756	6
C	0.469177	1.781200	-0.076134	6
C	-0.674873	0.785670	0.118026	6
H	-2.437203	-2.947390	-0.290524	1
H	-2.695113	-1.126260	-0.081924	1
H	-0.051683	-2.686240	-0.258834	1
H	2.051707	-1.221640	-0.011434	1
H	2.095607	1.180580	1.248356	1
H	2.552547	1.298300	-0.469344	1
H	0.480737	2.132170	-1.116534	1
H	0.359057	2.665050	0.560536	1
H	-1.448673	0.944870	-0.639694	1
H	-1.122513	0.888650	1.112746	1
Es	-2.475189	-1.395606	-0.113454	99
Es	1.982371	1.118552	0.921453	99
Es	0.645505	-0.542348	0.318949	99
Es	1.753825	1.013614	0.221749	99
Es	-0.676647	-1.799339	-0.160522	99
Es	0.393314	2.388116	0.361956	99
Es	2.300715	1.204276	-0.247151	99
Es	1.829256	-0.959976	0.005333	99
Es	-0.345325	-1.167549	-0.087551	99
Es	-0.244216	-2.396958	-0.226909	99
Es	1.340488	-0.408351	0.038340	99
Es	-1.339011	-1.898914	0.151872	99
Es	0.008490	-0.543189	-0.016318	99
Es	1.123335	1.413095	0.081946	99
Es	-0.367423	0.099866	0.042797	99
Es	-0.116208	1.295430	0.029121	99
Es	-2.305315	-2.626649	-0.254150	99
Es	-2.004957	-1.957692	-0.178505	99
Es	0.478000	2.016100	-0.790778	99
Es	0.668131	-0.476563	-0.320721	99
Es	0.469179	1.781170	-0.076123	99
Es	-1.204983	0.887502	-0.396284	99
Es	1.584009	0.289174	0.125804	99
Es	-0.674840	0.785647	0.118022	99
Es	-0.976869	0.847761	0.796428	99
Es	-1.339940	-1.827007	-0.488010	99
