45
Properties=species:S:1:pos:R:3:Z:I:1 energy=-288.12342085574414 field_type=dipole dipole="0.000000 0.000000 0.000000" charge=0
C	-1.869746	-0.037908	0.479762	6
N	-0.519426	-0.066648	1.032682	7
C	0.255984	1.128922	0.664112	6
C	0.710734	1.184212	-0.806808	6
C	1.209994	-0.140238	-1.299399	6
C	0.974724	-1.262608	-0.607788	6
C	0.196664	-1.301388	0.679062	6
H	-2.397516	0.862752	0.813572	1
H	-2.451966	-0.886328	0.857842	1
H	-1.891146	-0.066648	-0.613848	1
H	1.144734	1.165332	1.308212	1
H	-0.309786	2.037932	0.903522	1
H	1.508774	1.929302	-0.902228	1
H	-0.115626	1.507372	-1.450208	1
H	1.778294	-0.167868	-2.224888	1
H	1.370964	-2.207348	-0.968188	1
H	-0.498526	-2.149968	0.647482	1
H	0.902874	-1.528868	1.487112	1
Es	0.147967	1.395989	-1.245796	99
Es	1.239738	-1.912987	-0.843624	99
Es	-0.555623	-0.063279	1.377527	99
Es	0.974685	-1.262701	-0.607717	99
Es	-0.140425	1.747915	0.821492	99
Es	-0.519367	-0.066654	1.031976	99
Es	0.814528	-0.751001	-1.127348	99
Es	-0.206710	-0.595302	0.835994	99
Es	-2.262096	-0.623882	0.733213	99
Es	-2.223911	0.584026	0.702904	99
Es	0.255921	1.128806	0.664090	99
Es	0.962744	0.521219	-1.054747	99
Es	1.254710	1.688290	-0.870523	99
Es	0.479786	1.146148	-0.087138	99
Es	0.582211	-1.272504	0.022081	99
Es	0.871968	1.146358	1.098332	99
Es	-0.186665	0.443140	0.829985	99
Es	-1.094336	-0.055278	0.749416	99
Es	0.689185	-1.454445	1.216562	99
Es	-1.882805	-0.057058	-0.277210	99
Es	-1.869634	-0.037908	0.479808	99
Es	1.209993	-0.140123	-1.299442	99
Es	0.710741	1.184168	-0.806801	99
Es	1.595295	-0.150244	-1.931230	99
Es	0.196629	-1.301271	0.679035	99
Es	-0.280526	-1.871935	0.647576	99
Es	1.371733	-0.656156	-0.787403	99
