40
Properties=species:S:1:pos:R:3:Z:I:1 energy=-269.7716484617907 field_type=dipole dipole="0.000000 0.000000 0.000000" charge=0
C	-1.939848	-1.834798	-0.460189	6
C	-0.668648	-1.632148	-0.093849	6
C	-0.028168	-0.343328	0.010431	6
C	1.275762	-0.195028	0.320371	6
C	1.649072	1.256592	0.364971	6
C	0.348612	1.919262	0.038121	6
C	-0.593548	0.986322	-0.158399	6
H	-2.341108	-2.841878	-0.513069	1
H	-2.609908	-1.022048	-0.717429	1
H	-0.056668	-2.499848	0.145491	1
H	1.975592	-0.994578	0.513621	1
H	2.413302	1.491622	-0.381329	1
H	2.001612	1.543572	1.359871	1
H	0.200222	2.986312	-0.024519	1
H	-1.626278	1.179972	-0.404089	1
Es	1.500827	0.524052	0.351552	99
Es	-1.394836	-1.699036	0.030914	99
Es	-0.368726	0.292105	-0.088751	99
Es	-0.668544	-1.632110	-0.093824	99
Es	-1.297878	1.109128	-0.326106	99
Es	-2.218868	-2.515043	-0.498405	99
Es	2.150224	1.408571	-0.134902	99
Es	-0.365362	-0.977889	-0.046454	99
Es	-0.061279	1.443280	-0.373259	99
Es	1.875523	1.443113	1.027014	99
Es	1.275882	-0.194979	0.320400	99
Es	1.756716	-0.735106	0.453128	99
Es	0.532777	-0.281552	0.466371	99
Es	-1.210274	-1.739229	-0.584542	99
Es	-0.244575	-2.213771	0.070228	99
Es	-0.206879	1.458906	0.247052	99
Es	-2.396712	-1.284113	-0.634668	99
Es	0.258716	2.645210	-0.001889	99
Es	0.676937	-0.302860	-0.144317	99
Es	-0.028286	-0.343345	0.010403	99
Es	-0.593629	0.986213	-0.158413	99
Es	-1.939948	-1.834810	-0.460215	99
Es	0.348718	1.919323	0.038140	99
Es	1.018057	1.626236	0.204550	99
Es	1.649047	1.256583	0.364965	99
