45
Properties=species:S:1:pos:R:3:Z:I:1 energy=-288.0903141393188 field_type=dipole dipole="0.000000 0.000000 0.000000" charge=0
C	-1.371238	-2.546364	-0.287865	6
N	-1.476228	-1.094224	-0.225085	7
C	-0.177328	-0.455634	0.027505	6
C	0.541462	0.205396	-1.111805	6
C	-0.078468	1.052226	-0.033455	6
C	0.772092	1.725496	0.954475	6
C	1.819632	2.517176	0.691715	6
H	-2.347998	-2.975684	-0.528585	1
H	-1.046338	-2.960324	0.672505	1
H	-0.666908	-2.860094	-1.065415	1
H	-2.141338	-0.841454	0.505505	1
H	0.443562	-0.951104	0.773375	1
H	0.066052	0.212506	-2.085835	1
H	1.619422	0.105196	-1.152595	1
H	-0.975398	1.603286	-0.296765	1
H	0.501152	1.570786	1.998635	1
H	2.132373	2.714705	-0.328975	1
H	2.385492	2.978116	1.492665	1
Es	-0.228925	0.317341	0.163272	99
Es	-1.412907	-1.727973	-0.227620	99
Es	-0.678485	1.420757	-0.204301	99
Es	0.223928	-0.297192	-0.620617	99
Es	1.108996	2.385080	0.809285	99
Es	0.580046	1.614664	1.663993	99
Es	-0.887034	-2.756350	-0.815173	99
Es	0.356925	1.384626	0.455437	99
Es	2.038547	2.654928	0.001651	99
Es	0.298848	0.791234	-0.653784	99
Es	-0.904094	-0.829355	-0.090440	99
Es	-1.598164	-0.969454	-0.528704	99
Es	-0.177414	-0.455536	0.027383	99
Es	-1.859559	-0.954091	0.239580	99
Es	-2.039680	-2.838767	-0.447464	99
Es	0.217416	0.208122	-1.766689	99
Es	1.819715	2.517230	0.691693	99
Es	-1.141802	-2.835262	0.376887	99
Es	0.541378	0.205421	-1.111646	99
Es	-1.371248	-2.546231	-0.287856	99
Es	1.272949	0.142980	-1.133087	99
Es	2.207676	2.834006	1.230442	99
Es	0.771995	1.725426	0.954490	99
Es	-1.475978	-1.094456	-0.224512	99
Es	0.250971	-0.792141	0.540139	99
Es	-0.078400	1.052076	-0.033496	99
Es	1.502460	1.863931	0.832052	99
