47
Properties=species:S:1:pos:R:3:Z:I:1 energy=-305.26295250452876 field_type=dipole dipole="0.000000 0.000000 0.000000" charge=0
C	-0.934518	-1.762531	-1.640766	6
N	-0.825988	-1.217471	-0.293426	7
C	0.071903	-0.054381	-0.306956	6
C	-0.697128	1.235039	-0.674366	6
N	-0.016407	1.918769	0.460944	7
C	0.131943	0.580729	1.110494	6
C	1.441813	0.443209	1.863694	6
H	-1.624448	-2.612591	-1.635176	1
H	0.034202	-2.117811	-2.008206	1
H	-1.332698	-1.022831	-2.343556	1
H	-0.517838	-1.957351	0.336624	1
H	1.042792	-0.185851	-0.798986	1
H	-1.787758	1.201699	-0.557586	1
H	-0.466928	1.655329	-1.658416	1
H	0.870412	2.345229	0.192454	1
H	-0.723358	0.345299	1.760364	1
H	2.304132	0.708309	1.242004	1
H	1.579372	-0.589461	2.201313	1
H	1.450492	1.086669	2.749554	1
Es	-1.199714	-1.250062	-2.117596	99
Es	-0.850851	-1.464472	-0.886831	99
Es	-0.397612	-0.750867	-0.316203	99
Es	0.081923	1.366882	0.782851	99
Es	-1.434380	1.201546	-0.587950	99
Es	0.741005	-0.141898	-0.646961	99
Es	-0.312083	1.675343	-0.066997	99
Es	-0.451151	0.415783	1.544987	99
Es	-0.607298	-1.667254	0.074945	99
Es	0.131990	0.580857	1.110425	99
Es	0.799096	0.507842	1.494214	99
Es	-0.336235	0.544283	-0.586349	99
Es	0.533613	2.134075	0.281169	99
Es	1.532273	-0.264132	2.090500	99
Es	-0.016088	1.918343	0.460634	99
Es	-0.537518	1.529070	-1.354675	99
Es	1.441811	0.443197	1.863694	99
Es	-0.697023	1.235094	-0.674263	99
Es	-0.260795	-2.004673	-1.899494	99
Es	-1.402911	-2.346723	-1.638640	99
Es	0.071802	-0.054476	-0.306944	99
Es	-0.934508	-1.762484	-1.640655	99
Es	-0.825426	-1.217697	-0.293651	99
Es	-0.208962	2.168901	0.641771	99
Es	-1.138153	-1.102736	-0.183878	99
Es	2.026112	0.626960	1.430198	99
Es	1.445713	0.881230	2.463815	99
Es	0.140905	0.176172	0.433226	99
