48
Properties=species:S:1:pos:R:3:Z:I:1 energy=-289.28010737233683 field_type=dipole dipole="0.000000 0.000000 0.000000" charge=0
C	-2.944369	0.710367	-0.694137	6
N	-1.503119	0.669577	-0.900067	7
C	-0.882309	-0.355123	-0.058877	6
C	0.619211	-0.392903	-0.311677	6
C	1.471131	0.774737	0.261472	6
C	2.560991	-0.269953	0.573732	6
C	1.437091	-1.324523	0.622512	6
H	-3.384609	1.473207	-1.343507	1
H	-3.194789	0.964927	0.342253	1
H	-3.409349	-0.247513	-0.948967	1
H	-1.109459	1.581397	-0.668767	1
H	-1.306639	-1.337183	-0.299257	1
H	-1.085679	-0.152593	0.999693	1
H	0.845841	-0.589693	-1.370788	1
H	1.049321	1.248817	1.155652	1
H	1.752961	1.551797	-0.453737	1
H	3.273901	-0.422513	-0.244477	1
H	3.112471	-0.118683	1.504852	1
H	1.690551	-2.305013	0.211423	1
H	1.006851	-1.459133	1.622672	1
Es	1.471143	0.774687	0.261474	99
Es	2.076075	0.323155	0.433345	99
Es	2.058482	-0.859391	0.637101	99
Es	1.662143	1.315845	-0.228241	99
Es	-1.433485	0.596824	-1.239925	99
Es	-2.131807	0.691198	-0.780902	99
Es	-1.019261	-0.215573	0.681629	99
Es	1.437105	-1.324475	0.622495	99
Es	-1.178787	-1.028193	-0.224047	99
Es	-0.882355	-0.355027	-0.058962	99
Es	0.619236	-0.392892	-0.311610	99
Es	-3.119775	0.882464	0.027173	99
Es	1.608761	-2.004016	0.342609	99
Es	0.779870	-0.526108	-1.030012	99
Es	-2.944245	0.710367	-0.694151	99
Es	1.175662	1.087435	0.877129	99
Es	2.945730	-0.165568	1.214032	99
Es	1.138166	-1.403226	1.306152	99
Es	-3.257007	0.052053	-0.863036	99
Es	3.038759	-0.374950	0.007357	99
Es	-1.248482	0.237641	-0.509018	99
Es	-0.137280	-0.369631	-0.184470	99
Es	-3.246345	1.235363	-1.134154	99
Es	0.984782	0.260614	-0.058385	99
Es	-1.503269	0.669699	-0.899448	99
Es	2.560928	-0.269951	0.573724	99
Es	0.969716	-0.928780	0.148339	99
Es	-1.272792	1.219749	-0.732435	99
