37
Properties=species:S:1:pos:R:3:Z:I:1 energy=-268.5609536185232 field_type=dipole dipole="0.000000 0.000000 0.000000" charge=0
C	-3.180084	0.020782	-0.002912	6
C	-1.989924	0.020782	-0.002912	6
C	-0.583924	0.020782	-0.002912	6
C	0.195846	-1.071328	0.002148	6
C	1.637396	-0.656588	0.004208	6
C	1.532306	0.841462	-0.000502	6
C	0.240676	1.204312	-0.004602	6
H	-4.244964	0.020532	-0.002912	1
H	-0.147344	-2.094648	0.005688	1
H	2.154756	-1.020048	-0.888431	1
H	2.150296	-1.014578	0.901648	1
H	2.376116	1.514912	-0.000302	1
H	-0.141154	2.213622	-0.008212	1
Es	-2.587273	-0.290691	0.173663	99
Es	-0.025892	-1.765296	0.004533	99
Es	0.879128	1.030525	0.315732	99
Es	0.926902	-0.901146	0.003165	99
Es	-1.309490	0.029194	-0.002705	99
Es	-0.235989	-0.506782	0.312910	99
Es	-0.231561	0.640191	-0.003956	99
Es	-3.875478	0.020446	-0.002949	99
Es	-0.584090	0.020879	-0.002900	99
Es	0.880579	1.028607	-0.321143	99
Es	-2.573730	0.017608	-0.356032	99
Es	1.625282	0.094013	0.001927	99
Es	-2.587594	0.331889	0.173235	99
Es	1.532411	0.841394	-0.000498	99
Es	0.195936	-1.071386	0.002148	99
Es	-0.235083	-0.508770	-0.314468	99
Es	2.111303	1.288534	-0.000285	99
Es	-1.989665	0.020786	-0.002916	99
Es	-0.025527	1.883811	-0.007027	99
Es	1.970908	-0.893810	-0.590015	99
Es	-3.180340	0.020782	-0.002907	99
Es	1.637366	-0.656571	0.004208	99
Es	0.240552	1.204318	-0.004601	99
Es	1.967853	-0.890167	0.601539	99
