50
Properties=species:S:1:pos:R:3:Z:I:1 energy=-306.48120473185986 field_type=dipole dipole="0.000000 0.000000 0.000000" charge=0
C	-2.900314	-0.015498	0.970422	6
N	-1.448214	0.099252	1.021912	7
C	-0.833004	-0.478668	-0.176188	6
C	0.705826	-0.364128	-0.140008	6
C	1.290086	-1.105078	-1.350528	6
C	1.155466	1.109652	-0.111228	6
N	2.612016	1.239402	-0.036228	7
H	-3.333394	0.443332	1.864472	1
H	-3.218884	-1.062438	0.940472	1
H	-3.308994	0.508902	0.100702	1
H	-1.104014	-0.390208	1.848232	1
H	-1.213014	0.029752	-1.071258	1
H	-1.112524	-1.537108	-0.252578	1
H	1.071626	-0.864988	0.767092	1
H	0.981766	-0.633088	-2.289658	1
H	0.950516	-2.146318	-1.368478	1
H	2.384096	-1.121138	-1.320848	1
H	0.724566	1.625062	0.753782	1
H	0.802326	1.628442	-1.009568	1
H	2.942866	0.806722	0.824542	1
H	2.851196	2.228142	0.034942	1
Es	1.155621	1.109620	-0.111236	99
Es	-0.066260	-0.414869	-0.152643	99
Es	0.999085	-0.732865	-0.750513	99
Es	2.795190	0.987466	0.499794	99
Es	2.779681	1.093220	-0.315176	99
Es	-1.248687	-0.223018	1.513972	99
Es	1.290056	-1.105070	-1.350508	99
Es	-1.448389	0.098647	1.021855	99
Es	-1.096101	-0.126724	-0.788493	99
Es	2.611753	1.239650	-0.035751	99
Es	1.072764	-0.778808	-1.989331	99
Es	-3.123054	-0.742487	0.944577	99
Es	1.983772	1.188170	-0.051606	99
Es	2.027318	-1.118847	-1.328846	99
Es	0.933085	0.371169	-0.127597	99
Es	-3.174138	0.338351	0.371483	99
Es	-1.360540	0.439415	1.046734	99
Es	2.741500	1.841072	0.024048	99
Es	-1.025457	-1.216934	-0.233204	99
Es	0.854529	1.459692	0.482957	99
Es	-2.900188	-0.015489	0.970428	99
Es	-0.833032	-0.478604	-0.176068	99
Es	-2.082234	0.019287	0.993880	99
Es	-3.197367	0.293453	1.583859	99
Es	1.050381	-1.817395	-1.358702	99
Es	-1.194090	-0.175371	0.507204	99
Es	0.912436	1.461976	-0.732720	99
Es	0.705808	-0.364122	-0.140037	99
Es	0.956174	-0.706296	0.491755	99
