44
Properties=species:S:1:pos:R:3:Z:I:1 energy=-304.08054285015254 field_type=dipole dipole="0.000000 0.000000 0.000000" charge=0
C	-2.098272	-1.245201	-0.141689	6
N	-0.680732	-0.910061	-0.119039	7
C	-0.460752	0.403069	0.527721	6
C	1.043547	0.809529	0.555461	6
N	1.879628	-0.311871	1.002571	7
C	1.496567	1.233699	-0.781859	6
C	1.871298	1.575629	-1.872159	6
H	-2.236822	-2.207071	-0.644959	1
H	-2.681762	-0.494431	-0.684389	1
H	-2.495722	-1.343961	0.873471	1
H	-0.334592	-0.854001	-1.079379	1
H	-0.815632	0.340999	1.564381	1
H	-1.044362	1.179889	0.017501	1
H	1.169648	1.644019	1.254771	1
H	1.601228	-1.112391	0.426751	1
H	1.569088	-0.580601	1.935091	1
H	2.217648	1.872759	-2.834239	1
Es	2.228580	-0.232565	0.994553	99
Es	1.496476	1.233628	-0.781632	99
Es	1.602062	1.076318	-1.466010	99
Es	-0.498092	-1.159379	0.057666	99
Es	1.871363	1.575695	-1.872385	99
Es	-2.503539	-0.722909	-0.513145	99
Es	-0.488590	-0.858603	-0.702754	99
Es	-0.681032	-0.909604	-0.119343	99
Es	0.296055	0.609570	0.516702	99
Es	1.043618	0.809446	0.555353	99
Es	-2.098137	-1.245167	-0.141685	99
Es	1.709507	-0.781501	0.657465	99
Es	1.275844	1.030512	-0.150074	99
Es	1.429166	1.666680	-1.343749	99
Es	1.879047	-0.311960	1.002595	99
Es	-1.303847	-1.028036	-0.138455	99
Es	1.124632	1.377641	1.015071	99
Es	-0.460712	0.402946	0.527659	99
Es	-0.700899	0.358444	1.240629	99
Es	-2.192130	-1.898894	-0.488342	99
Es	1.670768	-0.464764	1.563594	99
Es	1.494310	0.178452	0.802269	99
Es	-2.366383	-1.304507	0.553556	99
Es	2.094861	1.770019	-2.500667	99
Es	-0.596747	-0.324830	0.144351	99
Es	-0.862079	0.942421	0.178403	99
Es	2.007987	1.475908	-1.209549	99
