43
Properties=species:S:1:pos:R:3:Z:I:1 energy=-270.9520172478667 field_type=dipole dipole="0.000000 0.000000 0.000000" charge=0
C	-1.997691	-1.547190	0.350141	6
C	-0.577311	-1.409790	-0.088589	6
C	0.159089	-0.287910	-0.006529	6
C	1.574399	-0.153060	-0.513649	6
C	1.817709	1.325310	-0.512949	6
C	0.789149	1.995130	0.019771	6
C	-0.306281	1.071390	0.458991	6
H	-2.133101	-2.500540	0.871991	1
H	-2.661661	-1.536370	-0.519659	1
H	-2.305341	-0.750370	1.035521	1
H	-0.123711	-2.303850	-0.510819	1
H	1.679049	-0.559750	-1.523639	1
H	2.281459	-0.647950	0.161111	1
H	2.721829	1.779890	-0.893119	1
H	0.740939	3.069070	0.131561	1
H	-0.405031	1.101420	1.549501	1
H	-1.253491	1.354570	-0.009639	1
Es	-0.318592	-0.769773	-0.346060	99
Es	1.817800	1.325229	-0.512994	99
Es	0.159174	-0.287783	-0.006511	99
Es	0.224334	1.560182	0.248896	99
Es	1.727154	0.584195	-0.529358	99
Es	1.174323	1.703426	-0.546897	99
Es	1.644745	-0.430452	-1.195142	99
Es	0.789040	1.995175	0.019826	99
Es	1.574382	-0.153023	-0.513635	99
Es	-0.372863	1.088979	1.193354	99
Es	-2.202456	-1.001963	0.812375	99
Es	-0.947734	1.259720	0.143608	99
Es	-0.306243	1.071383	0.458976	99
Es	-2.439433	-1.537914	-0.240925	99
Es	2.437851	1.624523	-0.773981	99
Es	2.049406	-0.485555	-0.057615	99
Es	1.448479	1.654796	0.043190	99
Es	-1.289216	-1.471329	0.135870	99
Es	-0.577389	-1.409877	-0.088574	99
Es	-0.271713	-2.023995	-0.377374	99
Es	-0.108577	-0.945276	0.264075	99
Es	0.872691	-0.240355	-0.259416	99
Es	0.745778	2.725464	0.101751	99
Es	-0.092758	0.383486	0.241808	99
Es	-1.997658	-1.547189	0.350129	99
Es	-2.085259	-2.194341	0.701185	99
