37
Properties=species:S:1:pos:R:3:Z:I:1 energy=-317.791113050123 field_type=dipole dipole="0.000000 0.000000 0.000000" charge=0
C	-1.340335	-0.943297	-0.255593	6
N	0.097005	-0.855067	-0.022213	7
C	0.581105	0.554442	-0.016333	6
C	0.081475	1.336742	1.139337	6
N	-0.339825	1.967232	2.020177	7
C	2.062205	0.599672	-0.064203	6
N	3.222425	0.624153	-0.151203	7
H	-1.634685	-1.996987	-0.292323	1
H	-1.621545	-0.484997	-1.209263	1
H	-1.913215	-0.476597	0.551447	1
H	0.581695	-1.362777	-0.763913	1
H	0.223695	1.037483	-0.935913	1
Es	-0.339661	1.966985	2.019831	99
Es	0.581206	0.554407	-0.016153	99
Es	0.356579	0.892470	-0.607613	99
Es	-0.471863	2.164592	2.295444	99
Es	0.024726	1.913562	1.510516	99
Es	-1.528594	-0.618949	-0.912259	99
Es	0.314570	-0.196365	-0.028873	99
Es	-1.340168	-0.943281	-0.255579	99
Es	3.584611	0.632257	-0.178912	99
Es	0.096861	-0.854724	-0.022803	99
Es	2.673203	0.916988	-0.059025	99
Es	1.356434	0.581667	-0.018564	99
Es	3.221983	0.624139	-0.151172	99
Es	2.709249	0.414615	0.123598	99
Es	0.180391	-0.992741	0.282919	99
Es	2.663599	0.505426	-0.402938	99
Es	0.081634	1.336516	1.139013	99
Es	-0.431778	1.633693	1.501171	99
Es	-0.026422	1.474585	1.814817	99
Es	-1.528575	-1.653838	-0.285028	99
Es	2.061796	0.599665	-0.064192	99
Es	-0.516473	-0.859184	-0.145127	99
Es	-1.716486	-0.618039	0.286787	99
Es	0.332233	0.957150	0.598330	99
Es	0.380427	-1.128330	-0.486094	99
