44
Properties=species:S:1:pos:R:3:Z:I:1 energy=-304.0785988278846 field_type=dipole dipole="0.000000 0.000000 0.000000" charge=0
C	-2.419239	-0.403414	0.446569	6
N	-0.955349	-0.527893	0.470399	7
C	-0.612509	-1.958713	0.501399	6
N	-0.331709	0.191466	-0.503861	7
C	0.799371	0.689847	-0.117031	6
C	1.631651	1.496616	-1.031921	6
C	2.803851	1.990706	-0.620461	6
H	-2.706569	0.652766	0.497399	1
H	-2.870899	-0.898293	1.313389	1
H	-2.846879	-0.828744	-0.468401	1
H	-1.069889	-2.453084	1.365529	1
H	0.471051	-2.088824	0.599049	1
H	-0.934909	-2.469913	-0.412691	1
H	1.194951	0.539766	0.904809	1
H	1.247261	1.660766	-2.031770	1
H	3.185201	1.823457	0.381899	1
H	3.414621	2.583486	-1.294311	1
Es	3.062547	1.877728	0.056926	99
Es	1.213749	1.091059	-0.579649	99
Es	1.374120	1.606959	-1.701402	99
Es	-0.849996	-0.396675	0.781048	99
Es	-0.800753	-1.142694	0.439701	99
Es	0.799441	0.689854	-0.117077	99
Es	2.345937	1.461934	-0.914282	99
Es	-0.331458	0.191375	-0.503311	99
Es	-0.838376	-2.311393	-0.127526	99
Es	1.074923	0.588922	0.571055	99
Es	1.631551	1.496554	-1.031900	99
Es	0.295304	0.164037	-0.423076	99
Es	2.803945	1.990740	-0.620430	99
Es	-0.642642	-0.186718	-0.026420	99
Es	-0.495225	0.240720	-0.844912	99
Es	-1.592078	-0.487337	0.416435	99
Es	-2.419110	-0.403432	0.446585	99
Es	2.051634	1.993703	-0.712535	99
Es	3.222813	2.392330	-1.068775	99
Es	-2.716235	-0.750023	1.037058	99
Es	0.042667	0.645525	-0.240780	99
Es	-2.714576	-0.702152	-0.182059	99
Es	-0.612540	-1.958575	0.501406	99
Es	-2.613763	0.315184	0.479365	99
Es	-0.955584	-0.528182	0.469707	99
Es	0.127922	-2.044321	0.565089	99
Es	-0.933514	-2.286751	1.087785	99
