39
Properties=species:S:1:pos:R:3:Z:I:1 energy=-285.722958812371 field_type=dipole dipole="0.000000 0.000000 0.000000" charge=0
N	-0.114710	0.026186	-1.351153	7
C	-0.037700	-1.090344	-0.361243	6
C	1.202950	-0.652554	0.389937	6
C	1.168340	0.695256	0.419137	6
C	-0.093380	1.101846	-0.313273	6
C	-1.293850	0.631796	0.477417	6
C	-1.259310	-0.716904	0.448137	6
H	0.747750	0.060276	-1.888443	1
H	-0.024790	-2.074394	-0.828613	1
H	1.914490	-1.301054	0.872807	1
H	1.846510	1.357646	0.930427	1
H	-0.131410	2.104776	-0.737673	1
H	-1.996270	1.258276	1.000057	1
H	-1.928620	-1.400804	0.942477	1
Es	-0.114236	0.026191	-1.350825	99
Es	-1.293808	0.631910	0.477391	99
Es	-1.703528	-1.188900	0.776919	99
Es	-0.085565	0.513269	-0.906616	99
Es	-1.129848	-0.044888	0.742968	99
Es	-0.115912	1.790985	-0.594357	99
Es	1.410462	0.033129	0.127441	99
Es	-0.037698	-1.090221	-0.361280	99
Es	-0.424366	0.022727	-1.565707	99
Es	-0.060270	-0.476945	-0.928000	99
Es	-1.499852	-0.042801	0.212529	99
Es	-1.259262	-0.717012	0.448108	99
Es	0.424073	0.046671	-1.662373	99
Es	-1.760962	1.065679	0.825826	99
Es	1.202922	-0.652659	0.389918	99
Es	-0.649761	-0.959175	0.062067	99
Es	1.168304	0.695365	0.419126	99
Es	1.679207	-1.099866	0.711232	99
Es	-0.093373	1.101726	-0.313316	99
Es	0.550288	0.955158	0.077143	99
Es	-0.025306	-1.766807	-0.671888	99
Es	1.059313	0.012242	0.675959	99
Es	1.621660	1.151939	0.760034	99
Es	0.598443	-0.928374	0.036110	99
Es	-0.697602	0.921353	0.103114	99
