45
Properties=species:S:1:pos:R:3:Z:I:1 energy=-288.0923953542266 field_type=dipole dipole="0.000000 0.000000 0.000000" charge=0
N	-2.505861	-0.158257	0.087877	7
C	-1.114021	-0.054507	-0.332313	6
C	-0.385061	0.954933	0.578347	6
C	0.710159	-0.112267	0.816047	6
C	-0.300941	-1.182407	0.328367	6
C	1.994529	-0.034287	0.060457	6
C	2.119739	0.519163	-1.151883	6
H	-2.995921	-0.952877	-0.321493	1
H	-3.064051	0.663093	-0.142753	1
H	-0.953161	0.074023	-1.406433	1
H	-0.912171	1.226433	1.502807	1
H	-0.076391	1.885683	0.092487	1
H	0.940279	-0.222977	1.884567	1
H	0.086599	-1.937047	-0.363813	1
H	-0.792581	-1.706507	1.158036	1
H	2.868829	-0.465127	0.542957	1
H	1.291759	0.964513	-1.689403	1
H	3.088259	0.538423	-1.643853	1
Es	-0.798881	0.519665	0.091804	99
Es	2.583149	-0.332200	0.393146	99
Es	1.992797	-0.035801	-0.701800	99
Es	-0.996417	0.035518	-1.071526	99
Es	-0.169153	1.593389	0.242550	99
Es	-1.927660	-0.108983	-0.145460	99
Es	-0.385031	0.954882	0.578325	99
Es	2.773720	0.534828	-1.493923	99
Es	1.349963	-0.063978	0.424765	99
Es	2.127166	0.538599	-0.422458	99
Es	-0.747771	1.125504	1.202191	99
Es	-0.031266	-1.701051	-0.146174	99
Es	2.119745	0.519202	-1.151984	99
Es	0.226227	0.487121	0.717032	99
Es	0.877102	-0.188407	1.549494	99
Es	0.278231	-0.707266	0.582108	99
Es	1.556499	0.822596	-1.518008	99
Es	-0.300908	-1.182357	0.328363	99
Es	1.994499	-0.034333	0.060560	99
Es	-0.749783	-0.681204	-0.046881	99
Es	-2.505909	-0.158202	0.087290	99
Es	-1.114142	-0.054520	-0.332234	99
Es	-0.642578	-1.526417	0.890980	99
Es	-2.832592	0.341841	-0.080943	99
Es	0.710141	-0.112267	0.816000	99
Es	-2.791657	-0.634251	-0.188438	99
Es	-2.508325	-0.196452	0.431263	99
