42
Properties=species:S:1:pos:R:3:Z:I:1 energy=-286.8890621580493 field_type=dipole dipole="0.000000 0.000000 0.000000" charge=0
N	-1.967820	0.489302	-0.353461	7
C	-0.514080	0.482712	-0.495311	6
C	0.087390	1.520172	0.478019	6
C	1.155070	0.455122	0.818149	6
C	0.106690	-0.620198	0.414269	6
C	0.635880	-1.780848	-0.274421	6
C	1.073040	-2.745078	-0.838901	6
H	-2.417250	-0.312738	-0.795641	1
H	-2.412160	1.313682	-0.756091	1
H	-0.137360	0.537402	-1.522291	1
H	-0.536670	1.791392	1.338869	1
H	0.469380	2.435762	0.018189	1
H	2.041440	0.505012	0.173519	1
H	1.479320	0.433802	1.862289	1
H	-0.524980	-0.901698	1.269769	1
H	1.462110	-3.603798	-1.336961	1
Es	0.087429	1.520115	0.477996	99
Es	1.327717	-3.305465	-1.165525	99
Es	0.526078	-2.399434	-0.615589	99
Es	0.378701	-1.234103	0.057871	99
Es	-0.314530	-0.812001	0.974525	99
Es	1.154992	0.455101	0.818121	99
Es	1.042842	-2.362716	-0.269699	99
Es	1.747628	0.484931	0.368987	99
Es	-2.038518	0.480863	-0.015120	99
Es	-1.350167	0.484414	-0.469586	99
Es	-0.514207	0.482686	-0.495234	99
Es	0.348456	2.153268	0.161309	99
Es	-1.967732	0.489307	-0.354000	99
Es	0.684522	-0.174268	0.637392	99
Es	1.010733	-2.058022	-0.813920	99
Es	-0.235749	-0.159588	-0.088361	99
Es	0.106774	-0.620246	0.414182	99
Es	0.635794	-1.780656	-0.274315	99
Es	0.672363	1.051656	0.689044	99
Es	-2.217118	0.986877	-0.621922	99
Es	-0.255435	1.068411	-0.047355	99
Es	-2.223586	0.007354	-0.645540	99
Es	-0.245881	0.515465	-1.192440	99
Es	1.073136	-2.745275	-0.839023	99
Es	1.379775	0.435916	1.533966	99
Es	-0.341668	1.690052	1.057534	99
