44
Properties=species:S:1:pos:R:3:Z:I:1 energy=-304.1250516542169 field_type=dipole dipole="0.000000 0.000000 0.000000" charge=0
N	-1.926395	0.415539	-0.604227	7
C	-0.472945	0.396899	-0.568937	6
C	0.140435	1.493119	0.314663	6
N	1.513664	1.030869	0.596753	7
C	1.359125	-0.421031	0.811453	6
C	0.128865	-0.830741	0.050733	6
C	-0.352475	-2.082931	0.018993	6
H	-2.249455	-0.275441	-1.278767	1
H	-2.245235	1.319549	-0.946237	1
H	-0.082695	0.501819	-1.590017	1
H	-0.404585	1.609979	1.260243	1
H	0.149105	2.465289	-0.188547	1
H	2.076215	1.158239	-0.244307	1
H	2.250605	-0.948481	0.459403	1
H	1.229325	-0.613471	1.881593	1
H	-1.266405	-2.327611	-0.510637	1
H	0.152855	-2.891591	0.537843	1
Es	-0.195611	0.954670	-0.136252	99
Es	-0.010781	-2.634575	0.369244	99
Es	0.146750	2.159024	-0.035776	99
Es	1.260024	-0.560281	1.533470	99
Es	1.834442	1.094154	0.068914	99
Es	-1.293015	0.408157	-0.611788	99
Es	1.359112	-0.420906	0.811400	99
Es	-2.060766	0.355220	-0.286753	99
Es	-1.926157	0.415661	-0.604775	99
Es	-0.235192	1.561441	0.955763	99
Es	1.668105	1.200498	0.869480	99
Es	-2.108196	0.005481	-1.026386	99
Es	-0.352502	-2.083015	0.018981	99
Es	0.128924	-0.830621	0.050729	99
Es	-0.297008	-1.419520	0.295923	99
Es	1.513394	1.030571	0.596264	99
Es	0.140557	1.493065	0.314654	99
Es	0.916371	1.231567	0.458211	99
Es	-0.972001	-2.253966	-0.343550	99
Es	1.961969	-0.782401	0.568878	99
Es	-0.193972	-0.240273	-0.270755	99
Es	-0.188692	0.463166	-1.265911	99
Es	-2.100591	0.961583	-0.832006	99
Es	1.445490	0.394929	0.677363	99
Es	0.057318	-1.541849	-0.247118	99
Es	-0.473069	0.396872	-0.568916	99
Es	0.745349	-0.645382	0.423752	99
