38
Properties=species:S:1:pos:R:3:Z:I:1 energy=-301.7972685172118 field_type=dipole dipole="0.000000 0.000000 0.000000" charge=0
N	-3.462158	-0.051209	0.089938	7
C	-2.311148	-0.051209	0.089938	6
C	-0.905148	-0.051209	0.089938	6
C	-0.128548	-1.135519	0.031158	6
C	1.304242	-0.746849	0.032298	6
N	1.322262	0.725571	-0.051412	7
C	-0.073907	1.178271	0.134848	6
H	-0.472668	-2.159569	-0.005202	1
H	1.793452	-1.076339	0.954108	1
H	1.831762	-1.184119	-0.821252	1
H	1.618722	0.986131	-0.992072	1
H	-0.348318	1.884951	-0.655772	1
H	-0.168548	1.681101	1.103488	1
Es	-3.831222	-0.051403	0.089427	99
Es	1.304187	-0.746734	0.032279	99
Es	1.654291	-1.045761	-0.548191	99
Es	-2.927353	0.063295	0.373653	99
Es	0.703067	0.909906	0.015260	99
Es	-2.931678	-0.357080	0.047206	99
Es	-0.590046	-0.560416	-0.260307	99
Es	-1.641213	-0.041632	0.094267	99
Es	-0.263956	1.652297	-0.403737	99
Es	-3.461687	-0.051197	0.089933	99
Es	-0.581516	-0.587797	0.378048	99
Es	-0.151912	1.510149	0.792972	99
Es	1.480299	0.868152	-0.629120	99
Es	1.536554	0.867796	0.183949	99
Es	-0.350314	-1.824645	0.007648	99
Es	1.302618	0.079102	-0.027922	99
Es	0.580915	-0.974714	0.028004	99
Es	-0.905350	-0.051119	0.089949	99
Es	-2.310788	-0.051195	0.089942	99
Es	1.321854	0.725301	-0.051854	99
Es	-0.073821	1.178165	0.134816	99
Es	-0.544870	0.566425	0.110000	99
Es	1.620105	-0.980601	0.657693	99
Es	-0.128499	-1.135584	0.031161	99
Es	-2.928698	0.137619	-0.152417	99
