47
Properties=species:S:1:pos:R:3:Z:I:1 energy=-305.286200939358 field_type=dipole dipole="0.000000 0.000000 0.000000" charge=0
N	-0.874797	-2.130314	-1.467269	7
C	-0.690257	-1.653794	-0.101079	6
C	0.156103	-0.389404	-0.091279	6
C	-0.497837	0.911206	-0.635619	6
C	0.091173	1.676436	0.565481	6
N	1.401263	2.217896	0.202771	7
C	0.275513	0.324326	1.282571	6
H	-1.437387	-2.980144	-1.455099	1
H	0.026593	-2.394504	-1.862989	1
H	-0.202447	-2.436203	0.490721	1
H	-1.672717	-1.467594	0.346431	1
H	1.146373	-0.572544	-0.534309	1
H	-1.595147	0.891966	-0.626569	1
H	-0.174757	1.221287	-1.634679	1
H	-0.574677	2.393527	1.051541	1
H	2.004773	1.586316	-0.321409	1
H	1.948013	2.539056	0.999811	1
H	1.217043	0.164836	1.817921	1
H	-0.546827	0.097646	1.973051	1
Es	0.926022	0.221101	1.652703	99
Es	0.242208	-0.109139	0.636936	99
Es	-1.027939	-1.884323	-1.669649	99
Es	-0.783747	-1.948017	-0.871645	99
Es	1.356750	2.493372	-0.002098	99
Es	-0.272680	1.128416	-1.314364	99
Es	0.836891	-0.516191	-0.398798	99
Es	-0.497816	0.911180	-0.635567	99
Es	-0.874530	-2.130727	-1.466936	99
Es	-0.321709	-2.302194	-1.686679	99
Es	-0.355853	2.178814	0.903286	99
Es	0.193117	1.027592	1.011404	99
Es	1.750773	1.804560	-0.089134	99
Es	-0.193211	0.217392	-0.438522	99
Es	-1.202615	-2.654614	-1.444581	99
Es	0.156088	-0.389373	-0.091250	99
Es	-0.690262	-1.653836	-0.101218	99
Es	0.091320	1.676439	0.565432	99
Es	-0.267292	-1.025262	-0.099436	99
Es	-0.297201	0.161537	1.746820	99
Es	-0.228809	1.368535	-0.070470	99
Es	-1.364938	-1.522081	0.206260	99
Es	-1.245366	0.890306	-0.615179	99
Es	1.401332	2.217496	0.203077	99
Es	0.855378	1.962457	0.378115	99
Es	1.724997	2.382622	0.703264	99
Es	-0.347306	-2.192115	0.318775	99
Es	0.275494	0.324298	1.282536	99
