47
Properties=species:S:1:pos:R:3:Z:I:1 energy=-305.284737292046 field_type=dipole dipole="0.000000 0.000000 0.000000" charge=0
N	-3.091966	0.451841	-0.117941	7
C	-1.745376	0.178061	-0.604661	6
C	-0.832996	-0.250859	0.544049	6
C	0.556114	-0.573499	0.009229	6
C	1.455314	0.609551	-0.423411	6
C	2.576643	-0.169739	0.282979	6
N	1.532173	-0.818599	1.106269	7
H	-3.662606	0.814421	-0.880301	1
H	-3.058696	1.185421	0.589279	1
H	-1.346496	1.074211	-1.092541	1
H	-1.792676	-0.610999	-1.363191	1
H	-1.252406	-1.138459	1.035299	1
H	-0.785236	0.544161	1.299839	1
H	0.540664	-1.390259	-0.726421	1
H	1.215374	1.569811	0.048549	1
H	1.576243	0.755481	-1.499501	1
H	3.120564	-0.864119	-0.368121	1
H	3.294724	0.434521	0.843179	1
H	1.700644	-1.800949	1.317419	1
Es	2.080168	0.278778	-0.113654	99
Es	2.038966	-0.584544	0.776402	99
Es	3.078837	0.242176	0.667588	99
Es	-3.056456	0.910798	0.295372	99
Es	0.937178	0.057654	-0.268432	99
Es	-1.115320	-0.859668	0.874056	99
Es	1.537479	0.712844	-1.164412	99
Es	-0.147694	-0.410082	0.269616	99
Es	1.455325	0.609498	-0.423392	99
Es	-1.745494	0.178083	-0.604596	99
Es	1.287754	1.256885	-0.094830	99
Es	2.945441	-0.651153	-0.172444	99
Es	-3.422902	0.687401	-0.585549	99
Es	-3.091740	0.452318	-0.118168	99
Es	-1.291847	-0.035300	-0.031555	99
Es	-3.240609	0.162014	0.019381	99
Es	1.449491	-0.617841	1.390364	99
Es	-0.833002	-0.250853	0.543997	99
Es	1.639141	-1.423477	1.215534	99
Es	-0.799520	0.299990	1.052483	99
Es	-1.776537	-0.365323	-1.126877	99
Es	0.556212	-0.573495	0.009334	99
Es	-1.457249	0.798687	-0.942933	99
Es	1.532319	-0.818906	1.105750	99
Es	0.545023	-1.134916	-0.503244	99
Es	1.085898	-0.778433	0.643168	99
Es	-2.507460	0.359028	-0.336228	99
Es	2.576520	-0.169794	0.283036	99
