41
Properties=species:S:1:pos:R:3:Z:I:1 energy=-302.88570070078134 field_type=dipole dipole="0.000000 0.000000 0.000000" charge=0
N	-1.930526	-2.351457	0.320111	7
C	-0.476776	-2.329387	0.264971	6
C	0.005244	-0.968217	0.264971	6
C	0.402524	0.153682	0.264971	6
C	1.003434	1.451692	0.325691	6
C	0.961444	2.338372	-0.890629	6
N	0.147944	2.633632	0.281211	7
H	-2.256986	-3.304317	0.179971	1
H	-2.298076	-1.800977	-0.454629	1
H	-0.141256	-2.850427	-0.638069	1
H	-0.078656	-2.878287	1.124341	1
H	1.880494	1.530313	0.961501	1
H	0.420534	2.003732	-1.766589	1
H	1.803994	2.990433	-1.080659	1
H	0.556664	3.381213	0.842831	1
Es	1.123200	1.739995	-0.375761	99
Es	0.005146	-0.968457	0.264950	99
Es	-2.136524	-2.033996	-0.163100	99
Es	-1.930334	-2.351666	0.319593	99
Es	-0.228598	-1.622914	0.263232	99
Es	1.537628	2.781023	-1.017288	99
Es	-0.201905	-2.686881	0.843976	99
Es	0.489720	2.077556	0.435320	99
Es	0.148596	2.633609	0.281173	99
Es	0.961352	2.338371	-0.890395	99
Es	1.003248	1.451815	0.325620	99
Es	1.591014	1.496481	0.754981	99
Es	-0.476877	-2.329272	0.264970	99
Es	0.417543	3.074574	0.611253	99
Es	-0.234390	-2.669971	-0.351966	99
Es	0.675838	0.791672	0.295609	99
Es	-1.287050	-2.342824	0.274170	99
Es	0.467852	2.633484	-0.287027	99
Es	-0.013769	-0.315756	-0.022428	99
Es	0.598144	2.111845	-1.483026	99
Es	0.402617	0.153944	0.264960	99
Es	0.537028	-0.526218	0.197898	99
Es	-2.110758	-2.932555	0.216257	99
Es	0.088704	-0.364836	0.599130	99
Es	-0.202657	2.593479	0.264596	99
Es	-2.048534	-2.226456	0.624240	99
