45
Properties=species:S:1:pos:R:3:Z:I:1 energy=-288.1142354881005 field_type=dipole dipole="0.000000 0.000000 0.000000" charge=0
N	-1.358872	-0.250946	1.804792	7
C	-0.328002	-0.004846	0.791752	6
C	-0.719501	-0.695706	-0.536138	6
C	0.352458	-0.613536	-1.593878	6
C	0.970438	-1.676076	-2.127228	6
C	-0.194192	1.487324	0.645492	6
C	0.931898	2.176014	0.874432	6
H	-1.047092	0.156584	2.685942	1
H	-1.429892	-1.253406	1.970192	1
H	0.613628	-0.437666	1.153362	1
H	-1.636162	-0.247916	-0.942008	1
H	-0.954292	-1.750386	-0.336758	1
H	0.617578	0.381364	-1.946538	1
H	0.735838	-2.689726	-1.819528	1
H	1.728248	-1.547726	-2.894458	1
H	-1.086092	2.026994	0.331882	1
H	1.847758	1.685344	1.188752	1
H	0.956248	3.254304	0.749942	1
Es	1.485748	-1.597447	-2.648709	99
Es	0.900712	-1.140964	-1.633634	99
Es	0.970487	-1.676163	-2.127270	99
Es	-0.872300	-1.416605	-0.392447	99
Es	-0.719444	-0.695684	-0.536140	99
Es	-0.328135	-0.004839	0.791797	99
Es	0.437747	-1.176230	-2.093976	99
Es	1.555971	1.847338	1.088392	99
Es	-1.151011	-0.015058	2.334298	99
Es	-0.173059	-0.652735	-1.059205	99
Es	0.467377	1.798031	0.451842	99
Es	-1.331880	-0.385334	-0.812823	99
Es	-1.379946	-0.860616	1.904422	99
Es	0.525830	0.063418	-1.826648	99
Es	-1.358355	-0.251167	1.804949	99
Es	-0.802156	1.843501	0.430359	99
Es	-0.517397	-0.338149	0.114093	99
Es	0.814137	-2.367686	-1.919695	99
Es	-0.194267	1.487257	0.645477	99
Es	-1.672884	-0.115814	1.706393	99
Es	0.352381	-0.613456	-1.593809	99
Es	0.292664	1.871737	1.078784	99
Es	-0.255232	0.748772	0.710400	99
Es	0.931985	2.176067	0.874451	99
Es	0.956443	2.907490	0.792287	99
Es	0.329150	-0.297809	1.031448	99
Es	-0.898752	-0.154479	1.374382	99
