46
Properties=species:S:1:pos:R:3:Z:I:1 energy=-272.086500309737 field_type=dipole dipole="0.000000 0.000000 0.000000" charge=0
C	-1.244108	0.004744	-1.081664	6
C	0.181342	-0.004326	-0.572934	6
C	1.181712	-0.769016	-1.424094	6
C	1.194912	0.729944	-1.435564	6
C	0.370592	0.005314	0.967666	6
C	-0.520568	0.765834	1.919386	6
C	-0.527388	-0.734886	1.928856	6
H	-1.287048	-0.004046	-2.176834	1
H	-1.770658	0.902394	-0.743404	1
H	-1.787458	-0.877016	-0.728464	1
H	0.826742	-1.282046	-2.311044	1
H	1.995802	-1.280856	-0.923794	1
H	2.018012	1.234744	-0.942784	1
H	0.849212	1.235904	-2.329994	1
H	1.424512	0.002254	1.259176	1
H	-1.393008	1.275964	1.531726	1
H	-0.048218	1.278354	2.750316	1
H	-0.059888	-1.241296	2.766176	1
H	-1.404498	-1.241966	1.547266	1
Es	-1.263335	-0.001351	-1.827410	99
Es	-1.613949	-0.596041	-0.836831	99
Es	-1.121952	-1.074531	1.664530	99
Es	1.089286	0.003159	1.164671	99
Es	-0.527321	-0.734740	1.928783	99
Es	1.736156	-1.112655	-1.080491	99
Es	-1.112060	1.107461	1.651148	99
Es	1.194852	0.729792	-1.435511	99
Es	1.329206	-0.021567	-1.551778	99
Es	0.953157	1.071157	-2.042799	99
Es	-0.531842	0.000208	-0.828454	99
Es	-0.196257	1.110945	2.483641	99
Es	-0.520509	0.765677	1.919322	99
Es	-0.019027	0.558275	1.366889	99
Es	1.755380	1.068969	-1.097007	99
Es	0.370449	0.005310	0.967733	99
Es	-0.650383	0.016959	2.063761	99
Es	0.615181	-0.560805	-0.935673	99
Es	0.181455	-0.004325	-0.572993	99
Es	-0.206305	-1.075946	2.497475	99
Es	0.624873	0.538790	-0.944042	99
Es	0.933793	-1.115042	-2.026255	99
Es	-1.244086	0.004744	-1.081653	99
Es	-0.024311	-0.538651	1.374354	99
Es	0.262300	0.000665	0.201381	99
Es	-1.602573	0.616372	-0.847033	99
Es	1.181658	-0.768862	-1.424046	99
