45
Properties=species:S:1:pos:R:3:Z:I:1 energy=-288.1226783671917 field_type=dipole dipole="0.000000 0.000000 0.000000" charge=0
N	-3.334553	-0.871112	0.222982	7
C	-1.892693	-1.007182	0.420562	6
C	-1.201213	0.360708	0.400802	6
C	0.283037	0.230138	0.610112	6
C	1.199097	0.599528	-0.297458	6
C	2.618097	0.473708	-0.070198	6
C	3.535477	0.848668	-0.969058	6
H	-3.756913	-1.798432	0.192462	1
H	-3.515363	-0.447682	-0.686698	1
H	-1.482053	-1.651112	-0.365648	1
H	-1.714803	-1.505552	1.380472	1
H	-1.607513	0.995548	1.197552	1
H	-1.412513	0.868678	-0.548238	1
H	0.596716	-0.178412	1.568982	1
H	0.879157	1.015448	-1.251008	1
H	2.948057	0.056118	0.878932	1
H	3.264177	1.272918	-1.930458	1
H	4.593807	0.738028	-0.754098	1
Es	3.535552	0.848702	-0.969130	99
Es	-1.768414	-1.347739	1.080168	99
Es	-3.334306	-0.871431	0.222556	99
Es	0.492085	-0.051294	1.263793	99
Es	-3.574813	-1.439454	0.189809	99
Es	2.831708	0.188860	0.577233	99
Es	-3.482989	-0.674848	0.477739	99
Es	-1.536229	-0.318086	0.411036	99
Es	3.353051	1.136995	-1.623086	99
Es	2.618014	0.473679	-0.070131	99
Es	0.282932	0.230110	0.610187	99
Es	-1.467569	0.785706	0.942760	99
Es	0.987614	0.883071	-0.948093	99
Es	-0.454321	0.289763	0.500520	99
Es	-1.343436	0.701679	-0.253793	99
Es	0.766542	0.117425	0.018765	99
Es	-3.427099	-0.629899	-0.339299	99
Es	-2.708585	-0.940277	0.287444	99
Es	3.071070	0.957986	-0.397850	99
Es	1.909517	0.535898	-0.183279	99
Es	3.061019	0.369199	-0.654015	99
Es	1.199180	0.599556	-0.297521	99
Es	-1.892821	-1.007126	0.420546	99
Es	-1.598513	-1.448592	-0.123589	99
Es	0.778324	0.713522	0.275289	99
Es	-1.201165	0.360670	0.400804	99
Es	4.256201	0.776708	-0.831015	99
