42
Properties=species:S:1:pos:R:3:Z:I:1 energy=-286.91093901857414 field_type=dipole dipole="0.000000 0.000000 0.000000" charge=0
N	-2.850263	-1.065587	0.330229	7
C	-1.390363	-1.026777	0.382529	6
C	-0.871823	0.410683	0.261939	6
C	0.629647	0.460923	0.322699	6
C	1.402916	0.914463	-0.673751	6
C	2.818577	0.942793	-0.556721	6
C	4.013717	0.968483	-0.461821	6
H	-3.161553	-2.034967	0.383789	1
H	-3.169613	-0.715407	-0.572381	1
H	-0.985523	-1.645627	-0.426661	1
H	-1.060463	-1.467447	1.330219	1
H	-1.271303	1.020893	1.081459	1
H	-1.234123	0.858063	-0.672371	1
H	1.088227	0.113483	1.247099	1
H	0.966256	1.274333	-1.600611	1
H	5.075686	0.991693	-0.375641	1
Es	-1.390497	-1.026727	0.382523	99
Es	1.403088	0.914492	-0.673824	99
Es	1.043381	0.996259	-0.077994	99
Es	1.076455	0.400906	-0.324621	99
Es	4.706759	0.983414	-0.405439	99
Es	-2.215947	-1.059306	0.331543	99
Es	-2.993591	-0.874498	0.591109	99
Es	-1.162022	-1.326328	1.032675	99
Es	-1.115602	0.710381	-0.381858	99
Es	-0.871763	0.410652	0.261936	99
Es	-2.850015	-1.065901	0.329786	99
Es	-3.026369	-0.866404	-0.228406	99
Es	0.931772	0.222105	0.948694	99
Es	-3.023078	-1.657631	0.346331	99
Es	2.818324	0.942789	-0.556744	99
Es	-1.100299	-1.448612	-0.178246	99
Es	1.121604	1.156840	-1.297330	99
Es	3.421487	0.600958	-0.531123	99
Es	-0.112753	0.431950	0.283990	99
Es	2.134919	0.931721	-0.619137	99
Es	-1.118024	-0.299445	0.321306	99
Es	0.629566	0.460891	0.322759	99
Es	-1.129067	0.819392	0.817493	99
Es	4.013962	0.968484	-0.461801	99
Es	3.386786	1.103271	-0.185053	99
Es	3.443714	1.158454	-0.803379	99
