44
Properties=species:S:1:pos:R:3:Z:I:1 energy=-304.0825224427119 field_type=dipole dipole="0.000000 0.000000 0.000000" charge=0
N	-1.062006	-2.074230	-0.996577	7
C	-1.639667	-1.369501	0.154043	6
C	-1.151447	0.089280	0.255203	6
N	0.312704	0.172889	0.162253	7
C	0.758314	1.559459	0.259753	6
C	2.222814	1.611429	0.164653	6
C	3.421063	1.656909	0.091473	6
H	-1.424476	-3.027061	-1.010267	1
H	-0.059797	-2.170161	-0.824317	1
H	-1.370697	-1.911620	1.068183	1
H	-2.731776	-1.380240	0.073713	1
H	-1.497277	0.507470	1.207693	1
H	-1.607677	0.671769	-0.555227	1
H	0.581404	-0.183221	-0.756177	1
H	0.444873	1.992440	1.216583	1
H	0.319374	2.162839	-0.543347	1
H	4.484273	1.691550	0.032363	1
Es	2.812470	1.991105	0.063110	99
Es	-1.061895	-2.074484	-0.996083	99
Es	2.864537	1.514014	0.461204	99
Es	2.819348	1.402567	-0.151397	99
Es	-2.388642	-1.373642	0.097903	99
Es	0.461810	-0.022909	0.419254	99
Es	0.501177	0.794653	0.186865	99
Es	-0.460459	-2.137317	-0.877405	99
Es	-1.123559	-1.902897	-1.305899	99
Es	-1.304913	-1.779809	-0.488280	99
Es	2.222551	1.611426	0.164666	99
Es	3.421300	1.656912	0.091453	99
Es	-1.639595	-1.369525	0.153918	99
Es	-1.151311	0.089246	0.255201	99
Es	0.463466	-0.023140	-0.399376	99
Es	0.758426	1.559335	0.259733	99
Es	-1.278650	-2.650463	-0.985211	99
Es	-1.468466	0.496074	-0.304329	99
Es	4.114923	1.680067	0.051807	99
Es	0.312400	0.173259	0.161795	99
Es	-1.456005	-1.737476	0.791594	99
Es	-1.385253	-0.640232	0.197993	99
Es	-0.324479	0.158647	0.187273	99
Es	1.522833	1.587884	0.206911	99
Es	-1.384170	0.377973	0.908920	99
Es	0.471988	1.973725	-0.287293	99
Es	0.556471	1.849217	0.902747	99
