44
Properties=species:S:1:pos:R:3:Z:I:1 energy=-304.15325208925776 field_type=dipole dipole="0.000000 0.000000 0.000000" charge=0
N	-0.657417	-2.843416	-0.160474	7
C	-0.959427	-1.716966	0.380306	6
N	-0.323897	-0.537576	0.162696	7
C	-0.701937	0.729804	0.761006	6
C	0.071723	1.764294	-0.050924	6
C	1.329263	1.011054	-0.452404	6
C	0.808663	-0.394666	-0.740494	6
H	-1.299587	-3.565956	0.180966	1
H	-1.800847	-1.640686	1.092036	1
H	-0.393947	0.749964	1.812236	1
H	-1.780657	0.908614	0.703586	1
H	-0.498327	2.043424	-0.945454	1
H	0.281983	2.673104	0.519436	1
H	1.836343	1.454764	-1.313264	1
H	2.033893	0.986254	0.387336	1
H	0.469353	-0.476966	-1.779314	1
H	1.584813	-1.145046	-0.557274	1
Es	1.806974	0.992367	0.126768	99
Es	-0.291973	-0.835531	0.416313	99
Es	-0.323908	-0.537593	0.162705	99
Es	-0.610136	-2.465159	0.271738	99
Es	-0.961568	-2.354104	-0.154254	99
Es	0.808523	-0.394639	-0.740365	99
Es	0.149745	-0.489389	-0.227409	99
Es	-0.508329	-0.005857	0.418529	99
Es	0.071719	1.764253	-0.050904	99
Es	-0.701887	0.729662	0.760918	99
Es	-0.329089	1.256481	0.367895	99
Es	-0.959383	-1.716771	0.380323	99
Es	1.081066	0.306640	-0.606079	99
Es	-1.053965	-3.268313	0.055802	99
Es	1.329224	1.011043	-0.452400	99
Es	-1.442678	0.844682	0.725051	99
Es	1.332577	-0.903276	-0.613446	99
Es	-0.657745	-2.843282	-0.160180	99
Es	-1.534499	-1.650324	0.869381	99
Es	0.575626	-0.447556	-1.452501	99
Es	0.710550	1.412967	-0.254821	99
Es	-0.319859	1.948807	-0.663394	99
Es	-0.491432	0.745321	1.486439	99
Es	-0.675542	-0.864008	0.044923	99
Es	-0.390033	-2.908687	-0.398133	99
Es	0.212087	2.383646	0.341858	99
Es	1.674633	1.312415	-1.041171	99
