41
Properties=species:S:1:pos:R:3:Z:I:1 energy=-302.9284703082205 field_type=dipole dipole="0.000000 0.000000 0.000000" charge=0
N	-1.889220	-1.599834	0.619376	7
N	-0.659010	-1.645014	0.057016	7
C	-0.032370	-0.506104	-0.007554	6
C	1.343040	-0.437694	-0.629504	6
C	1.591900	1.031366	-0.533374	6
C	0.599650	1.702176	0.061236	6
C	-0.534380	0.831466	0.494236	6
H	-2.209250	-2.556364	0.794866	1
H	-2.572140	-1.222564	-0.044374	1
H	1.315530	-0.783934	-1.664544	1
H	2.060770	-1.013394	-0.039794	1
H	2.494840	1.494246	-0.911854	1
H	0.602990	2.772366	0.222166	1
H	-0.644300	0.822266	1.581556	1
H	-1.468050	1.111016	0.000546	1
Es	0.013698	1.297984	0.290534	99
Es	1.323985	-0.665052	-1.322271	99
Es	0.956618	1.423257	-0.528387	99
Es	0.655815	-0.484614	-0.321094	99
Es	-1.878328	-1.404662	0.916279	99
Es	-1.889170	-1.600165	0.618811	99
Es	-0.534328	0.831437	0.494191	99
Es	0.593609	2.430361	0.174938	99
Es	-0.659272	-1.644509	0.057209	99
Es	1.591984	1.031286	-0.533427	99
Es	-0.603812	0.821954	1.215374	99
Es	-1.288851	-1.611199	0.326058	99
Es	1.243968	1.334785	0.052313	99
Es	1.504298	0.294473	-0.600129	99
Es	-0.282144	-1.184128	0.290236	99
Es	1.821406	-0.818376	-0.233019	99
Es	0.599535	1.702225	0.061288	99
Es	-0.032361	-0.506064	-0.007599	99
Es	1.342999	-0.437639	-0.629475	99
Es	-2.080115	-2.181190	0.705872	99
Es	-0.305274	0.155887	0.246631	99
Es	-0.526165	-1.104049	-0.233239	99
Es	-1.160680	1.015755	0.159486	99
Es	-2.281484	-1.373045	0.202739	99
Es	2.209540	1.339110	-0.793192	99
Es	-0.517167	-1.982054	-0.052632	99
