41
Properties=species:S:1:pos:R:3:Z:I:1 energy=-306.7515525438032 field_type=dipole dipole="0.000000 0.000000 0.000000" charge=0
C	-0.864432	0.147731	-1.032258	6
C	-0.315622	1.159581	0.030902	6
C	-0.816082	0.104761	1.075942	6
C	-0.349552	-0.924239	-0.010778	6
C	1.139388	-1.032749	-0.047198	6
C	1.788728	0.140021	-0.038138	6
O	1.131528	1.360351	0.001802	8
H	-1.951712	0.169971	-1.173558	1
H	-0.384112	0.165141	-2.015078	1
H	-0.833492	2.122561	0.062382	1
H	-0.291282	0.082551	2.035582	1
H	-1.895862	0.120171	1.267652	1
H	-0.862022	-1.888819	-0.018758	1
H	1.641968	-1.990719	-0.078248	1
H	2.862558	0.263691	-0.060248	1
Es	-0.562889	0.694675	0.630713	99
Es	-0.816052	0.104770	1.075849	99
Es	1.139313	-1.032794	-0.047204	99
Es	-0.456921	0.089695	1.733670	99
Es	-0.349544	-0.924151	-0.010776	99
Es	-0.585167	-0.480654	0.602986	99
Es	-1.604254	0.168621	-1.105987	99
Es	1.788655	0.140346	-0.038131	99
Es	1.131487	1.360137	0.001769	99
Es	1.352333	0.875043	-0.008555	99
Es	1.472403	-0.494824	0.289268	99
Es	-0.655972	1.828635	0.052348	99
Es	1.213483	1.474435	0.261819	99
Es	1.197170	1.467144	-0.262305	99
Es	-0.694952	-1.593808	-0.016598	99
Es	1.472908	-1.678086	-0.068172	99
Es	-0.315379	1.159507	0.030895	99
Es	-0.864398	0.147737	-1.032167	99
Es	1.457041	-0.480841	-0.376141	99
Es	0.396163	-0.989404	-0.029212	99
Es	2.515540	0.226555	-0.053080	99
Es	-0.590759	0.719411	-0.575599	99
Es	0.593178	1.246535	0.012479	99
Es	-0.535761	0.159760	-1.705824	99
Es	-1.551807	0.122107	1.184235	99
Es	-0.612380	-0.456104	-0.594336	99
