42
Properties=species:S:1:pos:R:3:Z:I:1 energy=-343.78143576207907 field_type=dipole dipole="0.000000 0.000000 0.000000" charge=0
C	1.773577	0.141927	-0.741818	6
C	1.766617	-0.114523	0.743362	6
C	0.488407	0.005077	-0.006968	6
O	-0.316283	1.169917	0.195432	8
C	-1.644953	0.737217	-0.127018	6
C	-1.630483	-0.764233	0.126602	6
O	-0.299263	-1.171333	-0.209398	8
H	2.056277	1.128807	-1.085648	1
H	2.069817	-0.668013	-1.395978	1
H	2.057477	-1.097453	1.091152	1
H	2.042977	0.699377	1.401592	1
H	-2.381823	1.262007	0.486732	1
H	-1.824023	0.960517	-1.184568	1
H	-2.364483	-1.300533	-0.478728	1
H	-1.793833	-0.988753	1.185252	1
Es	-1.750797	-0.910929	0.855164	99
Es	-1.662596	-0.013489	-0.000124	99
Es	-1.775758	0.882587	-0.854514	99
Es	1.048799	0.101069	-0.558455	99
Es	-0.228631	1.374385	-0.009603	99
Es	-2.131540	-1.126646	-0.286667	99
Es	1.953040	0.437588	1.181795	99
Es	-0.024093	0.712706	0.108457	99
Es	-2.148086	1.091564	0.291975	99
Es	1.973059	-0.407390	-1.177639	99
Es	-0.316372	1.169645	0.195321	99
Es	0.488264	0.005074	-0.006957	99
Es	1.947936	0.014872	0.002013	99
Es	1.773513	0.141898	-0.741651	99
Es	-1.630273	-0.764265	0.126531	99
Es	1.961788	0.808368	-0.967581	99
Es	1.960824	-0.778508	0.971689	99
Es	-0.013962	-0.710035	-0.122354	99
Es	-0.297219	-1.217804	-0.511916	99
Es	-0.299381	-1.171021	-0.209293	99
Es	1.766558	-0.114493	0.743187	99
Es	-1.644736	0.737257	-0.126947	99
Es	-0.206898	-1.373230	-0.006089	99
Es	-0.312923	1.216078	0.496233	99
Es	-0.811572	0.990606	0.068353	99
Es	1.045154	-0.083572	0.550782	99
Es	-0.795913	-1.001681	-0.076590	99
