42
Properties=species:S:1:pos:R:3:Z:I:1 energy=-343.79397954799214 field_type=dipole dipole="0.000000 0.000000 0.000000" charge=0
C	1.387186	-0.121086	-0.025347	6
C	0.472406	-1.156266	0.604843	6
O	-0.667044	-1.458186	-0.203967	8
C	-1.669634	-0.526686	-0.121247	6
C	-1.562664	0.781864	0.145183	6
O	-0.418904	1.531664	0.248273	8
C	0.642596	1.074964	-0.594137	6
H	1.970266	-0.577966	-0.833807	1
H	2.105056	0.211614	0.733533	1
H	1.031516	-2.089996	0.735043	1
H	0.157666	-0.853636	1.613153	1
H	-2.627924	-1.004876	-0.289027	1
H	-2.430564	1.413284	0.297733	1
H	1.345816	1.908394	-0.705797	1
H	0.264226	0.866914	-1.604437	1
Es	-0.667029	-1.457859	-0.203768	99
Es	1.872105	0.103342	0.496979	99
Es	0.472234	-1.156286	0.604675	99
Es	-0.795635	-1.703348	-0.089065	99
Es	-2.155110	1.199514	0.245702	99
Es	-0.042708	1.325647	-0.070791	99
Es	0.252789	-0.938954	1.288472	99
Es	1.002871	0.465793	-0.300124	99
Es	-0.505240	1.799646	0.142795	99
Es	0.642431	1.075007	-0.593962	99
Es	-0.835344	1.207142	0.188780	99
Es	0.920157	-0.625385	0.280737	99
Es	-1.562438	0.782048	0.145249	99
Es	-0.257328	-1.307505	0.104028	99
Es	0.856961	-1.792629	0.688264	99
Es	-1.669442	-0.526907	-0.121305	99
Es	1.125571	1.642202	-0.665204	99
Es	-1.615344	0.204473	-0.324359	99
Es	-1.633927	0.054695	0.347924	99
Es	-0.341300	1.484429	0.525702	99
Es	1.387159	-0.121082	-0.025346	99
Es	0.377643	0.922697	-1.279991	99
Es	-2.321222	-0.840098	-0.232326	99
Es	1.780773	-0.429655	-0.580096	99
Es	-1.023148	-1.067359	-0.153244	99
Es	-0.586523	-1.433701	-0.483956	99
Es	-0.418942	1.531364	0.248051	99
