41
Properties=species:S:1:pos:R:3:Z:I:1 energy=-306.7721170226495 field_type=dipole dipole="0.000000 0.000000 0.000000" charge=0
C	1.627321	-0.604658	0.259504	6
O	0.714141	-1.719458	0.127864	8
C	-0.187089	-0.923578	-0.677046	6
C	-1.504169	-0.646838	-0.077656	6
C	-1.513699	0.565712	0.484594	6
C	-0.208849	1.289932	0.349144	6
C	0.667281	0.341732	-0.469426	6
H	2.566961	-0.803958	-0.265076	1
H	1.835391	-0.368908	1.307974	1
H	-0.236149	-1.294368	-1.706016	1
H	-2.328939	-1.343688	-0.089786	1
H	-2.368779	0.989652	0.995654	1
H	0.223871	1.504892	1.330334	1
H	-0.360829	2.234922	-0.182716	1
H	1.073541	0.778612	-1.387346	1
Es	0.080682	1.431775	1.015850	99
Es	0.946087	0.649035	-1.093563	99
Es	0.843981	-1.939336	-0.046884	99
Es	-1.504161	-0.646934	-0.077704	99
Es	1.771923	-0.436956	0.980502	99
Es	1.078792	-1.311814	0.191687	99
Es	-0.867585	-0.826362	-0.381844	99
Es	-0.316167	1.930315	-0.011132	99
Es	2.273799	-0.734923	-0.103832	99
Es	-2.058313	-1.123586	-0.090854	99
Es	-0.874640	0.948381	0.433111	99
Es	-1.421749	-0.176613	0.474669	99
Es	-1.513688	0.565839	0.484629	99
Es	0.667276	0.341718	-0.469391	99
Es	1.202066	-0.049999	-0.083847	99
Es	-0.186964	-0.923696	-0.676912	99
Es	-1.620823	0.074056	-0.090582	99
Es	1.627162	-0.604809	0.259467	99
Es	0.580743	-1.764345	0.400265	99
Es	-2.088792	0.865241	0.834281	99
Es	0.714175	-1.719176	0.127709	99
Es	0.206580	-0.246204	-0.635403	99
Es	-0.227590	-1.180588	-1.384216	99
Es	-0.208869	1.289896	0.349131	99
Es	0.255718	0.832283	-0.048174	99
Es	0.351737	-1.441035	-0.178895	99
