39
Properties=species:S:1:pos:R:3:Z:I:1 energy=-342.599772586669 field_type=dipole dipole="0.000000 0.000000 0.000000" charge=0
C	1.598115	-0.167806	0.254197	6
O	0.822875	-1.382286	0.430377	8
C	-0.248865	-0.850196	-0.380483	6
C	-1.447995	-0.375376	0.322997	6
C	-1.369635	0.952264	0.441447	6
O	-0.246145	1.589504	-0.072363	8
C	0.513455	0.466994	-0.620213	6
H	2.546214	-0.368656	-0.253363	1
H	1.788625	0.327214	1.211167	1
H	-0.443575	-1.459766	-1.267653	1
H	-2.247135	-1.003126	0.683177	1
H	-2.076485	1.620634	0.908307	1
H	0.810555	0.650604	-1.657593	1
Es	-0.359006	1.744179	-0.297055	99
Es	-1.845660	1.406472	0.754618	99
Es	-1.369438	0.952512	0.441364	99
Es	-0.248710	-0.850237	-0.380343	99
Es	0.396363	-1.201694	0.130888	99
Es	0.960173	-1.607957	0.270993	99
Es	0.717893	0.602229	-1.324928	99
Es	-1.277421	0.210016	0.671328	99
Es	-0.867585	-0.661180	-0.012462	99
Es	0.728712	-1.399930	0.721598	99
Es	2.244157	-0.300626	-0.099621	99
Es	-1.447982	-0.375436	0.322968	99
Es	0.086652	-0.165680	-0.567671	99
Es	-0.385426	-1.268755	-0.984093	99
Es	-0.671352	1.329913	0.124430	99
Es	0.513352	0.467169	-0.620082	99
Es	1.135222	-0.930205	0.378689	99
Es	0.036834	1.163778	-0.270469	99
Es	-1.582890	0.270435	0.087229	99
Es	1.102275	0.236359	-0.186984	99
Es	0.822801	-1.381936	0.430210	99
Es	1.597969	-0.167980	0.254188	99
Es	-0.246228	1.589123	-0.072308	99
Es	-0.107812	1.694978	0.165602	99
Es	-1.984053	-0.796737	0.561853	99
Es	1.727064	0.175356	0.901242	99
