44
Properties=species:S:1:pos:R:3:Z:I:1 energy=-307.9338440250293 field_type=dipole dipole="0.000000 0.000000 0.000000" charge=0
C	-2.073936	0.058444	-0.036534	6
C	-0.577696	0.127484	-0.000274	6
C	0.305164	-0.583626	-1.098343	6
C	1.380574	-0.274526	0.002326	6
C	0.262204	-0.779146	0.981526	6
C	1.350674	1.255424	0.145496	6
O	-0.068046	1.481944	0.138206	8
H	-2.508996	0.486134	0.872546	1
H	-2.421306	-0.976776	-0.117464	1
H	-2.471766	0.611894	-0.893314	1
H	0.418574	-0.048596	-2.045783	1
H	0.094734	-1.639466	-1.301374	1
H	2.333544	-0.799106	-0.027484	1
H	0.047804	-1.853476	0.974946	1
H	0.334824	-0.430846	2.015867	1
H	1.778554	1.597574	1.091916	1
H	1.815104	1.766664	-0.702264	1
Es	0.382759	-0.214925	-1.752950	99
Es	2.044179	-0.620720	-0.016549	99
Es	0.305188	-0.583603	-1.098269	99
Es	-0.577545	0.127635	-0.000257	99
Es	-0.139830	1.627929	-0.123253	99
Es	0.894913	-0.563614	0.564876	99
Es	-0.150948	1.575718	0.419755	99
Es	1.350446	1.255410	0.145490	99
Es	0.472825	1.391536	0.140597	99
Es	1.380471	-0.274529	0.002318	99
Es	0.114817	-1.507648	0.957751	99
Es	-2.073916	0.058434	-0.036535	99
Es	-2.297509	-0.649271	-0.091899	99
Es	-2.337931	0.432328	-0.619394	99
Es	1.650324	1.487890	0.793101	99
Es	0.159731	-1.303138	-1.217042	99
Es	1.675326	1.603566	-0.434661	99
Es	0.311628	-0.539333	1.696009	99
Es	-2.363160	0.346344	0.581672	99
Es	0.262230	-0.779110	0.981459	99
Es	-0.209936	-0.231369	-0.636866	99
Es	-1.332924	0.101177	-0.017882	99
Es	-0.246578	0.962240	0.084735	99
Es	-0.234661	-0.345100	0.572960	99
Es	-0.067883	1.481641	0.138200	99
Es	1.406707	0.484293	0.074136	99
Es	0.919372	-0.451869	-0.623505	99
