45
Properties=species:S:1:pos:R:3:Z:I:1 energy=-344.96460965022413 field_type=dipole dipole="0.000000 0.000000 0.000000" charge=0
C	-1.985872	-0.453698	0.698431	6
C	-0.497812	-0.535778	0.726941	6
C	0.252468	-1.233098	-0.380029	6
C	0.359878	0.263562	-0.222959	6
O	-0.319482	1.060672	-1.213449	8
C	1.640368	0.882632	0.265351	6
O	2.420558	1.276552	-0.858739	8
H	-2.321962	0.452822	1.210631	1
H	-2.417002	-1.316108	1.216411	1
H	-2.386472	-0.441178	-0.319789	1
H	-0.134232	-0.668928	1.740661	1
H	-0.305252	-1.632938	-1.218049	1
H	1.110738	-1.838368	-0.108099	1
H	-0.858132	0.515022	-1.812129	1
H	2.231958	0.190432	0.871911	1
H	1.426898	1.773302	0.864531	1
H	1.783348	1.705092	-1.461629	1
Es	-0.237847	-0.625371	1.412939	99
Es	-0.598356	0.744975	-1.516287	99
Es	2.074286	1.506021	-1.164642	99
Es	-0.090635	1.176255	-1.385627	99
Es	1.481873	1.489728	0.682437	99
Es	-1.985840	-0.453703	0.698423	99
Es	2.029459	0.400856	0.679302	99
Es	0.834517	-1.639094	-0.193280	99
Es	-0.319457	1.060308	-1.213436	99
Es	0.985365	0.565596	0.021070	99
Es	1.640441	0.882662	0.265151	99
Es	2.505740	1.015632	-0.996193	99
Es	-2.251824	-0.446596	-0.001899	99
Es	-2.211989	0.161145	1.047272	99
Es	2.621420	1.488203	-0.759807	99
Es	-0.510135	1.244155	-1.061665	99
Es	-0.119391	0.024843	0.356674	99
Es	-0.497728	-0.535799	0.726797	99
Es	0.252418	-1.232956	-0.379947	99
Es	2.107134	1.132521	-0.434783	99
Es	0.429961	-0.494981	-0.453872	99
Es	-1.235775	-0.490386	0.689971	99
Es	-0.136975	-1.490758	-0.951012	99
Es	-0.083332	0.731080	-0.852229	99
Es	-2.273848	-1.042234	1.050284	99
Es	0.359677	0.263547	-0.223102	99
Es	2.420200	1.276635	-0.858662	99
Es	-0.185276	-1.054148	0.222689	99
