47
Properties=species:S:1:pos:R:3:Z:I:1 energy=-309.12564126012387 field_type=dipole dipole="0.000000 0.000000 0.000000" charge=0
C	-1.626881	-0.034073	1.019423	6
C	-0.137701	-0.094123	1.078213	6
C	0.690379	-0.837863	0.048413	6
C	0.077019	-1.563143	-1.100877	6
C	0.759959	0.674637	0.125733	6
C	0.223619	1.554287	-0.958957	6
O	1.961219	1.205827	0.712123	8
H	-1.991961	0.746807	1.692833	1
H	-2.048411	-0.987243	1.351203	1
H	-2.019561	0.176727	0.023403	1
H	0.186079	-0.178313	2.111523	1
H	1.550809	-1.390443	0.414483	1
H	-0.825651	-1.086503	-1.490237	1
H	-0.190481	-2.579723	-0.795967	1
H	0.798369	-1.637263	-1.921127	1
H	-0.668531	1.156237	-1.448007	1
H	0.985269	1.698337	-1.732367	1
H	-0.032141	2.537627	-0.550387	1
H	2.308599	0.638207	1.420573	1
Es	0.233539	0.453608	0.687407	99
Es	0.569427	-1.611707	-1.656783	99
Es	1.961144	1.205606	0.712230	99
Es	0.760095	0.674587	0.125894	99
Es	-0.104084	-2.254602	-0.889844	99
Es	2.173282	1.204708	0.489183	99
Es	2.122011	0.878028	1.087561	99
Es	0.223622	1.554247	-0.958926	99
Es	0.077026	-1.563130	-1.100857	99
Es	0.843309	-0.095067	-0.070704	99
Es	0.203359	-0.630420	0.622443	99
Es	-0.137630	-0.094143	1.078080	99
Es	0.099173	-0.148132	1.779952	99
Es	1.511825	0.974736	0.513561	99
Es	-1.886937	0.108505	0.337192	99
Es	-1.911420	-0.684341	1.245851	99
Es	1.875474	1.465103	0.849394	99
Es	0.483446	1.104786	-0.414252	99
Es	-0.537158	-1.231888	-1.361095	99
Es	-1.871416	0.497877	1.477702	99
Es	0.739084	1.645830	-1.479526	99
Es	-0.880933	-0.063943	1.021417	99
Es	0.690294	-0.837749	0.048472	99
Es	-0.380234	1.271410	-1.279067	99
Es	-1.626856	-0.034076	1.019421	99
Es	0.363569	-1.182088	-0.527092	99
Es	0.049083	2.215941	-0.678904	99
Es	1.282038	-1.203391	0.308648	99
