47
Properties=species:S:1:pos:R:3:Z:I:1 energy=-309.1329942156031 field_type=dipole dipole="0.000000 0.000000 0.000000" charge=0
C	-1.889546	0.088365	-0.014137	6
C	-0.370306	0.102395	-0.165207	6
C	0.035723	0.166265	-1.638797	6
C	0.338753	1.170925	0.719183	6
C	1.397274	0.108645	1.073553	6
C	0.358243	-0.975555	0.707803	6
O	0.849904	-2.150895	0.039033	8
H	-2.191396	0.066115	1.038543	1
H	-2.321006	-0.791965	-0.502087	1
H	-2.335356	0.980475	-0.466967	1
H	1.123183	0.201535	-1.764217	1
H	-0.378736	1.060005	-2.117847	1
H	-0.334356	-0.709605	-2.182767	1
H	-0.243947	1.501445	1.587823	1
H	0.718964	2.057045	0.202603	1
H	2.281054	0.125015	0.426333	1
H	1.727114	0.112095	2.116053	1
H	-0.229066	-1.280135	1.584673	1
H	1.463504	-1.832165	-0.643577	1
Es	1.176232	-1.959904	-0.325475	99
Es	-2.088439	0.073031	0.709130	99
Es	-1.142661	0.095375	-0.094722	99
Es	-2.190464	0.700484	-0.325438	99
Es	0.783813	0.186299	-1.716528	99
Es	-0.047881	-1.178551	1.304054	99
Es	-0.150303	0.127957	-0.902516	99
Es	0.338783	1.170874	0.719182	99
Es	0.597155	1.779391	0.361509	99
Es	0.920275	0.701798	0.931675	99
Es	1.020576	-2.299293	0.244349	99
Es	-0.063960	1.385034	1.313780	99
Es	1.397234	0.108663	1.073532	99
Es	0.610198	-2.278343	-0.105677	99
Es	0.942651	-0.486482	0.924965	99
Es	1.991217	0.113941	0.616598	99
Es	0.035735	0.166264	-1.638767	99
Es	-0.370300	0.102412	-0.165203	99
Es	-0.062253	0.706734	0.248389	99
Es	0.676598	-1.697603	0.274801	99
Es	0.849955	-2.150544	0.038927	99
Es	-2.181112	-0.512441	-0.349223	99
Es	-1.889547	0.088368	-0.014141	99
Es	1.628793	0.110011	1.788142	99
Es	0.358347	-0.975693	0.707666	99
Es	-0.216252	-0.428417	-2.004787	99
Es	-0.246746	0.775474	-1.955920	99
Es	-0.052980	-0.496657	0.224555	99
