41
Properties=species:S:1:pos:R:3:Z:I:1 energy=-306.82127625049895 field_type=dipole dipole="0.000000 0.000000 0.000000" charge=0
C	-2.092426	-0.045789	0.112666	6
C	-0.606256	-0.071019	0.033176	6
C	0.171484	-1.159679	-0.024314	6
C	1.629823	-0.847289	-0.099094	6
C	1.575214	0.662971	-0.080894	6
O	2.574904	1.374731	-0.133044	8
C	0.169194	1.210371	0.009366	6
H	-2.513786	-1.056309	0.108406	1
H	-2.510276	0.496731	-0.741144	1
H	-2.416246	0.450851	1.032636	1
H	-0.199576	-2.177009	-0.018744	1
H	2.165814	-1.221289	0.775486	1
H	2.069224	-1.203119	-1.033064	1
H	-0.060836	1.807891	-0.875544	1
H	0.043744	1.777961	0.934106	1
Es	1.987034	-1.088034	0.484011	99
Es	-0.076831	-1.854578	-0.020835	99
Es	2.231478	1.117347	0.137296	99
Es	2.506536	1.682914	-0.126024	99
Es	0.171582	-1.159765	-0.024321	99
Es	1.608808	-0.100935	-0.090418	99
Es	2.842488	1.208708	-0.150459	99
Es	2.574604	1.374581	-0.133028	99
Es	0.910413	-1.044597	-0.062524	99
Es	-0.233366	-0.625392	-0.325360	99
Es	0.019552	1.603879	-0.580613	99
Es	1.922777	-1.076173	-0.721541	99
Es	2.201525	1.122003	-0.366134	99
Es	-0.606331	-0.070898	0.033164	99
Es	0.169216	1.210313	0.009364	99
Es	-0.198157	-0.634792	0.333293	99
Es	-0.249951	0.592175	0.023554	99
Es	-2.092386	-0.045783	0.112664	99
Es	0.089456	1.583771	0.625308	99
Es	-1.351136	-0.061348	0.073102	99
Es	-2.362815	0.324641	-0.464719	99
Es	1.575197	0.662963	-0.080902	99
Es	0.865762	0.948348	-0.035255	99
Es	-2.374084	-0.732407	0.109710	99
Es	1.629768	-0.847251	-0.099091	99
Es	-2.299166	0.293611	0.733551	99
