37
Properties=species:S:1:pos:R:3:Z:I:1 energy=-268.5113736377575 field_type=dipole dipole="0.000000 0.000000 0.000000" charge=0
C	-1.598124	-1.872834	2.101331	6
C	-1.238474	-1.570695	0.995201	6
C	-0.799864	-1.209525	-0.359089	6
C	-0.237964	0.180335	-0.358909	6
C	1.033536	0.475296	-0.666799	6
C	1.502866	1.800645	-0.666799	6
C	1.900146	2.922545	-0.666799	6
H	-1.914304	-2.137694	3.084221	1
H	-1.648004	-1.249315	-1.051709	1
H	-0.060924	-1.935915	-0.716439	1
H	-0.930314	0.980536	-0.102769	1
H	1.737176	-0.310395	-0.926389	1
H	2.254246	3.927016	-0.665049	1
Es	-1.026416	-1.390200	0.341292	99
Es	2.131325	3.578340	-0.665927	99
Es	1.502781	1.800399	-0.666802	99
Es	1.510561	-0.041575	-0.841865	99
Es	-0.304594	-1.694189	-0.583476	99
Es	0.350902	0.382010	-0.834263	99
Es	-1.555300	-1.391121	1.597825	99
Es	1.517942	2.416315	-0.965266	99
Es	-0.799891	-1.209507	-0.358959	99
Es	-1.081029	-1.792330	1.649743	99
Es	1.280041	1.155009	-0.667328	99
Es	-0.238061	0.180253	-0.358883	99
Es	-0.517611	-0.525795	-0.348096	99
Es	-1.627306	-1.984274	1.419648	99
Es	1.900210	2.922789	-0.666804	99
Es	2.040521	2.247826	-0.678383	99
Es	-1.598194	-1.872888	2.101548	99
Es	-1.804496	-2.045441	2.741721	99
Es	-1.367255	-1.229960	-0.804728	99
Es	-1.238388	-1.570622	0.994933	99
Es	1.535432	2.416402	-0.356174	99
Es	0.514371	0.322274	-0.211825	99
Es	1.033653	0.475403	-0.666821	99
Es	-0.709926	0.710709	-0.185698	99
