47
Properties=species:S:1:pos:R:3:Z:I:1 energy=-309.16246964095984 field_type=dipole dipole="0.000000 0.000000 0.000000" charge=0
C	-2.159310	0.144153	-0.662140	6
C	-0.640270	0.137143	-0.614770	6
C	-0.068430	1.263083	0.243200	6
C	1.345810	0.791133	0.528230	6
C	1.197100	-0.709757	0.759910	6
O	2.342300	-1.409887	0.303460	8
C	-0.064000	-1.141557	0.004130	6
H	-2.530210	-0.676197	-1.284010	1
H	-2.529560	1.085353	-1.082650	1
H	-2.590130	0.030833	0.337800	1
H	-0.251790	0.238983	-1.637730	1
H	-0.629630	1.372263	1.179640	1
H	-0.081500	2.226712	-0.277580	1
H	2.005100	0.998203	-0.323870	1
H	1.775850	1.294973	1.400660	1
H	1.079330	-0.921567	1.828650	1
H	2.434710	-1.244997	-0.650160	1
H	0.138880	-1.895037	-0.765490	1
H	-0.774260	-1.583827	0.712720	1
Es	1.197272	-0.709858	0.759803	99
Es	1.642055	1.135664	1.124685	99
Es	-2.410585	0.788986	-0.950436	99
Es	2.587650	-1.276539	0.437023	99
Es	-0.367096	-0.516082	-0.309487	99
Es	2.342048	-1.409723	0.303278	99
Es	-1.408059	0.139121	-0.638245	99
Es	0.646795	1.054047	0.393656	99
Es	1.345785	0.791142	0.528223	99
Es	1.116344	-0.853112	1.493867	99
Es	-0.367584	0.208750	-1.318742	99
Es	1.906690	-1.138011	0.450835	99
Es	-0.372809	0.717275	-0.187397	99
Es	-0.080649	1.924949	-0.113024	99
Es	0.082558	-1.652442	-0.522313	99
Es	2.370571	-1.305604	-0.213345	99
Es	1.790926	0.919857	-0.066093	99
Es	1.283899	0.051652	0.646665	99
Es	-0.068411	1.263070	0.243203	99
Es	-0.064005	-1.141533	0.004130	99
Es	2.282111	-1.711658	0.333198	99
Es	-0.553950	-1.438547	0.489699	99
Es	-2.159302	0.144154	-0.662147	99
Es	-2.447117	0.066128	0.025079	99
Es	-0.455314	1.328183	0.887557	99
Es	-2.411464	-0.417943	-1.087661	99
Es	-0.640287	0.137136	-0.614750	99
Es	0.563557	-0.940530	0.371617	99
