39
Properties=species:S:1:pos:R:3:Z:I:1 energy=-342.6855894516418 field_type=dipole dipole="0.000000 0.000000 0.000000" charge=0
C	-1.773780	0.004752	0.015042	6
C	-0.291230	-0.056548	-0.002208	6
C	0.475610	-1.140418	-0.097048	6
C	1.862420	-0.678278	-0.070748	6
O	2.837460	-1.402988	-0.137928	8
O	1.880420	0.677992	0.039812	8
C	0.538760	1.162832	0.090482	6
H	-2.218320	-0.992758	-0.063498	1
H	-2.140970	0.604222	-0.823808	1
H	-2.126400	0.458362	0.946582	1
H	0.196510	-2.175198	-0.179208	1
H	0.372390	1.841842	-0.751048	1
H	0.387130	1.696182	1.033572	1
Es	0.538967	1.162717	0.090471	99
Es	0.426907	1.511978	0.725149	99
Es	-2.065547	-0.668216	-0.037920	99
Es	-2.003081	0.411006	-0.547660	99
Es	-1.027018	-0.020650	0.006700	99
Es	0.416867	1.610337	-0.477190	99
Es	2.739954	-1.691800	-0.161502	99
Es	1.880086	0.677748	0.039801	99
Es	1.996483	0.741760	-0.211821	99
Es	0.135661	-0.662727	0.262724	99
Es	-0.291318	-0.056411	-0.002198	99
Es	1.862407	-0.677995	-0.070737	99
Es	2.504525	-1.169582	0.135947	99
Es	2.502073	-1.127899	-0.365176	99
Es	2.006748	0.707401	0.294427	99
Es	0.130459	-0.611219	-0.368864	99
Es	0.094970	0.567156	0.045548	99
Es	-1.993219	0.313340	0.640342	99
Es	3.106346	-1.252291	-0.126698	99
Es	1.165695	-0.933949	-0.085936	99
Es	0.288867	-1.830903	-0.151871	99
Es	0.475698	-1.140444	-0.097049	99
Es	1.843475	0.167602	0.000593	99
Es	2.837202	-1.402776	-0.137908	99
Es	1.366713	0.840376	0.057731	99
Es	-1.773712	0.004764	0.015043	99
