45
Properties=species:S:1:pos:R:3:Z:I:1 energy=-344.97081366137644 field_type=dipole dipole="0.000000 0.000000 0.000000" charge=0
C	-1.563013	-0.397175	0.305789	6
C	-0.085503	-0.212195	-0.016721	6
C	0.211487	-0.188595	-1.517981	6
O	-0.372653	0.964045	-2.124120	8
C	0.627157	0.873845	0.810569	6
C	1.452067	-0.277245	1.375229	6
O	0.691407	-1.258055	0.633219	8
H	-1.724373	-0.513115	1.383659	1
H	-1.964263	-1.290645	-0.186241	1
H	-2.150643	0.465695	-0.025311	1
H	-0.173023	-1.083715	-2.019980	1
H	1.290517	-0.144345	-1.702211	1
H	-1.319853	0.778665	-2.245620	1
H	0.008087	1.390015	1.549709	1
H	1.203667	1.609395	0.243279	1
H	2.505997	-0.285735	1.082469	1
H	1.362937	-0.430835	2.454260	1
Es	0.874970	-1.394088	0.421520	99
Es	1.083854	0.361218	1.140600	99
Es	0.225503	0.404011	0.359445	99
Es	0.627165	0.873796	0.810571	99
Es	-0.839177	-0.300205	0.137254	99
Es	0.200326	1.220972	1.313729	99
Es	-0.254799	0.981583	-2.403117	99
Es	-0.085406	-0.212343	-0.016616	99
Es	-0.060051	-0.807993	-1.852079	99
Es	0.211364	-0.188399	-1.518059	99
Es	0.949067	-0.155004	-1.633640	99
Es	2.178093	-0.278178	1.175116	99
Es	0.691424	-1.257762	0.633223	99
Es	-1.563011	-0.397162	0.305769	99
Es	0.505833	-1.406233	0.829654	99
Es	1.393705	-0.380166	2.118678	99
Es	-0.881375	0.845593	-2.178085	99
Es	0.057434	-0.201527	-0.767816	99
Es	-0.351116	1.191647	-1.917736	99
Es	-1.830506	-1.003266	-0.036092	99
Es	-0.176563	0.517852	-1.891352	99
Es	0.997093	-0.908581	0.925022	99
Es	-1.665036	-0.469507	1.035627	99
Es	1.451931	-0.277374	1.375102	99
Es	0.387457	-0.883599	0.372962	99
Es	-0.372824	0.963743	-2.124045	99
Es	1.019072	1.371282	0.423229	99
Es	-1.956717	0.192753	0.072484	99
