42
Properties=species:S:1:pos:R:3:Z:I:1 energy=-343.8028826145461 field_type=dipole dipole="0.000000 0.000000 0.000000" charge=0
C	-2.139905	0.031783	0.331360	6
C	-0.797565	0.015433	0.276660	6
C	0.015584	-1.242387	0.252710	6
O	0.902615	-1.207707	-0.859430	8
C	1.710535	-0.038897	-0.827070	6
O	0.928915	1.144573	-0.915970	8
C	0.043475	1.252393	0.192690	6
H	-2.696245	0.964183	0.323090	1
H	-2.716866	-0.887247	0.367580	1
H	-0.614176	-2.131887	0.149060	1
H	0.592304	-1.351207	1.178780	1
H	2.343125	-0.024467	0.069680	1
H	2.371805	-0.067247	-1.698150	1
H	0.622915	1.392813	1.112890	1
H	-0.566515	2.149863	0.046120	1
Es	0.439606	1.331297	0.828350	99
Es	-2.533704	-0.589662	0.359233	99
Es	-2.139992	0.031784	0.331385	99
Es	0.015712	-1.242326	0.252543	99
Es	-2.519677	0.662410	0.329086	99
Es	-0.386186	0.629453	0.242214	99
Es	0.604554	1.154582	-0.478456	99
Es	-1.459611	0.031634	0.642105	99
Es	-0.416457	-1.843141	0.183676	99
Es	2.134348	-0.028372	-0.191042	99
Es	1.710215	-0.038893	-0.827066	99
Es	0.928900	1.144466	-0.915856	99
Es	0.043607	1.252320	0.192519	99
Es	0.410270	-1.299432	0.891589	99
Es	0.902567	-1.207402	-0.859167	99
Es	0.577869	-1.189119	-0.422473	99
Es	0.751787	1.103240	-1.159927	99
Es	-0.375232	1.858720	0.094658	99
Es	1.129274	1.373241	-0.889649	99
Es	0.726808	-1.175283	-1.105820	99
Es	1.208527	0.687984	-0.847576	99
Es	1.191811	-0.754427	-0.813041	99
Es	-0.797428	0.015432	0.276666	99
Es	-0.399954	-0.608360	0.271962	99
Es	2.158347	-0.058122	-1.419083	99
Es	-1.494312	0.016150	-0.017578	99
Es	1.098388	-1.438967	-0.821084	99
