44
Properties=species:S:1:pos:R:3:Z:I:1 energy=-307.9350394749015 field_type=dipole dipole="0.000000 0.000000 0.000000" charge=0
C	-2.262699	0.649238	0.041977	6
C	-0.803749	0.807418	-0.334493	6
O	-0.185259	1.886398	0.421727	8
C	0.967710	1.044068	0.683047	6
C	0.188801	-0.213842	0.267037	6
C	0.858860	-1.123512	-0.696583	6
C	1.872241	-1.899432	-0.295543	6
H	-2.688469	-0.239842	-0.434233	1
H	-2.842249	1.517468	-0.288573	1
H	-2.391799	0.549618	1.124967	1
H	-0.683689	0.993128	-1.410053	1
H	1.814570	1.335158	0.051837	1
H	1.264901	1.077968	1.734997	1
H	-0.223479	-0.759852	1.125817	1
H	0.511471	-1.162232	-1.725303	1
H	2.239531	-1.889703	0.726987	1
H	2.363310	-2.572042	-0.993613	1
Es	-2.651694	1.238033	-0.185912	99
Es	1.585142	-1.282774	-0.574841	99
Es	2.212520	-2.357555	-0.762092	99
Es	1.872330	-1.899490	-0.295507	99
Es	0.270455	1.593571	0.530070	99
Es	0.615757	-1.139646	-1.391840	99
Es	1.177285	1.065181	1.405229	99
Es	1.168184	-1.757422	-0.422605	99
Es	0.654385	0.345967	0.490164	99
Es	-0.717455	0.921441	-1.078323	99
Es	0.516470	-0.672636	-0.225147	99
Es	-0.088029	-0.583610	0.845844	99
Es	-2.262687	0.649228	0.041957	99
Es	0.858769	-1.123442	-0.696598	99
Es	-0.349035	0.220582	-0.070886	99
Es	-0.803671	0.807562	-0.334349	99
Es	-1.543139	0.723503	-0.147555	99
Es	-2.542873	0.041078	-0.287282	99
Es	-0.435046	1.501802	0.120249	99
Es	1.547868	1.231699	0.244882	99
Es	0.188822	-0.213816	0.266999	99
Es	-2.341509	0.576992	0.776600	99
Es	2.121860	-1.893351	0.399784	99
Es	-0.185178	1.886112	0.421654	99
Es	-0.111351	2.129697	0.239808	99
Es	0.967509	1.044164	0.683005	99
Es	-0.342883	1.899065	0.686077	99
