45
Properties=species:S:1:pos:R:3:Z:I:1 energy=-344.9726839159494 field_type=dipole dipole="0.000000 0.000000 0.000000" charge=0
C	-1.669975	0.791944	-0.698882	6
C	-0.172255	0.588234	-0.808222	6
O	0.551765	1.634574	-0.108272	8
C	1.443955	0.657384	0.481588	6
C	0.543485	-0.513006	0.029418	6
C	-0.232995	-1.148996	1.172678	6
O	1.191135	-1.564896	-0.732792	8
H	-2.205415	-0.067326	-1.113842	1
H	-1.977685	1.680154	-1.260442	1
H	-1.992015	0.928394	0.338478	1
H	0.126675	0.578104	-1.865792	1
H	2.434675	0.698794	0.017208	1
H	1.545825	0.802474	1.561158	1
H	-0.694875	-0.398306	1.822728	1
H	0.428515	-1.759596	1.796708	1
H	-1.026915	-1.799056	0.790098	1
H	1.706105	-1.108876	-1.421812	1
Es	-0.232979	-1.148958	1.172648	99
Es	-0.770551	-1.585020	0.908503	99
Es	0.551778	1.634275	-0.108258	99
Es	1.463194	-1.302880	-1.099404	99
Es	-0.172169	0.588389	-0.808093	99
Es	-1.869705	1.391803	-1.082131	99
Es	0.910667	1.285583	0.123752	99
Es	-2.024478	0.204112	-0.983092	99
Es	-1.669951	0.791928	-0.698896	99
Es	0.120585	-0.026467	-0.422730	99
Es	-1.880721	0.878890	0.005913	99
Es	1.191182	-1.564545	-0.732870	99
Es	0.956673	-1.153279	-0.461605	99
Es	1.443814	0.657533	0.481490	99
Es	0.543592	-0.513150	0.029295	99
Es	0.039388	0.568015	-1.536660	99
Es	-0.928258	0.681111	-0.747091	99
Es	0.146559	-0.826588	0.597663	99
Es	0.966454	-1.720343	-0.873837	99
Es	0.270698	1.259071	-0.390029	99
Es	1.515313	0.751651	1.222404	99
Es	1.055986	0.019780	0.298165	99
Es	2.123756	0.673895	0.155110	99
Es	-0.541029	-0.630390	1.604543	99
Es	0.364627	1.727808	0.116949	99
Es	0.703084	1.816869	-0.306527	99
Es	0.221822	-1.554769	1.589404	99
Es	1.392859	-1.693328	-0.541605	99
