45
Properties=species:S:1:pos:R:3:Z:I:1 energy=-344.9727768562772 field_type=dipole dipole="0.000000 0.000000 0.000000" charge=0
C	-2.326612	0.384197	-0.249252	6
C	-0.833942	0.224017	-0.439402	6
O	-0.095032	1.273337	0.245968	8
C	0.841638	0.290017	0.770428	6
C	2.173408	0.394127	0.048768	6
C	-0.124842	-0.859053	0.398998	6
O	0.401448	-2.015223	-0.292662	8
H	-2.863142	-0.446893	-0.717672	1
H	-2.677492	1.312397	-0.711842	1
H	-2.599992	0.411337	0.811298	1
H	-0.565632	0.211417	-1.503482	1
H	0.962318	0.408267	1.852848	1
H	2.050048	0.379697	-1.039112	1
H	2.831728	-0.436803	0.326918	1
H	2.681558	1.328077	0.314448	1
H	-0.712832	-1.190873	1.263348	1
H	0.857378	-1.668043	-1.079602	1
Es	2.078031	0.374990	-0.693396	99
Es	-0.094986	1.272987	0.245927	99
Es	2.173383	0.394110	0.048772	99
Es	-2.681750	-0.184476	-0.569820	99
Es	-0.644541	0.201683	-1.172662	99
Es	0.841512	0.290157	0.770313	99
Es	-0.124729	-0.859203	0.398851	99
Es	-1.587082	0.301278	-0.345592	99
Es	0.158254	-2.168150	-0.394080	99
Es	-0.274857	1.363424	0.479969	99
Es	0.424734	-0.347059	0.614290	99
Es	2.508579	1.024228	0.231110	99
Es	-0.833850	0.224174	-0.439280	99
Es	-2.326590	0.384184	-0.249267	99
Es	0.933608	0.371352	1.514584	99
Es	1.512116	0.326163	0.398237	99
Es	-2.503082	0.397393	0.472553	99
Es	0.401494	-2.014880	-0.292763	99
Es	0.213592	-1.564591	-0.048084	99
Es	-2.558518	1.012018	-0.565525	99
Es	2.614072	-0.170996	0.241168	99
Es	-0.526733	-1.084006	0.984731	99
Es	0.048351	1.458741	0.042253	99
Es	-0.534365	-0.382807	-0.059568	99
Es	-0.384494	0.897539	-0.030771	99
Es	0.643338	-1.809653	-0.710683	99
Es	0.614678	-2.135871	-0.109552	99
Es	0.274899	0.924305	0.453426	99
