44
Properties=species:S:1:pos:R:3:Z:I:1 energy=-307.9813943288558 field_type=dipole dipole="0.000000 0.000000 0.000000" charge=0
C	-1.704830	0.191489	-0.757399	6
C	-0.182781	0.166839	-0.715359	6
O	0.319319	0.306849	-2.034879	8
C	0.380949	-1.105971	-0.062639	6
C	0.735879	-0.717361	1.373821	6
C	0.885040	0.766389	1.291570	6
C	0.380469	1.249799	0.151351	6
H	-2.145640	0.086639	0.239101	1
H	-2.085371	-0.618061	-1.389859	1
H	-2.068250	1.126999	-1.197749	1
H	1.278880	0.449259	-1.964809	1
H	1.283219	-1.447401	-0.587659	1
H	-0.326280	-1.942521	-0.084359	1
H	1.661759	-1.202411	1.695171	1
H	-0.064941	-0.979831	2.072261	1
H	1.311589	1.370129	2.081410	1
H	0.340989	2.299169	-0.109969	1
Es	0.349305	1.958804	-0.037237	99
Es	0.836015	0.379547	-1.974755	99
Es	0.201205	0.570752	-2.147699	99
Es	0.319528	0.306855	-2.034576	99
Es	0.355693	1.056532	0.855153	99
Es	0.380956	-1.105965	-0.062594	99
Es	-1.956598	-0.362873	-1.181859	99
Es	0.190037	-0.886357	1.847970	99
Es	-1.704808	0.191488	-0.757385	99
Es	-0.182713	0.166866	-0.715555	99
Es	-0.106355	-1.676382	-0.078130	99
Es	0.151110	0.257438	-1.529031	99
Es	1.001597	-1.324632	-0.421678	99
Es	1.177972	1.168473	1.835011	99
Es	0.554007	-0.928407	0.666991	99
Es	0.277783	0.035107	-2.173134	99
Es	0.885087	0.766330	1.291675	99
Es	0.380427	1.249843	0.151265	99
Es	0.091816	0.742721	-0.291425	99
Es	-1.993111	0.116990	-0.074276	99
Es	0.088155	-0.488935	-0.391488	99
Es	-0.946307	0.180802	-0.731324	99
Es	0.940099	0.994447	0.568131	99
Es	0.735881	-0.717325	1.373800	99
Es	1.366608	-1.045869	1.596858	99
Es	0.832454	0.029595	1.366174	99
Es	-1.946130	0.831402	-1.049248	99
