44
Properties=species:S:1:pos:R:3:Z:I:1 energy=-307.96605792222783 field_type=dipole dipole="0.000000 0.000000 0.000000" charge=0
C	-1.905606	-1.851735	-0.207612	6
C	-0.567745	-1.778075	-0.198732	6
C	0.283595	-0.565805	-0.433232	6
C	-0.400925	0.795955	-0.432992	6
C	0.731804	1.704675	-0.025922	6
C	1.441795	0.858575	1.008028	6
O	1.279855	-0.508165	0.605698	8
H	-2.403476	-2.799235	-0.020762	1
H	-2.536825	-0.991355	-0.398552	1
H	-0.007416	-2.692005	-0.006972	1
H	0.827464	-0.703695	-1.376242	1
H	-1.192005	0.851995	0.324948	1
H	-0.835456	1.054105	-1.403092	1
H	1.391404	1.884685	-0.882852	1
H	0.403034	2.670875	0.365118	1
H	2.506274	1.096525	1.086528	1
H	0.984225	0.972675	1.996648	1
Es	0.151911	1.271698	-0.242838	99
Es	-0.163755	-1.166456	-0.313868	99
Es	-2.337476	-1.269108	-0.336523	99
Es	0.731796	1.704650	-0.025917	99
Es	-0.400892	0.795944	-0.432989	99
Es	-1.258147	-1.743006	0.115149	99
Es	-0.695246	0.967352	-1.096175	99
Es	0.508148	2.362257	0.244615	99
Es	1.095318	1.304961	0.495880	99
Es	1.184620	1.823596	-0.613012	99
Es	0.283699	-0.565815	-0.433051	99
Es	1.325469	0.017761	0.736220	99
Es	-0.089875	0.103968	-0.441369	99
Es	2.172061	1.024486	1.061624	99
Es	-1.905698	-1.851735	-0.207624	99
Es	1.279738	-0.507864	0.605506	99
Es	-2.249188	-2.490412	-0.083740	99
Es	0.643919	-0.662018	-1.086792	99
Es	-0.567640	-1.778047	-0.198745	99
Es	-0.937370	0.828306	0.086627	99
Es	1.441756	0.858375	1.007939	99
Es	1.161993	-0.652860	0.845844	99
Es	-0.181550	-2.391792	-0.072554	99
Es	-1.242183	-1.871341	-0.528438	99
Es	1.540855	-0.596381	0.474588	99
Es	1.122778	0.947193	1.689035	99
Es	0.894413	-0.504123	0.216743	99
