49
Properties=species:S:1:pos:R:3:Z:I:1 energy=-273.3101074664716 field_type=dipole dipole="0.000000 0.000000 0.000000" charge=0
C	-2.766281	-1.785955	-1.016484	6
C	-1.328241	-1.513566	-0.717124	6
C	-0.904031	-0.786926	0.328586	6
C	0.544209	-0.516086	0.629226	6
C	0.886169	0.985985	0.652836	6
C	2.331799	1.183695	1.115466	6
C	0.685469	1.645854	-0.714124	6
H	-3.017631	-1.405135	-2.011034	1
H	-3.436801	-1.314496	-0.291264	1
H	-2.951881	-2.864065	-1.003434	1
H	-0.604641	-1.941296	-1.407944	1
H	-1.629241	-0.364235	1.021316	1
H	1.191909	-1.031096	-0.091934	1
H	0.765069	-0.952865	1.611466	1
H	0.229859	1.489774	1.374976	1
H	3.037659	0.703065	0.429836	1
H	2.482789	0.756935	2.112406	1
H	2.581469	2.248544	1.167616	1
H	1.296629	1.160414	-1.482124	1
H	0.966699	2.703735	-0.677554	1
H	-0.360981	1.597725	-1.030714	1
Es	-0.026307	1.612292	-0.927820	99
Es	-2.885239	-2.515712	-1.007937	99
Es	-1.328307	-1.513630	-0.717221	99
Es	2.500524	1.912841	1.149104	99
Es	2.433299	0.889289	1.797761	99
Es	-2.766247	-1.785952	-1.016483	99
Es	-1.395030	-0.493015	0.804959	99
Es	0.702558	0.227134	0.633721	99
Es	0.685477	1.645850	-0.714109	99
Es	0.886199	0.985957	0.652805	99
Es	1.618861	1.082214	0.884442	99
Es	-2.050815	-1.648583	-0.863846	99
Es	0.985169	-0.864856	0.129510	99
Es	-0.903975	-0.786862	0.328678	99
Es	2.810545	0.852846	0.642964	99
Es	0.431930	1.329819	1.150615	99
Es	2.331793	1.183695	1.115464	99
Es	0.784423	1.312601	-0.040304	99
Es	-0.838449	-1.808095	-1.192591	99
Es	1.106889	1.309670	-1.235489	99
Es	-3.218058	-1.463239	-0.520341	99
Es	-2.929654	-1.527684	-1.690300	99
Es	-1.131032	-0.876785	-0.378095	99
Es	-1.101497	-1.424468	-0.008157	99
Es	0.544164	-0.516072	0.629222	99
Es	-0.184144	-0.646948	0.471331	99
Es	0.689389	-0.810710	1.300786	99
Es	0.881316	2.368733	-0.684359	99
