47
Properties=species:S:1:pos:R:3:Z:I:1 energy=-309.1568536395276 field_type=dipole dipole="0.000000 0.000000 0.000000" charge=0
C	-0.676108	-1.871852	-1.360034	6
C	-0.309708	-1.452162	0.055806	6
C	0.415391	-0.109862	0.101806	6
C	-0.400888	1.082658	-0.354584	6
C	0.361072	2.235438	0.265456	6
O	0.940912	1.744128	1.481206	8
C	0.796712	0.316918	1.510656	6
H	-1.144638	-2.860732	-1.349694	1
H	0.212961	-1.924432	-1.995564	1
H	-1.383668	-1.170922	-1.812434	1
H	0.332322	-2.223242	0.498426	1
H	-1.221918	-1.413222	0.663956	1
H	1.327002	-0.163882	-0.508504	1
H	-1.414738	1.038428	0.062766	1
H	-0.482558	1.173458	-1.441624	1
H	1.177962	2.565298	-0.384924	1
H	-0.280689	3.093828	0.482416	1
H	1.734682	-0.136762	1.843926	1
H	0.015902	0.076918	2.240946	1
Es	0.710081	1.918592	1.010535	99
Es	0.134551	-1.979189	0.359428	99
Es	0.251301	0.140084	2.008318	99
Es	0.607472	0.080995	0.811747	99
Es	-0.081499	2.825222	0.411640	99
Es	0.049420	-0.776426	0.078212	99
Es	-0.454390	1.147167	-1.096281	99
Es	-0.935629	-1.417761	0.473059	99
Es	-0.995904	-2.546712	-1.351769	99
Es	0.361143	2.235335	0.265631	99
Es	1.040934	-0.146001	-0.317520	99
Es	0.930330	1.740038	1.478699	99
Es	-1.093891	1.047637	-0.063763	99
Es	0.796735	0.317138	1.510634	99
Es	-0.011356	0.472311	-0.150309	99
Es	-0.491474	-1.656779	-0.658416	99
Es	1.440063	0.001023	1.738330	99
Es	-0.400873	1.082665	-0.354573	99
Es	0.415369	-0.109857	0.101823	99
Es	-1.157648	-1.389544	-1.666338	99
Es	-0.034239	1.669841	-0.062121	99
Es	1.092234	1.924337	1.703850	99
Es	-0.065980	-1.904722	-1.792051	99
Es	-0.676102	-1.871846	-1.360012	99
Es	0.921701	1.727338	1.462049	99
Es	0.882916	1.195280	1.477612	99
Es	-0.309696	-1.452145	0.055770	99
Es	0.921249	2.461582	-0.192932	99
