39
Properties=species:S:1:pos:R:3:Z:I:1 energy=-342.5847721200278 field_type=dipole dipole="0.000000 0.000000 0.000000" charge=0
C	-2.968953	0.094558	-0.769478	6
C	-1.778793	0.094558	-0.769478	6
C	-0.334793	0.094558	-0.769478	6
O	0.182877	1.172578	0.021322	8
C	1.394287	0.639418	0.549042	6
C	1.045147	-0.802922	0.797492	6
O	0.190107	-1.152412	-0.290788	8
H	-4.034203	0.094018	-0.764008	1
H	0.036507	0.227368	-1.792598	1
H	2.175817	0.741518	-0.213668	1
H	1.697876	1.176388	1.451162	1
H	1.919647	-1.458502	0.826662	1
H	0.474477	-0.921122	1.723812	1
Es	-2.367864	0.415851	-0.932894	99
Es	1.394084	0.639491	0.548956	99
Es	-1.086912	0.096436	-0.760128	99
Es	1.642947	-1.246034	0.815548	99
Es	-2.364439	-0.203713	-0.972275	99
Es	1.598620	1.000800	1.162340	99
Es	-0.040841	-1.310337	-0.179262	99
Es	0.246258	1.396307	-0.174357	99
Es	0.190157	-1.152079	-0.290629	99
Es	0.369872	-1.248454	-0.516741	99
Es	-0.005255	1.196766	0.260816	99
Es	0.661186	-0.875758	1.438171	99
Es	-0.007892	0.743939	-0.274666	99
Es	-2.378848	0.072146	-0.412760	99
Es	-3.663283	0.094105	-0.767206	99
Es	1.935166	0.699405	0.025499	99
Es	-2.969212	0.094558	-0.769491	99
Es	-1.778535	0.094540	-0.769507	99
Es	-0.095422	0.184185	-1.468862	99
Es	0.183009	1.172232	0.021296	99
Es	-0.334752	0.094524	-0.769207	99
Es	1.045021	-0.802960	0.797296	99
Es	0.508435	-0.998735	0.115745	99
Es	1.244950	-0.084971	0.689598	99
Es	0.641524	0.958721	0.206924	99
Es	-0.011779	-0.660153	-0.450033	99
