44
Properties=species:S:1:pos:R:3:Z:I:1 energy=-307.9274154536326 field_type=dipole dipole="0.000000 0.000000 0.000000" charge=0
C	-1.205303	-2.301432	0.445162	6
C	-0.743013	-1.546952	-0.791818	6
C	-0.503033	-0.096002	-0.491708	6
C	0.686477	0.511908	-0.626038	6
C	0.963017	1.924857	-0.352848	6
C	1.203377	2.351947	1.073722	6
O	2.252117	2.369937	0.099592	8
H	-1.388293	-3.352273	0.199992	1
H	-2.134953	-1.880602	0.842142	1
H	-0.448823	-2.264682	1.235942	1
H	-1.509543	-1.622272	-1.572088	1
H	0.162557	-2.022563	-1.186908	1
H	-1.361283	0.480808	-0.155118	1
H	1.540487	-0.069662	-0.970018	1
H	0.423737	2.612957	-0.996478	1
H	1.259327	1.599468	1.850252	1
H	0.803147	3.304557	1.396212	1
Es	-1.839985	-2.008772	0.713262	99
Es	0.026687	0.296342	-0.870953	99
Es	-0.743024	-1.546915	-0.791775	99
Es	-0.616788	-0.812498	-0.640357	99
Es	0.963310	1.924913	-0.352729	99
Es	-0.688029	-2.273609	0.981485	99
Es	0.171886	0.137102	-0.244354	99
Es	2.296188	2.659411	0.003541	99
Es	0.602905	2.390178	-0.794753	99
Es	1.203597	2.351953	1.073491	99
Es	1.247699	1.841451	1.601980	99
Es	-1.330066	-3.017020	0.274696	99
Es	1.803808	2.178049	-0.177707	99
Es	-0.121163	-1.866247	-1.058151	99
Es	1.266266	0.122952	-0.857269	99
Es	0.686571	0.511988	-0.626045	99
Es	-1.205300	-2.301416	0.445134	99
Es	-0.973826	-1.912100	-0.169894	99
Es	-0.503126	-0.096044	-0.491717	99
Es	2.432454	2.123315	0.144625	99
Es	0.851317	2.091584	0.411259	99
Es	0.841388	1.217798	-0.494631	99
Es	-1.092894	0.291275	-0.260481	99
Es	0.940633	3.005557	1.297433	99
Es	2.251810	2.369856	0.099664	99
Es	-1.266664	-1.590562	-1.319082	99
Es	1.922985	2.402018	0.546693	99
