38
Properties=species:S:1:pos:R:3:Z:I:1 energy=-305.5809029651664 field_type=dipole dipole="0.000000 0.000000 0.000000" charge=0
C	-1.334677	0.757719	-0.278326	6
C	-0.032758	0.691949	0.049334	6
C	0.843603	-0.527721	0.168444	6
C	0.147003	-1.794701	-0.113716	6
C	-0.403857	-2.838401	-0.340126	6
C	0.649583	1.983909	0.335594	6
O	1.833742	2.048749	0.642694	8
H	-1.877337	1.696439	-0.336286	1
H	-1.909727	-0.136191	-0.502896	1
H	1.258243	-0.574811	1.182964	1
H	1.689523	-0.431371	-0.523256	1
H	-0.889427	-3.766111	-0.540206	1
H	0.026093	2.890539	0.255784	1
Es	-0.721220	-3.442534	-0.470730	99
Es	0.843461	-0.527785	0.168402	99
Es	0.181901	-2.492636	-0.211683	99
Es	1.461667	2.044469	0.287458	99
Es	1.833450	2.048727	0.642620	99
Es	-0.566800	0.779548	-0.412453	99
Es	-0.337704	-2.285469	0.067223	99
Es	-0.403969	-2.838605	-0.340176	99
Es	-0.032642	0.691951	0.049358	99
Es	1.964904	1.765125	0.650786	99
Es	1.383764	-0.468595	-0.295570	99
Es	0.210410	2.596490	0.277095	99
Es	-0.253710	-2.195258	-0.544587	99
Es	0.147145	-1.794474	-0.113653	99
Es	0.382607	0.064399	0.101636	99
Es	0.306520	1.328738	0.191321	99
Es	-0.725539	0.725986	0.207407	99
Es	-1.693495	1.392613	-0.315419	99
Es	1.097986	-0.563663	0.835243	99
Es	0.467640	-1.179289	0.018845	99
Es	1.933674	2.339974	0.694457	99
Es	0.649578	1.983878	0.335591	99
Es	-1.334754	0.757736	-0.278338	99
Es	-1.723586	0.166602	-0.429062	99
Es	1.338283	2.000879	0.772192	99
