41
Properties=species:S:1:pos:R:3:Z:I:1 energy=-306.7882736082675 field_type=dipole dipole="0.000000 0.000000 0.000000" charge=0
C	-2.182737	-0.912702	0.741977	6
C	-1.419717	-0.405272	-0.235203	6
C	-0.484957	0.761268	-0.070353	6
C	0.955103	0.335528	-0.102713	6
C	1.725873	0.204878	0.989397	6
C	1.576733	0.078308	-1.427563	6
O	0.972313	0.219098	-2.484303	8
H	-2.840067	-1.754812	0.548917	1
H	-2.166357	-0.508662	1.748847	1
H	-1.471607	-0.844532	-1.231093	1
H	-0.698577	1.282218	0.872337	1
H	-0.683537	1.496868	-0.859473	1
H	1.319073	0.389548	1.979817	1
H	2.768033	-0.094392	0.939197	1
H	2.630423	-0.247342	-1.409783	1
Es	-0.484907	0.761202	-0.070353	99
Es	-1.567773	-0.867666	0.347328	99
Es	0.972440	0.219073	-2.483928	99
Es	1.264504	0.406949	-2.104467	99
Es	-2.174533	-0.639670	1.428874	99
Es	-1.447146	-0.698710	-0.906897	99
Es	-0.610285	1.244529	-0.598579	99
Es	0.676528	0.312349	-2.440248	99
Es	1.117058	-0.071872	-2.085028	99
Es	0.955061	0.335531	-0.102819	99
Es	1.259689	0.202765	-0.758799	99
Es	1.148885	0.155164	-2.734193	99
Es	1.458135	0.330027	1.659502	99
Es	2.427741	0.002502	0.953802	99
Es	1.576718	0.078319	-1.427536	99
Es	1.262647	-0.039616	0.425056	99
Es	-2.629861	-1.483294	0.619322	99
Es	-0.622096	1.103654	0.578572	99
Es	1.437624	0.573174	0.373702	99
Es	2.299967	-0.144032	-1.401034	99
Es	-2.182795	-0.912738	0.742057	99
Es	1.725929	0.204864	0.989475	99
Es	-2.047735	-0.454559	0.185370	99
Es	-0.936971	0.175097	-0.148652	99
Es	0.241288	0.536719	-0.090635	99
Es	-1.419626	-0.405190	-0.235269	99
