44
Properties=species:S:1:pos:R:3:Z:I:1 energy=-307.964218834077 field_type=dipole dipole="0.000000 0.000000 0.000000" charge=0
C	-3.281895	0.709475	0.278875	6
C	-1.925045	0.219885	0.668605	6
C	-0.836585	0.350085	-0.103965	6
C	0.466585	-0.131755	0.291315	6
C	1.564365	0.045015	-0.458905	6
C	2.924875	-0.436655	-0.077545	6
O	3.440435	-1.218265	-1.143445	8
H	-3.629325	1.457425	0.997845	1
H	-3.991925	-0.123025	0.278205	1
H	-3.289105	1.163705	-0.716805	1
H	-1.854355	-0.260935	1.641285	1
H	-0.918185	0.838655	-1.072695	1
H	0.538925	-0.652695	1.244065	1
H	1.502396	0.578045	-1.405095	1
H	2.915895	-1.047855	0.830625	1
H	3.594685	0.413115	0.082595	1
H	2.778255	-1.904215	-1.334965	1
Es	-0.836490	0.350083	-0.104015	99
Es	-1.925164	0.219890	0.668666	99
Es	3.444322	-1.033285	-1.388185	99
Es	0.946784	-0.331329	-0.238712	99
Es	1.564452	0.045022	-0.458949	99
Es	2.232377	-0.191349	-0.258498	99
Es	-3.753631	0.143429	0.282380	99
Es	3.071846	-1.580987	-1.230119	99
Es	-0.885427	0.681312	-0.764069	99
Es	2.924912	-0.436766	-0.077736	99
Es	-1.412444	-0.007476	0.138930	99
Es	-3.280024	1.016851	-0.397793	99
Es	1.525629	0.404120	-1.101892	99
Es	3.440194	-1.218306	-1.143286	99
Es	3.223490	-0.935411	-0.736786	99
Es	-3.508426	1.210907	0.768367	99
Es	-1.282964	0.565099	0.414913	99
Es	3.374256	0.143524	0.029073	99
Es	0.509921	-0.485651	0.939954	99
Es	-3.281860	0.709458	0.278892	99
Es	3.690095	-1.360718	-1.037059	99
Es	0.466493	-0.131763	0.291371	99
Es	-0.183731	0.108716	0.094331	99
Es	-1.880044	-0.107849	1.331940	99
Es	1.060378	0.234938	0.064775	99
Es	-2.602271	0.466512	0.470135	99
Es	2.904705	-0.852250	0.553432	99
