38
Properties=species:S:1:pos:R:3:Z:I:1 energy=-305.57888878214976 field_type=dipole dipole="0.000000 0.000000 0.000000" charge=0
C	-2.649640	-0.636629	0.002980	6
C	-1.156440	-0.608259	0.003580	6
C	-0.450610	0.530931	-0.002710	6
C	0.955390	0.530931	-0.002710	6
C	2.145550	0.530931	-0.002710	6
C	3.585360	0.543861	-0.002710	6
O	4.206160	1.596891	-0.002720	8
H	-3.002630	-1.672619	-0.019980	1
H	-3.050780	-0.127699	-0.878920	1
H	-3.049050	-0.167079	0.907150	1
H	-0.647070	-1.569289	0.009020	1
H	-0.958230	1.491921	-0.007550	1
H	4.071990	-0.443889	-0.002720	1
Es	-0.817296	-1.257291	0.007444	99
Es	-1.898153	-0.621163	0.003068	99
Es	3.585231	0.543846	-0.002714	99
Es	4.205908	1.596617	-0.002720	99
Es	-0.450455	0.531012	-0.002713	99
Es	-0.779419	1.176568	-0.006064	99
Es	0.275950	0.538047	-0.002482	99
Es	4.515787	1.551438	-0.002800	99
Es	1.540852	0.163489	-0.022780	99
Es	-2.904778	-0.289441	-0.587140	99
Es	1.606760	0.723200	-0.290128	99
Es	-0.734358	0.001282	-0.318182	99
Es	-2.902860	-0.316315	0.608199	99
Es	3.903983	-0.130018	-0.002750	99
Es	0.955148	0.530946	-0.002703	99
Es	3.968198	1.202719	-0.253395	99
Es	-0.734457	0.005056	0.318214	99
Es	-1.156521	-0.608333	0.003577	99
Es	4.019554	1.843632	-0.003117	99
Es	-2.649579	-0.636631	0.002980	99
Es	3.968188	1.203422	0.248514	99
Es	-2.885270	-1.339033	-0.012478	99
Es	1.617815	0.682870	0.305414	99
Es	2.145800	0.530913	-0.002705	99
Es	2.832620	0.521915	-0.003405	99
