47
Properties=species:S:1:pos:R:3:Z:I:1 energy=-309.14625913849886 field_type=dipole dipole="0.000000 0.000000 0.000000" charge=0
C	-0.267787	-1.617873	1.260355	6
C	-0.282377	-0.851483	-0.042825	6
C	-0.851877	-1.415293	-1.124585	6
C	0.376603	0.529407	-0.027805	6
C	0.448223	1.231607	-1.392775	6
C	-0.307387	1.470547	0.971035	6
O	1.728073	0.352757	0.407915	8
H	0.752393	-1.714753	1.644565	1
H	-0.665158	-2.632513	1.144715	1
H	-0.881477	-1.114563	2.013355	1
H	-1.303677	-2.402663	-1.075525	1
H	-0.898627	-0.923713	-2.090305	1
H	0.992103	0.623347	-2.125235	1
H	1.005123	2.173337	-1.315265	1
H	-0.547037	1.457687	-1.790215	1
H	-0.219247	1.103877	1.999755	1
H	-1.368717	1.606007	0.736975	1
H	0.173533	2.456197	0.968725	1
H	2.117322	-0.331913	-0.162865	1
Es	1.219650	0.397354	0.229953	99
Es	-0.233077	1.381435	-1.661130	99
Es	0.448211	1.231593	-1.392773	99
Es	0.417466	-1.679307	1.512927	99
Es	-0.307386	1.470527	0.971011	99
Es	-1.158489	-2.086660	-1.093114	99
Es	0.396105	0.872468	-0.728129	99
Es	0.376785	0.529357	-0.027739	99
Es	0.019607	2.136471	0.957516	99
Es	-0.277610	-1.271940	-0.690835	99
Es	0.816494	0.807284	-1.888859	99
Es	1.920995	-0.017656	0.088907	99
Es	-0.541574	-2.305134	1.171768	99
Es	1.717697	0.233334	0.693213	99
Es	-0.681612	-1.269661	1.761196	99
Es	0.026066	0.989477	0.476149	99
Es	-0.267794	-1.617844	1.260312	99
Es	-0.270418	-1.227443	0.610244	99
Es	0.031246	-0.168815	-0.046220	99
Es	-0.860094	-1.002636	-0.524059	99
Es	-1.027951	1.556113	0.803684	99
Es	-0.885218	-1.082790	-1.781540	99
Es	1.870367	0.615588	0.342408	99
Es	-0.252415	1.212195	1.664493	99
Es	-0.282332	-0.851431	-0.042709	99
Es	-0.851916	-1.415327	-1.124664	99
Es	1.728048	0.352744	0.407794	99
Es	0.820907	1.870291	-1.329816	99
