41
Properties=species:S:1:pos:R:3:Z:I:1 energy=-306.7663868373608 field_type=dipole dipole="0.000000 0.000000 0.000000" charge=0
C	-1.136334	0.444184	0.890331	6
C	0.328886	0.314554	0.476491	6
C	0.495216	-0.188166	-0.961269	6
C	0.033006	-1.577786	-1.117969	6
C	-0.345184	-2.709466	-1.252810	6
C	0.990336	1.666874	0.649601	6
O	1.572086	2.277624	-0.241189	8
H	-1.221544	0.852124	1.903790	1
H	-1.642324	-0.526216	0.881471	1
H	-1.678634	1.120134	0.219721	1
H	0.834956	-0.369716	1.169341	1
H	1.551976	-0.138696	-1.252939	1
H	-0.047984	0.462764	-1.657529	1
H	-0.681724	-3.713046	-1.377970	1
H	0.947256	2.084834	1.670931	1
Es	0.495151	-0.188299	-0.961222	99
Es	0.247275	-0.912769	-1.033924	99
Es	0.949159	1.941789	1.355648	99
Es	0.328876	0.314597	0.476465	99
Es	1.567600	2.123903	-0.513461	99
Es	0.403694	0.049156	-0.247581	99
Es	1.142161	2.170010	0.020180	99
Es	-0.074453	-2.139940	-1.532676	99
Es	-1.494595	0.905486	0.430248	99
Es	0.657834	0.992509	0.555455	99
Es	1.688879	2.549160	-0.143652	99
Es	1.193194	-0.175656	-1.148993	99
Es	-1.136268	0.444198	0.890324	99
Es	-0.390661	0.389316	0.679739	99
Es	-0.345257	-2.709696	-1.252831	99
Es	0.678191	-0.131573	0.945752	99
Es	0.118935	0.231552	-1.419749	99
Es	0.084007	-2.266268	-0.942394	99
Es	1.574903	1.939989	0.142800	99
Es	-1.182720	0.724680	1.579742	99
Es	-0.491007	-2.062549	-1.074487	99
Es	1.571934	2.277515	-0.240844	99
Es	0.033086	-1.577527	-1.117935	99
Es	-0.564708	-3.364448	-1.333467	99
Es	0.990341	1.666864	0.649594	99
Es	-1.468486	-0.208085	0.882530	99
