38
Properties=species:S:1:pos:R:3:Z:I:1 energy=-305.5928627425606 field_type=dipole dipole="0.000000 0.000000 0.000000" charge=0
C	-3.093369	-0.438038	-0.015772	6
C	-1.649369	-0.438038	-0.015772	6
C	-0.459209	-0.438038	-0.015772	6
C	0.946791	-0.438038	-0.015772	6
C	1.637421	0.706972	0.025788	6
C	3.110771	0.679441	0.024378	6
O	3.767141	1.712302	0.061958	8
H	-3.487369	0.582842	-0.004082	1
H	-3.487439	-0.958568	0.862478	1
H	-3.487439	-0.938318	-0.905712	1
H	1.446861	-1.401409	-0.050952	1
H	1.170361	1.684251	0.061428	1
H	3.584851	-0.315359	-0.012192	1
Es	4.077841	1.663854	0.060108	99
Es	-3.093246	-0.438039	-0.015772	99
Es	-3.338412	0.243692	-0.007863	99
Es	3.522107	1.339786	-0.202499	99
Es	0.227353	-0.447015	-0.015822	99
Es	-1.005011	-0.251170	0.287531	99
Es	-1.649652	-0.438030	-0.015770	99
Es	-0.458954	-0.438041	-0.015779	99
Es	1.637490	0.706993	0.025789	99
Es	3.110740	0.679436	0.024377	99
Es	-2.346761	-0.437040	-0.015748	99
Es	3.522345	1.321452	0.298524	99
Es	-3.334832	-0.785261	0.569922	99
Es	3.423109	-0.010129	-0.000949	99
Es	-1.051700	-0.800380	-0.014855	99
Es	0.946648	-0.438139	-0.015776	99
Es	3.583433	1.964048	0.071343	99
Es	1.325732	1.356397	0.049552	99
Es	1.319197	0.158528	-0.308768	99
Es	1.319429	0.135760	0.319753	99
Es	2.363761	0.683020	0.024679	99
Es	-3.335063	-0.771774	-0.609441	99
Es	3.766994	1.712019	0.061948	99
Es	-1.000402	-0.254283	-0.320024	99
Es	1.273423	-1.080513	-0.039160	99
