44
Properties=species:S:1:pos:R:3:Z:I:1 energy=-307.94862954217547 field_type=dipole dipole="0.000000 0.000000 0.000000" charge=0
C	-3.230485	-0.818485	-0.322484	6
C	-1.786485	-0.818485	-0.322484	6
C	-0.596326	-0.818485	-0.322484	6
C	0.847674	-0.818485	-0.322484	6
C	1.446084	0.595575	-0.346114	6
C	1.187524	1.376805	0.937567	6
O	2.860575	0.506315	-0.542304	8
H	-3.624365	0.202415	-0.308874	1
H	-3.624536	-1.340585	0.554837	1
H	-3.624585	-1.317085	-1.213344	1
H	1.218374	-1.372175	-1.194394	1
H	1.232324	-1.364765	0.547766	1
H	1.042735	1.158065	-1.195884	1
H	1.595535	0.849355	1.807416	1
H	0.119195	1.547505	1.102257	1
H	1.689845	2.349494	0.897466	1
H	3.246915	0.083025	0.243536	1
Es	3.045779	0.272406	-0.107820	99
Es	1.077613	-1.184719	-0.909069	99
Es	1.187526	1.376787	0.937564	99
Es	-1.786766	-0.818483	-0.322488	99
Es	1.446299	0.595505	-0.346089	99
Es	2.909980	0.314713	-0.780643	99
Es	-3.478435	-1.168343	0.265648	99
Es	-1.186068	-1.177059	-0.363784	99
Es	2.330802	0.521358	-0.445124	99
Es	1.304469	0.980647	0.309811	99
Es	0.464364	1.487803	1.046670	99
Es	-1.187115	-0.599323	-0.614034	99
Es	-1.193242	-0.672384	0.009869	99
Es	-2.487385	-0.818371	-0.322814	99
Es	-3.230377	-0.818484	-0.322483	99
Es	1.095637	-1.178505	0.272431	99
Es	1.526708	2.035112	0.904496	99
Es	0.101244	-0.813514	-0.317229	99
Es	1.116825	-0.127202	-0.325360	99
Es	-0.596049	-0.818487	-0.322482	99
Es	0.847557	-0.818474	-0.322466	99
Es	1.470411	1.004166	1.526545	99
Es	2.860417	0.506217	-0.542037	99
Es	2.962009	0.794095	-0.537059	99
Es	-3.478825	-1.152399	-0.919269	99
Es	-3.478137	-0.134088	-0.313137	99
Es	1.168903	0.974743	-0.925724	99
