41
Properties=species:S:1:pos:R:3:Z:I:1 energy=-306.77635860214303 field_type=dipole dipole="0.000000 0.000000 0.000000" charge=0
C	-3.242093	-0.575331	0.001633	6
C	-1.798093	-0.575331	0.001633	6
C	-0.607933	-0.575331	0.001633	6
C	0.836067	-0.575331	0.001633	6
C	1.383797	0.846199	-0.001167	6
C	2.889067	0.871889	-0.004017	6
O	3.604097	-0.125441	0.004443	8
H	-3.636083	0.445559	0.013343	1
H	-3.636173	-1.095871	0.879873	1
H	-3.636163	-1.075591	-0.888317	1
H	1.209727	-1.118471	-0.874917	1
H	1.209836	-1.115171	0.880153	1
H	1.044396	1.395549	0.884123	1
H	1.041337	1.392719	-0.887007	1
H	3.338207	1.879949	-0.013037	1
Es	1.175333	1.216226	0.593786	99
Es	-0.607671	-0.575332	0.001634	99
Es	0.089483	-0.569638	0.001552	99
Es	3.343520	0.234485	-0.251819	99
Es	2.133986	0.852673	-0.002869	99
Es	0.835964	-0.575258	0.001631	99
Es	-3.241985	-0.575330	0.001633	99
Es	-2.498940	-0.575178	0.001622	99
Es	1.068098	-0.927538	0.592970	99
Es	-1.201564	-0.370528	0.304669	99
Es	1.099929	0.138333	0.000352	99
Es	-3.490217	-0.910232	-0.594712	99
Es	3.436057	-0.388623	0.007463	99
Es	3.908381	-0.058194	0.003911	99
Es	1.383844	0.846173	-0.001166	99
Es	-1.200778	-0.934932	0.024516	99
Es	1.172795	1.214522	-0.596462	99
Es	1.068231	-0.929588	-0.588591	99
Es	-1.798368	-0.575328	0.001631	99
Es	3.603941	-0.125217	0.004442	99
Es	3.184552	1.571181	-0.010299	99
Es	-3.490049	0.109407	0.009456	99
Es	-1.202051	-0.410226	-0.324283	99
Es	3.343782	0.239570	0.253484	99
Es	2.889052	0.871889	-0.004013	99
Es	-3.490253	-0.923817	0.590142	99
