47
Properties=species:S:1:pos:R:3:Z:I:1 energy=-309.1437077523465 field_type=dipole dipole="0.000000 0.000000 0.000000" charge=0
C	-0.987090	-2.054740	0.977594	6
C	-0.553040	-1.499951	-0.372866	6
C	-0.197850	-0.025560	-0.327666	6
C	-1.340480	0.900169	-0.003456	6
C	1.061030	0.373989	-0.604726	6
C	1.616130	1.761459	-0.635916	6
O	2.674601	1.832749	0.307814	8
H	-1.151320	-3.134670	0.904414	1
H	-1.924550	-1.601231	1.314684	1
H	-0.224430	-1.878421	1.743554	1
H	-1.354400	-1.653991	-1.106106	1
H	0.300540	-2.091841	-0.727556	1
H	-2.191870	0.690210	-0.659256	1
H	-1.095309	1.955909	-0.131376	1
H	-1.660590	0.762479	1.034334	1
H	1.803151	-0.385331	-0.848706	1
H	0.892000	2.540770	-0.393666	1
H	2.025920	1.976779	-1.627336	1
H	2.307550	1.531219	1.156234	1
Es	1.061109	0.374036	-0.604736	99
Es	-0.465331	-1.931272	1.496964	99
Es	2.674214	1.832614	0.307856	99
Es	2.457252	1.671058	0.756793	99
Es	2.750513	2.130531	0.338764	99
Es	1.616283	1.761421	-0.635760	99
Es	-1.626327	-1.740762	1.205826	99
Es	-0.765323	0.445888	-0.163984	99
Es	1.569292	-0.140275	-0.769553	99
Es	-1.549868	0.798096	0.695654	99
Es	0.529314	0.168102	-0.135488	99
Es	-0.375527	-0.758128	-0.341976	99
Es	1.310330	1.070618	-0.620630	99
Es	-1.340450	0.900139	-0.003461	99
Es	-0.197988	-0.025589	-0.327635	99
Es	1.104106	2.289950	-0.471481	99
Es	2.256926	1.796415	-0.034576	99
Es	-1.103298	-1.594244	-0.869176	99
Es	2.874922	1.617597	0.225331	99
Es	0.371938	0.213779	-0.787020	99
Es	-1.910677	0.747864	-0.447885	99
Es	-1.098207	-2.790251	0.923713	99
Es	-0.553052	-1.499918	-0.372825	99
Es	-0.772114	-1.761365	0.306448	99
Es	0.034432	-1.899608	-0.612751	99
Es	-1.166173	1.614152	-0.090144	99
Es	1.893528	1.901331	-1.311280	99
Es	-0.987086	-2.054726	0.977564	99
