39
Properties=species:S:1:pos:R:3:Z:I:1 energy=-342.64440098177874 field_type=dipole dipole="0.000000 0.000000 0.000000" charge=0
C	-2.583814	-0.449329	0.202848	6
C	-1.139814	-0.449329	0.202848	6
C	0.050346	-0.449329	0.202848	6
C	1.494346	-0.449329	0.202848	6
C	2.130246	0.885411	-0.128782	6
O	1.437186	1.670411	-0.986522	8
O	3.237936	1.212041	0.277858	8
H	-2.977704	0.571601	0.213528	1
H	-2.977934	-0.969009	1.081568	1
H	-2.977844	-0.950389	-0.686662	1
H	1.876846	-1.178179	-0.519852	1
H	1.854636	-0.743529	1.195358	1
H	0.575566	1.298961	-1.257892	1
Es	-2.828100	-0.783848	-0.392045	99
Es	1.735654	-0.910929	-0.281833	99
Es	-0.527661	-0.807471	0.197308	99
Es	1.717474	-0.639495	0.852211	99
Es	-2.827244	-0.795980	0.788703	99
Es	1.494242	-0.449259	0.202805	99
Es	1.663690	1.344621	-0.660029	99
Es	-1.140079	-0.449321	0.202840	99
Es	2.746147	1.214652	0.337531	99
Es	-0.539442	-0.262922	0.511222	99
Es	1.437040	1.670065	-0.986334	99
Es	1.399312	1.890435	-0.817375	99
Es	-2.827134	0.232603	0.209166	99
Es	-1.836609	-0.449202	0.202562	99
Es	1.769040	0.223176	0.038447	99
Es	2.961380	0.980535	-0.056339	99
Es	0.992778	1.448799	-1.112353	99
Es	3.347827	0.994650	0.466808	99
Es	2.130041	0.885521	-0.128928	99
Es	1.623563	1.662270	-1.199737	99
Es	-0.527059	-0.259881	-0.121052	99
Es	3.237619	1.211937	0.277748	99
Es	0.751752	-0.435886	0.191832	99
Es	-2.583692	-0.449328	0.202846	99
Es	3.326401	1.481352	0.165168	99
Es	0.050622	-0.449354	0.202855	99
