42
Properties=species:S:1:pos:R:3:Z:I:1 energy=-343.8465685385498 field_type=dipole dipole="0.000000 0.000000 0.000000" charge=0
C	-1.248797	-1.723551	-0.693973	6
C	-0.160367	-1.368521	0.306887	6
C	-0.012377	0.120569	0.447977	6
C	1.110593	0.780599	0.119417	6
C	1.322203	2.231709	0.280917	6
O	0.207133	2.973030	0.153077	8
O	2.430433	2.707860	0.465607	8
H	-1.357057	-2.810581	-0.765063	1
H	-1.007217	-1.341691	-1.691773	1
H	-2.216217	-1.306501	-0.394323	1
H	0.782903	-1.830931	-0.006563	1
H	-0.412547	-1.791061	1.286227	1
H	-0.861777	0.638229	0.887347	1
H	1.989073	0.251889	-0.239113	1
H	-0.565977	2.468949	-0.156653	1
Es	-1.905240	-1.433431	-0.484471	99
Es	-0.081500	-0.608547	0.376589	99
Es	-0.012459	0.120526	0.448003	99
Es	2.084101	2.559561	0.152726	99
Es	0.207150	2.972617	0.152970	99
Es	1.192848	1.503486	0.194288	99
Es	2.634887	2.479524	0.482330	99
Es	0.483037	-1.673911	0.090586	99
Es	-1.080461	-1.459792	-1.369340	99
Es	2.430136	2.707713	0.465553	99
Es	1.321953	2.231818	0.280902	99
Es	-0.182312	2.680110	-0.011794	99
Es	2.003501	2.523115	0.649188	99
Es	0.277924	3.185788	-0.031142	99
Es	-0.333932	-1.641627	0.971391	99
Es	-0.160396	-1.368453	0.306873	99
Es	1.694211	0.426721	-0.125296	99
Es	-1.318714	-2.460615	-0.737793	99
Es	2.428386	3.014456	0.487726	99
Es	-0.593512	0.475507	0.734281	99
Es	0.186364	3.004183	0.427755	99
Es	1.110642	0.780698	0.119391	99
Es	-1.248770	-1.723535	-0.693939	99
Es	0.610803	2.665720	0.172676	99
Es	0.450365	0.532791	-0.035564	99
Es	0.688896	0.464605	0.568867	99
Es	-0.702120	-1.526965	-0.188632	99
