45
Properties=species:S:1:pos:R:3:Z:I:1 energy=-345.03616706122887 field_type=dipole dipole="0.000000 0.000000 0.000000" charge=0
C	-2.360472	-1.133879	0.079476	6
C	-0.843842	-1.116989	-0.025694	6
C	-0.293382	0.306281	0.048646	6
C	1.231008	0.318751	-0.051124	6
C	1.789958	1.721941	0.008946	6
O	3.137548	1.741900	-0.122494	8
O	1.135677	2.740211	0.161166	8
H	-2.733282	-2.161209	0.019516	1
H	-2.816692	-0.558939	-0.732724	1
H	-2.692302	-0.707189	1.031416	1
H	-0.543932	-1.583329	-0.971483	1
H	-0.420592	-1.723309	0.783686	1
H	-0.605402	0.775171	0.990126	1
H	-0.721062	0.910831	-0.760863	1
H	1.541458	-0.132479	-1.000174	1
H	1.661678	-0.255249	0.776917	1
H	3.533638	0.857491	-0.235344	1
Es	3.317000	1.257891	-0.181260	99
Es	-0.560309	-0.406953	0.010847	99
Es	1.512158	1.020883	-0.022162	99
Es	0.839524	2.669088	0.184061	99
Es	3.137310	1.741542	-0.122500	99
Es	-2.582290	-0.840922	0.729864	99
Es	3.206200	1.845875	0.132852	99
Es	1.536682	-0.056143	0.505112	99
Es	-2.360443	-1.133881	0.079474	99
Es	-0.843860	-1.116961	-0.025691	99
Es	1.336376	2.408555	-0.142792	99
Es	-0.579221	0.708997	-0.508168	99
Es	2.633728	1.694677	-0.076570	99
Es	-2.613745	-1.835998	0.038470	99
Es	1.135810	2.740005	0.161133	99
Es	-0.293303	0.306239	0.048637	99
Es	-0.548667	-1.530824	0.532614	99
Es	1.456370	0.025242	-0.690371	99
Es	1.310000	2.991774	0.165725	99
Es	-0.500108	0.615569	0.692590	99
Es	1.790239	1.721913	0.008915	99
Es	-1.604042	-1.122208	0.027384	99
Es	3.156058	1.887223	-0.365109	99
Es	0.490577	0.315011	-0.002178	99
Es	1.231047	0.318809	-0.051121	99
Es	1.385618	2.365430	0.359567	99
Es	-2.667289	-0.739680	-0.476073	99
Es	-0.633804	-1.434423	-0.678006	99
