41
Properties=species:S:1:pos:R:3:Z:I:1 energy=-306.7954063324387 field_type=dipole dipole="0.000000 0.000000 0.000000" charge=0
C	-2.169635	0.072984	-0.517181	6
C	-0.856965	-0.371686	0.063209	6
C	-0.726215	-1.552946	0.690009	6
C	0.256095	0.627244	-0.077841	6
O	0.006065	1.806824	-0.311091	8
C	1.659745	0.137854	0.024789	6
C	2.678965	1.006614	0.043109	6
H	-2.539075	0.963504	0.002119	1
H	-2.938855	-0.702156	-0.432141	1
H	-2.057105	0.308964	-1.580641	1
H	-1.571755	-2.230286	0.777079	1
H	0.191565	-1.882066	1.163139	1
H	1.849456	-0.926036	0.057989	1
H	2.512386	2.079874	-0.005371	1
H	3.705325	0.661314	0.102819	1
Es	0.256099	0.627197	-0.077815	99
Es	-1.504462	-0.155357	-0.225255	99
Es	-2.169576	0.072951	-0.517159	99
Es	-1.295154	-2.011205	0.751474	99
Es	0.959045	0.360544	-0.018234	99
Es	-2.408487	0.661885	-0.163210	99
Es	1.659631	0.137811	0.024781	99
Es	-0.679641	-1.090038	0.091663	99
Es	2.100010	0.562669	0.352474	99
Es	2.580836	1.719089	0.013506	99
Es	-0.842280	-0.797602	0.646430	99
Es	-2.685559	-0.463786	-0.453846	99
Es	1.776929	-0.583894	0.050587	99
Es	-0.295193	0.108695	-0.004824	99
Es	0.088338	1.424976	0.019622	99
Es	-0.103767	-1.776458	1.005513	99
Es	2.136844	0.542307	-0.282031	99
Es	-0.726201	-1.553022	0.690062	99
Es	0.267864	1.982320	-0.336741	99
Es	0.101706	1.335435	-0.472318	99
Es	-0.856954	-0.371567	0.063171	99
Es	3.373284	0.776656	0.083828	99
Es	-2.083825	0.226547	-1.230264	99
Es	-0.301456	1.865591	-0.329276	99
Es	0.006096	1.806499	-0.311025	99
Es	2.679049	1.006656	0.043122	99
