44
Properties=species:S:1:pos:R:3:Z:I:1 energy=-307.94980748810605 field_type=dipole dipole="0.000000 0.000000 0.000000" charge=0
C	0.083021	-2.031463	0.978036	6
C	-0.475119	-0.642773	1.089816	6
C	-1.465369	-0.345673	1.949326	6
C	0.148711	0.395477	0.191506	6
O	-0.212129	0.094067	-1.157224	8
C	0.252891	0.924417	-2.136914	6
C	1.057081	1.988637	-2.031364	6
H	-0.017769	-2.409743	-0.044194	1
H	-0.429719	-2.736073	1.643486	1
H	1.145291	-2.035673	1.247506	1
H	-1.906609	-1.101303	2.590186	1
H	-1.871349	0.657637	2.022466	1
H	1.239060	0.366077	0.308866	1
H	-0.208229	1.398757	0.453256	1
H	-0.136479	0.595807	-3.095044	1
H	1.463701	2.335337	-1.088984	1
H	1.333021	2.546487	-2.920724	1
Es	-1.465428	-0.345648	1.949388	99
Es	0.083014	-2.031421	0.978045	99
Es	-0.268410	-2.503952	1.433327	99
Es	-1.199887	-0.552481	1.300579	99
Es	-0.093962	1.082608	0.369550	99
Es	-0.752244	-0.412024	1.761695	99
Es	0.950851	1.301862	-2.117199	99
Es	-0.004717	0.441788	-1.491770	99
Es	-0.211906	0.094452	-1.157136	99
Es	0.420930	1.693429	-2.035237	99
Es	1.241866	2.362707	-2.629519	99
Es	0.252749	0.924180	-2.136733	99
Es	-0.196730	-1.335529	1.032041	99
Es	0.014559	-2.276449	0.291938	99
Es	-0.499130	0.139997	-1.186390	99
Es	-0.082496	-0.154644	-1.236676	99
Es	-0.052509	0.236647	-0.665321	99
Es	1.057116	1.988689	-2.031348	99
Es	-1.766114	-0.856168	2.387488	99
Es	-0.010487	0.701727	-2.785317	99
Es	0.801050	-2.021496	1.159345	99
Es	0.893707	0.373667	0.271508	99
Es	-0.165893	-0.125213	0.636132	99
Es	0.148636	0.395383	0.191281	99
Es	1.329948	2.220892	-1.392800	99
Es	-1.742468	0.336316	2.003248	99
Es	-0.474999	-0.642791	1.089725	99
