44
Properties=species:S:1:pos:R:3:Z:I:1 energy=-307.9837056524324 field_type=dipole dipole="0.000000 0.000000 0.000000" charge=0
C	-1.441056	-1.397673	0.680628	6
C	-0.095306	-0.770983	0.324048	6
C	0.576624	-1.531143	-0.813772	6
C	-0.270256	0.691387	-0.072512	6
O	-1.288586	1.111467	-0.618092	8
C	0.882934	1.599797	0.206138	6
C	0.828044	2.899097	-0.110652	6
H	-1.934636	-0.830143	1.477238	1
H	-1.309386	-2.427193	1.029628	1
H	-2.117896	-1.416123	-0.180662	1
H	0.539924	-0.814913	1.217068	1
H	-0.021106	-1.483823	-1.730842	1
H	0.716254	-2.584643	-0.550812	1
H	1.560334	-1.107323	-1.041782	1
H	1.761464	1.170277	0.671538	1
H	-0.052036	3.333067	-0.578762	1
H	1.664684	3.558867	0.091598	1
Es	0.324673	1.140629	0.073829	99
Es	0.251526	3.197011	-0.420096	99
Es	-0.095316	-0.770959	0.324007	99
Es	0.344746	-0.790746	0.930744	99
Es	-1.270996	1.418966	-0.687783	99
Es	-1.340029	-2.101029	0.918674	99
Es	-1.769632	-1.010838	1.226385	99
Es	-0.766828	-1.077438	0.494064	99
Es	-1.022333	1.020582	-0.198743	99
Es	1.390977	3.347504	0.024833	99
Es	0.167344	-1.496557	-1.429361	99
Es	-1.890746	-1.415165	0.096324	99
Es	0.882913	1.599690	0.206156	99
Es	-1.288299	1.111356	-0.617942	99
Es	0.668515	-2.242810	-0.626569	99
Es	1.246973	-1.237324	-0.964115	99
Es	-1.506519	0.888442	-0.656831	99
Es	-0.270214	0.691401	-0.072501	99
Es	-0.828452	0.908707	-0.648344	99
Es	0.576616	-1.531110	-0.813730	99
Es	0.828056	2.899181	-0.110659	99
Es	-1.441006	-1.397662	0.680631	99
Es	0.720666	2.259607	0.342344	99
Es	0.238864	-1.128123	-0.246313	99
Es	0.963451	2.133874	-0.232434	99
Es	1.476482	1.300096	0.522566	99
Es	-0.179596	-0.036846	0.133563	99
