44
Properties=species:S:1:pos:R:3:Z:I:1 energy=-307.9511251085039 field_type=dipole dipole="0.000000 0.000000 0.000000" charge=0
C	-0.566492	-2.207533	-0.335186	6
C	-0.758972	-1.292673	0.865454	6
C	-0.519712	0.154417	0.520834	6
C	-1.508652	1.063727	0.518664	6
O	0.817008	0.474457	0.331234	8
C	1.177378	1.392527	-0.622906	6
C	2.396168	1.936267	-0.657076	6
H	-0.776092	-3.244873	-0.054796	1
H	0.461018	-2.161863	-0.710346	1
H	-1.242072	-1.935433	-1.152926	1
H	-0.072892	-1.591093	1.667224	1
H	-1.773562	-1.433333	1.257994	1
H	-2.535982	0.779547	0.719004	1
H	-1.314782	2.115667	0.340874	1
H	0.411398	1.621307	-1.350476	1
H	3.141868	1.674277	0.085524	1
H	2.664368	2.654607	-1.423096	1
Es	-0.291186	-1.484466	1.403910	99
Es	-0.658842	-1.733113	0.262355	99
Es	2.396236	1.936284	-0.657094	99
Es	1.915817	1.434238	-0.837863	99
Es	-0.711064	-2.912198	-0.138953	99
Es	-1.378144	1.774390	0.392028	99
Es	-0.628679	-0.561472	0.685037	99
Es	-1.452200	-1.377011	1.126520	99
Es	-0.566500	-2.207508	-0.335149	99
Es	0.869513	0.592499	0.578305	99
Es	-1.007676	0.693943	0.832090	99
Es	-1.508701	1.063768	0.518623	99
Es	0.301308	0.377385	0.348079	99
Es	-0.519360	0.154382	0.520799	99
Es	0.959823	0.239308	0.232729	99
Es	-1.028883	-2.017859	-0.888992	99
Es	-1.089195	0.576626	0.178886	99
Es	2.900517	1.764045	-0.159608	99
Es	1.708178	1.935340	-0.459271	99
Es	-2.200880	0.869569	0.650684	99
Es	0.816841	0.474615	0.331055	99
Es	-0.758954	-1.292628	0.865405	99
Es	2.576470	2.416725	-1.174761	99
Es	0.901189	0.837421	-0.029192	99
Es	1.177191	1.392308	-0.622706	99
Es	0.130450	-2.173603	-0.587980	99
Es	0.653627	1.543200	-1.110522	99
