44
Properties=species:S:1:pos:R:3:Z:I:1 energy=-307.9360050871883 field_type=dipole dipole="0.000000 0.000000 0.000000" charge=0
C	-0.359054	-1.833551	-1.229914	6
C	-0.711604	-0.992391	-0.009214	6
C	-0.156183	0.443409	-0.076354	6
C	-0.693014	1.262039	1.111766	6
O	-0.416553	2.653979	0.953916	8
C	1.287816	0.443409	-0.076354	6
C	2.477977	0.443409	-0.076354	6
H	-0.844404	-2.812931	-1.162964	1
H	0.719887	-2.004271	-1.304484	1
H	-0.697074	-1.350651	-2.152034	1
H	-0.346744	-1.501201	0.891796	1
H	-1.804614	-0.952481	0.069556	1
H	-0.506984	0.918149	-1.001994	1
H	-0.263274	0.932559	2.064796	1
H	-1.781673	1.164359	1.183626	1
H	0.551436	2.747829	0.895696	1
H	3.544056	0.438339	-0.081484	1
Es	1.892779	0.802332	-0.000429	99
Es	-0.526748	2.730552	0.677173	99
Es	-0.156069	0.443382	-0.076316	99
Es	-0.392146	1.020514	1.760318	99
Es	-0.416335	2.653769	0.953923	99
Es	-0.405030	-0.263571	-0.042692	99
Es	-0.459111	-1.332631	0.608106	99
Es	-0.693037	-2.499329	-1.180678	99
Es	1.896461	0.207233	0.197364	99
Es	0.372227	-1.945777	-1.278354	99
Es	3.173931	0.440636	-0.078917	99
Es	-0.692933	1.262239	1.111685	99
Es	-0.505380	2.790261	1.213250	99
Es	1.895407	0.332753	-0.411914	99
Es	0.597993	0.443634	-0.074346	99
Es	-1.436104	1.187482	1.151623	99
Es	-1.459187	-0.953839	0.044159	99
Es	-0.378442	0.759591	-0.696779	99
Es	2.478234	0.443409	-0.076344	99
Es	0.104279	2.682814	0.927154	99
Es	-0.396783	0.840617	0.509377	99
Es	-0.591996	-1.498170	-1.856472	99
Es	-0.711569	-0.992346	-0.009247	99
Es	-0.495197	2.119477	1.011661	99
Es	-0.527468	-1.404243	-0.621532	99
Es	1.287564	0.443414	-0.076346	99
Es	-0.359072	-1.833530	-1.229883	99
