44
Properties=species:S:1:pos:R:3:Z:I:1 energy=-307.9852310212809 field_type=dipole dipole="0.000000 0.000000 0.000000" charge=0
C	-2.401695	-1.088072	0.282031	6
C	-0.895245	-1.280172	0.350021	6
C	-0.150665	0.006508	-0.003629	6
C	1.356855	-0.166062	0.062761	6
O	1.896175	-1.228572	0.369651	8
C	2.236345	0.994948	-0.254709	6
C	1.808895	2.213888	-0.607479	6
H	-2.914695	-2.019122	0.542671	1
H	-2.714835	-0.798432	-0.726209	1
H	-2.730505	-0.311982	0.980511	1
H	-0.601535	-2.082982	-0.335499	1
H	-0.617945	-1.607232	1.359491	1
H	-0.439465	0.797548	0.697791	1
H	-0.419765	0.312988	-1.020849	1
H	3.299455	0.783598	-0.179389	1
H	0.760416	2.473478	-0.696549	1
H	2.528205	2.999668	-0.820619	1
Es	-1.653405	-1.172726	0.312856	99
Es	2.011897	1.481743	-0.730082	99
Es	2.948155	0.853602	-0.204282	99
Es	1.704369	-0.907676	0.016225	99
Es	-0.509678	-0.624593	0.169815	99
Es	-2.750475	-1.722443	0.459500	99
Es	-0.710633	-1.493454	1.039426	99
Es	1.698217	-0.772012	0.498071	99
Es	2.236322	0.994867	-0.254680	99
Es	-0.895264	-1.280094	0.349999	99
Es	2.003040	1.657620	-0.112836	99
Es	1.808857	2.213983	-0.607506	99
Es	1.103019	2.389951	-0.667727	99
Es	1.689762	-1.461366	0.432907	99
Es	-0.150600	0.006508	-0.003629	99
Es	0.604007	-0.073455	0.027658	99
Es	-2.622993	-0.553633	0.759828	99
Es	1.356861	-0.166024	0.062754	99
Es	1.783499	0.437958	-0.102802	99
Es	-2.612307	-0.886640	-0.409421	99
Es	-2.401676	-1.088068	0.282031	99
Es	-0.331314	0.544515	0.467272	99
Es	2.211394	-1.208362	0.368312	99
Es	1.896024	-1.228312	0.369578	99
Es	2.287067	2.747620	-0.752390	99
Es	-0.317983	0.218461	-0.689922	99
Es	-0.699491	-1.819844	-0.123721	99
