48
Properties=species:S:1:pos:R:3:Z:I:1 energy=-346.17439017659296 field_type=dipole dipole="0.000000 0.000000 0.000000" charge=0
C	-1.848831	-1.181666	0.176996	6
C	-0.329061	-1.114816	0.065756	6
C	0.248219	0.315954	0.035696	6
C	-0.315431	1.145783	-1.119594	6
O	-0.092501	0.953104	1.277436	8
C	1.790019	0.275864	-0.050484	6
O	2.342619	-0.370686	1.096036	8
H	-2.169001	-2.223706	0.279686	1
H	-2.333741	-0.776556	-0.715694	1
H	-2.210881	-0.632176	1.050866	1
H	-0.016461	-1.662676	-0.832184	1
H	0.077819	-1.655286	0.929996	1
H	-0.146511	0.657904	-2.085384	1
H	0.151799	2.137414	-1.150694	1
H	-1.388691	1.326844	-0.996824	1
H	0.146139	1.894814	1.208336	1
H	2.202179	1.290884	-0.066534	1
H	2.132728	-0.252116	-0.946354	1
H	1.759598	-0.128876	1.842936	1
Es	-0.092374	0.953294	1.277105	99
Es	2.027619	-0.230521	1.481339	99
Es	0.043271	0.740208	0.806210	99
Es	2.057944	0.989104	-0.070401	99
Es	-0.315410	1.145783	-1.119592	99
Es	0.248164	0.316077	0.035877	99
Es	-0.195481	0.809975	-1.772366	99
Es	1.022350	0.293401	-0.017806	99
Es	2.015990	-0.084685	-0.667916	99
Es	-2.178248	-0.901880	-0.435913	99
Es	0.097728	0.826918	1.494078	99
Es	2.305879	-0.671532	1.052103	99
Es	-0.395495	0.942970	1.301741	99
Es	0.046581	1.456710	1.219871	99
Es	2.113379	-0.118714	0.670029	99
Es	-0.329085	-1.114765	0.065740	99
Es	-0.037598	0.734691	-0.555392	99
Es	0.013277	1.820587	-1.131633	99
Es	-0.045576	-0.390617	0.048873	99
Es	-2.061563	-1.894263	0.245027	99
Es	-1.848793	-1.181671	0.176981	99
Es	-1.039883	1.261143	-1.034460	99
Es	2.616306	-0.242154	1.142779	99
Es	-0.050295	-1.474461	0.652080	99
Es	-1.090864	-1.130207	0.114779	99
Es	2.342284	-0.370521	1.095986	99
Es	1.790080	0.275754	-0.050297	99
Es	-2.093184	-0.809805	0.767366	99
Es	-0.111282	-1.478297	-0.554841	99
