49
Properties=species:S:1:pos:R:3:Z:I:1 energy=-273.30492491242967 field_type=dipole dipole="0.000000 0.000000 0.000000" charge=0
C	-2.274348	-0.950476	-0.362985	6
C	-0.819548	-0.591466	-0.047715	6
C	0.096062	-1.744206	-0.461475	6
C	-0.449368	0.733874	-0.743635	6
C	0.968042	1.251604	-0.467315	6
C	1.217472	1.543454	0.984485	6
C	2.163432	0.943924	1.718325	6
H	-2.951717	-0.155516	-0.033075	1
H	-2.568258	-1.872136	0.150715	1
H	-2.423687	-1.099506	-1.437975	1
H	-0.740968	-0.463216	1.038425	1
H	0.093202	-1.883546	-1.547915	1
H	-0.229858	-2.682956	-0.000015	1
H	1.128032	-1.570066	-0.142785	1
H	-1.169808	1.506464	-0.442895	1
H	-0.563838	0.616284	-1.829255	1
H	1.110343	2.184734	-1.026185	1
H	1.709953	0.548164	-0.861765	1
H	0.587382	2.298534	1.450255	1
H	2.818053	0.187004	1.297715	1
H	2.299423	1.199044	2.765065	1
Es	0.780986	2.057565	1.292870	99
Es	-0.525008	0.647964	-1.489009	99
Es	-0.130939	-2.383632	-0.145764	99
Es	-0.765145	-0.501541	0.694611	99
Es	2.262382	1.111798	2.430477	99
Es	1.217387	1.543501	0.984403	99
Es	1.490011	1.004088	1.446805	99
Es	1.915900	1.469027	1.276661	99
Es	0.800946	-1.621899	-0.246036	99
Es	-0.819553	-0.591474	-0.047772	99
Es	0.968017	1.251609	-0.467271	99
Es	1.062254	1.889425	-0.839220	99
Es	-0.942976	1.265545	-0.531187	99
Es	-2.371824	-1.051663	-1.100295	99
Es	0.269027	0.987277	-0.584548	99
Es	1.474504	0.766603	-0.728371	99
Es	0.090845	-1.834784	-1.206821	99
Es	-2.274342	-0.950472	-0.362984	99
Es	2.163508	0.943873	1.718385	99
Es	-0.352625	-1.170380	-0.263416	99
Es	-2.472301	-1.581980	-0.011348	99
Es	-0.619744	0.072975	-0.396849	99
Es	2.610840	0.428144	1.435920	99
Es	0.096059	-1.744199	-0.461477	99
Es	-1.554808	-0.771538	-0.213879	99
Es	1.090070	1.391577	0.267438	99
Es	-0.449327	0.733877	-0.743612	99
Es	-2.736354	-0.403699	-0.137776	99
