47
Properties=species:S:1:pos:R:3:Z:I:1 energy=-309.1454180323931 field_type=dipole dipole="0.000000 0.000000 0.000000" charge=0
C	-2.430511	-0.758546	-0.863899	6
C	-1.072841	-0.949456	-0.196949	6
C	-0.194962	0.308214	-0.291689	6
O	-0.863152	1.381894	0.366811	8
C	1.200608	0.208614	0.300201	6
C	2.061569	1.430754	0.097351	6
C	1.692348	-0.862016	0.948881	6
H	-3.014132	-1.682486	-0.799599	1
H	-2.314782	-0.503126	-1.921749	1
H	-3.006011	0.035304	-0.377729	1
H	-0.567532	-1.799836	-0.669840	1
H	-1.251812	-1.206386	0.854691	1
H	-0.099491	0.583064	-1.350199	1
H	-0.813152	1.196584	1.320321	1
H	2.153478	1.658844	-0.968819	1
H	3.073608	1.293244	0.494290	1
H	1.625218	2.297853	0.604411	1
H	1.115698	-1.765726	1.111640	1
H	2.705848	-0.866786	1.341881	1
Es	-0.195035	0.308365	-0.291538	99
Es	-0.863031	1.381598	0.366976	99
Es	-1.072849	-0.949430	-0.196963	99
Es	-2.820461	-0.223739	-0.533780	99
Es	2.748407	1.328830	0.368966	99
Es	1.692372	-0.862090	0.948938	99
Es	1.200572	0.208723	0.300135	99
Es	2.380203	-0.866966	1.217927	99
Es	-0.123854	0.494859	-1.012266	99
Es	-2.346141	-0.584268	-1.587660	99
Es	1.557492	-0.468363	0.352232	99
Es	1.330120	-0.222370	0.924471	99
Es	-0.722623	-1.528394	-0.521440	99
Es	0.512081	0.235954	0.012960	99
Es	-0.827639	1.262310	0.876875	99
Es	-2.430473	-0.758564	-0.863891	99
Es	-0.623712	-0.332567	-0.237645	99
Es	-1.157498	1.361317	0.285723	99
Es	-1.747102	-0.842602	-0.533770	99
Es	-0.600375	0.967097	0.139902	99
Es	1.627785	0.820461	0.199993	99
Es	1.302458	-1.477071	1.060748	99
Es	-2.824535	-1.393175	-0.819147	99
Es	2.115228	1.577420	-0.625782	99
Es	-0.695260	1.633575	0.321044	99
Es	-1.188098	-1.119504	0.528293	99
Es	1.764833	2.006617	0.439099	99
Es	2.061544	1.430715	0.097352	99
