42
Properties=species:S:1:pos:R:3:Z:I:1 energy=-343.8415323270618 field_type=dipole dipole="0.000000 0.000000 0.000000" charge=0
C	-1.813004	-0.675696	0.176943	6
C	-0.359124	-0.954546	0.416823	6
C	0.124886	-2.172856	0.686823	6
O	0.508826	0.156724	0.483723	8
C	0.598966	0.931244	-0.645167	6
C	1.535576	2.072764	-0.380187	6
O	0.029106	0.752584	-1.712837	8
H	-2.131384	0.201974	0.748783	1
H	-2.439484	-1.517136	0.492153	1
H	-2.011884	-0.494106	-0.882767	1
H	-0.515314	-3.048726	0.692103	1
H	1.178036	-2.319966	0.902383	1
H	2.516586	1.688464	-0.089307	1
H	1.125076	2.714594	0.403203	1
H	1.653136	2.664684	-1.292667	1
Es	1.067734	1.497475	-0.505622	99
Es	0.029259	0.752626	-1.712537	99
Es	-1.812933	-0.675712	0.176979	99
Es	-0.167516	-1.537333	0.878073	99
Es	1.535531	2.072704	-0.380182	99
Es	0.414722	0.668314	-1.422441	99
Es	-0.308377	-2.760900	0.692857	99
Es	-2.222524	-1.250840	0.394474	99
Es	0.834115	-2.276528	0.830593	99
Es	-0.359020	-0.954183	0.416797	99
Es	-0.054759	-1.634055	0.228333	99
Es	0.395953	0.343782	0.659560	99
Es	0.177780	-0.250000	0.417590	99
Es	2.179624	1.805096	-0.182864	99
Es	-0.152629	0.501545	-1.711820	99
Es	0.508585	0.156623	0.483345	99
Es	-1.073729	-0.802919	0.289578	99
Es	1.253232	2.485996	0.143603	99
Es	0.124909	-2.172920	0.686832	99
Es	0.598942	0.931074	-0.644937	99
Es	0.026600	0.950532	-1.262620	99
Es	0.109006	0.972233	-1.908174	99
Es	-2.014316	-0.083010	0.565922	99
Es	0.787987	0.076147	0.492945	99
Es	0.498965	0.416198	0.039430	99
Es	1.612369	2.467534	-0.990709	99
Es	-1.937554	-0.558585	-0.521370	99
