45
Properties=species:S:1:pos:R:3:Z:I:1 energy=-345.0136904223106 field_type=dipole dipole="0.000000 0.000000 0.000000" charge=0
C	-1.150116	-2.094243	0.478528	6
C	-0.981516	-1.139192	-0.686442	6
C	-0.485876	0.206418	-0.201402	6
O	-1.221086	0.960948	0.439868	8
C	0.964314	0.543748	-0.484492	6
C	1.316014	1.948718	-0.022422	6
O	1.314124	2.016747	1.398558	8
H	-1.502596	-3.068182	0.126618	1
H	-1.876186	-1.708022	1.201118	1
H	-0.202156	-2.240372	1.006208	1
H	-1.932336	-0.987212	-1.208412	1
H	-0.273936	-1.548942	-1.414722	1
H	1.125734	0.463858	-1.564202	1
H	1.584634	-0.194812	0.034708	1
H	0.620674	2.699687	-0.412302	1
H	2.322664	2.209838	-0.362252	1
H	0.377644	1.931017	1.671038	1
Es	-1.220876	0.960768	0.439711	99
Es	-1.618476	-1.029334	-1.033591	99
Es	-1.031260	0.814472	0.001383	99
Es	-1.639620	-1.832082	0.961486	99
Es	0.836899	2.451933	-0.303514	99
Es	1.059330	0.483148	-1.213364	99
Es	0.964253	0.543723	-0.484502	99
Es	-0.723382	-0.468551	-0.455180	99
Es	1.316002	1.948655	-0.022217	99
Es	1.461383	1.761362	1.492713	99
Es	-1.150092	-2.094205	0.478471	99
Es	2.006440	2.119708	-0.261111	99
Es	1.363210	0.041807	-0.139148	99
Es	-1.512761	0.847184	0.476525	99
Es	1.291806	1.988030	0.854601	99
Es	1.128908	1.228893	-0.262758	99
Es	-0.499379	-2.188514	0.830786	99
Es	1.407723	2.299223	1.472909	99
Es	-1.057763	-1.592514	-0.107292	99
Es	0.818033	1.970130	1.527131	99
Es	-0.485867	0.206418	-0.201386	99
Es	1.313838	2.016724	1.398346	99
Es	-0.491365	-1.416124	-1.180082	99
Es	-1.070976	1.227064	0.538319	99
Es	0.241490	0.378036	-0.346593	99
Es	-1.386016	-2.752419	0.232274	99
Es	-0.891537	0.585319	0.426741	99
Es	-0.981491	-1.139168	-0.686403	99
