45
Properties=species:S:1:pos:R:3:Z:I:1 energy=-345.015103976278 field_type=dipole dipole="0.000000 0.000000 0.000000" charge=0
C	-2.429958	-0.765438	0.145517	6
C	-0.924528	-0.893248	0.294987	6
C	-0.222548	0.452392	0.281877	6
O	-0.826678	1.524462	0.193147	8
C	1.305002	0.434052	0.391977	6
C	1.935232	0.198732	-0.968743	6
O	1.774212	1.678912	0.899217	8
H	-2.901708	-1.751538	0.184257	1
H	-2.690208	-0.298398	-0.809773	1
H	-2.855088	-0.151188	0.945827	1
H	-0.527928	-1.503268	-0.522303	1
H	-0.692658	-1.386368	1.244987	1
H	1.603332	-0.343518	1.101707	1
H	1.653552	0.991412	-1.671603	1
H	1.628692	-0.760108	-1.398133	1
H	3.027862	0.216022	-0.893753	1
H	1.143412	2.357092	0.580807	1
Es	-0.642349	-1.291095	-0.254219	99
Es	1.733855	0.735408	-1.437594	99
Es	-1.664590	-0.823687	0.220530	99
Es	-2.743037	-1.442941	0.172480	99
Es	2.048190	1.724558	0.766285	99
Es	1.305011	0.434247	0.392006	99
Es	2.667176	0.204140	-0.909079	99
Es	-0.222552	0.452389	0.281851	99
Es	-2.600097	-0.454806	-0.504236	99
Es	-2.429889	-0.765461	0.145523	99
Es	-1.135364	1.499258	0.168670	99
Es	-0.571843	-0.221315	0.282153	99
Es	-0.826500	1.524163	0.193174	99
Es	1.496585	-0.103640	0.870042	99
Es	-0.924503	-0.893196	0.294983	99
Es	1.572815	1.210224	0.692749	99
Es	1.935196	0.198716	-0.968717	99
Es	-2.712068	-0.356084	0.691203	99
Es	-0.634386	1.152121	0.474321	99
Es	1.440198	2.021979	0.717464	99
Es	0.536019	0.434009	0.339140	99
Es	-0.619582	1.770370	0.200105	99
Es	-0.595982	1.135309	-0.027636	99
Es	1.773947	1.678893	0.899024	99
Es	1.736670	1.663700	1.201013	99
Es	1.594603	0.302540	-0.294380	99
Es	-0.753568	-1.211011	0.934475	99
Es	1.718746	-0.458206	-1.254476	99
