45
Properties=species:S:1:pos:R:3:Z:I:1 energy=-345.01351852368066 field_type=dipole dipole="0.000000 0.000000 0.000000" charge=0
C	-1.075068	-1.178743	1.218930	6
C	-0.890558	-0.875203	-0.264160	6
C	-0.520108	0.580197	-0.555130	6
O	-1.498178	1.449287	0.009250	8
C	0.877293	0.935637	-0.041640	6
C	2.055153	0.446947	-0.839350	6
O	1.021313	1.594267	0.992070	8
H	-1.351887	-2.228693	1.353740	1
H	-1.870647	-0.567213	1.655050	1
H	-0.154138	-0.999263	1.780170	1
H	-1.837927	-1.103603	-0.768730	1
H	-0.133367	-1.551453	-0.676710	1
H	-0.531377	0.754457	-1.637420	1
H	-1.136907	1.738787	0.872230	1
H	2.123183	-0.641103	-0.777960	1
H	2.974832	0.884177	-0.439260	1
H	1.948392	0.761517	-1.881080	1
Es	0.187123	0.753306	-0.297271	99
Es	-1.106171	1.115400	-0.184766	99
Es	-1.497883	1.449156	0.009394	99
Es	-1.749737	1.276831	0.053361	99
Es	2.081222	-0.276491	-0.794261	99
Es	-0.890523	-0.875164	-0.264138	99
Es	1.317947	1.647829	1.072342	99
Es	1.464076	0.682220	-0.449888	99
Es	-1.494590	1.695155	-0.168388	99
Es	-1.301475	1.583382	0.461886	99
Es	2.055089	0.446945	-0.839341	99
Es	-1.529413	-1.022760	-0.612997	99
Es	-1.261325	-1.894567	1.303337	99
Es	2.666867	0.736746	-0.572195	99
Es	0.877304	0.935631	-0.041645	99
Es	0.967914	1.572670	0.488727	99
Es	1.967004	0.655707	-1.533599	99
Es	0.735652	1.671540	1.119461	99
Es	-0.444016	-1.055714	1.594656	99
Es	-0.972617	-1.012538	0.477713	99
Es	0.973462	1.147896	0.760556	99
Es	1.021253	1.594119	0.991820	99
Es	-0.510185	0.694027	-1.292265	99
Es	-0.520194	0.580322	-0.554991	99
Es	-0.362502	-1.330191	-0.549057	99
Es	-0.672336	-0.141739	-0.399206	99
Es	-1.611017	-0.764174	1.511535	99
Es	-1.075054	-1.178744	1.218878	99
