47
Properties=species:S:1:pos:R:3:Z:I:1 energy=-309.12056499546105 field_type=dipole dipole="0.000000 0.000000 0.000000" charge=0
C	-2.675912	1.508807	-0.559042	6
C	-1.562783	0.834667	0.217318	6
O	-0.996662	-0.187943	-0.597502	8
C	0.074068	-0.891693	0.059598	6
C	1.049408	-1.568683	-0.866742	6
C	1.453748	-0.319283	-0.133182	6
C	2.445047	-0.377873	0.977098	6
H	-3.130572	2.311857	0.028208	1
H	-3.451882	0.784357	-0.827462	1
H	-2.293902	1.928307	-1.495852	1
H	-1.960083	0.393507	1.137508	1
H	-0.790883	1.568017	0.475968	1
H	-0.152092	-1.411383	0.985788	1
H	0.865767	-1.496313	-1.932202	1
H	1.465768	-2.518133	-0.552622	1
H	1.544998	0.595357	-0.708842	1
H	2.404808	-1.329583	1.515408	1
H	2.253668	0.427067	1.692828	1
H	3.457498	-0.251063	0.583728	1
Es	2.445035	-0.377876	0.977089	99
Es	1.049370	-1.568563	-0.866618	99
Es	0.725635	-0.460732	0.100659	99
Es	-2.980119	2.054716	-0.151668	99
Es	-2.122030	1.173188	-0.172157	99
Es	1.505439	0.298335	-0.526528	99
Es	-0.996559	-0.187874	-0.597174	99
Es	-2.411977	1.797975	-1.190418	99
Es	-1.835651	0.531514	0.858262	99
Es	-1.222370	-0.392086	-0.637557	99
Es	-3.203766	1.016586	-0.733988	99
Es	-2.675894	1.508807	-0.559016	99
Es	3.134256	-0.292643	0.707775	99
Es	0.074038	-0.891585	0.059394	99
Es	1.335797	-2.209833	-0.644643	99
Es	1.453658	-0.319425	-0.133194	99
Es	1.423500	-0.961015	-0.582756	99
Es	2.312877	0.172220	1.464289	99
Es	-1.029802	1.342960	0.401228	99
Es	-0.593930	-0.439097	-0.315197	99
Es	-0.861926	-0.045190	-0.834112	99
Es	-0.084266	-1.235262	0.697749	99
Es	0.437803	-1.366449	-0.443168	99
Es	0.924294	-1.517066	-1.582028	99
Es	1.946393	-0.365400	0.425435	99
Es	-1.562719	0.834517	0.217170	99
Es	-1.184575	0.191545	-0.261967	99
Es	2.411173	-1.030134	1.341800	99
