41
Properties=species:S:1:pos:R:3:Z:I:1 energy=-306.7628478521273 field_type=dipole dipole="0.000000 0.000000 0.000000" charge=0
C	-2.214461	-1.843856	0.186418	6
C	-1.026241	-1.359986	-0.180492	6
O	-0.617331	-0.095726	0.166518	8
C	0.488389	0.479514	-0.440852	6
C	0.770269	0.357264	-1.747992	6
C	1.291299	1.327264	0.421318	6
C	1.101169	1.504744	1.736628	6
H	-2.515081	-2.849266	-0.085132	1
H	-2.906171	-1.239356	0.763438	1
H	-0.305001	-1.937106	-0.742672	1
H	0.138829	-0.223066	-2.411692	1
H	1.624859	0.852154	-2.197792	1
H	2.116309	1.859564	-0.048822	1
H	0.301819	1.006564	2.276278	1
H	1.751349	2.161294	2.304848	1
Es	0.991743	1.649514	0.991494	99
Es	-1.512071	-1.731428	0.284843	99
Es	0.469046	0.681071	-1.178291	99
Es	-1.780423	-1.510898	-0.278165	99
Es	1.383832	1.153792	1.117813	99
Es	-0.533789	-1.742794	-0.562973	99
Es	-0.183911	0.068377	-0.084909	99
Es	1.291292	1.327229	0.421196	99
Es	-0.617137	-0.095924	0.166184	99
Es	-0.815853	0.075484	0.073661	99
Es	1.101164	1.504763	1.736708	99
Es	-2.413932	-2.520729	0.005504	99
Es	1.844855	1.679567	0.088979	99
Es	1.347297	0.688890	-2.045694	99
Es	0.346710	-0.038906	-2.194249	99
Es	0.833734	0.153333	-1.035326	99
Es	0.770293	0.357231	-1.748049	99
Es	-2.214513	-1.843883	0.186435	99
Es	0.488158	0.479410	-0.440604	99
Es	-2.682831	-1.441172	0.573356	99
Es	0.568808	1.175083	2.105347	99
Es	-0.738384	-0.568861	-0.007668	99
Es	-0.560325	-0.132761	0.449300	99
Es	0.878840	0.895233	0.001751	99
Es	-1.026045	-1.359684	-0.180461	99
Es	1.539428	1.948680	2.123845	99
