41
Properties=species:S:1:pos:R:3:Z:I:1 energy=-306.80460511622675 field_type=dipole dipole="0.000000 0.000000 0.000000" charge=0
C	-2.434869	-1.619947	0.052513	6
C	-0.943339	-1.410427	0.044943	6
O	-0.163299	-2.357237	0.114593	8
C	-0.463149	-0.001067	-0.007717	6
C	0.849801	0.266743	-0.011237	6
C	1.374351	1.611563	-0.055847	6
C	2.685071	1.878363	-0.058947	6
H	-2.947559	-0.797447	-0.452447	1
H	-2.784899	-1.693487	1.084553	1
H	-2.671039	-2.541897	-0.485927	1
H	-1.213899	0.778673	-0.038187	1
H	1.569371	-0.550597	0.022103	1
H	0.668161	2.439383	-0.087057	1
H	3.434721	1.093263	-0.028417	1
H	3.040581	2.904123	-0.092917	1
Es	-0.463248	-0.001115	-0.007708	99
Es	-0.714186	-0.691491	0.016939	99
Es	-0.443070	-2.004922	0.337971	99
Es	2.004829	1.703256	-0.374484	99
Es	0.140981	0.101900	-0.324467	99
Es	-2.650504	-1.661304	0.741587	99
Es	-0.943365	-1.410385	0.044937	99
Es	0.849890	0.266803	-0.011242	99
Es	-1.702956	-1.503062	0.041057	99
Es	-2.775707	-1.054563	-0.285190	99
Es	1.107504	0.940067	-0.034254	99
Es	-0.976381	0.528089	-0.028253	99
Es	0.887735	2.165547	-0.076842	99
Es	0.140487	-2.266190	0.118661	99
Es	-0.163454	-2.357042	0.114572	99
Es	-2.590131	-2.235617	-0.304106	99
Es	2.001841	1.724700	0.261830	99
Es	0.141956	0.126424	0.304610	99
Es	3.192560	1.350185	-0.038501	99
Es	2.685173	1.878387	-0.058947	99
Es	1.374244	1.611520	-0.055850	99
Es	-0.311537	-2.635455	0.124835	99
Es	-0.428960	-2.031096	-0.161627	99
Es	-2.434837	-1.619921	0.052521	99
Es	1.336324	-0.264256	0.009947	99
Es	2.932109	2.569190	-0.081691	99
