36
Properties=species:S:1:pos:R:3:Z:I:1 energy=-341.42847146758146 field_type=dipole dipole="0.000000 0.000000 0.000000" charge=0
C	-1.708575	-1.229157	-0.003944	6
C	-0.209535	-1.305507	0.004126	6
O	0.412675	-2.359057	0.008896	8
C	0.513746	-0.056007	0.002436	6
C	1.126745	0.977103	0.001736	6
C	1.864125	2.212993	0.001376	6
O	1.278645	3.285842	0.000856	8
H	-2.053804	-0.192097	0.011496	1
H	-2.098165	-1.741127	0.880116	1
H	-2.087355	-1.712157	-0.908764	1
H	2.961495	2.119173	0.001666	1
Es	1.130536	0.286283	0.054656	99
Es	0.513627	-0.056192	0.002434	99
Es	0.215829	-2.603210	0.008525	99
Es	-1.708498	-1.229158	-0.003944	99
Es	0.721083	-2.323429	0.009845	99
Es	1.864048	2.212874	0.001374	99
Es	1.487311	1.557385	0.001857	99
Es	1.496541	2.867837	0.252548	99
Es	0.971528	3.254208	0.000974	99
Es	0.190567	-1.955620	-0.243568	99
Es	0.412540	-2.358822	0.008880	99
Es	1.477196	3.526386	0.000341	99
Es	0.161509	-0.638843	0.003526	99
Es	1.126863	0.977308	0.001733	99
Es	-0.952395	-1.246667	0.000651	99
Es	1.496100	2.867376	-0.250093	99
Es	0.708559	0.530852	-0.319955	99
Es	-1.941227	-1.550715	-0.604275	99
Es	1.278792	3.285560	0.000856	99
Es	0.188954	-1.954952	0.258482	99
Es	0.626348	0.581525	0.270494	99
Es	-0.209482	-1.305370	0.004124	99
Es	2.599231	2.137010	0.001616	99
Es	-1.931436	-0.530128	0.006380	99
Es	-1.949307	-1.570331	0.582519	99
