42
Properties=species:S:1:pos:R:3:Z:I:1 energy=-343.7734668946491 field_type=dipole dipole="0.000000 0.000000 0.000000" charge=0
C	-1.620592	-1.691848	0.190435	6
C	-0.099242	-1.632758	0.184555	6
O	0.379158	-2.306628	-0.976125	8
C	0.382778	-0.271588	0.184555	6
C	0.780058	0.850312	0.184555	6
C	1.262078	2.211482	0.184555	6
O	0.232278	3.076232	-0.272895	8
H	-2.036612	-1.205648	1.078085	1
H	-1.961412	-2.731968	0.168145	1
H	-2.039602	-1.204058	-0.696775	1
H	0.284948	-2.174268	1.055035	1
H	0.155738	-1.742178	-1.736205	1
H	2.125528	2.322572	-0.478505	1
H	1.555208	2.525412	1.191045	1
H	0.599688	3.974932	-0.260465	1
Es	-0.857060	-1.638538	0.192543	99
Es	0.185837	3.005726	-0.566113	99
Es	0.685435	-2.310143	-0.958934	99
Es	0.164067	-1.983117	0.772840	99
Es	1.849484	2.270647	-0.261913	99
Es	0.480439	0.315903	-0.166343	99
Es	0.639753	2.755273	-0.094207	99
Es	-1.893624	-1.356489	-0.415605	99
Es	0.379019	-2.306383	-0.976136	99
Es	-1.842596	-2.397782	0.180514	99
Es	0.150451	-0.918223	0.187677	99
Es	0.193766	-2.021752	-0.545704	99
Es	0.780146	0.850566	0.184548	99
Es	0.382694	-0.271799	0.184546	99
Es	0.245805	-1.991160	-1.371646	99
Es	-0.099161	-1.632735	0.184348	99
Es	1.463229	2.407713	0.869300	99
Es	-1.896033	-1.360959	0.795186	99
Es	0.923413	0.198840	0.266010	99
Es	0.451722	3.552946	-0.258292	99
Es	1.011012	1.507260	0.183891	99
Es	0.208122	-2.561381	-0.996159	99
Es	-1.620558	-1.691837	0.190439	99
Es	0.345819	0.361744	0.449232	99
Es	0.232606	3.076348	-0.272732	99
Es	0.012598	3.069040	-0.060522	99
Es	1.261869	2.211505	0.184481	99
