45
Properties=species:S:1:pos:R:3:Z:I:1 energy=-344.97771946160276 field_type=dipole dipole="0.000000 0.000000 0.000000" charge=0
C	-2.767905	1.102540	0.822902	6
C	-1.300785	0.765480	0.630162	6
O	-1.218835	-0.443290	-0.125758	8
C	0.027235	-0.927280	-0.407298	6
C	1.225805	-0.395880	-0.123468	6
C	2.518655	-1.048210	-0.482068	6
O	3.208965	-0.205700	-1.390218	8
H	-2.884135	2.003610	1.431212	1
H	-3.294215	0.275240	1.309952	1
H	-3.254665	1.264720	-0.144248	1
H	-0.829055	0.626210	1.610002	1
H	-0.808625	1.584500	0.093122	1
H	-0.080285	-1.869570	-0.935598	1
H	1.313995	0.550590	0.399182	1
H	2.384905	-2.030880	-0.944458	1
H	3.137214	-1.172140	0.412342	1
H	2.621725	-0.079940	-2.155758	1
Es	3.455821	-0.360799	-1.488540	99
Es	2.411721	-1.727380	-0.797726	99
Es	-1.321934	-0.395285	-0.396619	99
Es	0.666513	-0.806722	0.034860	99
Es	-1.218469	-0.443058	-0.125726	99
Es	0.026918	-0.927223	-0.407273	99
Es	2.518707	-1.048045	-0.482206	99
Es	-1.205741	0.009614	0.154353	99
Es	-3.092867	1.217398	0.165638	99
Es	-1.314290	-0.660396	0.043508	99
Es	0.669490	-0.483628	-0.557848	99
Es	3.227577	0.067652	-1.253096	99
Es	2.878925	-0.152998	-1.794336	99
Es	2.936187	-1.129035	0.127808	99
Es	-0.040360	-1.567399	-0.766020	99
Es	-0.970326	0.670634	1.300226	99
Es	1.225844	-0.395866	-0.123456	99
Es	2.927856	-0.527966	-1.059759	99
Es	-2.767866	1.102545	0.822903	99
Es	1.847423	-0.732531	-0.299457	99
Es	-3.119030	0.542642	1.158791	99
Es	1.283445	0.243523	0.228987	99
Es	3.208633	-0.205900	-1.390278	99
Es	-0.717238	-0.582769	-0.210393	99
Es	-2.835978	1.716244	1.237157	99
Es	-0.956818	1.325661	0.262745	99
Es	-2.035432	0.931216	0.724982	99
Es	-1.300804	0.765264	0.630024	99
