45
Properties=species:S:1:pos:R:3:Z:I:1 energy=-344.9832401370579 field_type=dipole dipole="0.000000 0.000000 0.000000" charge=0
C	-1.628084	-0.167327	0.044650	6
C	-0.096293	-0.144287	-0.003030	6
O	0.378956	-0.985617	1.058840	8
C	0.428396	-0.747427	-1.325350	6
O	0.046336	-2.120577	-1.437220	8
C	0.414716	1.269083	0.178030	6
C	1.294076	1.699313	1.094760	6
H	-2.067804	0.399563	-0.782230	1
H	-1.997214	0.257493	0.985560	1
H	-2.009194	-1.193987	0.003520	1
H	0.038677	-0.604017	1.887160	1
H	1.523096	-0.720087	-1.357880	1
H	0.043247	-0.210067	-2.197610	1
H	0.259937	-2.506197	-0.563710	1
H	0.024126	2.000503	-0.528920	1
H	1.751506	1.031243	1.817840	1
H	1.595516	2.742393	1.125590	1
Es	-1.628056	-0.167301	0.044651	99
Es	0.046569	-2.120417	-1.436948	99
Es	-0.865397	-0.142039	0.014739	99
Es	0.231863	-2.244401	-1.648690	99
Es	0.240607	-1.262243	1.016021	99
Es	-1.918869	0.224284	-0.519084	99
Es	0.378796	-0.985283	1.058883	99
Es	0.168560	0.572646	0.092911	99
Es	1.178715	-0.712731	-1.338175	99
Es	0.414628	1.269039	0.177954	99
Es	1.600856	1.255445	1.588427	99
Es	0.685866	-0.957181	1.066244	99
Es	0.157832	-0.370778	-1.912170	99
Es	-0.259799	-2.123669	-1.458639	99
Es	0.604089	1.542510	0.853952	99
Es	1.498573	2.403955	1.119988	99
Es	0.164257	-0.429244	-0.654101	99
Es	0.168943	-2.312581	-0.972508	99
Es	1.294119	1.699342	1.094825	99
Es	0.141325	1.755732	-0.308331	99
Es	0.193949	-0.654837	0.676055	99
Es	1.101427	1.420527	0.440854	99
Es	0.186214	-0.769940	1.492555	99
Es	-1.866691	0.127849	0.690299	99
Es	-1.877591	-0.856858	0.015222	99
Es	0.191714	-1.596307	-1.374197	99
Es	0.428289	-0.747620	-1.325314	99
Es	-0.096212	-0.144380	-0.002853	99
