47
Properties=species:S:1:pos:R:3:Z:I:1 energy=-309.12043988356584 field_type=dipole dipole="0.000000 0.000000 0.000000" charge=0
C	-2.664618	0.684858	0.845952	6
O	-1.248618	0.571478	0.856772	8
C	-0.773498	-0.180151	-0.259248	6
C	0.734432	-0.244761	-0.189788	6
C	1.274442	-1.092201	0.932101	6
C	1.515772	-0.214381	-1.488648	6
C	1.519693	0.988238	-0.588328	6
H	-2.969957	1.265258	1.720422	1
H	-3.128877	-0.304201	0.903342	1
H	-3.000587	1.207759	-0.054458	1
H	-1.102677	0.304259	-1.186818	1
H	-1.192087	-1.192901	-0.230368	1
H	2.370363	-1.090322	0.955922	1
H	0.944873	-2.130221	0.816501	1
H	0.920552	-0.723722	1.900332	1
H	0.973862	-0.141951	-2.425138	1
H	2.429612	-0.794441	-1.560558	1
H	2.429942	1.219729	-0.046148	1
H	0.967383	1.867679	-0.901838	1
Es	-1.792920	0.594886	0.824807	99
Es	1.141506	1.580983	-0.806827	99
Es	-2.664403	0.684837	0.845947	99
Es	2.138289	1.138210	-0.218682	99
Es	0.734523	-0.244690	-0.189904	99
Es	2.135180	-0.611453	-1.531157	99
Es	1.062674	-0.413863	-0.888802	99
Es	-1.103295	0.280230	0.423680	99
Es	-0.017343	-0.208472	-0.232170	99
Es	1.519649	0.988077	-0.588377	99
Es	1.070806	0.464528	-0.232518	99
Es	1.010720	-0.666118	0.367106	99
Es	-0.773550	-0.180031	-0.259069	99
Es	-1.248840	0.571365	0.856494	99
Es	1.140733	-0.164646	-2.122604	99
Es	1.274441	-1.092195	0.932073	99
Es	1.045922	-1.801279	0.849191	99
Es	2.023143	-1.086866	0.939995	99
Es	-2.987381	0.002442	0.877870	99
Es	-2.899120	1.039037	0.220713	99
Es	1.515723	-0.214296	-1.488512	99
Es	1.035217	-0.843743	1.585341	99
Es	-1.143034	0.854763	0.813200	99
Es	1.630198	0.474571	-1.161083	99
Es	-1.064449	-0.881002	-0.240792	99
Es	-1.177802	0.406343	1.104726	99
Es	-2.874961	1.079763	1.440628	99
Es	-1.001062	0.154472	-0.903889	99
