42
Properties=species:S:1:pos:R:3:Z:I:1 energy=-343.752198101644 field_type=dipole dipole="0.000000 0.000000 0.000000" charge=0
C	-0.417615	-2.636949	-0.217713	6
O	-1.420445	-1.628959	-0.283613	8
C	-0.998975	-0.329639	-0.320353	6
C	0.250285	0.161451	-0.309853	6
C	0.598505	1.585821	-0.350523	6
C	0.579945	2.372101	0.936697	6
O	1.803695	2.085661	0.250927	8
H	-0.918795	-3.609279	-0.190763	1
H	0.177045	-2.538059	0.696307	1
H	0.222345	-2.610929	-1.105423	1
H	-1.869035	0.317711	-0.361493	1
H	1.101165	-0.511649	-0.271363	1
H	0.273025	2.095001	-1.252643	1
H	0.401935	1.856311	1.871847	1
H	0.216925	3.391402	0.907957	1
Es	0.024482	-2.612669	-0.820142	99
Es	-0.339549	-0.057614	0.021168	99
Es	1.403743	1.841499	-0.060597	99
Es	-0.417791	-2.636765	-0.217724	99
Es	0.342318	3.071957	0.921978	99
Es	-1.420001	-1.628843	-0.283603	99
Es	-1.565374	-1.624826	-0.029915	99
Es	0.465067	2.021967	1.573694	99
Es	0.250339	0.161490	-0.309856	99
Es	-0.760333	-3.294425	-0.199559	99
Es	0.431796	0.865749	-0.331386	99
Es	1.395304	2.251048	0.590040	99
Es	1.894264	2.335065	0.094246	99
Es	0.580212	2.372037	0.936529	99
Es	0.819658	-0.292427	-0.283151	99
Es	-0.999121	-0.329908	-0.320354	99
Es	0.384275	1.930466	-0.965972	99
Es	1.945900	1.853483	0.395763	99
Es	0.598762	1.585874	-0.350358	99
Es	0.348601	1.959916	0.301732	99
Es	1.803342	2.085610	0.250945	99
Es	-1.014008	-1.976607	-0.259617	99
Es	-1.553009	-1.645809	-0.542474	99
Es	-0.006170	-2.563148	0.402424	99
Es	-1.587098	0.112819	-0.348514	99
Es	-0.322885	-0.076134	-0.652911	99
Es	-1.201499	-1.146702	-0.297836	99
