42
Properties=species:S:1:pos:R:3:Z:I:1 energy=-343.75504506028756 field_type=dipole dipole="0.000000 0.000000 0.000000" charge=0
C	-1.753922	-1.281354	-0.830515	6
O	-0.472732	-1.100774	-0.239625	8
C	-0.163763	0.133256	0.305115	6
C	-0.996423	1.191036	0.302205	6
C	1.177998	0.213176	0.922005	6
C	2.372528	0.344796	0.008995	6
O	1.992308	1.399966	0.898195	8
H	-1.816232	-2.313354	-1.188425	1
H	-1.884942	-0.618494	-1.691745	1
H	-2.550512	-1.133434	-0.094205	1
H	-1.985562	1.180186	-0.135045	1
H	-0.680803	2.129276	0.751065	1
H	1.287588	-0.427854	1.790715	1
H	2.211688	0.504336	-1.049725	1
H	3.262787	-0.220764	0.250985	1
Es	-0.398090	-0.614462	-0.035325	99
Es	-0.478301	0.793357	0.011571	99
Es	-0.472994	-1.100473	-0.239586	99
Es	-1.791122	-1.981367	-1.071412	99
Es	1.849864	1.619520	0.738819	99
Es	0.503186	0.185298	0.614938	99
Es	1.599885	0.993745	0.980683	99
Es	-0.163698	0.132927	0.305031	99
Es	-0.996454	1.191068	0.302185	99
Es	1.243632	-0.209996	1.513543	99
Es	-1.846444	-0.822457	-1.413379	99
Es	2.172544	1.391913	1.146625	99
Es	2.265051	0.460186	-0.707953	99
Es	1.992232	1.399611	0.898049	99
Es	-0.277543	-1.103577	-0.455439	99
Es	-2.297835	-1.171712	-0.329969	99
Es	-0.449835	-1.280042	-0.004940	99
Es	1.178120	0.213460	0.921946	99
Es	-0.961774	-1.119337	-0.445267	99
Es	-0.737499	0.598004	0.594052	99
Es	-1.664737	1.177469	0.003949	99
Es	1.724896	0.063884	0.382863	99
Es	2.372422	0.345017	0.009211	99
Es	2.223107	1.060097	0.525331	99
Es	-1.753689	-1.281319	-0.830407	99
Es	2.984817	-0.029899	0.174508	99
Es	-0.787224	1.817644	0.604551	99
