47
Properties=species:S:1:pos:R:3:Z:I:1 energy=-309.1370348523235 field_type=dipole dipole="0.000000 0.000000 0.000000" charge=0
C	-0.091544	-1.811775	1.704115	6
O	-0.768193	-0.561235	1.673605	8
C	-0.982813	-0.077395	0.345285	6
C	-2.094293	0.964955	0.416195	6
C	0.285956	0.551005	-0.161695	6
C	0.920197	0.179995	-1.286095	6
C	2.189647	0.800695	-1.770565	6
H	-0.006123	-2.128075	2.747475	1
H	0.916717	-1.723795	1.288975	1
H	-0.659994	-2.571095	1.158095	1
H	-1.318023	-0.897475	-0.301735	1
H	-1.837693	1.776505	1.107465	1
H	-3.014813	0.510445	0.799335	1
H	-2.305263	1.397095	-0.567705	1
H	0.700407	1.347165	0.455225	1
H	0.512496	-0.621775	-1.897765	1
H	2.528946	1.612175	-1.119345	1
H	2.044926	1.207625	-2.775725	1
H	2.979466	0.044955	-1.815145	1
Es	0.285900	0.551024	-0.161615	99
Es	2.085764	1.071562	-2.449757	99
Es	-0.338507	0.235922	0.078761	99
Es	0.418096	0.585968	-0.891818	99
Es	-0.982764	-0.077418	0.345488	99
Es	2.189614	0.800674	-1.770558	99
Es	-2.094277	0.964943	0.416184	99
Es	-1.048570	-0.619916	1.784349	99
Es	2.716786	0.284644	-1.799480	99
Es	-0.768049	-0.561404	1.673307	99
Es	1.554287	0.494331	-1.526852	99
Es	0.560924	1.092648	0.260319	99
Es	0.646283	-0.367104	-1.707407	99
Es	-0.480511	-2.335344	1.320500	99
Es	-1.534304	0.451725	0.377482	99
Es	2.415398	1.350534	-1.324554	99
Es	0.773694	0.144052	-0.550394	99
Es	-0.504341	-1.036449	1.647481	99
Es	-2.231099	1.253393	-0.257308	99
Es	-1.910292	1.515965	0.880578	99
Es	-2.718739	0.650866	0.670519	99
Es	-0.091661	-1.811579	1.704110	99
Es	0.598056	-1.756932	1.414290	99
Es	-0.581532	-0.356493	1.804849	99
Es	0.920260	0.179984	-1.286201	99
Es	-1.205118	-0.646350	-0.104797	99
Es	-0.033568	-2.028446	2.414624	99
Es	-0.828346	-0.409234	1.155838	99
