45
Properties=species:S:1:pos:R:3:Z:I:1 energy=-344.9647783818839 field_type=dipole dipole="0.000000 0.000000 0.000000" charge=0
C	-1.827724	-1.033989	-1.520124	6
O	-2.001524	0.058461	-0.628044	8
C	-1.588474	-0.269429	0.692916	6
O	-0.182804	-0.453449	0.806006	8
C	0.523705	0.767351	0.606486	6
C	1.967906	0.492271	0.881716	6
C	2.965326	0.706921	0.014536	6
H	-2.206294	-0.737659	-2.501664	1
H	-2.394554	-1.905769	-1.179934	1
H	-0.767834	-1.288069	-1.620894	1
H	-2.084954	-1.188959	1.021436	1
H	-1.915174	0.529571	1.367716	1
H	0.165926	1.527711	1.310076	1
H	0.372275	1.126241	-0.417144	1
H	2.199146	0.086591	1.863366	1
H	2.782676	1.103411	-0.979824	1
H	3.992386	0.478791	0.283376	1
Es	-2.086677	-0.831680	-2.187837	99
Es	2.965403	0.706945	0.014469	99
Es	0.054409	0.025891	0.725390	99
Es	-0.104872	-0.637542	0.575813	99
Es	0.277997	1.288283	1.089868	99
Es	2.501494	0.910748	0.557770	99
Es	-0.708334	-0.351044	0.750870	99
Es	-1.588278	-0.269402	0.692682	99
Es	-1.810059	0.278679	-0.719460	99
Es	1.251189	0.630077	0.740053	99
Es	3.663926	0.556831	0.190125	99
Es	-1.922066	-0.376110	-0.938676	99
Es	1.967806	0.492271	0.881773	99
Es	-1.831958	-0.096640	-0.140146	99
Es	-2.001387	0.058119	-0.627934	99
Es	-1.808288	0.289591	1.150264	99
Es	-0.140402	-0.530125	1.100566	99
Es	-2.302144	0.103635	-0.602545	99
Es	2.115499	0.219753	1.549445	99
Es	-0.182994	-0.453114	0.805822	99
Es	-1.827762	-1.033812	-1.519979	99
Es	-1.923459	-0.909111	0.912082	99
Es	0.427357	1.016050	-0.091315	99
Es	2.436052	0.304012	0.324235	99
Es	0.523633	0.767137	0.606548	99
Es	-1.106562	-1.212948	-1.589168	99
Es	-2.213762	-1.635917	-1.280619	99
Es	2.845768	0.976611	-0.661120	99
