42
Properties=species:S:1:pos:R:3:Z:I:1 energy=-343.76611375176816 field_type=dipole dipole="0.000000 0.000000 0.000000" charge=0
O	-2.074251	-0.111285	-0.144864	8
C	-0.656321	0.029385	-0.075714	6
C	0.251099	-0.655245	-1.146434	6
C	1.297210	-0.288805	-0.029394	6
C	0.173929	-0.829405	0.931116	6
O	1.307609	1.160915	0.096836	8
C	-0.100881	1.459585	0.053796	6
H	-2.405941	0.178445	0.722646	1
H	0.368850	-0.125585	-2.095964	1
H	0.077569	-1.718855	-1.340954	1
H	2.279860	-0.758895	-0.031614	1
H	-0.007201	-1.909285	0.933546	1
H	0.217059	-0.463925	1.960926	1
H	-0.323880	2.083155	-0.816594	1
H	-0.404711	1.949795	0.982666	1
Es	-2.171721	0.092411	-0.351964	99
Es	0.053015	-1.557419	0.912598	99
Es	-0.314898	-0.408642	0.507898	99
Es	1.409493	1.224477	0.379520	99
Es	0.173944	-0.829356	0.931048	99
Es	0.198638	-0.576420	1.642333	99
Es	0.251098	-0.655206	-1.146344	99
Es	-0.100663	1.459494	0.053813	99
Es	1.971565	-0.597168	-0.029889	99
Es	1.290382	0.606157	0.049454	99
Es	-0.260707	1.883629	-0.538110	99
Es	0.135765	-1.375448	-1.255648	99
Es	-1.541078	-0.047434	-0.099413	99
Es	-0.280020	-0.308201	-0.689512	99
Es	0.768654	1.269868	0.081559	99
Es	-0.412822	0.759031	-0.007513	99
Es	-2.074094	-0.111183	-0.144635	99
Es	1.431800	1.268060	-0.162146	99
Es	0.330222	-0.290588	-1.798553	99
Es	-0.656487	0.029327	-0.075721	99
Es	-0.319580	1.792626	0.690672	99
Es	0.845155	-0.498863	-0.667229	99
Es	1.297081	-0.288599	-0.029373	99
Es	-2.234070	0.051529	0.327815	99
Es	-2.127642	-0.409517	-0.161138	99
Es	0.800814	-0.601677	0.533609	99
Es	1.307280	1.160654	0.096844	99
