43
Properties=species:S:1:pos:R:3:Z:I:1 energy=-270.90576261977674 field_type=dipole dipole="0.000000 0.000000 0.000000" charge=0
C	-0.179096	-2.098002	-0.874025	6
C	-0.528826	-1.052022	0.179785	6
C	0.040444	0.342648	-0.139165	6
C	-0.446737	1.340458	0.885775	6
C	-1.201836	2.411808	0.605165	6
C	1.484443	0.342648	-0.139165	6
C	2.674604	0.342648	-0.139165	6
H	-0.675806	-3.045582	-0.641785	1
H	0.898054	-2.289083	-0.907795	1
H	-0.505006	-1.779042	-1.869045	1
H	-0.169766	-1.403592	1.156205	1
H	-1.622766	-0.991572	0.249575	1
H	-0.317906	0.640068	-1.133515	1
H	-0.156776	1.163178	1.920575	1
H	-1.517436	2.639708	-0.408105	1
H	-1.515726	3.089818	1.392795	1
H	3.740144	0.345918	-0.138105	1
Es	-0.345444	-1.566238	-0.352781	99
Es	-0.446662	1.340344	0.885763	99
Es	-0.528785	-1.051986	0.179741	99
Es	0.040545	0.342652	-0.139110	99
Es	2.092733	0.681576	-0.252378	99
Es	-1.419009	2.874151	1.133878	99
Es	2.087037	0.269707	0.215097	99
Es	2.674866	0.342643	-0.139163	99
Es	-0.564396	2.062741	0.697289	99
Es	-0.188140	0.840868	0.369919	99
Es	-0.403977	-1.874072	-1.552244	99
Es	-0.179115	-2.097977	-0.874002	99
Es	0.550831	-2.224284	-0.895885	99
Es	-0.216716	-0.336831	0.022181	99
Es	-0.521284	-2.741094	-0.712461	99
Es	-1.201896	2.411881	0.605141	99
Es	-0.279135	-1.283785	0.847226	99
Es	-1.105313	1.702795	0.783283	99
Es	3.371298	0.344242	-0.138200	99
Es	-1.274432	-1.001107	0.223260	99
Es	1.484171	0.342639	-0.139161	99
Es	-0.187736	0.544044	-0.807367	99
Es	2.092342	0.072047	-0.375238	99
Es	-0.245268	1.207825	1.582710	99
Es	0.788414	0.340270	-0.136729	99
Es	-1.418130	2.569404	-0.082135	99
