41
Properties=species:S:1:pos:R:3:Z:I:1 energy=-306.7340968038715 field_type=dipole dipole="0.000000 0.000000 0.000000" charge=0
O	-2.545421	0.055761	-0.388417	8
C	-1.109871	0.061351	-0.464647	6
C	-0.392431	1.105651	0.419013	6
C	0.671869	0.031931	0.751453	6
C	-0.382651	-1.029369	0.353153	6
C	1.865600	0.060241	-0.075017	6
C	2.849909	0.083591	-0.762357	6
H	-2.821961	-0.706739	-0.925347	1
H	-0.781861	0.099761	-1.511377	1
H	-0.977261	1.428151	1.289163	1
H	-0.038081	1.997991	-0.106187	1
H	0.924379	0.000431	1.818363	1
H	-0.020741	-1.884359	-0.226177	1
H	-0.964411	-1.410079	1.201573	1
H	3.722929	0.105681	-1.373187	1
Es	0.216093	0.620977	0.605512	99
Es	-2.545242	0.055559	-0.388573	99
Es	0.671908	0.031930	0.751348	99
Es	-0.789768	-0.555690	-0.087100	99
Es	2.477317	-0.237313	-0.278742	99
Es	-2.006839	0.042603	-0.430969	99
Es	0.862669	0.011124	1.460879	99
Es	1.288868	0.047170	0.315731	99
Es	-0.878689	0.082726	-1.180453	99
Es	2.461705	0.387186	-0.280356	99
Es	3.419568	0.097780	-1.161041	99
Es	-0.133909	-1.615577	-0.041604	99
Es	-0.392402	1.105580	0.419004	99
Es	-0.786114	1.304880	1.011044	99
Es	-2.678142	-0.360083	-0.681888	99
Es	0.221914	-0.554753	0.570104	99
Es	1.865389	0.060238	-0.074867	99
Es	-0.382606	-1.029309	0.353155	99
Es	-0.776688	-1.270669	0.931704	99
Es	-0.147968	1.713603	0.062576	99
Es	2.850108	0.083595	-0.762497	99
Es	-1.110078	0.061342	-0.464579	99
Es	-2.642000	0.306126	-0.535413	99
Es	-2.615228	-0.009619	-0.094712	99
Es	2.158431	0.065590	-0.721473	99
Es	-0.803867	0.649276	-0.050844	99
