39
Properties=species:S:1:pos:R:3:Z:I:1 energy=-342.6676459664755 field_type=dipole dipole="0.000000 0.000000 0.000000" charge=0
O	-2.735644	-0.492192	0.235385	8
C	-1.515534	-0.443682	0.110405	6
C	-0.814114	0.878678	-0.107015	6
C	0.695276	0.908058	0.050065	6
C	1.337445	-0.426892	-0.019915	6
C	0.616296	-1.543882	-0.008915	6
O	-0.774395	-1.586662	0.082605	8
H	-1.249694	1.595828	0.601525	1
H	-1.082494	1.213268	-1.115795	1
H	0.960066	1.373978	1.005615	1
H	1.117425	1.550388	-0.730845	1
H	2.422385	-0.480382	-0.062805	1
H	1.022986	-2.546512	-0.040305	1
Es	-2.841825	-0.778466	0.261387	99
Es	0.972851	-0.971600	-0.355292	99
Es	2.065414	-0.460544	-0.049559	99
Es	1.013024	0.232555	0.010423	99
Es	-0.997784	1.078730	-0.779682	99
Es	-1.020453	-1.125217	0.097649	99
Es	0.885258	-2.218816	-0.031324	99
Es	0.980469	1.335824	-0.480193	99
Es	-0.062579	0.864272	-0.026793	99
Es	-1.125057	0.194484	0.016260	99
Es	-0.814097	0.878588	-0.107003	99
Es	-0.247803	-1.521391	0.043868	99
Es	-2.735303	-0.492153	0.235350	99
Es	-1.515338	-0.443901	0.110400	99
Es	-0.920789	-1.870837	0.103273	99
Es	1.337458	-0.426809	-0.019918	99
Es	-1.107969	1.347055	0.365875	99
Es	-0.771070	-1.540615	0.071367	99
Es	1.005536	-0.984956	0.314775	99
Es	-2.285740	-0.463873	0.445896	99
Es	-2.336633	-0.491479	-0.056434	99
Es	0.695243	0.908002	0.050057	99
Es	-2.848766	-0.205312	0.231267	99
Es	0.873677	1.211391	0.699352	99
Es	0.615929	-1.543974	-0.008901	99
Es	-0.770959	-1.544899	0.082142	99
