36
Properties=species:S:1:pos:R:3:Z:I:1 energy=-341.3937205946019 field_type=dipole dipole="0.000000 0.000000 0.000000" charge=0
O	-1.962265	0.750271	0.836976	8
C	-0.780555	0.659711	0.576826	6
C	0.315455	1.648741	0.200676	6
O	1.229196	0.531981	0.084606	8
C	0.260405	-0.459389	0.516686	6
C	0.047935	-1.450209	-0.509834	6
C	-0.125515	-2.286319	-1.354974	6
H	0.604155	2.336291	0.997386	1
H	0.166405	2.164691	-0.748674	1
H	0.522185	-0.861819	1.500006	1
H	-0.277405	-3.033949	-2.099684	1
Es	0.144380	-0.971703	-0.006444	99
Es	-1.474839	0.748844	0.989863	99
Es	-0.316793	0.016243	0.558785	99
Es	0.047973	-1.450008	-0.509634	99
Es	-0.780500	0.659681	0.576811	99
Es	-1.585503	0.678013	0.496028	99
Es	-2.049519	1.039103	0.814926	99
Es	0.288387	-1.994826	-0.866214	99
Es	-2.088554	0.481812	0.904087	99
Es	0.260506	-0.459302	0.516525	99
Es	0.497653	2.106470	0.740342	99
Es	0.865935	0.133468	0.247625	99
Es	-1.961916	0.750246	0.836900	99
Es	0.315567	1.648544	0.200672	99
Es	-0.091134	-1.605262	-1.176715	99
Es	0.894332	0.968836	0.126835	99
Es	1.278722	0.485416	-0.210422	99
Es	-0.125553	-2.286473	-1.355130	99
Es	0.206547	1.992529	-0.432640	99
Es	-0.224322	-2.770292	-1.839137	99
Es	-0.284472	1.223679	0.391014	99
Es	1.228847	0.532022	0.084713	99
Es	0.421958	-0.734939	1.162928	99
Es	1.443362	0.555859	0.302316	99
Es	-0.315740	-1.981251	-0.735406	99
