36
Properties=species:S:1:pos:R:3:Z:I:1 energy=-341.3794150892761 field_type=dipole dipole="0.000000 0.000000 0.000000" charge=0
O	-2.294478	-1.640951	-0.119330	8
C	-1.124958	-1.749261	-0.464200	6
C	-0.086618	-0.871341	0.095380	6
O	0.968342	-0.546171	-0.821500	8
C	0.082472	0.521589	-0.447100	6
C	0.719352	1.519919	0.356010	6
C	1.251552	2.358849	1.029360	6
H	-0.794238	-2.508981	-1.191750	1
H	0.176022	-1.055681	1.129190	1
H	-0.625008	0.868919	-1.191620	1
H	1.727562	3.103109	1.625560	1
Es	-0.888425	-2.258333	-0.955482	99
Es	-1.818797	-1.843600	-0.059362	99
Es	-0.379379	0.758698	-0.945372	99
Es	1.175307	2.035712	0.406826	99
Es	0.719228	1.519735	0.355869	99
Es	0.082709	0.521389	-0.447083	99
Es	-0.192202	-0.098705	-0.046090	99
Es	1.232800	-0.509809	-0.672317	99
Es	-1.900710	-1.516690	-0.435325	99
Es	-1.124949	-1.749235	-0.464179	99
Es	-0.591148	-1.308661	-0.191329	99
Es	0.405033	1.036894	-0.030451	99
Es	-2.294120	-1.640977	-0.119432	99
Es	1.560261	2.841952	1.416645	99
Es	0.609385	-0.774698	-0.461655	99
Es	0.968068	-0.546086	-0.821326	99
Es	0.659889	2.083322	0.746556	99
Es	0.680169	-0.066726	-0.739619	99
Es	-0.086406	-0.871244	0.095148	99
Es	0.087273	-1.010282	0.777819	99
Es	-2.481102	-1.847990	-0.258457	99
Es	0.879377	-0.652963	-1.099839	99
Es	1.105068	1.681375	0.913522	99
Es	1.251655	2.359009	1.029490	99
Es	-2.335369	-1.411508	0.088954	99
