39
Properties=species:S:1:pos:R:3:Z:I:1 energy=-342.6329341404806 field_type=dipole dipole="0.000000 0.000000 0.000000" charge=0
O	-1.838951	-1.600689	-1.362213	8
C	-0.883521	-1.689519	-0.592723	6
C	0.274839	-0.701119	-0.517213	6
O	0.737289	-0.626589	0.845247	8
C	0.602529	0.730231	1.308627	6
C	0.065369	1.495981	0.161847	6
C	-0.121611	0.683931	-0.875373	6
H	-0.770821	-2.581129	0.047797	1
H	1.094929	-1.073909	-1.137643	1
H	1.585989	1.095091	1.618207	1
H	-0.079021	0.744371	2.163457	1
H	-0.149201	2.554071	0.179617	1
H	-0.517821	0.969281	-1.839633	1
Es	-0.331667	1.037980	-0.265731	99
Es	-1.358979	-1.751005	-1.259269	99
Es	0.737257	-0.626298	0.844999	99
Es	-0.121609	0.683815	-0.875441	99
Es	0.136021	0.747782	1.887057	99
Es	0.332779	1.146924	0.749874	99
Es	1.268740	0.985414	1.516092	99
Es	-1.829550	-1.339431	-1.535002	99
Es	-0.380354	0.863140	-1.525100	99
Es	0.602534	0.730029	1.308515	99
Es	-0.073795	2.208609	0.188622	99
Es	-0.312543	-1.186428	-0.550916	99
Es	0.274850	-0.701136	-0.517003	99
Es	0.811599	-0.962728	-0.943746	99
Es	-1.620523	-1.507080	-0.901558	99
Es	0.272231	1.161348	-0.471258	99
Es	0.551650	-0.631377	0.324589	99
Es	-2.032475	-1.842472	-1.339692	99
Es	-0.796203	-2.288196	-0.147155	99
Es	-1.838792	-1.600693	-1.362094	99
Es	0.543287	-0.799249	1.007566	99
Es	1.033525	-0.684083	0.834728	99
Es	0.671804	-0.109014	0.993570	99
Es	0.065393	1.496037	0.161956	99
Es	-0.883518	-1.689490	-0.592747	99
Es	0.064195	-0.023911	-0.730380	99
