42
Properties=species:S:1:pos:R:3:Z:I:1 energy=-343.7904295565835 field_type=dipole dipole="0.000000 0.000000 0.000000" charge=0
O	-0.142710	-1.134973	2.338453	8
C	-1.154460	-0.656143	1.836073	6
C	-1.354400	-0.430293	0.357663	6
C	-0.085140	-0.628043	-0.464417	6
C	0.927520	0.447577	-0.213567	6
C	1.635750	1.137537	-1.350057	6
O	0.533940	1.750147	-0.665227	8
H	-2.020730	-0.393193	2.467733	1
H	-1.748940	0.582967	0.225743	1
H	-2.123400	-1.137403	0.027923	1
H	-0.358170	-0.642593	-1.526667	1
H	0.369220	-1.601083	-0.243447	1
H	1.431330	0.365127	0.741263	1
H	1.466830	0.797807	-2.363827	1
H	2.623360	1.542567	-1.167647	1
Es	-0.601321	-1.193232	2.126760	99
Es	0.641284	1.967619	-0.474541	99
Es	-1.756393	-0.470177	2.259494	99
Es	-1.869845	-0.909490	0.157961	99
Es	-1.354377	-0.430317	0.357707	99
Es	-1.619558	0.244172	0.284144	99
Es	-1.245282	-0.537161	1.095346	99
Es	0.534102	1.749816	-0.665323	99
Es	0.079724	-1.198462	2.126615	99
Es	2.305079	1.422727	-1.229410	99
Es	0.927430	0.447846	-0.213715	99
Es	-0.143002	-1.134832	2.338305	99
Es	0.607044	1.267718	-0.413939	99
Es	0.960332	1.604883	-0.993565	99
Es	-0.166038	-1.163656	2.647592	99
Es	-0.413178	-0.728092	2.183250	99
Es	1.264066	0.405023	0.433964	99
Es	0.416785	-0.087950	-0.341680	99
Es	-0.085174	-0.628010	-0.464378	99
Es	-0.273819	-0.630230	-1.187689	99
Es	-1.154459	-0.656146	1.836058	99
Es	1.635508	1.137659	-1.349900	99
Es	1.516007	0.912617	-2.043141	99
Es	-0.717703	-0.524859	-0.036291	99
Es	1.429299	0.597852	-0.816484	99
Es	0.220044	-1.281879	-0.312763	99
Es	0.278102	1.716410	-0.836858	99
