47
Properties=species:S:1:pos:R:3:Z:I:1 energy=-309.1436555943617 field_type=dipole dipole="0.000000 0.000000 0.000000" charge=0
O	-3.028435	-2.113556	-0.481853	8
C	-1.640345	-1.966106	-0.215253	6
C	-1.270805	-0.495196	-0.338343	6
C	0.214025	-0.262426	-0.068463	6
C	0.575985	1.218464	-0.198363	6
C	2.038336	1.446794	0.056117	6
C	2.516695	2.224314	1.035467	6
H	-3.236845	-3.059506	-0.394823	1
H	-1.081485	-2.571926	-0.936093	1
H	-1.438395	-2.337396	0.794857	1
H	-1.880135	0.091564	0.359867	1
H	-1.534984	-0.137216	-1.340893	1
H	0.811535	-0.854456	-0.774283	1
H	0.464215	-0.618626	0.939577	1
H	-0.034595	1.809204	0.495197	1
H	0.340946	1.570434	-1.209703	1
H	2.738915	0.952514	-0.613903	1
H	1.859035	2.745303	1.724477	1
H	3.586325	2.357823	1.166417	1
Es	0.624070	-0.667177	-0.556123	99
Es	0.382602	-0.504803	0.622747	99
Es	-1.443160	-0.255370	-1.025810	99
Es	-1.452095	-1.234461	-0.275532	99
Es	2.506832	1.103489	-0.404724	99
Es	-2.502296	-2.082883	-0.377557	99
Es	-1.680461	-0.097826	0.145160	99
Es	2.516734	2.224378	1.035543	99
Es	1.312889	1.333065	-0.067406	99
Es	-0.528488	-0.382040	-0.203811	99
Es	3.242308	2.319539	1.131453	99
Es	2.072697	2.580231	1.506151	99
Es	-1.244678	-2.385443	-0.711269	99
Es	0.576027	1.218440	-0.198358	99
Es	-3.175001	-1.972941	-0.252018	99
Es	-3.028193	-2.113857	-0.481768	99
Es	-1.640566	-1.966117	-0.215298	99
Es	2.278591	2.101189	0.358691	99
Es	-3.070224	-2.038541	-0.777741	99
Es	-3.120979	-2.629351	-0.432371	99
Es	0.162367	1.620238	0.279978	99
Es	0.213999	-0.262396	-0.068478	99
Es	0.404506	0.482282	-0.133209	99
Es	-1.270774	-0.495232	-0.338332	99
Es	-1.491373	-2.223455	0.484453	99
Es	0.422841	1.454150	-0.887622	99
Es	2.038279	1.446725	0.056031	99
Es	2.290420	1.585437	0.760262	99
