42
Properties=species:S:1:pos:R:3:Z:I:1 energy=-343.76905331059584 field_type=dipole dipole="0.000000 0.000000 0.000000" charge=0
O	-0.501364	-1.993115	0.375594	8
C	-0.704113	-1.106555	-0.723056	6
C	-0.156304	0.297605	-0.427836	6
C	-0.704364	0.832065	0.904814	6
O	-0.450773	2.232075	1.037104	8
C	1.287696	0.297605	-0.427836	6
C	2.477857	0.297605	-0.427836	6
H	-0.755274	-2.883525	0.075874	1
H	-1.782594	-1.055965	-0.909506	1
H	-0.224103	-1.538195	-1.609206	1
H	-0.489434	0.965605	-1.232966	1
H	-0.267223	0.322915	1.770644	1
H	-1.790524	0.702455	0.948224	1
H	0.516716	2.338634	1.072384	1
H	3.543797	0.290795	-0.426396	1
Es	-0.375585	-1.395933	-1.336777	99
Es	-0.399519	0.477067	1.485159	99
Es	-0.583357	-1.671509	-0.052804	99
Es	1.888738	0.025144	-0.652798	99
Es	-1.448146	-1.059680	-0.856021	99
Es	0.070046	2.268338	1.054399	99
Es	-0.200690	-2.001148	0.424294	99
Es	-0.450573	2.231887	1.037104	99
Es	-0.521368	1.696170	0.980559	99
Es	2.478123	0.297607	-0.427833	99
Es	-0.156199	0.297553	-0.427825	99
Es	-0.560087	2.312844	1.312266	99
Es	-0.501486	-1.993194	0.375301	99
Es	0.595065	0.295285	-0.423110	99
Es	1.896039	0.636899	-0.553329	99
Es	-0.702647	-1.909283	0.592184	99
Es	1.895332	0.246894	-0.073066	99
Es	3.173910	0.294078	-0.427226	99
Es	-0.370206	0.736570	-0.967459	99
Es	-0.704287	0.832288	0.904744	99
Es	-0.704050	-1.106644	-0.722850	99
Es	-1.445689	0.738964	0.921422	99
Es	-0.542886	2.362572	0.773545	99
Es	-0.404767	0.548308	0.221812	99
Es	1.287437	0.297607	-0.427835	99
Es	-0.405675	-0.401178	-0.563217	99
Es	-0.645163	-2.462543	0.193906	99
