49
Properties=species:S:1:pos:R:3:Z:I:1 energy=-273.29227761609997 field_type=dipole dipole="0.000000 0.000000 0.000000" charge=0
C	-0.877637	-2.255087	-0.920390	6
C	-1.215197	-0.948467	-0.217980	6
C	0.009973	-0.093227	0.058220	6
C	0.912053	-0.619897	1.148459	6
C	0.648903	0.641973	-1.105700	6
C	-0.162047	1.414453	-0.101640	6
C	0.496673	2.406993	0.796760	6
H	-1.794207	-2.809677	-1.146801	1
H	-0.246237	-2.895627	-0.296900	1
H	-0.347817	-2.074307	-1.861550	1
H	-1.727737	-1.161847	0.726720	1
H	-1.930317	-0.399007	-0.842240	1
H	1.821823	-0.022947	1.265579	1
H	1.232233	-1.642477	0.929789	1
H	0.383353	-0.622747	2.106660	1
H	0.229023	0.511213	-2.097750	1
H	1.726923	0.764583	-1.111230	1
H	-1.136277	1.777973	-0.416220	1
H	1.561373	2.205313	0.942480	1
H	0.007303	2.412253	1.775039	1
H	0.407843	3.410563	0.368700	1
Es	1.528560	-0.208131	1.223884	99
Es	-0.877641	-2.255078	-0.920377	99
Es	0.405152	0.111596	-0.601254	99
Es	0.912039	-0.619889	1.148443	99
Es	-1.037552	-1.607019	-0.567542	99
Es	1.223180	2.263441	0.895298	99
Es	0.161854	2.410381	1.464841	99
Es	0.496668	2.406984	0.796753	99
Es	-0.831070	1.651949	-0.320892	99
Es	-1.505554	-2.633085	-1.074207	99
Es	0.547932	-0.622517	1.801543	99
Es	-0.445222	-2.690375	-0.491621	99
Es	0.359037	0.547979	-1.780475	99
Es	0.433959	3.089091	0.502156	99
Es	-1.215164	-0.948487	-0.217991	99
Es	0.648813	0.641976	-1.105572	99
Es	0.469818	-0.348857	0.602774	99
Es	0.281131	1.182594	-0.705957	99
Es	-0.517177	-2.128200	-1.562565	99
Es	-1.561975	-1.095763	0.432807	99
Es	-0.597304	-0.518756	-0.087456	99
Es	-0.161959	1.414337	-0.101682	99
Es	0.184980	1.897589	0.353273	99
Es	-0.177828	0.671240	0.148574	99
Es	1.383034	0.727711	-1.100879	99
Es	1.124793	-1.316785	0.996247	99
Es	0.010014	-0.093107	0.058146	99
Es	-1.700665	-0.567478	-0.649936	99
