42
Properties=species:S:1:pos:R:3:Z:I:1 energy=-339.94576001719895 field_type=dipole dipole="0.000000 0.000000 0.000000" charge=0
C	1.297906	0.026729	0.060851	6
C	0.393956	-1.101931	0.536371	6
N	-0.768394	-1.233251	-0.340889	7
N	-1.852704	-0.451561	-0.096939	7
C	-1.707844	0.812659	0.154601	6
O	-0.592574	1.585769	0.157481	8
C	0.536166	1.158459	-0.610899	6
H	2.043146	-0.358921	-0.645709	1
H	1.847806	0.414989	0.926651	1
H	0.965666	-2.036681	0.532551	1
H	0.074596	-0.939731	1.573221	1
H	-1.071604	-2.211142	-0.348999	1
H	-2.575064	1.423809	0.448481	1
H	1.198226	2.023549	-0.724159	1
H	0.210716	0.887259	-1.622619	1
Es	-1.284745	-0.821427	-0.186128	99
Es	-0.535252	1.559008	0.438086	99
Es	-1.744973	0.015506	0.299517	99
Es	-1.707621	0.812777	0.154618	99
Es	-0.768680	-1.233317	-0.340224	99
Es	-0.956605	-1.819607	-0.319196	99
Es	0.535971	1.158512	-0.610722	99
Es	0.905296	0.584139	-0.268860	99
Es	-1.852098	-0.451320	-0.096941	99
Es	-0.198400	1.385617	-0.130789	99
Es	0.841632	-0.526860	0.295693	99
Es	0.777942	-1.743455	0.525497	99
Es	-0.592606	1.585483	0.157363	99
Es	0.393866	-1.101922	0.536257	99
Es	-1.800745	0.157114	-0.277413	99
Es	1.802245	-0.232338	-0.427460	99
Es	-2.180851	-0.609666	-0.107899	99
Es	-2.292049	1.222060	0.347720	99
Es	0.173103	-0.982175	1.247121	99
Es	0.987020	1.748818	-0.680525	99
Es	-0.676370	-1.139164	-0.644166	99
Es	-0.988341	1.248490	0.123326	99
Es	1.673257	0.294359	0.652331	99
Es	-0.696996	1.838352	0.040097	99
Es	-0.292341	-1.163218	0.068752	99
Es	0.311058	0.967806	-1.296182	99
Es	1.297879	0.026737	0.060843	99
