43
Properties=species:S:1:pos:R:3:Z:I:1 energy=-270.9185478666586 field_type=dipole dipole="0.000000 0.000000 0.000000" charge=0
C	-3.038112	-1.039376	0.010482	6
C	-1.517762	-1.035126	0.010292	6
C	-0.960562	0.388254	-0.007328	6
C	0.483438	0.388254	-0.007328	6
C	1.673598	0.388254	-0.007328	6
C	3.079597	0.388254	-0.007328	6
C	3.781477	1.526264	-0.007298	6
H	-3.414302	-2.067186	0.023172	1
H	-3.432392	-0.544566	-0.883208	1
H	-3.432222	-0.522706	0.891792	1
H	-1.156732	-1.591236	-0.863408	1
H	-1.156572	-1.569506	0.897392	1
H	-1.332212	0.938044	0.865482	1
H	-1.332232	0.916274	-0.893468	1
H	3.593838	-0.568116	-0.007348	1
H	3.295017	2.497004	-0.007278	1
H	4.866138	1.507214	-0.007298	1
Es	-1.271574	-1.394472	0.619318	99
Es	-3.303491	-0.698257	-0.600938	99
Es	1.105366	0.206364	-0.316109	99
Es	-1.517784	-1.035065	0.010291	99
Es	3.407129	0.948166	-0.327176	99
Es	3.459594	2.183406	-0.007242	99
Es	-0.960450	0.388237	-0.007327	99
Es	-2.282719	-1.028445	0.010247	99
Es	1.673851	0.388244	-0.007332	99
Es	-3.292773	-1.740341	0.019201	99
Es	-1.218514	-0.309375	0.001288	99
Es	-1.196018	0.756325	0.582460	99
Es	3.410403	-0.257467	-0.007319	99
Es	0.483173	0.388258	-0.007327	99
Es	-3.303331	-0.683210	0.613329	99
Es	-0.211435	0.389963	-0.007313	99
Es	3.079454	0.388164	-0.007331	99
Es	1.105745	0.210896	0.303772	99
Es	-1.195911	0.741690	-0.605979	99
Es	-3.038091	-1.039374	0.010482	99
Es	3.781527	1.526333	-0.007302	99
Es	-1.271888	-1.408987	-0.589787	99
Es	3.407138	0.948160	0.312601	99
Es	4.516558	1.518988	-0.007349	99
Es	2.357609	0.381192	-0.007347	99
Es	1.085873	0.750424	-0.009631	99
