43
Properties=species:S:1:pos:R:3:Z:I:1 energy=-323.93764324102006 field_type=dipole dipole="0.000000 0.000000 0.000000" charge=0
C	-1.309026	-0.000935	0.745786	6
C	-0.673236	-1.007935	-0.237194	6
C	0.831374	-1.214515	0.016586	6
N	1.611744	0.000385	-0.329524	7
C	0.832894	1.213925	0.020406	6
C	-0.672526	1.008945	-0.234434	6
O	-0.884846	0.002525	-1.308854	8
H	-0.931256	-0.002425	1.770706	1
H	-2.403475	-0.000305	0.753916	1
H	-1.252806	-1.920575	-0.399654	1
H	1.009444	-1.482305	1.064056	1
H	1.201834	-2.044295	-0.595444	1
H	1.677964	0.001505	-1.352484	1
H	1.203094	2.045025	-0.588784	1
H	1.010404	1.478155	1.068616	1
H	-1.251586	1.922825	-0.393694	1
Es	0.936872	-1.395147	0.736445	99
Es	0.073148	1.113163	-0.105988	99
Es	0.831391	-1.214388	0.016545	99
Es	-0.648528	0.002887	-1.528799	99
Es	1.079893	-1.778968	-0.405099	99
Es	-1.190624	0.002676	-1.357842	99
Es	-0.790728	0.409040	-0.936300	99
Es	-0.673250	-1.007747	-0.237336	99
Es	1.244522	-0.519482	-0.178597	99
Es	-1.006618	0.570387	0.333709	99
Es	1.611172	0.000391	-0.329772	99
Es	-1.007310	-0.571204	0.332104	99
Es	-0.884819	0.002526	-1.308501	99
Es	0.832913	1.213795	0.020361	99
Es	0.072055	-1.113028	-0.109198	99
Es	-1.056651	-1.642455	-0.352528	99
Es	-1.308989	-0.000934	0.745752	99
Es	-0.672540	1.008757	-0.234573	99
Es	-1.055659	1.644423	-0.347575	99
Es	-2.051672	-0.000502	0.743375	99
Es	-0.790841	-0.405396	-0.937722	99
Es	1.244712	0.519454	-0.177535	99
Es	-1.047166	-0.002033	1.454978	99
Es	1.634546	0.001083	-0.944023	99
Es	0.938110	1.391990	0.740902	99
Es	1.081412	1.779495	-0.399380	99
Es	1.935373	0.000381	-0.174590	99
