38
Properties=species:S:1:pos:R:3:Z:I:1 energy=-358.5536087066075 field_type=dipole dipole="0.000000 0.000000 0.000000" charge=0
C	1.453384	-0.132245	0.229547	6
O	0.621244	-1.305955	0.424577	8
C	-0.455756	-0.681815	-0.315063	6
C	-1.605146	-0.094445	0.510617	6
N	-1.532276	1.183615	0.707247	7
O	-0.335376	1.685715	0.084527	8
C	0.354804	0.578955	-0.557723	6
H	2.354014	-0.373165	-0.343573	1
H	1.731954	0.326685	1.182677	1
H	-0.752656	-1.252615	-1.196593	1
H	-2.424076	-0.730245	0.876377	1
H	0.589884	0.795515	-1.602613	1
Es	-1.605121	-0.094475	0.510600	99
Es	1.641224	0.183467	0.872365	99
Es	0.729717	-1.528024	0.246316	99
Es	0.621189	-1.305651	0.424476	99
Es	-0.335475	1.685375	0.084433	99
Es	-1.713174	0.645039	0.366209	99
Es	0.954436	0.305055	-0.169648	99
Es	-1.531870	1.183207	0.706916	99
Es	0.517049	0.735423	-1.264349	99
Es	0.952185	-0.874018	0.367184	99
Es	0.180571	-1.087623	0.153762	99
Es	-0.844961	1.419055	0.342030	99
Es	2.064396	-0.293534	-0.168422	99
Es	-1.738570	1.439451	0.879740	99
Es	-0.455653	-0.681880	-0.314889	99
Es	-0.082905	1.245135	-0.149243	99
Es	-0.443340	1.861916	-0.138112	99
Es	-0.165081	1.775529	0.318043	99
Es	-0.098375	-0.031208	-0.502306	99
Es	0.541157	-1.332578	0.720719	99
Es	-0.670448	-1.071804	-0.906439	99
Es	1.453224	-0.132423	0.229547	99
Es	-2.149073	-0.509334	0.754504	99
Es	-1.418515	0.555086	0.862376	99
Es	0.354713	0.579098	-0.557584	99
Es	-1.050573	-0.424753	0.113953	99
