46
Properties=species:S:1:pos:R:3:Z:I:1 energy=-272.1096651309781 field_type=dipole dipole="0.000000 0.000000 0.000000" charge=0
C	-2.616623	-1.988107	0.023506	6
C	-1.096993	-1.942727	0.010316	6
C	-0.579273	-0.504607	-0.005844	6
C	0.948717	-0.463577	-0.022184	6
C	1.441876	0.921314	-0.018804	6
C	1.848417	2.051574	-0.013214	6
C	2.343647	3.428273	-0.004024	6
H	-2.964703	-3.025687	0.037996	1
H	-3.031293	-1.503077	-0.865944	1
H	-3.016703	-1.483277	0.908656	1
H	-0.728783	-2.481457	-0.870444	1
H	-0.714423	-2.465937	0.894456	1
H	-0.955944	0.031773	0.874636	1
H	-0.973573	0.019343	-0.886134	1
H	1.325067	-0.983647	-0.910874	1
H	1.344387	-0.993297	0.852256	1
H	1.543477	4.131433	-0.253994	1
H	3.149086	3.557024	-0.733344	1
H	2.733636	3.694654	0.982986	1
Es	1.206890	0.257227	-0.021094	99
Es	-1.861393	-1.962051	0.016768	99
Es	1.204101	-0.803246	-0.623443	99
Es	1.981241	1.368571	0.049963	99
Es	1.441789	0.921066	-0.018807	99
Es	0.948742	-0.463447	-0.022185	99
Es	1.848503	2.051832	-0.013216	99
Es	1.420791	1.566125	0.261024	99
Es	-0.831985	-2.298917	0.619586	99
Es	-2.896486	-1.654494	-0.585171	99
Es	-2.854091	-2.697360	0.033333	99
Es	-0.841806	-2.309617	-0.596743	99
Es	1.802399	3.886696	-0.171661	99
Es	1.217193	-0.809509	0.569682	99
Es	-0.846369	-0.151041	-0.611039	99
Es	0.203845	-0.470122	-0.013989	99
Es	-0.833046	-1.224633	0.001790	99
Es	-2.616601	-1.988109	0.023506	99
Es	2.600428	3.593691	0.657658	99
Es	-1.097021	-1.942701	0.010316	99
Es	2.878827	3.501428	-0.493163	99
Es	-2.886457	-1.640968	0.629230	99
Es	1.530090	1.530806	-0.359627	99
Es	2.343606	3.428158	-0.004025	99
Es	2.087675	2.718118	-0.008989	99
Es	-0.834378	-0.142591	0.599596	99
Es	-0.579218	-0.504636	-0.005844	99
