40
Properties=species:S:1:pos:R:3:Z:I:1 energy=-322.7852113677819 field_type=dipole dipole="0.000000 0.000000 0.000000" charge=0
C	-2.464969	-0.660366	-0.017585	6
C	-1.005019	-0.469336	-0.007145	6
C	-0.179789	0.627544	-0.001465	6
C	1.123901	0.083014	0.007835	6
C	2.419861	0.795124	0.017315	6
N	1.091681	-1.255486	0.007835	7
O	-0.248729	-1.598786	-0.001775	8
H	-2.987459	0.301244	-0.009925	1
H	-2.784279	-1.227526	0.861955	1
H	-2.774119	-1.208396	-0.912975	1
H	-0.472489	1.666513	-0.003625	1
H	2.274111	1.880264	0.004195	1
H	3.015381	0.524064	-0.860445	1
H	2.991921	0.542134	0.915805	1
Es	-0.301090	-1.489583	0.237863	99
Es	0.299605	-1.425781	-0.013898	99
Es	-0.339651	-1.861219	-0.132891	99
Es	-2.654627	-1.023855	-0.615548	99
Es	-2.464889	-0.660346	-0.017585	99
Es	2.791696	0.621232	0.618696	99
Es	0.491363	0.413514	0.000971	99
Es	-0.516320	-1.169516	-0.097764	99
Es	-1.004972	-0.469615	-0.007142	99
Es	1.123944	0.082993	0.007832	99
Es	1.082450	-0.702863	-0.274569	99
Es	1.091206	-1.255057	0.007835	99
Es	2.807583	0.609138	-0.570199	99
Es	-0.248644	-1.598203	-0.001990	99
Es	-0.502240	0.153603	-0.311197	99
Es	-0.371369	1.328716	-0.003135	99
Es	1.342255	-1.537479	0.008656	99
Es	1.077065	-0.703443	0.292149	99
Es	-2.661594	-1.036691	0.570228	99
Es	-2.805368	-0.008641	-0.012539	99
Es	-1.725185	-0.561008	-0.012956	99
Es	-0.497237	0.155862	0.306790	99
Es	2.310360	1.528275	0.008339	99
Es	-0.179787	0.627563	-0.001481	99
Es	2.419793	0.795103	0.017315	99
Es	1.761025	0.441935	0.012200	99
