46
Properties=species:S:1:pos:R:3:Z:I:1 energy=-325.1271964843307 field_type=dipole dipole="0.000000 0.000000 0.000000" charge=0
C	-2.444499	-0.295023	-0.372707	6
C	-0.939929	-0.153873	-0.475937	6
C	-0.275309	0.907767	0.424793	6
C	0.773101	-0.183273	0.740433	6
C	2.057662	-0.188303	-0.091247	6
O	2.893651	0.896087	0.302573	8
N	-0.225469	-1.192563	0.298233	7
H	-2.790169	-1.182943	-0.912767	1
H	-2.940218	0.575747	-0.814417	1
H	-2.779948	-0.378483	0.667013	1
H	-0.607419	-0.094563	-1.520777	1
H	-0.870209	1.208767	1.295703	1
H	0.083342	1.805597	-0.085357	1
H	1.007761	-0.262633	1.809153	1
H	1.864481	-0.101423	-1.165667	1
H	2.617131	-1.113773	0.079003	1
H	2.435411	1.721967	0.072203	1
H	0.140622	-1.969073	-0.250227	1
Es	3.142106	0.885408	0.125396	99
Es	2.893328	0.896123	0.302419	99
Es	0.948071	-0.238590	1.471468	99
Es	0.772992	-0.183348	0.740339	99
Es	-0.681299	1.104849	1.014869	99
Es	-0.427148	-1.299587	0.567769	99
Es	-2.778258	0.303372	-0.678055	99
Es	-0.275280	0.907735	0.424769	99
Es	-0.020007	1.528093	0.072635	99
Es	2.057775	-0.188117	-0.091176	99
Es	-0.660647	0.450250	-0.055475	99
Es	-2.674539	-0.901382	-0.743698	99
Es	2.626912	1.328832	0.170585	99
Es	0.306776	0.436949	0.612380	99
Es	-0.939871	-0.153948	-0.475850	99
Es	-0.225111	-1.192316	0.297765	99
Es	1.907827	-0.131045	-0.833382	99
Es	2.906440	0.886286	0.608598	99
Es	-1.703833	-0.220772	-0.430120	99
Es	0.013689	-1.649709	-0.051982	99
Es	0.257982	-0.807313	0.486371	99
Es	-0.708926	-0.110006	-1.198036	99
Es	-2.444499	-0.295014	-0.372730	99
Es	-0.542041	-0.790310	-0.088135	99
Es	2.559782	0.502374	0.143568	99
Es	2.431695	-0.823937	0.027408	99
Es	1.406384	-0.180148	0.309425	99
Es	-2.665412	-0.347437	0.334284	99
