39
Properties=species:S:1:pos:R:3:Z:I:1 energy=-338.750601713586 field_type=dipole dipole="0.000000 0.000000 0.000000" charge=0
C	-1.744174	0.164542	0.093009	6
C	-0.268504	0.222962	0.080479	6
C	0.628886	1.263972	-0.037561	6
C	1.899746	0.649132	-0.036451	6
N	1.811285	-0.684918	0.058689	7
N	0.502226	-0.888668	0.195139	7
O	0.039226	-2.180038	0.265539	8
H	-2.177034	1.168062	0.103129	1
H	-2.104144	-0.372058	0.975419	1
H	-2.108864	-0.354888	-0.798861	1
H	0.400876	2.319652	-0.129211	1
H	2.878626	1.111102	-0.118531	1
H	0.241846	-2.418858	-0.650791	1
Es	0.039348	-2.179878	0.265266	99
Es	0.230326	-2.326205	0.454003	99
Es	0.628873	1.263985	-0.037556	99
Es	1.899767	0.649057	-0.036444	99
Es	0.319881	0.780328	-0.286608	99
Es	0.475227	1.976222	-0.098517	99
Es	1.285374	1.014328	-0.031612	99
Es	1.787507	-0.142493	-0.255536	99
Es	0.502164	-0.888744	0.194990	99
Es	2.555952	0.970237	-0.093820	99
Es	-0.993894	0.191291	0.091136	99
Es	0.255741	-0.537468	-0.099749	99
Es	-1.973131	-0.194327	0.683184	99
Es	-1.744088	0.164547	0.093001	99
Es	-1.974064	-0.185772	-0.507688	99
Es	0.141896	-2.308376	-0.220839	99
Es	1.123487	-0.805614	0.122890	99
Es	1.829760	-0.103442	0.288464	99
Es	0.316890	0.831798	0.302180	99
Es	2.045797	-0.974126	0.059498	99
Es	-0.269488	-2.152918	0.296690	99
Es	0.251910	-1.586145	0.227401	99
Es	0.354143	-0.549208	0.448138	99
Es	-0.268496	0.222735	0.080522	99
Es	1.810796	-0.684514	0.058697	99
Es	-2.025066	0.843105	0.097962	99
