42
Properties=species:S:1:pos:R:3:Z:I:1 energy=-339.9333396366264 field_type=dipole dipole="0.000000 0.000000 0.000000" charge=0
C	-1.884325	0.825649	-0.267690	6
C	-0.768345	-0.157441	-0.173730	6
C	0.011455	-0.540151	-1.401110	6
N	0.601775	0.317139	-0.370860	7
N	1.440265	-0.457641	0.424730	7
C	1.865815	0.032359	1.633160	6
O	2.757315	-0.484811	2.294440	8
H	-1.999435	1.358089	0.682570	1
H	-2.824805	0.306799	-0.481350	1
H	-1.720975	1.568899	-1.056380	1
H	-0.958855	-0.917001	0.576290	1
H	-0.216155	-0.047091	-2.338270	1
H	0.343455	-1.566521	-1.498990	1
H	2.034355	-1.169281	0.012260	1
H	1.318455	0.930999	1.964930	1
Es	1.440598	-0.457249	0.424636	99
Es	-0.140032	-0.205915	-2.033873	99
Es	2.757091	-0.484690	2.294264	99
Es	1.032029	-0.090001	0.028529	99
Es	-1.958382	1.182200	0.379467	99
Es	2.285698	-0.454795	2.182076	99
Es	1.484212	0.641803	1.848037	99
Es	2.873088	-0.732353	2.141290	99
Es	0.011181	0.169446	-0.152507	99
Es	1.710475	-0.168555	0.822487	99
Es	-0.546945	-0.466419	-0.877742	99
Es	0.478903	-0.060629	-0.877945	99
Es	1.295035	-0.583333	0.712447	99
Es	-0.881926	-0.670322	0.336253	99
Es	0.254450	-1.229155	-1.459666	99
Es	1.792742	-0.858332	0.160016	99
Es	-1.884308	0.825624	-0.267686	99
Es	2.624532	-0.160998	1.963929	99
Es	-2.515562	0.464957	-0.411302	99
Es	-1.314641	0.344458	-0.229671	99
Es	0.675121	0.669170	-0.426011	99
Es	0.011558	-0.540008	-1.400903	99
Es	1.865731	0.032291	1.633026	99
Es	0.601605	0.316431	-0.370747	99
Es	2.804500	-0.341137	2.560947	99
Es	-0.768142	-0.157373	-0.173847	99
Es	-1.767928	1.323805	-0.804476	99
