46
Properties=species:S:1:pos:R:3:Z:I:1 energy=-325.1273731729133 field_type=dipole dipole="0.000000 0.000000 0.000000" charge=0
C	-1.929977	-0.228003	0.829962	6
C	-0.438947	-0.222753	0.824112	6
C	0.373173	-0.895103	-0.254208	6
N	-0.256517	-1.584383	-1.374608	7
C	0.312473	0.610817	-0.187708	6
C	1.517973	1.388767	0.216782	6
O	2.306803	1.653607	-0.933538	8
H	-2.301777	0.547297	1.507142	1
H	-2.301357	-1.194153	1.184612	1
H	-2.356367	-0.037573	-0.159498	1
H	-0.047847	-0.279963	1.835142	1
H	1.295974	-1.368873	0.078742	1
H	-1.043387	-1.057603	-1.751798	1
H	-0.637557	-2.482513	-1.077868	1
H	-0.263947	1.143207	-0.936258	1
H	2.135313	0.853877	0.945582	1
H	1.222163	2.345896	0.655952	1
H	2.413803	0.807457	-1.402548	1
Es	-2.181783	-0.888108	1.071276	99
Es	-0.018017	-1.279232	-0.868247	99
Es	-1.183183	-0.228663	0.803937	99
Es	-2.214707	-0.099671	0.149755	99
Es	1.518077	1.388793	0.216587	99
Es	-2.178519	0.299384	1.289728	99
Es	-1.929953	-0.228006	0.829956	99
Es	-0.117406	0.355249	0.403836	99
Es	0.312439	0.610661	-0.187636	99
Es	0.373031	-0.895035	-0.254264	99
Es	2.010399	1.530112	-0.500763	99
Es	0.466012	-0.124928	-0.377770	99
Es	-0.438876	-0.222712	0.823977	99
Es	2.355861	1.187524	-1.167825	99
Es	1.312557	2.042608	0.516805	99
Es	-0.088233	0.957863	-0.696911	99
Es	2.585734	1.743152	-0.838424	99
Es	2.306682	1.653310	-0.933442	99
Es	-0.021277	-1.633175	-1.622386	99
Es	1.003486	-1.214449	-0.026621	99
Es	-0.161213	-0.256096	1.510611	99
Es	-0.095403	-0.726116	0.362115	99
Es	-0.737827	-1.259640	-1.575374	99
Es	-0.496123	-2.115549	-1.174246	99
Es	1.933265	1.008236	0.725907	99
Es	2.130073	1.825683	-1.115135	99
Es	0.908588	0.980497	0.027602	99
Es	-0.256942	-1.584283	-1.374146	99
