46
Properties=species:S:1:pos:R:3:Z:I:1 energy=-325.12645568145365 field_type=dipole dipole="0.000000 0.000000 0.000000" charge=0
C	-1.825250	0.243660	0.050164	6
C	-0.314750	0.180540	-0.152216	6
C	0.065060	0.254260	-1.630476	6
N	0.394980	1.231180	0.627404	7
C	1.379380	0.231690	1.092414	6
C	0.403770	-0.900760	0.714784	6
O	0.947730	-2.060600	0.047404	8
H	-2.097280	0.243890	1.112044	1
H	-2.312070	-0.621670	-0.413276	1
H	-2.248560	1.147840	-0.401376	1
H	1.150500	0.268630	-1.779796	1
H	-0.343060	1.157660	-2.097306	1
H	-0.331440	-0.610400	-2.173846	1
H	-0.158690	1.627150	1.388314	1
H	2.313380	0.241780	0.519554	1
H	1.626970	0.300980	2.156154	1
H	-0.192820	-1.226580	1.577204	1
H	1.542150	-1.709250	-0.637146	1
Es	-1.825246	0.243658	0.050163	99
Es	-0.114255	0.206878	-0.895224	99
Es	0.047695	0.811154	0.291439	99
Es	0.529967	1.496383	0.431244	99
Es	0.065068	0.254243	-1.630451	99
Es	-2.151308	-0.345272	-0.266196	99
Es	0.051439	1.431962	1.098539	99
Es	1.124960	-2.200870	0.252776	99
Es	0.958293	-0.394733	0.940911	99
Es	0.403882	-0.900919	0.714654	99
Es	0.713121	-2.196857	-0.096627	99
Es	-0.206574	-0.335895	-1.994675	99
Es	-0.314707	0.180636	-0.152158	99
Es	0.843749	0.831858	0.869904	99
Es	-2.107324	0.861179	-0.257662	99
Es	-1.082702	0.212528	-0.053744	99
Es	-1.999977	0.244796	0.780142	99
Es	2.013594	0.230634	0.687999	99
Es	-0.008639	-1.118828	1.300460	99
Es	1.379276	0.231778	1.092370	99
Es	0.947817	-2.060228	0.047363	99
Es	-0.214352	0.865178	-1.937564	99
Es	1.263241	-1.853129	-0.317236	99
Es	1.550191	0.281951	1.823077	99
Es	0.754444	-1.613942	0.284265	99
Es	-0.003710	-0.428837	0.231187	99
Es	0.394767	1.230707	0.627759	99
Es	0.809217	0.255932	-1.721972	99
