39
Properties=species:S:1:pos:R:3:Z:I:1 energy=-338.86183507797693 field_type=dipole dipole="0.000000 0.000000 0.000000" charge=0
C	-1.968951	-0.219748	0.478218	6
C	-0.677111	-0.106758	0.165878	6
C	0.159109	1.147302	0.092298	6
N	1.437439	0.616592	-0.307802	7
C	1.408639	-0.760618	-0.448532	6
O	2.343719	-1.469198	-0.770692	8
N	0.121169	-1.167938	-0.155512	7
H	-2.468731	-1.182688	0.495958	1
H	-2.562881	0.654852	0.723448	1
H	0.269109	1.637842	1.062868	1
H	-0.190661	1.845252	-0.672352	1
H	2.282849	1.142912	-0.471382	1
H	-0.153701	-2.137808	-0.192402	1
Es	2.343462	-1.468979	-0.770600	99
Es	2.596431	-1.300090	-0.819728	99
Es	-1.454894	-0.124782	0.017579	99
Es	-1.294016	-0.195826	0.653972	99
Es	-2.302671	-0.874517	0.488950	99
Es	1.375481	0.460980	-0.545168	99
Es	2.100810	-1.264310	-0.427274	99
Es	-0.090935	1.616071	-0.416732	99
Es	0.184099	-1.093010	-0.071691	99
Es	0.159242	1.147166	0.092246	99
Es	-1.968998	-0.219754	0.478235	99
Es	-0.271035	0.526530	0.132635	99
Es	2.257802	-1.765635	-0.778291	99
Es	-2.370109	0.372093	0.644252	99
Es	0.908002	0.867665	-0.114341	99
Es	-0.676838	-0.106828	0.165803	99
Es	-0.050424	-1.732687	-0.188253	99
Es	1.408448	-0.760490	-0.448467	99
Es	0.667211	-1.003658	-0.323878	99
Es	-0.249842	-0.719486	-0.042831	99
Es	1.932610	0.931618	-0.373497	99
Es	1.437579	0.616178	-0.307053	99
Es	0.217114	1.476619	0.747786	99
Es	1.477083	0.073094	-0.195953	99
Es	1.975421	-1.214847	-0.905086	99
Es	0.121053	-1.167578	-0.156414	99
