46
Properties=species:S:1:pos:R:3:Z:I:1 energy=-325.11612394923935 field_type=dipole dipole="0.000000 0.000000 0.000000" charge=0
C	-1.676239	-0.418260	0.791557	6
C	-0.187629	-0.465209	0.839777	6
C	0.647231	-1.184720	-0.189763	6
O	-0.020749	-1.777830	-1.314233	8
C	0.709131	0.335410	-0.093213	6
C	0.126922	1.168630	-1.209763	6
N	1.915881	0.940720	0.514437	7
H	-2.044069	0.342731	1.486997	1
H	-2.087718	-1.383290	1.103677	1
H	-2.081928	-0.185879	-0.195023	1
H	0.134971	-0.585739	1.870737	1
H	1.512611	-1.731239	0.176137	1
H	-0.898889	-1.404130	-1.485023	1
H	-0.737988	0.711990	-1.697193	1
H	0.882921	1.337310	-1.985093	1
H	-0.188838	2.144930	-0.825513	1
H	2.316521	0.338500	1.231947	1
H	1.677851	1.816071	0.979547	1
Es	-0.465580	0.847410	-1.529114	99
Es	1.748472	1.456642	0.807442	99
Es	2.131117	0.569332	0.957599	99
Es	2.158156	1.004983	0.267870	99
Es	-0.087699	1.831302	-0.940578	99
Es	0.402555	0.741488	-0.646649	99
Es	0.636159	1.279984	-1.728565	99
Es	-0.020893	-1.777601	-1.314047	99
Es	1.915483	0.940600	0.514828	99
Es	-1.921436	0.100648	1.261472	99
Es	-0.930835	-0.442840	0.783478	99
Es	-1.943963	-0.263736	0.108829	99
Es	0.046422	-0.539753	1.540022	99
Es	0.126915	1.168603	-1.209721	99
Es	0.647050	-1.184669	-0.189933	99
Es	0.200929	-1.524644	-0.883545	99
Es	-0.484639	-1.553235	-1.375949	99
Es	0.178972	0.092524	0.461448	99
Es	-0.187568	-0.465223	0.839654	99
Es	1.381588	0.671028	0.279558	99
Es	-1.953958	-1.073395	1.003421	99
Es	0.148236	-1.708678	-1.556799	99
Es	1.231444	-1.559154	0.053281	99
Es	-0.070279	-2.063818	-1.230327	99
Es	0.709186	0.335350	-0.093096	99
Es	-1.676215	-0.418257	0.791541	99
Es	0.815263	-0.413255	-0.281979	99
Es	0.155791	-0.984961	0.390252	99
