49
Properties=species:S:1:pos:R:3:Z:I:1 energy=-273.3240543007222 field_type=dipole dipole="0.000000 0.000000 0.000000" charge=0
C	-0.731187	-2.050539	-1.595163	6
C	-0.408267	-1.660809	-0.160333	6
C	0.303633	-0.311809	-0.059583	6
C	-0.535587	0.879911	-0.514113	6
C	0.208143	2.075471	0.065487	6
C	0.837043	1.578121	1.365617	6
C	0.648213	0.062061	1.382097	6
H	-1.182627	-3.047489	-1.621643	1
H	0.174463	-2.072249	-2.209283	1
H	-1.439947	-1.351259	-2.048543	1
H	0.229043	-2.437119	0.280407	1
H	-1.337197	-1.646009	0.422867	1
H	1.230423	-0.344859	-0.648603	1
H	-1.548317	0.828571	-0.095533	1
H	-0.619737	0.946721	-1.603133	1
H	0.997343	2.395651	-0.625173	1
H	-0.454807	2.930551	0.228017	1
H	1.900013	1.842011	1.398247	1
H	0.360223	2.034761	2.239587	1
H	1.544053	-0.456139	1.738737	1
H	-0.174917	-0.195549	2.060046	1
Es	-0.535575	0.879920	-0.514101	99
Es	-0.133115	0.269565	-0.309705	99
Es	-0.408264	-1.660806	-0.160373	99
Es	0.508351	1.891862	1.966342	99
Es	-1.214243	-1.570158	-1.903057	99
Es	-1.230422	0.838560	-0.219530	99
Es	-0.570004	-1.852313	-0.886673	99
Es	0.942427	-0.331534	-0.467053	99
Es	0.754134	0.820027	1.388462	99
Es	1.263560	-0.296101	1.627411	99
Es	-0.731183	-2.050537	-1.595147	99
Es	-0.595724	0.925055	-1.262248	99
Es	-0.109225	-2.062800	-2.013476	99
Es	0.481845	-0.145739	0.670361	99
Es	1.568290	1.758753	1.386458	99
Es	0.520583	1.841910	0.722709	99
Es	-1.047510	-1.643645	0.240604	99
Es	0.076165	-0.116463	1.841842	99
Es	-0.176766	1.491622	-0.236989	99
Es	0.032685	-2.194182	0.142002	99
Es	0.303613	-0.311811	-0.059569	99
Es	-0.247442	2.663634	0.176953	99
Es	0.837032	1.578108	1.365600	99
Es	0.648215	0.062084	1.382091	99
Es	0.208144	2.075450	0.065496	99
Es	-1.039834	-2.732678	-1.612999	99
Es	0.751821	2.291481	-0.411149	99
Es	-0.057044	-0.986895	-0.115014	99
