38
Properties=species:S:1:pos:R:3:Z:I:1 energy=-358.57416307529076 field_type=dipole dipole="0.000000 0.000000 0.000000" charge=0
C	-1.920621	-0.166057	0.175408	6
C	-0.597511	-0.120157	-0.020852	6
C	0.207359	1.135493	-0.112532	6
O	1.384319	0.957602	0.674088	8
N	2.163669	-0.138147	0.237218	7
C	1.477689	-1.185437	-0.088842	6
O	0.122079	-1.321647	-0.142302	8
H	-2.513241	0.736602	0.280358	1
H	-2.439241	-1.117607	0.238768	1
H	-0.335531	1.999013	0.284278	1
H	0.490109	1.351423	-1.149092	1
H	1.960919	-2.131078	-0.376502	1
Es	1.861633	-0.473100	-0.189326	99
Es	-0.112204	-0.851514	-0.088725	99
Es	-2.271184	-0.801550	0.216286	99
Es	1.684913	0.458922	0.447045	99
Es	1.866881	-0.668733	0.371022	99
Es	1.384194	0.957392	0.673781	99
Es	0.122272	-1.321308	-0.142276	99
Es	-2.313574	0.443037	0.243353	99
Es	0.086628	-1.467672	0.092700	99
Es	-1.920679	-0.166050	0.175386	99
Es	2.162985	-0.138207	0.237197	99
Es	-0.597204	-0.120384	-0.020897	99
Es	0.073162	-1.414092	-0.403941	99
Es	-0.164300	1.705554	0.156824	99
Es	1.802019	-1.808180	-0.280868	99
Es	2.526466	-0.099366	0.249176	99
Es	0.207510	1.135379	-0.112402	99
Es	-1.324491	-0.127984	-0.251484	99
Es	0.391631	1.265662	-0.818731	99
Es	0.635571	-1.217651	-0.124051	99
Es	0.939355	0.990746	0.351739	99
Es	-1.233689	-0.136833	0.409297	99
Es	-0.197708	0.490644	-0.075600	99
Es	1.557266	1.209497	0.626823	99
Es	1.283564	0.859255	0.944156	99
Es	1.477396	-1.185466	-0.088878	99
