43
Properties=species:S:1:pos:R:3:Z:I:1 energy=-323.9637354834463 field_type=dipole dipole="0.000000 0.000000 0.000000" charge=0
C	-2.088337	-0.888400	-0.002485	6
C	-0.668307	-0.558470	0.306305	6
N	0.400143	-1.411990	-0.192125	7
C	0.257883	-0.064080	-0.779535	6
C	1.428763	0.824330	-0.545145	6
C	1.580183	1.454270	0.809865	6
O	2.206303	1.054290	-1.466485	8
H	-2.711597	0.003110	0.113905	1
H	-2.456937	-1.653090	0.687965	1
H	-2.216627	-1.260410	-1.023875	1
H	-0.548727	-0.202370	1.322175	1
H	0.062263	-2.112550	-0.854485	1
H	-0.122617	-0.033860	-1.795335	1
H	0.674883	2.010180	1.065045	1
H	2.421813	2.152910	0.793905	1
H	1.780913	0.686130	1.560305	1
Es	-0.114839	-1.160282	0.098777	99
Es	1.580156	1.454234	0.809840	99
Es	-2.505296	-0.282651	0.078838	99
Es	0.436139	-0.833152	-0.541542	99
Es	-0.579918	-0.312810	0.994455	99
Es	-0.004347	-0.040720	-1.461402	99
Es	1.428741	0.824317	-0.545115	99
Es	-0.668144	-0.558563	0.306156	99
Es	0.685683	-1.474339	0.014373	99
Es	2.206144	1.054251	-1.466300	99
Es	-2.330681	-1.406561	0.466970	99
Es	-0.291450	-0.088835	-0.239409	99
Es	0.178147	-1.816751	-0.592973	99
Es	1.786869	1.172038	-1.202994	99
Es	2.442961	1.246095	-1.383707	99
Es	2.062091	0.772772	-1.066234	99
Es	-2.088309	-0.888392	-0.002482	99
Es	-1.372665	-0.726882	0.133630	99
Es	2.124231	0.906377	-1.734532	99
Es	0.257900	-0.064297	-0.779385	99
Es	1.500468	1.133047	0.144779	99
Es	1.702308	0.934576	1.299296	99
Es	-2.164123	-1.142069	-0.699393	99
Es	0.820993	0.387254	-0.639513	99
Es	0.399669	-1.411774	-0.192445	99
Es	0.964412	1.816474	0.970411	99
Es	2.142430	1.921042	0.800126	99
