42
Properties=species:S:1:pos:R:3:Z:I:1 energy=-339.99948197154833 field_type=dipole dipole="0.000000 0.000000 0.000000" charge=0
C	-1.997833	-0.908656	-0.119026	6
C	-0.739403	-0.269156	0.354044	6
N	0.504637	-1.031886	0.380774	7
C	0.369287	0.061414	-0.613596	6
C	1.203567	1.274544	-0.394956	6
N	2.077687	1.211564	0.645554	7
O	1.096197	2.254244	-1.118226	8
H	-2.728613	-0.140246	-0.389906	1
H	-2.431103	-1.523506	0.676274	1
H	-1.837033	-1.546876	-0.994446	1
H	-0.906953	0.396674	1.193654	1
H	0.397577	-1.933926	-0.087956	1
H	0.274066	-0.248396	-1.647966	1
H	2.073756	0.389234	1.238524	1
H	2.644167	2.014974	0.877254	1
Es	2.074695	0.747856	1.005257	99
Es	2.400994	1.686873	0.795774	99
Es	0.303869	-0.145439	-1.306460	99
Es	0.798339	0.647751	-0.488644	99
Es	0.953572	2.017286	-0.729183	99
Es	2.077545	1.211616	0.645581	99
Es	1.290854	2.483321	-1.028391	99
Es	-2.485984	-0.387296	-0.298687	99
Es	1.203637	1.274477	-0.394823	99
Es	0.423319	-1.564715	0.088933	99
Es	1.306409	1.834830	-1.029014	99
Es	0.883105	2.212287	-1.343309	99
Es	-0.844960	0.181965	0.923934	99
Es	0.742794	-0.986141	0.653239	99
Es	1.620411	1.310104	0.418979	99
Es	-1.356634	-0.596920	0.104581	99
Es	-0.084904	-0.801537	0.469493	99
Es	-1.997804	-0.908648	-0.119018	99
Es	0.369311	0.061260	-0.613388	99
Es	-0.274103	0.086192	-0.229606	99
Es	2.107350	1.114490	0.293802	99
Es	-0.739183	-0.269260	0.353965	99
Es	0.504246	-1.031850	0.380327	99
Es	1.096225	2.253977	-1.118032	99
Es	-2.283273	-1.323570	0.423368	99
Es	-1.875671	-1.343166	-0.713263	99
Es	0.564506	-0.591593	-0.106230	99
