43
Properties=species:S:1:pos:R:3:Z:I:1 energy=-323.94039024089403 field_type=dipole dipole="0.000000 0.000000 0.000000" charge=0
C	-1.332564	0.454949	1.195875	6
C	0.145116	0.252249	0.883065	6
N	0.442286	-1.130661	0.451755	7
C	0.458026	-1.170131	-1.021015	6
C	0.846336	0.212119	-1.415515	6
O	-0.201204	1.188069	-1.422205	8
C	0.626206	1.099789	-0.253565	6
H	-1.528884	1.499899	1.458875	1
H	-1.642004	-0.171871	2.039005	1
H	-1.971804	0.206329	0.341255	1
H	0.733446	0.466909	1.781815	1
H	-0.255854	-1.779041	0.809125	1
H	1.180436	-1.912921	-1.370355	1
H	-0.532804	-1.424171	-1.413305	1
H	1.709956	0.322619	-2.048555	1
H	1.323316	1.885859	-0.016255	1
Es	-0.601411	0.355060	1.034342	99
Es	0.641853	-0.485080	-1.255307	99
Es	0.441729	-1.130497	0.451536	99
Es	-0.219046	-1.343151	-1.294542	99
Es	0.953635	-1.673842	-1.266269	99
Es	0.145105	0.252135	0.882994	99
Es	0.002112	-1.514809	0.661807	99
Es	0.047734	1.240192	-0.925312	99
Es	-0.467651	1.041649	-1.364151	99
Es	0.357586	0.708797	0.319461	99
Es	0.165620	0.784372	-1.528292	99
Es	-0.116341	1.432306	-1.589099	99
Es	0.279608	-0.536143	0.626333	99
Es	0.625994	1.099820	-0.253802	99
Es	0.415771	-1.144136	-0.191513	99
Es	-1.759017	0.278961	0.617051	99
Es	-1.459957	1.166852	1.377829	99
Es	0.548067	0.410605	1.496946	99
Es	-0.200929	1.187913	-1.422031	99
Es	0.926128	0.584970	-0.744954	99
Es	0.458031	-1.170100	-1.020881	99
Es	1.083089	1.651735	-0.094200	99
Es	0.764878	-1.216081	0.566459	99
Es	-1.536538	0.021664	1.772983	99
Es	0.846080	0.212313	-1.415553	99
Es	1.420817	0.292437	-1.865618	99
Es	-1.332541	0.454948	1.195886	99
