40
Properties=species:S:1:pos:R:3:Z:I:1 energy=-322.847986545218 field_type=dipole dipole="0.000000 0.000000 0.000000" charge=0
C	-1.515161	0.084679	-0.946682	6
C	-0.012361	0.039319	-0.727182	6
N	0.385669	-1.118301	0.015888	7
C	1.047109	-0.808921	1.176558	6
O	1.527069	-1.585671	1.977008	8
C	1.083439	0.654889	1.274568	6
C	0.479079	1.123909	0.175888	6
H	-1.842841	-0.774201	-1.542612	1
H	-1.805461	0.997939	-1.476842	1
H	-2.065451	0.053209	0.000798	1
H	0.525359	0.045579	-1.680902	1
H	0.296919	-2.077351	-0.289802	1
H	1.535059	1.189879	2.089578	1
H	0.361569	2.175049	-0.046262	1
Es	1.078191	-0.064302	1.254389	99
Es	1.526918	-1.585458	1.976755	99
Es	0.218485	-0.642820	-0.330984	99
Es	1.580224	-1.317993	1.584197	99
Es	0.342039	-1.676200	-0.185956	99
Es	-1.877871	0.065740	-0.302690	99
Es	1.083448	0.654821	1.274590	99
Es	0.385906	-1.118238	0.015852	99
Es	1.072963	0.877389	0.599990	99
Es	-0.757100	0.070604	-0.828295	99
Es	0.514257	0.874383	0.902825	99
Es	0.797077	-1.012207	0.331930	99
Es	-1.515118	0.084683	-0.946688	99
Es	0.224373	0.606722	-0.291448	99
Es	-0.012337	0.039213	-0.727061	99
Es	-1.703632	0.708252	-1.309137	99
Es	1.149277	-1.330771	1.830594	99
Es	0.261828	-1.071464	0.332832	99
Es	0.389604	1.830701	0.011107	99
Es	0.350718	0.056819	-1.369274	99
Es	1.486228	-1.886124	1.890172	99
Es	1.383852	1.011434	1.819752	99
Es	-1.727217	-0.500708	-1.353526	99
Es	1.047024	-0.808914	1.176407	99
Es	1.658575	-1.435865	2.213697	99
Es	0.479015	1.123931	0.175774	99
