39
Properties=species:S:1:pos:R:3:Z:I:1 energy=-338.7747372370209 field_type=dipole dipole="0.000000 0.000000 0.000000" charge=0
C	-2.189997	0.276330	-0.004927	6
C	-0.694147	0.313370	-0.012277	6
N	-0.057337	1.439500	-0.043377	7
N	1.338103	1.472140	-0.051287	7
C	1.956323	0.340170	-0.017477	6
C	1.257853	-0.981430	0.030643	6
O	-0.153007	-0.925260	0.021653	8
H	-2.556987	-0.753780	-0.021467	1
H	-2.570707	0.799590	-0.885987	1
H	-2.559567	0.768650	0.899023	1
H	3.056913	0.329050	-0.021667	1
H	1.590403	-1.573130	-0.828037	1
H	1.582153	-1.505200	0.935183	1
Es	-0.245628	1.759529	-0.050788	99
Es	0.642538	1.396224	-0.045094	99
Es	1.480795	-1.327000	0.644692	99
Es	-0.267328	0.971118	-0.319453	99
Es	1.589451	-0.318014	0.006335	99
Es	-0.694070	0.313086	-0.012268	99
Es	1.502703	1.807701	-0.063274	99
Es	-0.252177	-1.006100	0.276408	99
Es	1.257606	-0.981350	0.030639	99
Es	-2.432266	0.624510	-0.591036	99
Es	1.337803	1.471575	-0.051267	99
Es	1.593010	0.941765	-0.323928	99
Es	-0.311999	-0.435669	0.007815	99
Es	1.956319	0.340087	-0.017477	99
Es	-0.253919	-1.026649	-0.228172	99
Es	1.595852	0.961101	0.252403	99
Es	1.486152	-1.373326	-0.552789	99
Es	-0.266272	0.984692	0.257373	99
Es	-0.057037	1.438903	-0.043354	99
Es	-2.428299	-0.418201	-0.015902	99
Es	-0.152794	-0.924869	0.021534	99
Es	2.694557	0.314523	-0.019806	99
Es	-2.189913	0.276331	-0.004926	99
Es	0.380628	-0.902734	0.023059	99
Es	-1.430915	0.285837	-0.009449	99
Es	-2.423298	0.603382	0.596814	99
