38
Properties=species:S:1:pos:R:3:Z:I:1 energy=-358.6647816331287 field_type=dipole dipole="0.000000 0.000000 0.000000" charge=0
C	-1.745087	-0.432389	-0.002670	6
C	-0.287037	-0.248049	-0.000010	6
C	0.563733	0.828591	-0.000290	6
O	0.176303	2.105441	-0.003450	8
N	1.864163	0.430361	0.002990	7
C	1.765323	-0.881419	0.005100	6
O	0.493553	-1.374499	0.003440	8
H	-2.266337	0.529611	0.006170	1
H	-2.061797	-0.998079	0.878910	1
H	-2.060377	-0.981199	-0.895340	1
H	0.994053	2.632611	-0.002820	1
H	2.563503	-1.610979	0.007970	1
Es	0.132980	0.250156	-0.334538	99
Es	0.040259	2.132860	0.253346	99
Es	0.615469	2.369931	-0.002674	99
Es	0.133659	0.250978	0.336308	99
Es	0.176627	2.105287	-0.003447	99
Es	0.352718	1.615530	-0.001474	99
Es	0.563810	0.828866	-0.000295	99
Es	0.493808	-1.374035	0.003403	99
Es	0.624034	-1.295006	0.243145	99
Es	0.198888	-0.959301	-0.023447	99
Es	1.794034	-0.088015	-0.271179	99
Es	-1.745010	-0.432377	-0.002670	99
Es	0.042400	2.131181	-0.261983	99
Es	1.765079	-0.881495	0.005098	99
Es	-1.946231	-0.813578	0.591054	99
Es	2.297335	-1.369935	0.006234	99
Es	0.408310	-1.650223	-0.095549	99
Es	-0.286921	-0.248324	-0.000048	99
Es	-2.083729	0.214924	0.003148	99
Es	-1.005699	-0.337991	-0.001446	99
Es	1.790289	-0.084679	0.281242	99
Es	2.154538	0.652497	0.002953	99
Es	1.294318	0.625780	-0.000172	99
Es	0.942497	-1.192239	-0.112144	99
Es	-1.945282	-0.802242	-0.603742	99
Es	1.863707	0.430036	0.002989	99
