41
Properties=species:S:1:pos:R:3:Z:I:1 energy=-359.77003211635446 field_type=dipole dipole="0.000000 0.000000 0.000000" charge=0
C	-1.492610	0.141516	-0.299919	6
C	0.027360	0.113396	-0.332519	6
O	0.473760	0.302946	-1.662979	8
C	0.625320	-1.118464	0.323661	6
O	0.913750	-0.735734	1.675671	8
N	1.070800	0.672266	1.710211	7
C	0.575080	1.131026	0.613021	6
H	-1.885140	0.033066	0.717121	1
H	-1.908190	-0.659134	-0.921189	1
H	-1.870410	1.086396	-0.706949	1
H	1.445990	0.237716	-1.671378	1
H	1.560150	-1.436354	-0.151229	1
H	-0.059770	-1.971624	0.333021	1
H	0.523910	2.202986	0.373451	1
Es	1.185546	-0.857624	1.754696	99
Es	0.655409	-0.765925	1.826565	99
Es	1.070531	0.671966	1.709694	99
Es	0.543752	1.843634	0.454504	99
Es	0.803471	-0.857392	1.149101	99
Es	0.575088	1.131048	0.613013	99
Es	0.995907	0.266287	-1.642365	99
Es	0.473970	0.302810	-1.662701	99
Es	0.979425	-0.118055	1.646717	99
Es	0.303839	0.651286	0.132266	99
Es	-1.492561	0.141519	-0.299913	99
Es	1.266508	-1.319658	-0.015618	99
Es	0.625361	-1.118385	0.323873	99
Es	0.399385	0.591267	-1.738260	99
Es	0.593603	0.906669	1.332692	99
Es	0.317798	-0.522198	-0.022556	99
Es	0.913674	-0.735558	1.675376	99
Es	1.223381	0.815464	2.020593	99
Es	0.332182	0.231705	-1.144920	99
Es	0.027442	0.113451	-0.332704	99
Es	-0.724818	0.127313	-0.310978	99
Es	-1.742376	0.065906	0.389875	99
Es	0.370416	0.060647	-1.813420	99
Es	-1.737861	0.785250	-0.570495	99
Es	-1.762634	-0.404586	-0.715852	99
Es	0.159484	-1.694189	0.330611	99
Es	1.121623	0.862479	1.085942	99
