45
Properties=species:S:1:pos:R:3:Z:I:1 energy=-288.10608638040776 field_type=dipole dipole="0.000000 0.000000 0.000000" charge=0
C	-1.329823	-0.000656	0.837092	6
C	-0.723273	-1.024636	-0.150248	6
C	0.773127	-1.269526	0.076092	6
C	1.575377	-0.000186	-0.227218	6
C	0.773977	1.268814	0.079642	6
C	-0.722653	1.025494	-0.147258	6
N	-0.959193	0.001774	-1.224988	7
H	-0.943743	-0.002146	1.859782	1
H	-2.426363	-0.000496	0.873562	1
H	-1.297963	-1.949396	-0.261308	1
H	0.941917	-1.582826	1.113112	1
H	1.128077	-2.085056	-0.564418	1
H	1.820597	0.001284	-1.298288	1
H	2.534457	-0.001166	0.302012	1
H	1.129427	2.086024	-0.558498	1
H	0.942747	1.579014	1.117532	1
H	-1.296763	1.950954	-0.256068	1
H	-1.919933	0.002734	-1.570528	1
Es	1.012631	-1.826989	-0.362778	99
Es	0.023549	-1.142461	-0.040347	99
Es	0.879338	1.479471	0.794370	99
Es	-0.723281	-1.024506	-0.150332	99
Es	-1.039553	-0.579550	0.426145	99
Es	-1.553442	0.002285	-1.391432	99
Es	-1.062789	-0.001670	1.551403	99
Es	-0.959540	0.001778	-1.224530	99
Es	-0.723288	0.002215	-1.515789	99
Es	-1.112738	1.669296	-0.227497	99
Es	0.878416	-1.482280	0.790248	99
Es	0.024237	1.142598	-0.037152	99
Es	1.741829	0.000831	-0.954827	99
Es	1.013873	1.827364	-0.357640	99
Es	0.773950	1.268779	0.079637	99
Es	0.773099	-1.269491	0.076088	99
Es	2.230513	-0.000883	0.143585	99
Es	-0.872492	0.489756	-0.800916	99
Es	1.575329	-0.000186	-0.227183	99
Es	-2.080582	-0.000473	0.847127	99
Es	1.169401	0.633760	-0.060713	99
Es	-1.113821	-1.668041	-0.232098	99
Es	1.168999	-0.634328	-0.062539	99
Es	-0.722660	1.025365	-0.147345	99
Es	-1.039087	0.579157	0.427705	99
Es	-1.329809	-0.000656	0.837063	99
Es	-0.872476	-0.487468	-0.801969	99
