46
Properties=species:S:1:pos:R:3:Z:I:1 energy=-325.12256534127937 field_type=dipole dipole="0.000000 0.000000 0.000000" charge=0
C	-1.462119	-2.032670	0.479003	6
C	-0.544879	-1.781530	-0.708457	6
C	0.500311	-0.763541	-0.384147	6
O	0.794631	0.149159	-1.451107	8
C	0.152851	0.701430	-0.291667	6
C	0.996721	1.622639	0.521013	6
N	0.578411	2.998639	0.270933	7
H	-2.185609	-2.818430	0.242823	1
H	-2.017359	-1.126740	0.741313	1
H	-0.890409	-2.341630	1.359383	1
H	-1.147519	-1.466171	-1.569137	1
H	-0.051829	-2.719951	-0.990987	1
H	1.320351	-1.153951	0.201923	1
H	-0.889209	0.987030	-0.351777	1
H	2.059361	1.512379	0.279423	1
H	0.868891	1.396260	1.584073	1
H	0.725921	3.206850	-0.717627	1
H	1.191481	3.630229	0.785013	1
Es	-0.997049	-1.905139	-0.108494	99
Es	0.234688	-0.067506	-0.113946	99
Es	0.578970	2.998561	0.270783	99
Es	0.741699	-0.273573	-1.101216	99
Es	0.686910	3.115468	-0.324693	99
Es	0.500377	-0.763336	-0.384382	99
Es	-0.025177	-1.264877	-0.544764	99
Es	-1.838369	-1.412165	0.655036	99
Es	0.794546	0.149124	-1.450740	99
Es	0.996645	1.622766	0.520982	99
Es	-0.544877	-1.781525	-0.708401	99
Es	0.238086	3.048574	0.360240	99
Es	0.153014	0.701283	-0.291915	99
Es	0.579095	1.158104	0.110184	99
Es	-0.953746	-1.559425	-1.287475	99
Es	0.904662	1.466723	1.247181	99
Es	1.093712	0.236826	-1.442961	99
Es	-0.203337	-2.420326	-0.896959	99
Es	1.068433	-1.026895	0.013140	99
Es	0.782200	2.405467	0.372314	99
Es	-1.953356	-2.569151	0.317005	99
Es	0.966284	3.371273	0.575535	99
Es	-0.552842	0.897739	-0.345388	99
Es	0.587955	0.099043	-1.678440	99
Es	-1.462094	-2.032667	0.478982	99
Es	1.723790	1.532058	0.355168	99
Es	0.540237	0.457138	-1.066216	99
Es	-1.066381	-2.243374	1.078956	99
