43
Properties=species:S:1:pos:R:3:Z:I:1 energy=-323.9232134110257 field_type=dipole dipole="0.000000 0.000000 0.000000" charge=0
C	-1.077939	-1.415549	0.922491	6
C	-0.682539	-0.942709	-0.469209	6
C	-0.324849	0.516661	-0.489889	6
C	-1.176299	1.485811	-0.859169	6
C	1.058691	0.923981	-0.127019	6
N	1.984541	0.083781	0.206811	7
O	3.164021	0.788831	0.476041	8
H	-1.327599	-2.481380	0.901221	1
H	-1.956299	-0.872499	1.288251	1
H	-0.265459	-1.273519	1.642471	1
H	-1.516789	-1.133519	-1.155959	1
H	0.153361	-1.545629	-0.842879	1
H	-2.196319	1.250121	-1.148419	1
H	-0.893459	2.533881	-0.881239	1
H	1.269130	2.008991	-0.161879	1
H	3.787811	0.072751	0.698381	1
Es	-1.077935	-1.415539	0.922448	99
Es	1.993465	-0.294195	0.242916	99
Es	2.647647	0.481755	0.357382	99
Es	3.494578	0.401865	0.595343	99
Es	-0.324713	0.516607	-0.489842	99
Es	1.058650	0.923953	-0.127034	99
Es	3.240538	0.914562	0.206024	99
Es	3.097410	0.951434	0.726781	99
Es	-0.115466	-1.340651	-0.719691	99
Es	0.378522	0.703282	-0.296995	99
Es	-0.824953	1.041327	-0.361149	99
Es	1.486167	0.475248	0.334824	99
Es	-0.631994	0.982822	-0.973852	99
Es	1.641776	0.426050	-0.223157	99
Es	-1.256972	-1.061727	-0.935314	99
Es	-1.176366	1.485883	-0.859187	99
Es	1.984570	0.084402	0.206764	99
Es	-1.867979	1.330645	-1.056906	99
Es	-0.873769	-1.160881	0.225205	99
Es	3.163988	0.788496	0.476091	99
Es	-1.248052	-2.142470	0.902407	99
Es	-0.682544	-0.942641	-0.469175	99
Es	-0.985142	2.195646	-0.872326	99
Es	-0.527027	-1.316570	1.408017	99
Es	1.196191	1.653560	-0.151210	99
Es	-0.496522	-0.198016	-0.476862	99
Es	-1.678018	-1.042176	1.166817	99
