46
Properties=species:S:1:pos:R:3:Z:I:1 energy=-325.20519772284666 field_type=dipole dipole="0.000000 0.000000 0.000000" charge=0
C	-2.364476	-1.643331	-0.045100	6
C	-0.862006	-1.412981	-0.004030	6
C	-0.523166	0.077369	-0.003920	6
C	0.985764	0.304829	0.040540	6
C	1.341874	1.775789	0.012370	6
N	2.683654	2.023659	0.025100	7
O	0.533423	2.694389	-0.016920	8
H	-2.582926	-2.715391	-0.055130	1
H	-2.804806	-1.198141	-0.942470	1
H	-2.851636	-1.205121	0.831170	1
H	-0.399846	-1.899251	-0.871620	1
H	-0.448836	-1.889571	0.893040	1
H	-0.995646	0.563929	0.858450	1
H	-0.942226	0.550229	-0.900850	1
H	1.462924	-0.179571	-0.819060	1
H	1.402994	-0.130941	0.955820	1
H	3.381793	1.294109	0.039480	1
H	2.983153	2.989999	0.003130	1
Es	2.307737	1.937267	-0.231862	99
Es	0.985789	0.304886	0.040538	99
Es	2.872330	2.587449	0.007341	99
Es	-2.513101	-2.376780	-0.051751	99
Es	0.795715	2.388774	0.242051	99
Es	-1.617224	-1.525950	-0.024573	99
Es	3.098152	1.589096	0.027802	99
Es	1.342050	1.775771	0.012365	99
Es	-0.541397	-1.744808	-0.602760	99
Es	1.317541	-0.011807	-0.540265	99
Es	0.249621	0.196981	0.018580	99
Es	2.377603	1.961721	0.291145	99
Es	-0.523088	0.077335	-0.003917	99
Es	-0.575168	-1.738060	0.615038	99
Es	-0.685020	-0.670009	-0.003341	99
Es	2.683638	2.023639	0.024975	99
Es	1.166561	1.041264	0.025710	99
Es	-0.803180	0.389871	-0.619323	99
Es	1.276658	0.022077	0.658507	99
Es	0.802105	2.376433	-0.255196	99
Es	-2.693698	-1.341933	0.554312	99
Es	-0.839962	0.399487	0.588386	99
Es	0.238115	2.599035	-0.018590	99
Es	-2.364452	-1.643331	-0.045099	99
Es	-2.661541	-1.337463	-0.658833	99
Es	-0.862030	-1.412961	-0.004026	99
Es	0.533634	2.694198	-0.016909	99
Es	0.685329	2.971478	-0.021829	99
