40
Properties=species:S:1:pos:R:3:Z:I:1 energy=-322.7963224121891 field_type=dipole dipole="0.000000 0.000000 0.000000" charge=0
C	-3.092512	-0.534424	-0.018362	6
C	-1.648512	-0.534424	-0.018362	6
C	-0.458352	-0.534424	-0.018362	6
C	0.985648	-0.534424	-0.018362	6
N	1.486168	0.815746	0.021538	7
C	2.829828	1.065636	0.047138	6
O	3.709938	0.217596	0.045308	8
H	-3.486502	0.486456	-0.006702	1
H	-3.486592	-1.054914	0.859908	1
H	-3.486592	-1.034734	-0.908282	1
H	1.383618	-1.018114	-0.917002	1
H	1.384189	-1.072624	0.848478	1
H	0.831718	1.586056	0.012918	1
H	3.047958	2.146595	0.070148	1
Es	-0.458072	-0.534420	-0.018362	99
Es	1.258719	0.243470	0.002252	99
Es	1.099007	1.268878	0.012852	99
Es	-1.047736	-0.337149	-0.326362	99
Es	-3.338548	-0.882079	0.568964	99
Es	0.985571	-0.534215	-0.018357	99
Es	-1.648782	-0.534426	-0.018362	99
Es	3.415038	0.504974	-0.203655	99
Es	1.815882	0.882085	0.299579	99
Es	1.872633	0.895955	-0.231993	99
Es	3.406137	0.496073	0.294691	99
Es	-1.033634	-0.891843	-0.031672	99
Es	1.231657	-0.893196	0.562543	99
Es	2.966631	1.809312	0.062601	99
Es	-1.048320	-0.360203	0.302791	99
Es	3.590547	-0.068727	0.038281	99
Es	1.486265	0.815736	0.021527	99
Es	-3.338569	-0.868591	-0.613465	99
Es	0.240713	-0.525705	-0.018318	99
Es	-3.092395	-0.534421	-0.018361	99
Es	2.829654	1.065627	0.047138	99
Es	-3.337213	0.148915	-0.010559	99
Es	-2.347244	-0.534442	-0.018414	99
Es	3.709719	0.217789	0.045309	99
Es	3.987095	0.347838	0.052718	99
Es	1.231821	-0.857675	-0.620851	99
