46
Properties=species:S:1:pos:R:3:Z:I:1 energy=-325.09839089317956 field_type=dipole dipole="0.000000 0.000000 0.000000" charge=0
C	-1.844018	-0.453233	-0.153067	6
C	-0.316688	-0.334323	-0.086197	6
C	0.213022	-1.268313	1.007913	6
C	0.275672	-0.687153	-1.455387	6
O	-0.048558	1.041137	0.244333	8
N	1.332612	1.277077	0.339093	7
C	1.517172	2.518747	0.630443	6
H	-2.255868	0.231697	-0.903437	1
H	-2.299028	-0.172593	0.803973	1
H	-2.161988	-1.471093	-0.402117	1
H	-0.161628	-0.965973	1.992503	1
H	1.306712	-1.237873	1.066393	1
H	-0.083298	-2.306943	0.825953	1
H	-0.058618	0.024487	-2.219046	1
H	-0.013118	-1.696143	-1.768887	1
H	1.370362	-0.641033	-1.442807	1
H	2.539302	2.908677	0.750413	1
H	0.687952	3.232857	0.769923	1
Es	0.564090	1.134505	0.282611	99
Es	-2.148775	-0.267913	0.501147	99
Es	1.409794	1.771054	0.753171	99
Es	-0.050654	-1.062107	1.674109	99
Es	0.275653	-0.687161	-1.455373	99
Es	0.003899	-1.973215	0.874724	99
Es	-0.011575	-0.513064	-0.776991	99
Es	-0.138849	1.222622	0.007462	99
Es	-0.048250	1.040863	0.244184	99
Es	0.039281	-0.204028	-1.971775	99
Es	-2.119105	0.009039	-0.668691	99
Es	2.201548	2.779914	0.710867	99
Es	-1.085963	-0.389947	-0.118831	99
Es	1.517198	2.518767	0.630453	99
Es	-1.843998	-0.453241	-0.153068	99
Es	0.213005	-1.268314	1.007896	99
Es	1.566067	0.987955	0.279342	99
Es	-0.109835	0.522606	0.119139	99
Es	1.014745	-0.660633	-1.442179	99
Es	0.951640	-1.249881	1.041108	99
Es	-0.043243	-0.806018	0.465836	99
Es	1.426601	1.901366	0.187472	99
Es	-0.144940	1.089919	0.532730	99
Es	0.071235	-1.376234	-1.659968	99
Es	-2.048666	-1.149188	-0.323023	99
Es	0.964467	2.999766	0.724635	99
Es	1.332191	1.277528	0.339184	99
Es	-0.316648	-0.334116	-0.086147	99
