41
Properties=species:S:1:pos:R:3:Z:I:1 energy=-359.7728702587189 field_type=dipole dipole="0.000000 0.000000 0.000000" charge=0
C	-0.691023	-1.747881	0.052340	6
C	0.579917	-0.961581	-0.211240	6
C	0.310877	0.523509	-0.136110	6
C	0.384367	1.165669	1.233940	6
O	0.583067	0.492029	2.233840	8
N	0.003247	1.170609	-1.222720	7
O	-0.237373	2.526559	-0.985770	8
H	-0.494983	-2.822241	-0.013310	1
H	-1.466123	-1.495891	-0.678790	1
H	-1.092013	-1.532951	1.047840	1
H	0.961287	-1.200631	-1.210670	1
H	1.359627	-1.235051	0.507090	1
H	0.257177	2.257489	1.261300	1
H	-0.458053	2.860359	-1.877740	1
Es	-0.690975	-1.747856	0.052328	99
Es	-0.237394	2.526417	-0.986055	99
Es	0.035014	2.633030	-0.897822	99
Es	0.591524	0.662495	2.495354	99
Es	-0.485586	2.529684	-0.805753	99
Es	-0.959982	-1.598174	0.725439	99
Es	0.757644	0.768516	1.827141	99
Es	0.423763	0.954057	-0.756169	99
Es	0.343156	0.853225	0.532353	99
Es	0.611737	0.187937	2.169143	99
Es	-0.354215	2.697028	-1.462090	99
Es	-0.133248	1.932616	-1.084007	99
Es	-0.551516	-2.476226	0.005919	99
Es	0.384344	1.165598	1.233877	99
Es	0.833161	-1.116741	-0.888835	99
Es	-0.052283	-1.333199	-0.077386	99
Es	-0.030028	1.050914	-1.585173	99
Es	0.261580	0.709582	1.882157	99
Es	0.445568	-0.193684	-0.172539	99
Es	-0.136090	0.835640	-0.665580	99
Es	0.310878	0.523551	-0.136083	99
Es	1.102096	-1.134833	0.271484	99
Es	0.579862	-0.961491	-0.211231	99
Es	0.583017	0.492228	2.233527	99
Es	-1.213267	-1.573229	-0.448281	99
Es	0.003282	1.170877	-1.222124	99
Es	0.298943	1.897635	1.248168	99
