45
Properties=species:S:1:pos:R:3:Z:I:1 energy=-341.10004918939035 field_type=dipole dipole="0.000000 0.000000 0.000000" charge=0
C	-1.002392	0.550296	1.717254	6
C	0.121648	-0.018444	0.856904	6
C	0.313748	-1.506034	1.134674	6
N	-0.258022	0.161186	-0.550907	7
C	0.734298	0.357276	-1.349256	6
N	0.606918	0.540666	-2.702306	7
O	-0.681602	0.946646	-3.074206	8
H	-1.136522	1.619116	1.518504	1
H	-0.780592	0.427856	2.782363	1
H	-1.956362	0.054116	1.506693	1
H	1.045958	0.521616	1.099983	1
H	-0.592762	-2.075054	0.900504	1
H	0.563618	-1.677744	2.186674	1
H	1.125608	-1.914394	0.523353	1
H	1.789098	0.380436	-1.022946	1
H	1.348838	1.051006	-3.175797	1
H	-1.241482	0.581456	-2.351487	1
Es	-0.746891	0.799649	-3.343559	99
Es	0.606839	0.541300	-2.701897	99
Es	-0.092811	0.759517	-2.891734	99
Es	-0.843823	0.463512	2.446038	99
Es	-0.956801	0.749352	-2.701152	99
Es	-0.067150	0.087998	0.040963	99
Es	0.313759	-1.506022	1.134679	99
Es	0.653290	0.565338	-2.113027	99
Es	1.036931	0.866834	-2.963527	99
Es	-0.304253	-1.886653	0.977099	99
Es	0.170424	-0.039564	-0.904912	99
Es	-0.681505	0.946462	-3.073916	99
Es	-1.088792	1.279001	1.582591	99
Es	0.675247	0.202819	-2.684569	99
Es	0.734339	0.357277	-1.349444	99
Es	-1.646640	0.206326	1.574124	99
Es	0.120946	0.527613	-0.816119	99
Es	0.872622	-1.779474	0.715852	99
Es	-1.002371	0.550291	1.717261	99
Es	-0.443179	0.264716	1.291996	99
Es	0.767392	0.353359	1.016859	99
Es	0.121584	-0.018453	0.856774	99
Es	0.219709	-0.768532	0.993936	99
Es	1.453699	0.372425	-1.134013	99
Es	-0.257504	0.161239	-0.550852	99
Es	-0.680286	1.257357	-3.038560	99
Es	0.485344	-1.616768	1.855033	99
Es	-0.611353	0.148139	-0.667744	99
