41
Properties=species:S:1:pos:R:3:Z:I:1 energy=-359.8517470916432 field_type=dipole dipole="0.000000 0.000000 0.000000" charge=0
C	-1.489197	0.507099	-0.078549	6
C	-0.018497	0.296469	0.093491	6
C	0.630143	-0.878851	0.058181	6
N	0.126603	-2.132041	-0.184539	7
C	0.756773	1.529909	0.368781	6
O	1.851234	1.648649	-0.412109	8
O	0.404384	2.379298	1.168151	8
H	-1.677607	1.259399	-0.852059	1
H	-1.938627	0.854899	0.857491	1
H	-2.012167	-0.404721	-0.380259	1
H	1.704503	-0.919251	0.244741	1
H	-0.879956	-2.221591	-0.062859	1
H	0.633173	-2.882111	0.284261	1
H	1.909233	0.962849	-1.104719	1
Es	0.589857	2.622637	1.176117	99
Es	2.021226	1.577616	-0.201805	99
Es	0.343944	-0.202264	-0.259727	99
Es	0.630154	-0.879064	0.058157	99
Es	1.834287	1.913981	-0.523292	99
Es	0.314275	-1.592747	-0.009812	99
Es	-0.018514	0.296562	0.093469	99
Es	0.126564	-2.131793	-0.183951	99
Es	0.425043	-2.563978	0.112806	99
Es	-1.781819	0.732343	0.546832	99
Es	-1.605453	1.010287	-0.601217	99
Es	0.377236	0.903986	0.219201	99
Es	0.149859	2.281442	1.309206	99
Es	0.757000	1.529896	0.368616	99
Es	-1.833283	-0.125743	-0.283156	99
Es	-0.743330	0.390773	0.007638	99
Es	1.358364	-0.904049	0.179448	99
Es	1.856421	1.276420	-0.766838	99
Es	1.850933	1.648363	-0.412171	99
Es	0.385781	2.201798	0.716271	99
Es	-1.489126	0.507061	-0.078557	99
Es	0.210047	-2.093094	-0.475319	99
Es	1.420939	1.584467	-0.150800	99
Es	0.404480	2.379086	1.167945	99
Es	0.244083	-0.245915	0.396037	99
Es	0.668604	1.975404	1.068147	99
Es	-0.469039	-2.179491	-0.093293	99
