42
Properties=species:S:1:pos:R:3:Z:I:1 energy=-340.02064640709904 field_type=dipole dipole="0.000000 0.000000 0.000000" charge=0
C	-1.371168	-0.440699	-1.006431	6
C	-0.890878	-0.407269	0.433269	6
C	0.113372	0.701421	0.635579	6
N	-0.219958	1.864271	1.074949	7
N	1.428202	0.537261	0.326849	7
C	2.094012	-0.556719	-0.168781	6
O	3.299043	-0.570219	-0.384431	8
H	-2.089447	-1.254049	-1.149631	1
H	-0.541748	-0.588919	-1.705061	1
H	-1.864118	0.500491	-1.273601	1
H	-0.448308	-1.369049	0.708959	1
H	-1.742648	-0.245069	1.102779	1
H	-1.227538	1.909641	1.265099	1
H	2.004773	1.350121	0.500869	1
H	1.456402	-1.431209	-0.360421	1
Es	0.851961	0.572760	0.448409	99
Es	1.418331	0.487362	0.327250	99
Es	1.415005	0.503434	0.301627	99
Es	2.093889	-0.556574	-0.168701	99
Es	-1.703016	0.197050	-1.179760	99
Es	2.838175	-0.485047	-0.543821	99
Es	-0.579043	-1.056149	0.615943	99
Es	-0.800097	-0.543364	-1.472575	99
Es	0.009843	2.151776	1.119688	99
Es	-0.831278	1.874701	1.187282	99
Es	-0.152174	1.471580	0.635269	99
Es	0.113558	0.701302	0.635508	99
Es	-1.112083	-0.413912	-0.276472	99
Es	3.298709	-0.570216	-0.384372	99
Es	2.920998	-0.646314	-0.075604	99
Es	-1.855229	-0.993896	-1.095979	99
Es	-0.890816	-0.407220	0.433239	99
Es	1.693236	0.053118	0.114115	99
Es	-0.051264	1.303084	1.167463	99
Es	3.426266	-0.295105	-0.312178	99
Es	-1.461706	-0.287194	0.884932	99
Es	3.392730	-0.841413	-0.494477	99
Es	1.765488	1.010204	0.426088	99
Es	-0.220224	1.863860	1.074867	99
Es	-0.361313	0.137588	0.532523	99
Es	-1.371137	-0.440701	-1.006373	99
Es	1.644415	-1.143475	-0.293458	99
