45
Properties=species:S:1:pos:R:3:Z:I:1 energy=-341.1872404585062 field_type=dipole dipole="0.000000 0.000000 0.000000" charge=0
C	-2.465627	-1.240102	-0.160240	6
C	-0.968057	-1.243172	0.088150	6
C	-0.368507	0.151278	-0.045750	6
O	1.045783	0.051018	0.194140	8
C	1.817873	1.152818	0.156820	6
N	3.101053	0.868828	0.443310	7
N	1.425933	2.335948	-0.140480	7
H	-2.867907	-2.253482	-0.065780	1
H	-2.695377	-0.875982	-1.166620	1
H	-2.981657	-0.600732	0.562920	1
H	-0.475147	-1.924032	-0.616240	1
H	-0.756747	-1.640092	1.088400	1
H	-0.814857	0.827258	0.692120	1
H	-0.537117	0.537108	-1.057180	1
H	3.371523	-0.083932	0.245890	1
H	3.742143	1.577368	0.110760	1
H	0.426693	2.359898	-0.330220	1
Es	-0.368233	0.151244	-0.045702	99
Es	-2.465589	-1.240097	-0.160235	99
Es	1.171355	-0.094661	-0.025957	99
Es	1.045628	0.051448	0.194055	99
Es	-0.661217	-0.537800	0.020859	99
Es	-2.812741	-0.800599	0.333628	99
Es	1.643688	2.626321	-0.157722	99
Es	0.534216	0.138144	0.099064	99
Es	-0.485212	0.420171	-0.737033	99
Es	-0.828083	-1.505500	0.772263	99
Es	3.100896	0.868823	0.442730	99
Es	-0.674419	0.617096	0.455554	99
Es	1.297947	0.500341	0.172028	99
Es	-2.617355	-0.988454	-0.847135	99
Es	1.425693	2.335501	-0.140440	99
Es	-0.968080	-1.243117	0.088133	99
Es	2.560075	0.973382	0.249048	99
Es	1.598007	1.840072	-0.307350	99
Es	-2.735436	-1.928450	-0.095482	99
Es	1.817863	1.152500	0.156896	99
Es	-0.634035	-1.700718	-0.398696	99
Es	3.476191	1.276868	0.229898	99
Es	1.090608	-0.031755	0.471840	99
Es	3.257364	0.309540	0.305413	99
Es	3.017369	0.909579	0.728971	99
Es	0.819170	2.330023	-0.248850	99
Es	-1.716662	-1.230051	-0.038119	99
Es	1.504130	1.935486	0.244971	99
