44
Properties=species:S:1:pos:R:3:Z:I:1 energy=-360.94849485537554 field_type=dipole dipole="0.000000 0.000000 0.000000" charge=0
C	-1.450796	-0.752616	-0.008706	6
C	0.039574	-0.610586	-0.295176	6
C	0.460494	-1.525836	-1.438696	6
O	0.318894	0.742294	-0.709826	8
C	0.579844	1.663784	0.246314	6
N	0.604264	1.413074	1.509174	7
O	0.911574	2.592334	2.200004	8
H	-1.755096	-0.092526	0.809784	1
H	-1.705086	-1.781066	0.264994	1
H	-2.046316	-0.464186	-0.881816	1
H	0.627004	-0.875596	0.591884	1
H	-0.071506	-1.273106	-2.362496	1
H	0.269914	-2.576216	-1.198706	1
H	1.528744	-1.404346	-1.647966	1
H	0.769634	2.649514	-0.208196	1
H	0.918854	2.295074	3.129434	1
Es	0.318888	0.742249	-0.709444	99
Es	0.460485	-1.525832	-1.438671	99
Es	0.402605	1.061475	-0.298057	99
Es	0.326006	-2.236595	-1.265099	99
Es	0.604359	1.413595	1.508936	99
Es	-0.710937	-0.678952	-0.149022	99
Es	0.246987	-1.066176	-0.875561	99
Es	0.777139	2.073801	1.890906	99
Es	0.706812	2.323081	-0.052937	99
Es	0.911524	2.592025	2.200166	99
Es	0.883950	1.450035	0.971066	99
Es	0.667372	2.776129	2.158318	99
Es	0.545514	1.098222	1.703341	99
Es	-1.653122	-0.308432	0.545305	99
Es	-1.847710	-0.561849	-0.608555	99
Es	0.091571	-1.354262	-2.061195	99
Es	1.200261	2.670300	2.113129	99
Es	0.304806	1.579826	1.008637	99
Es	0.438590	-0.785837	0.305302	99
Es	-1.613316	-1.455394	0.175358	99
Es	0.579781	1.663578	0.246116	99
Es	1.187245	-1.445150	-1.574371	99
Es	-1.450772	-0.752625	-0.008710	99
Es	0.915587	2.426176	2.694153	99
Es	0.083637	0.861835	-0.836117	99
Es	0.039592	-0.610339	-0.295299	99
Es	0.221585	0.265134	-0.515532	99
Es	0.582191	0.756211	-0.831393	99
