39
Properties=species:S:1:pos:R:3:Z:I:1 energy=-338.7874779868439 field_type=dipole dipole="0.000000 0.000000 0.000000" charge=0
C	-1.988205	0.782565	1.688877	6
C	-1.150215	0.201675	0.820277	6
C	0.173455	0.808605	0.517957	6
O	0.564355	1.840255	1.059577	8
N	0.956125	0.160335	-0.407893	7
N	0.584355	-0.981535	-1.053763	7
C	1.452145	-1.432445	-1.895673	6
H	-2.952925	0.339475	1.908807	1
H	-1.729535	1.708505	2.195007	1
H	-1.418025	-0.720725	0.321177	1
H	1.852564	0.593385	-0.599193	1
H	1.232415	-2.351156	-2.461603	1
H	2.423495	-0.948935	-2.093553	1
Es	0.775171	0.305586	-0.465201	99
Es	0.584942	-0.981214	-1.053859	99
Es	0.257700	-1.116082	-0.965195	99
Es	1.501354	0.390654	-0.513921	99
Es	0.535669	1.358735	1.058525	99
Es	-1.829109	1.395674	2.030474	99
Es	0.354276	1.949224	1.259087	99
Es	0.863865	-1.016998	-1.642546	99
Es	-1.324656	-0.413443	0.485607	99
Es	-0.482179	0.487822	0.654104	99
Es	0.173529	0.808481	0.517826	99
Es	0.564265	1.839972	1.059425	99
Es	0.801401	-0.407392	-0.718446	99
Es	0.331398	1.629528	0.696275	99
Es	-1.394388	0.318281	1.462968	99
Es	1.310253	-2.045943	-2.276179	99
Es	0.956178	0.159738	-0.406832	99
Es	1.106744	-1.333611	-1.222184	99
Es	-1.654956	0.651687	0.986055	99
Es	0.852002	1.922400	0.957268	99
Es	-2.640068	0.485981	1.839520	99
Es	-1.988275	0.782586	1.688930	99
Es	-1.150089	0.201681	0.820212	99
Es	2.110395	-1.097839	-2.024213	99
Es	0.694884	0.312674	0.059782	99
Es	1.452147	-1.432443	-1.895653	99
