43
Properties=species:S:1:pos:R:3:Z:I:1 energy=-323.99482451415014 field_type=dipole dipole="0.000000 0.000000 0.000000" charge=0
C	0.088493	-1.655952	1.138911	6
C	-0.545737	-1.312352	-0.198879	6
N	-0.284777	0.035818	-0.633259	7
C	-0.711387	1.276358	0.018021	6
C	0.500913	1.952578	-0.653309	6
C	0.945283	0.513518	-0.972859	6
O	1.964623	-0.042832	-1.301709	8
H	-0.128547	-2.694982	1.405191	1
H	-0.296557	-1.013782	1.937391	1
H	1.176203	-1.533402	1.106791	1
H	-1.631967	-1.439922	-0.148399	1
H	-0.156997	-1.990672	-0.966709	1
H	-0.676697	1.235318	1.110121	1
H	-1.688927	1.626428	-0.321459	1
H	0.279343	2.549958	-1.541129	1
H	1.166733	2.493918	0.021291	1
Es	-0.681734	1.246164	0.764402	99
Es	-0.272644	0.124905	-0.955118	99
Es	-0.393787	-0.532254	-0.431722	99
Es	1.919374	-0.344431	-1.305593	99
Es	2.189471	0.153982	-1.356054	99
Es	0.088466	-1.655941	1.138896	99
Es	-0.711307	1.276227	0.017934	99
Es	-0.137698	1.692078	-0.286992	99
Es	0.796505	1.282540	-0.849652	99
Es	0.949989	2.312941	-0.198816	99
Es	0.820127	-1.569735	1.113920	99
Es	-0.064949	-2.361202	1.315077	99
Es	1.694296	0.130947	-0.949317	99
Es	0.347578	2.344207	-1.248521	99
Es	-0.545694	-1.312175	-0.198887	99
Es	-0.224832	-1.472623	0.476649	99
Es	-1.289058	-1.395862	-0.158472	99
Es	0.267107	0.166778	-0.674379	99
Es	-0.179951	-1.212227	1.680246	99
Es	-0.284478	0.035844	-0.632892	99
Es	-0.283771	-1.767084	-0.716665	99
Es	1.553315	0.159625	-1.432392	99
Es	0.500884	1.952517	-0.653294	99
Es	-0.519839	0.526439	-0.312716	99
Es	-1.385214	1.515200	-0.207369	99
Es	0.945128	0.513540	-0.972831	99
Es	1.964339	-0.042689	-1.301607	99
