44
Properties=species:S:1:pos:R:3:Z:I:1 energy=-304.062548621726 field_type=dipole dipole="0.000000 0.000000 0.000000" charge=0
C	-0.177872	-0.464752	-0.344247	6
C	-0.605632	-0.403262	1.094623	6
C	-1.937842	0.192518	1.468853	6
N	-1.711352	-1.248082	1.558843	7
N	0.613118	0.739778	-0.630237	7
C	2.042048	0.483128	-0.800277	6
C	1.156728	0.748798	-1.987047	6
H	0.374898	-1.398012	-0.511857	1
H	-1.054572	-0.486682	-1.003777	1
H	0.227708	-0.295262	1.778783	1
H	-2.601613	0.521338	0.678513	1
H	-2.016442	0.736748	2.401343	1
H	-1.564542	-1.528742	2.530313	1
H	2.420778	-0.520752	-0.651027	1
H	2.705117	1.275628	-0.474067	1
H	1.217588	1.721097	-2.460607	1
H	0.911888	-0.073482	-2.648127	1
Es	-1.197940	0.103984	1.232592	99
Es	-1.143914	-0.999846	1.357342	99
Es	-0.402456	-0.446950	0.376357	99
Es	0.984666	0.185381	-2.432033	99
Es	1.250258	0.587334	-0.557690	99
Es	-0.037912	-0.329030	1.565825	99
Es	1.156705	0.748770	-1.986801	99
Es	2.291527	-0.203650	-0.693356	99
Es	-1.612419	-1.397967	2.147592	99
Es	-1.936411	-0.637704	1.583477	99
Es	2.495148	1.019103	-0.575004	99
Es	1.776341	0.597806	-1.530795	99
Es	0.298240	0.196624	-0.524397	99
Es	0.613374	0.739258	-0.630547	99
Es	-2.389755	0.415376	0.932170	99
Es	1.195578	1.407643	-2.312914	99
Es	-1.937765	0.192257	1.468875	99
Es	-1.711052	-1.247634	1.559169	99
Es	-1.874497	-1.469395	1.327910	99
Es	-1.993456	0.561636	2.107194	99
Es	0.720119	0.751111	-1.280217	99
Es	-0.177791	-0.464631	-0.344238	99
Es	2.041814	0.483168	-0.800318	99
Es	0.214680	-1.102073	-0.463593	99
Es	-0.605854	-0.403373	1.094689	99
Es	-0.776399	-0.475882	-0.792418	99
Es	0.510349	1.046778	-0.486285	99
