46
Properties=species:S:1:pos:R:3:Z:I:1 energy=-325.1278116605428 field_type=dipole dipole="0.000000 0.000000 0.000000" charge=0
C	-1.959963	-0.633224	0.190349	6
C	-0.459813	-0.775874	-0.048451	6
N	-0.200073	-1.360624	-1.360491	7
C	0.226137	0.558166	-0.009101	6
C	0.721927	1.121226	1.300049	6
C	1.703377	0.640056	0.272739	6
O	2.407767	1.671756	-0.431521	8
H	-2.153263	-0.192194	1.174789	1
H	-2.459363	-1.607784	0.154359	1
H	-2.428793	0.017596	-0.556851	1
H	-0.042183	-1.441814	0.715689	1
H	-0.648733	-0.794784	-2.079091	1
H	-0.646403	-2.275114	-1.413131	1
H	-0.187823	1.264226	-0.721331	1
H	0.610577	0.531206	2.201489	1
H	0.640047	2.190606	1.457409	1
H	2.236657	-0.282704	0.480039	1
H	2.639917	1.369276	-1.326941	1
Es	-2.271891	-0.188823	-0.327604	99
Es	-0.050720	1.037019	-0.495015	99
Es	0.226240	0.558198	-0.008965	99
Es	2.203087	1.895130	-0.465765	99
Es	2.145778	1.259080	-0.187713	99
Es	0.666851	1.839659	1.402948	99
Es	0.291896	0.867623	0.708038	99
Es	1.354051	0.928484	0.908491	99
Es	-0.338053	-1.111044	-0.799693	99
Es	2.519148	1.484633	-0.907124	99
Es	-0.490996	-1.907523	-1.385104	99
Es	-2.090672	-0.333972	0.862893	99
Es	-0.492096	-1.013863	-1.782079	99
Es	-0.172248	-1.232157	0.478225	99
Es	2.672463	1.713325	-0.284286	99
Es	-1.959967	-0.633225	0.190353	99
Es	-0.112810	-0.104614	-0.013225	99
Es	0.721946	1.121135	1.299887	99
Es	0.642174	0.711873	1.906782	99
Es	-2.296677	-1.303489	0.162033	99
Es	-0.459820	-0.775911	-0.048578	99
Es	0.148991	-1.390186	-1.427907	99
Es	1.703335	0.640287	0.272658	99
Es	0.990339	0.509734	-0.039250	99
Es	2.067451	0.012205	0.410310	99
Es	-1.224906	-0.698072	0.075345	99
Es	-0.200644	-1.360595	-1.360392	99
Es	2.407690	1.671483	-0.431622	99
