45
Properties=species:S:1:pos:R:3:Z:I:1 energy=-341.2036980298435 field_type=dipole dipole="0.000000 0.000000 0.000000" charge=0
C	-0.553877	-1.655852	1.205143	6
C	-0.520497	-1.202992	-0.247097	6
N	-0.051957	0.173118	-0.398827	7
C	-1.026977	1.223058	-0.131037	6
C	1.308763	0.376148	-0.473297	6
N	1.716863	1.661718	-0.602567	7
O	2.152053	-0.513602	-0.430487	8
H	-0.880018	-2.698592	1.268793	1
H	-1.248007	-1.048312	1.794163	1
H	0.434833	-1.577412	1.668293	1
H	-1.517327	-1.282442	-0.695007	1
H	0.138443	-1.871052	-0.813837	1
H	-1.920447	1.041038	-0.735527	1
H	-0.650597	2.221117	-0.361237	1
H	-1.292057	1.195428	0.929923	1
H	1.191483	2.230768	-1.248217	1
H	2.719323	1.727867	-0.729177	1
Es	-1.210136	-1.245891	-0.547867	99
Es	1.631963	1.705368	-0.312628	99
Es	0.102467	0.210264	-0.690599	99
Es	2.303093	1.695984	-0.700120	99
Es	1.853520	-0.273927	-0.687450	99
Es	0.111510	-1.600211	1.515066	99
Es	-0.520462	-1.202800	-0.247067	99
Es	1.895919	-0.195797	-0.202741	99
Es	-1.635345	1.095658	-0.540934	99
Es	-0.553901	-1.655843	1.205119	99
Es	2.151805	-0.513315	-0.430500	99
Es	2.434892	-0.385521	-0.475312	99
Es	1.401848	1.986622	-0.997057	99
Es	2.034341	-0.800673	-0.372659	99
Es	-1.026844	1.222931	-0.131080	99
Es	1.537487	1.110939	-0.617633	99
Es	-0.248144	-0.401493	-0.308916	99
Es	1.308612	0.376278	-0.473295	99
Es	-0.763958	1.893135	-0.294779	99
Es	-0.051607	0.173164	-0.398179	99
Es	1.716906	1.661351	-0.603031	99
Es	-0.780050	-2.365025	1.242260	99
Es	-0.540727	-1.421985	0.486563	99
Es	-1.211801	1.206321	0.590168	99
Es	-1.032552	-1.235705	1.602909	99
Es	-0.082065	-1.648280	-0.629383	99
Es	0.484139	0.264241	-0.257180	99
Es	-0.452191	0.632036	-0.270398	99
