39
Properties=species:S:1:pos:R:3:Z:I:1 energy=-338.84075322489457 field_type=dipole dipole="0.000000 0.000000 0.000000" charge=0
C	-0.884553	-1.426163	-0.652364	6
C	0.511167	-0.942223	-0.302884	6
N	0.562867	0.498867	-0.180894	7
C	0.222957	1.148367	0.990716	6
O	-0.106883	0.570457	2.020566	8
C	0.269277	2.607017	0.950366	6
N	0.322417	3.765477	0.858876	7
H	-0.894723	-2.515013	-0.760864	1
H	-1.227043	-0.983613	-1.593724	1
H	-1.604903	-1.152623	0.125546	1
H	1.217667	-1.227783	-1.088484	1
H	0.840937	-1.395713	0.637836	1
H	0.770817	1.052947	-1.004694	1
Es	-0.231460	0.788960	1.593337	99
Es	0.251895	1.926159	0.955441	99
Es	0.223010	1.148509	0.990550	99
Es	0.529538	-0.094667	-0.227346	99
Es	0.222404	0.732804	0.137886	99
Es	-0.106789	0.570612	2.020281	99
Es	0.674603	0.824869	-0.669106	99
Es	-0.187524	-1.175178	-0.476427	99
Es	0.600766	3.187404	0.905093	99
Es	0.339136	4.128470	0.831232	99
Es	0.511143	-0.941999	-0.302893	99
Es	0.322397	3.765008	0.858910	99
Es	-0.165976	0.765285	2.248382	99
Es	-0.102486	0.267078	1.970616	99
Es	0.734700	-1.241152	0.326846	99
Es	-0.882470	-2.165161	-0.725835	99
Es	0.245412	0.771840	1.733927	99
Es	-0.884512	-1.426156	-0.652365	99
Es	0.759501	0.655482	0.150664	99
Es	-1.365006	-1.238209	-0.126767	99
Es	0.151875	3.204040	0.630977	99
Es	0.989688	-1.126515	-0.842536	99
Es	0.140327	3.257534	1.163968	99
Es	0.562466	0.498974	-0.180833	99
Es	-1.109049	-1.120814	-1.296381	99
Es	0.269259	2.606642	0.950402	99
