41
Properties=species:S:1:pos:R:3:Z:I:1 energy=-359.8575284792324 field_type=dipole dipole="0.000000 0.000000 0.000000" charge=0
C	-0.451188	-1.991179	0.034695	6
C	0.683562	-1.018909	0.291545	6
N	0.189602	0.332071	0.427305	7
C	0.284842	1.272481	-0.571035	6
O	0.831532	1.137161	-1.653895	8
C	-0.365848	2.599651	-0.228985	6
O	-1.051648	2.721591	0.777295	8
H	-0.067438	-3.011049	-0.063345	1
H	-0.990868	-1.735309	-0.884245	1
H	-1.173278	-1.975029	0.859165	1
H	1.411202	-1.067769	-0.523785	1
H	1.193752	-1.272879	1.224665	1
H	-0.337828	0.600042	1.256115	1
H	-0.156398	3.409122	-0.945495	1
Es	0.858298	1.262979	-1.184690	99
Es	-0.998596	2.606241	0.269645	99
Es	0.008997	0.558910	0.006367	99
Es	0.428009	1.111013	-1.378893	99
Es	-0.592054	2.740829	0.533839	99
Es	0.831384	1.137165	-1.653574	99
Es	-0.365843	2.599599	-0.228954	99
Es	1.169321	-1.046919	-0.252749	99
Es	0.390074	-0.232156	0.364476	99
Es	0.951446	0.851972	-1.697020	99
Es	-0.451168	-1.991168	0.034709	99
Es	0.189581	0.332090	0.427234	99
Es	-0.939249	-1.974704	0.601865	99
Es	-1.170773	3.004527	0.818360	99
Es	-0.041435	1.936279	-0.390631	99
Es	0.452590	0.647199	0.312929	99
Es	-0.121664	0.473077	0.909294	99
Es	1.026301	-1.192256	0.931166	99
Es	0.811096	1.400768	-1.815156	99
Es	0.683448	-1.018733	0.291572	99
Es	0.111263	-1.500707	0.162608	99
Es	-0.183953	-2.682641	-0.029388	99
Es	-1.051448	2.721638	0.776964	99
Es	-1.064759	2.450395	0.937657	99
Es	-0.223815	3.140084	-0.712661	99
Es	-0.812779	-1.813232	-0.588380	99
Es	0.284800	1.272441	-0.570899	99
