39
Properties=species:S:1:pos:R:3:Z:I:1 energy=-338.7655582941981 field_type=dipole dipole="0.000000 0.000000 0.000000" charge=0
C	-0.623904	-2.092331	0.579731	6
C	-1.005584	-0.811191	0.490311	6
N	-0.197774	0.244628	0.096021	7
C	-0.690294	1.558428	0.095681	6
O	-0.088564	2.606478	-0.116089	8
N	1.127456	-0.066732	-0.140289	7
C	1.838716	0.717588	-0.876579	6
H	-1.322804	-2.858032	0.897111	1
H	0.387566	-2.407542	0.344651	1
H	-2.032404	-0.556651	0.739371	1
H	-1.766794	1.586879	0.336641	1
H	2.902496	0.475419	-1.029259	1
H	1.471886	1.603059	-1.417299	1
Es	-0.197600	0.244818	0.096698	99
Es	0.046542	-2.309737	0.422781	99
Es	1.236429	-0.376621	0.025105	99
Es	-0.323431	0.325386	-0.090237	99
Es	1.341974	0.128679	-0.691602	99
Es	-0.623910	-2.092359	0.579738	99
Es	-0.723303	-1.416042	0.847366	99
Es	1.479648	0.435851	-0.220798	99
Es	-0.532004	-0.197003	0.304214	99
Es	-0.088715	2.606193	-0.116035	99
Es	-1.005527	-0.810913	0.490240	99
Es	0.210390	2.573721	-0.187842	99
Es	-0.899537	-1.516023	0.222033	99
Es	-1.099019	-2.604965	0.794524	99
Es	1.838727	0.717561	-0.876542	99
Es	-0.349115	0.790508	0.206542	99
Es	-0.340963	2.218996	-0.290479	99
Es	-1.692690	-0.613127	0.652060	99
Es	-1.422448	1.553172	0.263847	99
Es	0.445438	0.127552	-0.029823	99
Es	-0.224761	2.256635	0.196082	99
Es	2.550847	0.552836	-0.977200	99
Es	1.597193	1.298638	-1.236871	99
Es	-0.289877	2.831453	-0.084379	99
Es	1.127171	-0.066171	-0.140554	99
Es	-0.690207	1.558233	0.095663	99
