42
Properties=species:S:1:pos:R:3:Z:I:1 energy=-339.90055098998045 field_type=dipole dipole="0.000000 0.000000 0.000000" charge=0
C	-1.343921	-0.128187	-0.406601	6
C	0.146629	-0.279457	-0.254711	6
N	0.799659	-1.402657	-0.195321	7
N	0.048639	-2.526987	-0.238361	7
C	0.954599	0.960193	-0.195671	6
C	0.577429	2.120933	0.692409	6
O	1.592578	1.192153	1.076159	8
H	-1.612251	0.907963	-0.628561	1
H	-1.834731	-0.430117	0.522909	1
H	-1.705171	-0.755387	-1.226471	1
H	0.666379	-3.330257	-0.384771	1
H	-0.375801	-2.701837	0.676589	1
H	1.543348	1.167183	-1.081061	1
H	-0.352241	2.093183	1.245719	1
H	0.894859	3.113282	0.397749	1
Es	-1.343858	-0.128187	-0.406578	99
Es	0.796010	2.798027	0.497811	99
Es	-0.054598	2.100164	1.073327	99
Es	1.416242	1.022091	0.572480	99
Es	1.176476	-1.432801	-0.187903	99
Es	-1.662655	-0.332419	0.220708	99
Es	1.592360	1.192271	1.075937	99
Es	0.954702	0.960241	-0.195382	99
Es	0.577634	2.120715	0.692453	99
Es	0.049106	-2.526957	-0.237920	99
Es	0.798999	-1.402643	-0.195347	99
Es	1.352458	1.094921	-0.793570	99
Es	0.540240	0.349815	-0.223456	99
Es	-0.599233	-0.202949	-0.326037	99
Es	0.510988	-0.907438	-0.508203	99
Es	-1.517500	0.576733	-0.553044	99
Es	1.465538	0.996297	1.275742	99
Es	-0.195097	-2.492154	-0.492265	99
Es	0.146608	-0.279400	-0.254669	99
Es	0.411599	-1.965111	-0.198492	99
Es	-1.577152	-0.546468	-0.950672	99
Es	0.430753	-3.005438	-0.311130	99
Es	-0.193959	-2.610313	0.317522	99
Es	0.481299	-0.916796	0.073105	99
Es	1.219207	1.607321	1.022413	99
Es	0.586422	1.605516	0.084554	99
Es	1.870756	1.319598	1.036592	99
