42
Properties=species:S:1:pos:R:3:Z:I:1 energy=-339.9892982315954 field_type=dipole dipole="0.000000 0.000000 0.000000" charge=0
C	-2.622223	-0.008117	0.865512	6
C	-1.364113	-0.719217	0.475112	6
N	-0.319933	-0.052297	0.105672	7
N	0.759166	-0.814047	-0.221478	7
C	1.951567	-0.269317	-0.633438	6
C	2.020247	1.232473	-0.708398	6
O	2.902897	-0.990167	-0.931848	8
H	-2.872793	-0.273997	1.895462	1
H	-3.432593	-0.339187	0.211412	1
H	-2.502423	1.074843	0.783922	1
H	-1.383503	-1.822597	0.522532	1
H	0.718257	-1.826447	-0.176518	1
H	1.354467	1.596223	-1.495018	1
H	3.044507	1.536743	-0.945978	1
H	1.746467	1.675103	0.253052	1
Es	-1.370460	-1.473065	0.505249	99
Es	0.824649	-0.731826	-0.485490	99
Es	-2.540710	0.715728	0.810518	99
Es	0.759307	-0.813904	-0.221041	99
Es	-3.159091	-0.238327	0.423238	99
Es	2.020226	1.232400	-0.708392	99
Es	2.705888	1.431806	-0.868663	99
Es	2.659747	-0.741054	-0.595425	99
Es	-0.276991	0.309070	0.078660	99
Es	1.833593	1.516094	-0.065473	99
Es	1.951397	-0.269354	-0.633379	99
Es	0.726133	-1.412314	-0.166247	99
Es	0.227791	-0.462335	-0.040501	99
Es	2.827143	-1.298216	-0.899128	99
Es	-0.862769	-0.368292	-0.011302	99
Es	1.247509	-0.588049	-0.194134	99
Es	-1.364109	-0.719205	0.475114	99
Es	-2.782560	-0.194548	1.555654	99
Es	3.152163	-0.827387	-1.016821	99
Es	1.969296	0.480987	-0.662359	99
Es	-0.680486	-0.347621	0.542670	99
Es	2.902593	-0.990010	-0.931749	99
Es	-0.319916	-0.052950	0.105691	99
Es	-2.622173	-0.008173	0.865497	99
Es	2.505834	-0.753980	-1.068959	99
Es	1.571343	1.460327	-1.231356	99
Es	-1.986481	-0.365331	0.667984	99
