42
Properties=species:S:1:pos:R:3:Z:I:1 energy=-339.94193666695975 field_type=dipole dipole="0.000000 0.000000 0.000000" charge=0
C	-1.788365	-1.678148	-1.337186	6
C	-1.153455	-1.089008	-0.116966	6
N	-0.053335	-0.413068	-0.209456	7
N	0.389415	0.065212	0.978274	7
C	1.660574	0.797292	0.950144	6
C	1.498785	2.063192	0.145264	6
O	1.545694	3.189792	0.634364	8
H	-2.801535	-1.279538	-1.435276	1
H	-1.848875	-2.762718	-1.216816	1
H	-1.211485	-1.438968	-2.234096	1
H	-1.667135	-1.266558	0.845554	1
H	-0.312456	0.640902	1.454894	1
H	2.456904	0.191712	0.506594	1
H	1.958594	1.056512	1.971024	1
H	1.326674	1.923392	-0.936316	1
Es	-1.469052	-1.380708	-0.725401	99
Es	-0.397431	-0.950540	-0.116829	99
Es	2.192455	0.394981	0.640223	99
Es	-0.053627	-0.413119	-0.208896	99
Es	-1.788358	-1.678133	-1.337123	99
Es	-1.827115	-2.405202	-1.245968	99
Es	-1.505846	-1.202461	0.537859	99
Es	1.498781	2.063201	0.145279	99
Es	-1.402074	-1.517966	-1.937812	99
Es	-1.153497	-1.088991	-0.116991	99
Es	1.851472	0.972758	1.637814	99
Es	-0.686747	-0.452488	-0.205198	99
Es	1.660425	0.797250	0.950097	99
Es	0.154802	-0.353436	-0.514351	99
Es	1.499128	3.420687	0.426459	99
Es	1.776398	2.788222	0.411716	99
Es	0.431241	-0.206229	1.154844	99
Es	-2.468633	-1.406617	-1.393636	99
Es	-0.036280	0.425706	1.236561	99
Es	1.278767	2.768464	0.500671	99
Es	1.600774	3.180397	0.943658	99
Es	0.155924	-0.143618	0.387470	99
Es	1.590047	1.432850	0.540954	99
Es	0.934122	0.414943	0.924927	99
Es	1.545684	3.189494	0.634242	99
Es	0.389276	0.065770	0.977768	99
Es	1.380067	1.956747	-0.589591	99
