45
Properties=species:S:1:pos:R:3:Z:I:1 energy=-341.09960518883986 field_type=dipole dipole="0.000000 0.000000 0.000000" charge=0
C	-3.463526	-1.205259	-0.076090	6
C	-1.969256	-1.221779	-0.021620	6
N	-1.293166	-0.122589	-0.063600	7
O	0.074344	-0.432489	0.015670	8
C	0.814314	0.791001	0.060780	6
C	2.303464	0.452761	0.145360	6
N	3.154854	1.642171	0.185080	7
H	-3.794216	-1.812019	-0.923040	1
H	-3.840796	-0.185209	-0.184740	1
H	-3.855266	-1.645669	0.844000	1
H	-1.481346	-2.208939	0.063890	1
H	0.502695	1.370641	0.938280	1
H	0.604954	1.372371	-0.845590	1
H	2.587034	-0.171779	-0.709660	1
H	2.487604	-0.152839	1.039790	1
H	3.035834	2.176561	-0.675430	1
H	4.132464	1.353061	0.206920	1
Es	-3.463457	-1.205279	-0.076086	99
Es	-2.709921	-1.206892	-0.050745	99
Es	-1.969309	-1.221794	-0.021624	99
Es	2.788912	1.123154	0.146248	99
Es	-1.391424	0.242185	-0.090751	99
Es	-1.601083	-0.582065	0.244991	99
Es	0.604535	1.189083	0.660273	99
Es	3.739875	1.451829	0.180563	99
Es	0.133801	-0.571206	-0.253822	99
Es	0.108066	-0.579581	0.289018	99
Es	-1.644822	-1.887359	0.035652	99
Es	1.557915	0.624361	0.101260	99
Es	2.490828	0.020608	-0.449309	99
Es	2.303505	0.452908	0.145357	99
Es	3.080417	1.847153	0.463602	99
Es	0.814239	0.790768	0.060758	99
Es	-0.522181	-0.287979	-0.017053	99
Es	-1.292947	-0.123173	-0.063552	99
Es	-3.716328	-0.522694	-0.148865	99
Es	-3.715320	-1.504231	0.543206	99
Es	3.154936	1.641889	0.184699	99
Es	-3.675210	-1.616199	-0.645473	99
Es	3.084593	1.944998	-0.349606	99
Es	2.429127	0.043709	0.758668	99
Es	0.678347	1.194190	-0.564364	99
Es	0.074220	-0.432137	0.015659	99
Es	-1.575474	-0.619150	-0.337109	99
Es	0.331567	0.042741	0.031204	99
