49
Properties=species:S:1:pos:R:3:Z:I:1 energy=-326.3176136475543 field_type=dipole dipole="0.000000 0.000000 0.000000" charge=0
C	-2.542522	0.563538	-1.944252	6
C	-1.689902	-0.584582	-1.442402	6
O	-0.568712	-0.046162	-0.744452	8
C	0.257558	-1.085382	-0.204652	6
C	1.450798	-0.457852	0.528138	6
N	0.996618	0.302968	1.701168	7
C	2.102748	1.009618	2.328598	6
H	-3.408242	0.192118	-2.499662	1
H	-1.959572	1.221978	-2.596272	1
H	-2.895902	1.174468	-1.107332	1
H	-1.340512	-1.186692	-2.288762	1
H	-2.278622	-1.217872	-0.769632	1
H	0.626538	-1.712212	-1.024102	1
H	-0.328732	-1.707282	0.481128	1
H	1.978688	0.210188	-0.163562	1
H	2.136468	-1.251492	0.844668	1
H	0.295238	0.974268	1.377018	1
H	2.572018	1.719878	1.640458	1
H	2.861708	0.308898	2.691688	1
H	1.734338	1.571608	3.192218	1
Es	1.208738	-0.009047	1.179148	99
Es	0.996892	0.303329	1.700777	99
Es	2.623290	0.527122	2.569352	99
Es	-1.689741	-0.584470	-1.442299	99
Es	-2.145858	1.004400	-2.391133	99
Es	-0.684260	0.106626	-0.501117	99
Es	1.919704	-1.004079	0.743683	99
Es	1.450714	-0.457815	0.528228	99
Es	-3.130020	0.302072	-2.321462	99
Es	-2.542517	0.563507	-1.944249	99
Es	-2.785502	0.972523	-1.373501	99
Es	-0.276359	-0.461040	-0.551408	99
Es	0.849689	0.078597	1.934446	99
Es	0.848637	-0.769769	0.162649	99
Es	2.432811	1.499263	1.849949	99
Es	-0.982302	-0.280964	-0.999907	99
Es	-1.448880	-1.006373	-2.026581	99
Es	2.102656	1.009557	2.328547	99
Es	-2.095490	-1.027308	-0.978595	99
Es	0.512879	-1.522239	-0.771740	99
Es	0.595838	0.719987	1.496277	99
Es	-2.118675	-0.008977	-1.695397	99
Es	1.819070	-0.002238	0.046238	99
Es	1.490268	0.624160	1.949105	99
Es	-0.146156	-1.516444	0.264008	99
Es	-0.397183	0.095066	-0.957515	99
Es	-0.568759	-0.046462	-0.744489	99
Es	0.257457	-1.085195	-0.204734	99
Es	1.851267	1.397201	2.916167	99
