46
Properties=species:S:1:pos:R:3:Z:I:1 energy=-325.14184857289615 field_type=dipole dipole="0.000000 0.000000 0.000000" charge=0
C	-0.369050	-1.682993	-1.245743	6
C	-0.934490	-0.711633	-0.216953	6
O	-0.802180	-1.286973	1.091326	8
C	-0.296600	0.712547	-0.258033	6
N	-0.950500	1.561757	0.751277	7
C	1.208301	0.701397	-0.072943	6
C	1.917730	1.283287	0.905817	6
H	-0.446610	-1.276413	-2.258133	1
H	-0.921610	-2.628373	-1.209443	1
H	0.675120	-1.933293	-1.038153	1
H	-2.011400	-0.615153	-0.401833	1
H	0.142300	-1.238573	1.327827	1
H	-0.493300	1.153467	-1.242823	1
H	-1.003550	1.012237	1.613147	1
H	-1.925200	1.692587	0.481747	1
H	1.768470	0.180197	-0.847453	1
H	1.441570	1.852357	1.699047	1
H	3.000990	1.223567	0.921327	1
Es	-1.541304	1.619355	0.578721	99
Es	0.462973	0.697031	-0.145802	99
Es	-0.291783	-1.254393	1.198274	99
Es	-0.296609	0.712587	-0.257919	99
Es	-0.801913	-1.286723	1.091146	99
Es	1.208216	0.701331	-0.073023	99
Es	-0.633962	-1.194892	-0.744699	99
Es	-0.875799	-1.581523	1.063721	99
Es	1.577936	0.339649	-0.604354	99
Es	-0.425898	1.004939	-0.930729	99
Es	-0.946775	-1.094411	1.285409	99
Es	-0.421674	-1.397325	-1.934458	99
Es	-0.677949	1.175709	0.315098	99
Es	-0.748704	-2.318455	-1.222460	99
Es	1.539646	0.704128	0.605982	99
Es	-1.672447	-0.636222	-0.345295	99
Es	-0.934407	-0.711723	-0.216757	99
Es	1.917781	1.283310	0.905878	99
Es	-0.982484	1.225810	1.259794	99
Es	1.578379	1.254294	0.248493	99
Es	-0.824563	-1.064151	0.599113	99
Es	0.344740	-1.841747	-1.100440	99
Es	-0.950773	1.561239	0.751190	99
Es	-0.785935	1.875672	0.793521	99
Es	-0.369049	-1.682972	-1.245746	99
Es	1.607403	1.661436	1.444928	99
Es	2.651939	1.242775	0.919030	99
Es	-0.584992	-0.005911	-0.242489	99
