44
Properties=species:S:1:pos:R:3:Z:I:1 energy=-304.1265011758483 field_type=dipole dipole="0.000000 0.000000 0.000000" charge=0
C	-1.205649	-0.707359	-0.687381	6
N	-1.260969	0.779531	-0.583931	7
C	-0.021209	1.092091	0.182579	6
C	1.216861	0.711121	-0.662461	6
N	1.270361	-0.777149	-0.565641	7
C	0.019131	-1.093169	0.176579	6
C	-0.010469	-0.002819	1.232549	6
H	-1.104999	-1.028029	-1.729031	1
H	-2.124709	-1.135990	-0.272901	1
H	-2.069349	1.033141	-0.016461	1
H	-0.004979	2.115471	0.562779	1
H	2.129101	1.137380	-0.230381	1
H	1.134561	1.037060	-1.704731	1
H	2.069231	-1.033019	0.013649	1
H	-0.004599	-2.118519	0.551819	1
H	-0.909809	-0.023629	1.858829	1
H	0.877491	0.013891	1.874129	1
Es	-0.633404	-0.012796	1.659563	99
Es	0.734058	-0.920831	-0.232682	99
Es	-1.741635	0.919679	-0.216995	99
Es	-0.729741	0.921632	-0.240762	99
Es	1.254555	-0.127930	-0.596870	99
Es	1.842774	1.005090	-0.359941	99
Es	1.290979	-0.939915	-0.887201	99
Es	-0.592549	-0.926755	-0.266336	99
Es	1.158023	0.938175	-1.369697	99
Es	-0.011900	1.796384	0.439956	99
Es	0.604689	0.004556	1.670225	99
Es	1.270319	-0.776875	-0.565112	99
Es	-1.260937	0.779230	-0.583386	99
Es	-1.134630	-0.930847	-1.394370	99
Es	-0.010469	-0.002819	1.232550	99
Es	-0.007520	0.574839	0.760752	99
Es	-1.276213	0.943970	-0.905001	99
Es	-0.021295	1.092038	0.182502	99
Es	-0.004922	-0.578326	0.757568	99
Es	0.019222	-1.093111	0.176499	99
Es	0.004898	-1.798766	0.430554	99
Es	1.216857	0.710983	-0.662406	99
Es	-1.244637	0.130804	-0.618133	99
Es	-1.836356	-1.003078	-0.396788	99
Es	0.597423	0.928184	-0.250599	99
Es	1.744794	-0.918928	-0.191624	99
Es	-1.205641	-0.707220	-0.687325	99
