42
Properties=species:S:1:pos:R:3:Z:I:1 energy=-339.88486464318044 field_type=dipole dipole="0.000000 0.000000 0.000000" charge=0
C	-2.300728	-0.350537	0.291911	6
N	-0.884908	-0.515637	0.608791	7
C	-0.159279	-1.298957	-0.383269	6
C	0.000841	0.202693	-0.314179	6
C	1.199192	0.777593	0.322511	6
N	2.263881	0.893343	-0.400489	7
O	3.278412	1.463023	0.378821	8
H	-2.680728	0.555483	0.775051	1
H	-2.866108	-1.200077	0.688571	1
H	-2.518619	-0.274867	-0.780479	1
H	-0.702538	-1.720437	-1.219979	1
H	0.646461	-1.917697	-0.005709	1
H	-0.448598	0.801713	-1.097619	1
H	1.142802	1.094343	1.378631	1
H	4.029922	1.490013	-0.242559	1
Es	0.603333	0.493128	0.008935	99
Es	-0.645911	-0.979423	0.212117	99
Es	1.160948	0.988057	1.023875	99
Es	-0.159369	-1.298758	-0.383147	99
Es	3.278447	1.462933	0.378433	99
Es	0.000755	0.202538	-0.314023	99
Es	2.836574	1.215178	0.038027	99
Es	3.180724	1.748222	0.435113	99
Es	-0.305049	0.609179	-0.836601	99
Es	0.079027	-0.537817	-0.508303	99
Es	2.263812	0.893514	-0.399892	99
Es	2.344885	0.805367	-0.761543	99
Es	1.199161	0.777573	0.322483	99
Es	-1.491726	-0.444227	0.435492	99
Es	-0.885006	-0.515598	0.608107	99
Es	1.879865	0.577401	0.002362	99
Es	-2.436838	-0.299320	-0.451641	99
Es	0.383827	-1.719085	-0.128258	99
Es	1.708639	1.108602	-0.165501	99
Es	-0.536952	-1.581268	-0.948621	99
Es	-2.300596	-0.350552	0.291932	99
Es	-2.556669	0.269656	0.617234	99
Es	-0.548946	-0.071903	0.246047	99
Es	-2.683652	-0.931456	0.557885	99
Es	3.332685	1.254194	0.598229	99
Es	-0.780373	-0.532948	0.948750	99
Es	3.678649	1.475995	0.042200	99
