46
Properties=species:S:1:pos:R:3:Z:I:1 energy=-325.11343714729503 field_type=dipole dipole="0.000000 0.000000 0.000000" charge=0
C	-0.740331	-1.896696	-1.375872	6
N	-0.642231	-1.295476	-0.051092	7
C	0.265829	-0.146976	-0.096882	6
C	-0.513491	1.130054	-0.484262	6
C	0.247419	1.846904	0.652948	6
C	0.390819	0.462284	1.335448	6
O	1.625019	0.208544	2.035938	8
H	-1.440251	-2.737296	-1.342292	1
H	0.228429	-2.278286	-1.714812	1
H	-1.120441	-1.182776	-2.113772	1
H	-0.341071	-2.010976	0.612728	1
H	1.223549	-0.297716	-0.607842	1
H	-1.598341	1.096594	-0.321372	1
H	-0.321011	1.514594	-1.489812	1
H	1.197289	2.295974	0.341958	1
H	-0.332921	2.589574	1.206708	1
H	-0.459301	0.247224	1.997208	1
H	2.331039	0.454444	1.415078	1
Es	-0.429526	-1.730281	0.335599	99
Es	-1.242674	1.097555	-0.364342	99
Es	0.247405	1.846861	0.652918	99
Es	-1.215544	-2.474413	-1.354176	99
Es	-0.157291	1.568997	0.050776	99
Es	-0.663320	-1.565377	-0.634855	99
Es	-0.954218	-1.171950	0.051899	99
Es	0.265727	-0.147048	-0.096865	99
Es	1.994612	0.347449	1.686533	99
Es	1.642884	-0.097041	2.071786	99
Es	-0.146108	2.361362	1.032751	99
Es	1.625021	0.208700	2.035636	99
Es	0.364738	0.081397	0.640582	99
Es	0.391046	0.462284	1.335499	99
Es	-0.993467	-1.402527	-1.877128	99
Es	-0.186037	0.309920	1.776869	99
Es	0.349785	1.208857	1.065482	99
Es	-0.208468	-0.830856	-0.087870	99
Es	-0.145195	0.457697	-0.376791	99
Es	-0.641702	-1.295697	-0.051297	99
Es	-0.066548	-2.156530	-1.614925	99
Es	0.927873	-0.243760	-0.448186	99
Es	-0.381881	1.395166	-1.176406	99
Es	1.174471	0.310999	1.758315	99
Es	-0.513422	1.130058	-0.484219	99
Es	0.904723	2.135858	0.436327	99
Es	-0.740324	-1.896637	-1.375764	99
Es	1.638286	0.406234	2.269097	99
