46
Properties=species:S:1:pos:R:3:Z:I:1 energy=-325.1623844605827 field_type=dipole dipole="0.000000 0.000000 0.000000" charge=0
C	-0.682787	-2.036684	0.543767	6
N	-0.841347	-0.687834	1.071897	7
C	-0.486017	0.345286	0.078947	6
C	-0.921977	1.711346	0.599687	6
C	1.031083	0.364276	-0.151253	6
C	1.495623	0.346796	-1.583593	6
O	1.836573	0.358496	0.782607	8
H	-0.986667	-2.760604	1.305087	1
H	0.354843	-2.253784	0.273177	1
H	-1.320237	-2.193914	-0.331953	1
H	-0.219107	-0.571814	1.877877	1
H	-1.000507	0.147806	-0.868513	1
H	-0.438427	1.954876	1.553327	1
H	-2.006417	1.746026	0.750247	1
H	-0.654007	2.499996	-0.111213	1
H	0.985493	1.130716	-2.147503	1
H	1.281863	-0.632164	-2.019293	1
H	2.572013	0.531176	-1.623303	1
Es	-0.592448	1.866886	1.242134	99
Es	1.260755	0.363276	-0.881343	99
Es	1.031094	0.364278	-0.151278	99
Es	1.139795	0.870842	-1.953272	99
Es	-0.885381	-2.529496	1.062740	99
Es	1.693485	0.352036	1.066954	99
Es	-0.649526	-0.248797	0.624979	99
Es	-0.455644	-0.622335	1.540334	99
Es	1.836366	0.358494	0.782373	99
Es	1.495581	0.346795	-1.583569	99
Es	2.134620	0.361300	0.686327	99
Es	-0.682800	-2.036560	0.543805	99
Es	-0.921948	1.711315	0.599648	99
Es	1.551363	0.109293	0.448881	99
Es	-0.840754	-0.687912	1.071701	99
Es	1.548672	0.614150	0.455820	99
Es	0.034317	-2.183953	0.347799	99
Es	-1.180960	-0.636362	1.162880	99
Es	-0.829820	0.203893	-0.573576	99
Es	-1.115161	-2.136179	-0.060548	99
Es	-0.485990	0.345229	0.079046	99
Es	-0.740996	-1.270107	0.827018	99
Es	-0.683546	1.027264	0.333986	99
Es	1.338728	-0.307273	-1.859088	99
Es	0.280353	0.352782	-0.052089	99
Es	-0.732788	2.243580	0.106698	99
Es	-1.653384	1.729541	0.693342	99
Es	2.215563	0.469227	-1.613746	99
