45
Properties=species:S:1:pos:R:3:Z:I:1 energy=-341.149658730037 field_type=dipole dipole="0.000000 0.000000 0.000000" charge=0
C	-1.529767	-0.807826	-0.166508	6
N	-0.126777	-0.641296	0.205582	7
C	0.626703	-1.884416	0.325852	6
C	0.505603	0.586064	0.054652	6
N	1.789063	0.769974	0.098602	7
C	-0.325497	1.871744	-0.171508	6
O	0.516843	3.005774	-0.321568	8
H	-2.152357	-0.021136	0.270242	1
H	-1.934697	-1.759936	0.193062	1
H	-1.636167	-0.781736	-1.255638	1
H	-0.018987	-2.730126	0.585872	1
H	1.375043	-1.809386	1.121492	1
H	1.129993	-2.117806	-0.618108	1
H	2.269123	-0.115786	0.253572	1
H	-0.978147	2.033164	0.691342	1
H	-0.929207	1.765594	-1.076998	1
H	1.419233	2.637134	-0.189938	1
Es	0.177020	-2.445567	0.497769	99
Es	1.952768	1.108010	0.068503	99
Es	0.142011	-0.169163	0.004242	99
Es	-1.603747	-0.789516	-0.912356	99
Es	1.788788	0.769585	0.098646	99
Es	-0.097378	-0.473300	0.456946	99
Es	-1.529596	-0.807808	-0.166458	99
Es	0.516917	3.005408	-0.321568	99
Es	-0.738295	1.778277	-0.783391	99
Es	-0.325303	1.871800	-0.171510	99
Es	0.626608	-1.884263	0.325841	99
Es	2.071215	0.230480	0.190941	99
Es	1.279915	0.717331	0.357437	99
Es	-0.126513	-0.641135	0.204761	99
Es	0.970011	2.813153	-0.250601	99
Es	1.138654	-1.825631	0.859865	99
Es	-0.772366	1.958972	0.416632	99
Es	0.505448	0.585958	0.054671	99
Es	-1.789791	-1.456833	0.079695	99
Es	0.075984	1.198996	-0.058344	99
Es	0.205402	-1.167396	0.231031	99
Es	0.204054	2.546176	-0.258060	99
Es	-1.944834	-0.267618	0.125788	99
Es	0.446083	3.190220	-0.088700	99
Es	0.972525	-2.042698	-0.317982	99
Es	-0.722441	-0.707162	0.027044	99
Es	0.487970	3.086337	-0.614368	99
Es	1.322592	0.647163	-0.197000	99
