45
Properties=species:S:1:pos:R:3:Z:I:1 energy=-341.14459501083337 field_type=dipole dipole="0.000000 0.000000 0.000000" charge=0
C	-1.954316	0.127392	0.371719	6
N	-0.510986	0.330062	0.377269	7
C	0.302604	-0.890818	0.438509	6
C	0.942384	-1.206688	-0.918691	6
O	1.964584	-0.271218	-1.249691	8
C	0.017984	1.590452	0.444549	6
N	1.252344	1.940022	0.497679	7
H	-2.504126	1.070812	0.288679	1
H	-2.270886	-0.363008	1.298249	1
H	-2.246316	-0.501798	-0.475351	1
H	-0.322456	-1.741138	0.736729	1
H	1.074114	-0.780538	1.209069	1
H	0.200244	-1.210338	-1.723511	1
H	1.409424	-2.195768	-0.881121	1
H	1.526304	0.595832	-1.365911	1
H	-0.745276	2.388072	0.426169	1
H	1.864374	1.118672	0.525649	1
Es	2.068499	-0.358832	-1.522914	99
Es	-0.514657	2.117598	0.430387	99
Es	1.602048	1.437833	0.515780	99
Es	0.416832	-1.209056	-1.461989	99
Es	-0.134229	-1.461385	0.635377	99
Es	2.144165	-0.247077	-0.997387	99
Es	-0.325887	0.772961	0.608465	99
Es	0.614571	-1.040979	-0.232975	99
Es	1.252115	1.939552	0.497661	99
Es	1.257313	-1.885716	-0.885058	99
Es	1.712704	0.176654	-1.309634	99
Es	1.964312	-0.271139	-1.249634	99
Es	-2.168281	-0.211092	1.003174	99
Es	-0.410677	0.542322	0.114637	99
Es	-1.954145	0.127424	0.371715	99
Es	-0.163511	-0.182531	0.420927	99
Es	0.756252	1.783316	0.753023	99
Es	0.017846	1.590299	0.444536	99
Es	-2.314342	0.772868	0.315150	99
Es	0.302488	-0.890666	0.438479	99
Es	-1.129335	0.249338	0.391697	99
Es	0.828671	-0.811178	0.954418	99
Es	-2.149454	-0.305600	-0.205020	99
Es	0.942529	-1.206516	-0.918696	99
Es	-0.510895	0.330362	0.377960	99
Es	0.790529	1.786221	0.185000	99
Es	1.371347	2.277079	0.508892	99
Es	1.556679	-0.608977	-1.120397	99
