42
Properties=species:S:1:pos:R:3:Z:I:1 energy=-339.96630017871985 field_type=dipole dipole="0.000000 0.000000 0.000000" charge=0
C	-0.833258	-0.941892	2.271301	6
N	-1.363828	0.012818	1.300441	7
N	-0.820938	-0.236662	0.019981	7
C	0.226452	0.542228	-0.442209	6
O	0.771492	1.423218	0.215341	8
C	0.626202	0.201198	-1.831979	6
C	1.635472	0.852318	-2.427289	6
H	-1.269218	-0.742812	3.254681	1
H	0.255312	-0.860862	2.358871	1
H	-1.091888	-1.968492	1.992331	1
H	-1.046958	0.952148	1.580341	1
H	-1.296658	-0.901102	-0.582799	1
H	0.090162	-0.580982	-2.351669	1
H	2.183062	1.639498	-1.916209	1
H	1.934592	0.609378	-3.441139	1
Es	0.226315	0.542108	-0.442199	99
Es	0.641161	1.451251	0.500986	99
Es	-1.065954	-0.120862	0.641521	99
Es	2.004059	1.373695	-2.099156	99
Es	-1.363104	0.012821	1.300404	99
Es	0.251747	-0.333481	-2.172792	99
Es	-0.833319	-0.941807	2.271215	99
Es	0.771344	1.422958	0.215128	99
Es	-0.656986	0.167265	-0.215127	99
Es	-0.087000	-0.890693	2.329871	99
Es	-1.106482	-0.625420	-0.336181	99
Es	0.413711	0.359113	-1.143685	99
Es	1.635531	0.852342	-2.427346	99
Es	-0.384800	-0.266554	-0.007914	99
Es	0.890035	0.726392	-2.210898	99
Es	-1.723111	-0.014252	1.280284	99
Es	1.839664	0.690180	-3.111580	99
Es	-1.101573	-0.399314	1.709486	99
Es	-1.010705	-1.641342	2.073580	99
Es	0.430158	1.299110	-0.087789	99
Es	1.302019	0.293116	-1.984239	99
Es	-1.131787	-0.799170	2.937724	99
Es	0.751026	0.966624	0.089679	99
Es	-1.163564	0.558961	1.459060	99
Es	0.626112	0.201157	-1.831894	99
Es	0.998005	1.557382	0.055118	99
Es	-0.820981	-0.236568	0.020039	99
