46
Properties=species:S:1:pos:R:3:Z:I:1 energy=-325.1114453157055 field_type=dipole dipole="0.000000 0.000000 0.000000" charge=0
C	-1.207580	-2.674438	-0.986077	6
O	-1.355980	-1.371318	-0.441217	8
C	-0.096050	-0.715958	-0.197527	6
C	0.239930	0.421772	-1.122007	6
C	-0.215340	0.706832	0.286173	6
C	0.733320	1.216392	1.318263	6
N	0.650480	2.667652	1.336283	7
H	-2.202020	-3.080348	-1.189367	1
H	-0.701940	-3.326548	-0.267597	1
H	-0.642880	-2.635538	-1.922257	1
H	0.723570	-1.306288	0.201873	1
H	-0.450790	0.644272	-1.927237	1
H	1.281720	0.575232	-1.375327	1
H	-1.221820	1.084492	0.435033	1
H	1.763450	0.906472	1.109653	1
H	0.455640	0.820832	2.300743	1
H	0.929890	3.032222	0.427583	1
H	1.316400	3.034262	2.013003	1
Es	0.458950	-1.127820	0.070903	99
Es	0.840212	2.873769	0.786631	99
Es	-1.883901	-2.951104	-1.124495	99
Es	0.130012	-0.269691	-0.808757	99
Es	-0.813938	-2.652662	-1.629023	99
Es	0.952056	0.530067	-1.285688	99
Es	-0.203344	-0.069822	0.212340	99
Es	0.038942	0.756071	-0.454964	99
Es	0.544761	0.946502	1.991837	99
Es	-1.355657	-1.371476	-0.441280	99
Es	0.239896	0.421731	-1.121847	99
Es	0.733305	1.216528	1.318243	99
Es	0.323577	2.774785	1.414378	99
Es	-0.226202	0.567008	-1.662826	99
Es	-0.852229	-3.125967	-0.495469	99
Es	0.651043	2.667468	1.336153	99
Es	-0.096242	-0.715887	-0.197633	99
Es	-1.207597	-2.674233	-0.985990	99
Es	1.446935	0.988731	1.167274	99
Es	-0.890415	0.956164	0.375811	99
Es	0.713647	2.039846	1.323678	99
Es	-1.481736	-1.414425	-0.164965	99
Es	-0.215252	0.706709	0.286037	99
Es	-1.489802	-1.199578	-0.655995	99
Es	1.071848	2.878493	1.737277	99
Es	-0.854137	-1.154881	-0.360754	99
Es	0.272519	0.948592	0.787696	99
Es	-1.261624	-1.862125	-0.652258	99
