38
Properties=species:S:1:pos:R:3:Z:I:1 energy=-358.603855999804 field_type=dipole dipole="0.000000 0.000000 0.000000" charge=0
C	-0.010653	-2.143522	0.296027	6
O	-0.877163	-1.049752	0.016777	8
C	-0.298963	0.147458	-0.064433	6
C	-0.799163	1.399567	-0.311843	6
C	0.330057	2.234278	-0.261673	6
N	1.449737	1.554328	-0.002593	7
O	1.049237	0.230188	0.122357	8
H	-0.616092	-3.053482	0.333377	1
H	0.476057	-2.019252	1.269647	1
H	0.735748	-2.264512	-0.496723	1
H	-1.829023	1.661008	-0.499603	1
H	0.390217	3.303698	-0.401313	1
Es	-0.427562	-2.754072	0.319498	99
Es	-0.606444	-0.598264	-0.004568	99
Es	0.359301	2.949821	-0.356617	99
Es	-0.972916	-1.062366	-0.253348	99
Es	0.524967	0.218496	0.115341	99
Es	0.494370	-2.219590	-0.240305	99
Es	1.166109	0.066844	0.342378	99
Es	-0.010832	-2.143306	0.295971	99
Es	-0.271327	1.859359	-0.296854	99
Es	-0.298758	0.147103	-0.064355	99
Es	-0.799152	1.399532	-0.311841	99
Es	1.026280	1.780527	-0.386116	99
Es	1.048873	0.230529	0.122449	99
Es	-0.526395	-1.419691	0.121422	99
Es	1.814493	1.619278	0.042392	99
Es	-1.050164	-0.994841	0.238352	99
Es	1.011647	0.174871	-0.136062	99
Es	-1.486061	1.579616	-0.437595	99
Es	0.318895	-2.053869	0.953226	99
Es	1.175612	0.781162	0.076842	99
Es	-0.515745	0.885528	-0.512944	99
Es	-0.876716	-1.049638	0.016873	99
Es	0.945148	1.858052	0.169852	99
Es	-0.605879	0.964237	0.089462	99
Es	0.330094	2.234282	-0.261665	99
Es	1.449116	1.554131	-0.002660	99
