38
Properties=species:S:1:pos:R:3:Z:I:1 energy=-358.5966855983616 field_type=dipole dipole="0.000000 0.000000 0.000000" charge=0
C	-0.607677	-1.902232	0.291227	6
O	-1.333787	-0.718122	0.001917	8
C	-0.562457	0.382688	-0.125533	6
N	-1.210837	1.515338	-0.397533	7
O	-0.223767	2.486938	-0.480103	8
C	0.986364	1.914808	-0.256503	6
C	0.828173	0.572948	-0.024753	6
H	-1.324027	-2.725472	0.372927	1
H	-0.081537	-1.820892	1.248787	1
H	0.091123	-2.146322	-0.516523	1
H	1.832623	2.584528	-0.297213	1
H	1.605803	-0.144212	0.183307	1
Es	-1.333353	-0.718090	0.002027	99
Es	0.838078	1.189262	0.178252	99
Es	-1.559539	1.620990	-0.451278	99
Es	-1.210194	1.515200	-0.397445	99
Es	-0.239876	-1.839574	0.940772	99
Es	-1.443123	-0.735108	-0.265853	99
Es	-0.609171	2.058561	-0.451662	99
Es	1.553662	2.354805	-0.282880	99
Es	-0.890298	1.027741	-0.566077	99
Es	-0.607797	-1.902012	0.291175	99
Es	-0.990378	-0.312982	-0.037681	99
Es	1.340155	0.086589	0.114712	99
Es	-0.223621	2.486486	-0.480023	99
Es	-0.106507	2.445165	-0.212775	99
Es	0.901509	1.082149	-0.424901	99
Es	-1.092356	-2.456205	0.345893	99
Es	-0.271793	2.744611	-0.639110	99
Es	-1.027040	-1.141360	0.107500	99
Es	-0.562619	0.382470	-0.125510	99
Es	0.142834	0.401079	-0.061618	99
Es	-0.943519	1.130145	-0.009509	99
Es	-0.122671	-2.060401	-0.257234	99
Es	0.986172	1.914983	-0.256559	99
Es	0.828147	0.572921	-0.024754	99
Es	0.218003	2.243151	-0.521175	99
Es	-1.488130	-0.645520	0.234507	99
