49
Properties=species:S:1:pos:R:3:Z:I:1 energy=-326.31925027177226 field_type=dipole dipole="0.000000 0.000000 0.000000" charge=0
C	-2.608536	-1.232334	1.047104	6
O	-1.413206	-0.462814	1.029834	8
C	-0.516676	-0.905904	0.011334	6
C	0.749114	-0.035774	0.026024	6
C	1.762884	-0.589944	-0.979396	6
C	0.393284	1.434356	-0.261376	6
N	1.566604	2.305616	-0.219236	7
H	-3.251526	-0.852264	1.845704	1
H	-2.384866	-2.284484	1.248994	1
H	-3.139766	-1.135424	0.095224	1
H	-1.011896	-0.843434	-0.965286	1
H	-0.251986	-1.952484	0.202674	1
H	1.188564	-0.088764	1.031644	1
H	1.378174	-0.529454	-2.002936	1
H	1.986475	-1.640284	-0.764206	1
H	2.708884	-0.041074	-0.938196	1
H	-0.332436	1.800086	0.474254	1
H	-0.072876	1.522296	-1.249366	1
H	1.982394	2.260056	0.712094	1
H	1.267394	3.272026	-0.344886	1
Es	-3.047948	-0.975200	1.590540	99
Es	0.074083	1.490380	-0.944448	99
Es	0.574985	0.698045	-0.123217	99
Es	-1.270718	-0.520085	1.296195	99
Es	-0.108634	1.679522	0.243504	99
Es	-1.413290	-0.463041	1.029592	99
Es	-2.973109	-1.172414	0.388217	99
Es	1.762848	-0.589949	-0.979375	99
Es	-1.858180	-0.776771	1.010142	99
Es	1.566218	2.305758	-0.218837	99
Es	0.107636	-0.468524	0.017596	99
Es	-0.334078	-1.633028	0.139310	99
Es	1.054903	1.936617	-0.221441	99
Es	0.749089	-0.035785	0.025981	99
Es	-0.858944	-0.863711	-0.667379	99
Es	1.368898	2.888067	-0.279970	99
Es	1.810700	2.220258	-0.463979	99
Es	1.908016	-1.311100	-0.828391	99
Es	1.492237	-0.548753	-1.676971	99
Es	2.399547	-0.222483	-0.948565	99
Es	-0.516805	-0.905817	0.011494	99
Es	-1.498763	-0.180539	0.948363	99
Es	1.253179	-0.313036	-0.483844	99
Es	-2.455596	-1.960495	1.178763	99
Es	1.797710	2.279956	0.355816	99
Es	1.050781	-0.071722	0.714833	99
Es	-1.098559	-0.654562	0.634353	99
Es	0.393429	1.434408	-0.261380	99
Es	-2.608352	-1.232221	1.047096	99
