39
Properties=species:S:1:pos:R:3:Z:I:1 energy=-338.73650187505035 field_type=dipole dipole="0.000000 0.000000 0.000000" charge=0
C	-0.394259	-2.141734	0.469732	6
O	-0.736219	-1.311594	-0.632258	8
N	-0.153579	-0.067124	-0.437478	7
C	-0.818759	1.072196	-0.110888	6
C	0.134711	2.063676	-0.090718	6
C	1.333261	1.406996	-0.441108	6
N	1.154591	0.100766	-0.660708	7
H	-0.926909	-3.090534	0.356992	1
H	-0.703859	-1.688064	1.417522	1
H	0.679621	-2.355264	0.482602	1
H	-1.882999	1.072616	0.067032	1
H	-0.011319	3.110936	0.129642	1
H	2.325721	1.827126	-0.550368	1
Es	0.331758	-2.282512	0.482555	99
Es	-0.759670	-2.779692	0.385575	99
Es	-0.272861	1.667844	-0.395386	99
Es	-0.455440	-0.741547	-0.520997	99
Es	-0.153600	-0.067249	-0.437520	99
Es	-0.736012	-1.311481	-0.631937	99
Es	1.367826	-0.189071	-0.753547	99
Es	1.136186	0.714065	-0.818733	99
Es	0.466644	-0.001325	-0.549258	99
Es	0.134701	2.063689	-0.090708	99
Es	-0.595963	-1.423014	-0.880845	99
Es	-0.160428	1.561905	0.173537	99
Es	-0.255441	0.221119	-0.071615	99
Es	0.756353	1.789601	-0.259349	99
Es	-1.527716	1.068643	0.009605	99
Es	-0.394340	-2.141592	0.469536	99
Es	1.154135	0.101175	-0.660536	99
Es	0.038567	2.768710	0.057762	99
Es	-0.604378	-1.826220	1.115076	99
Es	-1.041655	-1.252971	-0.612927	99
Es	-0.818745	1.071970	-0.110931	99
Es	1.999959	1.699721	-0.511471	99
Es	1.333272	1.406920	-0.441121	99
Es	-0.590182	-1.593236	-0.205368	99
Es	1.236617	0.611137	-0.293375	99
Es	-0.381111	0.347531	-0.592719	99
