41
Properties=species:S:1:pos:R:3:Z:I:1 energy=-359.71559471914475 field_type=dipole dipole="0.000000 0.000000 0.000000" charge=0
C	-1.569903	-2.414318	-0.362537	6
O	-0.268143	-1.840148	-0.381577	8
N	-0.397163	-0.444638	-0.315467	7
C	0.782217	0.077802	-0.344857	6
C	0.881896	1.542642	-0.291817	6
C	0.842297	2.259302	1.031093	6
O	2.077256	2.027852	0.342773	8
H	-1.469053	-3.501198	-0.421037	1
H	-2.149893	-2.066998	-1.223057	1
H	-2.083833	-2.156858	0.568553	1
H	1.711806	-0.512828	-0.412617	1
H	0.534457	2.073412	-1.169077	1
H	0.647216	1.683792	1.927663	1
H	0.460846	3.272182	1.051963	1
Es	2.076891	2.027832	0.342759	99
Es	0.111775	-0.198552	-0.619191	99
Es	2.168725	2.289788	0.208239	99
Es	0.656137	1.893073	-0.888575	99
Es	0.136943	-0.226238	-0.037952	99
Es	0.842551	2.259234	1.030906	99
Es	-0.335925	-1.225987	-0.353004	99
Es	1.664154	2.165442	0.688208	99
Es	-0.772859	-2.032775	-0.371888	99
Es	0.836104	0.803960	-0.319014	99
Es	-0.268472	-1.839976	-0.381505	99
Es	-0.396628	-0.444943	-0.315508	99
Es	0.782218	0.077854	-0.344857	99
Es	-0.121457	-1.912155	-0.119046	99
Es	0.882155	1.542699	-0.291652	99
Es	1.681201	1.810736	0.014249	99
Es	-1.569684	-2.414234	-0.362541	99
Es	-0.745706	-0.296963	-0.293514	99
Es	0.720335	1.871435	1.641282	99
Es	1.399631	-0.309711	-0.389860	99
Es	-1.970053	-2.177398	-0.949307	99
Es	0.622526	1.855342	0.366729	99
Es	2.218280	1.783322	0.470436	99
Es	-1.495085	-3.152505	-0.402225	99
Es	-1.925194	-2.238487	0.272780	99
Es	0.591824	2.950012	1.046919	99
Es	-0.143736	-1.888111	-0.659721	99
