43
Properties=species:S:1:pos:R:3:Z:I:1 energy=-323.90610376765477 field_type=dipole dipole="0.000000 0.000000 0.000000" charge=0
C	3.090383	-1.588779	0.190852	6
O	2.137303	-0.777229	-0.485268	8
N	0.911533	-0.878539	0.189413	7
C	0.026473	-0.188979	-0.454848	6
C	-1.401047	-0.121349	0.022512	6
C	-1.703027	1.288191	0.435093	6
C	-2.623447	2.064561	-0.152317	6
H	4.041252	-1.524579	-0.344007	1
H	2.761163	-2.632429	0.200092	1
H	3.235703	-1.229589	1.214683	1
H	0.275503	0.362221	-1.379107	1
H	-1.545017	-0.796209	0.871842	1
H	-2.046547	-0.450949	-0.798097	1
H	-1.135987	1.683881	1.276512	1
H	-3.222347	1.713431	-0.987247	1
H	-2.801897	3.076341	0.199892	1
Es	-1.546103	0.580398	0.219423	99
Es	-1.702943	1.288089	0.435119	99
Es	-2.749277	2.750756	0.080415	99
Es	3.735407	-1.541290	-0.177148	99
Es	-2.393330	1.569022	0.339929	99
Es	0.898772	-1.088821	0.504689	99
Es	-3.030975	1.828826	-0.719868	99
Es	1.603399	-0.826989	-0.182189	99
Es	2.480200	-1.092137	-0.209468	99
Es	2.079859	-0.905160	-0.759791	99
Es	0.188229	0.182588	-1.073938	99
Es	-1.940182	1.791585	-0.074824	99
Es	0.026425	-0.188972	-0.454825	99
Es	3.090232	-1.588645	0.190734	99
Es	-1.400980	-0.121297	0.022489	99
Es	-2.623514	2.064620	-0.152369	99
Es	-1.497032	-0.565695	0.593040	99
Es	3.191689	-1.346953	0.893028	99
Es	-1.312519	1.546084	1.003555	99
Es	0.590078	-0.340889	0.069986	99
Es	0.911648	-0.878232	0.188914	99
Es	-0.679925	-0.153756	-0.210401	99
Es	-1.830582	-0.337118	-0.536689	99
Es	2.217890	-0.479194	-0.454294	99
Es	0.456574	-0.812317	-0.249090	99
Es	2.867729	-2.304089	0.200414	99
Es	2.137263	-0.777449	-0.484985	99
