42
Properties=species:S:1:pos:R:3:Z:I:1 energy=-339.8735163336439 field_type=dipole dipole="0.000000 0.000000 0.000000" charge=0
C	-2.486228	-1.501564	-0.546853	6
O	-1.853688	-0.264134	-0.849063	8
N	-0.609148	-0.232605	-0.201023	7
C	-0.032698	0.895696	-0.460083	6
N	1.203272	1.366426	-0.042173	7
C	1.646592	0.955056	1.299757	6
C	2.278792	0.369356	0.084497	6
H	-3.440168	-1.541634	-1.079273	1
H	-2.678248	-1.574775	0.528027	1
H	-1.862948	-2.338574	-0.877063	1
H	-0.526058	1.650596	-1.098593	1
H	0.939202	0.364356	1.865567	1
H	2.163742	1.742795	1.828887	1
H	3.238032	0.746546	-0.238653	1
H	2.019552	-0.637534	-0.213953	1
Es	-2.070030	-0.741402	-0.718217	99
Es	2.107729	-0.306803	-0.113690	99
Es	-0.369735	1.397329	-0.889648	99
Es	-3.134306	-1.522793	-0.911103	99
Es	1.646554	0.955098	1.299490	99
Es	-0.233268	0.122583	-0.545392	99
Es	-2.017104	-0.036597	-0.715677	99
Es	-0.504362	-0.534143	0.005586	99
Es	1.288169	1.693906	-0.155460	99
Es	1.624165	0.914737	-0.131724	99
Es	-1.853574	-0.264400	-0.848857	99
Es	1.203154	1.365799	-0.041931	99
Es	-0.486847	0.362318	-0.067230	99
Es	1.175060	0.557997	1.680929	99
Es	1.998217	1.484491	1.662084	99
Es	-1.303041	-0.255934	-0.557585	99
Es	2.930844	0.619869	-0.132089	99
Es	-0.609359	-0.232180	-0.201349	99
Es	-2.618075	-1.556905	0.189431	99
Es	-2.061861	-2.077358	-0.770438	99
Es	-0.032551	0.895724	-0.460021	99
Es	-1.782198	-0.262948	-1.150736	99
Es	2.104739	0.539725	0.824976	99
Es	-2.486135	-1.501360	-0.546909	99
Es	2.278588	0.369547	0.084531	99
Es	0.663590	1.106819	-0.197947	99
Es	1.261090	1.251422	0.569125	99
