43
Properties=species:S:1:pos:R:3:Z:I:1 energy=-323.9486095086812 field_type=dipole dipole="0.000000 0.000000 0.000000" charge=0
N	-1.899679	-0.492356	-0.519502	7
C	-0.598359	-0.179416	0.084428	6
C	0.188891	-1.333956	0.652528	6
C	0.647711	-0.618106	-0.586902	6
C	1.616721	0.507514	-0.509212	6
O	0.874611	1.667114	-0.089222	8
C	-0.323529	1.220604	0.575418	6
H	-2.227209	0.281914	-1.100952	1
H	-2.609199	-0.629086	0.201888	1
H	-0.205789	-2.337436	0.532668	1
H	0.735681	-1.183806	1.574898	1
H	0.596071	-1.105216	-1.548602	1
H	2.407141	0.313824	0.223518	1
H	2.078231	0.723974	-1.475832	1
H	-0.155229	1.243314	1.656468	1
H	-1.126069	1.921124	0.328408	1
Es	-0.323342	1.220640	0.575303	99
Es	-0.479760	0.510833	0.357085	99
Es	-0.081480	-2.004981	0.569443	99
Es	2.162740	0.368393	-0.003220	99
Es	0.647644	-0.618136	-0.586750	99
Es	0.770079	1.782694	-0.349845	99
Es	1.046121	1.834114	0.109799	99
Es	-0.879847	1.690459	0.404328	99
Es	1.930371	0.649123	-1.172202	99
Es	0.584644	-1.084220	0.030961	99
Es	0.614381	-0.957423	-1.230869	99
Es	0.432251	1.469746	0.169182	99
Es	-1.873885	-0.783295	-0.706545	99
Es	1.140558	1.211359	-0.227342	99
Es	0.874506	1.666714	-0.089144	99
Es	-2.318766	-0.549976	-0.071503	99
Es	1.616583	0.507675	-0.509143	99
Es	-1.899693	-0.491960	-0.519232	99
Es	-0.210977	1.231295	1.322681	99
Es	-0.598386	-0.179555	0.084392	99
Es	1.149162	-0.082035	-0.535101	99
Es	-0.004383	-0.300908	-0.388888	99
Es	0.563215	-1.222952	1.277137	99
Es	-0.335438	-0.764689	0.531602	99
Es	-2.089045	-0.008382	-0.853161	99
Es	0.188873	-1.333825	0.652411	99
Es	-1.344470	-0.330716	-0.242318	99
