45
Properties=species:S:1:pos:R:3:Z:I:1 energy=-341.1252657936041 field_type=dipole dipole="0.000000 0.000000 0.000000" charge=0
N	-2.109351	-0.485509	0.559162	7
C	-0.658271	-0.590909	0.778472	6
C	0.165299	-1.349609	-0.217898	6
C	0.280549	0.156361	-0.156978	6
N	-0.346151	0.935721	-1.268318	7
C	1.538299	0.764531	0.433732	6
O	2.312109	1.337420	-0.617418	8
H	-2.478861	0.325021	1.057782	1
H	-2.586931	-1.296429	0.953372	1
H	-0.358921	-0.672649	1.820952	1
H	-0.337461	-1.800109	-1.065718	1
H	0.990309	-1.945879	0.154752	1
H	-1.360551	0.803541	-1.173668	1
H	-0.121761	0.480611	-2.154928	1
H	2.154229	0.026471	0.956672	1
H	1.277328	1.561901	1.137122	1
H	1.640139	1.749521	-1.197088	1
Es	-2.381409	-0.971436	0.813460	99
Es	1.948844	0.250886	0.793332	99
Es	-0.179598	-1.645928	-0.791546	99
Es	2.311736	1.337373	-0.617413	99
Es	0.898846	0.448003	0.141818	99
Es	-0.346259	0.935208	-1.268303	99
Es	-0.445711	-0.642437	1.491651	99
Es	-1.480648	-0.531696	0.675609	99
Es	-2.318155	-0.002846	0.878335	99
Es	1.538379	0.764593	0.433540	99
Es	-0.321652	-1.134045	0.341453	99
Es	-0.208884	0.647884	-1.793261	99
Es	-0.658325	-0.590891	0.778304	99
Es	2.487021	1.557276	-0.492519	99
Es	-0.077303	0.575431	-0.791148	99
Es	1.951455	1.554837	-0.911905	99
Es	1.347826	1.308874	0.925528	99
Es	-2.109212	-0.485541	0.559717	99
Es	0.280401	0.156291	-0.157033	99
Es	2.002651	1.122257	-0.220950	99
Es	0.165245	-1.349479	-0.217813	99
Es	-0.249095	-0.047586	0.395945	99
Es	0.357145	-0.616554	-0.326309	99
Es	0.726037	-1.749170	0.042263	99
Es	-2.177497	-0.453662	0.213416	99
Es	-0.937953	0.854028	-1.211768	99
Es	-0.231575	1.283572	-1.259902	99
Es	2.427092	1.099747	-0.775512	99
