45
Properties=species:S:1:pos:R:3:Z:I:1 energy=-341.15200165479575 field_type=dipole dipole="0.000000 0.000000 0.000000" charge=0
N	-2.062151	0.285377	-0.529387	7
C	-0.602531	0.266637	-0.448447	6
C	-0.001731	1.351276	0.443993	6
N	1.376229	0.884636	0.676513	7
C	1.237930	-0.567423	0.898933	6
C	-0.040061	-1.020913	0.173283	6
O	0.223199	-1.993753	-0.837577	8
H	-2.371631	-0.539043	-1.047507	1
H	-2.369781	1.097066	-1.062897	1
H	-0.213941	0.376927	-1.469867	1
H	-0.530631	1.432956	1.401953	1
H	-0.012321	2.334986	-0.036377	1
H	1.918679	1.037226	-0.173677	1
H	2.132429	-1.098303	0.557703	1
H	1.133579	-0.743963	1.975633	1
H	-0.738821	-1.462394	0.893653	1
H	0.921549	-1.641293	-1.415927	1
Es	1.237928	-0.567286	0.898894	99
Es	0.145635	-1.613000	-0.467311	99
Es	1.844947	-0.929052	0.654197	99
Es	-2.205162	0.289054	-0.204802	99
Es	-0.033833	-2.010666	-1.010309	99
Es	-0.364108	1.395512	1.095495	99
Es	-0.602672	0.266637	-0.448436	99
Es	0.346059	-2.240089	-0.697989	99
Es	-0.001601	1.351227	0.443988	99
Es	-1.429009	0.278336	-0.517166	99
Es	-2.061911	0.285366	-0.529910	99
Es	-0.518857	-1.320449	0.659315	99
Es	1.539982	1.049767	0.943705	99
Es	0.600583	-1.780121	-1.138406	99
Es	-0.007717	2.024259	0.110460	99
Es	-0.308411	0.340222	-1.152124	99
Es	1.160109	-0.691365	1.634064	99
Es	1.683789	0.959398	0.140656	99
Es	-0.335422	0.827140	-0.009035	99
Es	1.315075	0.248769	0.755602	99
Es	0.609262	-0.809186	0.532285	99
Es	-0.039982	-1.021040	0.173097	99
Es	0.223386	-1.993420	-0.837552	99
Es	-2.234314	-0.203929	-0.858464	99
Es	-2.230707	0.773004	-0.869292	99
Es	0.777993	1.087975	0.561391	99
Es	-0.340913	-0.380892	-0.144618	99
Es	1.375950	0.884353	0.676035	99
