43
Properties=species:S:1:pos:R:3:Z:I:1 energy=-323.94082056633886 field_type=dipole dipole="0.000000 0.000000 0.000000" charge=0
N	-1.416334	0.159509	1.202184	7
C	0.003276	-0.057081	0.931194	6
C	0.336596	-1.473561	0.409674	6
O	0.581616	-1.378161	-1.007466	8
C	0.863306	0.002149	-1.326006	6
C	-0.298764	0.928789	-1.488396	6
C	0.438876	0.853979	-0.170346	6
H	-1.556224	1.114009	1.527064	1
H	-1.723394	-0.456641	1.951504	1
H	0.564806	0.134109	1.852394	1
H	-0.460135	-2.200281	0.595834	1
H	1.254996	-1.844621	0.878474	1
H	1.787025	0.236269	-1.839676	1
H	-0.159514	1.815089	-2.095456	1
H	-1.289634	0.495779	-1.559456	1
H	1.073506	1.670669	0.138484	1
Es	0.968848	-1.723026	0.742492	99
Es	1.490782	0.150861	-1.681454	99
Es	-1.584973	-0.208297	1.672995	99
Es	0.488767	-1.383028	-0.469739	99
Es	0.438845	0.853926	-0.170505	99
Es	-0.210165	-1.965884	0.541698	99
Es	-0.298618	0.928759	-1.488266	99
Es	-0.057983	1.018044	-0.728791	99
Es	0.683415	-0.843595	-1.108560	99
Es	-0.956819	0.638800	-1.533911	99
Es	0.839694	-1.528529	-1.057187	99
Es	-0.798836	0.062191	1.110471	99
Es	0.863128	0.002028	-1.325909	99
Es	0.336627	-1.473511	0.409463	99
Es	0.255932	0.405630	-1.598780	99
Es	0.581442	-1.377810	-1.007238	99
Es	0.151363	-0.774303	0.683287	99
Es	0.201328	0.416860	0.376396	99
Es	0.864218	1.418980	0.034418	99
Es	0.320025	-1.447388	-1.148617	99
Es	-1.416030	0.159597	1.202660	99
Es	0.799723	0.403611	-0.656443	99
Es	0.402678	0.076149	1.562620	99
Es	-1.608960	0.099562	0.914883	99
Es	-0.193417	1.531254	-1.892562	99
Es	0.003137	-0.057086	0.931186	99
Es	-1.480574	0.734199	1.416104	99
