44
Properties=species:S:1:pos:R:3:Z:I:1 energy=-360.9600017721314 field_type=dipole dipole="0.000000 0.000000 0.000000" charge=0
N	-1.509465	-0.114276	0.252417	7
C	-0.045815	-0.045526	-0.009873	6
C	0.291245	-0.015666	-1.483523	6
O	-0.480985	1.001014	-2.122113	8
C	0.581875	1.019404	0.913377	6
O	0.879125	-0.000136	1.914767	8
C	0.694445	-1.036536	0.909507	6
H	-1.732285	-0.009296	1.247307	1
H	-1.930225	-1.005566	-0.015843	1
H	0.049575	-0.970096	-1.963613	1
H	1.350845	0.193084	-1.659513	1
H	-1.351345	0.982394	-1.674163	1
H	-0.082205	1.796444	1.303977	1
H	1.505715	1.483144	0.551407	1
H	1.661655	-1.395336	0.542037	1
H	0.117845	-1.883056	1.293847	1
Es	-0.481087	1.000734	-2.121849	99
Es	0.319065	-0.615705	0.383176	99
Es	1.358515	-1.280237	0.646320	99
Es	0.294423	-1.618808	1.165938	99
Es	-0.045960	-0.045539	-0.009814	99
Es	1.174131	0.015350	2.013800	99
Es	-0.877507	-0.114519	0.152926	99
Es	0.879062	-0.000136	1.914438	99
Es	-0.349893	1.264870	-2.038970	99
Es	-1.670808	0.147713	0.061901	99
Es	0.694482	-1.036376	0.909647	99
Es	0.581916	1.019222	0.913511	99
Es	-1.617994	-0.064250	0.849930	99
Es	0.780881	0.407671	1.553949	99
Es	0.240739	0.554045	0.385405	99
Es	1.212970	1.329948	0.653780	99
Es	0.125993	-0.685418	-1.797725	99
Es	-0.515985	0.917012	-2.414059	99
Es	0.628046	-0.015184	2.092036	99
Es	0.291110	-0.015516	-1.483573	99
Es	0.124497	1.548294	1.177127	99
Es	-1.735315	-0.666893	0.096542	99
Es	-1.509193	-0.114692	0.252676	99
Es	-0.199736	0.604696	-1.865971	99
Es	1.016201	0.123650	-1.588696	99
Es	-0.934630	0.974427	-1.883414	99
Es	0.118435	-0.038796	-0.741055	99
Es	0.826103	-0.415582	1.550741	99
