42
Properties=species:S:1:pos:R:3:Z:I:1 energy=-286.9238161024564 field_type=dipole dipole="0.000000 0.000000 0.000000" charge=0
C	-2.257806	-0.090453	0.253479	6
C	-0.816856	0.067397	-0.048931	6
C	-0.068146	1.178158	0.003779	6
C	1.313594	0.916887	-0.367971	6
C	2.131944	-0.055623	0.438249	6
N	1.408194	-0.523322	-0.743771	7
C	0.055414	-1.083693	-0.461101	6
H	-2.430576	-0.995872	0.841349	1
H	-2.834946	-0.164913	-0.670881	1
H	-2.642226	0.756598	0.830629	1
H	-0.427356	2.160928	0.272259	1
H	1.806243	1.602237	-1.046821	1
H	3.209414	-0.008413	0.340479	1
H	1.780804	-0.367772	1.413419	1
H	0.105934	-1.848012	0.320279	1
H	-0.333626	-1.544132	-1.374451	1
Es	1.294299	0.124170	-0.682816	99
Es	1.886735	-0.269673	1.101006	99
Es	1.407894	-0.523086	-0.743232	99
Es	0.085557	-1.596283	0.077839	99
Es	-0.068069	1.178252	0.003773	99
Es	0.636297	1.082792	-0.161838	99
Es	-0.216008	-1.395595	-1.079667	99
Es	1.742960	-0.463405	-0.187062	99
Es	-2.365470	-0.705391	0.648562	99
Es	-0.515573	0.709597	-0.331380	99
Es	0.826513	-0.764398	-0.585871	99
Es	-1.535811	-0.014974	0.105577	99
Es	1.649728	1.390913	-0.820271	99
Es	-0.409621	-0.524327	-0.252227	99
Es	-0.375344	0.586353	0.296565	99
Es	1.595391	-0.630019	-1.032576	99
Es	2.864375	-0.027848	0.372066	99
Es	1.766239	0.611141	0.181739	99
Es	-0.816922	0.067283	-0.048916	99
Es	-2.634371	-0.142432	-0.373264	99
Es	1.313636	0.916650	-0.367974	99
Es	0.055519	-1.083615	-0.461112	99
Es	-0.304242	1.849846	0.185614	99
Es	2.131805	-0.055632	0.438062	99
Es	-2.257761	-0.090455	0.253470	99
Es	-2.513791	0.485709	0.640805	99
