39
Properties=species:S:1:pos:R:3:Z:I:1 energy=-338.82068942921364 field_type=dipole dipole="0.000000 0.000000 0.000000" charge=0
N	-2.591467	-0.037895	0.015948	7
C	-1.306227	-0.050945	0.008168	6
N	-0.557157	-1.179625	0.020098	7
C	0.799423	-1.220125	0.014868	6
C	1.499963	-0.086775	-0.006142	6
C	0.781183	1.225295	-0.024592	6
O	-0.666937	1.141755	-0.013112	8
H	-2.857937	0.953215	0.003388	1
H	-1.073827	-2.049155	0.036618	1
H	1.252303	-2.205675	0.028698	1
H	2.583753	-0.094165	-0.010612	1
H	1.074473	1.817705	0.847888	1
H	1.062453	1.786395	-0.921222	1
Es	0.780927	1.225197	-0.024588	99
Es	1.129263	0.562605	-0.015299	99
Es	-1.305859	-0.050870	0.008156	99
Es	-2.812938	-0.327696	0.021401	99
Es	-0.857735	-1.693493	0.018971	99
Es	0.799179	-1.220236	0.014869	99
Es	-2.096639	-0.044508	-0.270464	99
Es	-2.093100	-0.036302	0.296938	99
Es	0.030742	-1.188323	-0.005434	99
Es	-2.591057	-0.037585	0.015941	99
Es	2.227912	-0.077057	-0.009400	99
Es	1.499962	-0.086675	-0.006144	99
Es	-0.556803	-1.178217	0.017702	99
Es	-0.129573	1.112991	-0.017251	99
Es	-0.850385	0.653925	-0.006333	99
Es	-0.769770	1.240802	-0.263025	99
Es	-2.742970	0.555655	0.007964	99
Es	-0.539725	-1.108586	0.085797	99
Es	1.181334	-0.631160	-0.325484	99
Es	1.183769	-0.620112	0.333595	99
Es	0.982419	1.620665	0.568833	99
Es	0.974253	1.599152	-0.634230	99
Es	-0.666737	1.141387	-0.013034	99
Es	-0.864512	-0.675429	-0.016792	99
Es	-0.764117	1.242515	0.237395	99
Es	1.090782	-1.888921	0.024230	99
