39
Properties=species:S:1:pos:R:3:Z:I:1 energy=-338.7687433164367 field_type=dipole dipole="0.000000 0.000000 0.000000" charge=0
N	-0.436966	-1.743425	-1.015956	7
C	-0.899356	-1.024285	0.174134	6
C	-0.275166	0.329715	0.261754	6
N	-0.990046	1.366065	0.726104	7
O	-0.139466	2.456305	0.698154	8
C	1.073895	2.069315	0.237794	6
C	1.049425	0.730345	-0.045876	6
H	-0.956836	-2.616635	-1.087696	1
H	0.538274	-2.006005	-0.890686	1
H	-0.652476	-1.603105	1.071174	1
H	-1.990556	-0.934025	0.126364	1
H	1.820844	2.845845	0.175314	1
H	1.858425	0.129895	-0.430576	1
Es	-0.989429	1.366044	0.725909	99
Es	-0.722688	-1.403488	0.792938	99
Es	1.574238	2.584009	0.195529	99
Es	-1.340110	1.423984	0.849350	99
Es	0.949088	1.366311	-0.205699	99
Es	1.073689	2.069476	0.237895	99
Es	-0.899245	-1.024281	0.174015	99
Es	-0.749124	1.007191	0.263759	99
Es	0.334631	2.278353	0.619735	99
Es	0.405775	0.471014	0.090853	99
Es	-0.745357	-2.274316	-1.035216	99
Es	1.588872	0.320109	-0.301389	99
Es	-0.101361	2.436114	0.434966	99
Es	-0.572226	-0.334980	0.212379	99
Es	-0.436893	-1.743748	-1.015449	99
Es	-0.186987	2.695051	0.887665	99
Es	-0.139297	2.455889	0.698058	99
Es	1.128843	1.242615	0.375753	99
Es	-0.585921	0.885440	0.790930	99
Es	-0.625649	-1.441336	-0.481087	99
Es	0.150953	-1.908004	-0.918452	99
Es	-0.275204	0.329717	0.261772	99
Es	-0.464258	1.980153	0.715059	99
Es	-1.630742	-0.959101	0.142621	99
Es	-0.476715	-1.550279	-1.306342	99
Es	1.049429	0.730315	-0.045873	99
