48
Properties=species:S:1:pos:R:3:Z:I:1 energy=-289.29198518380446 field_type=dipole dipole="0.000000 0.000000 0.000000" charge=0
C	-2.245450	-0.456472	0.063220	6
C	-0.756830	-0.442432	0.305080	6
C	-0.378740	-0.525503	1.761871	6
C	0.132241	-1.139863	-0.703040	6
C	0.094450	0.368208	-0.664009	6
C	1.290980	1.152358	-0.233049	6
N	2.118761	1.376477	-1.410179	7
H	-2.488950	-0.398542	-1.003209	1
H	-2.718930	0.395238	0.562810	1
H	-2.687600	-1.377582	0.457140	1
H	0.689920	-0.707902	1.908900	1
H	-0.916189	-1.346102	2.248620	1
H	-0.640740	0.406078	2.273690	1
H	-0.328630	-1.630352	-1.554039	1
H	1.024160	-1.645562	-0.348720	1
H	-0.431190	0.879318	-1.466760	1
H	1.881270	0.632448	0.527231	1
H	0.973140	2.114177	0.180750	1
H	2.424040	0.474387	-1.774059	1
H	2.964280	1.871627	-1.132249	1
Es	0.691639	0.743138	-0.428093	99
Es	1.691061	0.786061	0.299952	99
Es	0.132197	-1.139723	-0.702984	99
Es	-2.544994	-1.085867	0.335234	99
Es	0.743511	-1.477439	-0.456145	99
Es	1.291042	1.152366	-0.233169	99
Es	-0.378744	-0.525499	1.761851	99
Es	-2.405285	-0.416504	-0.665838	99
Es	1.779051	1.269694	-0.888485	99
Es	-0.559690	0.110935	2.110001	99
Es	-0.756728	-0.442446	0.304969	99
Es	-0.388691	0.130981	-0.094118	99
Es	-0.269876	0.707010	-1.207576	99
Es	-1.501337	-0.450529	0.174451	99
Es	1.074993	1.813082	0.051325	99
Es	-0.364123	-0.969551	-0.144201	99
Es	-0.748708	-1.084870	2.088706	99
Es	-2.245435	-0.456470	0.063223	99
Es	-2.565608	0.125055	0.407133	99
Es	2.637039	1.663280	-1.226127	99
Es	-0.185836	-1.473304	-1.280626	99
Es	0.242910	-0.387211	-0.826300	99
Es	0.351256	-0.647259	1.856116	99
Es	2.310413	0.824031	-1.608403	99
Es	0.094424	0.368044	-0.663931	99
Es	1.944430	1.557243	-1.661084	99
Es	2.119044	1.376195	-1.409769	99
Es	-0.553603	-0.480881	1.031510	99
