44
Properties=species:S:1:pos:R:3:Z:I:1 energy=-360.96024536305515 field_type=dipole dipole="0.000000 0.000000 0.000000" charge=0
N	-2.032871	-0.195282	0.731389	7
C	-1.001521	-0.893362	-0.027441	6
C	0.215369	-0.022892	-0.172951	6
C	1.037839	0.190198	1.068559	6
O	2.241909	0.901338	0.786679	8
C	0.811369	0.171648	-1.555531	6
O	-0.000051	1.180878	-0.940011	8
H	-2.889220	-0.747692	0.718699	1
H	-2.252970	0.674178	0.241409	1
H	-1.404641	-1.169342	-1.008371	1
H	-0.735871	-1.823892	0.485939	1
H	1.318979	-0.771802	1.510399	1
H	0.478250	0.760168	1.818950	1
H	1.953479	1.747128	0.391649	1
H	0.387039	-0.365642	-2.395111	1
H	1.872910	0.364368	-1.654261	1
Es	1.038013	0.190299	1.068448	99
Es	-0.391162	-0.454125	-0.100686	99
Es	-1.001581	-0.893273	-0.027361	99
Es	0.811172	0.171846	-1.555375	99
Es	-1.267100	-1.082545	-0.710593	99
Es	-2.546955	-0.534850	0.703060	99
Es	2.385413	0.745141	0.563311	99
Es	0.643939	0.574929	1.567726	99
Es	2.241571	0.901478	0.786695	99
Es	0.623253	-0.151132	-0.847136	99
Es	0.515130	-0.189499	-2.128459	99
Es	-0.811843	-1.524981	0.324372	99
Es	2.371101	0.963634	1.058250	99
Es	0.187822	1.403772	-0.825291	99
Es	1.523749	0.312478	-1.629340	99
Es	0.215317	-0.022642	-0.173142	99
Es	0.000068	1.180627	-0.940006	99
Es	2.073258	1.348901	0.579536	99
Es	0.624227	0.080878	0.435643	99
Es	0.016498	0.772919	-0.577999	99
Es	1.770444	0.644728	0.880987	99
Es	-0.284855	1.178604	-1.063656	99
Es	-2.167327	0.313717	0.419858	99
Es	-2.033026	-0.195397	0.730833	99
Es	1.222130	-0.470749	1.359469	99
Es	0.318843	0.863467	-1.261251	99
Es	-1.592757	-0.501310	0.384308	99
Es	-1.927639	-0.129849	1.064276	99
