46
Properties=species:S:1:pos:R:3:Z:I:1 energy=-325.1273077844109 field_type=dipole dipole="0.000000 0.000000 0.000000" charge=0
N	-2.690254	-1.274961	-0.269964	7
C	-1.239654	-1.161281	-0.351824	6
C	-0.723504	-0.128071	0.647016	6
C	0.794176	-0.039470	0.566406	6
C	1.403456	0.677520	-0.648124	6
C	2.099146	1.552739	0.388976	6
O	1.297256	0.995379	1.456366	8
H	-3.024594	-1.922421	-0.982354	1
H	-3.122024	-0.374210	-0.473624	1
H	-0.954774	-0.882390	-1.372074	1
H	-0.791744	-2.139631	-0.145934	1
H	-1.017354	-0.417630	1.663766	1
H	-1.175114	0.852179	0.448426	1
H	1.282396	-0.994321	0.800976	1
H	0.694056	1.214289	-1.284394	1
H	2.068506	0.067469	-1.263944	1
H	3.162396	1.346649	0.542626	1
H	1.937626	2.628159	0.277676	1
Es	-2.690092	-1.274780	-0.270487	99
Es	1.797123	1.150865	-0.204193	99
Es	0.914547	1.042641	-1.077085	99
Es	2.099008	1.552633	0.389111	99
Es	1.478401	0.874614	1.678012	99
Es	-1.030767	-0.962436	-1.058518	99
Es	-0.723481	-0.128097	0.646972	99
Es	-1.239784	-1.161267	-0.351796	99
Es	1.297272	0.995327	1.456052	99
Es	-0.916585	-0.328370	1.333920	99
Es	-2.880865	-1.656181	-0.718340	99
Es	1.618627	1.225316	1.071065	99
Es	-2.935716	-0.726023	-0.414508	99
Es	1.061856	1.189982	1.501596	99
Es	1.125291	-0.703031	0.719540	99
Es	1.060942	0.263113	-0.110558	99
Es	-2.790792	-1.383377	0.049483	99
Es	2.832475	1.408837	0.487260	99
Es	-1.029184	0.541936	0.498628	99
Es	0.794242	-0.039292	0.566508	99
Es	0.031507	-0.087069	0.598412	99
Es	1.102395	0.589306	1.144373	99
Es	-0.930167	-1.832243	-0.210074	99
Es	1.856580	0.260699	-1.072672	99
Es	-0.979486	-0.642386	0.145289	99
Es	1.403464	0.677522	-0.648088	99
Es	1.993116	2.293610	0.310216	99
Es	-2.063413	-1.216597	-0.331012	99
