46
Properties=species:S:1:pos:R:3:Z:I:1 energy=-325.140020064935 field_type=dipole dipole="0.000000 0.000000 0.000000" charge=0
N	-1.729281	-0.343692	1.026908	7
C	-1.583691	0.120218	-0.356292	6
C	-0.285851	0.908948	-0.583302	6
C	0.974899	0.076518	-0.464542	6
C	1.568849	-0.448312	-1.551492	6
C	1.571509	-0.082752	0.909208	6
O	0.877769	-1.077782	1.640858	8
H	-2.581791	-0.905102	1.093218	1
H	-1.887891	0.461968	1.635438	1
H	-2.440701	0.757748	-0.602212	1
H	-1.618861	-0.744112	-1.028892	1
H	-0.233591	1.761068	0.105888	1
H	-0.333341	1.351918	-1.587471	1
H	1.152029	-0.325932	-2.545922	1
H	2.476089	-1.039142	-1.466402	1
H	1.529399	0.860358	1.463388	1
H	2.623869	-0.378002	0.858978	1
H	-0.079421	-0.953912	1.452638	1
Es	1.568881	-0.448359	-1.551578	99
Es	0.335729	0.483600	-0.513106	99
Es	-1.729684	-0.343419	1.026745	99
Es	1.264930	0.004784	0.208541	99
Es	0.929488	-1.014668	1.937964	99
Es	-2.249254	-0.669197	1.058147	99
Es	0.962729	-1.342121	1.510700	99
Es	-1.606349	-0.470421	-0.811365	99
Es	2.185401	-0.847808	-1.500431	99
Es	-1.681851	-0.133994	0.437673	99
Es	0.403468	-0.997955	1.535452	99
Es	-0.285860	0.908907	-0.583285	99
Es	1.456649	0.086129	-1.061935	99
Es	1.101914	-0.461938	-0.981971	99
Es	-0.322580	1.201124	-1.268401	99
Es	-1.583670	0.120194	-0.356128	99
Es	1.571368	-0.082884	0.909263	99
Es	1.286216	-0.366183	-2.231694	99
Es	1.125413	-0.681249	1.345983	99
Es	-2.172594	0.566705	-0.530436	99
Es	-0.919963	0.506080	-0.455797	99
Es	-1.834384	0.150011	1.379557	99
Es	-1.423310	-0.535289	1.139018	99
Es	2.293876	-0.282595	0.864078	99
Es	0.877636	-1.077552	1.640684	99
Es	1.536821	0.581818	1.277784	99
Es	0.974815	0.076590	-0.464457	99
Es	-0.253658	1.482046	-0.102044	99
