42
Properties=species:S:1:pos:R:3:Z:I:1 energy=-339.9195405228792 field_type=dipole dipole="0.000000 0.000000 0.000000" charge=0
N	-2.040271	-1.317162	-0.093511	7
C	-0.607851	-1.023062	-0.012211	6
C	-0.280271	0.439658	0.103789	6
C	-1.150231	1.458748	0.203569	6
C	1.164629	0.795028	0.115369	6
N	2.111649	-0.083872	0.021429	7
O	3.347079	0.573238	0.066059	8
H	-2.161301	-2.328932	-0.091351	1
H	-2.382831	-1.000282	-0.999351	1
H	-0.123641	-1.441362	-0.902341	1
H	-0.203331	-1.547192	0.861319	1
H	-2.221051	1.278318	0.219989	1
H	-0.833821	2.493118	0.288469	1
H	1.401239	1.870558	0.210619	1
H	3.980009	-0.166802	0.008159	1
Es	2.111693	-0.083253	0.021484	99
Es	-0.457234	-0.273566	0.044046	99
Es	1.686301	0.272995	0.351848	99
Es	-1.868888	1.347694	0.210293	99
Es	-2.095502	-1.930149	-0.107377	99
Es	-0.694295	0.977091	-0.174309	99
Es	1.164581	0.795005	0.115362	99
Es	3.682167	0.173397	0.034941	99
Es	1.319256	1.518104	0.179412	99
Es	-0.931498	2.157011	0.259762	99
Es	-0.334435	-1.365671	0.579189	99
Es	2.806097	0.286919	0.048671	99
Es	-2.039965	-1.317403	-0.093942	99
Es	-0.280131	0.439586	0.103773	99
Es	3.357806	0.700069	0.346230	99
Es	3.347043	0.572920	0.066070	99
Es	-0.607995	-1.022999	-0.012215	99
Es	3.353107	0.734588	-0.194068	99
Es	1.679407	0.326248	-0.227016	99
Es	-2.225886	-1.168229	0.169943	99
Es	-0.682585	0.924530	0.470282	99
Es	2.114207	-0.462254	-0.013037	99
Es	-1.416127	-1.190188	-0.074963	99
Es	0.455873	0.598356	0.106380	99
Es	-0.269381	-1.290799	-0.619448	99
Es	-2.232145	-1.133536	-0.651570	99
Es	-1.150276	1.458812	0.203564	99
