38
Properties=species:S:1:pos:R:3:Z:I:1 energy=-358.6285886461672 field_type=dipole dipole="0.000000 0.000000 0.000000" charge=0
N	-1.867714	-1.493807	0.110763	7
C	-0.416114	-1.481817	0.058363	6
C	0.065906	-0.120647	0.058363	6
C	0.463186	1.001253	0.058363	6
C	0.984906	2.344723	0.051173	6
O	2.333196	2.402214	0.109013	8
O	0.256556	3.319523	-0.015037	8
H	-2.201374	-2.451847	0.028893	1
H	-2.238814	-0.991537	-0.694827	1
H	-0.079164	-2.007777	-0.841107	1
H	-0.022224	-2.027367	0.921873	1
H	2.721656	1.507083	0.154163	1
Es	0.256765	3.319241	-0.015015	99
Es	0.463290	1.001493	0.058330	99
Es	-0.170371	-1.815391	-0.551783	99
Es	0.985144	2.344595	0.051188	99
Es	2.512592	1.920004	0.130899	99
Es	1.819646	2.342554	0.086051	99
Es	2.332973	2.401884	0.109019	99
Es	2.352541	2.529186	0.358937	99
Es	0.725460	1.638691	0.056001	99
Es	-1.867494	-1.494055	0.110263	99
Es	0.499693	2.977032	0.260287	99
Es	0.071013	0.552750	-0.219833	99
Es	-1.979952	-1.350637	0.406371	99
Es	-0.164375	-0.769643	0.057345	99
Es	-0.032185	3.229941	-0.026644	99
Es	-1.220036	-1.489913	0.064491	99
Es	0.417829	3.577600	-0.014933	99
Es	-2.072806	-1.204994	-0.388771	99
Es	-0.143402	-1.828808	0.636477	99
Es	2.382633	2.522430	-0.142056	99
Es	-2.048989	-2.076918	0.043094	99
Es	0.524167	2.962222	-0.243405	99
Es	-0.416202	-1.481679	0.058363	99
Es	0.611241	0.315547	0.007241	99
Es	0.174197	0.554016	0.382204	99
Es	0.065830	-0.120866	0.058372	99
