39
Properties=species:S:1:pos:R:3:Z:I:1 energy=-338.7630997933982 field_type=dipole dipole="0.000000 0.000000 0.000000" charge=0
N	-1.431555	-1.493137	-0.974718	7
C	-0.381976	-1.570577	-0.230788	6
N	0.484304	-0.569077	0.151072	7
C	0.793794	0.455873	-0.860598	6
C	-0.102225	0.781603	0.286022	6
C	0.397655	1.584693	1.414022	6
O	0.438094	2.807303	1.351132	8
H	-1.854316	-2.424247	-1.065898	1
H	-0.076406	-2.540857	0.197922	1
H	0.355335	0.296263	-1.836848	1
H	1.824774	0.779643	-0.835038	1
H	-1.165056	0.856893	0.088652	1
H	0.717574	1.035623	2.315063	1
Es	-0.171592	-2.231595	0.061627	99
Es	0.655019	-0.261460	-0.354114	99
Es	0.438081	2.806992	1.351142	99
Es	0.742551	-0.653771	0.387947	99
Es	0.544932	2.938825	1.612213	99
Es	-0.102062	0.781370	0.285996	99
Es	0.397638	1.584693	1.413996	99
Es	0.152277	1.158885	0.852121	99
Es	0.081219	-0.977145	-0.042454	99
Es	0.613176	1.201698	2.021114	99
Es	-1.674051	-2.054525	-1.020715	99
Es	0.659177	2.344889	1.284012	99
Es	0.793698	0.455731	-0.860362	99
Es	-0.381868	-1.570472	-0.230736	99
Es	0.188213	2.367553	1.465114	99
Es	-0.799618	0.837824	0.170717	99
Es	0.140486	-0.065029	0.303333	99
Es	0.483795	-0.568826	0.150633	99
Es	1.486480	0.676886	-0.842348	99
Es	0.501871	0.353201	-1.510574	99
Es	-1.568220	-1.190790	-1.134640	99
Es	-1.156577	-1.484260	-0.432190	99
Es	-0.836657	-1.585467	-0.896634	99
Es	-1.431295	-1.493504	-0.974458	99
Es	0.337154	2.913646	1.075411	99
Es	0.327914	0.838987	-0.334867	99
