42
Properties=species:S:1:pos:R:3:Z:I:1 energy=-339.9512952230672 field_type=dipole dipole="0.000000 0.000000 0.000000" charge=0
N	-0.441741	0.717506	2.815599	7
C	-0.866951	0.452446	1.632739	6
N	-0.275402	-0.469974	0.835309	7
C	-0.305261	-0.218334	-0.575281	6
C	0.809669	0.711096	-1.071361	6
O	1.305509	-0.301514	-1.981531	8
C	0.419029	-1.288774	-1.400451	6
H	-1.040271	1.433146	3.243778	1
H	-1.746261	0.958476	1.196179	1
H	0.613789	-0.785624	1.216199	1
H	-1.305311	0.019116	-0.953411	1
H	1.577689	0.993516	-0.344101	1
H	0.465809	1.601046	-1.606491	1
H	-0.193892	-1.778234	-2.162721	1
H	0.983599	-2.043894	-0.844451	1
Es	1.305317	-0.301524	-1.981281	99
Es	-0.986506	-0.050281	-0.819855	99
Es	-0.791215	0.422377	2.443676	99
Es	-0.001480	-0.812072	-0.953355	99
Es	0.809728	0.710936	-1.071508	99
Es	-0.812605	1.147085	3.064349	99
Es	0.798786	-1.800926	-1.005302	99
Es	1.325196	0.898842	-0.561923	99
Es	0.573124	1.325072	-1.435062	99
Es	0.419144	-1.288599	-1.400524	99
Es	-0.151658	0.565735	2.978538	99
Es	-0.866945	0.452344	1.632598	99
Es	1.194471	-0.235639	-2.259385	99
Es	0.982484	-0.698450	-1.773545	99
Es	-0.305226	-0.218371	-0.575128	99
Es	-0.442158	0.717685	2.815296	99
Es	-1.463488	0.793075	1.320302	99
Es	-0.458432	0.834377	2.245264	99
Es	-0.275121	-0.469384	0.835305	99
Es	-0.287081	-0.344561	0.236575	99
Es	-0.472073	-0.017043	1.144997	99
Es	1.599147	-0.369480	-1.914390	99
Es	0.260917	-0.639548	1.042045	99
Es	1.137879	0.101302	-1.644987	99
Es	-0.002717	-1.627029	-1.919467	99
Es	0.217677	0.318162	-0.773480	99
Es	-0.517337	-0.641381	0.938732	99
