42
Properties=species:S:1:pos:R:3:Z:I:1 energy=-339.9629047022658 field_type=dipole dipole="0.000000 0.000000 0.000000" charge=0
N	-1.420490	-1.047130	-1.148621	7
C	-1.058010	0.244580	-0.906721	6
N	-1.206290	1.169640	-1.793531	7
C	-0.420810	0.590150	0.425689	6
C	1.032700	0.244430	0.429329	6
C	1.736730	-0.159970	1.696369	6
O	1.320460	-1.129530	0.721229	8
H	-0.942400	-1.739500	-0.575581	1
H	-1.471360	-1.324230	-2.120031	1
H	-1.659940	0.779740	-2.621271	1
H	-0.959500	0.053700	1.217339	1
H	-0.542280	1.663060	0.614439	1
H	1.597780	0.738650	-0.349631	1
H	1.195730	-0.125990	2.632909	1
H	2.797690	0.042400	1.778089	1
Es	-0.740361	0.397832	-0.237979	99
Es	-1.407677	0.854439	-1.347002	99
Es	0.293433	0.407861	0.422916	99
Es	1.368051	-0.146319	2.333614	99
Es	-1.191145	-0.516405	-1.070040	99
Es	1.388885	0.274781	1.138175	99
Es	2.458669	-0.032600	1.752973	99
Es	-0.777370	0.219195	0.957586	99
Es	1.417572	0.567885	-0.102322	99
Es	-1.121499	1.526432	-1.764098	99
Es	1.320482	-1.129148	0.721337	99
Es	-1.124471	-1.450387	-0.816908	99
Es	1.054586	-1.260349	0.816773	99
Es	-0.493170	1.304609	0.548218	99
Es	-0.420803	0.590104	0.425630	99
Es	1.517115	-0.843343	1.156250	99
Es	-1.685581	-0.958633	-1.030676	99
Es	1.736627	-0.160169	1.696140	99
Es	1.174119	-0.643347	0.510860	99
Es	-1.419963	-1.046950	-1.148748	99
Es	-1.058029	0.244413	-0.906638	99
Es	1.565837	-1.227512	0.561316	99
Es	-1.206383	1.169238	-1.793539	99
Es	-1.433467	-1.200896	-1.729663	99
Es	-1.477458	0.911451	-2.297989	99
Es	1.032729	0.244119	0.429430	99
Es	-0.890784	0.749094	-1.557440	99
