39
Properties=species:S:1:pos:R:3:Z:I:1 energy=-338.81955366471726 field_type=dipole dipole="0.000000 0.000000 0.000000" charge=0
N	-1.964310	-1.667801	0.834747	7
C	-2.039630	-0.414362	0.553017	6
N	-1.024260	0.395938	0.132637	7
C	0.286980	0.037868	-0.076853	6
C	1.282830	0.831518	-0.480883	6
C	2.638690	0.278478	-0.655063	6
O	3.567100	0.987358	-1.021433	8
H	-2.885790	-2.013132	1.124237	1
H	-2.999300	0.124818	0.640097	1
H	-1.245760	1.369569	-0.044833	1
H	0.457600	-1.019682	0.128767	1
H	1.159730	1.884778	-0.694873	1
H	2.766120	-0.795352	-0.439563	1
Es	-1.023954	0.363921	0.125846	99
Es	-2.521936	-1.856303	1.004749	99
Es	2.638642	0.278484	-0.655048	99
Es	3.473407	1.282105	-1.067811	99
Es	3.177541	0.674593	-1.127133	99
Es	-1.944834	-1.095900	0.993335	99
Es	3.839681	0.834225	-1.046949	99
Es	3.282567	0.782685	-0.649023	99
Es	1.188780	1.539177	-0.622240	99
Es	-0.455990	0.235673	0.041770	99
Es	-1.665676	-1.874811	0.817752	99
Es	0.934587	0.531072	-0.000274	99
Es	3.566875	0.987212	-1.021349	99
Es	0.402734	-0.658400	0.057673	99
Es	-1.164172	0.974959	0.028398	99
Es	-2.039491	-0.414185	0.552945	99
Es	-1.964693	-1.667422	0.834755	99
Es	-1.016360	0.361766	0.157119	99
Es	-1.448358	0.027077	0.312480	99
Es	0.799203	0.391713	-0.606516	99
Es	1.940122	0.548707	-0.562033	99
Es	-2.684348	-0.031583	0.606661	99
Es	2.711889	-0.459981	-0.503582	99
Es	-2.065688	-1.224498	0.451967	99
Es	0.286701	0.037854	-0.076787	99
Es	1.282853	0.831515	-0.480881	99
