42
Properties=species:S:1:pos:R:3:Z:I:1 energy=-340.00345924481076 field_type=dipole dipole="0.000000 0.000000 0.000000" charge=0
N	-1.628811	-0.768337	-0.546843	7
C	-1.138781	0.068303	0.408687	6
N	-1.502151	-0.010447	1.642417	7
C	-0.093721	1.091223	0.013647	6
C	1.304709	0.541653	0.252827	6
C	1.682509	-0.543117	-0.728273	6
O	0.949879	-0.963027	-1.621163	8
H	-0.989771	-0.915997	-1.335803	1
H	-2.015351	-1.644747	-0.222613	1
H	-2.222231	-0.729707	1.737557	1
H	-0.244531	1.988693	0.625007	1
H	-0.238151	1.375123	-1.035013	1
H	1.402739	0.127793	1.262157	1
H	2.039409	1.345273	0.139077	1
H	2.694249	-0.962687	-0.591673	1
Es	0.663161	-0.820584	-1.622450	99
Es	1.304704	0.541621	0.252762	99
Es	-0.183138	1.276402	-0.695815	99
Es	-1.359325	-0.465263	-0.124968	99
Es	-1.138778	0.068282	0.408511	99
Es	-1.502272	-0.010724	1.642006	99
Es	-1.155734	-0.174019	1.220152	99
Es	1.378342	0.253238	0.909834	99
Es	-1.628372	-0.768499	-0.546543	99
Es	-1.262411	-0.854993	-0.994834	99
Es	0.600575	0.797589	0.129329	99
Es	-0.188389	1.689186	0.424486	99
Es	-1.389884	0.199837	1.926822	99
Es	-1.836699	-0.539809	-0.581592	99
Es	-1.570700	0.195866	1.107729	99
Es	0.950044	-0.962895	-1.620937	99
Es	1.804626	1.066472	0.162116	99
Es	1.078999	-1.187038	-1.792578	99
Es	-0.618602	0.571937	0.191192	99
Es	-1.936228	-0.462306	1.686288	99
Es	1.119025	-0.986823	-1.146210	99
Es	1.486423	-0.003382	-0.241403	99
Es	-1.848090	-1.291118	-0.335870	99
Es	-0.093694	1.091139	0.013661	99
Es	1.682489	-0.543117	-0.728277	99
Es	2.377372	-0.822179	-0.626308	99
Es	1.300353	-0.637569	-1.462033	99
