43
Properties=species:S:1:pos:R:3:Z:I:1 energy=-323.9990512004171 field_type=dipole dipole="0.000000 0.000000 0.000000" charge=0
N	-1.768136	0.438711	-1.658448	7
C	-1.627996	-0.535459	-0.713288	6
O	-2.093926	-1.655079	-0.886687	8
C	-0.842806	-0.134539	0.518942	6
C	0.601924	-0.524039	0.418792	6
C	1.639714	0.465181	-0.047128	6
C	1.601984	0.039981	1.394882	6
H	-1.203956	1.276481	-1.647207	1
H	-2.213576	0.170421	-2.526438	1
H	-1.301016	-0.635049	1.379762	1
H	-0.955386	0.943171	0.688372	1
H	0.722994	-1.566249	0.138752	1
H	1.337534	1.479671	-0.279207	1
H	2.451783	0.094161	-0.663108	1
H	2.386873	-0.618389	1.751392	1
H	1.263994	0.761031	2.130612	1
Es	-1.150436	-0.472207	1.091666	99
Es	-1.231663	-0.320700	-0.103989	99
Es	1.767306	0.364534	0.710051	99
Es	-1.722937	-1.358239	-0.924227	99
Es	-1.579315	0.016994	-1.357611	99
Es	-0.132201	-0.313778	0.453036	99
Es	-2.153150	-1.204591	-0.725686	99
Es	1.365223	0.530805	1.888993	99
Es	-1.973221	0.430313	-1.415518	99
Es	-2.231681	-1.676947	-1.170089	99
Es	-0.842807	-0.134545	0.518879	99
Es	-0.912308	0.604179	0.622743	99
Es	-2.008180	0.281504	-2.180184	99
Es	1.422291	1.153584	-0.204617	99
Es	-1.627985	-0.535309	-0.713371	99
Es	0.691850	-1.222662	0.226993	99
Es	1.047159	-0.032303	-0.001691	99
Es	-2.046904	-1.843584	-0.642131	99
Es	1.019740	-0.337705	1.050362	99
Es	0.602000	-0.523888	0.418822	99
Es	2.132727	-0.407414	1.632119	99
Es	1.601919	0.039980	1.394709	99
Es	-1.419229	0.926952	-1.655766	99
Es	-2.093800	-1.654787	-0.886641	99
Es	2.189489	0.212519	-0.462797	99
Es	-1.767754	0.438441	-1.658533	99
Es	1.639637	0.465093	-0.046994	99
