40
Properties=species:S:1:pos:R:3:Z:I:1 energy=-322.82151332169724 field_type=dipole dipole="0.000000 0.000000 0.000000" charge=0
N	-0.668392	-2.056674	-0.252899	7
C	-1.204282	-0.937964	0.310361	6
O	-2.326572	-0.956734	0.801551	8
C	-0.344913	0.294616	0.239771	6
C	-0.980892	1.473986	0.341361	6
C	1.104358	0.188176	0.196541	6
C	1.918437	0.977316	-0.517359	6
H	0.188658	-2.044274	-0.786149	1
H	-1.250182	-2.882794	-0.281539	1
H	-2.063632	1.526806	0.422601	1
H	-0.445943	2.416986	0.361901	1
H	1.535948	-0.612164	0.795791	1
H	1.543698	1.784426	-1.139709	1
H	2.993708	0.828296	-0.492229	1
Es	-0.170290	-2.042360	-0.581158	99
Es	-0.980905	1.474056	0.341340	99
Es	-0.618510	-1.945802	0.067752	99
Es	2.646246	0.882455	-0.502013	99
Es	-1.697560	1.518761	0.390584	99
Es	-0.610020	0.838241	0.592427	99
Es	-2.411011	-0.683481	0.925018	99
Es	1.918492	0.977373	-0.517399	99
Es	1.668516	1.522583	-0.939046	99
Es	-2.048840	-0.875200	0.422595	99
Es	-0.747421	-0.332774	0.272313	99
Es	1.473746	0.378012	-0.413475	99
Es	-0.344876	0.294476	0.239766	99
Es	-0.932942	-1.596573	-0.214128	99
Es	-2.453883	-1.242555	0.766541	99
Es	-0.668589	-2.056477	-0.253166	99
Es	-2.326300	-0.956741	0.801422	99
Es	1.104258	0.188107	0.196591	99
Es	1.522498	0.786135	0.086814	99
Es	-0.619286	2.110912	0.351215	99
Es	1.386164	-0.356260	0.600587	99
Es	0.375326	0.229626	0.203731	99
Es	-1.852823	-1.012562	0.857253	99
Es	-0.670017	0.848386	-0.042135	99
Es	-1.009589	-2.540771	-0.289338	99
Es	-1.204145	-0.938051	0.310284	99
