35
Properties=species:S:1:pos:R:3:Z:I:1 energy=-357.45822358288524 field_type=dipole dipole="0.000000 0.000000 0.000000" charge=0
N	-1.446108	-1.051136	1.106887	7
C	-0.482308	-0.833036	0.156087	6
O	-0.112378	-1.690636	-0.629013	8
C	0.106312	0.586164	0.149247	6
O	-0.306428	1.402394	0.967837	8
C	1.129432	0.971494	-0.798753	6
C	1.979242	1.295944	-1.584543	6
H	-1.718108	-0.304276	1.737367	1
H	-1.881938	-1.959526	1.176267	1
H	2.732282	1.582614	-2.281383	1
Es	-0.528513	1.271781	1.152870	99
Es	-0.324367	1.165047	0.494452	99
Es	1.979402	1.296019	-1.584676	99
Es	-0.306332	1.402148	0.967620	99
Es	-0.059914	-1.455495	-0.197972	99
Es	-0.174441	1.681839	0.947944	99
Es	2.466017	1.482177	-2.033492	99
Es	1.419208	0.899689	-1.417798	99
Es	-0.177220	-0.115804	0.144128	99
Es	-0.409932	-1.311791	-0.519843	99
Es	-0.992542	-1.056958	1.017075	99
Es	-0.112486	-1.690396	-0.628790	99
Es	0.106366	0.586144	0.149187	99
Es	-1.700434	-1.579896	1.150248	99
Es	1.129219	0.971406	-0.798580	99
Es	-0.482382	-0.832933	0.156199	99
Es	-0.266127	-1.958045	-0.581057	99
Es	-1.380376	-0.906919	0.688001	99
Es	-1.608701	-0.625817	1.477146	99
Es	0.105831	-1.585754	-0.819184	99
Es	-1.446041	-1.051106	1.106812	99
Es	1.737770	1.010859	-0.911986	99
Es	0.632456	0.761800	-0.352292	99
Es	0.028926	1.020838	0.815787	99
Es	1.427018	1.470132	-1.164533	99
