39
Properties=species:S:1:pos:R:3:Z:I:1 energy=-338.8098838899122 field_type=dipole dipole="0.000000 0.000000 0.000000" charge=0
N	-2.021262	-0.039112	0.433175	7
N	-0.639932	-0.017082	0.204535	7
C	0.134778	-1.197891	-0.049995	6
C	1.459248	-0.591822	-0.381035	6
C	1.441798	0.747318	-0.368325	6
C	0.070287	1.156448	-0.022215	6
O	-0.328232	2.305738	0.033085	8
H	-2.412022	0.782658	-0.043415	1
H	-2.165512	0.167798	1.424905	1
H	-0.283052	-1.752182	-0.894715	1
H	0.176208	-1.817961	0.849635	1
H	2.331908	-1.185881	-0.611195	1
H	2.235787	1.441968	-0.574435	1
Es	-0.328068	2.305369	0.033033	99
Es	-0.336988	-0.540036	0.084036	99
Es	-0.457021	0.387269	-0.083420	99
Es	-0.098245	2.497228	-0.035506	99
Es	2.040100	-1.005883	-0.533888	99
Es	1.527654	0.108935	-0.065847	99
Es	-2.020919	-0.038582	0.433349	99
Es	-2.241772	0.449664	0.149071	99
Es	-1.309018	-0.016872	0.316394	99
Es	-0.425408	0.200087	0.439102	99
Es	0.811315	-0.921194	-0.217279	99
Es	-0.264867	1.907834	-0.222956	99
Es	0.070225	1.156286	-0.022193	99
Es	1.970994	1.211960	-0.504996	99
Es	1.441748	0.747383	-0.368311	99
Es	0.175040	-1.615257	0.551309	99
Es	1.459215	-0.591955	-0.381027	99
Es	0.134742	-1.197721	-0.049971	99
Es	0.776119	0.976539	-0.197578	99
Es	1.367827	0.114414	-0.680425	99
Es	-0.640035	-0.017022	0.204167	99
Es	-2.160933	-0.356295	0.332232	99
Es	-0.131527	-1.567892	-0.619015	99
Es	-0.141009	1.928640	0.256675	99
Es	-2.097301	0.095321	1.029863	99
Es	-0.633376	2.328668	0.109755	99
