39
Properties=species:S:1:pos:R:3:Z:I:1 energy=-338.77050721632764 field_type=dipole dipole="0.000000 0.000000 0.000000" charge=0
N	-2.026542	-1.455810	0.722375	7
N	-0.748042	-1.532410	0.281995	7
C	-0.140432	-0.395450	0.111345	6
C	1.291388	-0.303630	-0.348425	6
C	1.432447	1.164880	-0.380355	6
C	0.282547	1.704710	-0.003955	6
O	-0.733702	0.828400	0.312915	8
H	-2.547802	-2.295900	0.472185	1
H	-2.527202	-0.643540	0.357365	1
H	1.406837	-0.752890	-1.337275	1
H	1.959177	-0.769070	0.379535	1
H	2.325078	1.703730	-0.659695	1
H	0.026248	2.746980	0.091995	1
Es	-1.400458	-1.471235	0.470601	99
Es	-0.768801	0.842646	0.593085	99
Es	0.570942	-0.355663	-0.115893	99
Es	2.033211	1.523028	-0.568529	99
Es	-2.026444	-1.455848	0.721664	99
Es	-0.748317	-1.531854	0.282088	99
Es	-0.580995	-1.028161	-0.078185	99
Es	-1.988606	-1.422037	1.044411	99
Es	0.785998	1.456170	-0.519291	99
Es	-0.933540	0.846301	0.108138	99
Es	1.405934	0.430132	-0.379054	99
Es	-0.591179	-1.862231	0.229227	99
Es	1.731195	-0.611296	0.137695	99
Es	0.988958	1.448778	0.113690	99
Es	1.432514	1.164816	-0.380375	99
Es	1.291308	-0.303576	-0.348400	99
Es	-0.499660	0.368947	0.232092	99
Es	0.103377	2.406363	0.062300	99
Es	0.282223	1.704606	-0.003854	99
Es	1.362963	-0.600839	-1.005982	99
Es	-0.343603	1.154603	0.187495	99
Es	-0.401393	-1.035313	0.489589	99
Es	-2.317941	-0.974625	0.475028	99
Es	-0.733318	0.828303	0.312640	99
Es	-2.332699	-1.958126	0.548899	99
Es	-0.140524	-0.395205	0.111363	99
