39
Properties=species:S:1:pos:R:3:Z:I:1 energy=-338.7124578093745 field_type=dipole dipole="0.000000 0.000000 0.000000" charge=0
N	-2.494666	-0.620292	-0.313313	7
N	-1.170816	-0.657792	-0.588623	7
C	-0.432436	-0.449362	0.461307	6
C	1.085334	-0.425362	0.360267	6
O	1.530354	-1.089822	-0.812733	8
C	1.567344	0.935808	0.360267	6
C	1.964634	2.057709	0.360267	6
H	-3.013356	-1.036992	-1.092743	1
H	-2.829296	0.347368	-0.281613	1
H	-0.864146	-0.249642	1.459627	1
H	1.478854	-0.973062	1.222377	1
H	0.849274	-0.897902	-1.486383	1
H	2.328914	3.059338	0.351297	1
Es	-0.715729	-0.309351	1.134848	99
Es	1.567242	0.935557	0.360276	99
Es	1.594206	1.551686	0.677817	99
Es	-0.432360	-0.449310	0.461296	99
Es	2.200699	2.711125	0.355346	99
Es	1.340064	-0.812513	-0.364682	99
Es	-2.668495	-0.035932	-0.304035	99
Es	-2.796869	-0.859195	-0.795007	99
Es	2.101854	1.383392	0.358914	99
Es	-0.840274	-0.842884	-0.056441	99
Es	1.588166	1.563941	0.054530	99
Es	-2.552643	-0.784520	-0.007400	99
Es	1.502043	-1.384111	-0.745500	99
Es	-1.831686	-0.619879	-0.453930	99
Es	1.795538	-0.957513	-0.890320	99
Es	1.171095	-0.971801	-1.157352	99
Es	1.322070	0.285667	0.368309	99
Es	0.325594	-0.422746	0.405238	99
Es	-2.494479	-0.619997	-0.313854	99
Es	-0.860619	-0.278666	-0.191612	99
Es	1.530067	-1.089568	-0.812717	99
Es	1.964712	2.057958	0.360265	99
Es	1.345072	-0.774280	0.943432	99
Es	1.085351	-0.425336	0.360075	99
Es	-1.171017	-0.657659	-0.588071	99
Es	-1.039761	-0.741078	-0.936772	99
