39
Properties=species:S:1:pos:R:3:Z:I:1 energy=-338.7168371522243 field_type=dipole dipole="0.000000 0.000000 0.000000" charge=0
N	-2.977689	0.300865	-0.034931	7
N	-1.627549	0.400525	-0.032441	7
C	-1.037249	-0.739205	0.108849	6
O	0.306131	-0.891355	0.134879	8
C	1.065531	0.317435	0.008219	6
C	2.494441	-0.008755	0.101459	6
C	3.663101	-0.274015	0.181079	6
H	-3.380819	1.214585	0.192719	1
H	-3.316239	0.115825	-0.984211	1
H	-1.538279	-1.714735	0.223149	1
H	0.794070	1.012565	0.810749	1
H	0.855800	0.780385	-0.963861	1
H	4.698750	-0.514125	0.254339	1
Es	-0.202066	-0.779370	0.120268	99
Es	3.147322	0.210211	0.074884	99
Es	1.806849	0.136476	0.057497	99
Es	-1.450083	0.726597	-0.055596	99
Es	0.305917	-0.890996	0.134820	99
Es	3.663330	-0.274056	0.181089	99
Es	0.335643	-1.002561	0.402032	99
Es	3.043977	-0.253128	0.479820	99
Es	-1.036943	-0.739241	0.108822	99
Es	-2.977439	0.301303	-0.035334	99
Es	-3.207495	0.858705	0.089374	99
Es	-1.395716	-0.096686	-0.273547	99
Es	0.939127	0.622922	-0.641514	99
Es	3.055479	-0.370882	-0.132918	99
Es	0.898449	0.777299	0.546018	99
Es	0.332579	-1.048327	-0.106566	99
Es	2.494169	-0.008685	0.101447	99
Es	1.065548	0.317136	0.008260	99
Es	-3.157813	0.197348	-0.612648	99
Es	-1.393644	-0.048377	0.310819	99
Es	0.564933	-0.421469	0.086526	99
Es	-1.627817	0.399972	-0.032399	99
Es	-2.299945	0.344265	-0.046556	99
Es	4.337916	-0.428730	0.228164	99
Es	-3.094341	0.041839	0.190653	99
Es	-1.373066	-1.391917	0.181065	99
