48
Properties=species:S:1:pos:R:3:Z:I:1 energy=-289.2967939320964 field_type=dipole dipole="0.000000 0.000000 0.000000" charge=0
C	-2.521119	-0.143261	-0.644336	6
C	-1.022469	-0.016251	-0.821016	6
C	-0.306999	1.071150	0.008374	6
C	0.744051	-0.023991	0.319874	6
C	1.130002	-0.140261	1.788314	6
C	1.958511	-0.055361	-0.605846	6
N	-0.277829	-1.037181	-0.050476	7
H	-2.896929	-1.042781	-1.144176	1
H	-3.031569	0.718859	-1.087016	1
H	-2.809269	-0.196181	0.411644	1
H	-0.743039	0.006529	-1.882496	1
H	-0.873489	1.425060	0.878614	1
H	0.046731	1.940179	-0.554876	1
H	0.250741	-0.160441	2.442234	1
H	1.747551	0.711650	2.093264	1
H	1.704911	-1.054101	1.975944	1
H	1.677231	-0.005311	-1.663206	1
H	2.541041	-0.971710	-0.460306	1
H	2.617031	0.795870	-0.402626	1
H	0.064911	-1.822470	-0.601886	1
Es	1.757493	-0.022055	-1.325801	99
Es	1.130027	-0.140252	1.788317	99
Es	0.272212	0.597251	0.196843	99
Es	-0.720466	0.599229	-0.436813	99
Es	-2.772919	-0.758383	-0.988166	99
Es	-1.022408	-0.016331	-0.820924	99
Es	2.405654	0.525453	-0.464269	99
Es	2.348256	-0.683788	-0.502150	99
Es	1.958511	-0.055363	-0.605843	99
Es	-1.784985	-0.076186	-0.736985	99
Es	-0.828626	0.001708	-1.555669	99
Es	-0.055679	-1.503375	-0.402153	99
Es	-0.612571	-0.644917	-0.433550	99
Es	-0.061049	1.669433	-0.378411	99
Es	-0.306989	1.071112	0.008354	99
Es	1.525168	-0.765238	1.909560	99
Es	-2.866251	0.449482	-0.950757	99
Es	0.951085	-0.080730	1.065171	99
Es	0.529944	-0.149625	2.228158	99
Es	1.359461	-0.033141	-0.155093	99
Es	0.211352	-0.651250	0.102962	99
Es	-2.521124	-0.143253	-0.644359	99
Es	-0.693731	1.302625	0.603755	99
Es	0.743975	-0.024079	0.319831	99
Es	1.555343	0.445979	1.990743	99
Es	-2.710940	-0.175064	0.074069	99
Es	-0.469726	-1.138538	0.235505	99
Es	-0.277532	-1.036984	-0.050941	99
