40
Properties=species:S:1:pos:R:3:Z:I:1 energy=-322.79341823243635 field_type=dipole dipole="0.000000 0.000000 0.000000" charge=0
O	-1.934440	0.040960	1.661779	8
C	-1.043910	0.020460	0.821159	6
C	-0.434989	-1.250140	0.253369	6
C	0.582960	-0.765210	-0.735341	6
N	1.763990	-0.020010	-0.316521	7
C	0.596710	0.733350	-0.756851	6
C	-0.412440	1.264200	0.217159	6
H	-1.216360	-1.828220	-0.246281	1
H	0.028920	-1.832470	1.052889	1
H	0.644920	-1.324570	-1.657821	1
H	1.878570	-0.006730	0.699019	1
H	0.667900	1.265200	-1.694681	1
H	0.062000	1.861230	1.000609	1
H	-1.183830	1.841950	-0.298481	1
Es	0.654118	1.101818	-1.391467	99
Es	0.596869	0.733199	-0.756730	99
Es	-1.443051	0.034452	1.545442	99
Es	-1.934229	0.040938	1.661579	99
Es	0.095989	-1.030590	-0.226755	99
Es	-0.434983	-1.250082	0.253364	99
Es	1.803065	-0.011418	0.298933	99
Es	0.114701	1.021724	-0.256209	99
Es	-1.786677	0.032192	1.175379	99
Es	1.306453	-0.474394	-0.438036	99
Es	-0.928767	1.639401	-0.126901	99
Es	0.633895	-1.152435	-1.359250	99
Es	-0.957882	-1.625522	-0.080166	99
Es	0.410893	-0.015753	-0.856008	99
Es	-2.025415	-0.246010	1.747824	99
Es	-0.100148	1.653349	0.746646	99
Es	2.043524	-0.025866	-0.523591	99
Es	-2.018641	0.332440	1.737998	99
Es	-1.043896	0.020460	0.821141	99
Es	1.763428	-0.020001	-0.316240	99
Es	-0.129626	-1.629283	0.793360	99
Es	-0.732131	-0.623622	0.537986	99
Es	0.583115	-0.765070	-0.735224	99
Es	1.315146	0.438407	-0.451622	99
Es	-0.720740	0.651014	0.519578	99
Es	-0.412434	1.264142	0.217158	99
