37
Properties=species:S:1:pos:R:3:Z:I:1 energy=-321.5931914220838 field_type=dipole dipole="0.000000 0.000000 0.000000" charge=0
O	-2.331178	-0.333974	1.271648	8
C	-1.158628	-0.162014	1.053068	6
C	-0.203348	1.019196	0.826838	6
C	0.729932	-0.047594	0.215728	6
N	-0.167268	-1.058264	0.793268	7
C	0.754882	-0.144954	-1.226472	6
C	0.764962	-0.221434	-2.424992	6
H	0.149852	1.478976	1.754398	1
H	-0.584498	1.784966	0.147038	1
H	1.722082	-0.080674	0.679088	1
H	-0.443448	-1.947244	0.399468	1
H	0.766652	-0.286984	-3.489081	1
Es	0.729781	-0.047713	0.215681	99
Es	-0.732757	0.498732	0.973345	99
Es	-2.485402	-0.076708	1.316838	99
Es	0.989184	0.092002	-1.841357	99
Es	-2.330825	-0.333888	1.271585	99
Es	-0.142057	-1.017533	1.106687	99
Es	-2.383042	-0.633207	1.263999	99
Es	0.251336	-0.680569	0.494365	99
Es	0.884013	-0.522641	-1.799828	99
Es	-0.203328	1.019114	0.826822	99
Es	-1.885579	-0.282551	1.445902	99
Es	-0.167629	-1.057964	0.792843	99
Es	0.754882	-0.144939	-1.226218	99
Es	0.745555	-0.088420	-0.533729	99
Es	-0.625667	-0.719377	0.830264	99
Es	0.326877	0.538565	0.472366	99
Es	-0.313689	-1.579535	0.544708	99
Es	0.037512	1.311375	1.445818	99
Es	0.766755	-0.264959	-3.115881	99
Es	0.764960	-0.221457	-2.425223	99
Es	1.403950	-0.069547	0.504797	99
Es	-0.456501	1.524306	0.370834	99
Es	0.403840	-0.123776	-1.831594	99
Es	-1.982479	-0.254149	0.950246	99
Es	-1.158460	-0.162039	1.053047	99
