41
Properties=species:S:1:pos:R:3:Z:I:1 energy=-359.75912509059685 field_type=dipole dipole="0.000000 0.000000 0.000000" charge=0
O	-1.902688	-0.331826	0.522076	8
C	-0.491278	-0.372286	0.730756	6
C	0.118782	0.949874	0.298396	6
C	0.809542	0.781694	-1.038094	6
O	1.726322	-0.305056	-0.909204	8
N	1.068542	-1.550026	-0.835094	7
C	0.037942	-1.558126	-0.045814	6
H	-2.286088	0.200704	1.240996	1
H	-0.323788	-0.563346	1.795876	1
H	-0.623098	1.753334	0.249846	1
H	0.873322	1.236794	1.041476	1
H	1.382402	1.681103	-1.287784	1
H	0.106032	0.589934	-1.856364	1
H	-0.495948	-2.512766	0.092926	1
Es	0.770390	-1.607583	-0.255041	99
Es	-0.491476	-0.372324	0.730668	99
Es	-1.902531	-0.331686	0.522347	99
Es	-0.364672	-0.507254	1.454089	99
Es	0.438299	-1.468356	-0.715786	99
Es	-2.086227	-0.038062	0.915122	99
Es	0.321794	0.645736	-1.589306	99
Es	0.809675	0.781516	-1.038026	99
Es	1.390933	-0.826685	-0.869315	99
Es	1.839645	-0.280199	-0.627770	99
Es	0.118777	0.949837	0.298392	99
Es	0.037915	-1.558088	-0.045802	99
Es	1.228676	-1.828021	-1.029921	99
Es	-1.367662	-0.338804	0.619515	99
Es	1.895770	-0.314139	-1.171571	99
Es	0.634283	1.143705	0.802123	99
Es	-0.214801	-0.960669	0.326379	99
Es	-1.945104	-0.179193	0.258700	99
Es	-2.006558	-0.618576	0.567670	99
Es	-0.320391	-2.189802	0.047999	99
Es	1.347834	0.080561	-0.954704	99
Es	1.725962	-0.305066	-0.909193	99
Es	-0.393180	1.487816	0.270248	99
Es	1.202070	1.391021	-1.203519	99
Es	1.068290	-1.549495	-0.834752	99
Es	-0.182095	0.284797	0.511010	99
Es	0.442915	0.873766	-0.368064	99
