43
Properties=species:S:1:pos:R:3:Z:I:1 energy=-323.92431100006525 field_type=dipole dipole="0.000000 0.000000 0.000000" charge=0
O	-2.232857	0.690361	-0.564579	8
C	-0.808027	0.692251	-0.322819	6
C	-0.287497	1.642811	0.780031	6
N	0.639733	0.579541	1.235271	7
C	-0.244177	-0.424139	0.598021	6
C	0.507543	-1.549599	-0.011839	6
C	1.422753	-1.406449	-0.981479	6
H	-2.382467	-0.093119	-1.121209	1
H	-0.271807	0.832271	-1.269949	1
H	-1.035727	1.921511	1.531071	1
H	0.205503	2.551511	0.423181	1
H	1.564813	0.637221	0.811800	1
H	-1.000677	-0.810229	1.296281	1
H	0.290413	-2.542089	0.374301	1
H	1.693083	-0.444729	-1.402539	1
H	1.939394	-2.277119	-1.375539	1
Es	0.507475	-1.549601	-0.011766	99
Es	-2.365454	0.633123	-0.292735	99
Es	-2.292427	0.935435	-0.737180	99
Es	-0.606450	1.239724	0.187974	99
Es	-0.762248	-0.680783	1.071425	99
Es	1.173864	0.616892	0.939732	99
Es	0.296683	0.099653	0.956875	99
Es	-2.232573	0.690163	-0.564748	99
Es	-1.696960	0.674911	-0.486107	99
Es	-0.798426	1.820675	1.289037	99
Es	-0.287403	1.642689	0.780035	99
Es	0.356606	-2.222075	0.251744	99
Es	0.274973	1.083337	1.050875	99
Es	1.422810	-1.406428	-0.981559	99
Es	-0.808256	0.692241	-0.322820	99
Es	-0.561059	0.052284	0.073711	99
Es	-0.428633	0.777239	-0.968552	99
Es	0.131824	-0.996091	0.282844	99
Es	0.676551	0.546142	1.585923	99
Es	0.735916	-1.511115	-0.732659	99
Es	1.606310	-0.751425	-1.267237	99
Es	-2.297434	0.264490	-0.865353	99
Es	0.639644	0.579600	1.234639	99
Es	-0.244061	-0.424064	0.598034	99
Es	0.054484	2.267361	0.534634	99
Es	1.199254	-1.436144	-0.280735	99
Es	1.777294	-1.989032	-1.252567	99
