40
Properties=species:S:1:pos:R:3:Z:I:1 energy=-322.78427910841225 field_type=dipole dipole="0.000000 0.000000 0.000000" charge=0
O	-2.170526	0.334265	1.283469	8
C	-1.128076	0.030045	0.727959	6
C	-0.647516	-1.366385	0.364439	6
N	0.622264	-1.197505	-0.391831	7
C	1.017214	0.218515	-0.289711	6
C	0.284274	1.270175	-1.067481	6
C	-0.087386	1.012365	0.366989	6
H	-1.391606	-1.874455	-0.252411	1
H	-0.463626	-1.921755	1.288789	1
H	1.330124	-1.820135	-0.000031	1
H	2.044204	0.422985	-0.005671	1
H	0.810894	2.190545	-1.294231	1
H	-0.400846	0.956985	-1.847381	1
H	0.180604	1.744355	1.117099	1
Es	-0.895834	-0.678643	0.539340	99
Es	0.497185	0.569587	0.202460	99
Es	0.637625	1.889981	-1.204997	99
Es	-2.348331	0.082555	1.351462	99
Es	-1.912920	0.245681	0.859419	99
Es	-2.170210	0.334160	1.283301	99
Es	-2.196466	0.639915	1.328404	99
Es	0.079174	-1.263493	-0.043019	99
Es	1.049079	-1.550259	-0.130097	99
Es	-1.155077	-1.702098	-0.041829	99
Es	-0.087303	1.012313	0.366834	99
Es	-1.679440	0.200860	1.306042	99
Es	0.284255	1.270107	-1.067280	99
Es	-0.647388	-1.366314	0.364384	99
Es	0.572903	-1.278489	-0.723316	99
Es	-0.614477	0.545346	0.519479	99
Es	-0.075240	1.244012	-0.330078	99
Es	1.017038	0.218487	-0.289756	99
Es	-1.128042	0.030022	0.727937	99
Es	0.799318	-0.578835	-0.330710	99
Es	0.756437	0.700853	-0.849808	99
Es	1.716394	0.352413	-0.101216	99
Es	-0.528244	-1.729007	0.991085	99
Es	-0.180490	1.055089	-1.585205	99
Es	0.081906	1.505109	0.868242	99
Es	0.622369	-1.197317	-0.391174	99
