41
Properties=species:S:1:pos:R:3:Z:I:1 energy=-359.8448938353388 field_type=dipole dipole="0.000000 0.000000 0.000000" charge=0
O	-2.464789	0.307349	1.378416	8
C	-1.402839	0.255769	0.759026	6
C	-0.653319	-1.062611	0.583866	6
N	0.313771	-1.087091	-0.528884	7
C	1.150331	0.106729	-0.461694	6
C	0.257911	1.326239	-0.636334	6
O	-0.792629	1.394948	0.342976	8
H	-1.392869	-1.849451	0.403746	1
H	-0.138609	-1.276572	1.527296	1
H	0.890871	-1.923461	-0.445614	1
H	1.679981	0.145119	0.498066	1
H	1.900041	0.078089	-1.258894	1
H	0.856841	2.236598	-0.532114	1
H	-0.204699	1.348348	-1.629864	1
Es	-2.548693	0.021255	1.461868	99
Es	-0.406983	1.317175	-0.014670	99
Es	-0.311000	-1.184250	1.228714	99
Es	-2.464502	0.307339	1.378247	99
Es	1.150220	0.106648	-0.461707	99
Es	-0.792552	1.394577	0.342820	99
Es	-0.090044	-1.062888	-0.022304	99
Es	1.656862	0.093569	-1.004172	99
Es	-1.970017	0.312141	1.374614	99
Es	0.314058	-1.087054	-0.528321	99
Es	-1.010518	-0.385929	0.632341	99
Es	-2.567709	0.593528	1.410998	99
Es	-0.653241	-1.062506	0.583759	99
Es	-2.231268	0.263993	0.944965	99
Es	-0.679838	1.379257	0.603411	99
Es	0.665722	1.942256	-0.560187	99
Es	0.691422	-0.576386	-0.472499	99
Es	-1.402685	0.255949	0.758915	99
Es	1.509943	0.141533	0.204497	99
Es	-0.054352	1.330562	-1.312077	99
Es	0.257727	1.326204	-0.636117	99
Es	-1.149619	-1.583988	0.469526	99
Es	0.138212	-1.083366	-0.838060	99
Es	0.698743	0.713958	-0.540565	99
Es	-1.018490	0.940293	0.420510	99
Es	-0.998900	1.595762	0.264398	99
Es	0.667996	-1.584411	-0.453817	99
