41
Properties=species:S:1:pos:R:3:Z:I:1 energy=-359.86742072342224 field_type=dipole dipole="0.000000 0.000000 0.000000" charge=0
O	-2.045716	0.139619	-0.592055	8
C	-0.628496	0.107389	-0.668895	6
C	-0.011066	1.251769	0.128375	6
N	1.222114	0.711319	0.611515	7
C	1.215414	-0.664471	0.624345	6
O	2.090864	-1.363672	1.103305	8
C	-0.061596	-1.148981	-0.009735	6
H	-2.384976	-0.631691	-1.079585	1
H	-0.322486	0.164869	-1.720055	1
H	-0.627956	1.548309	0.983305	1
H	0.186694	2.132088	-0.489365	1
H	1.943094	1.226639	1.099445	1
H	0.150264	-1.923052	-0.752115	1
H	-0.726156	-1.550131	0.761515	1
Es	0.082469	-1.667263	-0.506138	99
Es	0.700528	0.965848	0.424961	99
Es	-1.508220	0.109851	-0.637143	99
Es	-2.111094	0.090953	-0.296934	99
Es	-0.061551	-1.148938	-0.009730	99
Es	-2.204676	-0.282063	-0.860024	99
Es	2.319916	-1.189497	1.228442	99
Es	1.221921	0.711204	0.611792	99
Es	-0.010898	1.251673	0.128413	99
Es	1.347265	0.501706	0.358430	99
Es	-2.139599	0.389755	-0.745829	99
Es	-0.438862	1.447931	0.705998	99
Es	-0.354488	-0.540556	-0.342432	99
Es	-2.045552	0.139388	-0.592189	99
Es	1.678934	-1.131167	1.160549	99
Es	-0.496667	-1.403240	0.509437	99
Es	2.028296	-1.665421	1.070351	99
Es	1.215364	-0.664308	0.624311	99
Es	1.141514	0.201924	0.781389	99
Es	0.120897	1.852732	-0.294001	99
Es	1.916710	-1.131120	0.721978	99
Es	-0.408624	0.143931	-1.389613	99
Es	1.628202	1.024449	0.911321	99
Es	2.090632	-1.363470	1.103173	99
Es	0.574601	-0.916369	0.295854	99
Es	-0.329475	0.695881	-0.269583	99
Es	-0.628707	0.107395	-0.668829	99
