39
Properties=species:S:1:pos:R:3:Z:I:1 energy=-338.7744148172605 field_type=dipole dipole="0.000000 0.000000 0.000000" charge=0
O	-2.240948	0.100865	1.257195	8
C	-1.166878	-0.150585	0.741535	6
N	-0.695758	-1.373085	0.310755	7
N	0.547182	-1.343705	-0.382395	7
C	0.977701	0.069335	-0.228995	6
C	0.277922	1.179215	-0.959345	6
C	-0.125228	0.851805	0.454815	6
H	-1.334788	-2.159025	0.245035	1
H	1.193941	-1.959965	0.119035	1
H	2.003922	0.234585	0.080225	1
H	0.824052	2.099824	-1.126685	1
H	-0.402868	0.919875	-1.762255	1
H	0.141752	1.530865	1.251075	1
Es	0.547196	-1.343481	-0.381695	99
Es	-0.673323	-1.229932	0.663998	99
Es	0.046078	1.309561	0.985421	99
Es	-1.061194	-1.837996	0.250192	99
Es	0.936192	-1.693352	-0.058864	99
Es	-0.180738	1.000777	-1.492865	99
Es	0.736633	0.576948	-0.763589	99
Es	0.733437	-0.731930	-0.310289	99
Es	0.510585	-1.442201	-0.725494	99
Es	-1.166763	-0.150734	0.741470	99
Es	0.465691	0.401066	0.266432	99
Es	0.277913	1.179126	-0.959143	99
Es	0.977519	0.069284	-0.229049	99
Es	-0.944164	-0.900259	0.286634	99
Es	0.647829	1.794818	-1.057406	99
Es	-1.983661	0.047029	0.860070	99
Es	-2.240565	0.100880	1.257029	99
Es	-1.778050	-0.022704	1.309707	99
Es	-0.650700	0.375767	0.576421	99
Es	-0.695871	-1.372872	0.310395	99
Es	-2.263621	0.399979	1.314108	99
Es	-0.125127	0.851742	0.454654	99
Es	-2.416675	-0.157045	1.297328	99
Es	-0.091731	-1.363645	-0.020142	99
Es	-0.092609	1.126597	-0.234144	99
Es	1.674651	0.171044	-0.026539	99
