42
Properties=species:S:1:pos:R:3:Z:I:1 energy=-339.9379305296462 field_type=dipole dipole="0.000000 0.000000 0.000000" charge=0
O	0.150040	-2.705895	-0.509307	8
C	-0.624110	-1.560155	-0.182027	6
C	0.300570	-0.416815	0.053453	6
C	0.671170	0.511785	-1.056647	6
N	-0.234840	0.953505	0.017983	7
C	0.276280	1.832995	0.938223	6
N	-0.389160	2.772385	1.515873	7
H	-0.472060	-3.449105	-0.594907	1
H	-1.198360	-1.772875	0.725103	1
H	-1.321180	-1.364595	-1.003847	1
H	1.021140	-0.619565	0.835803	1
H	0.172680	0.426265	-2.012547	1
H	1.650870	0.969885	-1.060497	1
H	1.345380	1.692785	1.180293	1
H	-1.348420	2.729404	1.153043	1
Es	-0.168350	-0.970655	-0.067286	99
Es	1.011203	1.726982	1.095828	99
Es	0.324996	-2.764361	-0.263778	99
Es	-0.234201	0.953369	0.018105	99
Es	-0.389296	2.772009	1.515508	99
Es	0.791872	-0.545198	0.580977	99
Es	-0.060245	0.369080	0.179714	99
Es	0.165480	0.913885	-0.463205	99
Es	0.018663	1.318320	0.416185	99
Es	0.149715	-2.705888	-0.509293	99
Es	0.671018	0.511837	-1.056417	99
Es	0.276276	1.832877	0.938121	99
Es	-0.201002	-3.091744	-0.550698	99
Es	-0.962293	2.742004	1.295804	99
Es	-0.271444	3.014548	1.761935	99
Es	-0.161230	-2.280225	-0.384133	99
Es	0.266424	-2.654294	-0.788151	99
Es	0.300468	-0.416554	0.053396	99
Es	-0.182992	2.187354	1.474492	99
Es	0.340117	0.450010	-1.701547	99
Es	1.335212	0.820584	-1.055474	99
Es	-0.623945	-1.560315	-0.182069	99
Es	-0.040769	2.546766	1.052531	99
Es	-1.020167	-1.700138	0.442916	99
Es	0.612335	-0.112010	-0.602088	99
Es	-1.103267	-1.416366	-0.744454	99
Es	-0.578703	0.990239	-0.065867	99
