48
Properties=species:S:1:pos:R:3:Z:I:1 energy=-289.2882801268941 field_type=dipole dipole="0.000000 0.000000 0.000000" charge=0
C	-2.073209	0.024558	0.083445	6
C	-0.576259	0.037838	-0.222455	6
C	-0.320839	0.063348	-1.728976	6
C	0.208761	1.116897	0.577214	6
C	1.109071	0.023228	1.174784	6
N	2.407221	0.046198	0.502124	7
C	0.221541	-1.058812	0.538554	6
H	-2.264419	0.006098	1.161995	1
H	-2.552819	-0.857502	-0.354155	1
H	-2.562709	0.914747	-0.325665	1
H	0.746491	0.068828	-1.966265	1
H	-0.764209	0.956017	-2.183015	1
H	-0.760909	-0.815552	-2.212145	1
H	-0.389649	1.631667	1.338854	1
H	0.700811	1.889887	-0.023935	1
H	1.167301	0.006348	2.266365	1
H	2.370321	0.131938	-0.512335	1
H	2.980402	-0.774762	0.692895	1
H	0.723401	-1.803843	-0.088925	1
H	-0.370299	-1.607122	1.281644	1
Es	0.415105	0.067418	-1.883775	99
Es	-2.398163	-0.580525	-0.218162	99
Es	-0.622296	-0.539140	-2.054828	99
Es	-1.335659	0.031125	-0.069891	99
Es	1.845354	0.007849	0.777128	99
Es	-0.576250	0.037838	-0.222456	99
Es	-2.197600	0.012122	0.823140	99
Es	1.109177	0.023229	1.174676	99
Es	-0.208181	1.461752	1.098655	99
Es	2.590577	0.322992	0.612573	99
Es	0.699937	0.630888	0.914969	99
Es	-0.194809	-1.430900	1.047841	99
Es	1.160564	0.007602	1.924267	99
Es	-2.404919	0.635521	-0.198869	99
Es	-2.073212	0.024557	0.083440	99
Es	2.349784	0.073167	-0.109656	99
Es	-0.224482	0.643918	0.141290	99
Es	2.728125	-0.472435	0.612530	99
Es	0.693140	-0.587690	0.897013	99
Es	2.406934	0.045740	0.501937	99
Es	-0.440947	0.051301	-0.984874	99
Es	0.221516	-1.058795	0.538551	99
Es	0.208755	1.116858	0.577223	99
Es	0.551169	1.638012	0.162165	99
Es	0.574461	-1.565373	0.105796	99
Es	-0.320834	0.063354	-1.728969	99
Es	-0.624793	0.674606	-2.035025	99
Es	-0.217570	-0.577937	0.118499	99
