41
Properties=species:S:1:pos:R:3:Z:I:1 energy=-359.7579258782651 field_type=dipole dipole="0.000000 0.000000 0.000000" charge=0
O	-2.072423	-1.480297	0.083774	8
C	-0.687023	-1.158667	-0.009986	6
C	-0.468302	0.322723	0.055394	6
C	-1.415902	1.265183	0.186564	6
C	0.939727	0.787103	-0.034296	6
N	1.942677	-0.022887	-0.155246	7
O	3.125227	0.724343	-0.211636	8
H	-2.131682	-2.448867	0.030494	1
H	-0.313593	-1.556837	-0.959246	1
H	-0.170012	-1.656747	0.816844	1
H	-2.463892	0.986503	0.257654	1
H	-1.189492	2.325163	0.227904	1
H	1.096877	1.880613	0.008234	1
H	3.807807	0.032673	-0.296456	1
Es	-0.881438	0.775046	0.439425	99
Es	-0.328138	-1.485972	0.551664	99
Es	2.607371	0.397663	-0.186878	99
Es	-1.542810	-1.374645	0.046963	99
Es	0.249758	0.535358	0.008194	99
Es	-2.206200	-1.369126	-0.169145	99
Es	-0.468149	0.322647	0.055379	99
Es	0.939677	0.787075	-0.034288	99
Es	-0.587419	-0.405437	0.024516	99
Es	-2.082927	-2.003054	0.052143	99
Es	1.942672	-0.022265	-0.155212	99
Es	3.125212	0.723959	-0.211567	99
Es	-2.117150	1.091163	0.234982	99
Es	-2.162712	-1.402199	0.367444	99
Es	3.487180	0.350126	-0.255625	99
Es	-0.425615	-1.418157	-0.655064	99
Es	3.143570	0.858891	0.064384	99
Es	-0.687259	-1.158635	-0.009965	99
Es	1.970313	-0.401911	-0.176564	99
Es	-1.415941	1.265240	0.186568	99
Es	3.102239	0.878938	-0.475137	99
Es	1.513240	0.314259	0.187877	99
Es	-0.934840	0.811163	-0.203647	99
Es	1.040695	1.520985	-0.005404	99
Es	1.467248	0.343405	-0.390663	99
Es	-2.072183	-1.480500	0.083731	99
Es	-1.256868	1.980246	0.213909	99
