44
Properties=species:S:1:pos:R:3:Z:I:1 energy=-360.94436925340483 field_type=dipole dipole="0.000000 0.000000 0.000000" charge=0
O	-2.800340	-0.316817	0.609273	8
C	-1.386680	-0.465597	0.567163	6
C	-0.757621	0.920953	0.509683	6
C	0.763989	0.878372	0.537563	6
C	1.308650	0.282893	-0.730517	6
N	1.926869	-0.852707	-0.710547	7
O	2.320169	-1.173657	-2.013847	8
H	-3.178530	-1.212237	0.650023	1
H	-1.130490	-1.057137	-0.317127	1
H	-1.066960	-1.005077	1.464413	1
H	-1.118181	1.512043	1.360653	1
H	-1.112561	1.442403	-0.388107	1
H	1.123479	0.311922	1.403353	1
H	1.156620	1.898392	0.611203	1
H	1.145370	0.846512	-1.666127	1
H	2.806220	-2.010257	-1.887057	1
Es	1.910071	-0.215904	-0.676667	99
Es	-1.202139	-0.872088	-0.040266	99
Es	-2.866107	-0.180849	0.877310	99
Es	-2.268156	-0.396186	0.594464	99
Es	-2.800160	-0.317100	0.609278	99
Es	1.040760	0.568537	-0.104585	99
Es	1.031073	1.566771	0.577535	99
Es	2.515794	-0.949443	-2.096242	99
Es	-2.985977	-0.808453	0.630941	99
Es	-1.386897	-0.465537	0.567172	99
Es	2.015263	-1.096469	-0.432877	99
Es	1.403145	-0.496245	-0.759635	99
Es	-1.062310	0.225221	0.536378	99
Es	2.150010	-1.034106	-1.445736	99
Es	0.016119	0.886455	0.509793	99
Es	-0.995159	1.317266	1.092254	99
Es	-2.883046	-0.198252	0.338354	99
Es	2.580647	-1.621467	-1.940955	99
Es	-0.989070	1.270604	-0.108954	99
Es	-1.156406	-0.837784	1.186424	99
Es	2.056769	-1.231213	-2.159565	99
Es	1.308644	0.282910	-0.730489	99
Es	-0.757565	0.920915	0.509678	99
Es	1.002828	0.492649	1.120473	99
Es	1.196104	0.663904	-1.357485	99
Es	0.763978	0.878352	0.537485	99
Es	2.320223	-1.173887	-2.013524	99
Es	1.926768	-0.852374	-0.711050	99
