43
Properties=species:S:1:pos:R:3:Z:I:1 energy=-323.94345127552674 field_type=dipole dipole="0.000000 0.000000 0.000000" charge=0
O	-2.067715	-2.330269	-0.222017	8
C	-1.783495	-1.852569	0.871793	6
C	-0.866905	-0.676399	1.081383	6
C	-0.413395	-0.072829	-0.242407	6
N	0.463195	1.074331	0.033693	7
C	1.870914	0.830011	-0.270367	6
C	1.014405	1.665651	-1.183197	6
H	-2.193105	-2.293709	1.796263	1
H	-0.010505	-1.025219	1.668743	1
H	-1.413495	0.064121	1.676683	1
H	-1.293125	0.275691	-0.799687	1
H	0.065475	-0.842139	-0.862407	1
H	2.177715	-0.152499	-0.605967	1
H	2.585744	1.342351	0.361843	1
H	1.146205	2.740591	-1.164197	1
H	0.718085	1.252881	-2.140157	1
Es	-1.783489	-1.852558	0.871792	99
Es	-1.012196	0.169106	-0.615659	99
Es	0.381127	1.288963	0.307657	99
Es	0.806995	1.379623	-1.830496	99
Es	-1.766763	-2.312596	0.190077	99
Es	-1.929042	-2.179211	-0.458742	99
Es	1.014380	1.665516	-1.182989	99
Es	1.086744	0.863484	0.012939	99
Es	0.463404	1.073989	0.033190	99
Es	-0.302065	-0.927625	1.474271	99
Es	-0.071621	-0.594569	-0.662335	99
Es	-1.324557	-1.263259	0.972479	99
Es	1.870675	0.830076	-0.270371	99
Es	-2.161706	-1.999631	0.158295	99
Es	2.070644	0.156322	-0.494716	99
Es	0.574394	1.374931	-0.541674	99
Es	-0.413322	-0.072739	-0.242306	99
Es	-2.060206	-2.147129	1.515864	99
Es	-1.245214	-0.194810	1.480200	99
Es	-0.641848	-0.387163	0.430330	99
Es	0.109509	0.566230	-0.109635	99
Es	1.618483	1.282348	-0.860781	99
Es	-2.261811	-2.573285	-0.199906	99
Es	-0.866935	-0.676453	1.081369	99
Es	2.358687	1.173733	0.161806	99
Es	-2.067591	-2.330080	-0.221713	99
Es	1.101454	2.396252	-1.174151	99
