40
Properties=species:S:1:pos:R:3:Z:I:1 energy=-322.80928704675676 field_type=dipole dipole="0.000000 0.000000 0.000000" charge=0
O	-1.689881	-0.611848	0.903826	8
C	-0.379901	-0.418788	0.368787	6
C	-0.275361	-1.191798	-0.947443	6
C	1.105119	-1.230978	-1.439353	6
N	2.197859	-1.270228	-1.826174	7
C	-0.194941	1.063722	0.203977	6
C	0.773849	1.775392	0.795197	6
H	-1.750941	-0.061378	1.705246	1
H	0.330289	-0.825508	1.099556	1
H	-0.939711	-0.753698	-1.703844	1
H	-0.638631	-2.215468	-0.795673	1
H	-0.905921	1.578952	-0.439993	1
H	1.513649	1.315142	1.443967	1
H	0.854519	2.846482	0.631927	1
Es	-1.700522	-0.310843	1.328355	99
Es	0.479060	1.363163	0.249950	99
Es	-0.271567	0.326414	0.272123	99
Es	-0.681732	1.397867	-0.234576	99
Es	2.197435	-1.270213	-1.826022	99
Es	-0.380128	-0.418815	0.368771	99
Es	0.117690	-0.692626	0.859390	99
Es	-0.195010	1.063644	0.203942	99
Es	-1.186621	-0.524524	0.712618	99
Es	-1.689637	-0.611609	0.903938	99
Es	-0.275181	-1.191778	-0.947479	99
Es	1.104764	-1.230956	-1.439236	99
Es	1.797614	-1.152538	-1.373419	99
Es	-0.691953	-0.892327	-1.454473	99
Es	1.273115	1.466220	1.235181	99
Es	-1.881631	-0.489843	0.697651	99
Es	1.672399	-1.555556	-1.702239	99
Es	0.831623	2.498348	0.691027	99
Es	0.457346	-1.205552	-1.205263	99
Es	2.544104	-1.282494	-1.947932	99
Es	0.773912	1.775439	0.795245	99
Es	-1.704584	-0.906137	0.992011	99
Es	-0.488567	-1.868662	-0.848170	99
Es	1.632352	-1.050193	-1.871671	99
Es	0.086336	1.460397	0.766105	99
Es	-0.307485	-0.805081	-0.315586	99
