42
Properties=species:S:1:pos:R:3:Z:I:1 energy=-339.97233535784795 field_type=dipole dipole="0.000000 0.000000 0.000000" charge=0
O	0.030061	-2.530168	-0.239057	8
C	-1.024249	-1.966278	0.522073	6
C	-0.894039	-0.476918	0.608573	6
C	0.044652	0.267392	0.006263	6
N	0.179852	1.630312	0.084443	7
C	1.086291	2.455152	-0.519317	6
N	2.022411	2.178832	-1.354847	7
H	-0.096869	-3.493498	-0.225117	1
H	-0.996759	-2.396358	1.528123	1
H	-1.976449	-2.227728	0.050253	1
H	-1.644749	0.011702	1.223013	1
H	0.795771	-0.218288	-0.612477	1
H	-0.496849	2.084122	0.689163	1
H	0.949961	3.506792	-0.213007	1
H	2.020961	1.174932	-1.548077	1
Es	0.165037	1.656431	-0.054410	99
Es	-0.212292	1.905086	0.459089	99
Es	0.181797	1.630231	0.085316	99
Es	0.146699	1.039066	0.065783	99
Es	-0.894095	-0.476966	0.608608	99
Es	0.044736	0.267632	0.006229	99
Es	0.029798	-2.530335	-0.238882	99
Es	-0.056374	-3.046437	-0.220687	99
Es	-0.944759	-1.213505	0.555948	99
Es	-1.024063	-1.966308	0.521948	99
Es	-0.010785	-2.437578	-0.528474	99
Es	2.008096	1.566748	-1.460491	99
Es	-1.681610	-2.138498	0.204950	99
Es	0.978486	3.163277	-0.299866	99
Es	0.551599	-0.040082	-0.409641	99
Es	0.286913	-2.473873	-0.083132	99
Es	-0.643686	-0.086941	0.054923	99
Es	1.822267	2.231485	-0.803030	99
Es	1.086116	2.455069	-0.519186	99
Es	0.617684	1.945558	-0.128230	99
Es	1.464019	2.312995	-1.237000	99
Es	-1.012310	-2.254371	1.215194	99
Es	2.250876	2.407226	-1.500281	99
Es	2.022051	2.178525	-1.354603	99
Es	-1.409164	-0.145570	1.029588	99
Es	-0.249286	-0.152670	0.587496	99
Es	-0.379267	-2.334899	0.053106	99
