43
Properties=species:S:1:pos:R:3:Z:I:1 energy=-323.9236516947389 field_type=dipole dipole="0.000000 0.000000 0.000000" charge=0
O	-0.877566	-2.264251	-1.026245	8
C	-1.687896	-1.417521	-0.211125	6
C	-1.164286	0.021209	-0.281515	6
N	0.179414	0.095659	0.304175	7
C	0.778594	1.406529	0.086045	6
C	2.123614	1.436809	0.674355	6
C	3.224484	1.461599	1.154915	6
H	-1.176816	-3.175381	-0.864225	1
H	-1.670366	-1.793701	0.817405	1
H	-2.715116	-1.463141	-0.586195	1
H	-1.846026	0.683809	0.262405	1
H	-1.130726	0.332319	-1.332745	1
H	0.756174	-0.615311	-0.152835	1
H	0.163154	2.184789	0.553535	1
H	0.845443	1.628809	-0.984955	1
H	4.197924	1.477779	1.587005	1
Es	-0.877838	-2.264373	-1.026046	99
Es	2.751395	1.758748	0.740770	99
Es	2.123373	1.436797	0.674236	99
Es	3.860539	1.472778	1.436044	99
Es	-1.632125	0.473750	0.090668	99
Es	0.446866	0.677218	0.183148	99
Es	-1.052109	-2.748115	-0.926660	99
Es	-1.164178	0.021170	-0.281447	99
Es	2.756976	1.133855	0.758354	99
Es	-0.591160	-2.243468	-0.913798	99
Es	0.179430	0.095801	0.303542	99
Es	2.546984	1.458498	1.248882	99
Es	-1.147128	0.237509	-1.007082	99
Es	0.778678	1.406415	0.086127	99
Es	-1.422217	-0.700077	-0.244917	99
Es	-0.945523	-2.196418	-1.318224	99
Es	0.523299	-0.312276	0.009926	99
Es	-0.397316	0.079166	0.024011	99
Es	-1.687746	-1.417629	-0.211276	99
Es	-2.401066	-1.442762	-0.465780	99
Es	3.224706	1.461603	1.155010	99
Es	-1.680356	-1.672926	0.496871	99
Es	-1.193354	-1.961940	-0.711518	99
Es	0.157670	0.032671	0.650323	99
Es	1.481616	1.422896	0.391090	99
Es	0.835651	1.561738	-0.639502	99
Es	0.371783	1.929808	0.404572	99
