42
Properties=species:S:1:pos:R:3:Z:I:1 energy=-339.9734540170986 field_type=dipole dipole="0.000000 0.000000 0.000000" charge=0
O	-2.852155	0.036705	-0.527513	8
C	-1.616545	-0.423495	0.007157	6
C	-0.611935	0.730145	0.071127	6
N	-1.054215	1.954315	0.081587	7
N	0.737715	0.518215	0.126117	7
C	1.475915	-0.630615	0.174997	6
C	2.808405	-0.710455	0.223657	6
H	-2.667275	0.307775	-1.445503	1
H	-1.242985	-1.235205	-0.621613	1
H	-1.789775	-0.796165	1.020547	1
H	-2.086815	1.912575	0.063987	1
H	1.266575	1.385125	0.162007	1
H	0.893105	-1.548415	0.176007	1
H	3.435625	0.174905	0.226697	1
H	3.304355	-1.675415	0.260747	1
Es	-1.616679	-0.423339	0.007064	99
Es	-2.923160	0.291904	-0.372161	99
Es	2.808457	-0.710446	0.223671	99
Es	-1.054423	1.953855	0.081566	99
Es	2.168664	-0.665597	0.527412	99
Es	-1.662430	1.926387	0.068601	99
Es	1.475667	-0.630473	0.174992	99
Es	0.686189	0.472654	-0.005906	99
Es	0.153998	0.567630	0.167300	99
Es	-0.882842	1.460711	-0.213275	99
Es	3.142332	-1.359400	0.248888	99
Es	1.052572	1.024583	0.163354	99
Es	-2.851842	0.036759	-0.527648	99
Es	-1.723374	-0.667620	0.688479	99
Es	-2.363382	-0.128511	-0.340015	99
Es	-0.844677	2.259871	0.096575	99
Es	3.231041	-0.106893	0.225832	99
Es	-3.031556	-0.210050	-0.539134	99
Es	1.066967	-1.243428	0.174401	99
Es	-0.611753	0.730004	0.071143	99
Es	-1.082480	0.140385	0.034906	99
Es	-2.733202	0.175663	-1.016219	99
Es	0.737337	0.517931	0.127388	99
Es	2.194272	-0.679875	-0.126644	99
Es	-1.346139	-0.972247	-0.420961	99
Es	-0.898306	1.450575	0.352212	99
Es	1.036561	0.013387	0.186198	99
