52
Properties=species:S:1:pos:R:3:Z:I:1 energy=-274.49444095360866 field_type=dipole dipole="0.000000 0.000000 0.000000" charge=0
C	-2.690484	-1.526170	-0.038401	6
C	-1.168864	-1.503870	-0.051421	6
C	-0.633154	-0.069730	-0.077701	6
C	0.904836	0.024280	0.018519	6
C	1.592866	-0.721390	-1.131171	6
C	1.385476	1.491340	0.020919	6
C	0.941956	2.284270	1.241559	6
H	-3.054164	-2.558800	-0.019821	1
H	-3.096464	-1.039310	-0.930531	1
H	-3.084354	-1.011900	0.844099	1
H	-0.824534	-2.058720	-0.930051	1
H	-0.793394	-2.025660	0.836429	1
H	-1.081834	0.473560	0.761809	1
H	-0.975394	0.428390	-0.993971	1
H	1.224696	-0.443430	0.958649	1
H	1.243286	-0.358900	-2.103801	1
H	1.405676	-1.797850	-1.077881	1
H	2.678986	-0.585310	-1.090091	1
H	1.038596	2.001490	-0.886011	1
H	2.482346	1.509610	-0.008561	1
H	-0.141764	2.433030	1.257169	1
H	1.407666	3.275040	1.233029	1
H	1.238026	1.780039	2.167229	1
Es	-0.893245	-0.789646	-0.067832	99
Es	-2.939309	-2.232701	-0.025902	99
Es	1.592860	-0.721386	-1.131164	99
Es	1.142542	1.838805	-0.603517	99
Es	-0.909048	-1.859924	0.560885	99
Es	-0.940360	0.301863	0.500534	99
Es	-0.865586	0.271212	-0.711605	99
Es	0.133909	-0.025854	-0.034792	99
Es	0.941961	2.284262	1.241545	99
Es	0.904829	0.024292	0.018474	99
Es	1.144633	1.935283	1.873421	99
Es	-0.633134	-0.069756	-0.077700	99
Es	1.261345	2.960891	1.234594	99
Es	1.152213	1.885612	0.638111	99
Es	0.200665	2.382290	1.251808	99
Es	-2.965104	-1.191074	-0.649373	99
Es	1.349961	-0.470184	-1.795166	99
Es	2.335162	-0.624220	-1.100262	99
Es	2.140339	1.500105	0.001995	99
Es	-2.957590	-1.172018	0.566234	99
Es	-1.168894	-1.503840	-0.051418	99
Es	-0.931574	-1.882899	-0.655219	99
Es	1.136955	0.764418	0.022573	99
Es	1.461437	-1.456468	-1.095079	99
Es	-1.936039	-1.510329	-0.042968	99
Es	-2.690468	-1.526172	-0.038402	99
Es	1.123941	-0.297121	0.668544	99
Es	1.385454	1.491344	0.020954	99
Es	1.247178	-0.354846	-0.567380	99
