42
Properties=species:S:1:pos:R:3:Z:I:1 energy=-339.9776260781187 field_type=dipole dipole="0.000000 0.000000 0.000000" charge=0
O	-1.423666	-2.898073	0.876271	8
C	-1.921716	-1.823793	0.571221	6
N	-1.231446	-0.689163	0.247241	7
C	0.205524	-0.689773	0.108211	6
C	0.711464	0.712007	0.254151	6
C	1.671264	1.295267	-0.748739	6
N	0.279194	1.739037	-0.701359	7
H	-3.011186	-1.666283	0.533591	1
H	-1.729226	0.093297	-0.159719	1
H	0.438284	-1.110243	-0.876569	1
H	0.652934	-1.340633	0.866991	1
H	0.778114	1.021927	1.290441	1
H	1.950984	0.707167	-1.614019	1
H	2.418664	1.997387	-0.401949	1
H	0.210804	2.651867	-0.245769	1
Es	0.449984	0.018350	0.165291	99
Es	0.335856	1.299670	-0.222678	99
Es	-1.583930	-2.463562	1.012380	99
Es	0.910135	1.646850	-0.816935	99
Es	-1.231444	-0.689295	0.247025	99
Es	0.279603	1.739090	-0.700915	99
Es	-1.484203	-1.170037	0.193293	99
Es	1.860932	0.895383	-1.333757	99
Es	0.506310	-1.112031	0.621779	99
Es	0.050086	1.646781	-0.964248	99
Es	2.178519	1.775189	-0.512555	99
Es	-1.357097	-0.767973	0.572165	99
Es	-1.112904	-2.885721	0.865402	99
Es	0.253510	2.279986	-0.412891	99
Es	0.371020	-0.968875	-0.565131	99
Es	0.205325	-0.689720	0.108232	99
Es	1.360290	0.867325	-0.165420	99
Es	-1.639572	-3.105256	0.943800	99
Es	1.671013	1.295323	-0.748680	99
Es	-1.921651	-1.823641	0.571187	99
Es	0.759178	0.929794	0.958874	99
Es	-1.423779	-2.897775	0.876190	99
Es	-1.527043	-0.236581	-0.004171	99
Es	-1.594333	-2.608600	0.535099	99
Es	0.711434	0.712158	0.253950	99
Es	-2.668890	-1.704782	0.540791	99
Es	-0.624752	-0.695720	0.180457	99
