35
Properties=species:S:1:pos:R:3:Z:I:1 energy=-357.37535544583045 field_type=dipole dipole="0.000000 0.000000 0.000000" charge=0
O	-2.640136	0.588987	1.193904	8
C	-2.195556	1.294557	0.301334	6
O	-1.007236	1.186067	-0.369326	8
N	-0.280766	0.079987	0.110314	7
C	0.828704	0.001507	-0.530866	6
C	1.634314	-1.105413	-0.102716	6
C	2.311354	-2.031543	0.252844	6
H	-2.729186	2.167377	-0.106026	1
H	1.177604	0.675717	-1.327816	1
H	2.900904	-2.857243	0.578354	1
Es	-2.545732	1.885718	0.018297	99
Es	-2.459037	0.363741	1.272154	99
Es	-1.007370	1.185884	-0.369080	99
Es	-0.280534	0.080407	0.109805	99
Es	-2.909495	0.702700	1.268839	99
Es	0.092968	-0.121680	-0.374482	99
Es	2.311470	-2.031714	0.252929	99
Es	-0.873633	1.428646	-0.286503	99
Es	1.251818	-0.560382	-0.322051	99
Es	-0.702534	0.716270	-0.162405	99
Es	-1.099865	1.127785	-0.638377	99
Es	2.244330	-1.450896	-0.138258	99
Es	1.634151	-1.105186	-0.102811	99
Es	0.828785	0.001407	-0.530835	99
Es	2.694224	-2.566104	0.462709	99
Es	1.931666	-1.437916	0.399602	99
Es	0.343250	0.212356	0.017640	99
Es	1.059773	0.441304	-1.052946	99
Es	-2.365583	0.983629	1.051454	99
Es	-2.640003	0.589180	1.193657	99
Es	-1.445481	1.193742	-0.092672	99
Es	1.714452	-1.765271	-0.062178	99
Es	-2.195299	1.294513	0.301198	99
Es	-0.430877	-0.117084	0.373983	99
Es	-2.588373	0.684256	0.704679	99
