38
Properties=species:S:1:pos:R:3:Z:I:1 energy=-358.58724139639116 field_type=dipole dipole="0.000000 0.000000 0.000000" charge=0
O	-2.936918	0.121550	0.179892	8
N	-1.639558	0.645200	0.129242	7
C	-0.798798	-0.333080	0.014642	6
C	0.665752	-0.132880	-0.054678	6
C	1.459452	-1.214690	-0.073298	6
C	1.262982	1.224910	-0.094238	6
O	2.470062	1.429440	-0.171418	8
H	-3.484398	0.919540	0.307852	1
H	-1.149888	-1.381060	-0.030578	1
H	1.068232	-2.225130	-0.038148	1
H	2.540382	-1.111850	-0.115488	1
H	0.542702	2.058050	-0.053778	1
Es	1.262967	1.224833	-0.094237	99
Es	-3.224305	0.551121	0.247391	99
Es	2.173300	-1.157692	-0.101011	99
Es	-2.936860	0.121878	0.179947	99
Es	-0.073544	-0.207985	-0.021794	99
Es	-2.979015	0.008742	-0.100616	99
Es	-2.938650	-0.049898	0.435166	99
Es	0.768360	1.781812	-0.066304	99
Es	-1.639675	0.644583	0.129210	99
Es	0.665641	-0.132792	-0.054674	99
Es	-1.233797	0.195159	0.366205	99
Es	-2.366108	0.351434	0.158921	99
Es	1.459480	-1.214764	-0.073288	99
Es	2.637888	1.162613	-0.180798	99
Es	2.013357	1.348133	-0.394638	99
Es	-0.798720	-0.333066	0.014644	99
Es	1.028905	-0.612799	0.250334	99
Es	-1.026523	-1.036215	-0.015348	99
Es	2.539139	1.732126	-0.175652	99
Es	2.469816	1.429385	-0.171394	99
Es	-1.596531	1.021820	0.150875	99
Es	0.943246	0.537063	-0.073482	99
Es	-1.271651	0.232175	-0.212157	99
Es	1.005892	-0.623581	-0.377525	99
Es	2.044128	1.349037	0.107210	99
Es	1.191748	-1.893253	-0.050398	99
