38
Properties=species:S:1:pos:R:3:Z:I:1 energy=-358.5354208176862 field_type=dipole dipole="0.000000 0.000000 0.000000" charge=0
O	-2.737221	-0.607149	-0.408728	8
N	-1.370601	-0.665179	-0.703448	7
C	-0.699791	-0.446189	0.386942	6
C	0.819509	-0.418909	0.392912	6
O	1.346969	-1.113659	-0.727138	8
C	1.301519	0.942261	0.392912	6
C	1.698809	2.064161	0.392912	6
H	-3.150361	-0.792419	-1.273608	1
H	-1.204031	-0.234179	1.346532	1
H	1.151099	-0.943539	1.294592	1
H	0.783059	-0.851809	-1.479558	1
H	2.061039	3.066611	0.385682	1
Es	0.052161	-0.421632	0.379540	99
Es	1.044086	-0.959464	-1.114028	99
Es	-2.737070	-0.607219	-0.409060	99
Es	1.346700	-1.113429	-0.727123	99
Es	-1.067270	-0.858469	-0.163512	99
Es	-1.261096	-0.736901	-1.062404	99
Es	1.252352	1.582901	0.647423	99
Es	1.825086	1.394204	0.491836	99
Es	1.036366	-0.752855	0.999828	99
Es	-2.782477	-0.844062	-0.218770	99
Es	-2.133160	-0.632086	-0.539790	99
Es	0.819526	-0.418889	0.392719	99
Es	1.053898	0.291235	0.399357	99
Es	-1.370821	-0.665070	-0.702877	99
Es	1.933730	2.717160	0.388763	99
Es	1.409435	1.531530	0.046325	99
Es	-2.951342	-0.706346	-0.873293	99
Es	-0.699723	-0.446181	0.386933	99
Es	1.284038	-1.405569	-0.669084	99
Es	1.698890	2.064403	0.392908	99
Es	-1.072165	-0.285688	-0.284728	99
Es	1.301427	0.942000	0.392927	99
Es	1.127435	-0.822188	-0.302927	99
Es	-2.784536	-0.314464	-0.331769	99
Es	1.629891	-1.004342	-0.769999	99
Es	-1.029554	-0.304598	1.029924	99
