42
Properties=species:S:1:pos:R:3:Z:I:1 energy=-339.9199234711717 field_type=dipole dipole="0.000000 0.000000 0.000000" charge=0
O	-2.708544	0.628824	0.260987	8
N	-1.529114	-0.035107	0.608857	7
C	-0.787994	-0.459797	-0.474643	6
N	-1.258464	-0.510397	-1.681523	7
C	0.660646	-0.871567	-0.233173	6
C	1.521086	0.357593	-0.251193	6
C	2.271596	0.779933	0.775437	6
H	-3.387334	-0.066807	0.361627	1
H	-0.990384	0.430473	1.340727	1
H	-2.214134	-0.140507	-1.630133	1
H	0.980906	-1.560047	-1.022203	1
H	0.725216	-1.398807	0.725467	1
H	1.525556	0.926103	-1.180253	1
H	2.314096	0.242923	1.717337	1
H	2.876866	1.677183	0.682677	1
Es	-1.208772	0.262876	1.020777	99
Es	2.271642	0.779959	0.775510	99
Es	-2.176391	0.327816	0.412857	99
Es	1.520996	0.357513	-0.251260	99
Es	-2.708510	0.628447	0.261069	99
Es	0.873313	-1.320709	-0.756690	99
Es	2.682908	1.386091	0.720744	99
Es	-1.258634	-0.510242	-1.681098	99
Es	0.660589	-0.871487	-0.233154	99
Es	1.644234	0.751158	0.388324	99
Es	2.299853	0.417818	1.417978	99
Es	-0.787999	-0.459777	-0.474442	99
Es	-1.569382	-0.362392	0.680719	99
Es	1.517724	0.734697	-0.878689	99
Es	-1.176192	-0.750274	-1.140011	99
Es	0.702660	-1.218100	0.423222	99
Es	-1.831228	-0.293063	-1.650953	99
Es	-0.982754	-0.226180	-1.241600	99
Es	-0.071176	-0.661508	-0.326887	99
Es	-3.062304	0.250951	0.314948	99
Es	-1.192115	-0.132709	0.129666	99
Es	-2.683586	0.697297	-0.043437	99
Es	-2.754100	0.835622	0.482940	99
Es	1.077706	-0.257609	-0.234005	99
Es	-1.528880	-0.034534	0.608417	99
Es	2.144961	0.392264	0.167191	99
Es	-1.087685	-0.631467	-1.981704	99
