42
Properties=species:S:1:pos:R:3:Z:I:1 energy=-628.2439598927963 field_type=dipole dipole="0.000000 0.000000 0.000000" charge=0
C	-0.065269	-0.993970	1.106488	6
C	-0.443409	-1.376100	-0.355482	6
C	-0.134529	0.019730	-0.697912	6
C	-0.048819	1.013140	-1.606922	6
S	0.524071	2.441010	-0.773692	16
C	0.614761	1.624140	0.770918	6
C	0.214281	0.350530	0.580598	6
H	0.802691	-1.473730	1.571748	1
H	-0.853009	-1.006910	1.868378	1
H	-1.476409	-1.665300	-0.576692	1
H	0.185591	-2.101950	-0.882952	1
H	-0.263589	1.028560	-2.665632	1
H	0.943641	2.140850	1.661158	1
Es	-0.386220	0.607251	-1.066717	99
Es	0.614782	1.624305	0.770794	99
Es	-0.188338	1.036604	-2.313528	99
Es	0.960989	2.479640	-0.907465	99
Es	-0.315781	-0.687813	-0.643073	99
Es	0.709231	0.897370	0.590607	99
Es	0.225249	1.715336	-1.229552	99
Es	-0.443387	-1.376044	-0.355451	99
Es	-0.065271	-0.993936	1.106428	99
Es	-0.048764	1.013332	-1.606912	99
Es	-0.274585	-1.279248	0.405353	99
Es	0.525652	-1.320850	1.405286	99
Es	0.582244	2.040634	0.038682	99
Es	0.050914	0.235556	-0.074579	99
Es	0.108186	1.068989	0.712335	99
Es	0.109494	-0.274677	0.947880	99
Es	0.439027	2.523321	-0.794471	99
Es	0.150208	2.702199	-0.735206	99
Es	-0.134555	0.019646	-0.697955	99
Es	0.523119	2.442882	-0.776364	99
Es	-1.144654	-1.563229	-0.491170	99
Es	0.583314	2.469813	-0.679793	99
Es	0.599418	2.430201	-0.862028	99
Es	0.475145	2.336162	-0.754470	99
Es	0.835652	1.980168	1.357363	99
Es	0.215775	0.442035	-1.191935	99
Es	-0.606767	-1.000273	1.607896	99
Es	0.214284	0.350479	0.580683	99
Es	-0.007402	-1.860824	-0.701109	99
