43
Properties=species:S:1:pos:R:3:Z:I:1 energy=-665.308372085807 field_type=dipole dipole="0.000000 0.000000 0.000000" charge=0
C	-1.797719	-0.183191	-0.003544	6
C	-0.307930	-0.109491	-0.000164	6
C	0.431290	1.056799	-0.001324	6
O	-0.021950	2.305559	-0.005074	8
S	2.111681	0.765249	0.002946	16
C	1.883111	-0.925961	0.005986	6
C	0.548560	-1.261521	0.003876	6
H	-2.255899	0.810359	0.007756	1
H	-2.151780	-0.728231	0.877876	1
H	-2.148600	-0.707371	-0.898174	1
H	0.779530	2.856799	-0.004524	1
H	2.734060	-1.593691	0.009126	1
H	0.195640	-2.285311	0.005236	1
Es	-2.026237	-0.540024	-0.608340	99
Es	2.111669	0.765263	0.003388	99
Es	0.548536	-1.261529	0.003876	99
Es	-0.149293	2.320752	-0.264443	99
Es	0.088947	-0.710765	0.001993	99
Es	1.243267	0.952156	0.002097	99
Es	1.237406	-1.066751	-0.310339	99
Es	-2.101431	0.487264	0.003977	99
Es	-2.028411	-0.554256	0.592314	99
Es	0.082806	0.392953	0.318396	99
Es	0.411747	2.586012	-0.004284	99
Es	-0.307949	-0.109496	-0.000169	99
Es	2.096405	0.819462	-0.101770	99
Es	0.177867	1.824038	-0.002657	99
Es	2.225735	0.751397	0.024449	99
Es	2.062187	0.829316	0.089136	99
Es	-0.154948	2.324048	0.252297	99
Es	0.431424	1.057100	-0.001331	99
Es	0.084046	0.391916	-0.319277	99
Es	0.304109	-1.948630	0.004838	99
Es	2.238369	0.888821	0.430047	99
Es	2.060168	0.658912	-0.000474	99
Es	-0.021641	2.305427	-0.005073	99
Es	1.883215	-0.925771	0.005992	99
Es	2.026297	-0.104918	0.005763	99
Es	2.229893	0.879181	-0.426649	99
Es	1.236030	-1.065871	0.319878	99
Es	-1.045594	-0.140257	-0.001824	99
Es	-1.797656	-0.183193	-0.003544	99
Es	2.459196	-1.359008	0.008099	99
