44
Properties=species:S:1:pos:R:3:Z:I:1 energy=-645.4805250291728 field_type=dipole dipole="0.000000 0.000000 0.000000" charge=0
C	-1.548138	0.684481	-0.003386	6
C	-0.059088	0.687801	0.003444	6
C	0.730402	1.824451	0.012754	6
S	2.375202	1.370421	0.017724	16
N	2.100182	-0.258829	0.008094	7
C	0.785302	-0.483639	0.001244	6
C	0.333632	-1.903538	-0.008316	6
H	-1.949868	1.703001	0.002854	1
H	-1.933038	0.164931	0.879894	1
H	-1.924748	0.178881	-0.898246	1
H	0.431732	2.862861	0.016694	1
H	-0.757698	-1.985368	-0.003316	1
H	0.712542	-2.430408	0.873704	1
H	0.703582	-2.415049	-0.903136	1
Es	2.470524	1.466601	0.451702	99
Es	2.388694	1.289483	-0.066188	99
Es	-1.798526	0.331160	0.592117	99
Es	2.259564	1.381552	0.041056	99
Es	0.589617	-2.244409	0.583026	99
Es	1.512143	1.649850	0.012187	99
Es	-0.796796	0.682517	0.000075	99
Es	0.353720	1.182183	-0.299608	99
Es	-0.059117	0.687780	0.003450	99
Es	0.544373	-1.183568	-0.003509	99
Es	0.351232	1.178248	0.315746	99
Es	-1.811990	1.376160	0.000890	99
Es	0.583326	-2.233819	-0.608101	99
Es	-0.408263	-1.948239	-0.004860	99
Es	-1.792961	0.340578	-0.606698	99
Es	2.191976	0.433368	0.010774	99
Es	2.418026	1.474241	-0.019501	99
Es	0.324127	0.079138	0.001612	99
Es	1.544840	-0.287477	-0.268310	99
Es	2.431516	1.335495	0.115463	99
Es	0.537130	2.516980	0.015341	99
Es	-1.548073	0.684484	-0.003386	99
Es	2.099775	-0.258431	0.008094	99
Es	2.499572	1.481554	-0.410134	99
Es	0.333631	-1.903476	-0.008317	99
Es	2.375186	1.370408	0.017739	99
Es	0.785344	-0.483654	0.001238	99
Es	0.730569	1.824488	0.012752	99
Es	2.388778	-0.475836	0.008755	99
Es	1.541726	-0.290140	0.279304	99
