41
Properties=species:S:1:pos:R:3:Z:I:1 energy=-644.2887670134668 field_type=dipole dipole="0.000000 0.000000 0.000000" charge=0
C	-0.633630	-2.089107	0.244574	6
C	-1.143710	-0.874217	-0.003566	6
C	-0.431220	0.368943	-0.108466	6
N	-1.090030	1.503113	-0.361286	7
S	-0.024610	2.766253	-0.426806	16
C	1.371680	1.834523	-0.116556	6
C	0.990450	0.518323	0.039214	6
H	-1.289370	-2.953277	0.298174	1
H	0.424840	-2.265357	0.399264	1
H	-2.221560	-0.803337	-0.144376	1
H	2.357610	2.273453	-0.065436	1
H	1.689550	-0.279317	0.245264	1
Es	0.741471	2.305187	-0.263959	99
Es	-0.431246	0.368988	-0.108486	99
Es	-1.089456	1.503062	-0.361210	99
Es	1.371600	1.834672	-0.116589	99
Es	0.027888	2.843863	-0.868563	99
Es	-0.775799	-0.254367	-0.054461	99
Es	-0.024595	2.766230	-0.426851	99
Es	-1.143709	-0.874111	-0.003576	99
Es	-1.070271	-2.675073	0.281871	99
Es	-1.865253	-0.820070	-0.098893	99
Es	1.453403	-0.023679	0.177756	99
Es	0.990443	0.518315	0.039212	99
Es	1.078227	1.173686	0.260108	99
Es	-0.835029	-1.500089	-0.197708	99
Es	2.021155	2.132906	-0.084388	99
Es	-0.072235	2.970439	-0.027420	99
Es	-0.731687	0.998194	-0.518430	99
Es	-0.088210	2.721215	-0.337881	99
Es	-0.633587	-2.089181	0.244590	99
Es	-0.033815	2.693793	-0.519588	99
Es	-0.795781	1.080452	0.016989	99
Es	0.083968	-2.209912	0.349624	99
Es	0.290826	0.403116	-0.027051	99
Es	0.089069	2.772761	-0.394406	99
Es	-0.618758	2.016916	-0.384058	99
Es	-1.436755	1.580828	-0.415107	99
Es	1.150305	1.082273	-0.338639	99
Es	-0.911145	-1.403042	0.433327	99
Es	-0.064412	2.874024	-0.454752	99
