45
Properties=species:S:1:pos:R:3:Z:I:1 energy=-739.2940932049956 field_type=dipole dipole="0.000000 0.000000 0.000000" charge=0
C	-1.667399	-0.248639	-0.253973	6
C	-0.232689	-0.328489	0.149167	6
C	0.378521	-1.465409	0.525637	6
S	0.686221	1.153971	0.130027	16
O	1.717711	0.816171	-1.063523	8
O	-0.130739	2.258992	-0.319823	8
O	1.507571	1.261861	1.316807	8
H	-2.213929	0.432851	0.405877	1
H	-2.159599	-1.225579	-0.201593	1
H	-1.757779	0.113311	-1.283113	1
H	-0.155719	-2.409778	0.553597	1
H	1.424891	-1.483459	0.818607	1
H	2.602941	1.124192	-0.777693	1
Es	0.191955	1.857145	-0.166931	99
Es	0.378548	-1.465454	0.525648	99
Es	0.776594	1.187954	0.216042	99
Es	0.699412	1.151031	0.116199	99
Es	0.696848	1.148927	0.116805	99
Es	1.612409	0.962638	-1.296430	99
Es	1.391403	0.945575	-0.653543	99
Es	1.507415	1.261834	1.316562	99
Es	0.019981	-2.094107	0.542245	99
Es	-0.232654	-0.328266	0.149141	99
Es	1.717713	0.816281	-1.063266	99
Es	-0.015016	-0.792431	0.637104	99
Es	-2.018763	0.204231	0.192264	99
Es	1.285294	1.318979	1.494685	99
Es	-1.980860	-0.914969	-0.212293	99
Es	1.175819	1.222449	0.895600	99
Es	1.596103	0.975837	1.245435	99
Es	-0.130466	2.258632	-0.319797	99
Es	-0.923367	-0.273783	-0.049318	99
Es	2.158486	0.991007	-0.895590	99
Es	0.621240	1.243633	0.063164	99
Es	0.189703	0.368491	0.136184	99
Es	0.095585	2.441620	-0.320243	99
Es	0.637315	1.038079	0.137492	99
Es	1.074638	-1.480881	0.718104	99
Es	1.719309	0.530967	-1.034366	99
Es	1.642274	1.478619	1.147723	99
Es	-1.667301	-0.248654	-0.253947	99
Es	0.154576	-0.903491	0.023710	99
Es	-0.270907	2.186844	-0.051086	99
Es	-0.214339	2.080039	-0.547187	99
Es	-1.713779	-0.009910	-0.938453	99
