48
Properties=species:S:1:pos:R:3:Z:I:1 energy=-740.4758853297742 field_type=dipole dipole="0.000000 0.000000 0.000000" charge=0
C	-1.975257	-1.016404	-0.123665	6
C	-0.471007	-0.840284	-0.173425	6
S	-0.008347	0.882006	-0.106225	16
O	-0.473597	1.525596	-1.319475	8
O	-0.370657	1.400396	1.201945	8
C	1.788122	0.811816	-0.160865	6
O	2.412792	0.236936	0.994865	8
H	-2.235917	-2.078014	-0.171825	1
H	-2.460337	-0.506944	-0.962395	1
H	-2.389807	-0.604304	0.801905	1
H	-0.068617	-1.251854	-1.103685	1
H	0.000313	-1.342404	0.676325	1
H	2.147413	1.839216	-0.270195	1
H	2.078093	0.239296	-1.045685	1
H	2.026813	0.704946	1.762395	1
Es	1.962082	0.423432	-0.751921	99
Es	-0.191550	-1.097995	-0.797164	99
Es	-0.231027	1.654524	1.133271	99
Es	-2.293042	-0.675952	-0.689369	99
Es	-0.470993	-0.840142	-0.173426	99
Es	2.695452	0.324231	0.960838	99
Es	-0.305354	1.291385	-1.442585	99
Es	-2.133263	-1.734227	-0.157069	99
Es	1.999635	1.504705	-0.236977	99
Es	-0.356360	1.786294	-1.270236	99
Es	-1.975159	-1.016398	-0.123669	99
Es	-0.252575	-0.037069	-0.141849	99
Es	-0.741077	1.433339	-1.224181	99
Es	-0.073060	0.944083	-0.190636	99
Es	-1.197677	-0.898680	-0.148834	99
Es	1.788060	0.811705	-0.160640	99
Es	0.105795	0.880727	-0.133848	99
Es	2.412571	0.237207	0.994862	99
Es	-0.174950	1.164590	1.286392	99
Es	-0.149471	-1.158017	0.393050	99
Es	-2.245022	-0.741469	0.499609	99
Es	2.135760	0.465594	0.562502	99
Es	2.201847	0.494739	1.387850	99
Es	0.952858	0.827732	-0.126061	99
Es	2.319919	-0.055636	1.009502	99
Es	-0.651716	1.343530	1.171260	99
Es	-0.265310	1.225534	0.703999	99
Es	-0.018424	0.931984	-0.004672	99
Es	-0.473519	1.525489	-1.319335	99
Es	-0.008151	0.881836	-0.106235	99
Es	-0.370578	1.400300	1.201732	99
Es	-0.047766	0.771278	-0.095741	99
Es	-0.290582	1.324184	-0.854283	99
