43
Properties=species:S:1:pos:R:3:Z:I:1 energy=-661.4690237910766 field_type=dipole dipole="0.000000 0.000000 0.000000" charge=0
N	-2.038791	-0.532412	0.118158	7
C	-0.684101	-0.586942	0.081778	6
C	0.194779	0.473328	-0.028122	6
N	-0.195391	1.769048	-0.070712	7
C	1.551419	0.062328	-0.084422	6
C	1.672679	-1.307212	0.007568	6
S	0.151509	-2.078432	0.156368	16
H	-2.474831	0.262738	-0.339422	1
H	-2.532581	-1.401522	-0.058042	1
H	0.484899	2.504728	0.093228	1
H	-1.109871	2.003148	0.306048	1
H	2.400309	0.725818	-0.180092	1
H	2.579969	-1.894612	-0.002332	1
Es	0.089591	-1.986475	0.191250	99
Es	-2.315543	-1.049668	-0.013023	99
Es	1.551420	0.062362	-0.084424	99
Es	0.947760	-1.705469	0.077861	99
Es	0.118697	-2.172204	0.219343	99
Es	-0.019564	1.219430	0.015910	99
Es	-2.276335	-0.069737	-0.183047	99
Es	0.270187	-2.055978	0.171524	99
Es	-0.188828	-0.108963	-0.291080	99
Es	-0.730379	1.893641	0.185242	99
Es	0.079960	-2.281664	-0.257898	99
Es	-0.320495	-1.314091	0.120269	99
Es	-0.158573	-0.071078	0.342341	99
Es	0.217159	2.188653	0.058970	99
Es	0.128181	-2.096235	0.045268	99
Es	1.672542	-1.307359	0.007589	99
Es	-2.035335	-0.473838	0.410232	99
Es	0.135412	-2.201601	0.599854	99
Es	-0.195270	1.768841	-0.070051	99
Es	-0.238647	1.746727	-0.356737	99
Es	-1.451762	-0.571772	0.042128	99
Es	-0.684212	-0.587125	0.081802	99
Es	0.884371	0.315715	-0.060184	99
Es	0.151897	-2.078739	0.154141	99
Es	1.574219	-0.652438	-0.349960	99
Es	-2.038570	-0.532490	0.117594	99
Es	2.117046	0.520789	-0.148438	99
Es	2.271570	-1.709419	0.003329	99
Es	1.608486	-0.608636	0.275679	99
Es	0.194736	0.473471	-0.028138	99
