45
Properties=species:S:1:pos:R:3:Z:I:1 energy=-739.2730979463427 field_type=dipole dipole="0.000000 0.000000 0.000000" charge=0
O	-2.020713	0.238225	-0.799034	8
C	-0.574863	0.158615	-0.742294	6
C	0.110997	1.145905	0.234506	6
C	1.211797	0.130725	0.605316	6
S	0.130157	-1.205015	0.204136	16
O	-0.724523	-1.582865	1.311346	8
O	0.759567	-2.175154	-0.666244	8
H	-2.322503	-0.688055	-0.854124	1
H	-0.152363	0.170765	-1.753344	1
H	-0.522043	1.433005	1.083536	1
H	0.481687	2.065245	-0.229034	1
H	2.092017	0.158745	-0.045044	1
H	1.530787	0.149855	1.650276	1
Es	-0.310370	1.318635	0.800522	99
Es	0.094298	-1.141037	0.300023	99
Es	-2.104864	0.341726	-0.527322	99
Es	-0.272824	0.159354	-1.408672	99
Es	0.188913	-1.135428	0.128286	99
Es	1.777902	0.140752	0.159506	99
Es	-0.906561	-1.678534	1.089377	99
Es	0.474046	-2.241064	-0.740823	99
Es	-1.461147	0.181638	-0.775199	99
Es	0.038101	-1.251737	0.149050	99
Es	-0.575074	0.158564	-0.742204	99
Es	-2.020493	0.237912	-0.799069	99
Es	0.859147	-1.907388	-0.797780	99
Es	0.910378	-2.308028	-0.462789	99
Es	0.692277	0.657640	0.443057	99
Es	-2.160922	-0.259300	-0.833552	99
Es	0.776062	-0.543649	0.469465	99
Es	0.111047	1.145784	0.234463	99
Es	-0.731992	-1.280752	1.364635	99
Es	0.130233	-1.205021	0.204099	99
Es	1.211702	0.130668	0.605282	99
Es	0.534802	-1.846591	-0.305815	99
Es	-2.078788	0.373411	-1.062330	99
Es	-0.724352	-1.582775	1.311115	99
Es	-0.265191	0.687179	-0.271977	99
Es	-0.387818	-1.453984	0.906381	99
Es	0.199200	-1.291837	0.239236	99
Es	1.418930	0.136351	1.296682	99
Es	0.759402	-2.174955	-0.666055	99
Es	-0.319938	-0.538305	-0.345644	99
Es	-0.516744	-1.748410	1.420425	99
Es	0.367187	1.755012	-0.084440	99
