37
Properties=species:S:1:pos:R:3:Z:I:1 energy=-715.8189355850316 field_type=dipole dipole="0.000000 0.000000 0.000000" charge=0
O	-1.899877	0.129297	0.523835	8
S	-0.487517	0.039667	0.786315	16
O	0.209842	-0.604192	1.868375	8
C	0.126583	-0.804643	-0.637765	6
C	0.543763	-1.382602	-1.607095	6
C	0.099953	1.714177	0.778015	6
N	0.498123	2.809587	0.750805	7
H	0.909133	-1.901292	-2.462485	1
Es	0.618701	3.147154	0.745944	99
Es	0.096852	-0.835675	1.704481	99
Es	0.155692	2.307563	1.033210	99
Es	-0.117832	-0.394182	-0.030729	99
Es	0.497959	2.809148	0.750813	99
Es	-0.531987	0.000965	0.889997	99
Es	0.377010	-0.445714	1.596795	99
Es	-1.429453	0.111382	0.765335	99
Es	-0.573724	0.059545	0.711437	99
Es	0.099789	1.713712	0.778025	99
Es	-2.057251	0.274390	0.686084	99
Es	0.126451	-0.804420	-0.637439	99
Es	-0.488092	0.039520	0.786150	99
Es	0.777326	-1.715980	-2.154793	99
Es	0.158163	2.335159	0.500314	99
Es	0.543811	-1.382710	-1.607241	99
Es	-0.144560	-0.335607	1.580179	99
Es	0.191041	-0.494433	2.113391	99
Es	0.146561	-0.855522	-1.313902	99
Es	-1.823069	-0.162349	0.467326	99
Es	-1.899490	0.129283	0.523977	99
Es	0.209692	-0.604052	1.868142	99
Es	-1.652436	0.266632	0.307337	99
Es	0.660701	-1.008098	-0.997198	99
Es	0.147865	-1.346418	-0.938451	99
Es	-0.413671	-0.042320	0.739995	99
Es	-0.429685	0.141040	0.803572	99
Es	-0.136104	1.005971	0.761972	99
Es	0.596163	2.180458	0.759846	99
