41
Properties=species:S:1:pos:R:3:Z:I:1 energy=-302.9786963483927 field_type=dipole dipole="0.000000 0.000000 0.000000" charge=0
C	-2.378092	-0.248747	-0.012543	6
C	-0.897772	-0.166817	-0.005343	6
C	-0.051642	0.926413	-0.002193	6
C	1.266168	0.432403	0.003667	6
N	2.386958	1.158363	0.007457	7
C	1.213727	-0.935167	0.004317	6
N	-0.110092	-1.295167	-0.001393	7
H	-2.826562	0.749773	-0.003693	1
H	-2.737842	-0.789817	0.868377	1
H	-2.729762	-0.770637	-0.908173	1
H	-0.361232	1.962663	-0.004473	1
H	2.380178	2.172153	0.022197	1
H	3.309298	0.738113	0.026887	1
H	1.989678	-1.686987	0.007727	1
H	-0.453012	-2.246547	-0.002823	1
Es	-0.110112	-1.295133	-0.001261	99
Es	-0.388434	0.445731	-0.310924	99
Es	-1.636306	-0.211011	-0.008700	99
Es	-2.675339	0.426033	-0.006607	99
Es	-0.254371	1.635648	-0.003590	99
Es	-0.392837	0.445552	0.303951	99
Es	0.461933	-1.187349	0.003502	99
Es	-0.051638	0.926448	-0.002184	99
Es	1.214170	-0.320434	0.321643	99
Es	-2.611849	-0.618616	0.581594	99
Es	1.741996	-1.447974	0.006769	99
Es	2.386406	1.157972	0.009053	99
Es	-2.606333	-0.605585	-0.616491	99
Es	1.213576	-0.935297	0.004315	99
Es	-0.334652	-0.967919	0.252970	99
Es	2.338952	1.125491	-0.128498	99
Es	2.934485	0.898413	0.047384	99
Es	-0.308972	-0.988616	-0.262141	99
Es	1.905057	0.850179	0.075127	99
Es	-0.311577	-1.861745	-0.000130	99
Es	2.373874	1.764777	0.044909	99
Es	-2.378038	-0.248750	-0.012542	99
Es	1.218750	-0.319632	-0.314036	99
Es	-0.897786	-0.167035	-0.005338	99
Es	0.635755	0.740570	0.000982	99
Es	1.266315	0.432535	0.003667	99
