41
Properties=species:S:1:pos:R:3:Z:I:1 energy=-302.9348963288324 field_type=dipole dipole="0.000000 0.000000 0.000000" charge=0
C	-2.224246	-0.419646	-0.142451	6
C	-0.906555	-0.280206	0.046709	6
C	-0.193745	1.021304	0.263909	6
C	1.262525	0.915604	-0.187181	6
N	1.853314	-0.296896	0.381559	7
N	1.261584	-1.497396	0.139309	7
C	-0.029866	-1.484556	0.008049	6
H	-2.883525	0.444204	-0.128481	1
H	-2.686646	-1.388256	-0.305481	1
H	-0.686956	1.834164	-0.282101	1
H	-0.230335	1.269664	1.332279	1
H	1.820525	1.793434	0.155249	1
H	1.329995	0.884434	-1.280791	1
H	2.851435	-0.348036	0.170999	1
H	-0.537506	-2.447816	-0.171571	1
Es	1.261246	-1.496846	0.139335	99
Es	1.299578	0.890810	-0.941629	99
Es	1.853256	-0.297059	0.380852	99
Es	1.538013	-0.867395	0.212466	99
Es	0.683027	-1.432037	-0.213125	99
Es	-0.193734	1.021249	0.263882	99
Es	1.647708	1.508793	0.047955	99
Es	-2.537955	-1.074624	-0.251244	99
Es	-2.674885	0.164334	-0.135236	99
Es	1.486345	-1.795208	0.131217	99
Es	0.621761	-1.501027	0.357008	99
Es	1.793432	-0.302267	0.692192	99
Es	1.588551	0.207400	0.103156	99
Es	0.530247	0.964090	0.034814	99
Es	-0.555852	0.367692	0.148911	99
Es	-0.906388	-0.280214	0.046727	99
Es	1.262543	0.915472	-0.187098	99
Es	-0.379688	-2.133920	-0.111800	99
Es	-2.224339	-0.419650	-0.142467	99
Es	-0.219786	1.179321	0.983159	99
Es	-1.519653	-0.333020	-0.369204	99
Es	2.447553	-0.328905	0.229360	99
Es	-0.029869	-1.484519	0.008044	99
Es	-0.531402	1.569936	-0.109299	99
Es	-0.459324	-0.873119	0.033611	99
Es	-1.598033	-0.397799	0.269851	99
