44
Properties=species:S:1:pos:R:3:Z:I:1 energy=-304.1133289332881 field_type=dipole dipole="0.000000 0.000000 0.000000" charge=0
C	-2.170252	0.088968	-0.675641	6
C	-0.661732	0.085978	-0.843241	6
C	0.133588	0.931708	0.157829	6
N	0.638988	-0.280012	0.738059	7
C	0.079648	-1.129022	-0.276571	6
C	1.983577	-0.368242	0.969169	6
N	2.744347	0.514568	1.519359	7
H	-2.628712	-0.667232	-1.320451	1
H	-2.585032	1.063348	-0.954841	1
H	-2.465242	-0.121742	0.357579	1
H	-0.388412	0.299068	-1.885391	1
H	-0.451473	1.513128	0.875169	1
H	0.898288	1.565778	-0.302411	1
H	0.816548	-1.562872	-0.961391	1
H	-0.540402	-1.920582	0.152419	1
H	2.424767	-1.333332	0.666259	1
H	2.171508	1.320498	1.784099	1
Es	-0.348299	-1.675867	0.009366	99
Es	0.472032	0.273820	0.526483	99
Es	0.079712	-1.128924	-0.276475	99
Es	-0.331405	-0.581586	-0.613736	99
Es	-0.270186	1.338018	0.643927	99
Es	2.382638	0.999528	1.670544	99
Es	0.660623	1.360302	-0.154442	99
Es	0.133640	0.931567	0.157884	99
Es	-0.661722	0.085965	-0.843196	99
Es	1.230602	-0.300120	0.782411	99
Es	0.639258	-0.279934	0.737618	99
Es	-0.476811	0.232045	-1.557063	99
Es	-2.477341	-0.428554	-1.115668	99
Es	0.444858	-0.691191	0.313118	99
Es	0.592410	-1.424969	-0.743098	99
Es	-0.302390	0.585055	-0.365362	99
Es	-1.416967	0.085461	-0.751269	99
Es	2.382931	0.056152	1.547676	99
Es	2.479627	0.283518	1.034391	99
Es	3.097810	0.496639	1.579461	99
Es	0.575849	-0.343247	1.031816	99
Es	-2.362432	-0.055304	0.029934	99
Es	1.983439	-0.368293	0.969143	99
Es	-2.447265	0.754436	-0.865515	99
Es	2.743826	0.514574	1.519251	99
Es	2.270561	-1.029779	0.755507	99
Es	-2.170224	0.088969	-0.675648	99
