45
Properties=species:S:1:pos:R:3:Z:I:1 energy=-288.10404281732605 field_type=dipole dipole="0.000000 0.000000 0.000000" charge=0
C	-1.430582	0.258438	1.258356	6
C	0.055058	0.062648	0.979086	6
C	0.385338	-1.366102	0.496046	6
N	0.442548	-1.308682	-0.975504	7
C	0.842128	0.065358	-1.310994	6
C	-0.171052	1.157298	-1.429154	6
C	0.566078	0.950968	-0.128074	6
H	-1.648592	1.308448	1.477736	1
H	-1.737222	-0.340602	2.121886	1
H	-2.053632	-0.044362	0.411486	1
H	0.614238	0.271358	1.899786	1
H	-0.334702	-2.113362	0.842556	1
H	1.376258	-1.649722	0.871796	1
H	1.107468	-1.999472	-1.321244	1
H	1.786048	0.187728	-1.833664	1
H	0.090518	2.024928	-2.023044	1
H	-1.212732	0.875848	-1.514064	1
H	1.322838	1.659288	0.177006	1
Es	0.291934	0.555769	-1.561543	99
Es	-0.874177	0.967728	-1.477176	99
Es	1.074106	-1.563444	0.761566	99
Es	0.845951	0.462613	-0.641707	99
Es	0.055036	0.062638	0.979051	99
Es	0.385346	-1.366084	0.495915	99
Es	-0.170929	1.157239	-1.429034	99
Es	0.125077	-1.371644	-1.109524	99
Es	0.634705	-0.712519	-1.127405	99
Es	-1.430566	0.258434	1.258359	99
Es	0.015269	1.746124	-1.826310	99
Es	0.439179	0.207410	1.608930	99
Es	-1.849125	0.051231	0.678359	99
Es	-0.110297	-1.879383	0.737631	99
Es	-0.695817	0.156942	1.113565	99
Es	0.841984	0.065341	-1.310921	99
Es	0.865234	-1.709390	-1.174433	99
Es	0.566023	0.950927	-0.128229	99
Es	0.082494	1.199457	-0.677287	99
Es	1.075580	1.444823	0.073861	99
Es	1.484721	0.144257	-1.677802	99
Es	-1.575917	0.976764	1.409585	99
Es	0.443055	-1.308542	-0.975279	99
Es	0.207025	-0.664183	0.746378	99
Es	0.282131	0.532176	0.418534	99
Es	0.437810	-1.334701	-0.337858	99
Es	-1.638237	-0.153948	1.851000	99
