47
Properties=species:S:1:pos:R:3:Z:I:1 energy=-305.2754100018947 field_type=dipole dipole="0.000000 0.000000 0.000000" charge=0
C	-1.846066	0.396579	0.063734	6
C	-0.332796	0.296549	-0.129046	6
C	0.044294	0.375629	-1.610416	6
N	0.387524	1.357399	0.642464	7
C	1.368884	0.343909	1.104714	6
C	0.334724	-0.760281	0.810634	6
N	0.950764	-1.865471	0.072924	7
H	-2.124196	0.420289	1.123614	1
H	-2.347796	-0.465571	-0.389016	1
H	-2.247166	1.302639	-0.404556	1
H	1.128644	0.385859	-1.765816	1
H	-0.358536	1.286349	-2.070016	1
H	-0.363896	-0.479581	-2.160226	1
H	-0.158656	1.750859	1.409694	1
H	2.284083	0.333349	0.499894	1
H	1.658774	0.443819	2.156604	1
H	-0.257086	-1.064141	1.681034	1
H	1.603074	-1.578711	-0.656356	1
H	0.275434	-2.479471	-0.379856	1
Es	0.950448	-1.865137	0.072546	99
Es	0.047404	1.555490	1.119065	99
Es	-0.076576	-0.966344	1.397014	99
Es	0.523910	-2.213761	-0.211615	99
Es	0.665899	-1.393279	0.364080	99
Es	0.839544	0.955486	0.882290	99
Es	1.569316	0.416024	1.828567	99
Es	1.131835	-2.060509	0.294733	99
Es	-0.130157	0.316268	-0.873033	99
Es	1.368774	0.343998	1.104677	99
Es	0.334804	-0.760373	0.810534	99
Es	-0.058603	-0.294153	0.296897	99
Es	-0.234734	0.991172	-1.911132	99
Es	-2.116401	1.014327	-0.256196	99
Es	0.521552	1.631522	0.444953	99
Es	-0.237064	-0.212479	-1.980923	99
Es	-2.183684	-0.194988	-0.246394	99
Es	-0.332769	0.296669	-0.128993	99
Es	0.907593	-0.273104	1.002071	99
Es	0.033676	0.938409	0.306219	99
Es	-1.106536	0.349713	-0.037905	99
Es	1.986878	0.324484	0.678746	99
Es	0.784572	0.376118	-1.709049	99
Es	1.319124	-1.661981	-0.373076	99
Es	-1.846077	0.396570	0.063733	99
Es	0.387323	1.356954	0.642790	99
Es	0.044290	0.375608	-1.610393	99
Es	-2.026513	0.412147	0.792881	99
