38
Properties=species:S:1:pos:R:3:Z:I:1 energy=-301.830116880249 field_type=dipole dipole="0.000000 0.000000 0.000000" charge=0
C	-1.916012	-0.022306	0.000729	6
C	-0.427063	-0.011366	-0.001071	6
C	0.296968	1.164334	0.000399	6
N	1.642867	1.217534	0.000459	7
C	2.269808	0.031604	-0.000511	6
N	1.680288	-1.173276	-0.001351	7
C	0.332888	-1.163276	-0.001301	6
H	-2.309402	-1.044206	-0.014771	1
H	-2.300802	0.497344	-0.882771	1
H	-2.298132	0.470334	0.900649	1
H	-0.197432	2.132134	0.001629	1
H	3.354028	0.048534	-0.000561	1
H	-0.128002	-2.147386	-0.001531	1
Es	-1.166818	-0.019483	-0.000103	99
Es	1.750982	-0.693309	-0.253120	99
Es	0.007976	-1.828122	-0.001392	99
Es	-0.086100	0.582361	0.002609	99
Es	1.835288	1.541479	0.000186	99
Es	2.269725	0.031601	-0.000510	99
Es	0.297063	1.164376	0.000398	99
Es	-0.002472	-0.361263	-0.288966	99
Es	1.200106	1.051206	0.249106	99
Es	1.873996	-1.496231	-0.000954	99
Es	-2.163971	0.313766	0.605798	99
Es	3.006663	0.044588	-0.000552	99
Es	1.188241	1.059694	-0.245393	99
Es	1.078885	-1.146391	0.001410	99
Es	1.900162	0.681470	-0.002750	99
Es	1.759929	-0.689546	0.248070	99
Es	-2.173873	-0.716822	-0.009471	99
Es	0.332986	-1.163314	-0.001301	99
Es	-1.915951	-0.022307	0.000729	99
Es	1.642552	1.217027	0.000459	99
Es	-0.427113	-0.011366	-0.001069	99
Es	-0.053324	1.816501	0.001173	99
Es	-2.165832	0.331951	-0.593508	99
Es	-0.007465	-0.385064	0.283176	99
Es	1.679998	-1.172792	-0.001342	99
