41
Properties=species:S:1:pos:R:3:Z:I:1 energy=-302.94407363180477 field_type=dipole dipole="0.000000 0.000000 0.000000" charge=0
C	-1.420784	0.660145	0.349327	6
C	0.089606	0.603365	0.420327	6
C	0.708706	1.690985	-0.390453	6
N	1.432576	1.258855	-1.368963	7
N	1.410486	-0.167985	-1.342593	7
C	0.671726	-0.541925	-0.343543	6
C	0.429836	-1.963655	0.025867	6
H	-1.795484	1.597425	0.774067	1
H	-1.868724	-0.170315	0.904507	1
H	-1.780264	0.598405	-0.684423	1
H	0.463916	0.630865	1.445947	1
H	0.553146	2.751995	-0.152063	1
H	0.996306	-2.628875	-0.631033	1
H	-0.634724	-2.191995	-0.066983	1
H	0.743676	-2.127295	1.060017	1
Es	0.875872	1.443408	-1.099642	99
Es	0.344067	0.618014	1.097619	99
Es	-1.420708	0.660142	0.349335	99
Es	1.601758	-0.370667	-1.600534	99
Es	-1.716498	0.094710	0.727978	99
Es	-0.286513	-2.101810	-0.034767	99
Es	0.806438	-2.408129	-0.410854	99
Es	1.432243	1.258553	-1.368516	99
Es	1.403001	0.550288	-1.332982	99
Es	-1.652146	0.617364	-0.350364	99
Es	0.358767	0.006915	0.068886	99
Es	0.671687	-0.541952	-0.343488	99
Es	1.337777	1.440771	-0.762121	99
Es	-1.665252	1.296686	0.640031	99
Es	-0.641370	0.625872	0.377869	99
Es	0.548970	-1.248652	-0.160981	99
Es	1.629394	1.443053	-1.635217	99
Es	0.599148	2.404310	-0.228315	99
Es	0.089589	0.603366	0.420304	99
Es	0.429827	-1.963581	0.025871	99
Es	0.381250	1.172224	0.044647	99
Es	1.318907	-0.310992	-0.741385	99
Es	0.859196	-0.312169	-1.079892	99
Es	0.638853	-2.059319	0.722754	99
Es	0.708679	1.691006	-0.390397	99
Es	1.410171	-0.167645	-1.342170	99
