38
Properties=species:S:1:pos:R:3:Z:I:1 energy=-301.80167097470877 field_type=dipole dipole="0.000000 0.000000 0.000000" charge=0
C	-2.145310	0.094313	-0.431663	6
C	-0.838081	0.109143	-0.174683	6
N	0.004529	-0.933407	0.074247	7
C	1.270599	-0.476467	0.289087	6
N	2.322799	-1.161817	0.552117	7
C	1.271469	1.000883	0.171717	6
C	-0.010571	1.303203	-0.105923	6
H	-2.699340	-0.837417	-0.467143	1
H	-2.697940	1.009233	-0.613163	1
H	-0.297820	-1.891457	0.091457	1
H	2.078059	-2.153877	0.582597	1
H	2.128899	1.634583	0.291167	1
H	-0.387290	2.303083	-0.259813	1
Es	0.024989	-0.849918	0.162571	99
Es	-0.382345	-0.503090	-0.066035	99
Es	2.656940	-1.038518	0.608514	99
Es	-0.279061	1.972449	-0.212132	99
Es	1.270398	-0.476450	0.289046	99
Es	0.697849	1.116076	-0.273142	99
Es	-2.514922	0.710350	-0.553474	99
Es	-0.446544	0.723400	-0.146132	99
Es	1.271522	1.000788	0.171732	99
Es	2.322301	-1.161962	0.552030	99
Es	0.576083	1.165519	0.342783	99
Es	1.302054	0.266367	0.236199	99
Es	-0.010682	1.303203	-0.105928	99
Es	1.843371	1.419210	0.251802	99
Es	-1.568277	0.139694	0.010919	99
Es	-2.519904	-0.539076	-0.455505	99
Es	0.563132	-0.766117	0.126010	99
Es	0.004744	-0.933303	0.073436	99
Es	-0.164295	-1.505359	0.071784	99
Es	-0.837844	0.109048	-0.174629	99
Es	-1.442622	0.089418	-0.624263	99
Es	1.832537	-0.870894	0.720517	99
Es	2.156568	-1.765685	0.567163	99
Es	-2.145367	0.094299	-0.431680	99
Es	1.941813	-0.914309	0.168655	99
