38
Properties=species:S:1:pos:R:3:Z:I:1 energy=-301.7959745529229 field_type=dipole dipole="0.000000 0.000000 0.000000" charge=0
C	-2.054594	-0.014898	0.002544	6
C	-0.562414	-0.018018	0.000174	6
N	0.162746	-1.093768	-0.000376	7
C	1.446796	-0.645258	-0.001916	6
N	2.426436	-1.461528	-0.003386	7
C	1.471437	0.816092	-0.001606	6
C	0.203076	1.226662	-0.000316	6
H	-2.434694	-1.039618	-0.010846	1
H	-2.421744	0.513622	-0.881166	1
H	-2.418303	0.489172	0.901834	1
H	1.997696	-2.394999	-0.003116	1
H	2.374936	1.397251	-0.002236	1
H	-0.191374	2.225291	0.000414	1
Es	-0.073862	1.894527	0.000149	99
Es	-1.309457	-0.016626	0.001061	99
Es	0.729265	-0.889877	-0.001145	99
Es	-2.283054	0.345772	-0.588816	99
Es	0.808901	1.027238	-0.312741	99
Es	2.425957	-1.461590	-0.003385	99
Es	-0.097520	-0.655638	0.276921	99
Es	2.077580	1.204528	-0.002180	99
Es	0.202961	1.226658	-0.000317	99
Es	1.504572	0.098083	-0.002004	99
Es	1.446706	-0.645211	-0.001919	99
Es	-0.098929	-0.654918	-0.276694	99
Es	-2.054533	-0.014868	0.002545	99
Es	-0.562470	-0.017957	0.000177	99
Es	-2.280208	0.329395	0.604079	99
Es	2.794837	-1.396363	-0.003830	99
Es	1.972422	-1.075164	-0.281200	99
Es	-2.310924	-0.697894	-0.006244	99
Es	2.172959	-2.015961	-0.003161	99
Es	0.068946	-1.453010	-0.000770	99
Es	0.162885	-1.093246	-0.000372	99
Es	1.471512	0.816028	-0.001606	99
Es	-0.225425	0.642462	-0.000580	99
Es	1.973244	-1.075288	0.275718	99
Es	0.808297	1.025559	0.311664	99
