48
Properties=species:S:1:pos:R:3:Z:I:1 energy=-289.28007317184904 field_type=dipole dipole="0.000000 0.000000 0.000000" charge=0
C	-1.401532	-2.044346	0.959370	6
C	-1.261022	-1.588756	-0.484040	6
C	-0.035932	-0.748036	-0.681250	6
C	-0.067682	0.437104	-1.616330	6
N	-0.027582	0.620914	-0.167110	7
C	1.284178	1.017653	0.351410	6
C	1.221498	2.464254	0.818570	6
H	-2.267772	-2.704376	1.068890	1
H	-1.540092	-1.188516	1.629460	1
H	-0.509912	-2.587616	1.291500	1
H	-2.165832	-1.045136	-0.779120	1
H	-1.191602	-2.467247	-1.135260	1
H	0.878758	-1.327127	-0.615880	1
H	-1.004052	0.702193	-2.093210	1
H	0.816528	0.662934	-2.199360	1
H	2.093658	0.910594	-0.382390	1
H	1.542298	0.384323	1.209420	1
H	0.967368	3.138134	-0.005580	1
H	2.192528	2.772103	1.220520	1
H	0.476198	2.590954	1.610390	1
Es	-1.325440	-1.817215	0.240535	99
Es	-1.876041	-1.212382	-0.685906	99
Es	-0.019964	0.686651	-0.821579	99
Es	0.540032	0.598117	-2.007305	99
Es	-1.205750	-2.189915	-0.930715	99
Es	-1.495362	-1.463440	1.412797	99
Es	1.284052	1.017647	0.351374	99
Es	-0.058598	-0.288487	-1.333213	99
Es	-0.787774	-2.417095	1.181444	99
Es	1.221518	2.464237	0.818561	99
Es	-1.260999	-1.588762	-0.484011	99
Es	1.889565	2.670957	1.091231	99
Es	0.555639	0.774753	0.026035	99
Es	1.838646	0.938026	-0.164834	99
Es	1.459280	0.579540	0.939191	99
Es	-1.401525	-2.044351	0.959342	99
Es	0.597263	-1.135601	-0.630378	99
Es	-0.651113	-1.155808	-0.578529	99
Es	-0.027102	0.620647	-0.167454	99
Es	-0.067663	0.437090	-1.616092	99
Es	-0.009217	-0.028079	-0.257824	99
Es	-0.035943	-0.747796	-0.681239	99
Es	1.254727	1.747056	0.581912	99
Es	0.716198	2.547111	1.357056	99
Es	-0.704764	0.616425	-1.944059	99
Es	1.049778	2.920081	0.252689	99
Es	-1.992928	-2.497095	1.031996	99
Es	-0.319135	0.740808	-0.001762	99
