48
Properties=species:S:1:pos:R:3:Z:I:1 energy=-289.2870043257068 field_type=dipole dipole="0.000000 0.000000 0.000000" charge=0
C	-2.044825	-0.637724	0.249375	6
C	-0.845715	-0.919143	-0.642235	6
C	0.342235	-0.007393	-0.367865	6
C	1.229725	-0.419693	0.789945	6
N	0.641025	0.013797	2.046765	7
C	1.040715	0.576806	-1.587255	6
C	0.217445	1.469266	-0.709605	6
H	-2.878285	-1.292683	-0.024985	1
H	-2.382765	0.398687	0.146905	1
H	-1.817725	-0.816414	1.304205	1
H	-1.167355	-0.813553	-1.685175	1
H	-0.540615	-1.965313	-0.523215	1
H	2.227595	0.023646	0.696275	1
H	1.362305	-1.507064	0.797655	1
H	0.550785	1.027576	2.039255	1
H	1.278225	-0.210793	2.808075	1
H	0.656885	0.347636	-2.574475	1
H	2.117555	0.705266	-1.567285	1
H	0.739165	2.194267	-0.095445	1
H	-0.726385	1.832826	-1.100915	1
Es	1.229647	-0.419637	0.790051	99
Es	0.785699	-0.202103	0.208787	99
Es	0.641542	0.014035	2.046692	99
Es	0.166917	0.767932	-0.376469	99
Es	0.217515	1.469121	-0.709636	99
Es	0.327041	-0.136671	2.103798	99
Es	-0.630457	-1.633992	-0.557225	99
Es	1.046191	-0.112671	2.498508	99
Es	1.317108	-1.165038	0.794438	99
Es	-0.251333	-0.448756	-0.500932	99
Es	-0.424955	1.710166	-0.974191	99
Es	0.575878	1.957547	-0.285185	99
Es	1.923500	-0.108737	0.714408	99
Es	-2.615837	-1.087551	0.054980	99
Es	0.772440	0.114099	-1.029651	99
Es	-2.273763	0.072557	0.173292	99
Es	0.608861	0.629249	2.035092	99
Es	-1.063903	-0.837553	-1.359999	99
Es	0.913973	-0.162516	1.508183	99
Es	-2.044815	-0.637730	0.249335	99
Es	1.774916	0.663368	-1.566697	99
Es	0.342281	-0.007263	-0.367964	99
Es	-1.893389	-0.761315	0.957834	99
Es	0.773759	0.417753	-2.256684	99
Es	-1.440432	-0.774595	-0.189609	99
Es	-0.845710	-0.919111	-0.642210	99
Es	0.668405	1.168161	-1.255594	99
Es	1.040620	0.576849	-1.587125	99
