35
Properties=species:S:1:pos:R:3:Z:I:1 energy=-300.5436146772694 field_type=dipole dipole="0.000000 0.000000 0.000000" charge=0
C	-2.578923	-0.353234	0.388841	6
C	-1.381053	-0.334184	0.463541	6
C	0.049347	-0.313204	0.554701	6
N	0.823607	-1.046074	-0.443899	7
C	0.838857	0.420936	-0.504829	6
C	2.002387	1.155486	-0.091799	6
N	2.925797	1.773436	0.243291	7
H	-3.643213	-0.373734	0.329321	1
H	0.460447	-0.350804	1.559851	1
H	0.204427	-1.430884	-1.158519	1
H	0.298317	0.852256	-1.340499	1
Es	-1.380780	-0.334175	0.463555	99
Es	-1.990514	-0.033623	0.597625	99
Es	-2.579148	-0.353238	0.388817	99
Es	-3.269031	-0.366239	0.348666	99
Es	-1.945903	-0.348579	0.061271	99
Es	0.446375	-1.247945	-0.870075	99
Es	3.215966	1.969314	0.350550	99
Es	0.386592	0.261919	0.102583	99
Es	0.823109	-1.045682	-0.444020	99
Es	0.312600	-0.333057	1.219131	99
Es	2.646714	1.423365	-0.172399	99
Es	0.408363	-0.837752	0.039142	99
Es	2.925477	1.773225	0.243179	99
Es	2.529567	1.303114	0.335533	99
Es	2.318147	1.739711	0.104966	99
Es	0.488897	0.717025	-1.053010	99
Es	0.921885	-0.380753	-0.585887	99
Es	0.049369	-0.313241	0.554446	99
Es	1.111387	-1.214413	-0.336317	99
Es	-0.686516	-0.322297	0.501002	99
Es	-1.984395	-0.651995	0.604731	99
Es	1.460257	0.791005	-0.292780	99
Es	0.838963	0.420748	-0.504696	99
Es	2.002098	1.155305	-0.091899	99
