47
Properties=species:S:1:pos:R:3:Z:I:1 energy=-305.27077506592724 field_type=dipole dipole="0.000000 0.000000 0.000000" charge=0
C	-0.664197	-1.744744	-1.724303	6
C	-0.672357	-1.228744	-0.293133	6
C	0.228364	-0.006874	-0.144793	6
N	-0.352947	1.229566	-0.744263	7
C	0.168983	2.003386	0.412237	6
C	0.177253	0.700176	1.236277	6
N	1.452034	0.548656	1.944757	7
H	-1.285067	-2.641924	-1.807533	1
H	0.351293	-2.000654	-2.042743	1
H	-1.055207	-0.995074	-2.419003	1
H	-0.312997	-2.025064	0.369747	1
H	-1.702327	-1.003794	0.010317	1
H	1.244443	-0.204594	-0.516123	1
H	-1.372807	1.225086	-0.786043	1
H	1.145043	2.460866	0.207767	1
H	-0.507117	2.783505	0.775557	1
H	-0.721137	0.526946	1.837047	1
H	2.272893	0.764906	1.377507	1
H	1.605853	-0.391624	2.306717	1
Es	0.209870	0.262363	0.583815	99
Es	0.032013	-1.918614	-1.936208	99
Es	0.228264	-0.006777	-0.144866	99
Es	-0.229192	1.326781	-1.070654	99
Es	-0.969971	1.210352	-0.726544	99
Es	0.177404	0.700173	1.236338	99
Es	-0.224090	-0.624652	-0.224491	99
Es	0.168919	2.003302	0.412135	99
Es	-0.932290	-1.233609	-2.192626	99
Es	-0.130954	0.663646	-0.530496	99
Es	1.927645	0.663374	1.570695	99
Es	-0.353160	1.229404	-0.743708	99
Es	0.844738	2.299160	0.277371	99
Es	-1.089099	-2.358848	-1.779911	99
Es	-1.378460	-1.062161	-0.083806	99
Es	1.463338	0.763085	2.219038	99
Es	-0.296959	2.542754	0.658856	99
Es	1.534949	-0.035299	2.136543	99
Es	-0.669218	-1.486051	-1.011547	99
Es	-0.156469	1.615691	-0.259777	99
Es	-0.672345	-1.228753	-0.293161	99
Es	1.452018	0.548269	1.944276	99
Es	0.928335	-0.138675	-0.392046	99
Es	-0.433051	0.575199	1.643305	99
Es	0.910585	0.585195	1.636921	99
Es	-0.420949	-1.772114	0.164999	99
Es	0.188708	1.404081	0.907290	99
Es	-0.664197	-1.744741	-1.724275	99
