43
Properties=species:S:1:pos:R:3:Z:I:1 energy=-270.935757702631 field_type=dipole dipole="0.000000 0.000000 0.000000" charge=0
C	-2.287783	-0.123859	-0.045241	6
C	-0.833293	0.174581	0.062369	6
C	-0.243503	1.351241	-0.223091	6
C	1.246737	1.241861	-0.023401	6
C	1.478387	-0.190009	0.415519	6
C	1.169557	-1.361109	-0.482551	6
C	0.123157	-0.869279	0.479209	6
H	-2.446523	-1.129199	-0.452831	1
H	-2.793843	0.585011	-0.705261	1
H	-2.758753	-0.074909	0.942759	1
H	-0.746453	2.246941	-0.555501	1
H	1.783907	1.457241	-0.951331	1
H	1.574757	1.939401	0.753159	1
H	2.172267	-0.308719	1.234039	1
H	1.649897	-2.307319	-0.263411	1
H	1.028637	-1.179569	-1.542801	1
H	-0.117153	-1.452309	1.358369	1
Es	1.169500	-1.360997	-0.482416	99
Es	-2.388599	-0.805787	-0.320329	99
Es	-0.833361	0.174459	0.062396	99
Es	-0.048309	-1.275314	1.068539	99
Es	-2.628888	0.362107	-0.490145	99
Es	1.607407	1.392283	-0.655477	99
Es	1.494286	-1.999779	-0.325972	99
Es	0.492877	-1.240354	-0.073258	99
Es	-0.579166	1.965050	-0.453900	99
Es	1.071358	-1.234459	-1.200066	99
Es	-0.243426	1.351326	-0.223128	99
Es	1.957126	-0.280975	0.968383	99
Es	0.504516	1.334021	-0.132113	99
Es	1.246707	1.241835	-0.023398	99
Es	-0.508469	0.686235	-0.397658	99
Es	1.384925	0.517834	0.174340	99
Es	-2.287754	-0.123857	-0.045232	99
Es	-0.378278	-0.382173	0.258593	99
Es	-0.585991	0.878519	0.227145	99
Es	-2.596264	-0.091373	0.624526	99
Es	0.123297	-0.869268	0.479133	99
Es	1.472024	1.713699	0.506785	99
Es	-1.564347	0.023077	0.010392	99
Es	0.769384	-0.460913	0.589279	99
Es	1.508144	-0.747257	-0.124122	99
Es	1.478270	-0.190119	0.415435	99
