48
Properties=species:S:1:pos:R:3:Z:I:1 energy=-289.3060198045893 field_type=dipole dipole="0.000000 0.000000 0.000000" charge=0
C	-1.368878	-0.723503	-1.592824	6
C	-1.430648	-0.089202	-0.230844	6
C	-2.218258	-0.583532	0.736896	6
C	-0.591828	1.151638	-0.014004	6
C	0.921552	0.930568	-0.124784	6
C	1.455742	-0.061522	0.907746	6
N	2.906672	-0.181632	0.786246	7
H	-1.606438	0.012868	-2.366944	1
H	-2.080568	-1.549773	-1.692204	1
H	-0.369138	-1.124952	-1.786544	1
H	-2.831028	-1.466372	0.578066	1
H	-2.277058	-0.118552	1.717486	1
H	-0.810518	1.591918	0.967736	1
H	-0.892998	1.905498	-0.752704	1
H	1.417862	1.900087	0.012316	1
H	1.176782	0.594068	-1.137214	1
H	1.007252	-1.050592	0.767836	1
H	1.210281	0.278568	1.919606	1
H	3.141342	-0.531802	-0.141874	1
H	3.239882	-0.883772	1.446006	1
Es	-1.004055	0.519957	-0.123972	99
Es	-2.218300	-0.583582	0.736976	99
Es	-0.591819	1.151591	-0.014022	99
Es	-0.740170	1.445078	0.660798	99
Es	-1.852413	-1.284125	-1.655063	99
Es	0.152490	1.017911	-0.072665	99
Es	-0.799546	1.655896	-0.523782	99
Es	1.182546	0.431898	0.389515	99
Es	-1.593722	-0.537295	0.376603	99
Es	3.070791	0.128584	0.841835	99
Es	-0.689535	-0.988111	-1.716142	99
Es	2.277872	-0.151875	0.832468	99
Es	-2.637767	-1.185989	0.632186	99
Es	3.093822	-0.621988	1.179042	99
Es	-1.368869	-0.723483	-1.592794	99
Es	1.285761	0.173211	1.601955	99
Es	1.136639	-0.741496	0.806664	99
Es	1.255142	1.590741	-0.028121	99
Es	-2.087603	-0.156801	0.170194	99
Es	-1.395899	-0.407865	-0.914135	99
Es	-1.526174	-0.217986	-2.109776	99
Es	3.031196	-0.411814	0.224621	99
Es	1.096210	0.689870	-0.819084	99
Es	2.906415	-0.182116	0.786153	99
Es	1.455884	-0.061507	0.907707	99
Es	0.921504	0.930544	-0.124773	99
Es	-1.430561	-0.089149	-0.230962	99
Es	-2.259948	-0.269546	1.407314	99
