48
Properties=species:S:1:pos:R:3:Z:I:1 energy=-289.30262233426174 field_type=dipole dipole="0.000000 0.000000 0.000000" charge=0
C	-2.125923	-0.710735	0.330585	6
C	-0.621793	-0.634055	0.218655	6
C	0.018727	-2.001585	0.209855	6
C	0.072697	0.528095	0.132295	6
C	-0.583853	1.889115	0.046165	6
C	1.583107	0.610075	0.139735	6
N	2.088647	0.853885	-1.204185	7
H	-2.586933	0.222075	0.664975	1
H	-2.410903	-1.468565	1.070215	1
H	-2.562853	-0.992135	-0.633355	1
H	-0.541303	-2.675145	-0.449165	1
H	0.014357	-2.426825	1.218765	1
H	1.045937	-2.000675	-0.162465	1
H	-1.635253	1.846545	-0.246795	1
H	-0.089153	2.510935	-0.708185	1
H	-0.512033	2.401705	1.011185	1
H	2.048187	-0.289795	0.552325	1
H	1.899487	1.428385	0.797655	1
H	1.792777	0.083965	-1.802875	1
H	3.106077	0.824735	-1.185385	1
Es	-0.583840	1.889076	0.046180	99
Es	0.011472	-2.283704	0.893703	99
Es	0.072763	0.528210	0.132294	99
Es	1.583119	0.610103	0.139600	99
Es	1.792311	1.173636	0.587895	99
Es	1.972869	1.161053	-1.335549	99
Es	-0.286152	-1.317685	0.215856	99
Es	-1.301095	1.853020	-0.147078	99
Es	1.877520	0.728410	-0.619749	99
Es	-0.267839	1.205774	0.090489	99
Es	0.018712	-2.001565	0.209850	99
Es	2.705990	0.819134	-1.181222	99
Es	0.828362	0.555212	0.130763	99
Es	-2.307928	-1.230457	0.829837	99
Es	0.719966	-1.994672	-0.041315	99
Es	-0.244817	2.301183	-0.456206	99
Es	-0.257199	-0.035479	0.510726	99
Es	1.897405	-0.017673	0.427271	99
Es	-2.434819	-0.074508	0.552921	99
Es	-0.531871	2.229010	0.704381	99
Es	-2.413645	-0.902506	-0.323605	99
Es	-1.379709	-0.659880	0.271868	99
Es	-2.125890	-0.710742	0.330581	99
Es	-0.277657	-0.069167	-0.164865	99
Es	2.088835	0.853376	-1.203969	99
Es	1.919245	0.372191	-1.550750	99
Es	-0.369934	-2.451131	-0.235742	99
Es	-0.621868	-0.634186	0.218655	99
