45
Properties=species:S:1:pos:R:3:Z:I:1 energy=-288.16561389917837 field_type=dipole dipole="0.000000 0.000000 0.000000" charge=0
C	-1.699828	0.133379	-0.002736	6
C	-0.171148	-0.070521	0.000654	6
C	0.210382	-0.861411	1.265794	6
C	0.212482	-0.887360	-1.247226	6
C	0.505372	1.323589	-0.013136	6
C	1.948742	1.281219	-0.012216	6
N	3.099262	1.247459	-0.011476	7
H	-2.023238	0.682379	-0.893896	1
H	-2.024718	0.700899	0.876184	1
H	-2.228978	-0.826221	0.006844	1
H	-0.035398	-0.297191	2.172174	1
H	1.280652	-1.091411	1.292784	1
H	-0.328598	-1.814880	1.311684	1
H	-0.031478	-0.341861	-2.165516	1
H	-0.326668	-1.841330	-1.274396	1
H	1.282752	-1.118160	-1.267516	1
H	0.164862	1.899559	0.857114	1
H	0.165552	1.881859	-0.895116	1
Es	2.583978	1.383320	-0.295277	99
Es	0.027049	-0.460250	0.637023	99
Es	0.210367	-0.861391	1.265772	99
Es	-0.171124	-0.070464	0.000654	99
Es	1.948363	1.281212	-0.012215	99
Es	3.098831	1.247471	-0.011478	99
Es	0.039311	-0.469091	1.880474	99
Es	-0.938125	0.042735	-0.001119	99
Es	0.301189	1.692313	-0.604820	99
Es	0.937786	-1.038237	-1.255284	99
Es	0.042395	-0.507732	-1.870198	99
Es	-0.159635	-1.532933	-1.257258	99
Es	-1.699806	0.133384	-0.002736	99
Es	0.027952	-0.473283	-0.627300	99
Es	0.212898	0.647492	-0.006539	99
Es	0.505533	1.323578	-0.013136	99
Es	-2.051780	-0.522169	0.003757	99
Es	1.269929	1.294658	-0.012620	99
Es	-1.914996	0.523549	0.599373	99
Es	0.935572	-1.011982	1.278244	99
Es	2.566222	0.956325	0.024949	99
Es	0.300724	1.704062	0.570817	99
Es	-0.161676	-1.506783	1.288646	99
Es	2.584516	1.447280	0.234999	99
Es	-1.914000	0.510988	-0.613156	99
Es	0.212465	-0.887342	-1.247205	99
Es	3.468582	1.235486	-0.011231	99
