45
Properties=species:S:1:pos:R:3:Z:I:1 energy=-288.1639189305001 field_type=dipole dipole="0.000000 0.000000 0.000000" charge=0
C	-1.647162	-0.474318	1.163361	6
C	-0.261722	-0.333168	0.526181	6
C	0.132798	-1.649078	-0.145579	6
C	-0.262072	0.855862	-0.457069	6
C	1.078628	1.148292	-1.136209	6
C	2.116128	1.548242	-0.176409	6
N	2.937288	1.863692	0.579291	7
H	-1.930562	0.445122	1.686501	1
H	-1.658552	-1.289768	1.894381	1
H	-2.412472	-0.685418	0.408601	1
H	0.453188	-0.133008	1.333611	1
H	-0.506462	-1.861618	-1.009039	1
H	0.042188	-2.485738	0.555711	1
H	1.172178	-1.626068	-0.486579	1
H	-0.591672	1.756822	0.077881	1
H	-1.008822	0.672252	-1.240729	1
H	0.932098	1.963312	-1.855299	1
H	1.415008	0.284582	-1.718609	1
Es	-0.479524	1.471530	-0.093596	99
Es	-0.062651	-0.992980	0.176996	99
Es	-0.261984	0.855865	-0.457103	99
Es	1.318597	0.575087	-1.506757	99
Es	2.734209	1.837391	0.006315	99
Es	-1.838685	0.156290	1.517154	99
Es	-0.246817	0.265252	0.018806	99
Es	2.358426	1.899857	0.384738	99
Es	2.115880	1.548141	-0.176647	99
Es	0.451805	1.002708	-0.785239	99
Es	2.936971	1.863571	0.579002	99
Es	1.631100	1.357217	-0.622516	99
Es	0.995875	1.699527	-1.600159	99
Es	0.068627	-2.214351	0.334112	99
Es	-0.962607	-0.401144	0.839260	99
Es	0.228262	-0.193094	1.072117	99
Es	2.601943	1.425798	0.323230	99
Es	3.196837	1.963908	0.819688	99
Es	-1.647147	-0.474314	1.163350	99
Es	-0.261756	-0.333165	0.526126	99
Es	-2.166149	-0.618146	0.641522	99
Es	-0.763186	0.726426	-0.998653	99
Es	-0.307363	-1.787620	-0.737050	99
Es	-1.650845	-1.031961	1.659256	99
Es	0.842124	-1.626756	-0.382612	99
Es	1.078738	1.148340	-1.136081	99
Es	0.132800	-1.649060	-0.145582	99
