43
Properties=species:S:1:pos:R:3:Z:I:1 energy=-270.96301385513567 field_type=dipole dipole="0.000000 0.000000 0.000000" charge=0
C	-2.149864	-0.358015	0.082000	6
C	-0.662234	-0.378455	0.007100	6
C	0.107296	-1.469955	-0.112930	6
C	1.563816	-1.136525	-0.141720	6
C	1.586506	0.391465	-0.223110	6
C	0.165486	0.809915	0.053560	6
C	-0.230674	2.060925	0.312630	6
H	-2.568604	-1.366465	-0.004520	1
H	-2.569314	0.244315	-0.730700	1
H	-2.485774	0.059985	1.036400	1
H	-0.265554	-2.483865	-0.159940	1
H	2.053816	-1.493875	0.770550	1
H	2.062716	-1.587425	-1.004980	1
H	1.881126	0.708895	-1.230740	1
H	2.294316	0.815915	0.496060	1
H	0.483736	2.877475	0.331010	1
H	-1.266794	2.305695	0.519330	1
Es	1.900659	-1.447419	-0.729180	99
Es	-0.298451	-0.883697	-0.375561	99
Es	0.107382	-1.470054	-0.112939	99
Es	1.593606	-0.374555	-0.181659	99
Es	-0.140041	-2.165054	-0.145349	99
Es	1.889450	-1.380025	0.480315	99
Es	-0.003391	1.396492	0.507098	99
Es	-2.424222	0.051074	-0.466208	99
Es	1.563781	-1.136510	-0.141722	99
Es	0.252594	2.619695	0.326819	99
Es	-0.266364	-0.924998	0.264298	99
Es	-2.427981	-1.045399	0.023516	99
Es	0.165540	0.809796	0.053537	99
Es	-2.367181	-0.072920	0.725924	99
Es	-0.230703	2.061017	0.312646	99
Es	-2.149819	-0.358015	0.082000	99
Es	2.063736	0.685179	0.265818	99
Es	-1.406041	-0.363809	0.046700	99
Es	1.777183	0.610018	-0.905053	99
Es	0.840081	-1.338926	-0.134491	99
Es	-0.934361	2.230468	0.451377	99
Es	-0.662323	-0.378352	0.007110	99
Es	-0.099538	1.500429	-0.130195	99
Es	-0.283409	0.237755	0.031540	99
Es	1.586469	0.391440	-0.223104	99
Es	0.882977	0.621066	-0.078383	99
