42
Properties=species:S:1:pos:R:3:Z:I:1 energy=-286.9720289182457 field_type=dipole dipole="0.000000 0.000000 0.000000" charge=0
C	-0.597334	-1.277775	-1.345193	6
C	-0.761694	-0.815725	0.096227	6
C	-0.213944	0.576435	0.341497	6
C	-1.031554	1.582115	0.703147	6
C	1.276416	0.797565	0.165107	6
C	2.071236	-0.030545	1.086327	6
N	2.711386	-0.686895	1.799687	7
H	-1.078244	-2.251605	-1.483833	1
H	0.457936	-1.389995	-1.613343	1
H	-1.056834	-0.570615	-2.043583	1
H	-0.273584	-1.530345	0.768867	1
H	-1.829794	-0.851445	0.346147	1
H	-2.099954	1.429325	0.831597	1
H	-0.662274	2.587345	0.886147	1
H	1.530056	1.851735	0.332387	1
H	1.558176	0.580425	-0.871183	1
Es	1.468910	0.634729	-0.506234	99
Es	-0.780785	2.265863	0.826772	99
Es	-1.488368	-0.828613	0.265112	99
Es	1.276474	0.797445	0.165221	99
Es	2.711136	-0.686641	1.799409	99
Es	-0.909584	-0.791924	-1.817020	99
Es	2.912533	-0.894372	2.025540	99
Es	-0.597328	-1.277762	-1.345157	99
Es	2.391430	-0.176202	1.698810	99
Es	-0.761657	-0.815672	0.096192	99
Es	1.452260	1.485830	0.292541	99
Es	1.690130	0.353039	0.653792	99
Es	0.125819	-1.347648	-1.524014	99
Es	-0.213791	0.576350	0.341444	99
Es	0.560076	0.673006	0.265619	99
Es	-0.924378	-1.938113	-1.434468	99
Es	-0.471034	-0.111371	0.214850	99
Es	-1.754514	1.480770	0.788707	99
Es	2.657266	-0.374812	1.278419	99
Es	-0.669294	1.168074	0.203555	99
Es	-1.031606	1.582191	0.703150	99
Es	-0.421260	-1.288871	0.548388	99
Es	2.211323	-0.616089	1.450579	99
Es	-0.578252	1.019897	0.839794	99
Es	-0.667899	-1.030376	-0.623715	99
Es	2.071026	-0.030336	1.086097	99
