10
Properties=species:S:1:pos:R:3:Z:I:1 energy=-40.21343211845962 field_type=dipole dipole="0.000000 0.000000 0.000000" charge=0
C	0.998260	-0.002460	-0.004360	6
H	2.090210	-0.002430	0.004140	1
H	0.633790	1.026860	0.004140	1
H	0.627040	-0.527730	0.878110	1
H	0.641360	-0.507470	-0.905400	1
Es	1.137925	-0.192079	-0.274596	99
Es	1.132110	-0.138853	0.294718	99
Es	1.109949	0.325993	-0.037496	99
Es	0.666075	-0.030703	-0.010173	99
Es	0.944906	0.022856	0.004927	99
