17
Properties=species:S:1:pos:R:3:Z:I:1 energy=-79.25981200173598 field_type=dipole dipole="0.000000 0.000000 0.000000" charge=0
C	1.004040	-0.002950	-0.006400	6
C	2.515960	-0.007020	0.000590	6
H	0.622350	1.022400	-0.001640	1
H	0.614110	-0.519740	0.875610	1
H	0.622370	-0.508420	-0.898570	1
H	2.897650	0.502100	0.890620	1
H	2.905890	0.506090	-0.883570	1
H	2.897630	-1.032430	0.000060	1
Es	0.767016	0.074253	0.262388	99
Es	2.547709	-0.043409	-0.046141	99
Es	0.907260	0.199784	-0.039773	99
Es	0.760056	-0.362788	-0.149763	99
Es	2.595184	-0.098840	0.181199	99
Es	1.920329	-0.020579	-0.065195	99
Es	1.107806	0.092746	-0.026700	99
Es	2.873820	-0.043781	0.131570	99
Es	2.360819	0.157699	-0.273764	99
