14
Properties=species:S:1:pos:R:3:Z:I:1 energy=-78.06427871491893 field_type=dipole dipole="0.000000 0.000000 0.000000" charge=0
C	0.989160	0.000100	0.000000	6
C	2.324920	-0.000170	-0.000000	6
H	0.429410	0.930140	0.000000	1
H	0.429070	-0.929850	0.000000	1
H	2.885000	0.929800	-0.000000	1
H	2.884670	-0.930200	0.000000	1
Es	1.658264	-0.000107	0.056199	99
Es	0.988613	0.005794	-0.000361	99
Es	2.663978	0.561432	0.004689	99
Es	2.753019	-0.546920	0.006043	99
Es	0.627473	0.596591	0.006832	99
Es	1.677135	0.010340	-0.080135	99
Es	2.304621	-0.013066	0.002518	99
Es	0.583212	-0.614328	0.004214	99
