22
Properties=species:S:1:pos:R:3:Z:I:1 energy=-154.14365395088453 field_type=dipole dipole="0.000000 0.000000 0.000000" charge=0
C	1.005480	-0.000680	0.004310	6
C	2.520130	0.001580	0.001240	6
O	3.004400	1.336610	0.011740	8
H	0.617530	-1.022410	0.011110	1
H	0.616690	0.518480	-0.877370	1
H	0.622110	0.530030	0.881350	1
H	2.912170	-0.507140	-0.885470	1
H	2.905990	-0.508360	0.889530	1
H	2.665730	1.777070	-0.785890	1
Es	3.064773	1.360645	0.060061	99
Es	2.272907	0.151166	0.073760	99
Es	3.064121	1.528495	-0.165768	99
Es	2.866332	1.104311	-0.046151	99
Es	0.836498	0.094844	-0.081150	99
Es	0.636887	0.100812	-0.046118	99
Es	0.977379	0.023779	-0.005699	99
Es	2.412167	-0.111674	-0.206423	99
Es	2.933552	1.265271	-0.023545	99
Es	2.685841	1.094351	-0.041618	99
Es	2.421133	-0.229681	0.467958	99
Es	0.972211	-0.304056	0.062368	99
Es	2.739388	-0.249232	-0.245311	99
