21
Properties=species:S:1:pos:R:3:Z:I:1 energy=-117.10166335333214 field_type=dipole dipole="0.000000 0.000000 0.000000" charge=0
C	-0.026670	0.866370	-0.056930	6
C	-0.735540	-0.458480	-0.057100	6
C	0.762830	-0.408160	0.042620	6
H	0.016420	1.420700	-0.987120	1
H	-0.106360	1.485880	0.829050	1
H	-1.172120	-0.801350	-0.987490	1
H	-1.295280	-0.736100	0.828540	1
H	1.217890	-0.651750	0.995630	1
H	1.340680	-0.717160	-0.820750	1
Es	-0.234352	-0.431065	-0.092850	99
Es	0.780946	-0.300313	0.208326	99
Es	1.161637	-0.540877	0.010050	99
Es	-0.633032	-0.228619	-0.125524	99
Es	-0.205019	0.615014	-0.097863	99
Es	0.661897	-0.267354	-0.052773	99
Es	-0.294013	-0.393976	0.066341	99
Es	-0.521855	-0.442663	-0.073183	99
Es	-0.985987	-0.577153	-0.010856	99
Es	-0.011933	1.045884	-0.014436	99
Es	0.361185	0.328491	-0.018046	99
Es	-0.076977	1.191947	-0.084454	99
