24
Properties=species:S:1:pos:R:3:Z:I:1 energy=-118.30787063126735 field_type=dipole dipole="0.000000 0.000000 0.000000" charge=0
C	0.989980	-0.013360	0.004120	6
C	2.508920	0.016510	0.008260	6
C	3.041640	1.439360	0.006470	6
H	0.630900	-1.047410	0.000510	1
H	0.589740	0.488380	-0.882730	1
H	0.585400	0.483540	0.891770	1
H	2.886770	-0.515450	-0.871820	1
H	2.881590	-0.511460	0.892940	1
H	2.711400	1.980780	-0.885940	1
H	4.136060	1.434740	0.015210	1
H	2.697030	1.988820	0.888500	1
Es	2.753582	0.628320	-0.026314	99
Es	2.945389	1.391954	-0.002181	99
Es	2.616405	-0.098979	-0.119656	99
Es	0.778671	-0.685904	0.012576	99
Es	0.874505	0.213535	0.026363	99
Es	0.822696	0.237454	-0.100027	99
Es	3.645201	1.529405	-0.013463	99
Es	2.887412	1.658362	-0.095969	99
Es	2.746531	0.141039	0.064326	99
Es	1.739258	0.063608	-0.016053	99
Es	1.238828	0.123320	0.082168	99
Es	2.787779	1.414047	0.175949	99
Es	2.339225	-0.129791	0.093023	99
