20
Properties=species:S:1:pos:R:3:Z:I:1 energy=-133.09092740379214 field_type=dipole dipole="0.000000 0.000000 0.000000" charge=0
C	-0.055920	0.882150	-0.065720	6
C	-0.764580	-0.443000	-0.065120	6
N	0.691920	-0.370160	-0.080600	7
H	-0.041440	1.453880	-0.985020	1
H	-0.025090	1.458090	0.849950	1
H	-1.232750	-0.773240	-0.984130	1
H	-1.226490	-0.787840	0.851090	1
H	1.078830	-0.576680	0.842460	1
Es	0.378551	-0.272349	-0.039743	99
Es	-0.061846	0.977577	-0.060875	99
Es	-0.480836	-0.376282	-0.114867	99
Es	0.888435	-0.620511	0.104333	99
Es	0.314278	-0.106245	-0.004504	99
Es	-0.862798	-0.413050	-0.027400	99
Es	0.032999	0.705708	-0.061333	99
Es	-0.503246	-0.087761	-0.027171	99
Es	-0.096228	1.295046	-0.111707	99
Es	-1.064497	-0.642578	-0.120495	99
Es	0.191802	-0.238969	-0.047939	99
Es	0.601947	0.133864	-0.016298	99
