17
Properties=species:S:1:pos:R:3:Z:I:1 energy=-131.9745070837017 field_type=dipole dipole="0.000000 0.000000 0.000000" charge=0
C	1.000000	0.000000	0.000000	6
C	2.444000	0.000000	0.000000	6
N	3.595010	0.000000	0.000000	7
H	0.606430	1.021520	0.011690	1
H	0.606420	-0.520890	0.878830	1
H	0.606430	-0.500630	-0.890500	1
Es	3.080279	0.087198	-0.131211	99
Es	1.044771	-0.077576	-0.063126	99
Es	0.779530	0.152868	0.241024	99
Es	3.393531	0.013699	0.046881	99
Es	1.611498	-0.050271	-0.025544	99
Es	3.094126	-0.171772	-0.081040	99
Es	0.830544	-0.238512	0.083318	99
Es	0.789011	0.186194	-0.232250	99
Es	3.226132	0.110948	0.155025	99
Es	2.447351	-0.002314	-0.001123	99
Es	3.969157	-0.010463	0.008055	99
