25
Properties=species:S:1:pos:R:3:Z:I:1 energy=-154.96643415332287 field_type=dipole dipole="0.000000 0.000000 0.000000" charge=0
C	1.000000	0.000000	0.000000	6
C	2.444000	0.000000	0.000000	6
C	3.634160	0.000000	0.000000	6
C	5.078160	0.000000	0.000000	6
H	0.606090	1.020330	0.011670	1
H	0.606090	-0.520270	0.877790	1
H	0.606090	-0.500060	-0.889470	1
H	5.472070	1.020330	-0.011670	1
H	5.472070	-0.520270	-0.877790	1
H	5.472070	-0.500060	0.889470	1
Es	3.024669	0.043585	-0.327336	99
Es	1.754410	0.091209	0.035392	99
Es	0.851480	-0.222185	-0.064609	99
Es	5.248744	0.038226	0.142912	99
Es	5.458279	0.145676	0.092915	99
Es	5.106650	0.011720	-0.022227	99
Es	5.235509	-0.218422	-0.216128	99
Es	3.193973	0.102241	0.040694	99
Es	3.495637	-0.092774	-0.034861	99
Es	3.052772	-0.164795	0.280493	99
Es	0.671557	0.368623	0.015923	99
Es	2.403407	0.046314	-0.017181	99
Es	0.846625	-0.193051	0.228059	99
Es	0.997234	-0.032454	-0.184095	99
Es	4.245253	0.076087	0.030049	99
