27
Properties=species:S:1:pos:R:3:Z:I:1 energy=-172.14322175492407 field_type=dipole dipole="0.000000 0.000000 0.000000" charge=0
C	1.001560	-0.013550	-0.055950	6
C	2.490050	-0.048360	0.000630	6
C	3.274650	-0.746820	-1.078600	6
N	3.258260	0.711130	-0.978910	7
H	0.616770	0.747630	0.628510	1
H	0.592830	-0.981450	0.247970	1
H	0.629560	0.213460	-1.059940	1
H	2.870660	-0.076890	1.014790	1
H	2.741580	-1.169430	-1.921210	1
H	4.199070	-1.242200	-0.811060	1
H	4.127990	1.059300	-0.571340	1
Es	1.126077	-0.019258	0.053720	99
Es	1.131339	-0.013889	-0.049962	99
Es	3.361187	0.686695	-0.747223	99
Es	2.436791	-0.142884	-0.348204	99
Es	3.251400	0.463637	-0.661601	99
Es	2.926499	-0.306937	-0.745571	99
Es	3.651290	-0.888552	-1.201264	99
Es	3.214188	-0.691088	-1.087831	99
Es	2.823430	0.286633	-0.374373	99
Es	2.871535	-0.502282	-0.628016	99
Es	3.353336	0.324538	-1.068335	99
Es	0.797927	-0.363526	0.114286	99
Es	0.877235	0.224873	0.197024	99
Es	1.627805	0.059517	-0.237387	99
Es	2.953387	0.392934	-0.544573	99
Es	3.126360	-0.067953	-0.865262	99
