21
Properties=species:S:1:pos:R:3:Z:I:1 energy=-169.826352599378 field_type=dipole dipole="0.000000 0.000000 0.000000" charge=0
C	0.977710	-0.003580	-0.000000	6
C	2.316050	0.022730	0.000000	6
C	3.055690	1.236960	0.000000	6
N	3.663170	2.224800	0.000000	7
H	0.441270	-0.947000	-0.000000	1
H	0.385750	0.908920	-0.000000	1
H	2.882290	-0.901300	0.000000	1
Es	2.706114	0.665446	-0.000749	99
Es	0.603439	-0.633129	0.000242	99
Es	1.654411	0.017961	0.001032	99
Es	3.512330	1.702325	0.055114	99
Es	2.316399	0.022654	-0.000024	99
Es	3.055372	1.236808	0.000103	99
Es	1.742883	0.045680	0.001309	99
Es	3.216587	1.847377	-0.027349	99
Es	0.601302	0.575543	0.003755	99
Es	0.977154	-0.002790	-0.000000	99
Es	3.662811	2.224059	-0.000137	99
Es	2.684991	-0.545535	-0.006380	99
Es	3.890417	2.519828	-0.001410	99
Es	3.386955	1.767489	-0.025505	99
