24
Properties=species:S:1:pos:R:3:Z:I:1 energy=-171.02234122275985 field_type=dipole dipole="0.000000 0.000000 0.000000" charge=0
C	1.001190	-0.052580	0.003430	6
C	2.520000	0.000000	0.000000	6
C	3.002020	1.361170	0.000000	6
N	3.386230	2.446160	0.000000	7
H	0.656460	-1.091500	0.001100	1
H	0.585380	0.445660	-0.879370	1
H	0.589740	0.440210	0.891320	1
H	2.895390	-0.532020	-0.881180	1
H	2.899540	-0.533780	0.878310	1
Es	2.627931	0.334189	-0.019815	99
Es	2.987629	1.981780	0.124592	99
Es	2.692668	-0.205028	0.140541	99
Es	3.204245	1.620148	0.018631	99
Es	1.285623	0.023006	0.079615	99
Es	3.529623	2.723467	0.011234	99
Es	3.163386	1.752084	0.007436	99
Es	1.006804	0.089934	0.085451	99
Es	3.232215	1.979057	-0.108970	99
Es	2.575236	-0.186167	-0.168104	99
Es	0.797180	-0.720294	-0.000727	99
Es	2.772510	0.257230	0.045374	99
Es	3.370823	2.358756	-0.046168	99
Es	1.384460	0.019521	-0.100708	99
Es	0.777703	0.240613	-0.053052	99
