30
Properties=species:S:1:pos:R:3:Z:I:1 energy=-173.33419631067176 field_type=dipole dipole="0.000000 0.000000 0.000000" charge=0
C	0.999360	0.004160	-0.011260	6
N	2.461310	0.011110	-0.014320	7
C	2.973330	-0.712390	-1.176980	6
C	2.965860	1.383220	-0.003430	6
H	0.613760	0.509710	0.881500	1
H	0.619190	-1.023290	0.021960	1
H	0.579700	0.498410	-0.895420	1
H	2.630490	-1.753350	-1.164370	1
H	4.068790	-0.743270	-1.159650	1
H	2.656410	-0.256680	-2.122510	1
H	2.615580	1.915360	0.888440	1
H	2.650540	1.948860	-0.888180	1
H	4.061110	1.390370	0.037680	1
Es	3.061683	1.105934	0.030040	99
Es	1.056121	0.136341	-0.175590	99
Es	3.005469	1.315396	0.022045	99
Es	3.000104	1.277236	-0.165766	99
Es	2.134682	-0.025454	0.018883	99
Es	2.552420	-0.155283	-0.267800	99
Es	2.321712	0.024551	-0.148321	99
Es	0.723441	0.421067	0.354816	99
Es	0.944892	0.039086	-0.084179	99
Es	2.670329	-1.235817	-1.310187	99
Es	2.994251	-0.638262	-1.211997	99
Es	3.566717	-0.597714	-1.267852	99
Es	0.844999	-0.622555	-0.064121	99
Es	2.986833	1.206182	-0.097447	99
Es	2.350750	-0.045320	-0.429983	99
Es	2.814299	-0.549393	-1.184142	99
Es	2.676390	1.611922	0.225996	99
