26
Properties=species:S:1:pos:R:3:Z:I:1 energy=-192.03238264003463 field_type=dipole dipole="0.000000 0.000000 0.000000" charge=0
C	0.998380	-0.004910	-0.007370	6
C	2.501690	0.034430	0.005080	6
C	3.225490	-1.284730	-0.005320	6
O	3.118790	1.098850	0.018200	8
H	0.602320	1.014310	0.000580	1
H	0.638000	-0.530330	0.880670	1
H	0.652160	-0.511220	-0.912660	1
H	2.512230	-2.113800	0.017700	1
H	3.867150	-1.352130	0.877400	1
H	3.823860	-1.361800	-0.917040	1
Es	2.810109	-1.791675	-0.008043	99
Es	0.874411	-0.159540	-0.028740	99
Es	3.193437	-1.308544	-0.030595	99
Es	0.909255	0.128535	-0.042063	99
Es	1.373792	0.313823	-0.003730	99
Es	2.009761	0.228062	-0.004463	99
Es	3.487304	-1.272190	-0.019791	99
Es	3.079229	1.219293	0.101382	99
Es	1.743117	0.005320	-0.025691	99
Es	3.727699	-1.328350	0.041707	99
Es	2.852107	0.755715	-0.015178	99
Es	3.205243	1.008791	-0.046811	99
Es	3.008886	0.858441	0.061740	99
Es	3.091439	0.816433	-0.001580	99
Es	0.654422	-0.393331	0.059189	99
Es	2.859860	-0.562851	-0.009545	99
