26
Properties=species:S:1:pos:R:3:Z:I:1 energy=-191.9833444672388 field_type=dipole dipole="0.000000 0.000000 0.000000" charge=0
O	1.024750	0.011320	-0.142280	8
C	2.444600	-0.034510	0.035770	6
C	3.199460	-0.744960	-1.048220	6
C	3.249200	0.752960	-0.955020	6
H	0.620060	0.681630	0.435010	1
H	2.828020	-0.123930	1.047170	1
H	2.628980	-1.187100	-1.856570	1
H	4.081580	-1.305550	-0.765010	1
H	4.171420	1.209350	-0.613370	1
H	2.721190	1.322780	-1.710200	1
Es	1.661441	0.100136	-0.040771	99
Es	2.709845	0.142991	-0.653562	99
Es	1.805158	-0.004444	-0.003456	99
Es	3.339302	0.506747	-0.861382	99
Es	2.569767	-0.485575	-0.639884	99
Es	1.645853	-0.049181	-0.127987	99
Es	3.324790	-0.507143	-1.096348	99
Es	3.128387	-0.450758	-0.922246	99
Es	3.530289	-0.964302	-0.950558	99
Es	0.992612	0.248372	-0.019850	99
Es	3.567141	0.964390	-0.887424	99
Es	2.953949	-0.064854	-0.603976	99
Es	2.964246	0.477072	-0.771664	99
Es	1.043141	0.032027	0.113064	99
Es	1.089422	-0.089950	-0.122610	99
Es	2.888886	0.305863	-0.719401	99
