20
Properties=species:S:1:pos:R:3:Z:I:1 energy=-189.61048332910707 field_type=dipole dipole="0.000000 0.000000 0.000000" charge=0
O	0.956220	-0.017480	0.000000	8
C	2.178670	-0.016350	0.000000	6
C	2.919300	1.221050	0.000000	6
C	3.535320	2.252140	0.000000	6
H	2.784750	-0.935790	0.000000	1
H	4.071560	3.173120	0.000000	1
Es	2.919168	1.220822	0.000022	99
Es	2.180568	-0.018953	-0.000058	99
Es	1.361289	-0.006947	-0.000504	99
Es	3.895382	2.842151	-0.000355	99
Es	0.960304	-0.019247	0.000375	99
Es	3.174546	1.643050	-0.001783	99
Es	2.927356	1.926913	0.000220	99
Es	1.389008	0.162996	0.000960	99
Es	2.573250	0.629009	-0.000112	99
Es	1.015113	0.056386	0.000146	99
Es	3.535451	2.252357	0.000000	99
Es	0.762289	-0.292129	-0.000522	99
Es	2.580945	-0.604138	-0.000359	99
Es	3.545475	1.559278	0.001971	99
