31
Properties=species:S:1:pos:R:3:Z:I:1 energy=-157.35548523667805 field_type=dipole dipole="0.000000 0.000000 0.000000" charge=0
C	0.979850	-0.057530	0.000960	6
C	2.498770	0.004820	-0.003850	6
C	2.999020	1.447630	0.015250	6
C	4.517980	1.509970	0.009910	6
H	0.642940	-1.098970	-0.012510	1
H	0.562380	0.445770	-0.877290	1
H	0.570310	0.419160	0.897500	1
H	2.876250	-0.508780	-0.895370	1
H	2.883720	-0.535030	0.869250	1
H	2.620900	1.961310	0.906850	1
H	2.613570	1.987180	-0.857670	1
H	4.934390	1.006650	0.888360	1
H	4.854570	2.551320	0.023810	1
H	4.927150	1.032560	-0.886180	1
Es	2.621268	-0.224532	-0.335883	99
Es	2.856197	1.387625	-0.155812	99
Es	1.802080	0.013512	-0.029089	99
Es	2.872925	1.101978	0.067137	99
Es	0.747868	-0.613109	-0.074302	99
Es	3.164535	1.398531	0.182528	99
Es	4.529472	1.145926	-0.012526	99
Es	2.852131	1.493843	-0.150917	99
Es	4.737212	2.105771	-0.102669	99
Es	3.525135	1.491497	0.089857	99
Es	2.720354	-0.127995	0.320236	99
Es	0.924325	-0.022047	-0.105575	99
Es	4.571705	1.409930	-0.080849	99
Es	2.544249	-0.046493	0.016356	99
Es	0.729375	0.259249	0.359382	99
Es	0.875567	0.137958	-0.122300	99
Es	4.655521	1.433628	0.229625	99
