25
Properties=species:S:1:pos:R:3:Z:I:1 energy=-208.06202935554188 field_type=dipole dipole="0.000000 0.000000 0.000000" charge=0
C	1.016550	-0.022010	-0.005930	6
C	2.516470	0.034920	-0.001750	6
N	3.129950	-1.181650	0.002920	7
O	3.159110	1.076420	-0.003960	8
H	0.610920	0.993700	0.007770	1
H	0.662240	-0.555300	0.880490	1
H	0.667270	-0.530300	-0.908820	1
H	2.625250	-2.056070	0.001220	1
H	4.141480	-1.198520	0.004250	1
Es	1.850407	0.000420	-0.009920	99
Es	2.957695	-1.505112	-0.049451	99
Es	3.139868	0.926871	0.010226	99
Es	2.914886	-0.761094	-0.064609	99
Es	0.752194	-0.349010	0.010070	99
Es	3.195715	0.753899	-0.258832	99
Es	0.966535	-0.123771	0.065935	99
Es	3.420521	-1.344970	0.107995	99
Es	3.070065	0.912718	0.023278	99
Es	3.075206	-1.095652	0.024019	99
Es	0.772789	0.567856	-0.012900	99
Es	2.519256	0.035674	-0.001782	99
Es	3.121976	-1.066352	0.011656	99
Es	2.958866	0.963040	0.165960	99
Es	3.132578	1.292591	0.022060	99
Es	0.871721	-0.261302	-0.080023	99
