28
Properties=species:S:1:pos:R:3:Z:I:1 energy=-209.18764152476933 field_type=dipole dipole="0.000000 0.000000 0.000000" charge=0
N	0.973070	0.001140	0.037600	7
C	2.431640	0.013190	-0.007700	6
C	3.001140	1.434690	-0.007900	6
O	4.424650	1.396430	-0.028020	8
H	0.644060	-0.963060	-0.004230	1
H	0.603360	0.458280	-0.796280	1
H	2.780900	-0.522240	-0.898070	1
H	2.825560	-0.536810	0.854510	1
H	2.682080	1.993020	0.878690	1
H	2.668170	1.983520	-0.894780	1
H	4.711920	1.029010	0.825810	1
Es	4.364357	1.561386	-0.168049	99
Es	4.208398	1.379788	0.042689	99
Es	2.915768	1.331112	0.010548	99
Es	0.664488	-0.178599	0.027542	99
Es	2.493883	-0.126324	0.024101	99
Es	2.658480	-0.113460	0.028098	99
Es	4.426286	1.383678	-0.057003	99
Es	3.019207	1.640424	0.096456	99
Es	0.883252	0.034086	-0.194974	99
Es	0.946964	-0.028183	0.017979	99
Es	0.935140	0.058819	-0.011639	99
Es	1.668918	-0.018404	0.014836	99
Es	2.824774	1.505678	-0.174204	99
Es	2.628593	-0.271651	0.018532	99
Es	2.808328	1.060352	-0.135723	99
Es	4.310751	1.391676	0.378931	99
Es	4.180606	1.175789	0.026050	99
