19
Properties=species:S:1:pos:R:3:Z:I:1 energy=-152.53801706889226 field_type=dipole dipole="0.000000 0.000000 0.000000" charge=0
C	0.908150	0.000000	0.000000	6
C	2.108190	0.000000	0.000000	6
C	3.640210	0.000000	0.000000	6
C	4.840190	0.000000	0.000000	6
H	-0.156900	0.000000	0.000000	1
H	5.905370	0.000000	0.000000	1
Es	3.639696	0.000015	0.000015	99
Es	5.532895	-0.000023	0.000024	99
Es	0.907927	0.000002	-0.000000	99
Es	1.516543	0.000734	0.000112	99
Es	4.211664	0.000188	-0.000151	99
Es	2.108705	0.000008	-0.000009	99
Es	4.840414	-0.000006	0.000002	99
Es	4.211662	-0.000158	-0.000197	99
Es	1.536700	-0.000488	0.000286	99
Es	0.215501	-0.000029	-0.000009	99
Es	2.874195	-0.000005	0.000050	99
Es	4.231831	-0.000014	0.000263	99
Es	1.536700	-0.000227	-0.000387	99
