28
Properties=species:S:1:pos:R:3:Z:I:1 energy=-156.1639129348296 field_type=dipole dipole="0.000000 0.000000 0.000000" charge=0
C	0.953720	-0.007970	0.008390	6
C	2.447310	-0.000630	0.012960	6
C	3.174780	1.126260	-0.012110	6
C	4.668540	1.157370	-0.009290	6
H	0.586740	-1.038030	-0.046200	1
H	0.560860	0.532270	-0.858610	1
H	0.559950	0.440180	0.925810	1
H	2.943090	-0.968490	0.037480	1
H	2.672370	2.091090	-0.033710	1
H	5.103440	0.152750	0.002280	1
H	5.028340	1.695770	0.872430	1
H	5.031570	1.675960	-0.901910	1
Es	2.763449	-0.612094	0.045225	99
Es	4.914925	1.558863	-0.043935	99
Es	0.700431	0.434058	0.022332	99
Es	1.213306	0.031401	-0.062327	99
Es	1.371190	0.019324	0.071617	99
Es	2.985084	0.980777	-0.047924	99
Es	4.723150	1.223791	0.082682	99
Es	4.889338	0.536074	-0.013696	99
Es	0.691882	-0.717592	-0.027260	99
Es	0.847792	0.128344	0.041245	99
Es	2.738627	0.472098	0.117888	99
Es	3.140913	1.191346	-0.014174	99
Es	3.721268	1.302692	-0.016403	99
Es	2.700948	0.530077	-0.027035	99
Es	4.825529	1.401541	-0.054488	99
Es	2.749498	0.629503	-0.075694	99
