36
Properties=species:S:1:pos:R:3:Z:I:1 energy=-232.24169793442368 field_type=dipole dipole="0.000000 0.000000 0.000000" charge=0
C	0.927060	-0.049230	0.030700	6
C	2.444170	0.033880	0.065720	6
C	2.981420	1.466670	0.021510	6
C	2.599200	2.298800	1.238000	6
O	4.405750	1.414470	-0.060540	8
H	0.609320	-1.095450	-0.024670	1
H	0.525280	0.473120	-0.843120	1
H	0.480840	0.384830	0.930160	1
H	2.852810	-0.523710	-0.786740	1
H	2.820330	-0.480290	0.959250	1
H	2.627570	1.967620	-0.885870	1
H	2.931090	1.815990	2.163990	1
H	1.519390	2.462290	1.295730	1
H	3.092430	3.276510	1.200290	1
H	4.735070	0.975520	0.742430	1
Es	0.830343	-0.117808	-0.102001	99
Es	3.477026	1.376462	0.081173	99
Es	2.570824	2.254673	1.211056	99
Es	4.333920	1.405462	-0.031968	99
Es	1.730392	-0.032273	0.089949	99
Es	0.935771	-0.079965	0.014883	99
Es	3.082128	1.668003	0.563734	99
Es	2.600730	-0.189036	-0.207883	99
Es	0.670925	0.278749	0.566473	99
Es	2.740170	2.300471	0.989480	99
Es	2.317232	0.086442	0.061966	99
Es	2.829721	1.821704	0.845801	99
Es	0.922416	-0.254375	-0.294634	99
Es	4.246470	1.203220	-0.051155	99
Es	4.184464	1.417117	0.140146	99
Es	4.642652	1.537479	-0.037107	99
Es	1.997164	2.251247	1.292761	99
Es	3.215266	1.226913	-0.147664	99
Es	2.559015	0.037699	-0.010863	99
Es	3.049587	2.477764	0.975676	99
Es	2.762556	0.933096	0.124598	99
