33
Properties=species:S:1:pos:R:3:Z:I:1 energy=-231.0704653316445 field_type=dipole dipole="0.000000 0.000000 0.000000" charge=0
C	0.957300	-0.029640	0.005170	6
C	2.476990	-0.008370	0.004550	6
C	3.016010	1.416860	0.008580	6
C	4.525020	1.466820	0.007160	6
O	5.257140	0.483700	-0.004360	8
H	0.592380	-1.061580	0.003720	1
H	0.557620	0.473180	-0.881360	1
H	0.558240	0.470490	0.893480	1
H	2.846080	-0.545950	-0.877140	1
H	2.846940	-0.550900	0.882860	1
H	2.669730	1.954490	0.897980	1
H	2.667720	1.960900	-0.876110	1
H	4.955670	2.483050	0.016000	1
Es	1.496639	-0.047103	0.033518	99
Es	4.221532	1.456399	0.005292	99
Es	0.771436	0.006507	-0.020749	99
Es	5.136995	0.634562	0.019052	99
Es	1.188759	0.024498	-0.027458	99
Es	0.597074	-0.308285	-0.077414	99
Es	5.265813	0.823371	0.114708	99
Es	4.806105	1.613896	-0.092395	99
Es	2.740523	0.634202	0.075278	99
Es	3.045131	1.537220	-0.121822	99
Es	2.743390	-0.418313	-0.023449	99
Es	2.626168	-0.215238	0.054299	99
Es	5.238123	0.303996	0.025571	99
Es	2.567489	0.043805	-0.096404	99
Es	3.348743	1.560258	0.028138	99
Es	0.759243	0.222024	0.137479	99
Es	3.702996	1.518887	-0.011860	99
Es	4.839820	1.150359	-0.055984	99
Es	2.712235	1.867585	0.137702	99
Es	5.236766	0.440935	-0.017468	99
