36
Properties=species:S:1:pos:R:3:Z:I:1 energy=-232.2283729969343 field_type=dipole dipole="0.000000 0.000000 0.000000" charge=0
C	0.924430	-0.041160	0.023290	6
C	2.441550	-0.015350	0.007700	6
C	2.984750	1.407840	0.000020	6
O	4.409720	1.344060	-0.016100	8
C	4.992820	2.639930	-0.013910	6
H	0.562080	-1.074110	0.030410	1
H	0.513800	0.456320	-0.861870	1
H	0.531820	0.462320	0.913090	1
H	2.814090	-0.555320	-0.870540	1
H	2.831880	-0.552220	0.879990	1
H	2.652190	1.945890	0.895880	1
H	2.632750	1.944050	-0.889540	1
H	6.080590	2.528190	-0.033160	1
H	4.713710	3.183670	0.893650	1
H	4.683480	3.201410	-0.900400	1
Es	2.991517	1.473082	0.066706	99
Es	4.845197	2.826881	-0.075584	99
Es	2.813825	1.603295	-0.105578	99
Es	0.799625	0.116447	-0.027813	99
Es	4.181405	1.491753	0.086989	99
Es	5.016508	2.643280	-0.022704	99
Es	4.993352	2.860517	0.133598	99
Es	3.352970	1.692924	0.057715	99
Es	4.614078	1.815178	-0.209778	99
Es	1.721947	0.054640	0.029416	99
Es	0.764244	0.114360	0.202203	99
Es	2.729834	0.591664	-0.085644	99
Es	4.278688	1.339966	0.026583	99
Es	5.377044	2.468480	-0.039741	99
Es	0.631449	-0.098686	-0.157179	99
Es	4.414506	1.399506	-0.002541	99
Es	2.633840	-0.131547	0.316732	99
Es	2.482431	-0.053409	0.086264	99
Es	3.695710	1.532350	-0.065528	99
Es	2.629738	-0.404914	-0.261002	99
Es	0.790747	-0.326739	0.060766	99
