30
Properties=species:S:1:pos:R:3:Z:I:1 energy=-229.85166100399854 field_type=dipole dipole="0.000000 0.000000 0.000000" charge=0
C	1.216800	-0.468730	-0.419350	6
C	2.503090	-0.354230	-0.082990	6
O	3.164600	0.843980	-0.157610	8
C	4.481800	0.906890	0.216830	6
C	5.178130	2.043260	0.148320	6
H	0.706090	-1.422780	-0.356550	1
H	0.653600	0.392490	-0.763400	1
H	3.088770	-1.194380	0.262250	1
H	4.915220	-0.017970	0.570330	1
H	4.716350	2.957170	-0.210340	1
H	6.219110	2.079030	0.448690	1
Es	2.514542	-0.387587	-0.070717	99
Es	5.156701	2.019909	0.159312	99
Es	5.868998	2.052309	0.348918	99
Es	4.771859	0.266149	0.446037	99
Es	4.881854	2.669122	-0.086981	99
Es	4.478400	0.905893	0.216128	99
Es	2.879101	-0.889332	0.142431	99
Es	3.187273	0.810158	-0.156005	99
Es	1.189705	-0.344679	-0.405777	99
Es	3.667832	0.870908	-0.006217	99
Es	2.869918	0.518907	-0.213250	99
Es	0.837681	-1.069057	-0.362168	99
Es	4.819148	1.501941	0.200053	99
Es	4.899419	1.513597	0.165714	99
Es	3.089778	0.922180	-0.177431	99
Es	0.964438	-0.036430	-0.624789	99
Es	1.755861	-0.449586	-0.257979	99
Es	1.876919	-0.422285	-0.306151	99
Es	3.170156	0.819489	-0.124096	99
