30
Properties=species:S:1:pos:R:3:Z:I:1 energy=-229.89031462726828 field_type=dipole dipole="0.000000 0.000000 0.000000" charge=0
C	0.941350	-0.102230	0.002290	6
C	2.427940	0.001620	-0.212880	6
O	3.097650	-0.963490	-0.578800	8
C	3.117610	1.300090	0.020150	6
C	2.516390	2.426830	0.419730	6
H	0.414760	0.579780	-0.670250	1
H	0.695710	0.115440	1.044890	1
H	0.614830	-1.122620	-0.220770	1
H	4.188260	1.277470	-0.161880	1
H	1.451640	2.495560	0.613310	1
H	3.100830	3.331040	0.564910	1
Es	3.002864	-0.907987	-0.622120	99
Es	2.900298	-0.662788	-0.576468	99
Es	1.661410	-0.004630	-0.101393	99
Es	2.518995	2.421445	0.418119	99
Es	2.807082	0.635653	-0.097874	99
Es	0.777964	-0.757866	-0.148816	99
Es	2.850203	1.730082	0.363176	99
Es	3.032851	-0.978216	-0.611186	99
Es	2.771303	-0.919962	-0.336130	99
Es	1.026772	-0.048541	0.043927	99
Es	3.422853	-0.834163	-0.550772	99
Es	0.824704	0.081625	0.066415	99
Es	2.905816	3.030362	0.523558	99
Es	0.619738	0.319976	0.135286	99
Es	2.330729	-0.010528	-0.198570	99
Es	3.043230	1.451946	0.081603	99
Es	2.818031	1.759732	-0.014094	99
Es	3.728225	1.259806	-0.089736	99
Es	1.798581	2.478719	0.554036	99
