33
Properties=species:S:1:pos:R:3:Z:I:1 energy=-231.0393961651494 field_type=dipole dipole="0.000000 0.000000 0.000000" charge=0
C	1.196720	-0.052730	-0.598780	6
O	2.534920	-0.093280	-0.111520	8
C	3.124740	1.141300	-0.106050	6
C	4.448600	1.279310	0.010990	6
C	5.154560	2.593120	0.036840	6
H	0.808930	-1.075490	-0.612980	1
H	1.165700	0.341520	-1.620360	1
H	0.560800	0.546420	0.061840	1
H	2.448460	1.982800	-0.183240	1
H	5.064290	0.387150	0.094630	1
H	4.462740	3.437240	-0.049520	1
H	5.867260	2.649820	-0.791810	1
H	5.707550	2.700870	0.975010	1
Es	4.869697	1.254169	0.068751	99
Es	3.851032	1.116114	0.063285	99
Es	3.314449	1.181603	-0.173011	99
Es	0.975034	-0.098306	-0.586083	99
Es	2.403318	0.233924	-0.172165	99
Es	5.347239	2.628484	0.059319	99
Es	2.565240	-0.003264	-0.129392	99
Es	5.487791	2.651817	0.155244	99
Es	0.895856	0.037704	-0.644428	99
Es	1.308543	0.031020	-0.620572	99
Es	5.458425	2.635211	-0.049518	99
Es	2.700039	1.655169	-0.194804	99
Es	4.453404	1.244136	0.000489	99
Es	2.458784	-0.017460	-0.154153	99
Es	3.630922	1.244884	-0.069332	99
Es	2.724742	-0.195231	-0.199194	99
Es	1.101901	-0.183924	-0.720266	99
Es	4.705906	3.130844	-0.003900	99
Es	2.170482	-0.122162	-0.094875	99
Es	4.650526	1.477342	0.038586	99
