36
Properties=species:S:1:pos:R:3:Z:I:1 energy=-232.2298200950598 field_type=dipole dipole="0.000000 0.000000 0.000000" charge=0
C	1.019320	-0.098670	0.138210	6
O	2.413600	0.078170	0.348170	8
C	2.859510	1.418700	0.128870	6
C	2.492760	2.315920	1.306490	6
C	4.373580	1.362870	-0.039250	6
H	0.790790	-1.162930	0.244770	1
H	0.736830	0.215960	-0.871140	1
H	0.437590	0.450600	0.883070	1
H	2.420900	1.810710	-0.796180	1
H	2.842310	1.884870	2.251780	1
H	1.407430	2.429990	1.393380	1
H	2.925830	3.315410	1.193910	1
H	4.854120	0.943840	0.852450	1
H	4.791670	2.356520	-0.229120	1
H	4.640030	0.707900	-0.876420	1
Es	2.501598	2.304671	1.210147	99
Es	0.830702	0.062983	0.244178	99
Es	1.268884	-0.166066	-0.001947	99
Es	1.375227	0.002918	0.161404	99
Es	1.809392	0.077639	0.240148	99
Es	4.648731	1.843741	-0.017746	99
Es	2.875924	1.513439	0.425835	99
Es	4.301402	1.490650	-0.162563	99
Es	1.471770	0.110963	0.240214	99
Es	2.532952	1.360053	0.497859	99
Es	3.477190	1.450039	-0.002460	99
Es	4.603922	0.972765	-0.121462	99
Es	2.779789	2.141728	1.339656	99
Es	2.487453	1.497773	0.409819	99
Es	0.903442	-0.477339	0.167371	99
Es	2.632387	0.780761	0.276852	99
Es	2.451289	0.024754	0.306417	99
Es	2.607835	0.512175	0.046727	99
Es	4.516227	1.161960	0.012028	99
Es	2.235990	2.727633	1.328244	99
Es	2.590180	2.279115	1.457732	99
