30
Properties=species:S:1:pos:R:3:Z:I:1 energy=-229.8624278173302 field_type=dipole dipole="0.000000 0.000000 0.000000" charge=0
O	2.315440	-0.968780	-0.293040	8
C	2.077560	0.195580	0.000860	6
C	3.161820	1.200440	0.057110	6
C	3.524700	1.976030	-1.184530	6
C	2.851460	2.673600	-0.037440	6
H	1.059500	0.541910	0.245160	1
H	3.985170	0.911560	0.702870	1
H	2.950930	1.801450	-2.088290	1
H	4.575230	2.178070	-1.362620	1
H	3.446530	3.355530	0.560250	1
H	1.823050	2.988530	-0.172930	1
Es	2.204698	-1.234657	-0.244326	99
Es	3.256223	1.998067	-0.673422	99
Es	3.172968	2.987936	0.232265	99
Es	3.340940	1.746022	-1.191463	99
Es	2.198561	-0.082722	-0.132161	99
Es	4.045479	2.049183	-1.250756	99
Es	2.808931	2.675318	-0.068563	99
Es	2.841429	0.855135	-0.046632	99
Es	1.639592	0.489560	0.218019	99
Es	2.320206	-0.754671	-0.226684	99
Es	2.582690	0.319765	0.038647	99
Es	3.189829	1.686462	-0.326850	99
Es	3.002739	1.796822	-0.043856	99
Es	3.299830	1.655084	-0.826450	99
Es	2.290590	-0.751397	-0.277145	99
Es	2.595684	0.390413	0.090548	99
Es	2.635669	2.401510	-0.140185	99
Es	2.383576	-0.955769	-0.323982	99
Es	3.217474	2.524284	-0.582782	99
