26
Properties=species:S:1:pos:R:3:Z:I:1 energy=-244.71796064218725 field_type=dipole dipole="0.000000 0.000000 0.000000" charge=0
O	-0.364120	-1.098740	-0.004060	8
C	-1.148760	0.015440	-0.002100	6
C	-0.324340	1.112570	0.000780	6
N	0.987070	0.710850	0.000690	7
C	0.903710	-0.600350	-0.002210	6
H	-2.216100	-0.143630	-0.003090	1
H	-0.600860	2.158180	0.002890	1
H	1.708060	-1.322440	-0.003300	1
Es	-1.148302	0.014967	-0.002180	99
Es	0.492708	0.716417	0.001486	99
Es	-0.433251	-1.357383	-0.008088	99
Es	-0.780302	0.589977	-0.004122	99
Es	-1.865671	-0.086311	-0.002945	99
Es	-0.326509	1.109872	0.000525	99
Es	0.869615	0.244663	-0.006219	99
Es	0.117662	-0.908269	0.002636	99
Es	-0.294442	-0.981553	-0.013272	99
Es	0.903258	-0.600383	-0.002223	99
Es	1.026573	0.174004	-0.010606	99
Es	-0.671466	-0.679757	0.011044	99
Es	0.976973	0.709153	0.000703	99
Es	1.142709	1.026333	0.010129	99
Es	-0.689287	0.547943	0.006624	99
Es	-0.375748	-1.150047	-0.009698	99
Es	1.438928	-1.086515	0.002240	99
Es	-0.517383	1.817340	-0.001949	99
