35
Properties=species:S:1:pos:R:3:Z:I:1 energy=-248.24346403132165 field_type=dipole dipole="0.000000 0.000000 0.000000" charge=0
C	0.888740	-0.016990	0.022580	6
C	2.406710	0.010590	-0.026730	6
O	2.837530	-0.584510	-1.253310	8
C	2.958220	1.444530	0.051930	6
N	4.416150	1.429380	-0.138130	7
H	0.513620	0.420580	0.952340	1
H	0.523360	-1.046760	-0.052150	1
H	0.458520	0.530500	-0.823020	1
H	2.812510	-0.594040	0.792770	1
H	3.730650	-0.210280	-1.405140	1
H	2.708010	1.905290	1.012910	1
H	2.525270	2.055660	-0.747570	1
H	4.853040	0.948040	0.649260	1
H	4.762140	2.389110	-0.102620	1
Es	0.901533	-0.025436	0.016866	99
Es	2.926286	-0.285158	-0.976781	99
Es	4.497084	1.884932	0.094050	99
Es	4.455990	1.100177	-0.226348	99
Es	3.098965	-0.538356	-1.140201	99
Es	0.694095	-0.150054	-0.122428	99
Es	4.325937	1.512547	-0.124266	99
Es	1.765866	-0.207555	-0.105491	99
Es	2.581481	0.487359	-0.018930	99
Es	2.826642	1.699104	0.607498	99
Es	2.852484	-0.505835	-1.169073	99
Es	2.088485	-0.057448	-0.114742	99
Es	2.617300	-0.699819	-1.050838	99
Es	2.710424	-0.272666	-0.835586	99
Es	2.578421	0.378425	-0.340191	99
Es	2.926982	1.443713	-0.092837	99
Es	0.590503	0.354507	0.490900	99
Es	4.212869	1.411266	-0.103568	99
Es	4.272469	1.371450	-0.026683	99
Es	1.172318	-0.225907	-0.115394	99
Es	2.848767	1.286773	-0.105811	99
