32
Properties=species:S:1:pos:R:3:Z:I:1 energy=-246.99940580293406 field_type=dipole dipole="0.000000 0.000000 0.000000" charge=0
C	0.918800	-0.213920	-0.245940	6
C	2.419790	-0.015930	-0.182210	6
O	2.683210	1.338610	0.182310	8
N	4.072810	1.517560	0.248670	7
C	4.312880	2.738660	0.588640	6
H	0.672160	-1.244390	-0.516430	1
H	0.471810	0.461580	-0.982880	1
H	0.457740	0.018450	0.719750	1
H	2.868360	-0.225790	-1.159560	1
H	2.855340	-0.687450	0.565980	1
H	5.352030	3.084220	0.696860	1
H	3.515980	3.475900	0.782750	1
Es	2.642605	1.434704	0.165255	99
Es	4.118811	1.613228	0.319147	99
Es	1.027768	-0.211336	-0.215308	99
Es	4.720702	3.097214	0.682981	99
Es	4.021083	1.263294	0.206917	99
Es	2.711743	1.340541	0.137367	99
Es	3.463277	1.504903	0.205229	99
Es	4.215668	2.001939	0.203556	99
Es	2.561186	0.097199	-0.280967	99
Es	4.130412	1.939367	0.502020	99
Es	2.502675	-0.135774	-0.124159	99
Es	2.686928	1.304072	0.244043	99
Es	2.508860	0.725654	0.067306	99
Es	0.790141	-0.042093	-0.188569	99
Es	2.795529	-0.352196	-0.255701	99
Es	4.245131	2.769011	0.607003	99
Es	0.636444	0.124700	-0.130908	99
Es	1.440015	-0.309285	-0.258737	99
Es	0.718052	-0.632034	-0.438616	99
Es	4.116314	3.043029	0.669044	99
