35
Properties=species:S:1:pos:R:3:Z:I:1 energy=-248.22883262297358 field_type=dipole dipole="0.000000 0.000000 0.000000" charge=0
C	1.786210	-0.407210	0.630530	6
N	3.162170	0.041190	0.451460	7
C	3.194780	1.421150	-0.062680	6
C	4.651820	1.877730	-0.206960	6
O	5.332400	1.717190	1.035370	8
H	1.783880	-1.434580	1.008750	1
H	1.234060	-0.395370	-0.315250	1
H	1.258740	0.214230	1.361810	1
H	3.624920	-0.576010	-0.217230	1
H	2.689990	2.080550	0.653280	1
H	2.686650	1.494620	-1.030510	1
H	4.701360	2.931540	-0.496490	1
H	5.176250	1.284190	-0.963040	1
H	4.927460	0.922460	1.439930	1
Es	3.347381	0.154756	0.597303	99
Es	3.196405	-0.033339	0.453368	99
Es	3.966775	1.549746	-0.147613	99
Es	4.147434	1.640178	0.013595	99
Es	5.534804	1.602189	1.133985	99
Es	4.769253	1.753147	-0.108788	99
Es	5.175442	1.486471	0.979150	99
Es	2.954456	0.809886	0.000434	99
Es	1.777143	-0.876488	0.835100	99
Es	5.141327	1.709398	0.530447	99
Es	2.352911	-0.196692	0.696019	99
Es	1.968368	-0.325513	0.743686	99
Es	3.532194	1.637461	-0.093448	99
Es	4.730834	2.534092	-0.402462	99
Es	3.150101	1.051355	0.012148	99
Es	5.041250	1.803429	0.513498	99
Es	1.769145	-0.317008	0.630551	99
Es	3.293704	1.015021	0.090843	99
Es	2.975969	0.685937	0.076711	99
Es	5.346730	1.704790	0.974789	99
Es	1.398447	-0.313719	0.180116	99
