32
Properties=species:S:1:pos:R:3:Z:I:1 energy=-247.09696362180193 field_type=dipole dipole="0.000000 0.000000 0.000000" charge=0
C	0.857540	0.146370	0.107830	6
N	2.293200	0.133030	-0.019140	7
C	3.117560	1.217070	-0.113090	6
C	2.496210	2.584150	-0.015380	6
O	4.327900	1.056810	-0.248670	8
H	0.518640	-0.866420	0.337180	1
H	0.421640	0.477440	-0.838140	1
H	0.560700	0.828410	0.908160	1
H	2.771510	-0.755120	-0.118710	1
H	1.608550	2.655520	-0.648110	1
H	3.215660	3.331840	-0.360380	1
H	2.234830	2.794070	1.024590	1
Es	2.829481	2.935543	-0.192468	99
Es	0.685454	0.541898	0.061446	99
Es	2.524975	-0.150390	0.064903	99
Es	3.989438	0.983476	-0.155279	99
Es	2.452079	0.159959	-0.041945	99
Es	2.389286	2.711823	0.156629	99
Es	3.217273	1.141981	-0.106206	99
Es	1.314485	0.187241	0.014956	99
Es	4.057081	1.049327	-0.341705	99
Es	2.412852	0.308164	0.096131	99
Es	1.974658	2.722329	0.045910	99
Es	0.613304	-0.338124	0.014013	99
Es	4.184978	1.071944	-0.181700	99
Es	2.525568	0.403872	-0.276570	99
Es	4.619472	1.065424	-0.261683	99
Es	0.967602	0.206721	0.129856	99
Es	2.774462	1.843367	-0.050470	99
Es	2.527246	2.523905	-0.015937	99
Es	0.793120	0.133946	0.253606	99
Es	4.027454	1.290406	-0.230967	99
