32
Properties=species:S:1:pos:R:3:Z:I:1 energy=-247.0233746751112 field_type=dipole dipole="0.000000 0.000000 0.000000" charge=0
N	0.991090	0.008390	0.076700	7
C	2.449680	0.029690	-0.071080	6
C	3.080110	1.019580	0.918290	6
O	3.936810	-0.024690	1.456580	8
C	3.100320	-1.034230	0.823270	6
H	0.544290	-0.783980	-0.383860	1
H	0.529540	0.840360	-0.289800	1
H	2.826560	0.081340	-1.095430	1
H	2.435680	1.435760	1.700440	1
H	3.664780	1.821860	0.458500	1
H	3.701250	-1.778200	0.293240	1
H	2.465860	-1.532650	1.563940	1
Es	2.732060	-0.379612	0.241488	99
Es	0.823147	-0.337647	-0.208928	99
Es	0.765203	0.485984	-0.054958	99
Es	3.908164	-0.065980	1.378018	99
Es	3.767747	-0.048998	1.367298	99
Es	3.367335	-1.190321	0.713892	99
Es	3.802727	-0.336179	1.147660	99
Es	3.140292	1.318786	0.947314	99
Es	1.521445	0.039745	0.054007	99
Es	2.972830	-1.192022	1.028334	99
Es	3.059887	-1.313812	0.889041	99
Es	3.548235	0.259650	1.340229	99
Es	2.660369	0.817479	0.805295	99
Es	2.949025	0.537042	0.733190	99
Es	3.647180	0.637398	1.094116	99
Es	3.504906	0.688754	1.062949	99
Es	2.439070	0.050244	0.052616	99
Es	1.443182	0.008102	-0.008788	99
Es	2.296749	0.098329	-0.078099	99
Es	1.020179	-0.069846	-0.015568	99
