29
Properties=species:S:1:pos:R:3:Z:I:1 energy=-245.9179965746103 field_type=dipole dipole="0.000000 0.000000 0.000000" charge=0
N	1.026520	-0.012380	0.245130	7
C	2.279520	-0.007320	-0.280370	6
O	2.808730	-1.023280	-0.706180	8
C	2.920910	1.326640	-0.282770	6
C	4.157760	1.481660	-0.771530	6
H	0.560140	0.806430	0.605040	1
H	0.540690	-0.899070	0.271710	1
H	2.371730	2.168970	0.116730	1
H	4.716820	0.640920	-1.174860	1
H	4.637600	2.453910	-0.778480	1
Es	1.565353	0.000024	0.025547	99
Es	2.777427	-0.958599	-0.671016	99
Es	3.680693	1.422596	-0.588155	99
Es	4.481028	2.141944	-0.772684	99
Es	1.018602	0.007261	0.241106	99
Es	2.470950	-1.110610	-0.583035	99
Es	2.731773	-0.751326	-0.661573	99
Es	3.448773	1.367051	-0.486893	99
Es	2.698547	0.884010	-0.278096	99
Es	2.816354	1.113358	-0.279074	99
Es	4.534902	0.927188	-1.041724	99
Es	4.014882	1.465558	-0.726668	99
Es	0.729133	-0.532949	0.259498	99
Es	1.137362	0.000174	0.202726	99
Es	2.705110	-0.798326	-0.601657	99
Es	2.535226	1.895009	-0.004145	99
Es	0.767331	0.464031	0.459638	99
Es	3.109998	-1.008658	-0.809178	99
Es	2.279377	-0.007240	-0.280294	99
