32
Properties=species:S:1:pos:R:3:Z:I:1 energy=-247.02597841436847 field_type=dipole dipole="0.000000 0.000000 0.000000" charge=0
O	3.165150	-1.000770	-0.545310	8
C	2.365930	0.023170	0.033240	6
C	3.170610	1.278220	0.092450	6
C	3.229580	2.199250	-1.096530	6
N	2.497800	2.577220	0.111450	7
H	2.602320	-1.791090	-0.599170	1
H	2.077720	-0.288180	1.042010	1
H	1.460530	0.142340	-0.571590	1
H	4.054230	1.174320	0.710530	1
H	2.627660	1.965700	-1.965820	1
H	4.153910	2.726630	-1.295180	1
H	3.034030	3.252220	0.660160	1
Es	2.531296	0.254515	-0.218351	99
Es	2.870478	2.339309	-0.758439	99
Es	3.037425	1.106515	0.069055	99
Es	2.611244	2.824172	0.321042	99
Es	3.079679	-0.951821	-0.415748	99
Es	2.840818	2.346372	-0.284450	99
Es	3.177463	-0.977285	-0.484195	99
Es	2.843373	-1.361998	-0.557739	99
Es	2.308264	-0.064797	0.407755	99
Es	2.732758	2.446330	0.198433	99
Es	3.051025	1.221604	-0.505816	99
Es	3.314360	-1.021303	-0.655156	99
Es	3.485991	2.427175	-1.359894	99
Es	2.820017	-0.465838	-0.360674	99
Es	2.303992	0.099597	0.255054	99
Es	3.053542	1.998567	-0.473841	99
Es	2.809597	1.871760	0.119165	99
Es	2.959891	1.998392	-0.228092	99
Es	3.204580	2.364031	-0.802956	99
Es	2.662000	0.687268	-0.022551	99
