29
Properties=species:S:1:pos:R:3:Z:I:1 energy=-245.85678774196543 field_type=dipole dipole="0.000000 0.000000 0.000000" charge=0
O	2.307180	0.021120	-1.156540	8
C	2.247430	0.367150	0.016360	6
N	2.873010	1.461070	0.598050	7
C	4.188750	1.849510	0.175730	6
C	3.006250	2.689460	-0.132540	6
H	1.659130	-0.185710	0.767310	1
H	4.625330	1.246930	-0.610490	1
H	4.838360	2.128900	0.992780	1
H	2.810970	3.568790	0.464350	1
H	2.603730	2.682750	-1.137420	1
Es	3.575204	2.309394	0.354630	99
Es	3.842223	2.052503	0.290677	99
Es	2.190139	-0.065960	-0.663912	99
Es	2.437876	0.353935	-0.780887	99
Es	3.404452	2.467752	0.059074	99
Es	3.680099	2.475295	0.348153	99
Es	2.259657	-0.027414	-0.651078	99
Es	2.793327	1.135780	-0.278439	99
Es	3.453489	1.997659	0.240068	99
Es	2.103618	0.059661	-0.339670	99
Es	3.227121	1.474875	0.097887	99
Es	3.181531	2.095125	0.241642	99
Es	2.256263	0.153708	-0.537453	99
Es	3.078870	2.056500	0.196689	99
Es	3.431392	1.921456	0.108944	99
Es	2.679116	0.924537	-0.055006	99
Es	2.215891	0.311153	-0.712380	99
Es	2.888698	1.278239	-0.027894	99
Es	3.101416	1.492548	-0.165782	99
