29
Properties=species:S:1:pos:R:3:Z:I:1 energy=-245.82612135108545 field_type=dipole dipole="0.000000 0.000000 0.000000" charge=0
O	0.899130	0.126870	-0.018930	8
N	2.273880	-0.112700	-0.134140	7
C	2.913290	0.977700	0.138660	6
C	4.387160	1.036900	0.100970	6
C	5.023280	2.177420	0.387510	6
H	0.517560	-0.742880	-0.241210	1
H	2.385980	1.909660	0.410990	1
H	4.912880	0.127460	-0.165180	1
H	4.494880	3.087350	0.653890	1
H	6.107810	2.221090	0.359810	1
Es	2.544749	0.396781	-0.006299	99
Es	2.274463	-0.114075	-0.134467	99
Es	2.362722	-0.396207	-0.214071	99
Es	5.037331	2.177988	0.387085	99
Es	4.656730	1.589442	0.241027	99
Es	4.701310	0.494811	-0.057755	99
Es	4.701427	1.609287	0.244728	99
Es	4.390878	1.029851	0.099526	99
Es	5.740003	2.234120	0.376782	99
Es	2.579414	0.366286	-0.015084	99
Es	1.534297	-0.035248	-0.083354	99
Es	0.934191	0.098457	-0.022530	99
Es	2.583714	1.558844	0.308566	99
Es	3.655586	0.980820	0.112673	99
Es	0.789519	0.387157	0.070138	99
Es	2.912643	0.978628	0.138948	99
Es	0.680077	-0.347115	-0.134019	99
Es	0.899735	0.139630	-0.043954	99
Es	4.667463	2.772671	0.562138	99
