29
Properties=species:S:1:pos:R:3:Z:I:1 energy=-192.81479524538267 field_type=dipole dipole="0.000000 0.000000 0.000000" charge=0
C	0.943130	-0.038520	0.013480	6
C	2.435250	-0.003190	0.023190	6
C	3.139020	1.137990	0.000000	6
C	4.545020	1.137990	0.000000	6
C	5.735180	1.137990	0.000000	6
H	0.595970	-1.073960	-0.056900	1
H	0.542780	0.505460	-0.848720	1
H	0.537680	0.390230	0.933750	1
H	2.951160	-0.960290	0.046700	1
H	2.630600	2.097660	-0.023130	1
H	6.800189	1.136360	0.000040	1
Es	2.710787	-0.514314	0.039247	99
Es	4.534962	1.138257	0.000127	99
Es	0.869436	-0.007576	0.018654	99
Es	6.288528	1.126876	-0.025474	99
Es	1.695271	-0.010933	0.023233	99
Es	5.602383	1.129900	-0.058120	99
Es	2.947274	1.379933	0.051565	99
Es	2.527861	0.007376	0.048450	99
Es	3.874961	1.143140	-0.010054	99
Es	0.762809	0.182940	0.002131	99
Es	5.406095	1.160693	0.097941	99
Es	5.144232	0.805473	0.071560	99
Es	0.700504	0.271069	-0.014367	99
Es	0.677128	-0.645250	0.033743	99
Es	2.830674	0.579161	-0.012297	99
Es	5.150704	1.463530	-0.073720	99
Es	2.852779	0.577722	-0.075593	99
Es	2.963843	1.426922	0.017870	99
