32
Properties=species:S:1:pos:R:3:Z:I:1 energy=-194.02872542671335 field_type=dipole dipole="0.000000 0.000000 0.000000" charge=0
C	1.023490	-0.023630	0.225630	6
C	2.511150	-0.103970	0.013480	6
C	3.075800	-1.224310	-0.467840	6
C	3.345080	1.044120	0.333320	6
C	2.921850	2.219050	0.817350	6
H	0.587410	0.776390	-0.382240	1
H	0.791360	0.165380	1.279250	1
H	0.519540	-0.955240	-0.055110	1
H	2.478660	-2.096730	-0.715370	1
H	4.146020	-1.309280	-0.630460	1
H	4.415340	0.930930	0.160320	1
H	1.878640	2.430360	1.023120	1
H	3.632860	3.013520	1.022240	1
Es	3.100706	1.580680	0.653657	99
Es	3.037687	2.361629	0.856726	99
Es	3.120127	2.653388	0.953236	99
Es	2.908961	0.514869	0.188793	99
Es	2.451779	-0.121375	0.006422	99
Es	0.807288	0.382327	0.395717	99
Es	2.751060	-0.555511	-0.482608	99
Es	3.051002	-1.129997	-0.365131	99
Es	4.045433	0.934131	0.193267	99
Es	2.674071	-1.782705	-0.631200	99
Es	2.868535	-0.840189	-0.053832	99
Es	2.376045	2.323729	0.931506	99
Es	1.878518	-0.083128	0.100491	99
Es	3.344443	1.042643	0.333116	99
Es	1.019956	0.009908	0.313687	99
Es	0.879308	0.224495	0.282903	99
Es	3.108084	1.633843	0.501544	99
Es	3.778512	-1.290646	-0.592851	99
Es	0.683574	-0.646793	0.027753	99
