35
Properties=species:S:1:pos:R:3:Z:I:1 energy=-195.21210571168416 field_type=dipole dipole="0.000000 0.000000 0.000000" charge=0
C	0.888760	-0.071690	-0.085170	6
C	2.411870	0.020100	0.001800	6
C	3.064070	-0.784470	-1.122210	6
C	2.852510	1.461390	-0.064910	6
C	3.522500	2.086600	0.912070	6
H	0.415160	0.485430	0.730720	1
H	0.559570	-1.113740	-0.012080	1
H	0.513860	0.333610	-1.031750	1
H	2.723750	-0.419620	0.958040	1
H	2.773690	-0.406940	-2.109160	1
H	2.768810	-1.837660	-1.065240	1
H	4.156670	-0.740470	-1.053020	1
H	2.604050	2.016210	-0.968150	1
H	3.794960	1.580280	1.832720	1
H	3.813480	3.127200	0.807110	1
Es	2.380551	-0.229989	-0.479943	99
Es	2.917016	1.419022	0.073473	99
Es	3.714733	2.742693	0.933418	99
Es	3.482328	-0.735657	-1.347146	99
Es	3.491700	2.015517	0.839627	99
Es	0.817093	-0.175366	-0.277642	99
Es	2.192801	0.028457	-0.168327	99
Es	2.602074	-0.032259	-0.140789	99
Es	0.987483	-0.012895	-0.116261	99
Es	2.628035	-0.078286	-0.392868	99
Es	0.571829	-0.385595	-0.300355	99
Es	3.499455	1.764021	0.746695	99
Es	2.892998	-1.386028	-1.089061	99
Es	2.941390	1.481773	0.147610	99
Es	3.070080	-0.627613	-1.368783	99
Es	2.361425	0.231535	-0.210225	99
Es	2.507658	0.008942	-0.264751	99
Es	1.048370	0.274477	0.303722	99
Es	2.983294	1.570543	0.151058	99
Es	3.207662	1.810511	0.940505	99
