32
Properties=species:S:1:pos:R:3:Z:I:1 energy=-194.00499794358666 field_type=dipole dipole="0.000000 0.000000 0.000000" charge=0
C	0.993190	-0.031710	0.010600	6
C	2.520000	0.000000	0.000000	6
C	3.060090	-0.764150	-1.208410	6
C	3.002020	1.361170	0.000000	6
C	3.399300	2.483070	0.000000	6
H	0.595250	0.488270	0.890130	1
H	0.624320	-1.063160	0.036880	1
H	0.573710	0.454730	-0.878310	1
H	2.874920	-0.506160	0.906280	1
H	2.732170	-0.309910	-2.150210	1
H	2.716850	-1.803780	-1.196280	1
H	4.155640	-0.772660	-1.208810	1
H	3.754950	3.487660	-0.000160	1
Es	3.453900	1.835393	-0.207567	99
Es	3.529331	2.950212	0.155792	99
Es	1.094266	0.032189	0.153367	99
Es	3.259962	2.158585	0.134944	99
Es	3.773349	-0.739148	-1.286563	99
Es	0.824833	-0.331346	-0.091570	99
Es	2.643590	0.203012	-0.181064	99
Es	2.880525	1.188179	-0.010601	99
Es	2.942737	-0.607273	-1.063156	99
Es	2.131910	-0.174638	-0.217978	99
Es	2.851439	1.586084	-0.062329	99
Es	2.815817	-1.400826	-1.203890	99
Es	3.392567	2.465694	-0.002901	99
Es	0.925135	-0.297934	0.053196	99
Es	2.975477	-0.689038	-1.216785	99
Es	1.072294	0.199036	0.240755	99
Es	2.867260	0.903789	-0.005323	99
Es	2.270934	-0.131569	-0.176171	99
Es	2.258758	0.053270	-0.403563	99
