35
Properties=species:S:1:pos:R:3:Z:I:1 energy=-195.21197963151482 field_type=dipole dipole="0.000000 0.000000 0.000000" charge=0
C	0.978040	-0.074660	0.021010	6
C	2.498770	-0.056980	0.028330	6
C	3.040780	1.371280	-0.030800	6
C	4.542800	1.385850	-0.014070	6
C	5.299420	1.881030	-1.000700	6
H	0.610710	-1.104730	0.065220	1
H	0.584880	0.387280	-0.890270	1
H	0.575210	0.467050	0.882780	1
H	2.868100	-0.635160	-0.827120	1
H	2.857820	-0.559380	0.935180	1
H	2.679020	1.942370	0.832610	1
H	2.659010	1.874250	-0.927690	1
H	5.029690	0.973160	0.867520	1
H	4.861660	2.308150	-1.897920	1
H	6.383260	1.868440	-0.929560	1
Es	1.243296	0.133613	-0.199214	99
Es	3.452017	1.558388	-0.264511	99
Es	5.278221	1.788739	-0.701695	99
Es	2.788566	0.793096	0.042309	99
Es	4.900715	1.073735	0.380564	99
Es	5.012090	1.930354	-0.736822	99
Es	3.228077	1.499207	-0.252607	99
Es	2.423925	0.103889	-0.058400	99
Es	1.177872	-0.001039	-0.112837	99
Es	5.808258	1.935120	-0.930497	99
Es	2.673539	-0.076989	0.173431	99
Es	0.907323	0.077535	0.391977	99
Es	2.932897	1.334552	-0.052398	99
Es	0.851756	-0.449253	0.045905	99
Es	4.584606	1.540918	-0.258959	99
Es	4.972401	1.891581	-1.195819	99
Es	4.921973	1.527904	-0.562473	99
Es	1.074543	-0.217990	0.128188	99
Es	2.881520	0.924835	0.049993	99
Es	2.558528	-0.068848	0.159944	99
