32
Properties=species:S:1:pos:R:3:Z:I:1 energy=-194.0050297052786 field_type=dipole dipole="0.000000 0.000000 0.000000" charge=0
C	0.957100	-0.043990	-0.001810	6
C	2.477360	-0.019010	-0.005200	6
C	3.014220	1.410840	0.008130	6
C	4.484580	1.424720	0.004720	6
C	5.685310	1.439620	0.001970	6
H	0.594910	-1.076760	-0.011500	1
H	0.554500	0.465460	-0.883120	1
H	0.558760	0.447310	0.891650	1
H	2.844310	-0.550460	-0.892040	1
H	2.848530	-0.568450	0.868830	1
H	2.646080	1.938070	0.895980	1
H	2.641840	1.956090	-0.866990	1
H	6.751210	1.452610	-0.000480	1
Es	6.298993	1.469522	0.045461	99
Es	5.104889	1.461738	-0.045394	99
Es	1.716136	-0.059573	0.021109	99
Es	2.690534	0.356644	0.116205	99
Es	5.664511	1.452754	0.008680	99
Es	3.023360	1.463737	0.100439	99
Es	2.711952	-0.224098	-0.065704	99
Es	0.839628	0.034840	0.164127	99
Es	0.720058	-0.441303	-0.174916	99
Es	0.804858	0.134224	0.138766	99
Es	5.126942	1.684807	0.188783	99
Es	2.702532	0.171638	-0.030702	99
Es	2.801849	1.721550	-0.076439	99
Es	0.786883	0.118925	-0.144417	99
Es	5.061755	1.137524	-0.161811	99
Es	2.993561	1.449347	-0.051197	99
Es	3.840879	1.446061	-0.076001	99
Es	2.535452	-0.066066	0.084892	99
Es	4.238114	1.378311	-0.017272	99
