35
Properties=species:S:1:pos:R:3:Z:I:1 energy=-195.19956910099805 field_type=dipole dipole="0.000000 0.000000 0.000000" charge=0
C	1.033210	0.011810	-0.065480	6
C	2.522990	0.003960	-0.014850	6
C	3.311650	-0.707550	-1.085150	6
C	3.323960	0.797520	-1.017480	6
C	4.557730	1.519220	-0.593220	6
H	0.639350	0.787290	0.597710	1
H	0.640850	-0.953460	0.267160	1
H	0.656780	0.203880	-1.074970	1
H	2.888790	-0.068450	1.004030	1
H	2.773550	-1.172990	-1.903530	1
H	4.200370	-1.249830	-0.780980	1
H	2.793280	1.338500	-1.793630	1
H	5.091800	0.989100	0.202620	1
H	4.301150	2.517200	-0.224770	1
H	5.237300	1.632870	-1.442680	1
Es	4.476522	1.598547	-0.583437	99
Es	2.101522	-0.294615	-0.306160	99
Es	4.672182	1.499351	-0.487951	99
Es	3.324567	-0.525987	-1.020641	99
Es	1.061145	0.173425	0.108074	99
Es	3.626981	1.101089	-0.572599	99
Es	3.621969	1.069427	-0.806655	99
Es	3.360493	-0.622545	-0.961707	99
Es	2.973033	-0.841827	-1.153116	99
Es	2.978468	0.422671	-0.605657	99
Es	2.851323	0.428713	-0.489111	99
Es	1.176768	0.305517	0.002245	99
Es	2.852493	-0.276825	-0.523471	99
Es	3.650891	0.403257	-1.077123	99
Es	4.063105	1.383244	-0.579787	99
Es	5.070094	1.436235	-0.828051	99
Es	0.921895	0.026757	-0.258327	99
Es	3.246843	0.050209	-0.834292	99
Es	2.026254	0.020871	-0.045463	99
Es	0.806954	-0.480164	0.115353	99
