34
Properties=species:S:1:pos:R:3:Z:I:1 energy=-211.18301283477936 field_type=dipole dipole="0.000000 0.000000 0.000000" charge=0
C	0.957900	-0.007550	0.008360	6
C	2.471280	0.018680	0.010370	6
C	3.154950	1.017310	0.967480	6
N	4.174480	-0.018980	1.256350	7
C	3.191300	-1.053100	0.855330	6
H	0.589210	-0.864580	-0.564020	1
H	0.558280	0.901610	-0.451850	1
H	0.552250	-0.079030	1.022800	1
H	2.870170	0.081540	-1.012450	1
H	2.564940	1.298830	1.847680	1
H	3.544960	1.927020	0.502150	1
H	4.977920	0.029090	0.628860	1
H	3.611960	-1.893070	0.295410	1
H	2.613310	-1.448370	1.699100	1
Es	0.864666	0.235442	-0.064725	99
Es	3.604486	0.500335	0.957714	99
Es	3.636055	-0.666705	1.116414	99
Es	3.583840	0.446239	1.132200	99
Es	2.779098	-0.061981	0.489733	99
Es	1.130529	-0.177576	-0.046811	99
Es	4.232784	-0.009264	1.229223	99
Es	1.412176	0.041428	0.125309	99
Es	3.364609	1.511055	0.730904	99
Es	3.212984	-0.792284	0.812682	99
Es	2.898711	-0.936821	0.916604	99
Es	0.840915	0.300370	-0.122812	99
Es	2.613123	-0.190802	0.266102	99
Es	2.478644	0.141383	0.103563	99
Es	3.974736	-0.034425	0.984574	99
Es	2.857412	1.087726	1.062425	99
Es	3.037715	0.387956	0.592446	99
Es	3.431994	-1.535473	0.523202	99
Es	4.184601	-0.006558	1.331775	99
Es	0.800070	-0.411681	-0.072015	99
