28
Properties=species:S:1:pos:R:3:Z:I:1 energy=-208.878465537315 field_type=dipole dipole="0.000000 0.000000 0.000000" charge=0
C	0.926950	-0.011840	0.010520	6
C	2.419930	0.005480	0.018180	6
C	3.139020	1.137990	0.000000	6
C	4.545020	1.137990	0.000000	6
N	5.696030	1.137990	0.000000	7
H	0.566050	-1.045400	-0.043280	1
H	0.531610	0.523530	-0.858880	1
H	0.526920	0.434880	0.925820	1
H	2.920990	-0.961110	0.036350	1
H	2.646020	2.104020	-0.017810	1
Es	2.501653	-0.135667	0.015781	99
Es	5.497513	1.168721	0.049785	99
Es	2.931969	0.702637	-0.043907	99
Es	5.386984	1.116397	-0.035421	99
Es	2.853678	0.411934	0.025267	99
Es	2.413610	-0.323623	0.033051	99
Es	0.699539	-0.678680	-0.039845	99
Es	3.085386	1.201821	-0.001139	99
Es	3.822129	1.168139	0.045231	99
Es	1.884219	0.032603	0.019494	99
Es	0.755188	0.212753	0.034986	99
Es	0.578286	0.399359	0.027634	99
Es	5.161505	0.897400	0.137375	99
Es	0.935937	-0.013081	0.011517	99
Es	4.544105	1.138247	-0.000015	99
Es	2.890898	1.614096	-0.010584	99
Es	5.159055	1.381918	-0.140220	99
Es	6.053902	1.110965	-0.023193	99
