34
Properties=species:S:1:pos:R:3:Z:I:1 energy=-211.20949311598608 field_type=dipole dipole="0.000000 0.000000 0.000000" charge=0
C	1.034590	0.017920	0.161910	6
C	2.527520	-0.122620	0.052400	6
C	3.109600	-1.333400	-0.000910	6
C	3.330540	1.147660	-0.035810	6
N	3.278620	1.896910	1.210440	7
H	0.757750	0.500070	1.104530	1
H	0.527330	-0.952280	0.126450	1
H	0.648470	0.621620	-0.665940	1
H	2.527700	-2.248080	0.054470	1
H	4.186970	-1.440610	-0.082530	1
H	2.954730	1.766750	-0.858510	1
H	4.379680	0.926990	-0.264090	1
H	2.333140	2.243960	1.355060	1
H	3.870290	2.720800	1.125300	1
Es	2.775034	0.374228	0.046174	99
Es	1.038108	-0.135975	0.158469	99
Es	3.952033	1.020293	-0.180706	99
Es	1.405964	0.091873	0.030867	99
Es	3.153716	1.456301	0.291805	99
Es	3.125299	-1.139351	-0.065005	99
Es	0.875583	-0.482217	0.116526	99
Es	3.542447	2.273178	1.104403	99
Es	0.924373	0.261749	0.437870	99
Es	2.864404	-0.724983	0.008788	99
Es	3.298968	-1.462334	0.026532	99
Es	2.791925	-1.236541	-0.069051	99
Es	3.213640	1.682130	0.792031	99
Es	3.197083	-1.403510	-0.053455	99
Es	3.118572	1.635213	0.691777	99
Es	2.524474	0.091897	0.020962	99
Es	3.251357	1.100455	0.069824	99
Es	1.246875	0.396774	0.068020	99
Es	3.033853	1.869302	1.121778	99
Es	3.305707	2.042811	1.199384	99
