28
Properties=species:S:1:pos:R:3:Z:I:1 energy=-208.87481229097364 field_type=dipole dipole="0.000000 0.000000 0.000000" charge=0
C	0.986040	0.014820	-0.006540	6
C	2.485870	-0.000070	-0.003150	6
C	3.167600	-1.158180	0.005160	6
C	3.190710	1.242490	-0.006230	6
N	3.760850	2.252600	-0.008030	7
H	0.593040	1.037080	0.021920	1
H	0.592040	-0.513860	0.868020	1
H	0.598060	-0.463660	-0.912110	1
H	2.654580	-2.115340	0.007890	1
H	4.254640	-1.181890	0.008420	1
Es	2.564757	0.327141	-0.021614	99
Es	3.499673	1.786243	-0.036600	99
Es	3.767628	2.266964	-0.013508	99
Es	3.945979	2.560073	-0.014218	99
Es	0.691607	-0.408706	-0.022279	99
Es	0.761270	0.617606	0.012600	99
Es	0.926140	0.068038	-0.022271	99
Es	3.264916	1.925063	0.029494	99
Es	3.466689	-1.181643	0.027435	99
Es	3.268117	-0.991637	-0.012354	99
Es	2.678587	0.341418	-0.005542	99
Es	3.137324	-0.749846	0.013608	99
Es	3.409644	1.415725	-0.005863	99
Es	1.866060	0.025857	0.021294	99
Es	2.845354	-0.501100	-0.016209	99
Es	2.820715	-1.775820	0.011058	99
Es	3.503577	1.470968	-0.001750	99
Es	0.809325	-0.227563	-0.007544	99
