37
Properties=species:S:1:pos:R:3:Z:I:1 energy=-212.40480011416895 field_type=dipole dipole="0.000000 0.000000 0.000000" charge=0
C	0.990350	0.003950	-0.005120	6
C	2.522860	-0.009830	0.010730	6
C	3.029600	-0.706030	1.278600	6
C	3.056660	-0.727950	-1.234530	6
N	3.002240	1.376860	0.015890	7
H	0.602970	0.506720	-0.898880	1
H	0.585690	0.523590	0.871260	1
H	0.589150	-1.015580	0.000570	1
H	2.671400	-0.200660	2.182970	1
H	4.124850	-0.721420	1.317050	1
H	2.682710	-1.744380	1.320740	1
H	2.714560	-0.240980	-2.154850	1
H	2.714350	-1.768220	-1.263600	1
H	4.152410	-0.739420	-1.250940	1
H	2.699280	1.851380	-0.834360	1
H	4.021800	1.391040	-0.000670	1
Es	2.856674	-0.118217	0.272710	99
Es	2.447194	0.076467	-0.083479	99
Es	2.286133	-0.086206	0.153131	99
Es	2.948601	-0.255493	0.706864	99
Es	2.339815	0.109585	-0.095369	99
Es	2.928103	-0.004901	0.045283	99
Es	2.031521	-0.051628	0.501909	99
Es	1.975833	-0.042936	0.222746	99
Es	2.910028	0.049277	0.201184	99
Es	2.811139	-0.234919	0.129128	99
Es	2.284810	0.091502	0.107922	99
Es	1.869417	0.169065	-0.253661	99
Es	2.456490	0.078495	-0.290493	99
Es	2.480004	-0.037072	0.241674	99
Es	2.594945	0.108298	-0.449241	99
Es	2.757261	0.019397	-0.313163	99
Es	2.752734	-0.432481	-0.066170	99
Es	2.535626	0.000580	0.043866	99
Es	2.873140	0.020851	-0.628927	99
Es	2.299344	-0.020628	-0.106279	99
Es	2.604526	0.051939	-0.384066	99
