31
Properties=species:S:1:pos:R:3:Z:I:1 energy=-210.007391760926 field_type=dipole dipole="0.000000 0.000000 0.000000" charge=0
C	1.000000	0.000000	0.000000	6
C	2.444000	0.000000	0.000000	6
C	3.634160	0.000000	0.000000	6
C	5.078160	0.000000	0.000000	6
N	5.579760	1.366420	0.018250	7
H	0.605990	1.020880	0.011670	1
H	0.605920	-0.520510	0.878260	1
H	0.605930	-0.500300	-0.889930	1
H	5.460000	-0.514040	-0.888520	1
H	5.462120	-0.533340	0.875490	1
H	5.214180	1.859620	-0.794500	1
H	6.591670	1.350040	-0.084670	1
Es	0.862526	0.341966	0.011597	99
Es	5.570341	1.322341	0.020587	99
Es	0.926693	-0.027231	-0.056111	99
Es	3.038529	-0.002231	-0.109606	99
Es	3.699122	0.002477	0.002923	99
Es	2.333670	0.010110	0.006159	99
Es	2.992105	-0.346065	0.054417	99
Es	5.416511	-0.286897	0.062707	99
Es	0.681943	-0.143162	0.020553	99
Es	5.239765	0.720306	0.015767	99
Es	0.847144	-0.203887	0.020077	99
Es	5.506525	1.529505	0.007890	99
Es	4.982087	-0.063002	0.017971	99
Es	1.912105	0.016305	-0.018250	99
Es	5.472392	1.361527	-0.261461	99
Es	3.079610	0.307169	0.037786	99
Es	4.425533	0.058088	0.010309	99
Es	6.085915	1.283021	-0.050753	99
Es	5.182812	0.043701	-0.050849	99
