34
Properties=species:S:1:pos:R:3:Z:I:1 energy=-211.18204721290894 field_type=dipole dipole="0.000000 0.000000 0.000000" charge=0
C	1.203750	0.296750	0.098780	6
C	2.685520	0.065230	-0.159130	6
N	3.391390	1.349890	-0.170550	7
C	3.995990	1.702870	1.110690	6
C	4.838300	1.208400	-0.037200	6
H	0.663440	-0.654860	0.070060	1
H	0.766320	0.953910	-0.661190	1
H	1.036750	0.749990	1.082090	1
H	2.802950	-0.409470	-1.139810	1
H	3.075120	-0.640130	0.586050	1
H	3.838500	1.050490	1.960680	1
H	4.021400	2.761090	1.341170	1
H	5.432930	1.932460	-0.580850	1
H	5.260580	0.212410	0.019030	1
Es	3.559518	1.207141	0.211572	99
Es	1.096846	0.112397	0.146034	99
Es	1.097248	0.443619	0.448493	99
Es	2.960881	0.535959	0.007465	99
Es	3.193245	0.461659	-0.000244	99
Es	3.974654	2.251671	1.169099	99
Es	1.870777	0.246186	-0.232818	99
Es	4.766422	1.198912	0.033881	99
Es	3.523305	1.414823	0.853681	99
Es	5.184694	1.139821	-0.286797	99
Es	2.327594	-0.008903	-0.579572	99
Es	3.478256	1.244537	0.191784	99
Es	4.762482	1.334709	0.090288	99
Es	0.877187	0.196916	0.008915	99
Es	2.044523	0.270671	-0.024253	99
Es	4.497946	1.439999	0.578534	99
Es	4.312076	1.267330	0.136318	99
Es	3.633404	1.193711	0.102711	99
Es	2.332555	0.075866	-0.155746	99
Es	3.935952	1.595222	0.997810	99
