35
Properties=species:S:1:pos:R:3:Z:I:1 energy=-195.19894854817682 field_type=dipole dipole="0.000000 0.000000 0.000000" charge=0
C	3.180110	-1.135490	-0.416900	6
C	2.443670	0.068560	0.147520	6
C	3.322260	1.282350	0.175890	6
C	3.453620	2.160580	-1.041460	6
C	2.706820	2.657770	0.165330	6
H	2.528590	-2.014260	-0.418310	1
H	4.068100	-1.368130	0.180300	1
H	3.507490	-0.949090	-1.444800	1
H	2.113920	-0.153760	1.167800	1
H	1.543180	0.252220	-0.449250	1
H	4.201690	1.138770	0.795450	1
H	2.879220	1.912500	-1.926970	1
H	4.425790	2.592870	-1.251800	1
H	3.173660	3.426920	0.770090	1
H	1.628660	2.745790	0.093470	1
Es	2.777350	-0.465628	-0.125069	99
Es	2.903816	-1.659453	-0.366793	99
Es	3.434666	2.053117	-0.839534	99
Es	2.823129	2.904556	0.388988	99
Es	3.490485	-1.154795	-0.499189	99
Es	3.087061	-0.878123	-0.293458	99
Es	3.304131	2.176018	-0.508265	99
Es	3.368109	2.293070	-0.707687	99
Es	2.568876	0.366490	0.061583	99
Es	2.900185	0.883762	0.134110	99
Es	3.259175	2.046736	-0.481810	99
Es	2.400995	0.043220	0.588944	99
Es	2.662926	2.588745	0.068901	99
Es	2.712137	0.404475	0.160484	99
Es	3.326613	2.042337	-0.649245	99
Es	3.242712	1.819175	-0.184419	99
Es	3.412203	1.899772	-0.730675	99
Es	2.593498	2.510386	0.245587	99
Es	2.751349	0.096559	0.283923	99
Es	3.335418	-1.070922	-0.706170	99
