34
Properties=species:S:1:pos:R:3:Z:I:1 energy=-211.19981110236873 field_type=dipole dipole="0.000000 0.000000 0.000000" charge=0
C	1.119890	-0.164880	0.003450	6
N	2.563570	-0.065480	-0.156590	7
C	3.023110	1.296170	0.096170	6
C	4.512040	1.345160	-0.058720	6
C	5.163150	2.135020	-0.921980	6
H	0.801790	-1.194300	-0.189910	1
H	0.591100	0.487690	-0.698890	1
H	0.815770	0.086840	1.024810	1
H	2.811520	-0.317610	-1.112990	1
H	2.774390	1.597570	1.120630	1
H	2.537180	2.001280	-0.590000	1
H	5.084920	0.689220	0.593490	1
H	4.636800	2.808670	-1.590800	1
H	6.247650	2.118580	-0.976460	1
Es	2.756380	0.884823	0.115435	99
Es	4.603047	1.108868	0.177486	99
Es	1.552851	-0.139710	0.019002	99
Es	0.939549	-0.792733	-0.121911	99
Es	2.987764	1.248328	0.081632	99
Es	4.097394	1.180186	0.050672	99
Es	2.662847	-0.113618	-0.050556	99
Es	5.754960	2.128556	-0.960076	99
Es	4.674699	1.816756	-0.501800	99
Es	0.890934	0.087256	0.225188	99
Es	2.828199	1.655229	-0.196997	99
Es	4.981113	2.171099	-0.829854	99
Es	1.186268	-0.004325	-0.168564	99
Es	5.082683	2.018882	-0.849401	99
Es	2.203742	-0.051414	-0.070738	99
Es	1.480318	-0.015785	-0.019175	99
Es	4.637907	1.590426	-0.243523	99
Es	2.698393	0.549308	0.003506	99
Es	4.764435	1.952920	-0.833698	99
Es	2.867892	0.418750	-0.162265	99
