30
Properties=species:S:1:pos:R:3:Z:I:1 energy=-226.0516279828833 field_type=dipole dipole="0.000000 0.000000 0.000000" charge=0
C	0.969190	-0.024680	-0.009900	6
N	2.424410	0.014390	0.013490	7
C	2.915780	1.400870	0.029760	6
C	4.393150	1.474720	0.005520	6
N	5.550840	1.545730	-0.037360	7
H	0.632510	-1.065990	-0.011780	1
H	0.568430	0.460190	-0.906000	1
H	0.545830	0.456470	0.877680	1
H	2.790420	-0.461420	-0.812180	1
H	2.554650	1.907380	0.932410	1
H	2.524130	1.946050	-0.837330	1
Es	5.473262	1.614601	-0.012328	99
Es	0.910996	0.114944	-0.082727	99
Es	0.938970	0.011082	0.053742	99
Es	3.290321	1.656733	-0.000405	99
Es	2.657678	0.628264	-0.093840	99
Es	2.441150	0.004592	0.041972	99
Es	0.685402	-0.557115	-0.090427	99
Es	4.990118	1.245685	-0.000463	99
Es	5.904423	1.553929	-0.067944	99
Es	4.601496	1.482738	0.008616	99
Es	3.031837	1.586019	0.026432	99
Es	4.930082	1.508279	-0.011729	99
Es	0.979849	0.326757	-0.023855	99
Es	1.369692	0.022851	0.089813	99
Es	2.759676	0.783606	0.033772	99
Es	2.741438	1.589004	0.095839	99
Es	5.024365	1.707712	-0.072325	99
Es	2.637476	-0.266033	-0.251569	99
Es	2.675316	0.625732	0.065637	99
