38
Properties=species:S:1:pos:R:3:Z:I:1 energy=-196.40308517955899 field_type=dipole dipole="0.000000 0.000000 0.000000" charge=0
C	0.997820	-0.067240	0.013060	6
C	2.517800	-0.031700	0.024550	6
C	3.043930	1.402840	-0.012450	6
C	4.571780	1.435180	-0.013020	6
C	5.100470	2.860170	-0.046890	6
H	0.642690	-1.102420	0.042190	1
H	0.600900	0.402330	-0.892790	1
H	0.586070	0.457610	0.881120	1
H	2.896460	-0.589770	-0.839520	1
H	2.882670	-0.538910	0.924290	1
H	2.665050	1.955870	0.855820	1
H	2.666150	1.910760	-0.908250	1
H	4.955710	0.888230	-0.882840	1
H	4.955940	0.930010	0.882240	1
H	4.758050	3.383580	-0.945010	1
H	6.194350	2.858720	-0.050500	1
H	4.763940	3.423610	0.828970	1
Es	5.025073	2.970878	-0.167621	99
Es	4.790750	2.163357	-0.091835	99
Es	1.390466	-0.028489	0.070973	99
Es	4.847177	3.104050	0.057539	99
Es	4.726938	1.406968	0.172087	99
Es	4.700612	1.273586	0.245699	99
Es	0.793869	-0.717237	-0.003254	99
Es	1.668973	-0.018737	-0.062112	99
Es	1.653828	-0.004050	-0.028219	99
Es	2.694068	-0.251609	0.059633	99
Es	3.830666	1.419607	-0.053498	99
Es	1.322708	0.040993	0.029515	99
Es	2.857960	1.529532	-0.263999	99
Es	4.756871	1.381472	-0.373380	99
Es	5.012090	2.720060	-0.063953	99
Es	5.743792	2.860335	0.015330	99
Es	0.815734	0.318074	0.080886	99
Es	2.668797	0.890461	-0.044772	99
Es	2.786827	-0.291424	0.039195	99
Es	3.016923	1.519793	-0.083263	99
Es	2.869249	1.508255	0.308373	99
