30
Properties=species:S:1:pos:R:3:Z:I:1 energy=-229.8717153962479 field_type=dipole dipole="0.000000 0.000000 0.000000" charge=0
C	-0.361690	1.166700	0.139110	6
O	-1.200590	-0.001160	0.164310	8
C	-0.363860	-1.170010	0.126190	6
C	1.020590	-0.667810	-0.026540	6
C	1.021930	0.662820	-0.019120	6
H	-0.489520	1.714370	1.077300	1
H	-0.664720	1.800420	-0.699060	1
H	-0.668100	-1.793710	-0.718830	1
H	-0.492870	-1.727940	1.057990	1
H	1.891190	-1.298710	-0.122340	1
H	1.893870	1.294080	-0.107990	1
Es	-0.560108	-1.671922	0.142154	99
Es	-0.554543	1.665450	0.192933	99
Es	-0.439667	1.475646	0.154896	99
Es	1.600387	-1.103156	-0.091390	99
Es	-0.255452	-0.543444	0.088633	99
Es	-0.530702	-0.704623	0.135366	99
Es	1.427472	0.890188	-0.103751	99
Es	-1.219645	0.140832	0.116335	99
Es	-1.128790	-0.038957	0.260758	99
Es	0.761481	0.120070	-0.186605	99
Es	1.015022	-0.569928	-0.022267	99
Es	-0.313190	1.137617	0.133695	99
Es	0.344690	-0.951454	0.028655	99
Es	-1.269082	0.092914	0.251774	99
Es	0.456566	0.938951	0.053164	99
Es	-0.444600	-1.461356	0.180847	99
Es	1.197684	0.748845	0.003048	99
Es	0.773290	-0.085871	0.213454	99
Es	-1.169004	-0.114977	0.015630	99
