38
Properties=species:S:1:pos:R:3:Z:I:1 energy=-196.40400484910373 field_type=dipole dipole="0.000000 0.000000 0.000000" charge=0
C	0.988680	-0.011000	-0.005440	6
C	2.523680	-0.007510	0.010670	6
C	3.023750	-0.719060	1.275630	6
C	3.050110	-0.740850	-1.230920	6
C	3.032180	1.440900	0.003430	6
H	0.600630	0.492600	-0.898180	1
H	0.582010	0.505400	0.871570	1
H	0.594700	-1.033730	-0.002200	1
H	2.664930	-0.216460	2.181090	1
H	4.118940	-0.734370	1.314950	1
H	2.674650	-1.757390	1.310450	1
H	2.707750	-0.256090	-2.152340	1
H	2.704380	-1.780640	-1.253290	1
H	4.145890	-0.753730	-1.248650	1
H	2.691730	1.975930	-0.890470	1
H	4.127530	1.476390	0.015900	1
H	2.671060	1.992040	0.879240	1
Es	2.221160	-0.289847	-0.091522	99
Es	2.789027	-0.213274	0.251800	99
Es	2.130395	0.618876	0.254307	99
Es	2.774072	0.078900	-0.122033	99
Es	2.679630	0.253597	-0.052128	99
Es	2.963496	-0.553427	0.579869	99
Es	2.662443	0.212374	-0.210859	99
Es	3.018863	-0.217227	-0.490636	99
Es	2.573237	0.332668	0.314521	99
Es	2.503569	-0.622238	0.184327	99
Es	2.156395	-0.105753	-0.133141	99
Es	2.589401	0.163401	0.451511	99
Es	1.719821	-0.133708	-0.031715	99
Es	2.715319	-0.168086	-0.021672	99
Es	2.078604	-0.381102	-0.413568	99
Es	2.444741	0.044919	0.062854	99
Es	2.777663	0.477246	0.114529	99
Es	2.353989	-0.072544	0.307214	99
Es	2.798447	0.110776	-0.779149	99
Es	2.550884	-0.018984	0.168847	99
Es	2.496143	0.325849	-0.119211	99
