33
Properties=species:S:1:pos:R:3:Z:I:1 energy=-231.0268653017867 field_type=dipole dipole="0.000000 0.000000 0.000000" charge=0
C	1.034260	0.010430	-0.066900	6
C	2.524830	0.000720	-0.015380	6
C	3.313150	-0.696190	-1.092280	6
C	3.320680	0.804850	-1.007760	6
O	4.526930	1.402710	-0.517660	8
H	0.641520	0.793700	0.586960	1
H	0.640820	-0.950340	0.276630	1
H	0.658290	0.190860	-1.078600	1
H	2.887330	-0.071930	1.003280	1
H	2.777780	-1.149060	-1.918920	1
H	4.208210	-1.234840	-0.804170	1
H	2.781880	1.346550	-1.779150	1
H	4.938360	0.880600	0.191640	1
Es	3.316162	-0.163023	-0.889740	99
Es	3.519457	0.216932	-0.872256	99
Es	4.607366	1.440596	-0.590210	99
Es	4.571439	1.365721	-0.530736	99
Es	2.634249	0.127781	-0.215145	99
Es	3.948401	1.024287	-0.644309	99
Es	4.514741	1.541260	-0.323789	99
Es	2.015272	0.087831	-0.208053	99
Es	0.732756	-0.551163	-0.062392	99
Es	1.008451	0.111747	-0.022871	99
Es	1.731355	-0.022413	-0.110694	99
Es	1.805165	0.149318	0.023920	99
Es	3.074792	-0.562790	-1.124283	99
Es	2.567802	-0.566824	-0.697629	99
Es	3.364102	0.194250	-0.908217	99
Es	4.082746	0.674208	-0.709351	99
Es	2.813517	0.610059	-0.623026	99
Es	3.552252	-0.744684	-1.044296	99
Es	0.917942	0.291077	-0.085293	99
Es	3.762374	0.804390	-0.809446	99
