33
Properties=species:S:1:pos:R:3:Z:I:1 energy=-231.03436541262613 field_type=dipole dipole="0.000000 0.000000 0.000000" charge=0
C	0.835490	-0.017060	-0.230180	6
C	2.288920	-0.127230	0.101900	6
C	2.665220	-0.058290	1.545840	6
C	3.233630	-0.771730	-0.887050	6
O	3.136250	0.654330	-0.753850	8
H	0.661870	-0.009890	-1.311650	1
H	0.415280	0.905660	0.182750	1
H	0.285640	-0.864160	0.192890	1
H	3.750910	-0.086820	1.687820	1
H	2.232500	-0.903990	2.090880	1
H	2.292590	0.867430	1.997110	1
H	2.828870	-1.217410	-1.787200	1
H	4.134480	-1.247000	-0.519820	1
Es	2.977950	-0.125628	-0.758801	99
Es	2.902747	-0.224929	-0.464909	99
Es	0.730234	0.181496	-0.128947	99
Es	3.435295	-0.404795	-0.728697	99
Es	2.364197	0.055405	0.235100	99
Es	2.877815	0.074519	-0.571855	99
Es	2.942162	-0.078390	-0.485758	99
Es	1.333540	0.006558	-0.736315	99
Es	2.686307	-0.068062	0.061003	99
Es	1.469263	-0.019406	0.067817	99
Es	3.229399	-0.443364	-0.839934	99
Es	3.200740	-0.079054	1.648167	99
Es	0.473600	-0.179195	0.139235	99
Es	2.499685	-0.005072	0.987779	99
Es	2.441862	-0.064878	1.591212	99
Es	1.354108	-0.007228	0.155822	99
Es	2.849550	0.040778	-0.428302	99
Es	2.512537	0.085816	1.681721	99
Es	2.792082	-0.086038	-0.613891	99
Es	2.932396	-0.046906	-1.055936	99
