33
Properties=species:S:1:pos:R:3:Z:I:1 energy=-231.030715879722 field_type=dipole dipole="0.000000 0.000000 0.000000" charge=0
C	0.935170	-0.009590	0.043350	6
C	2.447920	0.021590	0.003810	6
C	3.144120	1.014350	0.941360	6
O	4.007300	-0.029160	1.458570	8
C	3.184140	-1.041170	0.829870	6
H	0.553550	-0.869100	-0.517290	1
H	0.520500	0.896770	-0.408730	1
H	0.556890	-0.079740	1.068150	1
H	2.824000	0.084740	-1.025270	1
H	2.529840	1.445200	1.738420	1
H	3.713340	1.804490	0.443940	1
H	3.780860	-1.750260	0.250110	1
H	2.587500	-1.578970	1.573280	1
Es	1.471762	-0.024511	0.002129	99
Es	0.973117	-0.396707	-0.064435	99
Es	2.324701	0.041483	0.063740	99
Es	4.175481	-0.008327	1.438086	99
Es	2.958366	0.734368	0.858196	99
Es	3.034414	1.064223	0.996924	99
Es	1.015036	0.108146	-0.024152	99
Es	3.296699	0.760896	0.918044	99
Es	0.861664	0.026062	-0.050059	99
Es	3.755953	0.026547	1.437624	99
Es	2.998437	-0.679757	0.575556	99
Es	4.127543	-0.059208	1.461674	99
Es	2.663515	-0.176087	0.334353	99
Es	3.691408	-0.429832	1.217567	99
Es	2.949923	0.472316	0.509799	99
Es	3.354539	1.211036	0.946146	99
Es	3.213445	-1.238024	0.783745	99
Es	0.854282	0.277007	0.000896	99
Es	2.920041	-0.589250	0.719204	99
Es	3.246827	-1.309477	0.867943	99
