33
Properties=species:S:1:pos:R:3:Z:I:1 energy=-231.02735386815036 field_type=dipole dipole="0.000000 0.000000 0.000000" charge=0
C	1.036690	0.134000	0.091610	6
C	2.518060	-0.071800	-0.174190	6
C	3.268000	1.219150	-0.094500	6
C	3.864880	1.700090	1.200130	6
O	4.664570	1.071800	0.187350	8
H	0.499670	-0.816940	0.019160	1
H	0.601150	0.829690	-0.632960	1
H	0.871760	0.546180	1.092220	1
H	2.652270	-0.501270	-1.173900	1
H	2.916280	-0.799870	0.543730	1
H	2.979420	1.940290	-0.847450	1
H	3.675770	1.140160	2.107220	1
H	3.990200	2.766220	1.343620	1
Es	2.915919	0.566183	-0.136277	99
Es	4.062289	1.511374	0.958078	99
Es	2.572833	-0.005372	-0.356226	99
Es	2.613597	-0.245106	-0.588396	99
Es	0.960472	0.128758	-0.030224	99
Es	4.227531	1.133695	0.209133	99
Es	4.333120	1.722518	0.811339	99
Es	3.823941	1.458074	0.882731	99
Es	0.999950	0.443410	0.571133	99
Es	4.614518	1.038835	0.247229	99
Es	3.306492	0.570029	0.100545	99
Es	3.860410	1.854468	1.284697	99
Es	4.021061	1.265400	0.410536	99
Es	0.715461	-0.083400	-0.119357	99
Es	2.774706	0.192901	0.032974	99
Es	1.628758	0.098213	-0.066202	99
Es	1.141633	0.081425	0.084791	99
Es	3.523324	1.433444	0.509508	99
Es	3.420691	1.269921	0.056842	99
Es	4.518052	1.301586	0.125289	99
