30
Properties=species:S:1:pos:R:3:Z:I:1 energy=-229.88715873610425 field_type=dipole dipole="0.000000 0.000000 0.000000" charge=0
C	0.991940	0.036470	0.024540	6
C	2.484550	-0.043420	0.008110	6
C	3.184750	-1.176370	0.172400	6
C	3.229640	1.224220	-0.205470	6
O	2.667120	2.300380	-0.363540	8
H	0.652170	0.698910	0.827080	1
H	0.534810	-0.945130	0.187760	1
H	0.618030	0.422900	-0.928850	1
H	2.679380	-2.125160	0.331240	1
H	4.269430	-1.200240	0.155050	1
H	4.329740	1.141790	-0.213910	1
Es	3.866189	-1.283461	0.168747	99
Es	2.584799	-0.362369	0.126838	99
Es	2.361734	-0.244522	-0.030113	99
Es	2.842886	0.584835	-0.088669	99
Es	2.833044	1.972333	-0.365402	99
Es	2.673296	2.297579	-0.375846	99
Es	2.843030	-0.606681	0.084832	99
Es	3.972976	1.158148	-0.213456	99
Es	2.665890	1.922329	-0.306349	99
Es	3.216586	1.289893	-0.209842	99
Es	2.922340	-1.668811	0.258459	99
Es	2.473575	2.525020	-0.394280	99
Es	0.774343	-0.473469	0.115117	99
Es	2.998334	2.128558	-0.282356	99
Es	0.963239	-0.004001	0.031795	99
Es	0.847485	0.265793	0.014822	99
Es	3.155938	-1.234240	0.180705	99
Es	0.682602	0.476966	-0.054918	99
Es	2.125020	-0.078101	0.011048	99
