36
Properties=species:S:1:pos:R:3:Z:I:1 energy=-232.23894686896432 field_type=dipole dipole="0.000000 0.000000 0.000000" charge=0
C	0.998070	-0.026560	0.012450	6
C	2.524500	0.012500	-0.022840	6
C	3.049550	-0.759330	-1.235550	6
C	3.021320	1.461030	-0.026240	6
O	4.441710	1.509260	0.040760	8
H	0.616840	0.489690	0.899700	1
H	0.635780	-1.059410	0.045850	1
H	0.567520	0.455220	-0.871670	1
H	2.908580	-0.488280	0.875670	1
H	2.719780	-0.297590	-2.171970	1
H	2.688190	-1.793270	-1.222620	1
H	4.143550	-0.791680	-1.239570	1
H	2.624580	2.014080	0.831440	1
H	2.709540	1.983020	-0.936370	1
H	4.711170	1.052970	0.856360	1
Es	2.625689	0.259633	-0.087149	99
Es	0.979593	0.108558	-0.003872	99
Es	4.468983	1.548599	0.140545	99
Es	2.697498	0.031244	-0.375053	99
Es	3.037332	-0.533682	-0.929976	99
Es	1.585282	-0.073819	-0.171947	99
Es	3.011789	-0.818140	-1.344287	99
Es	4.292537	1.637960	0.142405	99
Es	3.762420	1.322501	0.065213	99
Es	3.176087	1.546371	-0.026073	99
Es	0.855565	0.051082	0.064803	99
Es	2.758509	0.450576	0.008125	99
Es	2.712169	-0.675349	-0.805372	99
Es	1.078300	0.214390	0.215029	99
Es	0.885913	-0.376080	0.022597	99
Es	4.489521	1.321854	-0.101729	99
Es	2.869391	-0.851358	-1.295311	99
Es	2.778870	1.742307	0.261721	99
Es	4.434242	1.506243	0.077972	99
Es	3.329321	-0.672530	-1.099586	99
Es	2.996591	1.234081	0.002390	99
