29
Properties=species:S:1:pos:R:3:Z:I:1 energy=-192.8591308125141 field_type=dipole dipole="0.000000 0.000000 0.000000" charge=0
C	0.000460	1.268890	0.008860	6
C	1.164770	0.323120	0.004110	6
C	0.720970	-0.943870	-0.002610	6
C	-0.721200	-0.942500	-0.002840	6
C	-1.164440	0.322560	0.003710	6
H	0.000100	1.902330	-0.883300	1
H	-0.000190	1.892950	0.907610	1
H	2.200500	0.626090	0.005860	1
H	1.327930	-1.835660	-0.007170	1
H	-1.328890	-1.834080	-0.007620	1
H	-2.199970	0.625980	0.005140	1
Es	1.769798	0.502358	-0.005659	99
Es	-0.113596	1.321014	-0.007498	99
Es	-0.322408	-0.964851	-0.013205	99
Es	-0.402733	-0.962610	-0.015536	99
Es	0.934679	-0.176920	-0.061665	99
Es	-0.456052	0.977035	0.077474	99
Es	-0.966408	-0.289089	0.224240	99
Es	-0.910263	-0.334165	-0.186651	99
Es	0.613478	0.943636	0.018182	99
Es	-1.844340	0.500974	-0.009663	99
Es	-0.028684	1.671880	0.128210	99
Es	-1.164414	0.292718	0.002604	99
Es	0.956158	-0.357980	0.075743	99
Es	0.739211	-0.913140	-0.003335	99
Es	1.125915	-1.553812	-0.002249	99
Es	0.027510	1.387693	-0.184605	99
Es	-1.129786	-1.558020	-0.020733	99
Es	1.173399	0.250473	0.028106	99
