35
Properties=species:S:1:pos:R:3:Z:I:1 energy=-247.82180776661042 field_type=dipole dipole="0.000000 0.000000 0.000000" charge=0
C	-1.358320	0.096230	-0.390120	6
C	-0.467970	-0.682360	0.652350	6
N	-0.549690	0.626220	1.452180	7
C	-0.298060	1.180290	0.042150	6
C	1.039270	0.622820	-0.272070	6
C	0.923630	-0.643770	0.143000	6
H	-1.323900	-0.247180	-1.428660	1
H	-2.400640	0.284320	-0.106340	1
H	-0.836080	-1.587780	1.133050	1
H	-1.476930	0.831270	1.819810	1
H	-0.486870	2.240350	-0.121370	1
H	1.888070	1.123690	-0.703940	1
H	1.654460	-1.433130	0.133980	1
Es	-0.608378	0.540022	0.366185	99
Es	-0.634244	0.535400	0.283712	99
Es	-0.648953	0.129149	0.417179	99
Es	-0.427323	0.265000	0.271785	99
Es	0.231055	-0.126754	0.242033	99
Es	0.690783	-0.198889	0.034542	99
Es	-0.887926	0.186874	0.562881	99
Es	-0.524648	0.208404	0.392241	99
Es	0.565021	-0.011862	0.125139	99
Es	0.948799	-0.261048	0.185660	99
Es	-0.511422	0.121518	0.401268	99
Es	0.557369	0.101473	0.151436	99
Es	1.296762	0.921118	-0.451212	99
Es	-0.457261	0.941746	0.221917	99
Es	-0.462368	0.732672	0.247817	99
Es	-1.275981	0.373499	0.450665	99
Es	0.333999	-0.666289	0.381977	99
Es	-0.748552	0.167183	0.334171	99
Es	-0.382444	0.392165	0.278870	99
Es	-0.374327	-0.292902	0.495537	99
Es	-0.949131	0.309630	0.569053	99
Es	0.478373	0.179002	0.130534	99
