34
Properties=species:S:1:pos:R:3:Z:I:1 energy=-263.85707510336294 field_type=dipole dipole="0.000000 0.000000 0.000000" charge=0
C	0.398340	1.562160	0.468350	6
C	0.890490	0.355860	-0.277410	6
N	0.940400	-0.961120	0.374670	7
N	-0.365380	-1.390770	0.501960	7
C	-1.203650	-0.461810	0.163900	6
C	-0.558010	0.748310	-0.356960	6
H	0.687060	2.537790	0.097360	1
H	0.331760	1.501040	1.548750	1
H	1.521370	0.503290	-1.145460	1
H	1.496070	-1.655760	-0.128580	1
H	-2.297670	-0.557210	0.213880	1
H	-0.923440	1.148280	-1.292190	1
Es	-0.051036	-1.115789	0.364454	99
Es	1.257826	-1.269996	0.301405	99
Es	0.910541	-0.868758	0.295497	99
Es	0.819627	1.068669	0.001580	99
Es	0.113971	-1.203123	0.298677	99
Es	-0.624326	-1.360965	0.442024	99
Es	-0.439694	-0.999907	0.432074	99
Es	-0.309210	1.068171	-0.131519	99
Es	0.770522	0.512685	-0.031930	99
Es	-0.153055	1.226139	0.064296	99
Es	0.521363	1.434235	0.201457	99
Es	-0.031165	0.852423	0.021806	99
Es	0.836274	0.365988	-0.038723	99
Es	-1.920232	-0.547246	0.169471	99
Es	-0.520170	-0.955190	0.266241	99
Es	0.660181	-0.950278	0.334935	99
Es	-0.579158	-0.306585	-0.030933	99
Es	-0.947956	-0.323703	0.039471	99
Es	1.003995	-0.116824	0.045767	99
Es	-0.570658	0.347016	-0.084481	99
Es	0.488140	2.013978	0.196335	99
Es	-0.257252	1.045426	-0.229614	99
