38
Properties=species:S:1:pos:R:3:Z:I:1 energy=-249.05854153642517 field_type=dipole dipole="0.000000 0.000000 0.000000" charge=0
C	0.803300	1.350090	-0.639790	6
C	-0.326610	0.971600	0.278220	6
C	-1.380760	0.004820	-0.167970	6
C	-0.739140	-1.374560	0.035950	6
N	0.717280	-1.173460	-0.082990	7
C	0.969560	0.217250	0.324980	6
H	0.723290	1.115880	-1.694880	1
H	1.336740	2.270390	-0.433770	1
H	-0.595560	1.601330	1.112000	1
H	-2.297360	0.104420	0.421470	1
H	-1.624530	0.169280	-1.223720	1
H	-0.967290	-1.735990	1.046100	1
H	-1.107150	-2.110830	-0.683980	1
H	1.205460	-1.843420	0.510130	1
H	1.623110	0.367710	1.177960	1
Es	-0.827205	-1.739298	0.474663	99
Es	0.171415	-0.147523	0.082244	99
Es	0.444513	-1.137479	-0.068522	99
Es	-1.340137	0.033825	-0.210713	99
Es	-1.314857	-0.733391	-0.047427	99
Es	-0.089787	1.177766	-0.045497	99
Es	-0.036691	1.061148	-0.035248	99
Es	-1.459137	0.115950	-0.009623	99
Es	0.328661	-0.015454	0.163311	99
Es	-0.770246	-1.422921	-0.053694	99
Es	1.131898	1.931687	-0.467267	99
Es	0.848758	0.927220	-0.176649	99
Es	0.962043	0.476312	0.166418	99
Es	0.740302	-1.273047	0.124193	99
Es	1.019734	-1.019459	-0.104971	99
Es	0.676883	-1.231608	0.064873	99
Es	0.948167	0.719004	-0.145165	99
Es	-0.478668	0.015453	-0.182980	99
Es	-0.106172	0.997896	-0.050950	99
Es	0.911755	0.605255	0.052531	99
Es	-0.772880	-1.239264	0.025155	99
Es	0.149275	1.141679	-0.213708	99
Es	-1.454411	0.115989	-0.165232	99
