42
Properties=species:S:1:pos:R:3:Z:I:1 energy=-234.24775103358746 field_type=dipole dipole="0.000000 0.000000 0.000000" charge=0
C	3.061590	-1.167390	-0.496710	6
C	2.472830	0.062250	0.175420	6
C	3.440840	1.206560	0.168250	6
C	3.533320	2.122240	-1.027040	6
C	2.928770	2.623610	0.259230	6
C	3.652680	3.630210	1.086550	6
H	2.346570	-1.995470	-0.471490	1
H	3.977910	-1.490380	0.008630	1
H	3.311280	-0.961220	-1.542790	1
H	2.217320	-0.179630	1.213200	1
H	1.539260	0.336420	-0.329830	1
H	4.359540	0.964910	0.692880	1
H	2.867330	1.951740	-1.865690	1
H	4.516300	2.478840	-1.314430	1
H	1.856530	2.785460	0.280890	1
H	4.736890	3.480210	1.063090	1
H	3.322600	3.567590	2.127900	1
H	3.440500	4.639600	0.721280	1
Es	3.593637	2.178429	-1.116532	99
Es	3.190763	-1.140019	-0.661745	99
Es	2.841505	0.564998	0.459557	99
Es	2.554647	-0.151272	-0.146827	99
Es	3.524869	1.407503	0.071026	99
Es	3.538558	3.613555	1.245733	99
Es	3.171406	2.905781	0.527109	99
Es	3.325499	2.291445	-0.438919	99
Es	3.260637	2.696570	-0.212332	99
Es	3.162072	-1.092522	-0.870820	99
Es	3.261127	2.314216	-0.415723	99
Es	2.992770	0.545850	0.075941	99
Es	2.587828	-0.036684	0.234497	99
Es	3.483477	1.522011	-0.339503	99
Es	2.769077	-0.769898	-0.106950	99
Es	3.721336	4.015401	0.881847	99
Es	2.761648	-0.659594	-0.169296	99
Es	3.394906	1.600373	-0.060736	99
Es	3.654849	2.116616	-0.666377	99
Es	2.849159	0.564931	0.047197	99
Es	3.457810	3.773703	1.393545	99
Es	2.743374	-1.355862	-0.420182	99
Es	3.283300	3.095340	0.675054	99
Es	3.401870	3.219256	0.791006	99
