40
Properties=species:S:1:pos:R:3:Z:I:1 energy=-266.26382611868536 field_type=dipole dipole="0.000000 0.000000 0.000000" charge=0
C	0.723490	1.198730	-0.236540	6
C	-0.749390	1.206030	0.228910	6
N	-1.485230	0.001180	-0.181780	7
C	-0.750080	-1.208360	0.213520	6
C	0.722110	-1.196150	-0.251760	6
N	1.457840	-0.001950	0.203590	7
H	0.770140	1.271440	-1.330500	1
H	1.231450	2.084840	0.159520	1
H	-1.252600	2.085260	-0.187430	1
H	-0.786910	1.300140	1.321410	1
H	-2.407330	-0.000570	0.250450	1
H	-0.788130	-1.316170	1.304780	1
H	-1.254320	-2.081630	-0.213920	1
H	1.229590	-2.087480	0.133340	1
H	0.769110	-1.255180	-1.346370	1
H	1.466180	-0.008200	1.223210	1
Es	-0.586650	1.140136	0.144813	99
Es	1.069867	-1.813228	-0.025144	99
Es	0.040212	0.363184	0.097491	99
Es	0.771061	-0.720892	-0.212712	99
Es	-1.717122	0.074244	0.025803	99
Es	1.827980	0.018472	0.062745	99
Es	-1.064932	1.700141	-0.028526	99
Es	-0.919377	-0.930219	0.343333	99
Es	0.187253	1.086237	-0.226610	99
Es	1.057022	1.778910	0.015772	99
Es	0.984228	-0.723935	-0.077415	99
Es	0.033988	-1.115094	-0.074411	99
Es	-1.517534	-0.134974	-0.146940	99
Es	-1.065800	-1.758503	-0.071643	99
Es	0.877844	0.028576	-0.004068	99
Es	-0.836995	-1.038603	0.183484	99
Es	-1.407532	-0.091574	-0.016125	99
Es	-0.507654	1.114700	0.141568	99
Es	-1.130641	-0.471402	0.280766	99
Es	0.766410	-1.088344	-0.218540	99
Es	1.272884	0.229324	0.135370	99
Es	-0.731054	0.986972	0.205051	99
Es	1.219939	0.161946	0.131647	99
Es	0.727477	1.199042	-0.232142	99
