37
Properties=species:S:1:pos:R:3:Z:I:1 energy=-265.10681396084794 field_type=dipole dipole="0.000000 0.000000 0.000000" charge=0
C	0.391120	1.349150	0.325670	6
C	1.394700	0.352550	-0.227690	6
N	0.963570	-0.972270	0.146540	7
C	-0.368770	-1.253880	0.194620	6
N	-1.348660	-0.434180	0.093030	7
C	-1.008380	0.975340	-0.147940	6
H	0.642360	2.365480	0.004500	1
H	0.421100	1.334450	1.422550	1
H	2.391330	0.548370	0.179890	1
H	1.456010	0.426580	-1.319020	1
H	1.604840	-1.735690	-0.033740	1
H	-0.569030	-2.327510	0.353940	1
H	-1.116210	1.184350	-1.218770	1
H	-1.739650	1.601770	0.375010	1
Es	1.068813	0.658112	-0.267932	99
Es	1.398997	0.355629	-0.305518	99
Es	-1.288213	-0.682162	0.261567	99
Es	-0.163595	-1.394079	0.157039	99
Es	-1.083914	1.089505	-0.056363	99
Es	-0.956473	0.313101	-0.193476	99
Es	-1.218978	0.011596	-0.044249	99
Es	0.923055	-0.906820	0.100559	99
Es	2.059746	0.476736	-0.077543	99
Es	-0.472769	-1.658765	0.257088	99
Es	1.078573	-0.641024	0.086051	99
Es	0.508911	-0.984370	0.253785	99
Es	1.329761	-1.419277	-0.001399	99
Es	0.257759	1.225143	0.360146	99
Es	-1.371370	1.306655	0.015731	99
Es	0.431116	1.109066	0.217803	99
Es	0.615049	-1.000026	0.155505	99
Es	0.554363	2.050629	0.126474	99
Es	-1.134592	0.314031	-0.123375	99
Es	0.972076	0.829726	0.022098	99
Es	-1.062202	-0.596857	0.044480	99
Es	-1.230423	-0.611911	0.113007	99
Es	-0.145980	1.203413	0.115758	99
