38
Properties=species:S:1:pos:R:3:Z:I:1 energy=-249.0561523665209 field_type=dipole dipole="0.000000 0.000000 0.000000" charge=0
C	0.802850	1.406180	-0.589790	6
C	-0.330980	0.919260	0.272410	6
C	-1.370630	-0.023220	-0.239280	6
N	-0.759040	-1.350270	-0.029180	7
C	0.693820	-1.192730	-0.229090	6
C	0.963470	0.185620	0.278840	6
H	0.733160	1.273350	-1.663160	1
H	1.314600	2.312480	-0.287800	1
H	-0.622860	1.475560	1.151330	1
H	-2.312860	0.059470	0.312170	1
H	-1.572100	0.137780	-1.304310	1
H	-0.902720	-1.593200	0.950840	1
H	1.244550	-1.954260	0.330220	1
H	0.943770	-1.287090	-1.290870	1
H	1.584910	0.226670	1.161190	1
Es	0.529840	-1.097909	-0.418302	99
Es	-2.017196	0.044227	0.055947	99
Es	0.789899	-0.578573	-0.032420	99
Es	-0.690429	0.382187	-0.065837	99
Es	-1.183444	-0.296709	-0.215568	99
Es	0.886545	-0.099342	0.040023	99
Es	-0.774446	0.704373	0.057851	99
Es	0.609735	0.581358	-0.011490	99
Es	-0.323376	-0.997592	-0.174151	99
Es	0.545213	-1.452627	0.060939	99
Es	-0.210330	-1.373360	0.043964	99
Es	-0.664469	-1.449482	0.199472	99
Es	0.722557	-0.952153	-0.113753	99
Es	0.788607	1.831798	-0.376120	99
Es	-0.999479	-0.415029	-0.053940	99
Es	1.081575	0.413486	0.244716	99
Es	0.763612	1.287359	-0.394133	99
Es	0.343184	0.997664	-0.148632	99
Es	-0.081806	1.132344	0.112564	99
Es	0.492830	1.137176	-0.293975	99
Es	-1.044300	0.119857	-0.254724	99
Es	-0.827321	-1.441756	-0.091730	99
Es	1.029433	0.904161	-0.229833	99
