42
Properties=species:S:1:pos:R:3:Z:I:1 energy=-234.24363011473378 field_type=dipole dipole="0.000000 0.000000 0.000000" charge=0
C	2.316290	-0.455600	-1.456300	6
C	2.473360	0.042520	-0.029160	6
C	3.253380	1.348160	-0.001710	6
C	2.529620	2.627160	-0.505480	6
C	3.256450	3.392780	0.617820	6
C	3.340350	2.054100	1.378450	6
H	1.772770	-1.405530	-1.470640	1
H	3.292450	-0.612520	-1.927510	1
H	1.761360	0.263910	-2.067450	1
H	3.002820	-0.715300	0.559030	1
H	1.483310	0.169910	0.422950	1
H	4.248920	1.229850	-0.455430	1
H	1.439750	2.608620	-0.389040	1
H	2.772990	2.939600	-1.524280	1
H	4.232730	3.793190	0.319940	1
H	2.680310	4.182640	1.106460	1
H	4.263210	1.885970	1.939810	1
H	2.484340	1.871660	2.038640	1
Es	2.234973	-0.970925	-1.573359	99
Es	2.475017	-0.511007	-1.409734	99
Es	2.535503	-0.241180	0.148522	99
Es	2.020109	-0.013007	-1.833630	99
Es	3.090550	2.261422	1.081824	99
Es	3.138311	1.352669	0.271148	99
Es	2.860237	1.214150	-0.148621	99
Es	2.410840	2.745894	-0.910154	99
Es	3.094634	1.941421	0.829984	99
Es	3.452522	2.137776	1.478686	99
Es	2.953435	2.074833	-0.256480	99
Es	2.261438	-0.476340	-1.476968	99
Es	2.622019	0.336316	-0.393913	99
Es	3.558530	2.268096	1.411961	99
Es	2.579096	0.188649	-0.077623	99
Es	3.337086	3.618252	0.616152	99
Es	2.526336	2.646341	-0.645797	99
Es	3.317866	3.669878	0.667639	99
Es	2.619781	-0.178475	0.007935	99
Es	2.924232	3.156309	0.148507	99
Es	3.156747	3.106641	0.471536	99
Es	3.039541	1.659811	-0.216735	99
Es	3.230591	2.516202	1.081301	99
Es	2.781578	0.634902	0.012309	99
