41
Properties=species:S:1:pos:R:3:Z:I:1 energy=-250.24519320995472 field_type=dipole dipole="0.000000 0.000000 0.000000" charge=0
C	1.058920	-0.065710	-0.007120	6
C	2.548040	-0.028530	-0.057880	6
C	3.280520	-0.589960	-1.249230	6
C	3.250590	0.903050	-1.017800	6
C	4.479050	1.636180	-0.588850	6
N	5.264120	1.922810	-1.778750	7
H	0.686390	0.716770	0.661030	1
H	0.719900	-1.032600	0.377140	1
H	0.608730	0.085710	-0.993590	1
H	2.985300	-0.187980	0.921630	1
H	2.704020	-0.978930	-2.081230	1
H	4.204970	-1.126190	-1.067130	1
H	2.635960	1.504650	-1.680390	1
H	5.075230	1.048820	0.117890	1
H	4.197640	2.572750	-0.097300	1
H	5.531530	1.043330	-2.218020	1
H	6.131830	2.378480	-1.503200	1
Es	3.305408	0.394193	-1.064365	99
Es	2.530698	0.176295	-0.352324	99
Es	3.988015	1.219616	-0.767438	99
Es	1.084564	0.354281	0.330446	99
Es	1.111220	-0.076243	-0.069756	99
Es	5.317822	1.724383	-1.773585	99
Es	3.575172	0.042687	-1.166533	99
Es	4.507761	2.124829	-0.558964	99
Es	0.985905	-0.376120	0.064983	99
Es	2.242618	-0.010357	-0.230393	99
Es	2.203787	-0.233843	-0.449048	99
Es	4.028160	1.291537	-0.722660	99
Es	5.473459	1.995312	-1.550313	99
Es	4.860943	1.840990	-1.207019	99
Es	5.168148	2.069972	-1.377146	99
Es	2.691424	-0.125363	-0.287337	99
Es	0.899213	-0.121986	0.003786	99
Es	3.119643	-0.585948	-1.431906	99
Es	3.622526	0.747442	-0.936022	99
Es	2.673438	0.086781	-0.285470	99
Es	3.436496	-0.376706	-1.168056	99
Es	3.072192	-0.086609	-1.057693	99
Es	5.317910	1.651703	-1.987265	99
Es	4.733208	1.657473	-0.826333	99
