41
Properties=species:S:1:pos:R:3:Z:I:1 energy=-250.24279146688923 field_type=dipole dipole="0.000000 0.000000 0.000000" charge=0
C	1.064760	0.103330	-0.115410	6
C	2.553890	0.073280	-0.050060	6
C	3.343270	-0.628660	-1.122460	6
C	3.450360	0.872800	-0.982820	6
C	2.858760	1.713030	-2.088930	6
N	4.691240	1.417080	-0.409170	7
H	0.678840	0.903060	0.522940	1
H	0.659860	-0.845140	0.250860	1
H	0.679980	0.257030	-1.126080	1
H	2.883180	-0.070640	0.974250	1
H	2.812830	-1.032590	-1.977510	1
H	4.188370	-1.236740	-0.819760	1
H	2.037690	1.210870	-2.609900	1
H	3.623020	1.941220	-2.839690	1
H	2.481230	2.658150	-1.686690	1
H	5.049040	0.820130	0.333710	1
H	4.513100	2.323330	0.022170	1
Es	2.965208	-0.064192	-0.559540	99
Es	2.975828	0.112615	-0.579653	99
Es	2.062925	-0.062673	-0.607696	99
Es	2.612752	2.067496	-1.860915	99
Es	1.848175	0.081585	-0.450574	99
Es	4.271019	1.039650	-0.694146	99
Es	3.853579	1.577187	-1.506256	99
Es	3.442856	1.147038	-1.387373	99
Es	3.462396	-0.097937	-0.295759	99
Es	1.670132	-0.053408	-0.483361	99
Es	4.253212	1.288457	-0.656623	99
Es	3.202443	0.292222	-0.697678	99
Es	4.463146	1.452748	-0.752947	99
Es	2.811574	1.548909	-1.986227	99
Es	1.378314	-0.132637	-0.066707	99
Es	0.836391	-0.115121	-0.369044	99
Es	3.286628	0.694932	-0.919841	99
Es	2.727888	1.067546	-1.677769	99
Es	3.470033	0.855912	-1.161475	99
Es	2.853760	-0.064304	-0.193559	99
Es	3.210432	0.354506	-0.861320	99
Es	3.759724	0.836147	-0.753234	99
Es	1.118633	0.097493	-0.205693	99
Es	4.595878	0.905535	-0.363243	99
