41
Properties=species:S:1:pos:R:3:Z:I:1 energy=-250.2326673544369 field_type=dipole dipole="0.000000 0.000000 0.000000" charge=0
C	0.960060	-0.012660	0.025830	6
C	2.476160	-0.030240	0.036640	6
C	3.166540	1.029670	0.938650	6
C	4.233280	-0.043720	1.255130	6
C	3.146260	-1.096340	0.945150	6
N	3.715140	-2.158170	0.124210	7
H	0.569190	-0.881800	-0.513280	1
H	0.588880	0.888100	-0.474210	1
H	0.547460	-0.030510	1.040420	1
H	2.867770	0.003630	-0.991150	1
H	2.581270	1.335490	1.813710	1
H	3.532490	1.923110	0.426430	1
H	5.088500	-0.012740	0.567070	1
H	4.609920	-0.039940	2.281800	1
H	2.565630	-1.426850	1.812060	1
H	4.276350	-1.838380	-0.664430	1
H	3.015570	-2.787440	-0.267900	1
Es	2.603764	-0.158153	0.199982	99
Es	3.343488	0.879552	1.040718	99
Es	4.453417	0.040297	1.339887	99
Es	1.751158	0.059568	0.101070	99
Es	2.144053	-0.046093	0.208002	99
Es	3.289202	-0.458963	0.591382	99
Es	1.377512	0.035354	0.348127	99
Es	2.939729	1.324397	1.292279	99
Es	2.801281	0.234090	0.504799	99
Es	0.720649	0.516548	-0.175978	99
Es	3.965588	0.234988	1.261123	99
Es	3.638523	-0.935422	0.787239	99
Es	3.318356	-0.186492	0.964934	99
Es	3.607626	-0.452817	0.785357	99
Es	3.666848	-2.055551	0.544500	99
Es	3.414322	-1.833672	0.403968	99
Es	0.927282	0.012761	0.093149	99
Es	3.869083	-2.031181	0.020144	99
Es	3.449753	-2.413571	-0.092131	99
Es	3.260547	1.270181	0.814788	99
Es	3.579707	-1.810438	0.313299	99
Es	0.689931	-0.586582	-0.327574	99
Es	4.342319	-0.194733	1.113278	99
Es	2.995486	-0.959413	0.500968	99
