41
Properties=species:S:1:pos:R:3:Z:I:1 energy=-250.2438699537799 field_type=dipole dipole="0.000000 0.000000 0.000000" charge=0
C	0.890510	0.035470	-0.245000	6
C	2.372380	0.035830	0.033190	6
C	2.711220	0.008710	1.502070	6
C	3.268850	-0.735660	-0.910360	6
C	3.262330	0.766190	-0.953700	6
N	4.448030	1.500970	-0.528340	7
H	0.673270	0.046390	-1.318920	1
H	0.420580	0.917800	0.201320	1
H	0.422450	-0.858010	0.181170	1
H	3.784490	-0.099560	1.687260	1
H	2.212120	-0.836050	1.989050	1
H	2.373310	0.930620	1.985840	1
H	2.818060	-1.262270	-1.744100	1
H	4.141120	-1.239570	-0.510600	1
H	2.771760	1.213680	-1.816990	1
H	4.968530	1.003410	0.191110	1
H	4.187440	2.398100	-0.121260	1
Es	1.336478	-0.124738	-0.828583	99
Es	1.987168	-0.044111	0.185498	99
Es	4.297984	1.348771	-0.443939	99
Es	3.073694	-0.001059	-0.805917	99
Es	2.911590	0.094129	-0.876817	99
Es	2.472571	-0.101935	1.425798	99
Es	3.519022	0.388910	-0.778964	99
Es	2.285227	0.089700	1.144812	99
Es	4.383064	1.382896	-0.291535	99
Es	0.608068	-0.436634	0.008741	99
Es	3.606979	0.479633	-0.234471	99
Es	1.859620	-0.149210	-0.493162	99
Es	3.783234	0.796875	-0.089616	99
Es	3.327837	0.407457	-0.733214	99
Es	3.839129	0.792036	-0.390855	99
Es	2.482992	0.047728	0.439220	99
Es	2.550905	0.219457	0.994010	99
Es	3.232926	0.242405	-1.000769	99
Es	1.181585	-0.043941	-0.124227	99
Es	3.077960	0.183700	0.836221	99
Es	3.097652	-0.035144	-0.779540	99
Es	1.688850	-0.099063	-0.252098	99
Es	2.454152	0.002490	0.585353	99
Es	4.498172	1.266484	-0.826476	99
