41
Properties=species:S:1:pos:R:3:Z:I:1 energy=-250.24057969907292 field_type=dipole dipole="0.000000 0.000000 0.000000" charge=0
C	1.031380	0.015290	-0.057210	6
C	2.521760	-0.008200	-0.011510	6
C	3.346400	-0.755180	-1.036560	6
C	2.729710	-1.514690	-2.160900	6
C	3.324630	0.751830	-1.036480	6
N	4.517190	1.481270	-0.616430	7
H	0.646510	0.735180	0.673090	1
H	0.628540	-0.970930	0.195680	1
H	0.645410	0.303790	-1.040930	1
H	2.876560	-0.043260	1.013140	1
H	4.243230	-1.252750	-0.681290	1
H	1.869010	-1.000260	-2.596810	1
H	2.401160	-2.498060	-1.812210	1
H	3.466210	-1.665510	-2.955960	1
H	2.778870	1.232280	-1.845970	1
H	4.995650	1.004830	0.146970	1
H	4.265480	2.401470	-0.257530	1
Es	2.347477	-1.767131	-2.017287	99
Es	1.098443	0.186362	0.122312	99
Es	0.916679	-0.072748	-0.449211	99
Es	3.151006	0.115968	-0.769208	99
Es	4.709819	1.554439	-0.634131	99
Es	2.799625	-0.091051	-0.602550	99
Es	2.812751	-1.404125	-2.085342	99
Es	3.048223	0.371081	-0.608783	99
Es	4.569468	1.443787	-0.538165	99
Es	3.918654	1.126665	-0.747948	99
Es	2.887759	-1.296486	-1.766990	99
Es	4.121311	1.407907	-0.452693	99
Es	1.057407	-0.371785	0.004275	99
Es	3.415235	0.292595	-1.000491	99
Es	1.353137	0.020411	-0.170331	99
Es	1.404860	0.299230	0.215687	99
Es	3.453217	0.273638	-0.950543	99
Es	2.785403	-0.476220	-0.823356	99
Es	2.410103	0.016576	-0.039580	99
Es	3.116029	-1.627946	-2.376023	99
Es	2.953396	-0.005210	-0.638647	99
Es	3.379912	-0.338001	-0.926502	99
Es	2.915541	-1.410753	-2.015507	99
Es	4.538063	1.543438	-0.490372	99
