41
Properties=species:S:1:pos:R:3:Z:I:1 energy=-250.27212029821362 field_type=dipole dipole="0.000000 0.000000 0.000000" charge=0
C	1.026180	-0.015950	-0.024270	6
C	2.542340	-0.007520	0.063580	6
C	3.084120	1.144870	0.892390	6
C	4.483470	0.669150	1.230310	6
C	4.348400	-0.843610	1.336550	6
N	3.040600	-1.187960	0.773570	7
H	0.674160	-0.868760	-0.614640	1
H	0.662960	0.899500	-0.502710	1
H	0.563970	-0.080730	0.967240	1
H	2.972240	0.024540	-0.945860	1
H	2.503300	1.286700	1.812300	1
H	3.092490	2.091200	0.343160	1
H	5.168820	0.924670	0.412850	1
H	4.863480	1.124310	2.149460	1
H	5.160530	-1.345180	0.800330	1
H	4.384790	-1.165130	2.382300	1
H	3.113740	-1.985090	0.143700	1
Es	3.594602	-1.070926	0.937031	99
Es	4.452303	0.849482	1.313317	99
Es	4.032467	-1.027444	1.153865	99
Es	3.060758	1.532209	0.638053	99
Es	2.905520	0.971578	0.812888	99
Es	2.899940	1.180932	0.989981	99
Es	0.762435	0.598234	-0.249297	99
Es	3.424514	-0.876978	0.739200	99
Es	2.410326	-0.025586	0.022639	99
Es	4.479459	0.734231	1.314484	99
Es	4.455054	0.100285	1.157659	99
Es	4.263504	-0.177318	1.199713	99
Es	2.981791	-0.983288	0.618915	99
Es	4.602700	1.022307	1.241114	99
Es	4.414100	-0.277125	1.280386	99
Es	2.819768	0.834654	0.776169	99
Es	1.002887	-0.263015	-0.188100	99
Es	1.118602	-0.135048	0.055694	99
Es	4.753972	-1.143920	1.438829	99
Es	2.954537	-0.962633	0.672557	99
Es	2.737568	-0.153876	0.070869	99
Es	2.827631	-1.338767	0.830016	99
Es	1.358341	-0.055053	0.044102	99
Es	1.279238	-0.233670	-0.099262	99
