35
Properties=species:S:1:pos:R:3:Z:I:1 energy=-247.93841881200197 field_type=dipole dipole="0.000000 0.000000 0.000000" charge=0
C	0.969340	-0.019390	-0.008090	6
C	2.450250	0.060260	-0.000410	6
C	3.296490	1.151730	0.003800	6
C	4.624490	0.664780	0.010300	6
C	4.556590	-0.709200	0.009920	6
N	3.233910	-1.068080	0.003310	7
H	0.521990	0.979860	0.000790	1
H	0.608380	-0.560070	0.872930	1
H	0.617010	-0.540770	-0.903900	1
H	2.989030	2.190110	0.002230	1
H	5.532180	1.253360	0.014840	1
H	5.333730	-1.462160	0.013690	1
H	2.888870	-2.019090	0.001430	1
Es	4.616413	0.606033	0.023706	99
Es	3.146503	0.641191	0.003127	99
Es	3.312865	1.151927	0.014859	99
Es	0.806283	-0.279990	-0.017346	99
Es	4.487302	-0.003631	-0.072831	99
Es	4.530367	-0.672740	0.002968	99
Es	3.010283	-1.627826	0.033355	99
Es	2.174757	0.040674	-0.000142	99
Es	0.674812	-0.484697	0.002954	99
Es	5.065228	-1.210782	0.008402	99
Es	3.084363	1.834981	-0.003993	99
Es	3.969748	0.954965	-0.006999	99
Es	0.670378	0.651920	-0.005756	99
Es	3.257130	-1.061526	-0.010016	99
Es	3.208203	-0.904337	0.114554	99
Es	1.977849	0.031300	-0.002342	99
Es	2.927355	-0.667907	-0.121116	99
Es	5.153036	0.775495	0.040475	99
Es	2.834153	0.622307	0.018372	99
Es	0.983887	-0.022007	-0.011167	99
Es	4.696070	0.372300	0.048378	99
Es	3.784514	-0.946790	0.000370	99
