41
Properties=species:S:1:pos:R:3:Z:I:1 energy=-250.23008593822854 field_type=dipole dipole="0.000000 0.000000 0.000000" charge=0
C	0.992640	-0.059160	0.074540	6
C	2.506750	-0.003460	0.032720	6
C	3.181010	1.078780	0.909560	6
C	4.200400	-0.028780	1.242820	6
N	3.135130	-1.015130	0.929970	7
C	3.678070	-2.126280	0.156080	6
H	0.621900	-0.952670	-0.439500	1
H	0.564830	0.814420	-0.428800	1
H	0.608730	-0.074750	1.101010	1
H	2.884540	0.003570	-1.000010	1
H	2.590610	1.412820	1.771060	1
H	3.575680	1.950840	0.382130	1
H	5.072740	-0.033980	0.577220	1
H	4.547640	-0.043980	2.279910	1
H	2.861370	-2.752760	-0.219760	1
H	4.301910	-2.757520	0.798140	1
H	4.285200	-1.812960	-0.702010	1
Es	4.212888	-0.157229	1.285581	99
Es	3.022162	1.201157	0.887282	99
Es	2.803044	1.077332	1.142878	99
Es	0.775689	-0.598742	-0.229074	99
Es	3.605394	-0.944394	0.778813	99
Es	0.898003	-0.016872	0.068133	99
Es	4.442164	-0.017307	1.374048	99
Es	2.153135	0.015942	0.088028	99
Es	3.017474	-0.936820	0.504519	99
Es	2.934372	0.295313	0.643954	99
Es	3.656660	-1.274666	0.502978	99
Es	3.289910	1.299345	0.736198	99
Es	2.853141	-0.383309	0.158203	99
Es	0.831743	0.296490	-0.044716	99
Es	3.244215	-0.579526	0.683692	99
Es	3.645049	-1.587584	0.263512	99
Es	2.833325	-0.332696	0.412756	99
Es	2.043207	0.110846	0.235555	99
Es	4.117274	0.135732	1.237324	99
Es	3.793020	-2.357639	0.259660	99
Es	1.227493	0.102184	0.284915	99
Es	3.767023	-2.348444	0.282435	99
Es	3.367627	-2.437030	0.005627	99
Es	4.007424	0.290621	1.096003	99
