41
Properties=species:S:1:pos:R:3:Z:I:1 energy=-250.26983237190362 field_type=dipole dipole="0.000000 0.000000 0.000000" charge=0
C	0.988820	0.005040	0.004490	6
C	2.507160	0.015750	0.041690	6
C	3.085160	1.137130	0.890180	6
C	4.480490	0.622600	1.177940	6
N	4.285750	-0.805690	1.427070	7
C	3.115180	-1.242500	0.657450	6
H	0.624420	-0.828760	-0.603990	1
H	0.607150	0.934790	-0.429640	1
H	0.563670	-0.097940	1.008340	1
H	2.885080	0.124330	-0.984420	1
H	2.520110	1.262380	1.821780	1
H	3.096230	2.094950	0.361010	1
H	5.130850	0.767110	0.307270	1
H	4.935260	1.120630	2.038640	1
H	5.115479	-1.333750	1.160720	1
H	3.401370	-1.955820	-0.123420	1
H	2.417850	-1.747430	1.333860	1
Es	4.155052	0.787591	1.099507	99
Es	2.285691	0.071183	0.050193	99
Es	4.238492	0.642894	0.984497	99
Es	2.790039	-1.377470	0.777028	99
Es	0.926914	-0.127047	-0.032315	99
Es	3.319867	-1.124027	0.764732	99
Es	3.717005	-1.231385	0.930622	99
Es	4.774749	-1.138621	1.376537	99
Es	3.042511	1.530833	0.741883	99
Es	0.766479	-0.431765	-0.251728	99
Es	4.124730	-0.913910	1.418509	99
Es	2.869534	-0.262364	0.427763	99
Es	3.135875	-1.348856	0.443428	99
Es	2.725656	1.157491	0.855972	99
Es	3.878691	-0.126837	1.102066	99
Es	4.818265	0.845684	1.425606	99
Es	3.735658	-0.514297	1.060449	99
Es	3.938227	-0.062926	1.073266	99
Es	0.942659	0.212766	0.038404	99
Es	2.012478	0.043201	-0.013250	99
Es	2.373646	0.062378	-0.090279	99
Es	4.661208	0.729871	1.235182	99
Es	0.868726	0.397020	0.076465	99
Es	3.055775	1.115877	0.897680	99
