41
Properties=species:S:1:pos:R:3:Z:I:1 energy=-250.23435459852564 field_type=dipole dipole="0.000000 0.000000 0.000000" charge=0
C	0.899850	-0.018960	0.106840	6
C	2.417210	-0.005400	-0.035150	6
C	2.847650	0.020670	-1.502540	6
C	3.137100	1.029020	0.866180	6
N	4.122850	-0.010590	1.233570	7
C	3.157560	-1.056240	0.830030	6
H	0.592230	-0.038970	1.157980	1
H	0.469720	-0.899820	-0.381290	1
H	0.457760	0.872540	-0.350610	1
H	3.937820	0.034000	-1.609890	1
H	2.454340	0.909130	-2.006570	1
H	2.474300	-0.862730	-2.031520	1
H	2.554350	1.383930	1.725260	1
H	3.561220	1.900880	0.359230	1
H	4.957620	0.007980	0.646920	1
H	3.599570	-1.901220	0.293120	1
H	2.581950	-1.452470	1.675320	1
Es	2.955784	0.067014	0.001574	99
Es	0.860867	-0.042906	-0.186355	99
Es	2.944165	0.035979	0.547485	99
Es	2.157297	0.101374	-0.643326	99
Es	3.265084	-0.042883	0.920147	99
Es	2.102172	0.049711	-0.540707	99
Es	2.950101	-0.100269	1.053951	99
Es	3.773798	0.004641	1.052877	99
Es	1.787069	-0.021960	-0.030529	99
Es	3.461105	0.080652	-0.878736	99
Es	1.087747	0.008007	0.733781	99
Es	3.945597	-0.046876	1.389621	99
Es	3.822487	-0.003494	0.903216	99
Es	3.193125	-0.221150	0.273032	99
Es	1.540531	0.072021	-0.670301	99
Es	3.460081	0.228031	0.478714	99
Es	2.834931	0.097491	0.597504	99
Es	2.463408	-0.093254	-0.799503	99
Es	3.564953	0.075145	0.996391	99
Es	3.390167	-0.187660	0.516021	99
Es	2.224345	-0.127402	-1.126558	99
Es	2.301330	0.012961	-0.367140	99
Es	2.694064	-0.093835	0.446386	99
Es	2.902530	-0.006799	0.347648	99
