41
Properties=species:S:1:pos:R:3:Z:I:1 energy=-250.24159279079083 field_type=dipole dipole="0.000000 0.000000 0.000000" charge=0
C	0.972280	-0.007870	0.051260	6
C	2.487360	0.006660	0.010530	6
C	3.195170	1.052450	0.911820	6
C	4.215400	-0.031190	1.315440	6
N	5.360300	0.019120	0.403890	7
C	3.213990	-1.096180	0.825950	6
H	0.581750	-0.868490	-0.500130	1
H	0.567590	0.898530	-0.408780	1
H	0.596440	-0.063860	1.077400	1
H	2.841570	0.051640	-1.029760	1
H	2.583690	1.392540	1.756930	1
H	3.580590	1.938020	0.396900	1
H	4.483400	-0.066790	2.374500	1
H	5.125320	0.072970	-0.586410	1
H	5.990020	-0.776810	0.498660	1
H	3.614300	-1.930730	0.241700	1
H	2.609330	-1.513420	1.640690	1
Es	0.762592	-0.439033	-0.059491	99
Es	3.134382	-0.584410	0.539475	99
Es	1.997830	0.035270	0.304708	99
Es	0.876427	-0.003267	0.162501	99
Es	0.671337	0.456014	0.031791	99
Es	5.353300	-0.294251	0.673785	99
Es	3.066149	0.875107	0.912808	99
Es	5.289813	-0.016920	0.711138	99
Es	3.088858	-0.134924	0.425002	99
Es	4.208450	-0.309084	0.753646	99
Es	3.004557	-0.426153	0.598907	99
Es	3.417743	-0.290725	0.879019	99
Es	4.017203	-0.098869	0.746605	99
Es	2.700701	-0.806357	0.716750	99
Es	2.697249	0.078789	0.430632	99
Es	1.188072	0.008735	0.227433	99
Es	5.155389	0.135840	0.677168	99
Es	3.855547	-0.845418	0.698047	99
Es	4.763040	-0.090515	0.789487	99
Es	3.392891	1.475028	0.679811	99
Es	3.539849	0.309548	0.747903	99
Es	3.736394	0.405749	0.818482	99
Es	5.006107	0.052707	0.822415	99
Es	2.442900	0.016575	0.234069	99
