42
Properties=species:S:1:pos:R:3:Z:I:1 energy=-234.2464409990203 field_type=dipole dipole="0.000000 0.000000 0.000000" charge=0
C	1.132300	-0.226230	-0.513180	6
C	2.595710	0.056540	-0.809290	6
C	3.387990	0.314320	0.471120	6
C	4.827550	0.608000	0.168860	6
C	5.892410	0.283720	1.184030	6
C	5.799230	-0.514330	-0.087300	6
H	0.585890	-0.414680	-1.443370	1
H	0.661700	0.625030	-0.009570	1
H	1.024060	-1.107540	0.128100	1
H	2.669760	0.923340	-1.476290	1
H	3.025570	-0.795270	-1.349070	1
H	3.302950	-0.552570	1.137880	1
H	2.961340	1.171250	1.005720	1
H	4.947280	1.522290	-0.403390	1
H	5.602200	-0.201980	2.108710	1
H	6.720760	0.975490	1.289360	1
H	6.562410	-0.360270	-0.841650	1
H	5.443400	-1.536020	-0.020130	1
Es	2.303121	0.103858	-0.771752	99
Es	4.845078	0.515047	0.085511	99
Es	5.596140	0.132406	0.921664	99
Es	5.730263	-0.161609	0.131141	99
Es	2.869973	0.103426	-0.100597	99
Es	5.289162	0.005896	0.221652	99
Es	4.210974	0.447897	0.215651	99
Es	5.764595	-0.295593	0.197711	99
Es	6.063998	-0.199594	0.033582	99
Es	5.146703	0.160874	0.103534	99
Es	1.192196	-0.255479	-0.569683	99
Es	5.654539	0.184863	0.840104	99
Es	3.394113	0.359794	0.431313	99
Es	1.140115	-0.059830	-0.168506	99
Es	2.576361	0.051275	-0.699689	99
Es	2.704632	-0.445759	-1.029845	99
Es	2.070267	-0.126725	-0.801322	99
Es	0.919831	-0.248162	-0.825399	99
Es	6.166721	0.386591	1.507059	99
Es	3.263770	0.209127	0.299553	99
Es	5.616450	-0.141582	0.066210	99
Es	1.255724	-0.085665	-0.418078	99
Es	5.788825	0.274372	0.873368	99
Es	3.099019	0.765456	0.771395	99
