34
Properties=species:S:1:pos:R:3:Z:I:1 energy=-263.92860408212584 field_type=dipole dipole="0.000000 0.000000 0.000000" charge=0
C	0.980200	0.064170	-0.004790	6
C	2.459780	-0.029090	-0.006000	6
N	3.215300	1.075850	-0.011320	7
N	4.474440	0.610630	-0.011030	7
C	4.549640	-0.750490	-0.006000	6
C	3.252040	-1.200520	-0.002680	6
H	0.641260	1.105260	0.009200	1
H	0.568040	-0.437910	0.876170	1
H	0.568480	-0.414330	-0.898980	1
H	5.234370	1.282130	-0.014520	1
H	5.499279	-1.265390	-0.005280	1
H	2.918000	-2.228400	0.001540	1
Es	0.791123	-0.174220	-0.002121	99
Es	4.450775	0.340085	0.143123	99
Es	5.188507	-1.094783	0.005659	99
Es	3.019503	-1.898657	0.013149	99
Es	2.832097	-0.620758	0.014240	99
Es	3.140336	1.448821	-0.015908	99
Es	1.727125	0.011648	-0.004494	99
Es	4.937555	1.001506	-0.007000	99
Es	2.774618	0.420850	-0.068467	99
Es	0.790087	-0.176452	-0.008500	99
Es	4.184464	0.611841	-0.126275	99
Es	3.847442	-0.974563	-0.245759	99
Es	4.169640	0.675704	0.056663	99
Es	3.699610	-0.952805	0.219423	99
Es	2.624087	0.160587	-0.074588	99
Es	3.256439	-1.195949	-0.002150	99
Es	0.749931	0.759413	-0.000541	99
Es	4.491619	0.301835	-0.124038	99
Es	4.528855	-0.747781	-0.015110	99
Es	3.217525	1.074025	-0.010762	99
Es	2.946933	0.471530	0.109734	99
Es	0.821818	-0.126215	-0.009103	99
