37
Properties=species:S:1:pos:R:3:Z:I:1 energy=-265.01031939506765 field_type=dipole dipole="0.000000 0.000000 0.000000" charge=0
C	1.193970	-0.367460	0.181320	6
C	2.674670	-0.227780	0.287560	6
C	3.588400	-0.994110	-0.620230	6
N	3.503430	0.468550	-0.705140	7
N	2.757190	0.749510	-1.789510	7
C	3.122540	1.857060	-2.340850	6
H	0.705940	0.590060	0.389620	1
H	0.838840	-1.092270	0.921360	1
H	0.864690	-0.717960	-0.802460	1
H	2.986930	-0.074590	1.313770	1
H	3.169250	-1.578220	-1.430880	1
H	4.511230	-1.380250	-0.207400	1
H	2.599170	2.214570	-3.240310	1
H	3.946910	2.489730	-1.962500	1
Es	1.013954	-0.835777	0.537585	99
Es	3.159294	-0.634435	-0.261776	99
Es	2.856637	1.294842	-1.846963	99
Es	2.841225	2.068022	-2.833427	99
Es	3.074949	-0.263925	-0.447719	99
Es	2.454212	-0.308561	0.271247	99
Es	1.369919	-0.445737	0.095722	99
Es	3.206988	0.612815	-1.314242	99
Es	3.023309	-0.482779	-0.329591	99
Es	1.093883	0.136785	0.056869	99
Es	3.211577	1.701710	-2.301618	99
Es	3.037226	0.518112	-1.320287	99
Es	2.825002	0.866207	-1.614181	99
Es	3.348782	-0.849204	-0.187932	99
Es	4.017277	-1.121711	-0.416435	99
Es	1.914989	-0.364126	0.192851	99
Es	3.387698	-0.173340	-0.695001	99
Es	3.421368	0.328623	-0.732072	99
Es	3.166402	0.341301	-0.850057	99
Es	1.436228	-0.329036	0.230142	99
Es	3.333764	0.047589	-0.648332	99
Es	2.958320	1.224178	-2.116872	99
Es	3.317629	1.951464	-2.197684	99
