41
Properties=species:S:1:pos:R:3:Z:I:1 energy=-250.23436722852728 field_type=dipole dipole="0.000000 0.000000 0.000000" charge=0
C	0.939360	0.013030	0.013810	6
C	2.453560	0.004380	0.013610	6
C	3.158300	1.003970	0.954970	6
N	4.159670	-0.045900	1.260990	7
C	3.151080	-1.074130	0.882700	6
C	3.761700	-2.256670	0.155420	6
H	0.550760	-0.841740	-0.548130	1
H	0.560210	0.925530	-0.456060	1
H	0.533490	-0.037760	1.029800	1
H	2.847330	0.055060	-1.011700	1
H	2.574880	1.310630	1.831340	1
H	3.565150	1.898610	0.475250	1
H	4.966600	-0.016970	0.636470	1
H	2.553020	-1.402800	1.743920	1
H	4.380510	-1.943860	-0.692200	1
H	2.974460	-2.912010	-0.230240	1
H	4.385710	-2.848720	0.832150	1
Es	3.816014	0.091336	1.178578	99
Es	3.242222	0.041749	0.769708	99
Es	3.416637	-0.455261	1.036670	99
Es	3.133764	1.447705	1.045760	99
Es	2.740566	-0.467238	0.528507	99
Es	3.395687	-0.713732	0.942247	99
Es	1.178114	0.137515	0.323091	99
Es	0.990997	-0.032522	0.088962	99
Es	3.769055	-2.020492	0.195558	99
Es	3.256993	1.138193	0.926743	99
Es	4.051323	0.045477	1.102479	99
Es	3.591556	-0.922395	0.839085	99
Es	1.822478	0.131143	0.170894	99
Es	4.608378	-0.055489	1.137085	99
Es	3.807138	-1.526983	0.272470	99
Es	2.425478	0.106737	0.258722	99
Es	1.795212	0.070934	0.132372	99
Es	3.213239	-2.707592	-0.096003	99
Es	0.936010	-0.430731	-0.205349	99
Es	3.969551	-2.442143	0.384563	99
Es	0.768135	0.393215	-0.260657	99
Es	2.720301	-0.200384	0.327554	99
Es	3.428857	0.670799	1.023881	99
Es	3.882757	-2.288266	0.312153	99
