41
Properties=species:S:1:pos:R:3:Z:I:1 energy=-250.22573188515952 field_type=dipole dipole="0.000000 0.000000 0.000000" charge=0
C	0.943940	-0.021310	0.059190	6
C	2.456940	-0.001050	-0.012120	6
C	3.185710	1.029990	0.876460	6
N	4.145380	-0.016790	1.290620	7
C	5.345150	0.022820	0.453780	6
C	3.213140	-1.062910	0.816290	6
H	0.545910	-0.889110	-0.476160	1
H	0.525960	0.879030	-0.402060	1
H	0.587050	-0.068540	1.093130	1
H	2.795700	0.034060	-1.057270	1
H	2.586900	1.406210	1.715260	1
H	3.601710	1.895670	0.349400	1
H	5.973940	-0.848820	0.666260	1
H	5.937100	0.912970	0.693900	1
H	5.139000	0.035310	-0.623050	1
H	3.651370	-1.885650	0.240670	1
H	2.625020	-1.502260	1.631650	1
Es	2.877175	0.323359	0.414542	99
Es	4.067074	0.510452	0.813117	99
Es	3.138894	0.074214	0.580540	99
Es	4.334268	-0.017676	0.958033	99
Es	0.927792	-0.421820	0.152141	99
Es	4.721055	0.017131	0.745380	99
Es	3.098043	-0.693910	0.470699	99
Es	2.294141	0.385540	0.274060	99
Es	3.512747	-0.517317	0.781825	99
Es	3.571076	0.717659	0.968511	99
Es	1.079528	0.046938	-0.033262	99
Es	3.251193	0.939189	0.797352	99
Es	4.391161	-0.272192	0.797002	99
Es	3.340248	0.511324	0.856084	99
Es	2.852006	-0.740607	0.534029	99
Es	3.498149	-1.136193	0.528074	99
Es	5.531174	0.469269	0.574876	99
Es	0.808594	-0.127112	0.174741	99
Es	1.598885	0.030649	0.190690	99
Es	5.760095	-0.576017	0.603619	99
Es	3.363325	0.644151	0.667974	99
Es	0.726957	0.414186	-0.135095	99
Es	5.323605	0.159197	0.566973	99
Es	2.911924	-0.915722	0.876249	99
