37
Properties=species:S:1:pos:R:3:Z:I:1 energy=-265.10363564963154 field_type=dipole dipole="0.000000 0.000000 0.000000" charge=0
C	1.049000	0.064950	0.023480	6
C	2.569810	-0.017070	-0.018780	6
C	3.072500	-1.219290	-0.847000	6
N	3.427710	-0.683520	-2.197290	7
C	3.434370	0.600300	-2.016140	6
N	3.115820	1.086370	-0.787420	7
H	0.727010	0.971790	0.544700	1
H	0.631170	-0.798470	0.550250	1
H	0.616450	0.092050	-0.982310	1
H	2.976940	-0.035810	0.997220	1
H	2.321370	-2.010810	-0.936010	1
H	3.976600	-1.647440	-0.398760	1
H	3.648110	1.345530	-2.798570	1
H	2.655460	1.986500	-0.735310	1
Es	3.059316	0.124736	-1.226821	99
Es	2.791656	-1.510521	-0.905210	99
Es	1.658657	0.521708	-0.004882	99
Es	3.604378	1.081897	-2.495770	99
Es	3.382997	0.164553	-1.921407	99
Es	1.450710	0.171007	0.258378	99
Es	2.020540	0.402026	-0.098727	99
Es	3.291813	0.779669	-1.139539	99
Es	3.060518	-0.170671	-0.874845	99
Es	3.386751	0.180090	-1.845882	99
Es	1.714059	0.046142	0.014329	99
Es	3.030712	0.931328	-1.052218	99
Es	3.586876	-0.464089	-2.031944	99
Es	0.910906	-0.416675	0.393327	99
Es	3.054497	1.404373	-0.763010	99
Es	1.942011	0.250384	-0.269207	99
Es	1.763445	-0.001505	-0.122954	99
Es	3.264682	-0.003288	-1.511355	99
Es	3.450686	-0.989086	-1.579355	99
Es	3.489399	-0.787944	-1.742096	99
Es	2.035348	-0.051444	-0.070004	99
Es	3.335657	-1.104188	-1.326464	99
Es	2.927313	-1.139552	-0.797106	99
