31
Properties=species:S:1:pos:R:3:Z:I:1 energy=-262.6991442355075 field_type=dipole dipole="0.000000 0.000000 0.000000" charge=0
C	0.910330	0.000510	0.001400	6
C	2.241400	-0.000050	-0.000220	6
C	3.163480	1.125160	-0.002090	6
N	4.401150	0.726200	-0.003330	7
N	4.400750	-0.727290	-0.002360	7
C	3.163110	-1.125690	-0.000590	6
H	0.348500	0.928770	0.001460	1
H	0.348000	-0.927530	0.002700	1
H	2.812040	2.164810	-0.002350	1
H	2.810940	-2.165100	0.000530	1
Es	4.755114	-0.890668	-0.002529	99
Es	3.851510	0.849371	-0.003713	99
Es	3.849654	-0.850222	-0.001540	99
Es	4.757349	0.881724	-0.003888	99
Es	3.163412	1.125167	-0.002086	99
Es	3.825949	0.896707	-0.001059	99
Es	2.941799	-1.796725	0.000055	99
Es	0.530047	-0.615803	0.002308	99
Es	2.241492	-0.000002	-0.000176	99
Es	3.825578	-0.898078	-0.001168	99
Es	3.163059	-1.125695	-0.000664	99
Es	0.910176	0.000414	0.001402	99
Es	4.399916	0.723172	-0.003329	99
Es	2.641487	0.601897	-0.001179	99
Es	2.941283	1.799996	-0.002385	99
Es	1.744651	0.000171	0.000190	99
Es	2.639495	-0.605836	-0.000269	99
Es	1.571794	0.000091	0.000676	99
Es	4.400279	-0.726710	-0.002360	99
Es	0.531222	0.616994	0.001445	99
Es	4.328670	0.010310	-0.003720	99
