34
Properties=species:S:1:pos:R:3:Z:I:1 energy=-263.8807685518278 field_type=dipole dipole="0.000000 0.000000 0.000000" charge=0
C	1.022310	0.024990	-0.172570	6
C	2.337080	-0.057380	0.037090	6
C	3.246150	-1.230600	0.149840	6
N	4.484810	-0.598760	0.626510	7
N	4.463870	0.764530	0.517750	7
C	3.238360	1.087010	0.239080	6
H	0.421650	-0.870000	-0.300610	1
H	0.512500	0.982090	-0.214520	1
H	3.406230	-1.690760	-0.829930	1
H	2.888870	-1.974350	0.866390	1
H	5.322020	-1.005440	0.210010	1
H	2.868010	2.115980	0.126420	1
Es	3.184658	-1.494834	0.089644	99
Es	3.964222	-0.937629	0.450630	99
Es	3.772717	0.929535	0.528722	99
Es	3.154443	-1.686432	0.154394	99
Es	4.629078	0.854502	0.546763	99
Es	2.266179	-0.048888	-0.002956	99
Es	2.773674	-0.626904	0.097544	99
Es	3.049347	1.662587	0.143701	99
Es	0.692887	-0.474787	-0.251604	99
Es	1.720450	-0.029605	-0.119158	99
Es	0.656424	0.660047	-0.198624	99
Es	4.457151	0.673006	0.537237	99
Es	3.433432	0.973782	0.202095	99
Es	0.965289	-0.061106	-0.180237	99
Es	3.269780	-1.265540	0.078085	99
Es	2.724747	0.610813	0.155255	99
Es	4.498686	-0.589160	0.756698	99
Es	4.598899	-0.655818	0.618462	99
Es	1.718369	-0.005274	0.017791	99
Es	3.723274	0.924978	0.270015	99
Es	4.629694	0.308163	0.563308	99
Es	4.825918	-0.738914	0.382781	99
