41
Properties=species:S:1:pos:R:3:Z:I:1 energy=-250.24255041714775 field_type=dipole dipole="0.000000 0.000000 0.000000" charge=0
C	1.072720	0.071260	-0.106370	6
C	2.560040	0.108740	-0.040640	6
N	3.353670	-0.547100	-1.075150	7
C	3.432690	0.919390	-0.991530	6
C	2.826520	1.720200	-2.113440	6
C	4.706090	1.500250	-0.433290	6
H	0.652140	0.863900	0.520550	1
H	0.706800	-0.887720	0.274970	1
H	0.679100	0.195590	-1.118770	1
H	2.911870	-0.037830	0.975670	1
H	2.771330	-0.842110	-1.859570	1
H	2.002720	1.201240	-2.613320	1
H	3.582090	1.933960	-2.877700	1
H	2.446940	2.674040	-1.733450	1
H	5.123420	0.886930	0.373080	1
H	4.519250	2.501170	-0.030040	1
H	5.465680	1.582640	-1.218060	1
Es	3.148515	-0.050751	-0.559725	99
Es	4.703880	1.467157	-0.476311	99
Es	1.793534	0.066938	-0.399250	99
Es	3.459771	1.708845	-1.530980	99
Es	3.916731	0.969620	-0.559127	99
Es	2.874534	-0.108266	-0.141322	99
Es	3.671469	1.284581	-1.194071	99
Es	4.039857	0.757714	-0.447968	99
Es	1.010024	-0.160328	-0.041469	99
Es	2.827663	1.219544	-1.594837	99
Es	2.736667	0.183396	-0.749861	99
Es	2.827583	0.231071	-0.389477	99
Es	2.595328	0.656839	-1.260696	99
Es	3.403697	0.624478	-0.853522	99
Es	3.127131	0.167418	-0.718290	99
Es	1.948078	-0.081589	-0.242335	99
Es	1.067635	0.061958	-0.205834	99
Es	0.876446	-0.219707	-0.340945	99
Es	2.399902	1.845220	-2.141249	99
Es	2.874042	0.589482	-1.041006	99
Es	4.063636	1.195785	-0.772680	99
Es	3.168908	0.163337	-0.740880	99
Es	3.367519	1.821700	-2.273135	99
Es	5.202081	1.557588	-0.771213	99
