35
Properties=species:S:1:pos:R:3:Z:I:1 energy=-247.83929716552046 field_type=dipole dipole="0.000000 0.000000 0.000000" charge=0
C	1.044340	-0.018580	-0.062320	6
C	2.529910	0.058560	0.004960	6
N	3.339970	-0.630820	-0.990990	7
C	3.313530	0.833190	-1.028760	6
C	4.487810	1.539830	-0.616890	6
C	5.473860	2.136280	-0.276520	6
H	0.600330	0.741830	0.587790	1
H	0.699700	-0.999800	0.279180	1
H	0.665190	0.142120	-1.077160	1
H	2.901090	0.013720	1.022510	1
H	2.768570	-1.012540	-1.744430	1
H	2.770310	1.265800	-1.863050	1
H	6.352390	2.656250	0.024520	1
Es	3.494642	0.763116	-0.946910	99
Es	3.005676	0.380160	-0.555576	99
Es	2.795614	0.079833	-0.396776	99
Es	5.071995	1.941518	-0.464506	99
Es	2.289843	0.042557	-0.043799	99
Es	0.874881	-0.496045	0.044937	99
Es	4.850654	1.967570	-0.250585	99
Es	1.502876	0.037126	-0.276357	99
Es	3.552931	0.802225	-0.903860	99
Es	2.763675	-0.207257	-0.494173	99
Es	2.954390	-0.000358	-0.763397	99
Es	5.490250	2.133751	-0.323680	99
Es	0.786626	0.184610	0.018425	99
Es	5.777914	2.436903	-0.224231	99
Es	3.454146	0.421160	-1.003074	99
Es	4.841810	1.669569	-0.573290	99
Es	3.387077	-0.545241	-1.018350	99
Es	3.016236	-0.598670	-1.065537	99
Es	3.370971	0.091883	-0.889700	99
Es	1.075037	-0.058213	-0.208709	99
Es	1.618234	0.212124	0.110059	99
Es	4.862588	1.543057	-0.540987	99
