40
Properties=species:S:1:pos:R:3:Z:I:1 energy=-266.2403281904197 field_type=dipole dipole="0.000000 0.000000 0.000000" charge=0
C	1.093020	-0.125230	-0.018900	6
C	2.575400	0.005710	-0.069790	6
N	3.307570	-0.446260	-1.249400	7
C	3.228730	1.000920	-0.996240	6
C	4.466470	1.736100	-0.584620	6
N	5.318550	1.876320	-1.760580	7
H	0.679870	0.576270	0.713440	1
H	0.812470	-1.138730	0.286810	1
H	0.622360	0.080970	-0.986840	1
H	3.041610	-0.206400	0.884800	1
H	2.677580	-0.698800	-2.012670	1
H	2.611920	1.575860	-1.677490	1
H	5.009910	1.200150	0.202100	1
H	4.201920	2.725730	-0.198200	1
H	5.480700	0.935810	-2.127200	1
H	6.230440	2.221220	-1.467980	1
Es	1.700500	-0.017668	0.046851	99
Es	4.635225	1.683976	-0.636610	99
Es	3.438768	-0.234372	-1.160487	99
Es	5.444659	1.539060	-1.961508	99
Es	1.129190	-0.079909	-0.071636	99
Es	1.889084	-0.046210	-0.178139	99
Es	3.421870	0.779970	-0.964904	99
Es	2.948898	0.272423	-0.717976	99
Es	4.637075	1.893062	-0.785581	99
Es	5.689778	2.082096	-1.618639	99
Es	4.739711	1.728784	-0.673040	99
Es	3.257832	0.043531	-1.114224	99
Es	5.326881	1.802239	-1.832944	99
Es	4.311483	1.737966	-0.656781	99
Es	3.706130	1.507910	-0.795247	99
Es	3.043442	-0.163493	-0.856293	99
Es	1.028649	-0.220170	0.028001	99
Es	1.572168	0.187747	0.278407	99
Es	3.063206	0.028917	-0.927906	99
Es	2.921714	-0.416024	-1.306127	99
Es	2.923108	0.544087	-0.543403	99
Es	3.081467	0.523629	-0.962890	99
Es	0.982947	-0.548911	0.104842	99
Es	5.173265	1.860280	-1.542226	99
