40
Properties=species:S:1:pos:R:3:Z:I:1 energy=-266.23605961105903 field_type=dipole dipole="0.000000 0.000000 0.000000" charge=0
C	0.945660	0.052440	-0.173270	6
C	2.437480	0.009930	0.037700	6
N	2.875320	-0.005090	1.454110	7
C	3.281180	-0.746310	-0.959770	6
C	3.298840	0.753660	-0.971650	6
N	4.496490	1.469160	-0.508960	7
H	0.681210	0.065670	-1.236550	1
H	0.520560	0.949560	0.289360	1
H	0.471610	-0.826160	0.277260	1
H	3.799010	-0.429600	1.534650	1
H	2.262830	-0.610650	2.001430	1
H	2.786400	-1.247040	-1.784880	1
H	4.172430	-1.263210	-0.624190	1
H	2.800360	1.225180	-1.816420	1
H	4.710430	1.159680	0.439500	1
H	4.266640	2.455430	-0.387640	1
Es	1.398581	-0.068692	-0.184732	99
Es	4.056668	0.720691	-0.375858	99
Es	4.550551	1.224838	-0.638641	99
Es	1.692407	-0.104508	0.274156	99
Es	2.823305	-0.015907	-0.029609	99
Es	3.789805	0.780058	-0.604963	99
Es	2.273901	-0.095315	-0.406538	99
Es	3.532382	0.554739	-0.458893	99
Es	2.090225	-0.061629	-0.233881	99
Es	2.724321	-0.050065	0.620130	99
Es	1.556746	-0.108440	0.377264	99
Es	2.006408	-0.173656	-0.458945	99
Es	2.975688	0.253320	1.534210	99
Es	3.528090	0.485514	-0.893084	99
Es	2.951854	0.243374	-0.633092	99
Es	3.029879	0.035654	0.678457	99
Es	3.448393	0.487092	-0.990340	99
Es	4.230467	1.017641	0.062633	99
Es	3.511694	0.541131	-1.129791	99
Es	2.057457	-0.267833	-0.804337	99
Es	0.749180	-0.482222	0.090927	99
Es	2.795674	0.022327	1.018565	99
Es	2.876438	0.090909	0.066679	99
Es	4.411093	1.147580	-0.483097	99
