10
Properties=species:S:1:pos:R:3:Z:I:1 energy=-40.21343211845962 field_type=dipole dipole="0.000000 0.000000 0.000000" charge=0
C	0.998260	-0.002460	-0.004360	6
H	2.090210	-0.002430	0.004140	1
H	0.633790	1.026860	0.004140	1
H	0.627040	-0.527730	0.878110	1
H	0.641360	-0.507470	-0.905400	1
Es	0.751517	0.694422	0.001456	99
Es	0.998259	-0.002461	-0.004359	99
Es	0.746968	-0.358047	0.593142	99
Es	0.756668	-0.344320	-0.614315	99
Es	1.737553	-0.002381	0.001455	99
