14
Properties=species:S:1:pos:R:3:Z:I:1 energy=-78.06427871491893 field_type=dipole dipole="0.000000 0.000000 0.000000" charge=0
C	0.989160	0.000100	0.000000	6
C	2.324920	-0.000170	-0.000000	6
H	0.429410	0.930140	0.000000	1
H	0.429070	-0.929850	0.000000	1
H	2.885000	0.929800	-0.000000	1
H	2.884670	-0.930200	0.000000	1
Es	1.657040	0.000011	-0.322902	99
Es	2.711307	-0.625954	-0.000020	99
Es	0.602724	0.625843	-0.000015	99
Es	0.989055	0.000101	-0.000000	99
Es	2.325026	-0.000170	-0.000001	99
Es	2.711599	0.625489	-0.000013	99
Es	0.602526	-0.625596	-0.000007	99
Es	1.657039	0.000012	0.322960	99
