11
Properties=species:S:1:pos:R:3:Z:I:1 energy=-76.8502288197849 field_type=dipole dipole="0.000000 0.000000 0.000000" charge=0
C	0.994950	0.000000	0.000000	6
C	2.195210	0.000000	0.000000	6
H	-0.070710	0.000000	0.000000	1
H	3.260870	0.000000	0.000000	1
Es	1.595084	0.161303	-0.317888	99
Es	2.888634	-0.000003	0.000017	99
Es	1.595087	0.194910	0.298905	99
Es	0.994699	0.000001	0.000003	99
Es	1.595086	-0.356202	0.018939	99
Es	2.195466	-0.000001	0.000001	99
Es	0.301503	-0.000007	0.000024	99
