18
Properties=species:S:1:pos:R:3:Z:I:1 energy=-115.9093229611059 field_type=dipole dipole="0.000000 0.000000 0.000000" charge=0
C	1.000000	0.000000	0.000000	6
C	2.444000	0.000000	0.000000	6
C	3.634160	0.000000	0.000000	6
H	0.598380	1.018180	0.035300	1
H	0.619550	-0.508000	0.893100	1
H	0.563040	-0.497070	-0.870590	1
H	4.700540	-0.000000	-0.000000	1
Es	3.050940	0.351931	0.062976	99
Es	3.051182	-0.121172	-0.335069	99
Es	3.634426	-0.000001	0.000003	99
Es	4.331320	0.000067	0.000268	99
Es	3.052314	-0.230679	0.273311	99
Es	0.764180	-0.341815	0.595503	99
Es	0.751751	0.681561	0.020462	99
Es	0.730108	-0.333043	-0.584432	99
Es	2.443713	0.000006	-0.000008	99
Es	1.744213	-0.000698	-0.005618	99
Es	1.000111	0.000001	0.000002	99
