23
Properties=species:S:1:pos:R:3:Z:I:1 energy=-134.3054896176333 field_type=dipole dipole="0.000000 0.000000 0.000000" charge=0
C	1.003950	0.005360	0.005080	6
C	2.522530	0.018720	0.012220	6
N	3.019010	1.388280	0.022740	7
H	0.635810	-1.025590	0.001510	1
H	0.606230	0.508110	-0.883090	1
H	0.599320	0.504840	0.891740	1
H	2.903270	-0.504330	-0.871300	1
H	2.892050	-0.507400	0.898210	1
H	2.702580	1.875140	-0.814970	1
H	4.037190	1.379250	-0.019610	1
Es	2.908505	1.561869	0.309716	99
Es	0.731668	0.344174	0.607100	99
Es	2.781938	-0.351410	-0.602023	99
Es	1.003967	0.005350	0.005066	99
Es	2.816480	0.792626	-0.005335	99
Es	3.019178	1.387996	0.022259	99
Es	2.777918	-0.341911	0.620009	99
Es	3.636272	1.369577	-0.020238	99
Es	1.757448	0.014421	0.006528	99
Es	0.739203	0.351838	-0.605390	99
Es	2.833846	1.663246	-0.499768	99
Es	0.756388	-0.699928	0.000165	99
Es	2.522541	0.018858	0.012218	99
