23
Properties=species:S:1:pos:R:3:Z:I:1 energy=-134.29323532740523 field_type=dipole dipole="0.000000 0.000000 0.000000" charge=0
C	1.004600	-0.001030	-0.001030	6
N	2.460720	0.013160	0.009890	7
C	2.968220	1.378100	0.002970	6
H	0.649640	-1.036480	0.006750	1
H	0.604390	0.485290	-0.896940	1
H	0.596890	0.493070	0.887160	1
H	2.807320	-0.477770	-0.813520	1
H	2.634660	1.929690	0.888270	1
H	2.653710	1.919200	-0.895700	1
H	4.062580	1.360640	0.019490	1
Es	2.968179	1.377987	0.002968	99
Es	2.746011	1.756547	-0.618735	99
Es	0.730867	0.343610	0.603515	99
Es	2.657904	-0.266048	-0.506637	99
Es	3.716228	1.366962	0.009150	99
Es	1.822172	0.025449	-0.019193	99
Es	0.761286	-0.708471	-0.000766	99
Es	2.665890	0.618044	-0.017572	99
Es	0.725488	0.341096	-0.620862	99
Es	2.732103	1.752684	0.605546	99
Es	2.460499	0.013475	0.009376	99
Es	2.575679	-0.151317	0.298033	99
Es	1.004724	-0.001030	-0.001031	99
