27
Properties=species:S:1:pos:R:3:Z:I:1 energy=-172.1328432821689 field_type=dipole dipole="0.000000 0.000000 0.000000" charge=0
C	0.342860	1.040170	-0.133990	6
C	0.966520	-0.318410	0.214100	6
N	-0.323240	-0.955570	-0.150000	7
C	-0.994970	0.336410	0.133680	6
H	0.593630	1.872350	0.527520	1
H	0.487280	1.344650	-1.176760	1
H	1.227980	-0.440650	1.271770	1
H	1.819740	-0.621710	-0.399050	1
H	-0.370890	-1.219770	-1.134860	1
H	-1.811340	0.590960	-0.547900	1
H	-1.354320	0.421830	1.165840	1
Es	-1.230506	0.392980	0.842820	99
Es	0.267894	-0.726741	-0.010243	99
Es	-0.994883	0.336303	0.133641	99
Es	1.135855	-0.397289	0.939825	99
Es	-0.666979	-0.414595	-0.048397	99
Es	-0.426795	-1.241181	0.050107	99
Es	-1.560158	0.508749	-0.335296	99
Es	1.554625	-0.531405	-0.207574	99
Es	0.744086	0.411754	0.047615	99
Es	0.518308	1.620955	0.318252	99
Es	-0.323062	-0.955079	-0.150325	99
Es	0.966390	-0.318446	0.214052	99
Es	0.437709	1.236056	-0.850189	99
Es	-0.337625	-1.072759	-0.754318	99
Es	0.342849	1.040140	-0.133982	99
Es	-0.367363	0.782900	0.001935	99
