30
Properties=species:S:1:pos:R:3:Z:I:1 energy=-173.3551935435064 field_type=dipole dipole="0.000000 0.000000 0.000000" charge=0
C	0.995150	0.008560	0.004170	6
C	2.519840	0.006210	0.002970	6
C	3.066090	-0.733630	-1.214010	6
N	3.008080	1.385270	0.019190	7
H	0.603520	0.528440	0.886150	1
H	0.607740	-1.015900	0.024190	1
H	0.590140	0.502890	-0.886750	1
H	2.871910	-0.494290	0.911140	1
H	2.741040	-0.265900	-2.150770	1
H	2.720490	-1.773120	-1.220610	1
H	4.161930	-0.748460	-1.206440	1
H	2.700350	1.871020	-0.823500	1
H	4.027570	1.387710	-0.012270	1
Es	1.749713	0.008722	-0.002806	99
Es	2.828507	-1.445201	-1.217630	99
Es	3.817224	-0.738733	-1.204990	99
Es	3.066097	-0.733642	-1.214021	99
Es	2.764793	-0.339683	0.624203	99
Es	0.730779	0.360360	0.602807	99
Es	2.895307	1.562292	0.305199	99
Es	2.840197	-0.406508	-1.850798	99
Es	2.794058	-0.375317	-0.621338	99
Es	3.627016	1.371127	-0.018039	99
Es	0.727633	0.348260	-0.609665	99
Es	0.735835	-0.693797	0.014420	99
Es	2.809377	0.788049	-0.011076	99
Es	3.008278	1.384985	0.018708	99
Es	2.827430	1.658542	-0.507018	99
Es	2.519863	0.006336	0.002924	99
Es	0.995160	0.008549	0.004158	99
