24
Properties=species:S:1:pos:R:3:Z:I:1 energy=-171.0223412227597 field_type=dipole dipole="0.000000 0.000000 0.000000" charge=0
C	1.001190	-0.052580	0.003430	6
C	2.520000	0.000000	0.000000	6
C	3.002020	1.361170	0.000000	6
N	3.386230	2.446160	0.000000	7
H	0.656460	-1.091500	0.001100	1
H	0.585380	0.445660	-0.879370	1
H	0.589740	0.440210	0.891320	1
H	2.895390	-0.532020	-0.881180	1
H	2.899540	-0.533780	0.878310	1
Es	3.386081	2.445744	-0.000001	99
Es	0.779003	-0.759716	0.001822	99
Es	0.731303	0.280569	0.606117	99
Es	2.778141	-0.332394	-0.589361	99
Es	3.388166	1.892198	0.244085	99
Es	1.001274	-0.052581	0.003430	99
Es	1.784920	-0.001920	0.001621	99
Es	2.520024	0.000153	0.000002	99
Es	2.780783	-0.333379	0.587552	99
Es	3.508480	2.794424	0.000104	99
Es	3.321916	1.915421	-0.284582	99
Es	0.728369	0.284217	-0.595840	99
Es	3.001900	1.360826	-0.000001	99
Es	2.775723	0.719624	0.000003	99
Es	2.921954	2.055108	0.040379	99
