30
Properties=species:S:1:pos:R:3:Z:I:1 energy=-173.34381273179685 field_type=dipole dipole="0.000000 0.000000 0.000000" charge=0
C	0.989590	-0.059390	0.004480	6
C	2.509780	-0.011780	-0.010210	6
N	2.962330	1.378310	0.006120	7
C	4.416930	1.455150	0.009070	6
H	0.645380	-1.098260	-0.017580	1
H	0.568560	0.454100	-0.866450	1
H	0.586500	0.409810	0.908200	1
H	2.872380	-0.517540	-0.912480	1
H	2.894530	-0.552410	0.862350	1
H	2.598200	1.846080	0.835850	1
H	4.839860	0.989670	-0.886990	1
H	4.842540	0.976400	0.896880	1
H	4.726240	2.504880	0.011580	1
Es	2.509777	-0.011655	-0.010206	99
Es	2.764583	-0.355669	-0.628768	99
Es	0.989609	-0.059399	0.004494	99
Es	0.757736	-0.770619	-0.008030	99
Es	3.601860	1.394969	0.031200	99
Es	4.714179	1.118546	0.623148	99
Es	4.701821	1.129961	-0.601144	99
Es	2.754844	1.642251	0.527413	99
Es	2.836027	1.541339	-0.279952	99
Es	2.783563	0.768003	0.024977	99
Es	0.705638	0.288728	-0.587181	99
Es	2.962572	1.378006	0.006623	99
Es	1.743439	-0.034465	0.000216	99
Es	2.778724	-0.390774	0.596773	99
Es	4.416806	1.455146	0.009072	99
Es	4.629673	2.172548	0.015829	99
Es	0.720296	0.264497	0.625840	99
