30
Properties=species:S:1:pos:R:3:Z:I:1 energy=-173.33419631067179 field_type=dipole dipole="0.000000 0.000000 0.000000" charge=0
C	0.999360	0.004160	-0.011260	6
N	2.461310	0.011110	-0.014320	7
C	2.973330	-0.712390	-1.176980	6
C	2.965860	1.383220	-0.003430	6
H	0.613760	0.509710	0.881500	1
H	0.619190	-1.023290	0.021960	1
H	0.579700	0.498410	-0.895420	1
H	2.630490	-1.753350	-1.164370	1
H	4.068790	-0.743270	-1.159650	1
H	2.656410	-0.256680	-2.122510	1
H	2.615580	1.915360	0.888440	1
H	2.650540	1.948860	-0.888180	1
H	4.061110	1.390370	0.037680	1
Es	2.572147	-0.148521	0.270833	99
Es	0.743220	-0.699054	0.003793	99
Es	2.670339	-0.283439	-0.544923	99
Es	2.750989	-0.392706	-1.831299	99
Es	2.731129	-1.420606	-1.169182	99
Es	2.965819	1.383107	-0.003430	99
Es	3.721662	-0.724980	-1.165905	99
Es	1.819971	0.024459	-0.042750	99
Es	2.718525	1.745843	0.602925	99
Es	0.999479	0.004160	-0.011258	99
Es	3.714127	1.384365	0.016998	99
Es	2.666981	0.618805	-0.039197	99
Es	2.973288	-0.712331	-1.176884	99
Es	0.712148	0.348278	-0.626774	99
Es	2.744671	1.772359	-0.619352	99
Es	2.461086	0.011440	-0.014912	99
Es	0.739508	0.356742	0.595713	99
