26
Properties=species:S:1:pos:R:3:Z:I:1 energy=-191.9897946529143 field_type=dipole dipole="0.000000 0.000000 0.000000" charge=0
C	1.004830	-0.122270	0.050170	6
O	2.413170	-0.020520	-0.138870	8
C	2.843850	1.276610	-0.162630	6
C	4.065810	1.596680	-0.589440	6
H	0.733650	-1.181580	0.021900	1
H	0.465790	0.392820	-0.752360	1
H	0.713830	0.280940	1.026120	1
H	2.142370	2.016770	0.199250	1
H	4.749650	0.829780	-0.937740	1
H	4.403830	2.626460	-0.596940	1
Es	2.544937	-0.109994	0.103818	99
Es	0.804821	0.163467	0.716272	99
Es	2.481205	-0.125101	-0.409851	99
Es	4.529096	1.084583	-0.825049	99
Es	4.065879	1.596706	-0.589457	99
Es	0.635683	0.238100	-0.495510	99
Es	2.541560	0.490848	-0.148649	99
Es	3.367149	1.500337	-0.693863	99
Es	1.879080	-0.022892	-0.065007	99
Es	1.005064	-0.122245	0.050140	99
Es	2.355134	1.772844	0.084229	99
Es	0.820448	-0.840364	0.031438	99
Es	4.294216	2.291254	-0.592794	99
Es	2.412950	-0.020200	-0.138792	99
Es	3.596732	1.422578	-0.080257	99
Es	2.843640	1.276357	-0.162572	99
