26
Properties=species:S:1:pos:R:3:Z:I:1 energy=-191.9833444672383 field_type=dipole dipole="0.000000 0.000000 0.000000" charge=0
O	1.024750	0.011320	-0.142280	8
C	2.444600	-0.034510	0.035770	6
C	3.199460	-0.744960	-1.048220	6
C	3.249200	0.752960	-0.955020	6
H	0.620060	0.681630	0.435010	1
H	2.828020	-0.123930	1.047170	1
H	2.628980	-1.187100	-1.856570	1
H	4.081580	-1.305550	-0.765010	1
H	4.171420	1.209350	-0.613370	1
H	2.721190	1.322780	-1.710200	1
Es	3.799621	-1.120310	-0.851119	99
Es	0.836437	0.381694	0.175768	99
Es	3.339558	0.009603	-1.148785	99
Es	3.249168	0.752793	-0.954966	99
Es	1.024867	0.011458	-0.142140	99
Es	2.444440	-0.034492	0.035591	99
Es	3.199425	-0.744797	-1.048130	99
Es	0.984756	0.103715	-0.429778	99
Es	2.762991	-0.561829	-0.440590	99
Es	2.813695	-1.037415	-1.590149	99
Es	2.811233	0.534818	-0.372363	99
Es	2.888506	1.134664	-1.460169	99
Es	0.918975	-0.254973	-0.040564	99
Es	1.562350	0.017755	-0.049102	99
Es	2.699950	-0.090322	0.728451	99
Es	3.878257	1.059028	-0.720012	99
