20
Properties=species:S:1:pos:R:3:Z:I:1 energy=-189.61048332910696 field_type=dipole dipole="0.000000 0.000000 0.000000" charge=0
O	0.956220	-0.017480	0.000000	8
C	2.178670	-0.016350	0.000000	6
C	2.919300	1.221050	0.000000	6
C	3.535320	2.252140	0.000000	6
H	2.784750	-0.935790	0.000000	1
H	4.071560	3.173120	0.000000	1
Es	0.835763	0.266879	0.000047	99
Es	3.535434	2.252341	-0.000004	99
Es	3.051657	1.781190	-0.302170	99
Es	3.548230	1.562860	0.001171	99
Es	2.578559	0.625884	0.000090	99
Es	0.842204	-0.307446	-0.000246	99
Es	2.598013	-0.628003	-0.000076	99
Es	2.178746	-0.016233	0.000002	99
Es	1.421665	-0.010152	0.251661	99
Es	3.049748	1.783250	0.301016	99
Es	0.956569	-0.017477	-0.000001	99
Es	3.882604	2.847490	-0.000180	99
Es	1.421758	-0.009868	-0.251321	99
Es	2.919194	1.220834	0.000011	99
