25
Properties=species:S:1:pos:R:3:Z:I:1 energy=-207.96302319281915 field_type=dipole dipole="0.000000 0.000000 0.000000" charge=0
C	0.992300	0.005430	-0.006910	6
C	2.486660	0.067620	0.026100	6
N	3.099680	1.200220	-0.106660	7
O	4.475430	0.979270	0.007250	8
H	0.676840	-1.030140	-0.150070	1
H	0.605330	0.625860	-0.820720	1
H	0.598670	0.368850	0.946870	1
H	3.028860	-0.871480	0.222870	1
H	4.838630	1.883930	-0.063100	1
Es	3.875337	1.075900	-0.041836	99
Es	0.992370	0.005422	-0.006904	99
Es	2.980183	1.556047	-0.167874	99
Es	0.736486	0.420028	-0.550883	99
Es	2.486610	0.067612	0.026092	99
Es	2.815328	0.749147	0.235761	99
Es	4.514362	0.876197	0.295347	99
Es	4.475284	0.979599	0.007140	99
Es	0.783217	-0.697144	-0.104324	99
Es	2.848728	0.658922	-0.340170	99
Es	1.746189	0.037048	0.001998	99
Es	4.665796	1.465407	-0.032164	99
Es	3.099953	1.199682	-0.106564	99
Es	2.850146	-0.565103	0.156579	99
Es	4.549065	0.817192	-0.243054	99
Es	0.739588	0.246741	0.632850	99
