22
Properties=species:S:1:pos:R:3:Z:I:1 energy=-153.7652089378117 field_type=dipole dipole="0.000000 0.000000 0.000000" charge=0
C	0.975710	-0.012720	-0.000000	6
C	2.312760	0.003460	-0.000000	6
C	3.037060	1.224250	0.000000	6
C	3.645990	2.258930	0.000000	6
H	0.433290	-0.952370	-0.000000	1
H	0.394400	0.903820	-0.000000	1
H	2.873080	-0.926680	-0.000000	1
H	4.179120	3.180030	0.000000	1
Es	2.312916	0.003557	0.000002	99
Es	0.975628	-0.012728	-0.000000	99
Es	1.673590	0.013650	0.319639	99
Es	2.693879	0.629128	-0.000204	99
Es	3.646108	2.259137	0.000001	99
Es	3.145645	1.848567	-0.277471	99
Es	2.698908	-0.607280	-0.000040	99
Es	3.214358	1.802407	0.325819	99
Es	0.579796	0.599700	-0.000028	99
Es	3.036938	1.224029	0.000003	99
Es	3.993949	2.859269	-0.000011	99
Es	1.673626	0.013589	-0.319612	99
Es	0.605325	-0.645059	0.000033	99
Es	3.653166	1.569018	-0.048130	99
