28
Properties=species:S:1:pos:R:3:Z:I:1 energy=-156.16391293482883 field_type=dipole dipole="0.000000 0.000000 0.000000" charge=0
C	0.953720	-0.007970	0.008390	6
C	2.447310	-0.000630	0.012960	6
C	3.174780	1.126260	-0.012110	6
C	4.668540	1.157370	-0.009290	6
H	0.586740	-1.038030	-0.046200	1
H	0.560860	0.532270	-0.858610	1
H	0.559950	0.440180	0.925810	1
H	2.943090	-0.968490	0.037480	1
H	2.672370	2.091090	-0.033710	1
H	5.103440	0.152750	0.002280	1
H	5.028340	1.695770	0.872430	1
H	5.031570	1.675960	-0.901910	1
Es	3.174871	1.126364	-0.012127	99
Es	2.836118	1.788667	-0.027368	99
Es	2.813906	0.567688	0.329300	99
Es	4.668505	1.157376	-0.009290	99
Es	2.815729	0.551709	-0.329413	99
Es	2.447218	-0.000722	0.012967	99
Es	1.698102	-0.006042	0.010398	99
Es	4.905621	1.523878	0.587772	99
Es	0.704103	-0.709998	-0.028645	99
Es	0.953755	-0.007976	0.008390	99
Es	0.693483	0.299253	0.627483	99
Es	3.923122	1.138495	-0.010454	99
Es	4.959051	0.472000	-0.001228	99
Es	0.693464	0.362628	-0.576051	99
Es	2.782401	-0.663553	0.030151	99
Es	4.907880	1.510435	-0.613828	99
