33
Properties=species:S:1:pos:R:3:Z:I:1 energy=-231.07937362321684 field_type=dipole dipole="0.000000 0.000000 0.000000" charge=0
C	0.970700	-0.102760	-0.066620	6
C	2.479500	-0.018350	0.048690	6
C	2.953550	1.417540	0.007060	6
C	2.963960	2.104990	-1.332730	6
O	3.281250	2.013150	1.033840	8
H	0.638480	-1.141370	0.026330	1
H	0.624590	0.278810	-1.032530	1
H	0.483430	0.485990	0.717690	1
H	2.966570	-0.577640	-0.756820	1
H	2.809860	-0.462630	0.994110	1
H	3.482560	1.480480	-2.064740	1
H	3.497220	3.056710	-1.252170	1
H	1.939190	2.296470	-1.659080	1
Es	2.953546	1.417540	0.007032	99
Es	2.699254	-0.316893	0.685422	99
Es	3.318079	2.740965	-1.280514	99
Es	3.306772	1.673399	-1.818950	99
Es	0.741225	0.159881	-0.727185	99
Es	2.276194	2.218222	-1.539041	99
Es	3.281129	2.012937	1.033551	99
Es	2.716715	0.695395	0.014200	99
Es	0.752164	-0.807269	-0.004392	99
Es	2.808528	-0.387841	-0.507077	99
Es	3.367645	2.314087	0.982488	99
Es	2.963942	2.104946	-1.332712	99
Es	2.957392	1.756680	-0.678034	99
Es	3.258897	1.831315	1.292221	99
Es	0.646543	0.297741	0.464930	99
Es	0.970760	-0.102751	-0.066628	99
Es	2.926211	1.873988	0.697245	99
Es	3.403810	1.724797	0.631977	99
Es	1.738748	-0.040818	-0.016361	99
Es	2.479471	-0.018307	0.048654	99
