36
Properties=species:S:1:pos:R:3:Z:I:1 energy=-232.22982009505955 field_type=dipole dipole="0.000000 0.000000 0.000000" charge=0
C	1.019320	-0.098670	0.138210	6
O	2.413600	0.078170	0.348170	8
C	2.859510	1.418700	0.128870	6
C	2.492760	2.315920	1.306490	6
C	4.373580	1.362870	-0.039250	6
H	0.790790	-1.162930	0.244770	1
H	0.736830	0.215960	-0.871140	1
H	0.437590	0.450600	0.883070	1
H	2.420900	1.810710	-0.796180	1
H	2.842310	1.884870	2.251780	1
H	1.407430	2.429990	1.393380	1
H	2.925830	3.315410	1.193910	1
H	4.854120	0.943840	0.852450	1
H	4.791670	2.356520	-0.229120	1
H	4.640030	0.707900	-0.876420	1
Es	4.694801	1.085300	0.571442	99
Es	0.615082	0.285303	0.645449	99
Es	2.790025	2.994969	1.221997	99
Es	2.668302	1.877936	0.726594	99
Es	4.373568	1.362887	-0.039251	99
Es	2.492751	2.315927	1.306478	99
Es	3.623820	1.393656	0.047247	99
Es	2.548957	1.691848	-0.509714	99
Es	0.861982	-0.822772	0.210354	99
Es	1.875820	0.049229	0.262475	99
Es	1.750593	2.392666	1.360422	99
Es	1.019525	-0.098637	0.138240	99
Es	2.736820	2.022030	1.943749	99
Es	2.462977	0.024880	0.645399	99
Es	2.541541	0.595238	0.257693	99
Es	4.650438	2.045944	-0.167761	99
Es	2.413368	0.078433	0.348019	99
Es	0.821835	0.125957	-0.555851	99
Es	2.859457	1.418504	0.128941	99
Es	2.548442	-0.089936	0.129248	99
Es	4.552180	0.922995	-0.612717	99
