33
Properties=species:S:1:pos:R:3:Z:I:1 energy=-231.03946303579085 field_type=dipole dipole="0.000000 0.000000 0.000000" charge=0
C	1.184480	0.161850	-0.798370	6
O	2.284660	0.162990	0.106540	8
C	3.055330	1.311600	0.058980	6
C	2.364760	2.643790	0.058150	6
C	4.386590	1.189780	0.111320	6
H	0.766920	-0.849140	-0.819440	1
H	1.506360	0.419080	-1.813260	1
H	0.398750	0.843410	-0.457830	1
H	1.603890	2.678600	0.844760	1
H	1.883770	2.833360	-0.906480	1
H	3.066370	3.464290	0.244190	1
H	4.848410	0.208550	0.152810	1
H	5.041210	2.054030	0.117410	1
Es	2.696690	1.973950	0.048651	99
Es	2.040818	2.760013	-0.593094	99
Es	3.776910	1.257478	-0.255824	99
Es	4.829301	1.777485	0.118913	99
Es	3.055017	1.311459	0.058977	99
Es	1.184662	0.161859	-0.798224	99
Es	2.466553	-0.065798	0.021397	99
Es	1.404715	0.346643	-1.492467	99
Es	4.386675	1.189784	0.111326	99
Es	4.704698	0.530328	0.137443	99
Es	3.744054	1.262615	0.408656	99
Es	0.901783	-0.524140	-0.811870	99
Es	0.647889	0.635861	-0.570768	99
Es	2.284562	0.163315	0.106327	99
Es	2.556091	0.618767	0.048493	99
Es	2.845218	3.188776	0.181156	99
Es	2.364774	2.643743	0.058142	99
Es	2.178097	0.189194	0.378450	99
Es	1.878357	0.204786	-0.243772	99
Es	1.852335	2.656064	0.586652	99
