33
Properties=species:S:1:pos:R:3:Z:I:1 energy=-231.03493167264793 field_type=dipole dipole="0.000000 0.000000 0.000000" charge=0
O	3.045060	-0.947280	-0.571510	8
C	2.366950	0.101240	0.102440	6
C	3.248940	1.303440	0.110750	6
C	3.289710	2.231540	-1.075590	6
C	2.660800	2.686840	0.213450	6
H	2.443780	-1.710270	-0.578170	1
H	2.155920	-0.218980	1.127860	1
H	1.418570	0.292130	-0.410380	1
H	4.181970	1.109170	0.627550	1
H	2.640720	2.020040	-1.917760	1
H	4.250410	2.649440	-1.352640	1
H	3.195190	3.420930	0.805280	1
H	1.582830	2.797450	0.237780	1
Es	3.044779	-0.947324	-0.571322	99
Es	3.025397	3.182777	0.615100	99
Es	2.796232	0.714972	0.098805	99
Es	2.769163	-0.564837	-0.313403	99
Es	3.881782	1.180205	0.461981	99
Es	1.927833	2.753725	0.229581	99
Es	2.896318	1.957978	0.348988	99
Es	2.367066	0.101080	0.102326	99
Es	3.281888	-1.024093	-0.393117	99
Es	1.707383	0.241076	-0.249000	99
Es	2.660880	2.686708	0.213356	99
Es	2.934855	2.629368	-0.507791	99
Es	3.248867	1.303597	0.110672	99
Es	2.705902	-1.350191	-0.565084	99
Es	3.352889	1.632579	-0.587700	99
Es	3.077090	-0.857754	-0.863303	99
Es	2.215851	-0.115739	0.813043	99
Es	3.941041	2.517470	-1.258670	99
Es	2.843549	2.086275	-1.641277	99
Es	3.289659	2.231515	-1.075416	99
