26
Properties=species:S:1:pos:R:3:Z:I:1 energy=-244.7179606421878 field_type=dipole dipole="0.000000 0.000000 0.000000" charge=0
O	-0.364120	-1.098740	-0.004060	8
C	-1.148760	0.015440	-0.002100	6
C	-0.324340	1.112570	0.000780	6
N	0.987070	0.710850	0.000690	7
C	0.903710	-0.600350	-0.002210	6
H	-2.216100	-0.143630	-0.003090	1
H	-0.600860	2.158180	0.002890	1
H	1.708060	-1.322440	-0.003300	1
Es	-0.324235	1.112572	0.000785	99
Es	-0.741735	0.564740	0.325720	99
Es	0.986636	0.710476	0.000688	99
Es	-0.277473	-1.011234	-0.234729	99
Es	0.903462	-0.600458	-0.002215	99
Es	0.914161	0.178527	-0.278524	99
Es	-1.148662	0.015141	-0.002118	99
Es	-1.861640	-0.090607	-0.002449	99
Es	-0.446346	-1.372901	0.101654	99
Es	0.916190	0.175089	0.275128	99
Es	0.092272	-0.912528	0.087269	99
Es	0.408874	0.897777	0.002036	99
Es	1.437279	-1.086328	-0.002327	99
Es	-0.512111	1.815071	0.002374	99
Es	-0.661236	-0.684776	0.032072	99
Es	-0.363968	-1.098307	-0.004002	99
Es	1.283177	0.922150	0.001645	99
Es	-0.738579	0.566043	-0.328923	99
