32
Properties=species:S:1:pos:R:3:Z:I:1 energy=-247.1081002639487 field_type=dipole dipole="0.000000 0.000000 0.000000" charge=0
C	1.008330	-0.112730	-0.086740	6
C	2.511980	0.014550	0.073540	6
C	2.963190	1.454290	0.004810	6
N	2.828210	2.052440	-1.211770	7
O	3.427470	2.062350	0.961760	8
H	0.700740	-1.156860	0.026350	1
H	0.680580	0.231690	-1.073050	1
H	0.482660	0.484300	0.665740	1
H	3.030210	-0.556870	-0.704080	1
H	2.820270	-0.396710	1.041150	1
H	2.511750	1.563800	-2.036530	1
H	3.141820	3.010170	-1.300070	1
Es	3.024499	2.608812	-1.278444	99
Es	3.501402	1.780139	0.582470	99
Es	2.732945	0.736271	0.025973	99
Es	0.792541	0.123093	-0.763752	99
Es	3.064823	1.776073	-0.847797	99
Es	2.963154	1.454326	0.004641	99
Es	2.597645	2.020191	-0.949788	99
Es	2.716612	-0.261548	0.722494	99
Es	3.439107	1.889554	1.219792	99
Es	3.427349	2.062231	0.961477	99
Es	3.041444	1.929716	0.704308	99
Es	2.511952	0.014604	0.073499	99
Es	1.771189	-0.031722	-0.014834	99
Es	2.828565	2.052264	-1.211767	99
Es	2.656603	1.754961	-1.704096	99
Es	0.657821	0.293042	0.423353	99
Es	1.008389	-0.112724	-0.086747	99
Es	3.502086	2.360614	0.881320	99
Es	0.805962	-0.822463	-0.010637	99
Es	2.861735	-0.360109	-0.463319	99
