29
Properties=species:S:1:pos:R:3:Z:I:1 energy=-245.9050383645903 field_type=dipole dipole="0.000000 0.000000 0.000000" charge=0
C	0.923660	-0.363060	0.019170	6
C	2.186480	0.055720	-0.087740	6
N	2.500580	1.383240	-0.156840	7
C	3.767410	1.887620	-0.267020	6
O	4.010180	3.085820	-0.326410	8
H	0.698790	-1.423930	0.072470	1
H	0.084720	0.324590	0.056650	1
H	3.008890	-0.655400	-0.123200	1
H	1.765740	2.080950	-0.127330	1
H	4.557209	1.118500	-0.298080	1
Es	4.293401	1.349180	-0.286181	99
Es	3.910304	2.665863	-0.556248	99
Es	3.743810	3.247270	-0.311450	99
Es	1.501728	-0.179360	-0.357570	99
Es	2.611062	1.369208	-0.340131	99
Es	3.031787	1.576069	-0.088238	99
Es	0.359026	0.108659	0.044146	99
Es	1.549815	-0.157071	0.293916	99
Es	2.753611	-0.404983	-0.113014	99
Es	2.500716	1.383220	-0.156380	99
Es	4.010152	3.085448	-0.326395	99
Es	0.769338	-1.076818	0.055280	99
Es	3.767251	1.887525	-0.267005	99
Es	2.063747	1.784005	-0.118333	99
Es	2.186667	0.055930	-0.087762	99
Es	3.947986	2.681389	-0.057437	99
Es	0.923600	-0.363072	0.019179	99
Es	2.379082	0.812844	-0.087740	99
Es	4.310719	3.145279	-0.350508	99
