35
Properties=species:S:1:pos:R:3:Z:I:1 energy=-248.2434640313212 field_type=dipole dipole="0.000000 0.000000 0.000000" charge=0
C	0.888740	-0.016990	0.022580	6
C	2.406710	0.010590	-0.026730	6
O	2.837530	-0.584510	-1.253310	8
C	2.958220	1.444530	0.051930	6
N	4.416150	1.429380	-0.138130	7
H	0.513620	0.420580	0.952340	1
H	0.523360	-1.046760	-0.052150	1
H	0.458520	0.530500	-0.823020	1
H	2.812510	-0.594040	0.792770	1
H	3.730650	-0.210280	-1.405140	1
H	2.708010	1.905290	1.012910	1
H	2.525270	2.055660	-0.747570	1
H	4.853040	0.948040	0.649260	1
H	4.762140	2.389110	-0.102620	1
Es	4.615225	2.009853	-0.102980	99
Es	0.602691	0.363375	-0.548022	99
Es	2.837697	-0.584306	-1.253121	99
Es	2.958384	1.444514	0.051923	99
Es	2.406756	0.010552	-0.026923	99
Es	2.690634	-0.395678	0.552614	99
Es	2.661030	1.861497	-0.492669	99
Es	1.641470	0.004475	0.002317	99
Es	0.888760	-0.016981	0.022598	99
Es	3.793358	1.444615	-0.031498	99
Es	2.690410	-0.349405	-0.784195	99
Es	4.501988	1.263350	-0.450196	99
Es	2.655481	-0.462597	-1.468786	99
Es	2.778437	1.757824	0.719273	99
Es	4.416007	1.429595	-0.137657	99
Es	0.645088	-0.714847	-0.021011	99
Es	0.641341	0.284316	0.660619	99
Es	4.667546	1.148338	0.351670	99
Es	2.860002	-0.886919	-1.203467	99
Es	2.684693	0.739023	0.019684	99
Es	3.307904	-0.388576	-1.320028	99
