32
Properties=species:S:1:pos:R:3:Z:I:1 energy=-246.9994058029339 field_type=dipole dipole="0.000000 0.000000 0.000000" charge=0
C	0.918800	-0.213920	-0.245940	6
C	2.419790	-0.015930	-0.182210	6
O	2.683210	1.338610	0.182310	8
N	4.072810	1.517560	0.248670	7
C	4.312880	2.738660	0.588640	6
H	0.672160	-1.244390	-0.516430	1
H	0.471810	0.461580	-0.982880	1
H	0.457740	0.018450	0.719750	1
H	2.868360	-0.225790	-1.159560	1
H	2.855340	-0.687450	0.565980	1
H	5.352030	3.084220	0.696860	1
H	3.515980	3.475900	0.782750	1
Es	2.611505	0.824845	0.044091	99
Es	3.297364	1.410295	0.209895	99
Es	2.726603	-0.162640	-0.853993	99
Es	4.180340	1.988543	0.680800	99
Es	2.597224	1.523105	-0.049795	99
Es	3.781841	3.234283	0.719094	99
Es	0.619582	0.241758	-0.750512	99
Es	2.717761	-0.479605	0.330929	99
Es	4.312905	2.738678	0.588645	99
Es	5.008136	2.970238	0.661190	99
Es	1.665746	-0.109706	-0.212828	99
Es	4.072386	1.518028	0.248799	99
Es	0.610036	-0.060935	0.412026	99
Es	2.419779	-0.015703	-0.182150	99
Es	2.589447	1.383750	0.473514	99
Es	0.761707	-0.915907	-0.430182	99
Es	4.187019	2.142697	0.121922	99
Es	4.291680	1.220004	0.169148	99
Es	0.918833	-0.213925	-0.245939	99
Es	2.683453	1.338336	0.182248	99
