32
Properties=species:S:1:pos:R:3:Z:I:1 energy=-247.08238968612687 field_type=dipole dipole="0.000000 0.000000 0.000000" charge=0
C	1.020790	0.018050	-0.154330	6
N	2.451600	0.016000	0.071880	7
C	3.144460	-1.257080	0.023600	6
C	3.163070	1.193060	0.175930	6
O	4.379310	1.292620	0.272890	8
H	0.607660	1.025490	-0.055970	1
H	0.543550	-0.639300	0.578050	1
H	0.823310	-0.351720	-1.164280	1
H	2.676100	-1.943520	0.734100	1
H	4.202600	-1.148360	0.277740	1
H	3.061340	-1.662980	-0.988050	1
H	2.516190	2.085830	0.174560	1
Es	4.517663	1.015416	0.267318	99
Es	2.743294	-0.522698	0.043289	99
Es	1.841227	0.020561	-0.030682	99
Es	3.081837	-1.535799	-0.666318	99
Es	4.461528	1.587439	0.297890	99
Es	3.144341	-1.256920	0.023603	99
Es	2.703026	0.411581	-0.133466	99
Es	4.379062	1.292583	0.272885	99
Es	2.817612	-1.724058	0.504600	99
Es	0.751382	0.703349	-0.086429	99
Es	3.992200	1.270594	-0.008421	99
Es	2.451652	0.016078	0.071662	99
Es	3.162967	1.192923	0.175921	99
Es	3.840804	-1.183347	0.193405	99
Es	0.883467	-0.236086	-0.841894	99
Es	3.953218	1.240264	0.486946	99
Es	2.569320	0.261884	0.380182	99
Es	2.703959	1.795960	0.171878	99
Es	1.020970	0.018061	-0.154299	99
Es	0.695481	-0.430793	0.341681	99
