32
Properties=species:S:1:pos:R:3:Z:I:1 energy=-247.00371884402767 field_type=dipole dipole="0.000000 0.000000 0.000000" charge=0
C	1.612430	-0.449750	-0.485590	6
O	3.006190	-0.225160	-0.308370	8
N	3.223460	1.157840	-0.221460	7
C	4.488140	1.367200	-0.061070	6
C	5.025920	2.756870	0.064410	6
H	1.441710	-1.527410	-0.553270	1
H	1.267360	0.021020	-1.411350	1
H	1.053460	-0.056910	0.369370	1
H	5.218000	0.540160	-0.010340	1
H	4.223160	3.495410	0.001490	1
H	5.748700	2.929910	-0.736970	1
H	5.538960	2.852010	1.024780	1
Es	3.808267	1.262924	-0.441179	99
Es	1.371746	-0.127779	-1.118090	99
Es	1.612658	-0.449727	-0.485562	99
Es	3.091642	0.382690	-0.270971	99
Es	2.472115	-0.283346	-0.375717	99
Es	4.488718	3.251501	0.022336	99
Es	3.086896	-0.331254	-0.029449	99
Es	2.922860	1.387173	-0.247413	99
Es	5.510359	2.861953	-0.475401	99
Es	1.501701	-1.184779	-0.530992	99
Es	3.223913	1.157468	-0.221422	99
Es	3.154629	-0.309643	-0.567824	99
Es	1.225715	-0.180843	0.097304	99
Es	5.369370	2.809643	0.709683	99
Es	3.005916	-0.224911	-0.308423	99
Es	3.738974	1.237498	0.138067	99
Es	4.488169	1.367244	-0.061069	99
Es	4.748396	2.058767	0.000552	99
Es	4.981870	0.814032	-0.026489	99
Es	5.025914	2.756797	0.064406	99
