32
Properties=species:S:1:pos:R:3:Z:I:1 energy=-247.0224926993791 field_type=dipole dipole="0.000000 0.000000 0.000000" charge=0
O	0.914360	0.011060	-0.011300	8
C	2.356600	0.020020	-0.008300	6
C	3.047840	1.025050	0.938700	6
N	4.048420	-0.015980	1.273000	7
C	3.071240	-1.045280	0.851880	6
H	0.671200	-0.798680	-0.491350	1
H	2.742800	0.069770	-1.035210	1
H	2.438780	1.338400	1.794590	1
H	3.462280	1.915930	0.458210	1
H	4.878850	0.021950	0.681610	1
H	3.504010	-1.883500	0.298490	1
H	2.469820	-1.442650	1.677440	1
Es	3.664822	-0.505778	1.089865	99
Es	2.356375	0.020011	-0.008274	99
Es	2.658186	-0.589060	0.380633	99
Es	0.823678	0.246969	-0.183894	99
Es	2.631822	1.225353	1.519565	99
Es	3.371093	-1.624785	0.470546	99
Es	2.630761	0.049676	-0.713183	99
Es	3.047931	1.024923	0.938694	99
Es	4.150717	-0.028886	1.611977	99
Es	0.914584	0.010798	-0.011402	99
Es	1.454302	-0.001277	-0.024392	99
Es	3.071342	-1.045174	0.851895	99
Es	2.657863	-1.305211	1.413332	99
Es	0.830216	-0.030435	0.281011	99
Es	4.521790	0.007130	0.881084	99
Es	0.799927	-0.430436	-0.273628	99
Es	4.048223	-0.015958	1.272390	99
Es	3.653254	0.476413	1.130571	99
Es	3.335989	1.637062	0.608959	99
Es	2.637933	0.593582	0.428343	99
