26
Properties=species:S:1:pos:R:3:Z:I:1 energy=-244.6053224183887 field_type=dipole dipole="0.000000 0.000000 0.000000" charge=0
O	0.962240	0.075370	0.000000	8
N	2.357900	-0.048300	-0.000000	7
C	2.879440	1.127480	0.000000	6
C	4.313620	1.092510	0.000000	6
C	5.514840	1.069440	0.000000	6
H	0.671350	-0.856370	-0.000000	1
H	2.336460	2.084830	0.000000	1
H	6.579590	1.038460	-0.000000	1
Es	2.357564	-0.047750	-0.000000	99
Es	4.313340	1.092532	0.000002	99
Es	5.515075	1.069423	-0.000002	99
Es	2.879581	1.127492	-0.000001	99
Es	0.962454	0.075029	0.000020	99
Es	2.503752	-0.393783	0.000036	99
Es	2.609949	0.494688	-0.286447	99
Es	4.906033	1.306130	0.278756	99
Es	2.609948	0.494747	0.286440	99
Es	6.206738	1.050189	-0.000067	99
Es	4.903685	0.730397	0.049704	99
Es	1.572777	0.021324	-0.000644	99
Es	4.897450	1.214327	-0.328758	99
Es	2.526884	1.757654	0.000005	99
Es	0.903085	0.205784	-0.269102	99
Es	0.811586	-0.423158	-0.000568	99
Es	0.904066	0.204400	0.270301	99
Es	3.617213	1.126267	0.000328	99
