30
Properties=species:S:1:pos:R:3:Z:I:1 energy=-567.3827400697123 field_type=dipole dipole="0.000000 0.000000 0.000000" charge=0
S	-0.495640	-1.398260	-0.001780	16
C	-1.298490	0.118340	-0.001190	6
C	-0.369410	1.136540	-0.000950	6
N	0.953250	0.738870	-0.001230	7
C	1.009970	-0.574760	-0.001670	6
H	-2.376660	0.189210	-0.001040	1
H	-0.603660	2.193570	-0.000570	1
H	1.949070	-1.113240	-0.001960	1
Es	-0.821981	0.583930	0.315704	99
Es	-0.580832	-1.393639	-0.081192	99
Es	-0.404221	-1.466396	-0.042236	99
Es	-0.822191	0.584167	-0.317674	99
Es	-1.298470	0.118136	-0.001198	99
Es	1.625265	-0.951041	-0.001942	99
Es	-0.503486	-1.549715	-0.416779	99
Es	1.009836	-0.574845	-0.001671	99
Es	-0.530909	1.845772	-0.000774	99
Es	-0.458096	-1.288355	0.018537	99
Es	-0.369303	1.136524	-0.000951	99
Es	-0.498645	-1.538452	0.415371	99
Es	-0.495665	-1.398192	-0.001595	99
Es	-0.538087	-1.441930	0.097442	99
Es	-0.948481	-0.633952	-0.002265	99
Es	0.952802	0.738497	-0.001230	99
Es	-2.013804	0.153813	-0.001098	99
Es	0.909099	0.191541	0.268641	99
Es	0.365899	0.911999	-0.001324	99
Es	1.237600	0.959382	-0.001629	99
Es	0.293934	-1.002810	-0.003243	99
Es	0.909667	0.190673	-0.270636	99
