32
Properties=species:S:1:pos:R:3:Z:I:1 energy=-194.0287254267126 field_type=dipole dipole="0.000000 0.000000 0.000000" charge=0
C	1.023490	-0.023630	0.225630	6
C	2.511150	-0.103970	0.013480	6
C	3.075800	-1.224310	-0.467840	6
C	3.345080	1.044120	0.333320	6
C	2.921850	2.219050	0.817350	6
H	0.587410	0.776390	-0.382240	1
H	0.791360	0.165380	1.279250	1
H	0.519540	-0.955240	-0.055110	1
H	2.478660	-2.096730	-0.715370	1
H	4.146020	-1.309280	-0.630460	1
H	4.415340	0.930930	0.160320	1
H	1.878640	2.430360	1.023120	1
H	3.632860	3.013520	1.022240	1
Es	3.075845	-1.224398	-0.467881	99
Es	2.921816	2.219136	0.817385	99
Es	3.803791	-1.283570	-0.578733	99
Es	3.398836	2.761341	0.958225	99
Es	0.876243	0.108261	0.936477	99
Es	1.023537	-0.023626	0.225626	99
Es	2.917267	0.477669	0.177609	99
Es	2.845211	-0.765364	0.074441	99
Es	2.771652	-0.544326	-0.526248	99
Es	0.738752	0.520176	-0.183692	99
Es	1.769821	-0.058562	0.121251	99
Es	2.215585	2.364654	0.957580	99
Es	2.672951	-1.820320	-0.637401	99
Es	2.511084	-0.103856	0.013530	99
Es	3.082248	1.731616	0.272578	99
Es	4.070230	0.956951	0.212236	99
Es	3.156058	1.510477	0.873899	99
Es	0.689061	-0.658983	0.033032	99
Es	3.345100	1.044022	0.333282	99
