35
Properties=species:S:1:pos:R:3:Z:I:1 energy=-195.212105711684 field_type=dipole dipole="0.000000 0.000000 0.000000" charge=0
C	0.888760	-0.071690	-0.085170	6
C	2.411870	0.020100	0.001800	6
C	3.064070	-0.784470	-1.122210	6
C	2.852510	1.461390	-0.064910	6
C	3.522500	2.086600	0.912070	6
H	0.415160	0.485430	0.730720	1
H	0.559570	-1.113740	-0.012080	1
H	0.513860	0.333610	-1.031750	1
H	2.723750	-0.419620	0.958040	1
H	2.773690	-0.406940	-2.109160	1
H	2.768810	-1.837660	-1.065240	1
H	4.156670	-0.740470	-1.053020	1
H	2.604050	2.016210	-0.968150	1
H	3.794960	1.580280	1.832720	1
H	3.813480	3.127200	0.807110	1
Es	2.852460	1.461331	-0.064991	99
Es	0.639694	0.206923	-0.734690	99
Es	2.857745	-1.502019	-1.079679	99
Es	2.739026	-0.373997	-0.567420	99
Es	3.479968	1.690355	0.301079	99
Es	2.627551	-0.276602	0.658027	99
Es	3.807893	-0.752868	-1.073120	99
Es	2.677306	1.828485	-0.685193	99
Es	0.568460	0.308473	0.471093	99
Es	3.522554	2.086651	0.912150	99
Es	3.064058	-0.784460	-1.122197	99
Es	2.634412	0.750099	-0.033421	99
Es	2.861060	-0.521048	-1.793737	99
Es	0.888782	-0.071691	-0.085174	99
Es	1.648759	-0.016534	-0.047273	99
Es	2.913081	1.875996	0.571012	99
Es	3.723824	2.793734	0.848451	99
Es	2.411856	0.020130	0.001751	99
Es	3.709797	1.745914	1.539920	99
Es	0.669687	-0.785071	-0.036628	99
