29
Properties=species:S:1:pos:R:3:Z:I:1 energy=-192.82295532626569 field_type=dipole dipole="0.000000 0.000000 0.000000" charge=0
C	1.000000	0.000000	0.000000	6
C	2.444000	0.000000	0.000000	6
C	3.634160	0.000000	0.000000	6
C	5.040160	0.000000	0.000000	6
C	5.741920	1.137870	0.000000	6
H	0.605990	1.020880	0.011680	1
H	0.605920	-0.520520	0.878250	1
H	0.605920	-0.500290	-0.889930	1
H	5.554470	-0.956340	-0.000000	1
H	5.255610	2.108800	0.000000	1
H	6.826820	1.118970	0.000000	1
Es	1.000111	0.000000	0.000000	99
Es	5.420030	1.795083	-0.000065	99
Es	3.059762	0.250421	-0.257554	99
Es	6.476978	1.130632	0.000063	99
Es	5.741970	1.137940	0.000013	99
Es	2.443723	0.000003	-0.000002	99
Es	4.317970	-0.007795	-0.000282	99
Es	5.367231	0.558948	0.319698	99
Es	3.634412	-0.000004	0.000002	99
Es	5.370641	-0.645467	-0.000159	99
Es	1.743795	0.000680	0.000104	99
Es	0.752521	0.683558	0.007824	99
Es	0.754078	-0.348155	0.587695	99
Es	5.040016	-0.000091	-0.000000	99
Es	0.754099	-0.334599	-0.595504	99
Es	3.043134	-0.352012	-0.080787	99
Es	5.367149	0.558889	-0.319709	99
Es	3.071055	0.110133	0.338667	99
