26
Properties=species:S:1:pos:R:3:Z:I:1 energy=-191.49585733835875 field_type=dipole dipole="0.000000 0.000000 0.000000" charge=0
C	1.000000	0.000000	0.000000	6
C	2.444000	0.000000	0.000000	6
C	3.634160	0.000000	0.000000	6
C	5.079560	-0.000000	-0.000000	6
C	6.376130	-0.000000	-0.000000	6
H	0.472420	1.230670	0.020710	1
H	0.484950	-0.613960	1.071610	1
H	0.486910	-0.600590	-1.091840	1
H	7.511290	-0.000000	-0.000000	1
Es	3.076323	0.320304	0.148204	99
Es	4.365202	-0.000057	-0.000022	99
Es	6.376240	-0.000009	0.000009	99
Es	5.701937	0.194133	0.301754	99
Es	7.084656	0.000037	0.000045	99
Es	2.443726	-0.000000	-0.000004	99
Es	0.701511	-0.392300	0.675985	99
Es	0.999985	0.000000	-0.000002	99
Es	3.076243	-0.288683	0.203714	99
Es	5.702059	0.164042	-0.319273	99
Es	5.701909	-0.358199	0.017473	99
Es	1.740383	0.000981	0.000111	99
Es	0.702029	-0.381614	-0.688411	99
Es	3.634580	-0.000003	-0.000001	99
Es	5.079351	-0.000004	0.000000	99
Es	0.696021	0.780114	0.011566	99
Es	3.076498	-0.031770	-0.351862	99
