35
Properties=species:S:1:pos:R:3:Z:I:1 energy=-195.21444986803508 field_type=dipole dipole="0.000000 0.000000 0.000000" charge=0
C	2.089170	-0.318150	1.491470	6
C	2.486260	0.047380	0.068150	6
C	3.076250	1.433680	-0.036070	6
C	2.131770	2.589560	0.140390	6
C	4.378540	1.626300	-0.307580	6
H	1.715660	-1.346820	1.524870	1
H	1.296250	0.335640	1.868060	1
H	2.944500	-0.246870	2.171830	1
H	1.611200	-0.024630	-0.588910	1
H	3.202230	-0.700380	-0.295710	1
H	1.301200	2.512960	-0.568790	1
H	2.624910	3.552140	-0.031060	1
H	1.723880	2.603610	1.155780	1
H	5.059290	0.792180	-0.446850	1
H	4.799850	2.622930	-0.395090	1
Es	3.689963	1.535449	-0.498589	99
Es	2.089170	-0.318139	1.491438	99
Es	1.548505	0.131982	1.745540	99
Es	2.486258	0.047413	0.068186	99
Es	4.670099	2.304642	-0.367134	99
Es	2.289156	-0.119099	0.780917	99
Es	4.846160	1.059721	-0.403418	99
Es	1.887427	0.008523	-0.377451	99
Es	2.980215	-0.460117	-0.177542	99
Es	3.820738	1.532644	0.146488	99
Es	2.601755	2.012400	0.056190	99
Es	4.378642	1.626314	-0.307593	99
Es	3.076101	1.433669	-0.036040	99
Es	1.834262	-1.019619	1.510060	99
Es	2.779915	0.746608	0.020996	99
Es	2.673264	-0.268093	1.951482	99
Es	1.571802	2.527256	-0.339928	99
Es	2.471057	3.240475	0.024149	99
Es	1.858455	2.588839	0.826034	99
Es	2.131783	2.589529	0.140391	99
