32
Properties=species:S:1:pos:R:3:Z:I:1 energy=-194.00502970527793 field_type=dipole dipole="0.000000 0.000000 0.000000" charge=0
C	0.957100	-0.043990	-0.001810	6
C	2.477360	-0.019010	-0.005200	6
C	3.014220	1.410840	0.008130	6
C	4.484580	1.424720	0.004720	6
C	5.685310	1.439620	0.001970	6
H	0.594910	-1.076760	-0.011500	1
H	0.554500	0.465460	-0.883120	1
H	0.558760	0.447310	0.891650	1
H	2.844310	-0.550460	-0.892040	1
H	2.848530	-0.568450	0.868830	1
H	2.646080	1.938070	0.895980	1
H	2.641840	1.956090	-0.866990	1
H	6.751210	1.452610	-0.000480	1
Es	0.957124	-0.043987	-0.001810	99
Es	2.779814	1.763250	0.607249	99
Es	2.726947	-0.375384	-0.613558	99
Es	5.101822	1.273567	0.327871	99
Es	5.096682	1.790059	-0.022655	99
Es	5.685553	1.439618	0.001970	99
Es	2.729954	-0.387720	0.594562	99
Es	5.100548	1.228475	-0.295265	99
Es	2.776936	1.775381	-0.582611	99
Es	0.688948	0.294903	0.609336	99
Es	3.014359	1.410823	0.008130	99
Es	0.686289	0.307267	-0.604611	99
Es	2.477339	-0.018946	-0.005200	99
Es	1.712958	-0.022014	-0.003263	99
Es	4.484316	1.424715	0.004712	99
Es	2.766909	0.711237	0.001568	99
Es	6.381644	1.447678	0.000314	99
Es	3.782182	1.419548	0.006381	99
Es	0.712563	-0.747891	-0.008509	99
