35
Properties=species:S:1:pos:R:3:Z:I:1 energy=-195.19956910099788 field_type=dipole dipole="0.000000 0.000000 0.000000" charge=0
C	1.033210	0.011810	-0.065480	6
C	2.522990	0.003960	-0.014850	6
C	3.311650	-0.707550	-1.085150	6
C	3.323960	0.797520	-1.017480	6
C	4.557730	1.519220	-0.593220	6
H	0.639350	0.787290	0.597710	1
H	0.640850	-0.953460	0.267160	1
H	0.656780	0.203880	-1.074970	1
H	2.888790	-0.068450	1.004030	1
H	2.773550	-1.172990	-1.903530	1
H	4.200370	-1.249830	-0.780980	1
H	2.793280	1.338500	-1.793630	1
H	5.091800	0.989100	0.202620	1
H	4.301150	2.517200	-0.224770	1
H	5.237300	1.632870	-1.442680	1
Es	1.777686	0.008060	-0.055975	99
Es	2.939296	-1.022587	-1.639156	99
Es	3.919869	-1.070341	-0.877255	99
Es	4.918550	1.152226	-0.049770	99
Es	0.765809	-0.647041	0.162686	99
Es	2.862741	-0.523789	-0.490920	99
Es	2.864111	0.569611	-0.428278	99
Es	4.557719	1.519214	-0.593222	99
Es	5.020780	1.596791	-1.173849	99
Es	3.323943	0.797364	-1.017417	99
Es	4.380726	2.200166	-0.341856	99
Es	2.951643	1.160044	-1.545046	99
Es	3.311603	-0.707407	-1.085081	99
Es	2.523065	0.003934	-0.014996	99
Es	2.783632	-0.041586	0.676949	99
Es	3.435188	0.040096	-1.202932	99
Es	0.766229	0.542293	0.387149	99
Es	1.033223	0.011812	-0.065480	99
Es	0.781834	0.142000	-0.757741	99
Es	3.945855	1.146491	-0.795685	99
