34
Properties=species:S:1:pos:R:3:Z:I:1 energy=-211.1830128347797 field_type=dipole dipole="0.000000 0.000000 0.000000" charge=0
C	0.957900	-0.007550	0.008360	6
C	2.471280	0.018680	0.010370	6
C	3.154950	1.017310	0.967480	6
N	4.174480	-0.018980	1.256350	7
C	3.191300	-1.053100	0.855330	6
H	0.589210	-0.864580	-0.564020	1
H	0.558280	0.901610	-0.451850	1
H	0.552250	-0.079030	1.022800	1
H	2.870170	0.081540	-1.012450	1
H	2.564940	1.298830	1.847680	1
H	3.544960	1.927020	0.502150	1
H	4.977920	0.029090	0.628860	1
H	3.611960	-1.893070	0.295410	1
H	2.613310	-1.448370	1.699100	1
Es	2.471265	0.018677	0.010401	99
Es	2.770513	-0.589197	0.393057	99
Es	2.751824	0.061683	-0.687116	99
Es	1.699732	0.005541	0.004021	99
Es	3.771919	0.475714	1.138261	99
Es	0.957898	-0.007550	0.008353	99
Es	3.155047	1.017209	0.967491	99
Es	2.789134	-1.312430	1.433456	99
Es	3.789270	-0.511707	1.084451	99
Es	2.744994	1.198597	1.569386	99
Es	4.174268	-0.018958	1.255796	99
Es	4.631069	0.011471	0.843622	99
Es	3.191393	-1.052994	0.855353	99
Es	4.298168	-0.035494	1.598614	99
Es	3.425730	1.646467	0.649093	99
Es	2.749821	0.591528	0.457196	99
Es	0.688230	-0.056416	0.704167	99
Es	0.708308	-0.594329	-0.382680	99
Es	3.483332	-1.634396	0.471510	99
Es	0.687235	0.614950	-0.305927	99
