31
Properties=species:S:1:pos:R:3:Z:I:1 energy=-209.99567802245147 field_type=dipole dipole="0.000000 0.000000 0.000000" charge=0
C	2.055080	-0.849050	-1.136170	6
C	2.114100	0.203960	-0.309540	6
C	3.246900	1.113810	-0.163640	6
C	3.432050	2.222560	-1.166840	6
N	2.937540	2.499170	0.175980	7
H	1.167760	-1.472120	-1.177330	1
H	2.884800	-1.103810	-1.786890	1
H	1.247500	0.407630	0.318410	1
H	4.129390	0.693390	0.307780	1
H	2.712200	2.331430	-1.968650	1
H	4.437690	2.551600	-1.394640	1
H	3.672230	2.894940	0.762940	1
Es	2.946500	2.295846	-1.710447	99
Es	2.595389	2.591233	0.222830	99
Es	3.162614	2.519826	-0.433776	99
Es	1.962601	-0.141281	-0.963089	99
Es	2.213141	-0.520741	-0.495700	99
Es	3.395767	2.726881	0.517741	99
Es	3.431989	2.222545	-1.166590	99
Es	3.052264	1.857137	0.162571	99
Es	2.616295	-1.027422	-1.580964	99
Es	2.055085	-0.849131	-1.136232	99
Es	1.534411	0.347692	0.117599	99
Es	2.114125	0.204043	-0.309482	99
Es	3.406790	1.506702	-0.819131	99
Es	3.844755	0.826824	0.153010	99
Es	1.458450	-1.276236	-1.168572	99
Es	2.938103	2.498943	0.175829	99
Es	3.246842	1.114051	-0.163630	99
Es	2.679679	0.659559	-0.235359	99
Es	4.119566	2.446553	-1.321029	99
