37
Properties=species:S:1:pos:R:3:Z:I:1 energy=-212.40048632630652 field_type=dipole dipole="0.000000 0.000000 0.000000" charge=0
C	1.161240	-0.276450	-0.089870	6
C	2.677310	-0.161650	-0.055250	6
C	3.127350	1.297190	0.017970	6
C	4.650640	1.402800	0.053820	6
N	5.060330	2.800580	0.129690	7
H	0.861380	-1.327880	-0.143980	1
H	0.748750	0.239760	-0.962720	1
H	0.714590	0.158500	0.809870	1
H	3.093760	-0.636240	-0.952320	1
H	3.059490	-0.714920	0.811080	1
H	2.702250	1.766040	0.913800	1
H	2.736820	1.843220	-0.848710	1
H	5.084650	0.946100	-0.843390	1
H	5.046450	0.867830	0.924600	1
H	4.723000	3.301770	-0.691110	1
H	6.077630	2.857050	0.100940	1
Es	2.837357	1.613393	0.631022	99
Es	0.955988	-0.995636	-0.127029	99
Es	4.896537	2.194775	0.074065	99
Es	0.882350	0.078898	-0.687708	99
Es	2.677281	-0.161625	-0.055252	99
Es	3.890081	1.350696	0.033835	99
Es	2.863642	1.672636	-0.582860	99
Es	1.913872	-0.216954	-0.072611	99
Es	4.650658	1.402943	0.053824	99
Es	3.127375	1.297158	0.017954	99
Es	1.161259	-0.276451	-0.089871	99
Es	4.863870	3.086043	-0.383418	99
Es	4.945862	1.076737	-0.571129	99
Es	2.904360	0.568009	-0.020949	99
Es	2.941389	-0.538319	0.541865	99
Es	5.678387	2.822546	0.093915	99
Es	5.060530	2.800335	0.129206	99
Es	2.964524	-0.485167	-0.673692	99
Es	4.937140	2.955560	0.422366	99
Es	0.858816	0.022952	0.525823	99
Es	4.922270	1.034264	0.651877	99
