37
Properties=species:S:1:pos:R:3:Z:I:1 energy=-212.4048001141692 field_type=dipole dipole="0.000000 0.000000 0.000000" charge=0
C	0.990350	0.003950	-0.005120	6
C	2.522860	-0.009830	0.010730	6
C	3.029600	-0.706030	1.278600	6
C	3.056660	-0.727950	-1.234530	6
N	3.002240	1.376860	0.015890	7
H	0.602970	0.506720	-0.898880	1
H	0.585690	0.523590	0.871260	1
H	0.589150	-1.015580	0.000570	1
H	2.671400	-0.200660	2.182970	1
H	4.124850	-0.721420	1.317050	1
H	2.682710	-1.744380	1.320740	1
H	2.714560	-0.240980	-2.154850	1
H	2.714350	-1.768220	-1.263600	1
H	4.152410	-0.739420	-1.250940	1
H	2.699280	1.851380	-0.834360	1
H	4.021800	1.391040	-0.000670	1
Es	3.056664	-0.727962	-1.234544	99
Es	2.821035	-1.440430	-1.252456	99
Es	3.621811	1.367925	-0.012900	99
Es	2.783367	-0.362169	1.890142	99
Es	2.809293	0.777108	-0.009254	99
Es	2.780739	-0.362855	0.650140	99
Es	3.780565	-0.712759	1.296666	99
Es	0.722793	-0.695839	-0.003730	99
Es	2.522899	-0.009725	0.010726	99
Es	2.819379	-0.388077	-1.861121	99
Es	0.718910	0.355274	0.591460	99
Es	2.792979	-0.383496	-0.625060	99
Es	0.733461	0.349440	-0.620684	99
Es	2.884515	1.554730	0.301348	99
Es	1.748376	-0.003447	0.000249	99
Es	2.825249	1.645281	-0.514433	99
Es	3.002435	1.376595	0.015424	99
Es	2.791042	-1.415837	1.299843	99
Es	0.990357	0.003940	-0.005133	99
Es	3.029605	-0.706039	1.278586	99
Es	3.807864	-0.730681	-1.239701	99
