25
Properties=species:S:1:pos:R:3:Z:I:1 energy=-207.65381465748712 field_type=dipole dipole="0.000000 0.000000 0.000000" charge=0
C	1.000000	0.000000	0.000000	6
C	2.444000	0.000000	0.000000	6
C	3.634160	0.000000	0.000000	6
C	5.170160	-0.000000	-0.000000	6
N	6.330380	-0.000010	-0.000010	7
H	0.596420	1.014290	0.069060	1
H	0.617350	-0.569480	0.852890	1
H	0.603650	-0.461270	-0.909390	1
Es	5.169598	-0.000003	-0.000003	99
Es	4.421144	-0.000125	0.000031	99
Es	3.634685	-0.000006	-0.000006	99
Es	0.756945	0.673907	0.045131	99
Es	5.784154	0.290373	0.101309	99
Es	6.329908	-0.000010	-0.000010	99
Es	3.091878	0.202494	0.293855	99
Es	3.091671	-0.355557	0.028327	99
Es	0.761323	-0.305362	-0.604396	99
Es	6.693289	0.000009	-0.000074	99
Es	1.000140	-0.000001	0.000000	99
Es	0.769502	-0.377578	0.566082	99
Es	5.784274	-0.057712	-0.302354	99
Es	5.784372	-0.232625	0.201133	99
Es	2.443781	0.000000	0.000002	99
Es	3.093121	0.152637	-0.321924	99
Es	1.752886	0.001796	-0.001248	99
