35
Properties=species:S:1:pos:R:3:Z:I:1 energy=-195.19894854817693 field_type=dipole dipole="0.000000 0.000000 0.000000" charge=0
C	3.180110	-1.135490	-0.416900	6
C	2.443670	0.068560	0.147520	6
C	3.322260	1.282350	0.175890	6
C	3.453620	2.160580	-1.041460	6
C	2.706820	2.657770	0.165330	6
H	2.528590	-2.014260	-0.418310	1
H	4.068100	-1.368130	0.180300	1
H	3.507490	-0.949090	-1.444800	1
H	2.113920	-0.153760	1.167800	1
H	1.543180	0.252220	-0.449250	1
H	4.201690	1.138770	0.795450	1
H	2.879220	1.912500	-1.926970	1
H	4.425790	2.592870	-1.251800	1
H	3.173660	3.426920	0.770090	1
H	1.628660	2.745790	0.093470	1
Es	1.828201	0.200415	-0.265860	99
Es	2.220031	-0.084202	0.848085	99
Es	3.045490	2.573098	-0.527064	99
Es	3.322211	1.282503	0.175803	99
Es	2.817280	-0.535402	-0.136857	99
Es	2.733834	-1.736592	-0.417232	99
Es	2.878367	0.686523	0.149974	99
Es	3.786930	-1.291261	-0.005291	99
Es	3.453554	2.160566	-1.041294	99
Es	3.401518	-1.005948	-1.118813	99
Es	4.114213	2.455798	-1.181586	99
Es	1.973787	2.710384	0.115157	99
Es	3.059673	1.986588	-1.639445	99
Es	3.027085	3.180575	0.574990	99
Es	2.706913	2.657660	0.165232	99
Es	3.180100	-1.135478	-0.416889	99
Es	2.443704	0.068550	0.147503	99
Es	3.926012	1.190081	0.594830	99
Es	2.944906	1.951725	0.350021	99
Es	3.491023	1.583911	-0.531057	99
