34
Properties=species:S:1:pos:R:3:Z:I:1 energy=-211.2083410525486 field_type=dipole dipole="0.000000 0.000000 0.000000" charge=0
C	0.897680	-0.090540	-0.101450	6
C	2.414300	0.036010	0.029170	6
N	3.079220	-0.705930	-1.037720	7
C	2.841070	1.472970	-0.038530	6
C	3.431270	2.135930	0.966700	6
H	0.391310	0.447700	0.707830	1
H	0.586650	-1.139870	-0.046120	1
H	0.534380	0.317960	-1.051900	1
H	2.719100	-0.401620	0.987600	1
H	2.712070	-0.408030	-1.939520	1
H	2.842450	-1.692980	-0.954800	1
H	2.656410	2.003330	-0.969900	1
H	3.649040	1.656130	1.915110	1
H	3.721200	3.175240	0.850100	1
Es	2.625851	0.764159	-0.005915	99
Es	2.841014	1.472912	-0.038610	99
Es	2.910741	-1.297961	-0.984273	99
Es	2.769761	-0.387154	-0.585170	99
Es	3.579510	1.814138	1.613656	99
Es	2.414325	0.035983	0.029042	99
Es	2.841718	1.904081	0.587756	99
Es	3.629550	2.842001	0.895984	99
Es	3.431307	2.135981	0.966780	99
Es	0.553759	0.276147	0.450381	99
Es	3.429126	1.721025	0.365777	99
Es	3.429603	-0.665428	-1.029917	99
Es	2.707234	1.820950	-0.679341	99
Es	0.693957	-0.810502	-0.065566	99
Es	0.897674	-0.090541	-0.101452	99
Es	2.621051	-0.261247	0.686024	99
Es	3.078608	-0.706009	-1.037747	99
Es	0.659531	0.189646	-0.755764	99
Es	2.833178	-0.523820	-1.575923	99
Es	1.642846	-0.015683	-0.037274	99
