37
Properties=species:S:1:pos:R:3:Z:I:1 energy=-212.3816384709158 field_type=dipole dipole="0.000000 0.000000 0.000000" charge=0
C	0.976140	-0.082480	0.099770	6
C	2.493570	0.021160	0.199490	6
N	2.986070	1.404220	0.083930	7
C	2.594610	2.225490	1.231260	6
C	4.445800	1.405590	-0.048630	6
H	0.677910	-1.135330	0.053330	1
H	0.604950	0.410150	-0.805160	1
H	0.477990	0.360470	0.966850	1
H	2.908300	-0.574790	-0.623680	1
H	2.835710	-0.443700	1.133320	1
H	1.507570	2.340410	1.284900	1
H	2.999380	3.239060	1.133360	1
H	2.948590	1.806080	2.179780	1
H	4.753070	0.843740	-0.937340	1
H	4.940350	0.968150	0.825900	1
H	4.819170	2.426900	-0.182490	1
Es	2.827658	1.741269	0.608602	99
Es	4.698275	2.105509	-0.131888	99
Es	0.779242	-0.802819	0.070544	99
Es	4.652722	1.014268	-0.652306	99
Es	3.629705	1.390909	0.055385	99
Es	2.594637	2.225430	1.231171	99
Es	1.728004	-0.018916	0.158880	99
Es	1.852843	2.294872	1.270272	99
Es	2.879407	2.913090	1.163333	99
Es	2.784134	-0.383577	-0.364872	99
Es	0.976165	-0.082488	0.099782	99
Es	0.639242	0.222501	0.693134	99
Es	2.493567	0.021286	0.199478	99
Es	4.445682	1.405590	-0.048620	99
Es	2.849156	1.543541	-0.203182	99
Es	0.726591	0.252043	-0.514637	99
Es	2.730683	-0.298389	0.852730	99
Es	2.841747	1.930466	1.888154	99
Es	4.786112	1.101337	0.560408	99
Es	2.784603	0.801764	0.167785	99
Es	2.986354	1.403939	0.084511	99
