34
Properties=species:S:1:pos:R:3:Z:I:1 energy=-211.1881105899422 field_type=dipole dipole="0.000000 0.000000 0.000000" charge=0
C	2.945230	-1.075100	-0.396160	6
N	2.315210	0.132690	0.120940	7
C	3.244890	1.263350	0.175680	6
C	3.398390	2.148360	-1.028080	6
C	2.678120	2.654790	0.187860	6
H	2.209050	-1.883430	-0.438050	1
H	3.770570	-1.399300	0.245740	1
H	3.324560	-0.918660	-1.410950	1
H	1.934000	-0.059080	1.047550	1
H	4.132150	1.105000	0.786150	1
H	2.807860	1.925500	-1.909160	1
H	4.382740	2.546870	-1.240580	1
H	3.173940	3.399040	0.798930	1
H	1.603180	2.776350	0.121760	1
Es	3.206925	-0.964301	-1.085691	99
Es	2.678222	2.654670	0.187770	99
Es	2.945172	-1.074994	-0.396109	99
Es	3.419986	1.562068	-0.524114	99
Es	2.113222	0.012634	0.692660	99
Es	2.615019	-0.390711	-0.085230	99
Es	1.953304	2.732642	0.143509	99
Es	2.051284	0.224742	-0.090243	99
Es	4.068961	2.419476	-1.167293	99
Es	2.315703	0.132545	0.121302	99
Es	2.741514	0.612506	0.160091	99
Es	3.398336	2.148347	-1.027908	99
Es	3.859085	1.155341	0.591944	99
Es	2.442553	-1.628222	-0.419368	99
Es	2.893902	1.936992	0.363762	99
Es	3.521069	-1.300179	0.046614	99
Es	2.998675	1.995113	-1.620016	99
Es	3.244753	1.263396	0.175586	99
Es	3.012459	2.566576	-0.504104	99
Es	3.020244	3.158835	0.603020	99
