31
Properties=species:S:1:pos:R:3:Z:I:1 energy=-209.98900187975576 field_type=dipole dipole="0.000000 0.000000 0.000000" charge=0
C	0.996500	-0.048860	-0.013320	6
N	2.450330	0.004980	0.006740	7
C	2.923660	1.385920	0.026200	6
C	4.392130	1.402460	-0.008380	6
C	5.592380	1.416140	-0.037320	6
H	0.670450	-1.093670	-0.020950	1
H	0.587640	0.437100	-0.905230	1
H	0.570000	0.422000	0.878310	1
H	2.819870	-0.454840	-0.824290	1
H	2.576740	1.891640	0.934570	1
H	2.535290	1.938630	-0.837230	1
H	6.658080	1.421490	-0.057320	1
Es	0.711184	0.280796	0.593113	99
Es	5.592616	1.416141	-0.037350	99
Es	0.996633	-0.048852	-0.013320	99
Es	4.391864	1.402465	-0.008377	99
Es	4.993684	1.762032	-0.108266	99
Es	5.018873	1.306831	0.317725	99
Es	0.775498	-0.759865	-0.023511	99
Es	2.658504	-0.252681	-0.511848	99
Es	2.671362	1.766285	-0.562799	99
Es	0.712899	0.293837	-0.629454	99
Es	4.994275	1.163032	-0.289299	99
Es	3.690512	1.395636	0.006138	99
Es	6.287808	1.420364	-0.051534	99
Es	2.568417	-0.157506	0.291832	99
Es	2.923772	1.385795	0.026191	99
Es	1.814500	0.005410	-0.026059	99
Es	2.652773	0.624596	-0.008176	99
Es	2.450099	0.005326	0.006208	99
Es	2.698875	1.724862	0.636488	99
