27
Properties=species:S:1:pos:R:3:Z:I:1 energy=-224.89096664315315 field_type=dipole dipole="0.000000 0.000000 0.000000" charge=0
N	0.981130	-0.098330	0.000000	7
C	2.336590	0.008380	0.000000	6
C	3.053520	1.137990	0.000000	6
C	4.459520	1.137990	0.000000	6
N	5.610530	1.137990	0.000000	7
H	0.541680	-1.013380	0.000000	1
H	0.390260	0.725670	0.000000	1
H	2.835350	-0.961790	0.000000	1
H	2.559320	2.101760	-0.000000	1
Es	5.610091	1.137989	0.000000	99
Es	2.793130	0.665024	-0.316643	99
Es	5.104379	1.168107	-0.304651	99
Es	1.576058	-0.039664	-0.003964	99
Es	0.631431	0.393621	-0.000728	99
Es	4.459150	1.138009	-0.000007	99
Es	5.077792	0.851867	0.121552	99
Es	1.030804	-0.095126	-0.013082	99
Es	5.981089	1.137190	0.001748	99
Es	0.723148	-0.642858	-0.002006	99
Es	1.048047	-0.094050	0.019793	99
Es	2.336382	0.008277	-0.000007	99
Es	3.786289	1.135128	-0.000784	99
Es	3.053655	1.138021	-0.000009	99
Es	5.083889	1.385858	0.181760	99
Es	2.663321	-0.643660	-0.000009	99
Es	2.793697	0.665515	0.317178	99
Es	2.730125	1.783684	-0.000141	99
