30
Properties=species:S:1:pos:R:3:Z:I:1 energy=-229.87171539624754 field_type=dipole dipole="0.000000 0.000000 0.000000" charge=0
C	-0.361690	1.166700	0.139110	6
O	-1.200590	-0.001160	0.164310	8
C	-0.363860	-1.170010	0.126190	6
C	1.020590	-0.667810	-0.026540	6
C	1.021930	0.662820	-0.019120	6
H	-0.489520	1.714370	1.077300	1
H	-0.664720	1.800420	-0.699060	1
H	-0.668100	-1.793710	-0.718830	1
H	-0.492870	-1.727940	1.057990	1
H	1.891190	-1.298710	-0.122340	1
H	1.893870	1.294080	-0.107990	1
Es	1.078072	-0.004288	0.296388	99
Es	-0.857730	0.425852	0.154721	99
Es	-0.559719	1.602717	-0.432619	99
Es	1.021916	0.662944	-0.019132	99
Es	-1.338744	-0.002459	0.435526	99
Es	0.349000	-0.951165	0.046817	99
Es	-0.361779	1.166505	0.139110	99
Es	1.600262	-1.106535	-0.090191	99
Es	0.350813	0.947086	0.057351	99
Es	-0.858861	-0.429157	0.149444	99
Es	-0.562727	-1.599240	-0.450333	99
Es	-0.363947	-1.169816	0.126192	99
Es	1.020577	-0.667933	-0.026535	99
Es	-1.354910	0.000927	-0.097129	99
Es	-1.200220	-0.001181	0.164353	99
Es	1.602615	1.101520	-0.077994	99
Es	-0.438560	1.544205	0.778930	99
Es	-0.441509	-1.554502	0.761653	99
Es	1.007259	-0.000654	-0.349222	99
