30
Properties=species:S:1:pos:R:3:Z:I:1 energy=-229.82814178707014 field_type=dipole dipole="0.000000 0.000000 0.000000" charge=0
C	2.156180	-0.911160	-1.164720	6
C	2.155480	0.124990	-0.315980	6
C	3.252030	1.074760	-0.113030	6
C	3.425730	2.202270	-1.099430	6
O	3.008640	2.444090	0.248240	8
H	1.292630	-1.563990	-1.244580	1
H	3.013270	-1.127090	-1.794140	1
H	1.267710	0.292710	0.291950	1
H	4.151380	0.629040	0.299960	1
H	2.688850	2.342550	-1.880540	1
H	4.432540	2.492310	-1.371800	1
Es	2.155507	0.125080	-0.315907	99
Es	3.425645	2.202303	-1.099121	99
Es	1.561888	0.245257	0.096008	99
Es	3.251931	1.075052	-0.112972	99
Es	3.855834	0.772100	0.173754	99
Es	3.164269	2.460814	-0.285224	99
Es	3.008738	2.443893	0.248035	99
Es	3.401638	1.474518	-0.773562	99
Es	2.035169	-0.208657	-0.980894	99
Es	2.703738	2.493046	0.249208	99
Es	4.110154	2.410293	-1.281924	99
Es	1.577638	-1.355630	-1.221837	99
Es	2.923147	2.302273	-1.626436	99
Es	2.694299	0.607630	-0.201975	99
Es	2.285906	-0.587237	-0.510421	99
Es	2.156195	-0.911230	-1.164770	99
Es	3.068399	1.886566	0.214721	99
Es	2.736068	-1.061522	-1.593906	99
Es	3.248036	2.546765	0.412087	99
