36
Properties=species:S:1:pos:R:3:Z:I:1 energy=-232.23876473663717 field_type=dipole dipole="0.000000 0.000000 0.000000" charge=0
C	1.052200	-0.094720	0.024040	6
C	2.571460	-0.045560	0.055720	6
C	3.087010	1.387340	-0.040300	6
C	4.608810	1.439430	-0.008260	6
O	5.047100	2.789120	-0.089710	8
H	0.704970	-1.130370	0.093120	1
H	0.665190	0.331930	-0.906820	1
H	0.624100	0.463800	0.862530	1
H	2.967730	-0.640280	-0.775570	1
H	2.926810	-0.508160	0.983900	1
H	2.686380	1.992140	0.782780	1
H	2.725210	1.859120	-0.962300	1
H	5.045060	0.881980	-0.843490	1
H	4.993610	1.016110	0.924900	1
H	4.721800	3.152020	-0.931240	1
Es	2.830768	0.672459	0.005337	99
Es	2.844848	1.709282	-0.681665	99
Es	1.052221	-0.094721	0.024040	99
Es	0.815017	-0.802556	0.071086	99
Es	4.608854	1.439657	-0.008283	99
Es	3.087020	1.387309	-0.040312	99
Es	1.808456	-0.067492	0.039202	99
Es	4.860458	2.964259	-0.550010	99
Es	5.046997	2.788878	-0.090036	99
Es	0.763376	0.289224	0.597378	99
Es	4.867995	1.148142	0.631559	99
Es	4.873713	2.280631	-0.082853	99
Es	4.901019	1.046240	-0.589345	99
Es	4.896627	2.939691	0.131311	99
Es	3.842538	1.405567	-0.027385	99
Es	2.571438	-0.045528	0.055715	99
Es	5.354273	2.786934	-0.109890	99
Es	2.814741	1.794445	0.525321	99
Es	0.791490	0.199294	-0.613467	99
Es	2.845716	-0.450595	-0.517178	99
Es	2.817714	-0.358678	0.694049	99
