30
Properties=species:S:1:pos:R:3:Z:I:1 energy=-229.87589648581192 field_type=dipole dipole="0.000000 0.000000 0.000000" charge=0
C	1.787570	-0.739130	-0.786460	6
C	2.657670	-0.214710	0.086340	6
C	3.183140	1.187550	0.019320	6
C	4.697000	1.231280	-0.050210	6
O	5.451720	0.332530	0.310780	8
H	1.455490	-1.768370	-0.683900	1
H	1.390020	-0.167060	-1.618810	1
H	3.028800	-0.837700	0.899930	1
H	2.870980	1.752780	0.903710	1
H	2.800640	1.706030	-0.866280	1
H	5.112810	2.193280	-0.397320	1
Es	5.451516	0.332771	0.310683	99
Es	2.926400	0.494336	0.052297	99
Es	1.964845	-0.371964	-0.170402	99
Es	1.787507	-0.739162	-0.786527	99
Es	4.967775	1.897040	-0.294803	99
Es	5.176031	0.567834	-0.058423	99
Es	2.996720	1.561598	0.608370	99
Es	2.461551	-0.573431	-0.545503	99
Es	1.516258	-0.351650	-1.353563	99
Es	5.750201	0.410996	0.282046	99
Es	2.657758	-0.214603	0.086398	99
Es	2.907390	-0.622914	0.639034	99
Es	3.183189	1.187528	0.019327	99
Es	5.297552	0.079584	0.409042	99
Es	4.696965	1.231273	-0.050215	99
Es	2.933716	1.538501	-0.578950	99
Es	1.557633	-1.433701	-0.722932	99
Es	3.931550	1.196220	-0.021304	99
Es	5.174656	0.750501	0.413326	99
