30
Properties=species:S:1:pos:R:3:Z:I:1 energy=-229.88832944355306 field_type=dipole dipole="0.000000 0.000000 0.000000" charge=0
C	0.961240	-0.004830	-0.026980	6
C	2.450100	0.053220	-0.152210	6
C	3.175150	1.128400	0.182050	6
C	4.645290	1.121220	0.034040	6
O	5.319860	2.097760	0.336050	8
H	0.675870	-0.818730	0.646360	1
H	0.512500	-0.194640	-1.006700	1
H	0.542460	0.926780	0.366130	1
H	2.930370	-0.843360	-0.538170	1
H	2.739610	2.041940	0.569990	1
H	5.093380	0.194600	-0.360080	1
Es	3.901190	1.115791	0.105718	99
Es	5.319675	2.097503	0.335971	99
Es	4.645263	1.121217	0.034034	99
Es	0.673990	-0.133794	-0.687463	99
Es	5.095958	1.651089	0.458993	99
Es	2.842215	0.734551	-0.277270	99
Es	2.879681	1.739193	0.441848	99
Es	1.711021	0.026718	-0.089309	99
Es	0.686167	0.627338	0.239034	99
Es	5.049799	1.826993	-0.008540	99
Es	0.961301	-0.004837	-0.026989	99
Es	5.629142	2.058956	0.290812	99
Es	0.784011	-0.553396	0.423582	99
Es	5.140292	2.330227	0.441148	99
Es	2.450010	0.053124	-0.152243	99
Es	2.774371	-0.553401	-0.413263	99
Es	4.941778	0.478647	-0.237872	99
Es	2.901114	0.509557	0.318904	99
Es	3.175228	1.128432	0.182062	99
