30
Properties=species:S:1:pos:R:3:Z:I:1 energy=-229.8871587361039 field_type=dipole dipole="0.000000 0.000000 0.000000" charge=0
C	0.991940	0.036470	0.024540	6
C	2.484550	-0.043420	0.008110	6
C	3.184750	-1.176370	0.172400	6
C	3.229640	1.224220	-0.205470	6
O	2.667120	2.300380	-0.363540	8
H	0.652170	0.698910	0.827080	1
H	0.534810	-0.945130	0.187760	1
H	0.618030	0.422900	-0.928850	1
H	2.679380	-2.125160	0.331240	1
H	4.269430	-1.200240	0.155050	1
H	4.329740	1.141790	-0.213910	1
Es	3.184808	-1.176456	0.172410	99
Es	2.877161	1.942380	-0.056980	99
Es	2.849559	-1.819383	0.279800	99
Es	2.843707	-0.621987	-0.231905	99
Es	2.667254	2.300110	-0.363496	99
Es	3.984273	1.154152	-0.209122	99
Es	0.992013	0.036452	0.024542	99
Es	2.356957	2.272010	-0.352566	99
Es	0.753940	0.292098	-0.615800	99
Es	0.776921	0.477426	0.564299	99
Es	3.917053	-1.191266	0.160369	99
Es	2.866577	1.863561	-0.552826	99
Es	2.854677	0.583093	-0.097603	99
Es	3.229622	1.224202	-0.205468	99
Es	0.692537	-0.636533	0.136117	99
Es	1.749512	-0.007010	0.016638	99
Es	2.856231	-0.522062	0.400346	99
Es	2.865991	2.538323	-0.405713	99
Es	2.484517	-0.043312	0.008090	99
