36
Properties=species:S:1:pos:R:3:Z:I:1 energy=-232.2469483136657 field_type=dipole dipole="0.000000 0.000000 0.000000" charge=0
C	0.985950	-0.001970	-0.006040	6
C	2.513590	-0.034770	0.006050	6
C	3.026460	-0.714670	1.273810	6
C	3.053660	-0.739210	-1.237850	6
O	2.997120	1.309240	0.013170	8
H	0.613070	0.521150	-0.893920	1
H	0.601340	0.547330	0.860760	1
H	0.560890	-1.010760	0.004890	1
H	2.681440	-0.183380	2.168210	1
H	4.121780	-0.699220	1.308920	1
H	2.692090	-1.755140	1.337840	1
H	2.719870	-0.232190	-2.150260	1
H	2.727650	-1.783260	-1.283480	1
H	4.149160	-0.715470	-1.254080	1
H	2.674350	1.748510	-0.792210	1
Es	2.783474	-0.355434	1.877938	99
Es	3.797004	-0.725552	-1.243011	99
Es	2.770715	-0.379328	0.643875	99
Es	0.701368	-0.693003	-0.001023	99
Es	0.985942	-0.001979	-0.006054	99
Es	0.728514	0.366977	0.585903	99
Es	2.826091	-1.450531	-1.265092	99
Es	2.816530	-0.386233	-1.858331	99
Es	2.782819	-0.399926	-0.628329	99
Es	3.026447	-0.714677	1.273793	99
Es	2.513656	-0.034576	0.006042	99
Es	3.053648	-0.739216	-1.237861	99
Es	2.802786	0.809800	-0.012059	99
Es	3.769964	-0.708682	1.289439	99
Es	3.302288	1.290885	-0.018061	99
Es	2.809322	1.527613	-0.428879	99
Es	0.739853	0.355750	-0.620317	99
Es	1.733819	-0.025895	-0.003436	99
Es	2.996977	1.309058	0.012839	99
Es	2.792810	-1.423815	1.307774	99
Es	2.863638	1.451800	0.252333	99
