42
Properties=species:S:1:pos:R:3:Z:I:1 energy=-234.25961495409874 field_type=dipole dipole="0.000000 0.000000 0.000000" charge=0
C	1.179280	-0.671100	-0.060440	6
C	2.695820	-0.565450	-0.075170	6
C	3.154990	0.885880	-0.207810	6
C	4.682100	0.986090	-0.210640	6
C	5.136940	2.409600	-0.357520	6
C	5.869350	3.061540	0.554190	6
H	0.872260	-1.718420	0.030040	1
H	0.747890	-0.269560	-0.983600	1
H	0.755290	-0.119210	0.785330	1
H	3.088690	-1.158280	-0.909100	1
H	3.094260	-1.000360	0.848560	1
H	2.747140	1.477880	0.621150	1
H	2.752920	1.313860	-1.135000	1
H	5.091220	0.403580	-1.045480	1
H	5.082140	0.545120	0.711090	1
H	4.853390	2.925380	-1.272820	1
H	6.181680	2.589030	1.480370	1
H	6.173310	4.090550	0.389280	1
Es	2.967332	-0.969853	-0.650473	99
Es	2.695789	-0.565426	-0.075172	99
Es	2.881572	1.178177	-0.847705	99
Es	6.079561	3.761507	0.449913	99
Es	5.136871	2.409527	-0.357597	99
Es	1.179297	-0.671100	-0.060440	99
Es	3.928345	0.946403	-0.211449	99
Es	2.928039	0.160971	-0.142195	99
Es	4.936710	2.752492	-0.983877	99
Es	4.954392	0.689460	0.422772	99
Es	3.155028	0.885857	-0.207816	99
Es	2.877156	1.288718	0.362420	99
Es	0.887660	-0.394293	-0.692826	99
Es	2.971090	-0.860570	0.561195	99
Es	6.084084	2.743539	1.185563	99
Es	5.785403	2.643240	-0.034597	99
Es	4.682089	0.986140	-0.210654	99
Es	5.869420	3.061593	0.554263	99
Es	4.911795	1.704445	-0.282308	99
Es	0.892690	-0.291432	0.518232	99
Es	5.237592	2.848551	0.256428	99
Es	0.969496	-1.387216	0.001378	99
Es	4.958773	0.595749	-0.782798	99
Es	1.931500	-0.615892	-0.068121	99
