34
Properties=species:S:1:pos:R:3:Z:I:1 energy=-263.8880185284146 field_type=dipole dipole="0.000000 0.000000 0.000000" charge=0
C	0.400480	1.489590	0.501500	6
C	0.922080	0.370100	-0.343310	6
N	0.954250	-0.997570	0.193650	7
C	-0.374750	-1.314700	0.342140	6
N	-1.271510	-0.418380	0.042090	7
C	-0.552670	0.762270	-0.403950	6
H	0.679310	2.500290	0.229150	1
H	0.301510	1.335790	1.569400	1
H	1.542480	0.567500	-1.206310	1
H	1.544120	-1.715120	-0.211160	1
H	-0.595040	-2.343490	0.664380	1
H	-0.977100	1.326130	-1.223130	1
Es	-0.227619	1.218427	0.127568	99
Es	0.953727	-0.997646	0.193070	99
Es	0.854020	0.942543	0.163741	99
Es	-0.945357	0.113640	-0.132030	99
Es	0.338327	1.379328	1.218518	99
Es	0.386352	-1.157160	0.190570	99
Es	0.969137	-0.417474	-0.048346	99
Es	-1.270935	-0.418350	0.042090	99
Es	0.400468	1.489455	0.501363	99
Es	-0.890084	-0.686745	0.436690	99
Es	0.180774	0.481567	-0.526544	99
Es	-0.374599	-1.314716	0.342195	99
Es	0.949865	-0.993032	0.493729	99
Es	1.361543	0.505192	-0.915360	99
Es	0.921973	0.370034	-0.343155	99
Es	-0.520443	-2.009556	0.561441	99
Es	-1.634136	-0.439876	0.060732	99
Es	-0.837186	1.143178	-0.962778	99
Es	1.292016	-1.414150	-0.068725	99
Es	0.588524	2.166422	0.304237	99
Es	-0.552557	0.762197	-0.403817	99
Es	-0.915003	-0.860014	-0.109772	99
