38
Properties=species:S:1:pos:R:3:Z:I:1 energy=-249.05854153642565 field_type=dipole dipole="0.000000 0.000000 0.000000" charge=0
C	0.803300	1.350090	-0.639790	6
C	-0.326610	0.971600	0.278220	6
C	-1.380760	0.004820	-0.167970	6
C	-0.739140	-1.374560	0.035950	6
N	0.717280	-1.173460	-0.082990	7
C	0.969560	0.217250	0.324980	6
H	0.723290	1.115880	-1.694880	1
H	1.336740	2.270390	-0.433770	1
H	-0.595560	1.601330	1.112000	1
H	-2.297360	0.104420	0.421470	1
H	-1.624530	0.169280	-1.223720	1
H	-0.967290	-1.735990	1.046100	1
H	-1.107150	-2.110830	-0.683980	1
H	1.205460	-1.843420	0.510130	1
H	1.623110	0.367710	1.177960	1
Es	-0.739020	-1.374524	0.035943	99
Es	1.073535	0.750602	-0.236627	99
Es	-1.547886	0.113056	-0.890768	99
Es	-1.380728	0.004808	-0.167953	99
Es	0.717085	-1.173340	-0.082370	99
Es	-2.004692	0.072233	0.236550	99
Es	0.835353	-0.569849	0.111597	99
Es	0.815671	-1.215281	-0.416800	99
Es	0.803226	1.350006	-0.639653	99
Es	1.163519	1.973214	-0.491549	99
Es	-0.861605	0.512295	0.037982	99
Es	0.740475	1.190388	-1.351535	99
Es	-0.326464	0.971573	0.278143	99
Es	-0.901239	-1.625093	0.738533	99
Es	0.088607	-1.261942	-0.010570	99
Es	0.113214	1.301168	-0.262659	99
Es	1.424282	0.316766	0.903141	99
Es	0.269586	0.532541	0.451233	99
Es	-0.506202	1.412727	0.840332	99
Es	1.003452	-1.562936	0.298102	99
Es	-0.993722	-1.883211	-0.456328	99
Es	0.969465	0.217239	0.324845	99
Es	-1.072699	-0.692699	-0.073850	99
