42
Properties=species:S:1:pos:R:3:Z:I:1 energy=-234.24681421793946 field_type=dipole dipole="0.000000 0.000000 0.000000" charge=0
C	0.943060	-0.008480	0.048990	6
C	2.457770	0.009240	0.010170	6
C	3.161010	1.049660	0.917640	6
C	4.235360	-0.023070	1.226730	6
C	5.493880	0.026870	0.373550	6
C	3.184820	-1.089120	0.825660	6
H	0.554660	-0.869150	-0.505380	1
H	0.535940	0.898040	-0.409280	1
H	0.564400	-0.068490	1.074830	1
H	2.813980	0.058610	-1.026920	1
H	2.580280	1.345530	1.799720	1
H	3.511540	1.953840	0.412250	1
H	4.506570	-0.065250	2.289030	1
H	5.264620	0.064240	-0.696080	1
H	6.113750	-0.857020	0.555010	1
H	6.089350	0.911130	0.622200	1
H	3.554870	-1.938760	0.245130	1
H	2.612040	-1.472360	1.678750	1
Es	2.457773	0.009239	0.010219	99
Es	0.666476	0.612925	-0.264519	99
Es	3.184828	-1.089077	0.825653	99
Es	5.493863	0.026870	0.373558	99
Es	3.404027	1.675853	0.570950	99
Es	5.897099	0.631993	0.544638	99
Es	0.690175	-0.049459	0.753583	99
Es	0.943060	-0.008480	0.048982	99
Es	3.763231	-0.626801	1.052657	99
Es	2.769874	-0.608124	0.383337	99
Es	5.913683	-0.578176	0.498594	99
Es	2.758069	1.240331	1.521581	99
Es	4.860396	0.002672	0.783368	99
Es	0.679179	-0.598420	-0.330156	99
Es	2.707555	0.042777	-0.698150	99
Es	4.431761	-0.052174	1.960333	99
Es	1.688652	0.000086	0.029112	99
Es	4.235331	-0.023067	1.226685	99
Es	5.331013	0.052349	-0.356772	99
Es	2.786942	-1.339743	1.410743	99
Es	3.749791	0.582637	1.104630	99
Es	2.756538	0.599310	0.435390	99
Es	3.441486	-1.677807	0.426893	99
Es	3.161017	1.049618	0.917629	99
