38
Properties=species:S:1:pos:R:3:Z:I:1 energy=-249.0577346255489 field_type=dipole dipole="0.000000 0.000000 0.000000" charge=0
C	0.724710	1.339870	-0.562700	6
C	-0.457990	0.970300	0.284140	6
C	-1.479670	-0.003480	-0.208990	6
C	-0.825790	-1.349860	0.052880	6
C	0.671640	-1.065770	-0.022420	6
N	0.854140	0.313580	0.469960	7
H	0.755200	1.037300	-1.601300	1
H	1.223430	2.278250	-0.351870	1
H	-0.783510	1.619690	1.084810	1
H	-2.430920	0.089650	0.324260	1
H	-1.667980	0.143230	-1.278480	1
H	-1.083710	-1.691810	1.062840	1
H	-1.148050	-2.115930	-0.657610	1
H	1.226920	-1.767270	0.608880	1
H	1.045620	-1.182260	-1.047260	1
Es	-0.457770	0.970224	0.284105	99
Es	0.724669	1.339714	-0.562533	99
Es	-1.000891	-1.580066	0.745638	99
Es	0.234801	0.526371	0.490529	99
Es	-0.977860	0.502132	0.024237	99
Es	0.671628	-1.065648	-0.022381	99
Es	0.741840	1.125064	-1.270996	99
Es	0.773999	-0.272086	0.224226	99
Es	-0.825788	-1.349840	0.052873	99
Es	-1.479641	-0.003482	-0.208980	99
Es	-0.000084	1.311416	-0.254704	99
Es	0.853761	0.313543	0.469454	99
Es	0.928224	0.717749	-0.038077	99
Es	0.923643	-1.138421	-0.733212	99
Es	-0.678963	1.421270	0.827502	99
Es	1.058049	0.381627	0.758932	99
Es	-0.078055	-1.224048	0.004805	99
Es	-2.127098	0.064901	0.156756	99
Es	-1.043747	-1.876908	-0.434088	99
Es	1.067795	1.977008	-0.423050	99
Es	1.050549	-1.546316	0.407561	99
Es	-1.605066	0.094823	-0.942015	99
Es	-1.170615	-0.682330	-0.088747	99
