35
Properties=species:S:1:pos:R:3:Z:I:1 energy=-247.8746643815139 field_type=dipole dipole="0.000000 0.000000 0.000000" charge=0
C	0.993120	-0.964980	-0.032220	6
C	-0.444080	-1.405650	-0.184320	6
C	-1.257260	-0.343290	-0.047300	6
C	-0.549400	0.915450	0.220190	6
N	0.368070	1.453010	-0.770380	7
C	0.920120	0.529850	0.216430	6
H	1.454680	-1.472770	0.820200	1
H	1.568250	-1.183580	-0.936880	1
H	-0.756800	-2.420040	-0.380450	1
H	-2.336780	-0.389400	-0.117020	1
H	-0.912110	1.569020	1.003030	1
H	0.228820	0.991730	-1.670820	1
H	1.581150	0.921630	0.974460	1
Es	-0.850924	-0.821435	-0.439853	99
Es	-0.443987	-1.405709	-0.184363	99
Es	0.459184	1.794895	-0.749951	99
Es	1.380942	0.800592	0.721665	99
Es	1.304198	-1.304264	0.546036	99
Es	-0.811763	1.367145	0.737040	99
Es	0.993075	-0.964966	-0.032224	99
Es	1.375443	-1.115778	-0.646366	99
Es	-0.163946	1.263088	-0.410989	99
Es	-1.257322	-0.343188	-0.047290	99
Es	0.282808	-1.222168	-0.113908	99
Es	-0.942347	0.312324	0.061854	99
Es	-0.549232	0.915489	0.220018	99
Es	0.981780	-0.213100	0.064656	99
Es	0.745326	1.031180	-0.420360	99
Es	-0.887785	-0.936571	0.201866	99
Es	0.919983	0.529954	0.216247	99
Es	-0.645038	-2.095976	-0.321661	99
Es	0.282456	1.159096	-1.301527	99
Es	0.367917	1.452411	-0.770305	99
Es	-1.991605	-0.366764	-0.091686	99
Es	0.162239	0.645623	0.397010	99
