31
Properties=species:S:1:pos:R:3:Z:I:1 energy=-262.73327738830216 field_type=dipole dipole="0.000000 0.000000 0.000000" charge=0
C	-0.635600	-1.243690	-0.022040	6
C	-1.394110	-0.082640	-0.024960	6
C	-0.730310	1.126130	0.059430	6
N	0.612830	1.213490	0.143450	7
N	1.357400	0.073830	0.146320	7
C	0.737810	-1.121470	0.065080	6
H	-1.102260	-2.219890	-0.086020	1
H	-2.475180	-0.118160	-0.091300	1
H	-1.259210	2.071840	0.062400	1
H	1.391710	-1.985640	0.072630	1
Es	0.837083	0.547673	0.359757	99
Es	0.073837	-1.006548	-0.253991	99
Es	0.865915	0.565700	-0.092206	99
Es	-0.951328	-1.902560	-0.065176	99
Es	0.737848	-1.121411	0.065085	99
Es	-0.635624	-1.243712	-0.022042	99
Es	-0.927478	0.450261	0.305797	99
Es	0.785920	1.557988	0.166437	99
Es	-1.035969	-0.676960	-0.024848	99
Es	-0.894014	0.471238	-0.257456	99
Es	1.356714	0.073776	0.146277	99
Es	-1.093402	1.761977	0.060895	99
Es	-2.124090	-0.107310	-0.069834	99
Es	1.742588	0.093849	0.170070	99
Es	-1.394138	-0.082653	-0.024964	99
Es	0.005952	1.136991	0.103829	99
Es	0.612523	1.212878	0.143409	99
Es	-0.730239	1.126143	0.059433	99
Es	0.039555	-1.032109	0.308816	99
Es	1.043364	-0.451086	0.108769	99
Es	1.174338	-1.709380	0.069742	99
