42
Properties=species:S:1:pos:R:3:Z:I:1 energy=-234.24363011473406 field_type=dipole dipole="0.000000 0.000000 0.000000" charge=0
C	2.316290	-0.455600	-1.456300	6
C	2.473360	0.042520	-0.029160	6
C	3.253380	1.348160	-0.001710	6
C	2.529620	2.627160	-0.505480	6
C	3.256450	3.392780	0.617820	6
C	3.340350	2.054100	1.378450	6
H	1.772770	-1.405530	-1.470640	1
H	3.292450	-0.612520	-1.927510	1
H	1.761360	0.263910	-2.067450	1
H	3.002820	-0.715300	0.559030	1
H	1.483310	0.169910	0.422950	1
H	4.248920	1.229850	-0.455430	1
H	1.439750	2.608620	-0.389040	1
H	2.772990	2.939600	-1.524280	1
H	4.232730	3.793190	0.319940	1
H	2.680310	4.182640	1.106460	1
H	4.263210	1.885970	1.939810	1
H	2.484340	1.871660	2.038640	1
Es	2.840055	-0.477240	0.375420	99
Es	2.529653	2.627147	-0.505441	99
Es	2.316291	-0.455596	-1.456288	99
Es	3.324472	2.770628	1.077249	99
Es	3.253348	1.348200	-0.001682	99
Es	2.473366	0.042512	-0.029200	99
Es	3.935443	1.271925	-0.313977	99
Es	1.936966	0.038824	-1.870924	99
Es	3.320689	1.626811	0.733942	99
Es	2.986713	-0.561360	-1.775430	99
Es	2.746267	1.928936	1.818469	99
Es	2.868033	3.091143	0.015878	99
Es	2.860777	0.689901	-0.018850	99
Es	1.785900	2.606417	-0.414133	99
Es	1.792825	0.137294	0.281212	99
Es	2.862136	3.941583	0.954018	99
Es	3.340346	2.054124	1.378403	99
Es	1.944067	-1.105662	-1.467216	99
Es	2.859733	1.944853	-0.334719	99
Es	2.393443	-0.208976	-0.749689	99
Es	3.975299	1.935555	1.770762	99
Es	3.926666	3.655983	0.409411	99
Es	2.692048	2.842904	-1.210530	99
Es	3.256434	3.392723	0.617809	99
