37
Properties=species:S:1:pos:R:3:Z:I:1 energy=-265.0500015198286 field_type=dipole dipole="0.000000 0.000000 0.000000" charge=0
C	0.665670	1.237410	-0.197770	6
N	-0.784860	1.379900	0.022900	7
C	-1.395820	0.059680	-0.217840	6
C	-0.335660	-0.905650	0.210410	6
N	0.753450	-1.301600	-0.682220	7
C	0.952350	-0.169640	0.223040	6
H	0.916610	1.392410	-1.252460	1
H	1.212650	1.963030	0.409740	1
H	-1.167000	2.059690	-0.630910	1
H	-2.307850	-0.047790	0.375410	1
H	-1.641440	-0.068700	-1.277700	1
H	-0.596750	-1.543420	1.041990	1
H	1.225280	-2.133690	-0.324400	1
H	1.621960	-0.276060	1.063830	1
Es	1.045128	1.729204	0.218175	99
Es	-0.784746	1.379719	0.022317	99
Es	0.252462	-0.442482	0.381805	99
Es	1.420971	-0.251491	0.788167	99
Es	0.839366	1.345418	-0.922682	99
Es	1.031292	-1.792213	-0.443922	99
Es	-0.157639	1.316585	-0.104191	99
Es	-2.018364	-0.020714	0.188315	99
Es	0.952307	-0.169821	0.222872	99
Es	0.724188	-1.244678	-1.036404	99
Es	-0.879009	-0.459350	-0.033206	99
Es	-0.841692	1.473866	0.361942	99
Es	-1.013218	1.786541	-0.388234	99
Es	-0.511625	-1.355498	0.769239	99
Es	-1.566547	-0.028834	-0.946269	99
Es	0.847425	0.527154	-0.016277	99
Es	0.753450	-1.301611	-0.681604	99
Es	-1.047268	0.808384	-0.112662	99
Es	0.189379	-1.246441	-0.344476	99
Es	-0.335478	-0.905703	0.210241	99
Es	0.665544	1.237387	-0.197741	99
Es	-1.395736	0.059780	-0.217808	99
Es	0.987391	-0.790056	-0.336497	99
