35
Properties=species:S:1:pos:R:3:Z:I:1 energy=-247.91433776991337 field_type=dipole dipole="0.000000 0.000000 0.000000" charge=0
C	1.031130	0.006410	-0.064430	6
C	2.521020	-0.002520	-0.013160	6
C	3.307440	-0.709050	-1.082220	6
C	3.324090	0.801340	-1.011970	6
C	4.517810	1.469160	-0.574730	6
N	5.482030	2.009440	-0.223430	7
H	0.635050	0.767140	0.616430	1
H	0.637320	-0.967360	0.246450	1
H	0.653700	0.220910	-1.070170	1
H	2.883340	-0.082850	1.007060	1
H	2.771960	-1.170550	-1.904290	1
H	4.193590	-1.256470	-0.777570	1
H	2.775830	1.325180	-1.787960	1
Es	5.481658	2.009231	-0.223564	99
Es	2.778327	-0.050440	0.668174	99
Es	4.980982	1.683187	-0.090222	99
Es	2.521122	-0.002469	-0.013336	99
Es	0.771862	-0.654677	0.146984	99
Es	2.941049	-1.008572	-1.637998	99
Es	3.905972	-1.067028	-0.877122	99
Es	2.858305	-0.524913	-0.492744	99
Es	0.766879	0.523531	0.396826	99
Es	1.784502	0.011528	-0.059823	99
Es	1.031168	0.006412	-0.064436	99
Es	3.307410	-0.708845	-1.082169	99
Es	0.783738	0.151553	-0.753406	99
Es	3.453372	0.090419	-1.181581	99
Es	4.931791	2.025877	-0.500051	99
Es	2.908546	0.593842	-0.441916	99
Es	3.953608	1.148269	-0.781133	99
Es	3.324188	0.801239	-1.011856	99
Es	5.221965	1.580292	-0.554911	99
Es	5.787203	2.181236	-0.110973	99
Es	4.517515	1.468992	-0.574836	99
Es	2.967122	1.156258	-1.521704	99
