42
Properties=species:S:1:pos:R:3:Z:I:1 energy=-234.24702158741616 field_type=dipole dipole="0.000000 0.000000 0.000000" charge=0
C	2.487190	-1.330420	-0.666770	6
C	1.896070	-0.043160	-0.111770	6
C	2.958360	0.959460	0.296960	6
C	3.770380	0.578960	1.508980	6
C	3.639180	1.763270	-0.790210	6
C	2.638640	2.428240	0.111250	6
H	1.688100	-2.002690	-0.994440	1
H	3.078790	-1.856280	0.088560	1
H	3.137360	-1.128930	-1.523940	1
H	1.262780	-0.273800	0.753230	1
H	1.236010	0.391000	-0.873310	1
H	4.438350	1.388750	1.822860	1
H	4.392290	-0.297040	1.299860	1
H	3.112570	0.344180	2.352300	1
H	3.353840	1.591170	-1.822310	1
H	4.684900	2.022590	-0.666790	1
H	3.008960	3.140680	0.840510	1
H	1.680380	2.706670	-0.313850	1
Es	3.370885	0.773463	0.901825	99
Es	1.896109	-0.043175	-0.111777	99
Es	1.939448	-1.788805	-0.890031	99
Es	3.317952	0.417894	2.081884	99
Es	3.770372	0.578964	1.508965	99
Es	2.891366	-1.687006	-0.148322	99
Es	1.448690	0.259518	-0.637388	99
Es	2.200356	-0.689978	-0.386743	99
Es	4.350438	1.937886	-0.700693	99
Es	2.638731	2.428123	0.111190	99
Es	4.191609	-0.020197	1.364987	99
Es	3.440105	1.642423	-1.490832	99
Es	2.894890	2.909414	0.610597	99
Es	3.165329	2.256142	-0.429230	99
Es	2.958387	0.959601	0.296892	99
Es	3.639066	1.763275	-0.790085	99
Es	1.985178	2.611622	-0.180257	99
Es	2.929557	-1.189692	-1.252049	99
Es	2.487179	-1.330405	-0.666759	99
Es	2.433250	0.462368	0.086825	99
Es	1.466107	-0.201737	0.484777	99
Es	4.224318	1.135015	1.716857	99
Es	3.404196	1.207179	-0.312062	99
Es	2.669181	1.699212	0.351532	99
