41
Properties=species:S:1:pos:R:3:Z:I:1 energy=-250.2447097863143 field_type=dipole dipole="0.000000 0.000000 0.000000" charge=0
C	0.937870	-0.032210	0.152060	6
C	2.448170	0.040360	-0.028000	6
C	2.863240	0.013550	-1.496990	6
C	3.156630	1.103890	0.848120	6
C	4.146120	-0.015410	1.203670	6
N	3.135810	-1.002260	0.776160	7
H	0.652900	-0.057120	1.210250	1
H	0.524690	-0.928020	-0.324460	1
H	0.453150	0.840750	-0.298500	1
H	3.951500	0.036140	-1.622340	1
H	2.455540	0.881780	-2.026500	1
H	2.490020	-0.887890	-1.995660	1
H	2.572890	1.460100	1.705490	1
H	3.581610	1.966130	0.327130	1
H	5.056130	-0.021460	0.592920	1
H	4.428330	-0.077510	2.257990	1
H	3.505980	-1.790630	0.247620	1
Es	2.755415	0.646975	0.373596	99
Es	2.933675	-1.103084	1.051715	99
Es	0.937861	-0.032201	0.152038	99
Es	2.448235	0.040277	-0.027947	99
Es	0.749620	-0.044913	0.871531	99
Es	0.611368	0.568234	-0.161283	99
Es	3.446714	1.697377	0.487173	99
Es	4.772224	-0.017080	0.775552	99
Es	3.707379	0.610233	1.064687	99
Es	2.863241	0.013552	-1.496985	99
Es	3.156653	1.103849	0.848109	99
Es	3.136085	-1.002089	0.775821	99
Es	2.607361	-0.604717	-1.828026	99
Es	2.583178	0.605739	-1.854690	99
Es	4.347581	-0.059472	1.929400	99
Es	3.626135	-0.624651	0.962425	99
Es	1.677857	0.006032	0.052854	99
Es	2.664028	0.033075	-0.774196	99
Es	2.754293	1.338831	1.430656	99
Es	2.828941	-0.600262	0.382505	99
Es	3.607304	0.027978	-1.573427	99
Es	3.371735	-1.469027	0.435938	99
Es	0.661357	-0.644864	-0.178402	99
Es	4.146009	-0.015481	1.203611	99
