41
Properties=species:S:1:pos:R:3:Z:I:1 energy=-250.24534902719407 field_type=dipole dipole="0.000000 0.000000 0.000000" charge=0
C	0.981270	-0.051570	0.089700	6
C	2.488540	0.067530	-0.006120	6
C	3.166980	1.118160	0.898340	6
C	4.189490	0.008750	1.218540	6
C	5.464490	-0.018390	0.388250	6
N	3.185610	-0.983590	0.769030	7
H	0.625550	-0.929160	-0.459590	1
H	0.501240	0.830230	-0.346950	1
H	0.640610	-0.138600	1.126860	1
H	2.825380	0.123960	-1.050380	1
H	2.571980	1.430340	1.764550	1
H	3.552250	2.007710	0.392450	1
H	4.424240	-0.069530	2.286560	1
H	5.265910	0.038160	-0.687540	1
H	6.031430	-0.935980	0.580120	1
H	6.106150	0.829060	0.652310	1
H	3.550300	-1.755200	0.213370	1
Es	1.722275	0.011383	0.035998	99
Es	5.464488	-0.018388	0.388251	99
Es	4.364439	-0.047016	1.955091	99
Es	4.833165	0.003400	0.787113	99
Es	3.733340	0.634042	1.092010	99
Es	2.721885	0.108574	-0.728308	99
Es	2.758199	1.322698	1.487654	99
Es	3.434067	1.730674	0.550906	99
Es	0.657298	0.554546	-0.212521	99
Es	0.981267	-0.051561	0.089676	99
Es	0.743186	-0.651667	-0.287752	99
Es	5.900125	0.560028	0.570151	99
Es	4.189408	0.008677	1.218450	99
Es	2.773936	0.666105	0.415527	99
Es	3.166993	1.118122	0.898321	99
Es	0.755757	-0.106585	0.795500	99
Es	2.488595	0.067448	-0.006029	99
Es	3.185956	-0.983365	0.768590	99
Es	3.422811	-1.439977	0.415840	99
Es	5.843401	-0.647438	0.520608	99
Es	5.319642	0.019306	-0.345349	99
Es	2.977807	-1.091567	1.038084	99
Es	2.875446	-0.575249	0.382671	99
Es	3.668475	-0.606630	0.963359	99
