41
Properties=species:S:1:pos:R:3:Z:I:1 energy=-250.26983237190274 field_type=dipole dipole="0.000000 0.000000 0.000000" charge=0
C	0.988820	0.005040	0.004490	6
C	2.507160	0.015750	0.041690	6
C	3.085160	1.137130	0.890180	6
C	4.480490	0.622600	1.177940	6
N	4.285750	-0.805690	1.427070	7
C	3.115180	-1.242500	0.657450	6
H	0.624420	-0.828760	-0.603990	1
H	0.607150	0.934790	-0.429640	1
H	0.563670	-0.097940	1.008340	1
H	2.885080	0.124330	-0.984420	1
H	2.520110	1.262380	1.821780	1
H	3.096230	2.094950	0.361010	1
H	5.130850	0.767110	0.307270	1
H	4.935260	1.120630	2.038640	1
H	5.115479	-1.333750	1.160720	1
H	3.401370	-1.955820	-0.123420	1
H	2.417850	-1.747430	1.333860	1
Es	4.218786	-0.852333	1.766231	99
Es	4.788155	-1.118531	1.243499	99
Es	3.795884	-0.994417	1.064277	99
Es	3.085180	1.137116	0.890174	99
Es	2.770484	0.091360	-0.663785	99
Es	3.791667	0.906559	1.040391	99
Es	0.988833	0.005041	0.004481	99
Es	0.741568	-0.566184	-0.412167	99
Es	4.285858	-0.805587	1.426445	99
Es	3.115295	-1.242448	0.657500	99
Es	4.480460	0.622477	1.177951	99
Es	0.730544	0.641780	-0.293063	99
Es	1.741003	0.007070	0.026192	99
Es	4.930338	0.727552	0.568900	99
Es	3.313270	-1.736979	0.116967	99
Es	4.798180	0.966893	1.766905	99
Es	3.092959	1.794036	0.527553	99
Es	2.697248	1.216488	1.527978	99
Es	0.704472	-0.065641	0.692678	99
Es	2.507141	0.015744	0.041712	99
Es	4.384874	-0.191715	1.294222	99
Es	2.795315	-0.626056	0.345765	99
Es	2.624671	-1.588581	1.117364	99
Es	2.775741	0.593641	0.464050	99
