38
Properties=species:S:1:pos:R:3:Z:I:1 energy=-249.0798929525372 field_type=dipole dipole="0.000000 0.000000 0.000000" charge=0
C	1.040800	0.007750	0.118780	6
C	2.378120	0.015850	0.033390	6
C	3.240790	1.236980	0.036610	6
C	4.395580	0.771330	-0.835430	6
N	4.589680	-0.637060	-0.472130	7
C	3.248020	-1.178910	-0.209940	6
H	0.478850	-0.918630	0.060460	1
H	0.480210	0.927690	0.249150	1
H	3.582670	1.452680	1.055380	1
H	2.746390	2.119770	-0.378050	1
H	4.136820	0.853990	-1.898700	1
H	5.303260	1.354920	-0.657020	1
H	5.024520	-1.142290	-1.241270	1
H	2.892320	-1.748920	-1.075180	1
H	3.285400	-1.831870	0.667350	1
Es	2.378255	0.015848	0.033380	99
Es	2.996075	-1.566757	-0.801302	99
Es	0.653992	-0.620846	0.079905	99
Es	4.838773	-0.938296	-0.951247	99
Es	4.784960	-0.655709	-0.176658	99
Es	3.999587	-0.875813	-0.385555	99
Es	4.500305	-0.032350	-0.656939	99
Es	1.040712	0.007745	0.118791	99
Es	3.468564	1.374391	0.724785	99
Es	1.657686	0.045478	-0.248491	99
Es	4.208960	0.831548	-1.572851	99
Es	1.705673	-0.022632	0.406126	99
Es	2.799536	-0.591420	-0.079766	99
Es	4.589306	-0.637002	-0.472646	99
Es	3.821906	1.027207	-0.399596	99
Es	2.787997	0.640008	0.046666	99
Es	3.240789	1.236939	0.036592	99
Es	4.395574	0.771210	-0.835388	99
Es	5.019347	1.172971	-0.718196	99
Es	0.655631	0.630297	0.207936	99
Es	2.901603	1.835515	-0.243166	99
Es	3.248120	-1.178826	-0.209968	99
Es	3.260282	-1.623098	0.385447	99
