38
Properties=species:S:1:pos:R:3:Z:I:1 energy=-249.0863326635991 field_type=dipole dipole="0.000000 0.000000 0.000000" charge=0
C	0.999620	0.032310	0.028510	6
C	2.482150	-0.023250	-0.018290	6
C	3.261720	-1.103120	-0.088430	6
C	4.692880	-0.710580	-0.078700	6
N	4.701080	0.760410	-0.187350	7
C	3.313950	1.209780	0.043700	6
H	0.558630	-0.968540	-0.019990	1
H	0.612970	0.611900	-0.815470	1
H	0.664120	0.504480	0.956980	1
H	2.919950	-2.127710	-0.119270	1
H	5.172710	-1.022060	0.854670	1
H	5.233820	-1.158460	-0.918320	1
H	4.940840	0.994150	-1.149710	1
H	3.019830	1.934500	-0.722450	1
H	3.235280	1.683670	1.027710	1
Es	5.013446	-0.931241	0.560332	99
Es	4.700675	0.760146	-0.187763	99
Es	4.686988	0.117449	-0.150434	99
Es	3.037893	-1.804290	-0.109063	99
Es	3.246317	1.527939	0.717451	99
Es	2.482051	-0.023133	-0.018281	99
Es	0.747714	0.427825	-0.542668	99
Es	2.856685	-0.569015	-0.390268	99
Es	4.826857	0.888940	-0.779173	99
Es	4.090562	0.950484	-0.096816	99
Es	4.692856	-0.710463	-0.078721	99
Es	3.108831	1.703759	-0.481968	99
Es	0.999659	0.032316	0.028509	99
Es	5.063258	-1.016543	-0.654393	99
Es	3.261796	-1.103217	-0.088432	99
Es	0.704037	-0.647582	-0.004275	99
Es	1.739158	0.005821	0.005668	99
Es	0.783267	0.354737	0.655643	99
Es	3.314059	1.209729	0.043669	99
Es	4.934453	0.913521	0.032441	99
Es	3.980552	-0.945371	-0.089794	99
Es	2.866391	0.608811	0.010132	99
Es	2.869734	-0.600076	0.265110	99
