42
Properties=species:S:1:pos:R:3:Z:I:1 energy=-234.24644099901988 field_type=dipole dipole="0.000000 0.000000 0.000000" charge=0
C	1.132300	-0.226230	-0.513180	6
C	2.595710	0.056540	-0.809290	6
C	3.387990	0.314320	0.471120	6
C	4.827550	0.608000	0.168860	6
C	5.892410	0.283720	1.184030	6
C	5.799230	-0.514330	-0.087300	6
H	0.585890	-0.414680	-1.443370	1
H	0.661700	0.625030	-0.009570	1
H	1.024060	-1.107540	0.128100	1
H	2.669760	0.923340	-1.476290	1
H	3.025570	-0.795270	-1.349070	1
H	3.302950	-0.552570	1.137880	1
H	2.961340	1.171250	1.005720	1
H	4.947280	1.522290	-0.403390	1
H	5.602200	-0.201980	2.108710	1
H	6.720760	0.975490	1.289360	1
H	6.562410	-0.360270	-0.841650	1
H	5.443400	-1.536020	-0.020130	1
Es	2.647316	0.656057	-1.263982	99
Es	3.093464	0.903522	0.834804	99
Es	1.857403	-0.085190	-0.657268	99
Es	0.813399	0.357471	-0.167182	99
Es	5.892330	0.283690	1.183872	99
Es	5.688176	-0.047114	1.809985	99
Es	5.994467	-0.220080	0.603277	99
Es	5.550892	-1.206619	-0.038929	99
Es	5.302819	0.586513	0.797008	99
Es	4.118364	0.448220	0.325133	99
Es	2.595683	0.056544	-0.809256	99
Es	6.318962	-0.407223	-0.598320	99
Es	1.132312	-0.226228	-0.513184	99
Es	3.333558	-0.285299	0.925953	99
Es	2.890724	-0.530130	-1.175706	99
Es	5.231004	0.003074	-0.132878	99
Es	1.062115	-0.829107	-0.072881	99
Es	6.456812	0.753727	1.252595	99
Es	4.916963	1.229681	-0.223801	99
Es	3.388006	0.314321	0.471094	99
Es	5.799178	-0.514202	-0.087189	99
Es	0.758159	-0.355159	-1.149220	99
Es	2.992785	0.186527	-0.168268	99
Es	4.827680	0.607892	0.168918	99
