35
Properties=species:S:1:pos:R:3:Z:I:1 energy=-247.93601681049134 field_type=dipole dipole="0.000000 0.000000 0.000000" charge=0
C	0.942100	0.025760	-0.008100	6
C	2.425980	0.004500	-0.000620	6
C	3.275570	1.093900	0.003760	6
N	4.567310	0.637360	0.010100	7
C	4.564790	-0.731440	0.009750	6
C	3.254410	-1.152480	0.003130	6
H	0.558000	1.050880	0.001520	1
H	0.548520	-0.492740	0.872180	1
H	0.558030	-0.472770	-0.903960	1
H	3.069090	2.156000	0.002920	1
H	5.393530	1.221190	0.014330	1
H	5.492410	-1.287860	0.014210	1
H	2.925260	-2.183900	0.001200	1
Es	3.140846	1.815792	0.003519	99
Es	4.451680	0.514820	-0.172792	99
Es	3.254398	-1.152515	0.003121	99
Es	3.859615	-0.939819	0.314174	99
Es	1.684476	0.015883	-0.004133	99
Es	4.039670	0.866723	0.076074	99
Es	3.024868	-1.851282	0.002131	99
Es	0.685117	0.724973	-0.001633	99
Es	0.680554	-0.327084	0.587607	99
Es	0.687144	-0.313489	-0.614350	99
Es	3.275782	1.093929	0.003753	99
Es	4.567192	0.637248	0.010511	99
Es	2.794248	-0.609824	0.003812	99
Es	2.862910	0.520883	-0.316204	99
Es	2.425919	0.004488	-0.000619	99
Es	3.855496	-0.934783	-0.307347	99
Es	5.057980	0.984535	0.028161	99
Es	0.942145	0.025762	-0.008100	99
Es	4.603072	0.074372	0.114291	99
Es	5.196569	-1.102111	0.013253	99
Es	4.564908	-0.731246	0.009770	99
Es	2.858057	0.526001	0.314694	99
