37
Properties=species:S:1:pos:R:3:Z:I:1 energy=-265.0103193950676 field_type=dipole dipole="0.000000 0.000000 0.000000" charge=0
C	1.193970	-0.367460	0.181320	6
C	2.674670	-0.227780	0.287560	6
C	3.588400	-0.994110	-0.620230	6
N	3.503430	0.468550	-0.705140	7
N	2.757190	0.749510	-1.789510	7
C	3.122540	1.857060	-2.340850	6
H	0.705940	0.590060	0.389620	1
H	0.838840	-1.092270	0.921360	1
H	0.864690	-0.717960	-0.802460	1
H	2.986930	-0.074590	1.313770	1
H	3.169250	-1.578220	-1.430880	1
H	4.511230	-1.380250	-0.207400	1
H	2.599170	2.214570	-3.240310	1
H	3.946910	2.489730	-1.962500	1
Es	3.788135	0.688902	-0.597427	99
Es	2.772079	2.104017	-2.950791	99
Es	1.941292	-0.286177	0.208209	99
Es	0.966289	-0.858840	0.690206	99
Es	2.674800	-0.227714	0.287356	99
Es	3.676352	2.286081	-2.089991	99
Es	3.127804	0.610625	-1.244792	99
Es	0.867336	0.284183	0.326031	99
Es	2.481267	0.514424	-1.898159	99
Es	3.618149	-0.158354	-0.786067	99
Es	3.588357	-0.993859	-0.620202	99
Es	4.219359	-1.254624	-0.345049	99
Es	2.893531	-0.117949	0.983943	99
Es	3.070970	0.301102	-0.268576	99
Es	0.975573	-0.606480	-0.479297	99
Es	2.757645	0.749884	-1.789323	99
Es	1.194014	-0.367454	0.181344	99
Es	2.737707	1.386658	-1.863552	99
Es	3.111250	1.096427	-2.191424	99
Es	3.080141	-0.810767	-0.067972	99
Es	3.122536	1.857089	-2.340891	99
Es	3.502904	0.468090	-0.705304	99
Es	3.303141	-1.382248	-1.168042	99
