40
Properties=species:S:1:pos:R:3:Z:I:1 energy=-266.2357840075886 field_type=dipole dipole="0.000000 0.000000 0.000000" charge=0
C	1.042820	0.009290	-0.065580	6
C	2.532790	-0.022210	-0.022860	6
C	3.358200	-0.760020	-1.045870	6
N	2.727850	-1.508520	-2.132840	7
C	3.330840	0.751890	-1.036800	6
N	4.503080	1.510530	-0.598130	7
H	0.665090	0.765030	0.631210	1
H	0.634390	-0.961520	0.235080	1
H	0.654610	0.251800	-1.060920	1
H	2.887810	-0.062630	1.001490	1
H	4.269730	-1.228660	-0.678860	1
H	1.948040	-0.999130	-2.542850	1
H	2.349660	-2.390050	-1.790890	1
H	2.787500	1.229780	-1.849560	1
H	5.015650	1.020420	0.133450	1
H	4.223480	2.406520	-0.200630	1
Es	2.876534	-0.551055	-0.452515	99
Es	1.786466	-0.014622	-0.065738	99
Es	4.718098	1.570017	-0.865986	99
Es	3.467643	-0.000779	-1.193133	99
Es	3.985950	1.172546	-0.760128	99
Es	2.248881	-1.192728	-2.353117	99
Es	0.763529	-0.653834	0.139263	99
Es	0.783963	0.173031	-0.750505	99
Es	3.976376	-1.076746	-0.789351	99
Es	2.788794	-0.041214	0.674176	99
Es	4.312075	2.037339	-0.342437	99
Es	1.042835	0.009288	-0.065587	99
Es	4.502684	1.510421	-0.597642	99
Es	2.960952	-1.573257	-2.377116	99
Es	2.727444	-1.508398	-2.132391	99
Es	2.487710	-2.026702	-1.904049	99
Es	2.951583	1.074736	-1.583672	99
Es	2.968128	-1.173885	-1.644196	99
Es	3.330932	0.751820	-1.036677	99
Es	2.858091	0.521217	-0.446053	99
Es	2.532847	-0.022212	-0.022982	99
Es	0.789989	0.524713	0.408044	99
Es	3.358060	-0.759947	-1.045935	99
Es	4.786211	1.206073	-0.143630	99
