41
Properties=species:S:1:pos:R:3:Z:I:1 energy=-250.22573188515958 field_type=dipole dipole="0.000000 0.000000 0.000000" charge=0
C	0.943940	-0.021310	0.059190	6
C	2.456940	-0.001050	-0.012120	6
C	3.185710	1.029990	0.876460	6
N	4.145380	-0.016790	1.290620	7
C	5.345150	0.022820	0.453780	6
C	3.213140	-1.062910	0.816290	6
H	0.545910	-0.889110	-0.476160	1
H	0.525960	0.879030	-0.402060	1
H	0.587050	-0.068540	1.093130	1
H	2.795700	0.034060	-1.057270	1
H	2.586900	1.406210	1.715260	1
H	3.601710	1.895670	0.349400	1
H	5.973940	-0.848820	0.666260	1
H	5.937100	0.912970	0.693900	1
H	5.139000	0.035310	-0.623050	1
H	3.651370	-1.885650	0.240670	1
H	2.625020	-1.502260	1.631650	1
Es	4.145212	-0.016776	1.289981	99
Es	5.770924	-0.576967	0.593966	99
Es	3.481868	1.623568	0.514990	99
Es	4.648446	0.001390	0.890990	99
Es	2.768601	1.280682	1.450430	99
Es	0.661264	0.595102	-0.256010	99
Es	3.213213	-1.062808	0.816314	99
Es	2.764555	0.585511	0.396816	99
Es	1.690030	-0.011496	0.021859	99
Es	3.764563	0.481798	1.115591	99
Es	2.779904	-0.602530	0.362319	99
Es	0.943949	-0.021310	0.059182	99
Es	5.345051	0.022818	0.453839	99
Es	3.524578	-1.626729	0.421586	99
Es	2.456937	-0.001051	-0.012088	99
Es	2.692966	0.022984	-0.725478	99
Es	5.193246	0.031520	-0.292758	99
Es	5.745355	0.635212	0.613502	99
Es	0.674695	-0.615534	-0.306551	99
Es	3.185785	1.029891	0.876478	99
Es	4.239358	-0.025461	1.643648	99
Es	2.803261	-1.356991	1.374527	99
Es	0.707230	-0.053451	0.767798	99
Es	3.778117	-0.514679	1.087227	99
