34
Properties=species:S:1:pos:R:3:Z:I:1 energy=-263.9178257112708 field_type=dipole dipole="0.000000 0.000000 0.000000" charge=0
C	1.088240	0.051080	0.157930	6
C	2.410980	0.031720	-0.018600	6
C	3.291520	-1.205620	-0.082010	6
N	4.677420	-0.687760	-0.386700	7
C	4.509810	0.603020	-0.429390	6
N	3.262140	1.072870	-0.207360	7
H	0.533100	0.982070	0.179900	1
H	0.529300	-0.870620	0.283970	1
H	2.978300	-1.881860	-0.883390	1
H	3.312710	-1.731640	0.877660	1
H	5.298420	1.342090	-0.635450	1
H	2.958690	2.029380	-0.295210	1
Es	3.086615	1.637443	-0.280813	99
Es	0.711652	-0.571594	0.243281	99
Es	2.866641	0.646931	-0.172663	99
Es	4.062639	-0.904942	-0.252966	99
Es	4.666174	-0.145575	-0.123018	99
Es	2.826775	-0.584884	-0.045304	99
Es	3.349296	0.999990	-0.027042	99
Es	3.262149	1.072459	-0.208269	99
Es	4.509684	0.603161	-0.429376	99
Es	5.035128	1.106974	-0.567422	99
Es	3.068931	-1.652400	-0.617707	99
Es	3.291604	-1.205502	-0.082034	99
Es	2.411238	0.031830	-0.018634	99
Es	4.971322	-0.897119	-0.429621	99
Es	1.646275	0.027015	-0.248794	99
Es	3.293497	-1.550494	0.563678	99
Es	4.557844	-0.182364	-0.686983	99
Es	4.676976	-0.687411	-0.386634	99
Es	1.736749	0.064072	0.404605	99
Es	1.088196	0.051090	0.157938	99
Es	3.775362	0.895939	-0.388612	99
Es	0.712609	0.686779	0.172480	99
