42
Properties=species:S:1:pos:R:3:Z:I:1 energy=-234.24725844256835 field_type=dipole dipole="0.000000 0.000000 0.000000" charge=0
C	1.170150	0.203400	0.149930	6
C	2.660780	-0.030600	-0.090650	6
C	2.876160	-0.786330	-1.401020	6
C	3.400180	1.282910	-0.115340	6
C	3.841990	1.929160	1.173090	6
C	4.863590	1.336640	0.243390	6
H	1.005990	0.724060	1.100130	1
H	0.625850	-0.746340	0.187210	1
H	0.729250	0.818390	-0.643300	1
H	3.042500	-0.654010	0.727210	1
H	2.506160	-0.212370	-2.258480	1
H	2.356980	-1.750570	-1.386560	1
H	3.941720	-0.979130	-1.568630	1
H	3.057630	1.938730	-0.909990	1
H	3.648300	1.415070	2.107620	1
H	3.784550	3.009680	1.243250	1
H	5.497230	2.016030	-0.315440	1
H	5.358960	0.422450	0.550920	1
Es	4.863422	1.336681	0.243436	99
Es	3.169920	1.734176	-0.656173	99
Es	1.907550	0.090829	0.026834	99
Es	3.041446	0.630427	-0.093752	99
Es	2.767938	-0.408591	-0.755342	99
Es	1.059748	0.557861	0.799543	99
Es	3.437228	1.650258	0.580644	99
Es	3.604036	-0.918227	-1.513282	99
Es	5.292694	1.801001	-0.135521	99
Es	3.804969	2.664039	1.218394	99
Es	0.800167	-0.448495	0.173477	99
Es	4.185421	1.216680	-0.099417	99
Es	2.876157	-0.786327	-1.401013	99
Es	0.874110	0.623444	-0.396856	99
Es	2.619541	-0.389101	-1.983688	99
Es	3.400312	1.282952	-0.115214	99
Es	3.842043	1.929079	1.172947	99
Es	3.707905	1.573729	1.804458	99
Es	4.491227	1.684408	0.827188	99
Es	2.927164	-0.455763	0.474025	99
Es	2.660759	-0.030584	-0.090682	99
Es	1.170158	0.203397	0.149927	99
Es	5.193681	0.711700	0.452372	99
Es	2.518392	-1.445196	-1.388448	99
