40
Properties=species:S:1:pos:R:3:Z:I:1 energy=-266.23499475386956 field_type=dipole dipole="0.000000 0.000000 0.000000" charge=0
C	0.832770	0.293620	-0.366060	6
C	2.247110	0.041330	0.089340	6
C	2.479640	0.155140	1.582810	6
N	2.110630	-1.093140	2.239800	7
C	3.083070	-0.944440	-0.702730	6
N	3.314790	0.488830	-0.824980	7
H	0.734760	0.238010	-1.455910	1
H	0.502360	1.289770	-0.052260	1
H	0.151140	-0.446200	0.066460	1
H	1.895930	0.984830	1.998180	1
H	3.534070	0.363200	1.800780	1
H	1.113290	-1.256880	2.115620	1
H	2.255940	-0.995230	3.243150	1
H	2.638880	-1.431900	-1.561510	1
H	3.838780	-1.523020	-0.185950	1
H	4.158120	0.754750	-0.314680	1
Es	2.250583	-0.537208	1.967415	99
Es	3.325989	-0.160090	-0.852395	99
Es	1.502449	-1.170434	2.169555	99
Es	2.247279	0.041376	0.089195	99
Es	3.083076	-0.944185	-0.702714	99
Es	3.206278	0.296121	1.726164	99
Es	2.837313	0.436648	-0.377043	99
Es	0.832782	0.293607	-0.366033	99
Es	2.369547	0.102727	0.833152	99
Es	3.600240	-1.334699	-0.351813	99
Es	3.817737	0.634725	-0.498465	99
Es	3.227693	0.662640	-1.131699	99
Es	2.298342	-1.364667	2.115610	99
Es	1.539213	0.171590	-0.142285	99
Es	0.770750	0.249832	-1.100812	99
Es	0.610306	0.970858	-0.146131	99
Es	0.373882	-0.213110	-0.060530	99
Es	2.780254	-1.276938	-1.288471	99
Es	2.075290	0.733890	1.860591	99
Es	2.551582	-0.624900	-0.218492	99
Es	3.314878	0.488495	-0.824479	99
Es	2.110367	-1.092742	2.239984	99
Es	2.185965	-1.012849	2.848273	99
Es	2.479598	0.155013	1.582847	99
