34
Properties=species:S:1:pos:R:3:Z:I:1 energy=-263.880768551828 field_type=dipole dipole="0.000000 0.000000 0.000000" charge=0
C	1.022310	0.024990	-0.172570	6
C	2.337080	-0.057380	0.037090	6
C	3.246150	-1.230600	0.149840	6
N	4.484810	-0.598760	0.626510	7
N	4.463870	0.764530	0.517750	7
C	3.238360	1.087010	0.239080	6
H	0.421650	-0.870000	-0.300610	1
H	0.512500	0.982090	-0.214520	1
H	3.406230	-1.690760	-0.829930	1
H	2.888870	-1.974350	0.866390	1
H	5.322020	-1.005440	0.210010	1
H	2.868010	2.115980	0.126420	1
Es	2.761306	0.530741	0.135540	99
Es	4.463364	0.764150	0.517660	99
Es	3.246251	-1.230497	0.149874	99
Es	4.484690	-0.611049	0.940307	99
Es	1.022236	0.024988	-0.172585	99
Es	0.611688	-0.578529	-0.260911	99
Es	3.932858	0.904794	0.100565	99
Es	1.628937	-0.019994	0.254780	99
Es	1.732123	0.005269	-0.389614	99
Es	3.950097	-0.868492	0.386758	99
Es	3.238333	1.087012	0.239110	99
Es	4.460068	0.070266	0.524596	99
Es	2.998401	-1.731702	0.627784	99
Es	3.347496	-1.537335	-0.515562	99
Es	2.989777	1.781029	0.167383	99
Es	4.777444	0.959727	0.571448	99
Es	4.979318	-0.831493	0.353575	99
Es	3.825031	0.917862	0.662103	99
Es	4.484724	-0.598497	0.625768	99
Es	0.677633	0.670412	-0.201875	99
Es	2.760312	-0.668757	0.086730	99
Es	2.337229	-0.057386	0.037113	99
