34
Properties=species:S:1:pos:R:3:Z:I:1 energy=-263.9244083854067 field_type=dipole dipole="0.000000 0.000000 0.000000" charge=0
C	0.944560	0.010800	-0.007950	6
C	2.423550	0.029520	-0.001010	6
C	3.267990	1.118910	0.003310	6
N	4.538310	0.622520	0.008910	7
N	4.585480	-0.719440	0.008480	7
C	3.300130	-1.079290	0.002410	6
H	0.533790	1.025440	0.001560	1
H	0.564240	-0.517300	0.872180	1
H	0.572600	-0.497500	-0.903160	1
H	3.080980	2.183310	0.002900	1
H	5.413600	1.133580	0.013150	1
H	3.051910	-2.133280	0.000700	1
Es	5.051301	0.930834	0.012917	99
Es	4.565513	-0.014599	0.012155	99
Es	4.917303	-0.901723	0.009491	99
Es	3.145380	1.835801	0.003078	99
Es	4.185992	0.726170	-0.254301	99
Es	3.117846	-1.791204	0.001265	99
Es	0.672055	0.701937	-0.001514	99
Es	3.268205	1.118947	0.003325	99
Es	2.423504	0.029522	-0.001016	99
Es	0.699593	-0.334078	-0.612652	99
Es	2.835594	0.471322	-0.302331	99
Es	0.944617	0.010805	-0.007950	99
Es	1.687998	0.021038	-0.004342	99
Es	2.832422	0.473027	0.303725	99
Es	3.300195	-1.079308	0.002409	99
Es	4.011421	-0.838058	-0.267812	99
Es	4.584984	-0.719053	0.008475	99
Es	2.811681	-0.557222	0.000933	99
Es	4.009669	-0.838132	0.279145	99
Es	4.538253	0.622479	0.008959	99
Es	4.160697	0.746390	0.264733	99
Es	0.693937	-0.347502	0.586583	99
