38
Properties=species:S:1:pos:R:3:Z:I:1 energy=-249.0451763785539 field_type=dipole dipole="0.000000 0.000000 0.000000" charge=0
C	0.935550	0.009820	-0.183390	6
C	2.401700	0.037240	0.074400	6
N	3.301150	-0.765570	-0.742510	7
C	3.347890	0.687400	-0.907810	6
C	4.525340	1.386650	-0.395060	6
C	5.792100	1.190620	-0.785310	6
H	0.466080	0.907340	0.231640	1
H	0.483180	-0.863070	0.298130	1
H	0.700840	-0.030880	-1.252510	1
H	2.634420	0.072700	1.132460	1
H	2.815850	-1.194250	-1.530620	1
H	2.945600	1.077440	-1.837070	1
H	4.340890	2.141860	0.366300	1
H	6.035520	0.444150	-1.534920	1
H	6.606580	1.757400	-0.348130	1
Es	4.525225	1.386672	-0.395038	99
Es	0.785537	-0.019376	-0.915709	99
Es	5.792188	1.190614	-0.785346	99
Es	2.989250	-1.006578	-1.216673	99
Es	3.577429	-0.933649	-0.592923	99
Es	3.347871	0.687172	-0.907742	99
Es	3.943835	1.030756	-0.654700	99
Es	5.126636	1.518339	-0.826854	99
Es	3.300696	-0.765214	-0.742712	99
Es	0.935563	0.009822	-0.183390	99
Es	2.565504	0.064828	0.793748	99
Es	2.844745	-0.539161	-0.344562	99
Es	3.411819	-0.143452	-0.925235	99
Es	2.401838	0.037147	0.074211	99
Es	5.191756	1.067876	-0.360961	99
Es	2.803552	0.573951	-0.358391	99
Es	6.348817	1.572540	-0.493920	99
Es	1.667661	0.020131	-0.071330	99
Es	0.632517	-0.584621	0.143803	99
Es	3.073891	0.953805	-1.535827	99
Es	5.965457	0.689648	-1.294560	99
Es	4.387473	1.899953	0.121266	99
Es	0.621133	0.619362	0.100419	99
