40
Properties=species:S:1:pos:R:3:Z:I:1 energy=-266.2242812130361 field_type=dipole dipole="0.000000 0.000000 0.000000" charge=0
C	0.984040	0.037430	0.069310	6
C	2.496390	-0.070410	0.017640	6
N	3.173820	0.972670	0.840020	7
C	4.184530	-0.043570	1.238190	6
C	3.148630	-1.144650	0.927290	6
N	3.754110	-2.208770	0.123420	7
H	0.524530	-0.815550	-0.439910	1
H	0.641030	0.948430	-0.432380	1
H	0.607430	0.054010	1.098740	1
H	2.854370	-0.063230	-1.021970	1
H	2.614890	1.299790	1.628910	1
H	5.079190	-0.019790	0.603540	1
H	4.502310	0.020510	2.283610	1
H	2.555420	-1.476530	1.785830	1
H	4.332190	-1.872870	-0.647010	1
H	3.072080	-2.838700	-0.295650	1
Es	0.736799	0.048379	0.777777	99
Es	0.675138	-0.547852	-0.277588	99
Es	3.638605	0.570049	1.054302	99
Es	2.739565	-1.371080	1.506338	99
Es	4.184413	-0.043480	1.238162	99
Es	2.496396	-0.070284	0.017733	99
Es	3.321215	-2.565433	-0.139945	99
Es	3.753748	-2.208430	0.123063	99
Es	4.786503	-0.038800	0.791436	99
Es	3.723671	-0.661337	1.126779	99
Es	2.825478	1.125615	1.325903	99
Es	0.984038	0.037417	0.069306	99
Es	1.725943	-0.015784	0.040707	99
Es	2.836957	0.561990	0.476597	99
Es	3.297454	1.264363	0.663172	99
Es	3.472566	-1.757309	0.449061	99
Es	2.750277	-0.075206	-0.691349	99
Es	3.148705	-1.144740	0.927196	99
Es	4.404644	0.004027	1.957856	99
Es	4.076783	-1.975479	-0.345466	99
Es	0.753418	0.656738	-0.271096	99
Es	3.960490	-2.405983	0.322513	99
Es	2.754101	-0.666703	0.439958	99
Es	3.173613	0.972172	0.840326	99
