40
Properties=species:S:1:pos:R:3:Z:I:1 energy=-266.2360596110592 field_type=dipole dipole="0.000000 0.000000 0.000000" charge=0
C	0.945660	0.052440	-0.173270	6
C	2.437480	0.009930	0.037700	6
N	2.875320	-0.005090	1.454110	7
C	3.281180	-0.746310	-0.959770	6
C	3.298840	0.753660	-0.971650	6
N	4.496490	1.469160	-0.508960	7
H	0.681210	0.065670	-1.236550	1
H	0.520560	0.949560	0.289360	1
H	0.471610	-0.826160	0.277260	1
H	3.799010	-0.429600	1.534650	1
H	2.262830	-0.610650	2.001430	1
H	2.786400	-1.247040	-1.784880	1
H	4.172430	-1.263210	-0.624190	1
H	2.800360	1.225180	-1.816420	1
H	4.710430	1.159680	0.439500	1
H	4.266640	2.455430	-0.387640	1
Es	4.768337	1.427151	-0.731231	99
Es	3.408960	-0.014136	-1.104299	99
Es	1.690699	0.023946	-0.066323	99
Es	4.336764	2.057639	-0.429982	99
Es	0.624775	-0.548879	0.137675	99
Es	2.801822	-0.548601	-0.407303	99
Es	3.281138	-0.746175	-0.959726	99
Es	2.874950	0.318982	1.589914	99
Es	4.496054	1.469234	-0.508617	99
Es	0.659510	0.660916	0.141969	99
Es	2.939534	-1.083971	-1.519925	99
Es	2.797378	0.551012	-0.392799	99
Es	3.962316	1.157219	-0.689592	99
Es	2.953824	1.078866	-1.540947	99
Es	4.611738	1.275509	0.061035	99
Es	2.437613	0.009896	0.037736	99
Es	3.884659	-1.091195	-0.716225	99
Es	2.507064	-0.386123	1.761925	99
Es	3.430790	-0.272298	1.485827	99
Es	3.298921	0.753576	-0.971532	99
Es	2.695619	-0.023278	0.836853	99
Es	0.945687	0.052432	-0.173269	99
Es	2.875342	-0.005641	1.453866	99
Es	0.777711	0.060519	-0.897811	99
