41
Properties=species:S:1:pos:R:3:Z:I:1 energy=-250.24576728059736 field_type=dipole dipole="0.000000 0.000000 0.000000" charge=0
C	0.891360	-0.025300	0.089000	6
C	2.399140	0.001720	0.015610	6
N	2.889780	0.038040	-1.367790	7
C	3.156460	1.069630	0.844720	6
C	4.208620	-0.000730	1.201540	6
C	3.185560	-1.081740	0.793310	6
H	0.545300	-0.056800	1.128340	1
H	0.484050	-0.906180	-0.419600	1
H	0.453770	0.866110	-0.375180	1
H	3.903370	0.040290	-1.470080	1
H	2.554010	0.839930	-1.901980	1
H	2.599050	1.422600	1.721460	1
H	3.535350	1.945750	0.309690	1
H	5.101800	0.026350	0.566930	1
H	4.523050	-0.021580	2.248920	1
H	3.588530	-1.921490	0.217990	1
H	2.639560	-1.491410	1.652620	1
Es	2.775041	-0.246054	-1.534340	99
Es	0.891363	-0.025288	0.089003	99
Es	2.399204	0.001725	0.015490	99
Es	2.697103	0.054191	-0.769703	99
Es	4.427762	-0.014930	1.920309	99
Es	3.504525	0.062202	-1.398225	99
Es	3.156491	1.069596	0.844748	99
Es	0.618954	-0.623424	-0.255174	99
Es	0.600234	0.586887	-0.230054	99
Es	0.664760	-0.044610	0.800964	99
Es	3.737418	0.597632	1.055638	99
Es	2.890013	0.038569	-1.367511	99
Es	3.752795	-0.603194	1.028080	99
Es	2.722302	0.608975	0.419243	99
Es	4.208570	-0.000730	1.201512	99
Es	2.741186	-0.606663	0.375973	99
Es	4.815299	0.017919	0.757484	99
Es	1.634645	-0.009242	0.046571	99
Es	3.185575	-1.081690	0.793327	99
Es	2.772806	1.302937	1.450717	99
Es	3.411919	1.672638	0.469788	99
Es	2.807451	-1.349954	1.383403	99
Es	3.458355	-1.655188	0.395537	99
Es	2.692811	0.545282	-1.663102	99
