19
Properties=species:S:1:pos:R:3:Z:I:1 energy=-152.97271981920477 field_type=dipole dipole="0.000000 0.000000 0.000000" charge=0
C	0.993820	0.009340	-0.002210	6
C	2.489170	0.038210	-0.011280	6
O	3.139770	1.048030	-0.265970	8
H	0.652380	-1.013260	-0.192710	1
H	0.603070	0.661730	-0.785940	1
H	0.629860	0.331370	0.975850	1
H	2.987920	-0.888910	0.314450	1
Es	3.139528	1.047737	-0.265895	99
Es	2.489165	0.037925	-0.011241	99
Es	0.994231	0.009345	-0.002220	99
Es	3.306086	1.260130	-0.320828	99
Es	1.752923	0.024862	-0.016021	99
Es	2.818486	-0.605695	0.207415	99
Es	2.873254	0.626452	-0.192782	99
Es	0.767755	-0.676443	-0.124512	99
Es	0.773192	0.214405	0.635757	99
Es	0.731903	0.439776	-0.511418	99
Es	2.942266	0.747314	-0.161118	99
Es	3.080885	1.007649	-0.256719	99
