21
Properties=species:S:1:pos:R:3:Z:I:1 energy=-117.10166335333247 field_type=dipole dipole="0.000000 0.000000 0.000000" charge=0
C	-0.026670	0.866370	-0.056930	6
C	-0.735540	-0.458480	-0.057100	6
C	0.762830	-0.408160	0.042620	6
H	0.016420	1.420700	-0.987120	1
H	-0.106360	1.485880	0.829050	1
H	-1.172120	-0.801350	-0.987490	1
H	-1.295280	-0.736100	0.828540	1
H	1.217890	-0.651750	0.995630	1
H	1.340680	-0.717160	-0.820750	1
Es	0.762162	-0.407802	0.042562	99
Es	-0.026647	0.865611	-0.056901	99
Es	-0.734895	-0.458078	-0.057070	99
Es	0.544539	0.339053	0.000807	99
Es	-1.110531	-0.644228	0.539255	99
Es	1.149964	-0.615188	-0.538811	99
Es	1.067274	-0.571124	0.684099	99
Es	0.002442	1.237360	-0.683189	99
Es	-1.027649	-0.688224	-0.683482	99
Es	-0.080257	1.281242	0.539657	99
Es	0.020090	-0.641117	0.000705	99
Es	-0.563995	0.301811	-0.072900	99
