18
Properties=species:S:1:pos:R:3:Z:I:1 energy=-115.90932296110597 field_type=dipole dipole="0.000000 0.000000 0.000000" charge=0
C	1.000000	0.000000	0.000000	6
C	2.444000	0.000000	0.000000	6
C	3.634160	0.000000	0.000000	6
H	0.598380	1.018180	0.035300	1
H	0.619550	-0.508000	0.893100	1
H	0.563040	-0.497070	-0.870590	1
H	4.700540	-0.000000	-0.000000	1
Es	1.000371	0.000001	0.000017	99
Es	2.443640	-0.000001	-0.000005	99
Es	3.635336	-0.000002	-0.000018	99
Es	4.019135	0.000208	0.002244	99
Es	0.759768	0.680366	0.020359	99
Es	3.294456	-0.000246	-0.000097	99
Es	1.776957	-0.000661	-0.006474	99
Es	0.738208	-0.332508	-0.583532	99
Es	0.772150	-0.341251	0.594640	99
Es	3.054915	0.000045	0.002445	99
Es	3.059322	0.000208	-0.002182	99
