20
Properties=species:S:1:pos:R:3:Z:I:1 energy=-133.09092740379214 field_type=dipole dipole="0.000000 0.000000 0.000000" charge=0
C	-0.055920	0.882150	-0.065720	6
C	-0.764580	-0.443000	-0.065120	6
N	0.691920	-0.370160	-0.080600	7
H	-0.041440	1.453880	-0.985020	1
H	-0.025090	1.458090	0.849950	1
H	-1.232750	-0.773240	-0.984130	1
H	-1.226490	-0.787840	0.851090	1
H	1.078830	-0.576680	0.842460	1
Es	0.691962	-0.370182	-0.080509	99
Es	-0.763925	-0.442748	-0.065114	99
Es	-0.055766	0.881465	-0.065714	99
Es	-0.597292	0.319646	-0.063575	99
Es	0.888411	-0.475421	-0.397903	99
Es	-0.031933	1.269326	0.560558	99
Es	-1.077699	-0.672156	-0.688386	99
Es	-0.039316	1.269161	-0.689197	99
Es	-1.073264	-0.677496	0.561510	99
Es	0.459487	0.219530	-0.038444	99
Es	0.865263	-0.462632	0.476897	99
Es	0.072632	-0.504043	-0.038122	99
