23
Properties=species:S:1:pos:R:3:Z:I:1 energy=-134.3054896176333 field_type=dipole dipole="0.000000 0.000000 0.000000" charge=0
C	1.003950	0.005360	0.005080	6
C	2.522530	0.018720	0.012220	6
N	3.019010	1.388280	0.022740	7
H	0.635810	-1.025590	0.001510	1
H	0.606230	0.508110	-0.883090	1
H	0.599320	0.504840	0.891740	1
H	2.903270	-0.504330	-0.871300	1
H	2.892050	-0.507400	0.898210	1
H	2.702580	1.875140	-0.814970	1
H	4.037190	1.379250	-0.019610	1
Es	3.018706	1.388885	0.023540	99
Es	2.522370	0.019252	0.012228	99
Es	1.004331	0.005353	0.005068	99
Es	2.841018	0.830629	-0.029038	99
Es	0.739177	0.350908	-0.602396	99
Es	2.855336	1.628543	-0.491646	99
Es	3.605974	1.350395	-0.048513	99
Es	2.782173	-0.347801	-0.597896	99
Es	2.781640	-0.339176	0.612896	99
Es	0.729447	0.340191	0.603927	99
Es	0.759622	-0.700440	-0.001452	99
Es	1.756221	0.016680	0.012618	99
Es	2.889337	1.573286	0.350974	99
