19
Properties=species:S:1:pos:R:3:Z:I:1 energy=-152.92502856850334 field_type=dipole dipole="0.000000 0.000000 0.000000" charge=0
C	-0.083760	0.896500	-0.061110	6
C	-0.792660	-0.428540	-0.061430	6
O	0.635980	-0.340730	0.013300	8
H	-0.027320	1.451850	-0.988650	1
H	-0.125850	1.504070	0.833850	1
H	-1.223100	-0.783280	-0.989160	1
H	-1.321610	-0.731040	0.833300	1
Es	0.635575	-0.340513	0.013272	99
Es	-0.083427	0.895679	-0.061068	99
Es	-0.791792	-0.428361	-0.061388	99
Es	0.880117	-0.471352	0.030257	99
Es	-0.103715	1.304586	0.549915	99
Es	-1.143328	-0.638639	0.549439	99
Es	-1.076140	-0.674274	-0.693501	99
Es	0.407320	-0.218412	-0.002575	99
Es	0.137830	-0.074187	-0.021286	99
Es	-0.036515	1.268961	-0.693047	99
Es	0.586557	-0.314286	0.009861	99
Es	-0.642033	0.343029	-0.075417	99
