28
Properties=species:S:1:pos:R:3:Z:I:1 energy=-156.16415273615425 field_type=dipole dipole="0.000000 0.000000 0.000000" charge=0
C	0.925380	-0.122230	-0.101190	6
C	2.421930	0.039010	0.113080	6
C	2.827580	1.483660	0.082850	6
C	3.387900	2.127690	1.114250	6
H	0.653450	-1.182710	-0.088320	1
H	0.614810	0.293870	-1.066090	1
H	0.355770	0.382780	0.686810	1
H	2.962590	-0.494760	-0.676360	1
H	2.702320	-0.427210	1.064580	1
H	2.658080	2.023960	-0.846600	1
H	3.581770	1.631710	2.060310	1
H	3.665300	3.174170	1.031000	1
Es	2.827565	1.483759	0.082725	99
Es	2.421986	0.039446	0.113004	99
Es	3.387915	2.127691	1.113909	99
Es	0.925974	-0.122151	-0.101097	99
Es	2.782516	-0.317579	-0.418435	99
Es	3.157799	1.809838	0.630696	99
Es	0.719416	0.163892	-0.753551	99
Es	2.707291	1.846519	-0.557959	99
Es	3.563726	2.822490	1.042282	99
Es	3.515118	1.779254	1.737979	99
Es	0.542984	0.219101	0.427793	99
Es	0.740885	-0.849252	-0.094250	99
Es	1.686198	-0.022501	0.013955	99
Es	2.607587	-0.271474	0.748514	99
Es	2.632573	0.776686	0.110640	99
Es	3.082824	1.836315	0.633473	99
