24
Properties=species:S:1:pos:R:3:Z:I:1 energy=-170.95003817801347 field_type=dipole dipole="0.000000 0.000000 0.000000" charge=0
N	1.014680	-0.015170	0.018190	7
C	2.470000	0.000000	0.000000	6
C	2.952020	1.361170	0.000000	6
C	3.349300	2.483070	0.000000	6
H	0.691170	-0.976210	-0.074410	1
H	0.669540	0.485690	-0.799120	1
H	2.826590	-0.532030	-0.888360	1
H	2.844630	-0.539730	0.875600	1
H	3.697870	3.489080	0.006240	1
Es	1.014325	-0.014689	0.019041	99
Es	2.469728	0.000480	-0.000002	99
Es	2.951825	1.360317	-0.000046	99
Es	3.349554	2.484157	0.000131	99
Es	1.618214	-0.016438	-0.038884	99
Es	3.445664	2.785385	-0.021905	99
Es	2.735655	0.727959	0.010712	99
Es	3.240448	2.243706	-0.017198	99
Es	0.847202	0.239948	-0.479742	99
Es	2.725043	-0.335003	-0.601656	99
Es	0.862521	-0.580364	-0.080444	99
Es	2.725773	-0.343442	0.579487	99
Es	0.887782	0.150842	0.353402	99
Es	3.185524	1.909737	0.003842	99
Es	3.151284	1.945350	0.020955	99
