28
Properties=species:S:1:pos:R:3:Z:I:1 energy=-156.15077722315434 field_type=dipole dipole="0.000000 0.000000 0.000000" charge=0
C	1.023610	0.012930	-0.075360	6
C	2.510840	-0.045760	0.002370	6
C	3.296290	-0.734340	-1.080970	6
C	3.355610	0.762940	-0.945110	6
H	0.641860	0.787150	0.598340	1
H	0.592060	-0.945480	0.229400	1
H	0.671040	0.239650	-1.086800	1
H	2.856580	-0.159490	1.023310	1
H	2.763400	-1.147160	-1.928940	1
H	4.170210	-1.305440	-0.786790	1
H	4.268830	1.202800	-0.560930	1
H	2.863660	1.359210	-1.705570	1
Es	2.511119	-0.045763	0.002164	99
Es	3.355497	0.762288	-0.944842	99
Es	3.296161	-0.733702	-1.080613	99
Es	1.024076	0.012927	-0.075398	99
Es	3.437559	0.022624	-1.155143	99
Es	0.766169	0.538822	0.380978	99
Es	3.967696	1.063345	-0.686116	99
Es	2.748576	-0.121340	0.678688	99
Es	3.882095	-1.123705	-0.883013	99
Es	2.935394	-1.005061	-1.640216	99
Es	0.732303	-0.636306	0.131392	99
Es	0.785683	0.164181	-0.758433	99
Es	3.020514	1.156749	-1.448633	99
Es	1.798432	-0.015498	-0.055218	99
Es	2.877568	0.563210	-0.386256	99
Es	2.837438	-0.598718	-0.498256	99
