29
Properties=species:S:1:pos:R:3:Z:I:1 energy=-193.18083544153038 field_type=dipole dipole="0.000000 0.000000 0.000000" charge=0
C	0.965540	-0.097900	-0.001570	6
C	2.479920	-0.033100	-0.011600	6
O	2.873470	1.336220	0.027170	8
C	4.287940	1.475050	0.019440	6
H	0.618820	-1.134730	-0.031270	1
H	0.550770	0.438430	-0.861510	1
H	0.564680	0.383540	0.897260	1
H	2.866070	-0.503520	-0.922160	1
H	2.880590	-0.558170	0.862240	1
H	4.529930	2.540750	0.049970	1
H	4.710040	1.046840	-0.894990	1
H	4.725170	0.991970	0.898700	1
Es	2.873727	1.335844	0.027156	99
Es	2.479679	-0.032777	-0.011588	99
Es	4.287591	1.475054	0.019443	99
Es	0.965933	-0.097887	-0.001573	99
Es	2.659508	1.582330	0.036554	99
Es	1.723149	-0.064183	-0.006490	99
Es	4.456090	2.204293	0.040304	99
Es	0.739565	-0.807608	-0.021977	99
Es	2.753972	-0.358421	-0.636601	99
Es	3.417017	1.340370	0.022690	99
Es	4.586033	1.132911	0.618208	99
Es	4.575707	1.170286	-0.604076	99
Es	0.686647	0.257276	-0.583800	99
Es	2.763904	-0.395941	0.587872	99
Es	0.696066	0.220089	0.606395	99
Es	2.767875	0.825415	0.012350	99
Es	2.894673	1.309310	0.026160	99
