26
Properties=species:S:1:pos:R:3:Z:I:1 energy=-191.98979465291447 field_type=dipole dipole="0.000000 0.000000 0.000000" charge=0
C	1.004830	-0.122270	0.050170	6
O	2.413170	-0.020520	-0.138870	8
C	2.843850	1.276610	-0.162630	6
C	4.065810	1.596680	-0.589440	6
H	0.733650	-1.181580	0.021900	1
H	0.465790	0.392820	-0.752360	1
H	0.713830	0.280940	1.026120	1
H	2.142370	2.016770	0.199250	1
H	4.749650	0.829780	-0.937740	1
H	4.403830	2.626460	-0.596940	1
Es	2.412922	-0.020144	-0.138978	99
Es	2.843395	1.276468	-0.162474	99
Es	1.005246	-0.122197	0.050115	99
Es	4.065991	1.596473	-0.589311	99
Es	1.890925	-0.003691	-0.064914	99
Es	3.402584	1.441830	-0.516947	99
Es	0.818430	-0.842648	0.027255	99
Es	2.353373	1.774121	0.076276	99
Es	2.541701	0.482818	-0.146200	99
Es	0.810990	0.164564	0.714439	99
Es	0.642420	0.242711	-0.491026	99
Es	4.277072	2.293198	-0.566876	99
Es	4.528094	1.075816	-0.828792	99
Es	2.613489	-0.276373	-0.138774	99
Es	2.409873	0.041972	-0.173478	99
Es	3.561090	1.471356	-0.266220	99
