26
Properties=species:S:1:pos:R:3:Z:I:1 energy=-191.98334446723874 field_type=dipole dipole="0.000000 0.000000 0.000000" charge=0
O	1.024750	0.011320	-0.142280	8
C	2.444600	-0.034510	0.035770	6
C	3.199460	-0.744960	-1.048220	6
C	3.249200	0.752960	-0.955020	6
H	0.620060	0.681630	0.435010	1
H	2.828020	-0.123930	1.047170	1
H	2.628980	-1.187100	-1.856570	1
H	4.081580	-1.305550	-0.765010	1
H	4.171420	1.209350	-0.613370	1
H	2.721190	1.322780	-1.710200	1
Es	1.024858	0.011771	-0.142007	99
Es	2.444526	-0.034459	0.035147	99
Es	3.199378	-0.744398	-1.047805	99
Es	3.249040	0.752343	-0.954740	99
Es	1.532158	0.016471	-0.034302	99
Es	2.762647	-0.576024	-0.444452	99
Es	2.893896	1.131719	-1.448543	99
Es	2.693172	-0.087721	0.726188	99
Es	0.862779	0.371162	0.158847	99
Es	3.791540	-1.120771	-0.852651	99
Es	0.874299	-0.182438	-0.339485	99
Es	2.816362	-1.036190	-1.579936	99
Es	3.871946	1.059578	-0.721885	99
Es	1.049476	0.039641	-0.132490	99
Es	3.340211	0.010447	-1.157263	99
Es	2.807939	0.550259	-0.372677	99
