20
Properties=species:S:1:pos:R:3:Z:I:1 energy=-189.6104833291073 field_type=dipole dipole="0.000000 0.000000 0.000000" charge=0
O	0.956220	-0.017480	0.000000	8
C	2.178670	-0.016350	0.000000	6
C	2.919300	1.221050	0.000000	6
C	3.535320	2.252140	0.000000	6
H	2.784750	-0.935790	0.000000	1
H	4.071560	3.173120	0.000000	1
Es	0.956715	-0.017529	0.000000	99
Es	2.178936	-0.016338	0.000000	99
Es	3.536446	2.254439	-0.000000	99
Es	2.919104	1.220757	0.000000	99
Es	1.460092	0.009347	0.000000	99
Es	3.739849	2.538600	0.000000	99
Es	2.609715	-0.602534	0.000000	99
Es	3.387377	1.992709	0.000000	99
Es	2.555374	0.611352	-0.000000	99
Es	0.692218	-0.010623	-0.000000	99
Es	1.360791	-0.003361	-0.000000	99
Es	1.028138	-0.028423	0.000000	99
Es	3.219339	1.763835	0.000000	99
Es	3.176050	1.639316	-0.000000	99
