26
Properties=species:S:1:pos:R:3:Z:I:1 energy=-191.99776960110393 field_type=dipole dipole="0.000000 0.000000 0.000000" charge=0
O	0.988160	-0.071040	-0.301560	8
C	2.351230	-0.030470	0.086460	6
C	2.787880	1.394410	0.053990	6
C	3.340850	2.047660	1.084440	6
H	0.707030	-0.998310	-0.234500	1
H	2.937510	-0.620640	-0.624230	1
H	2.448870	-0.469920	1.084220	1
H	2.629350	1.922930	-0.883110	1
H	3.509980	1.566470	2.042420	1
H	3.626680	3.090590	0.988300	1
Es	0.988109	-0.071408	-0.301688	99
Es	2.351097	-0.029977	0.086323	99
Es	2.787865	1.394436	0.053911	99
Es	3.340847	2.047800	1.084083	99
Es	1.475160	-0.083012	-0.151707	99
Es	3.456555	1.713304	1.725819	99
Es	2.422440	-0.330723	0.755182	99
Es	3.110963	1.720205	0.597098	99
Es	0.880220	-0.564665	-0.255568	99
Es	2.754819	-0.433634	-0.389352	99
Es	3.520120	2.737933	0.999864	99
Es	2.584765	0.688924	0.093080	99
Es	0.807557	0.184496	-0.351198	99
Es	2.683205	1.744058	-0.588796	99
Es	1.020739	-0.101209	-0.335146	99
Es	3.046613	1.730066	0.589592	99
