25
Properties=species:S:1:pos:R:3:Z:I:1 energy=-208.062029355542 field_type=dipole dipole="0.000000 0.000000 0.000000" charge=0
C	1.016550	-0.022010	-0.005930	6
C	2.516470	0.034920	-0.001750	6
N	3.129950	-1.181650	0.002920	7
O	3.159110	1.076420	-0.003960	8
H	0.610920	0.993700	0.007770	1
H	0.662240	-0.555300	0.880490	1
H	0.667270	-0.530300	-0.908820	1
H	2.625250	-2.056070	0.001220	1
H	4.141480	-1.198520	0.004250	1
Es	3.159182	1.076094	-0.003960	99
Es	3.129953	-1.181664	0.002924	99
Es	2.516389	0.034734	-0.001749	99
Es	1.016925	-0.022108	-0.005928	99
Es	2.909067	0.625983	-0.002625	99
Es	2.824054	-1.699333	0.001131	99
Es	1.777110	-0.001279	-0.003483	99
Es	2.849336	-0.652798	-0.000082	99
Es	3.726426	-1.198626	0.002835	99
Es	0.791463	-0.383728	0.572372	99
Es	0.795275	-0.366786	-0.594804	99
Es	3.250447	1.337503	-0.004254	99
Es	0.739816	0.640005	0.002954	99
Es	2.999047	0.830407	-0.004104	99
Es	3.164231	0.993083	-0.003720	99
Es	3.071558	-1.085683	0.006173	99
