25
Properties=species:S:1:pos:R:3:Z:I:1 energy=-207.94650002588386 field_type=dipole dipole="0.000000 0.000000 0.000000" charge=0
C	0.955340	-0.345970	0.030090	6
O	2.329630	-0.066670	-0.210670	8
N	2.484450	1.322280	-0.331920	7
C	3.728580	1.578840	-0.550120	6
H	0.834030	-1.428190	0.124620	1
H	0.344840	0.005860	-0.807200	1
H	0.629700	0.128380	0.960940	1
H	4.061080	2.620600	-0.675880	1
H	4.501040	0.794230	-0.620130	1
Es	2.329245	-0.066397	-0.210627	99
Es	2.484423	1.322147	-0.331906	99
Es	3.729126	1.578859	-0.550209	99
Es	0.955725	-0.345827	0.030018	99
Es	2.589293	-0.254981	-0.239434	99
Es	3.079950	1.410260	-0.433973	99
Es	0.880258	-1.083743	0.093308	99
Es	4.238758	1.048456	-0.595518	99
Es	2.397730	0.525698	-0.262715	99
Es	3.924708	2.277442	-0.630135	99
Es	2.319296	-0.028204	-0.211681	99
Es	1.801517	-0.129320	-0.121250	99
Es	0.538933	-0.103181	-0.539458	99
Es	0.732684	-0.019845	0.663168	99
Es	2.159250	1.540115	-0.294639	99
Es	3.027639	1.449038	-0.428186	99
