27
Properties=species:S:1:pos:R:3:Z:I:1 energy=-228.6702076130448 field_type=dipole dipole="0.000000 0.000000 0.000000" charge=0
C	0.991760	-0.003400	-0.005880	6
C	2.490880	-0.055360	0.001670	6
O	3.128080	-1.101280	0.006470	8
C	3.189940	1.210750	0.000400	6
C	3.777250	2.259680	-0.000540	6
H	0.629670	1.028610	0.007200	1
H	0.610140	-0.518700	0.879620	1
H	0.619910	-0.493720	-0.909480	1
H	4.306780	3.184010	-0.000880	1
Es	3.127859	-1.100787	0.006468	99
Es	2.490889	-0.055223	0.001671	99
Es	3.779056	2.262690	-0.000546	99
Es	3.189851	1.210566	0.000401	99
Es	0.992306	-0.003362	-0.005877	99
Es	3.287113	-1.294791	0.007473	99
Es	3.932969	2.591731	-0.000210	99
Es	1.772146	0.026339	-0.001393	99
Es	2.835345	0.590027	0.000710	99
Es	3.614213	1.954450	0.000580	99
Es	2.907527	-0.651123	0.005560	99
Es	0.760228	0.682800	0.002351	99
Es	0.760775	-0.324014	-0.599816	99
Es	0.753092	-0.340858	0.576387	99
Es	2.943258	-0.766874	0.004164	99
Es	3.055328	-1.066136	0.006080	99
Es	3.505761	1.762417	-0.000085	99
Es	3.424426	1.644118	-0.001196	99
