33
Properties=species:S:1:pos:R:3:Z:I:1 energy=-231.0485480238838 field_type=dipole dipole="0.000000 0.000000 0.000000" charge=0
C	0.890680	-0.124920	-0.082780	6
C	2.392180	0.059230	0.087060	6
O	3.068830	-0.717760	-0.893590	8
C	2.798340	1.493790	-0.083620	6
C	3.440420	2.211500	0.848380	6
H	0.329720	0.445830	0.664310	1
H	0.624620	-1.183240	0.015630	1
H	0.560870	0.187490	-1.080540	1
H	2.692750	-0.321580	1.069130	1
H	2.900280	-0.313330	-1.760250	1
H	2.549280	1.973960	-1.026930	1
H	3.719530	1.782670	1.806090	1
H	3.710040	3.247100	0.665550	1
Es	3.068585	-0.717457	-0.893895	99
Es	2.392362	0.059324	0.086722	99
Es	2.798377	1.493985	-0.083666	99
Es	3.440132	2.211248	0.847658	99
Es	0.891235	-0.124830	-0.082703	99
Es	3.270243	-0.949018	-0.827616	99
Es	3.161734	1.892852	0.455250	99
Es	0.681343	0.098412	-0.765024	99
Es	2.602991	0.806259	0.017549	99
Es	2.620126	1.794621	-0.740892	99
Es	2.958231	-0.479499	-1.318478	99
Es	3.594869	1.904491	1.438554	99
Es	2.823791	-0.407889	-0.573423	99
Es	3.010610	-0.715602	-0.902340	99
Es	0.716373	-0.845051	-0.012089	99
Es	3.607750	2.878412	0.715266	99
Es	0.515338	0.266307	0.421958	99
Es	2.596119	-0.195686	0.746542	99
Es	1.633399	-0.012893	0.006701	99
Es	3.112100	1.863757	0.393322	99
