30
Properties=species:S:1:pos:R:3:Z:I:1 energy=-229.8389072800257 field_type=dipole dipole="0.000000 0.000000 0.000000" charge=0
C	1.000610	-0.058770	-0.000780	6
C	2.520000	0.000000	0.000000	6
O	3.002370	-0.678520	-1.155930	8
C	3.002020	1.361170	0.000000	6
C	3.399300	2.483070	0.000000	6
H	0.578000	0.430960	0.883720	1
H	0.657220	-1.099660	-0.020740	1
H	0.583260	0.425910	-0.892340	1
H	2.899500	-0.539420	0.873880	1
H	2.796810	-0.114010	-1.920440	1
H	3.760760	3.485720	0.001640	1
Es	3.002209	-0.678113	-1.156162	99
Es	2.520222	0.000201	-0.000304	99
Es	3.001691	1.360642	0.000090	99
Es	3.399977	2.484363	-0.000007	99
Es	1.001459	-0.058677	-0.000747	99
Es	3.144424	-0.953337	-1.148654	99
Es	1.773123	-0.003226	0.002114	99
Es	3.446795	2.776986	-0.020503	99
Es	0.733608	0.275896	-0.603134	99
Es	2.780753	-0.340309	0.584883	99
Es	3.281510	2.271359	-0.029277	99
Es	2.824618	-0.385417	-0.764216	99
Es	2.783777	0.733202	0.006050	99
Es	0.773870	-0.763531	-0.008783	99
Es	0.724386	0.276232	0.595714	99
Es	2.877608	-0.366297	-1.518209	99
Es	2.984094	-0.647706	-1.154057	99
Es	3.186764	1.915129	0.025493	99
Es	3.283904	1.912115	0.010338	99
