32
Properties=species:S:1:pos:R:3:Z:I:1 energy=-194.0433632910232 field_type=dipole dipole="0.000000 0.000000 0.000000" charge=0
C	-1.268280	-0.000090	-0.129960	6
C	-0.382420	-1.223390	0.104370	6
C	0.993830	-0.669210	-0.051750	6
C	0.994360	0.667570	-0.044550	6
C	-0.383140	1.219990	0.116860	6
H	-1.622800	0.005340	-1.169060	1
H	-2.155240	-0.003590	0.512160	1
H	-0.592180	-2.008580	-0.627990	1
H	-0.516290	-1.630950	1.111640	1
H	1.880550	-1.283920	-0.127560	1
H	1.880850	1.283600	-0.114320	1
H	-0.516310	1.617380	1.129000	1
H	-0.592160	2.012920	-0.607020	1
Es	0.994528	0.667783	-0.044560	99
Es	-0.382792	1.219375	0.116678	99
Es	-0.382073	-1.222772	0.104193	99
Es	0.993995	-0.669417	-0.051761	99
Es	-1.267517	-0.000093	-0.129410	99
Es	1.531413	-1.096936	-0.102117	99
Es	-0.833335	-0.646494	-0.000884	99
Es	1.531826	1.095893	-0.090247	99
Es	0.404376	0.934370	0.025118	99
Es	-0.527295	-1.753354	-0.381769	99
Es	0.404563	-0.936694	0.015517	99
Es	-0.472906	1.479382	0.789736	99
Es	-0.472515	-1.489582	0.774054	99
Es	-0.527658	1.755161	-0.363599	99
Es	0.974657	0.000084	-0.227643	99
Es	-1.507403	0.003598	-0.839208	99
Es	-1.872435	-0.002477	0.308678	99
Es	-0.833777	0.644576	0.005747	99
Es	1.011419	-0.001632	0.121223	99
