33
Properties=species:S:1:pos:R:3:Z:I:1 energy=-231.04527708856517 field_type=dipole dipole="0.000000 0.000000 0.000000" charge=0
C	0.957780	-1.093720	-0.017150	6
C	2.063170	-0.054290	0.020190	6
O	1.457040	1.234950	0.119020	8
C	2.289880	2.314370	0.169420	6
C	3.626290	2.354200	0.141720	6
H	1.373340	-2.102230	-0.095460	1
H	0.291880	-0.918280	-0.868660	1
H	0.341910	-1.034300	0.886540	1
H	2.655940	-0.123100	-0.898760	1
H	2.703150	-0.238450	0.890810	1
H	1.694070	3.219390	0.241300	1
H	4.243250	1.466530	0.070850	1
H	4.140670	3.308160	0.191530	1
Es	1.457566	1.234908	0.119004	99
Es	2.289570	2.314162	0.169414	99
Es	2.062682	-0.054222	0.020208	99
Es	0.958083	-1.093370	-0.017135	99
Es	3.626360	2.354104	0.141712	99
Es	1.126165	1.257288	0.128626	99
Es	1.509651	-0.568321	0.001757	99
Es	3.961635	3.001687	0.175905	99
Es	2.506726	-0.171723	0.614455	99
Es	1.717043	0.799274	0.084382	99
Es	1.833925	1.610439	0.134429	99
Es	0.547614	-1.056854	0.593919	99
Es	2.973648	2.299309	0.153172	99
Es	1.250741	-1.772300	-0.070212	99
Es	1.527701	1.268361	0.119299	99
Es	0.513780	-0.978433	-0.593710	99
Es	4.019162	1.748232	0.093842	99
Es	1.881966	2.925914	0.218089	99
Es	2.474632	-0.093050	-0.606376	99
Es	3.066152	2.357424	0.154325	99
