33
Properties=species:S:1:pos:R:3:Z:I:1 energy=-231.034461735254 field_type=dipole dipole="0.000000 0.000000 0.000000" charge=0
C	2.233270	-0.842310	-0.247470	6
O	3.454980	-0.118750	-0.218030	8
C	3.240620	1.258190	0.073820	6
C	4.576600	1.929440	0.075820	6
C	4.901800	2.987600	-0.678250	6
H	2.457380	-1.888400	-0.474190	1
H	1.573410	-0.450170	-1.027680	1
H	1.735610	-0.794880	0.725990	1
H	2.782910	1.358350	1.064570	1
H	2.571950	1.698130	-0.675630	1
H	5.322780	1.503960	0.741600	1
H	4.193340	3.439830	-1.365340	1
H	5.897510	3.416870	-0.628500	1
Es	3.454592	-0.118520	-0.217942	99
Es	3.241148	1.258268	0.073807	99
Es	2.233606	-0.842201	-0.247493	99
Es	4.576739	1.929403	0.075923	99
Es	4.901967	2.987446	-0.677871	99
Es	3.748978	-0.241692	-0.288002	99
Es	5.070183	1.632327	0.536443	99
Es	3.339978	0.385008	-0.110519	99
Es	1.888990	-0.799458	0.418807	99
Es	4.412905	3.284267	-1.123506	99
Es	2.785935	1.550812	-0.424140	99
Es	1.777783	-0.562233	-0.775263	99
Es	3.915886	1.624283	0.057653	99
Es	4.721272	2.527721	-0.296831	99
Es	5.563078	3.257393	-0.629060	99
Es	2.924514	1.326390	0.740869	99
Es	2.384559	-1.557606	-0.403296	99
Es	2.963869	-0.350853	-0.215302	99
Es	3.427653	-0.104191	-0.195758	99
Es	4.753255	2.439527	-0.347383	99
