30
Properties=species:S:1:pos:R:3:Z:I:1 energy=-229.82213588782557 field_type=dipole dipole="0.000000 0.000000 0.000000" charge=0
C	1.001800	-0.063780	0.029990	6
O	2.421090	-0.008220	0.028890	8
C	2.894010	1.338550	0.000000	6
C	4.338010	1.338550	0.000000	6
C	5.528170	1.338550	0.000000	6
H	0.699990	-1.113360	0.052710	1
H	0.599310	0.396030	-0.876720	1
H	0.599300	0.434660	0.916580	1
H	2.514430	1.874340	0.877410	1
H	2.514430	1.836190	-0.899590	1
H	6.593500	1.327380	0.000240	1
Es	2.420883	-0.007838	0.028881	99
Es	2.894560	1.338255	0.000006	99
Es	1.002207	-0.063832	0.029991	99
Es	4.337026	1.338642	-0.000002	99
Es	5.529528	1.338390	0.000003	99
Es	2.619323	-0.264694	0.034478	99
Es	3.666516	1.331264	0.000156	99
Es	2.655715	1.701812	0.590457	99
Es	0.730741	0.263666	-0.587983	99
Es	5.832285	1.359042	-0.000438	99
Es	2.655718	1.676140	-0.605501	99
Es	5.272448	1.329372	0.000193	99
Es	2.571680	0.509105	0.017791	99
Es	0.730731	0.289961	0.633584	99
Es	0.797743	-0.778330	0.045429	99
Es	1.879656	0.025558	0.028124	99
Es	2.400943	0.021213	0.028191	99
Es	4.915791	1.343591	-0.000108	99
Es	4.957701	1.338987	-0.000007	99
