33
Properties=species:S:1:pos:R:3:Z:I:1 energy=-231.03597932749096 field_type=dipole dipole="0.000000 0.000000 0.000000" charge=0
O	0.937080	0.006060	0.025260	8
C	2.373700	0.019470	0.008460	6
C	3.050340	1.057730	0.935150	6
C	4.121370	-0.005860	1.238230	6
C	3.076370	-1.070210	0.852030	6
H	0.688250	-0.786390	-0.481770	1
H	2.747760	0.067630	-1.022420	1
H	2.445500	1.342820	1.803710	1
H	3.416470	1.963030	0.443770	1
H	4.982630	0.030760	0.561440	1
H	4.478570	-0.041800	2.270110	1
H	3.465090	-1.924960	0.292480	1
H	2.480250	-1.436780	1.695560	1
Es	0.937283	0.005652	0.024942	99
Es	2.373379	0.019477	0.008913	99
Es	4.120743	-0.005864	1.238111	99
Es	3.050436	1.057183	0.934755	99
Es	3.076539	-1.069686	0.851643	99
Es	0.764057	0.208135	0.181649	99
Es	4.699710	0.018063	0.777882	99
Es	2.674755	-1.305697	1.416757	99
Es	2.634068	0.046323	-0.696544	99
Es	2.647288	1.235510	1.515827	99
Es	0.845266	-0.414185	-0.236134	99
Es	3.657453	-0.606268	1.077994	99
Es	4.366195	-0.029933	1.939832	99
Es	0.958425	-0.010002	-0.000727	99
Es	3.338845	-1.662265	0.467309	99
Es	1.435742	-0.009078	-0.010643	99
Es	3.299367	1.679800	0.600811	99
Es	3.640370	0.588372	1.120855	99
Es	2.647072	0.612437	0.440219	99
Es	2.671384	-0.604590	0.395212	99
