30
Properties=species:S:1:pos:R:3:Z:I:1 energy=-229.86242781733 field_type=dipole dipole="0.000000 0.000000 0.000000" charge=0
O	2.315440	-0.968780	-0.293040	8
C	2.077560	0.195580	0.000860	6
C	3.161820	1.200440	0.057110	6
C	3.524700	1.976030	-1.184530	6
C	2.851460	2.673600	-0.037440	6
H	1.059500	0.541910	0.245160	1
H	3.985170	0.911560	0.702870	1
H	2.950930	1.801450	-2.088290	1
H	4.575230	2.178070	-1.362620	1
H	3.446530	3.355530	0.560250	1
H	1.823050	2.988530	-0.172930	1
Es	2.315614	-0.968340	-0.292988	99
Es	2.077501	0.195789	0.000882	99
Es	3.161549	1.200764	0.056775	99
Es	3.524347	1.975975	-1.183685	99
Es	2.851866	2.673086	-0.037661	99
Es	2.317554	-1.237818	-0.339788	99
Es	3.191615	2.484931	-0.707738	99
Es	1.395451	0.453747	0.160915	99
Es	3.136972	1.857244	-1.772093	99
Es	2.908319	1.942637	0.204928	99
Es	4.228378	2.106838	-1.305761	99
Es	2.601940	0.704786	0.031684	99
Es	2.223888	-0.494170	-0.175997	99
Es	3.704847	1.007957	0.476351	99
Es	3.245204	3.129633	0.366473	99
Es	2.239212	-0.610227	-0.208177	99
Es	2.160010	2.868040	-0.127843	99
Es	3.387649	1.400507	-0.638520	99
Es	2.355192	-0.895035	-0.283532	99
