33
Properties=species:S:1:pos:R:3:Z:I:1 energy=-231.04755406625944 field_type=dipole dipole="0.000000 0.000000 0.000000" charge=0
O	2.735140	-0.958800	-1.195250	8
C	2.402450	-0.280510	0.012350	6
C	3.019840	1.117540	0.022530	6
C	4.518850	1.071340	0.149790	6
C	5.212240	1.623390	1.153550	6
H	2.368900	-1.856770	-1.125340	1
H	2.752370	-0.876950	0.861630	1
H	1.311600	-0.204200	0.063270	1
H	2.586170	1.693890	0.848090	1
H	2.774340	1.637460	-0.910960	1
H	5.053040	0.554540	-0.646410	1
H	4.723030	2.152710	1.964800	1
H	6.295660	1.556060	1.178740	1
Es	2.734938	-0.959157	-1.195147	99
Es	2.402788	-0.280215	0.011984	99
Es	4.518877	1.071323	0.149769	99
Es	3.020301	1.117456	0.022527	99
Es	5.212222	1.623277	1.153172	99
Es	2.869185	-0.816689	-1.446231	99
Es	3.781978	1.099751	0.100347	99
Es	5.925683	1.569375	1.156477	99
Es	2.636640	-0.684658	0.592329	99
Es	4.878226	0.722338	-0.394018	99
Es	2.533207	-1.419552	-1.119746	99
Es	1.647193	-0.226095	0.055368	99
Es	4.880848	1.384558	0.697590	99
Es	2.611536	-0.745875	-0.754899	99
Es	4.866706	1.966725	1.680034	99
Es	2.853192	1.451499	-0.595752	99
Es	2.740162	0.429235	0.026481	99
Es	2.719416	1.495012	0.575131	99
Es	2.740143	-0.978075	-1.160879	99
Es	4.883766	1.345873	0.684172	99
