26
Properties=species:S:1:pos:R:3:Z:I:1 energy=-244.71796064218756 field_type=dipole dipole="0.000000 0.000000 0.000000" charge=0
O	-0.364120	-1.098740	-0.004060	8
C	-1.148760	0.015440	-0.002100	6
C	-0.324340	1.112570	0.000780	6
N	0.987070	0.710850	0.000690	7
C	0.903710	-0.600350	-0.002210	6
H	-2.216100	-0.143630	-0.003090	1
H	-0.600860	2.158180	0.002890	1
H	1.708060	-1.322440	-0.003300	1
Es	-0.364095	-1.098283	-0.004059	99
Es	0.987371	0.711095	0.000691	99
Es	0.904219	-0.601142	-0.002211	99
Es	-1.148579	0.015104	-0.002101	99
Es	-0.324224	1.112632	0.000780	99
Es	-0.462920	-1.414897	-0.004808	99
Es	0.920960	0.078715	-0.000721	99
Es	-0.766934	0.561668	-0.000681	99
Es	-1.840852	-0.073780	-0.002710	99
Es	1.414384	-1.048765	-0.002880	99
Es	-0.511757	1.800353	0.002165	99
Es	-0.287828	-0.970808	-0.003738	99
Es	0.117764	-0.885954	-0.003305	99
Es	0.391697	0.868308	0.000676	99
Es	-0.641109	-0.668530	-0.003287	99
Es	1.304295	0.933731	0.001365	99
Es	0.876361	0.245550	-0.000390	99
Es	-0.702690	0.535449	-0.000703	99
