32
Properties=species:S:1:pos:R:3:Z:I:1 energy=-247.02056951311684 field_type=dipole dipole="0.000000 0.000000 0.000000" charge=0
C	1.002620	0.008060	-0.004780	6
C	2.508470	0.031310	-0.002030	6
C	3.226920	-1.295360	-0.006150	6
N	3.109280	1.183930	0.000760	7
O	4.500100	1.031600	0.000500	8
H	0.598790	1.024210	0.003720	1
H	0.647710	-0.525290	0.881280	1
H	0.651120	-0.509180	-0.901680	1
H	2.507180	-2.118400	0.003290	1
H	3.860850	-1.374240	0.881320	1
H	3.842030	-1.377590	-0.906450	1
H	4.810440	1.956280	0.002880	1
Es	4.500071	1.032146	0.000502	99
Es	3.109236	1.184445	0.000761	99
Es	2.508469	0.031351	-0.002029	99
Es	1.002861	0.007946	-0.004782	99
Es	3.226948	-1.294882	-0.006147	99
Es	4.643447	0.752019	-0.000622	99
Es	2.887663	0.651436	-0.000292	99
Es	1.766599	0.043075	-0.003013	99
Es	2.866964	-0.619197	-0.003880	99
Es	2.953845	1.543368	0.001789	99
Es	4.626340	1.519092	0.001727	99
Es	3.639472	-1.345032	0.575451	99
Es	3.626661	-1.346863	-0.596070	99
Es	2.740287	-1.844653	0.000005	99
Es	0.779454	-0.345313	-0.603928	99
Es	4.465459	1.047047	0.000936	99
Es	0.776924	-0.356097	0.587416	99
Es	0.724973	0.677962	0.000589	99
Es	3.928320	1.079763	0.000644	99
Es	2.857608	0.733538	-0.000525	99
