32
Properties=species:S:1:pos:R:3:Z:I:1 energy=-247.1081002639489 field_type=dipole dipole="0.000000 0.000000 0.000000" charge=0
C	1.008330	-0.112730	-0.086740	6
C	2.511980	0.014550	0.073540	6
C	2.963190	1.454290	0.004810	6
N	2.828210	2.052440	-1.211770	7
O	3.427470	2.062350	0.961760	8
H	0.700740	-1.156860	0.026350	1
H	0.680580	0.231690	-1.073050	1
H	0.482660	0.484300	0.665740	1
H	3.030210	-0.556870	-0.704080	1
H	2.820270	-0.396710	1.041150	1
H	2.511750	1.563800	-2.036530	1
H	3.141820	3.010170	-1.300070	1
Es	3.530887	2.171560	1.185725	99
Es	2.828149	2.052453	-1.211781	99
Es	2.963099	1.454152	0.004649	99
Es	2.512021	0.014920	0.073385	99
Es	1.008948	-0.112624	-0.086675	99
Es	3.307011	1.914578	0.739698	99
Es	2.650118	1.754391	-1.701673	99
Es	1.785799	-0.025359	-0.009132	99
Es	2.746619	0.744193	0.028640	99
Es	2.892328	1.773262	-0.691452	99
Es	3.021951	2.614217	-1.269873	99
Es	2.845966	-0.356783	-0.455804	99
Es	3.237756	1.834421	0.551047	99
Es	0.793459	0.123604	-0.753257	99
Es	3.400881	2.036363	0.900007	99
Es	0.800751	-0.824142	-0.014040	99
Es	2.713645	-0.265013	0.705501	99
Es	0.658376	0.287335	0.414341	99
Es	3.427377	2.062362	0.961384	99
Es	2.780686	2.013436	-1.102543	99
