29
Properties=species:S:1:pos:R:3:Z:I:1 energy=-192.8003612962265 field_type=dipole dipole="0.000000 0.000000 0.000000" charge=0
C	1.017450	0.035620	-0.105840	6
C	2.216140	0.009190	-0.046780	6
C	3.647140	-0.027240	0.029690	6
C	4.409400	-0.752320	-1.047650	6
C	4.448330	0.746830	-0.983810	6
H	-0.046540	0.057250	-0.157490	1
H	4.056540	-0.079470	1.034490	1
H	3.857350	-1.210620	-1.860770	1
H	5.298540	-1.298600	-0.755160	1
H	5.364930	1.218270	-0.648810	1
H	3.922570	1.301180	-1.753350	1
Es	3.646938	-0.027227	0.029443	99
Es	4.447845	0.746025	-0.983352	99
Es	4.408963	-0.751533	-1.047122	99
Es	2.216214	0.009186	-0.046791	99
Es	1.014818	0.035707	-0.106439	99
Es	4.527395	0.000894	-1.158805	99
Es	0.663763	0.041819	-0.127678	99
Es	2.923890	-0.006592	-0.037060	99
Es	5.000433	-1.121794	-0.847919	99
Es	3.892242	-0.061898	0.704642	99
Es	1.343696	0.028254	-0.099382	99
Es	3.946685	0.537566	-0.393262	99
Es	4.089847	1.106160	-1.485149	99
Es	4.033659	-1.048364	-1.576987	99
Es	3.918800	-0.568525	-0.439972	99
Es	5.057761	1.066242	-0.754902	99
Es	1.629391	0.021413	-0.062988	99
Es	1.583372	0.024922	-0.077437	99
