32
Properties=species:S:1:pos:R:3:Z:I:1 energy=-246.99940580293372 field_type=dipole dipole="0.000000 0.000000 0.000000" charge=0
C	0.918800	-0.213920	-0.245940	6
C	2.419790	-0.015930	-0.182210	6
O	2.683210	1.338610	0.182310	8
N	4.072810	1.517560	0.248670	7
C	4.312880	2.738660	0.588640	6
H	0.672160	-1.244390	-0.516430	1
H	0.471810	0.461580	-0.982880	1
H	0.457740	0.018450	0.719750	1
H	2.868360	-0.225790	-1.159560	1
H	2.855340	-0.687450	0.565980	1
H	5.352030	3.084220	0.696860	1
H	3.515980	3.475900	0.782750	1
Es	2.683509	1.338226	0.182211	99
Es	4.072404	1.517777	0.248725	99
Es	4.312871	2.739160	0.588777	99
Es	2.419498	-0.015566	-0.182115	99
Es	0.919129	-0.213849	-0.245920	99
Es	2.485271	1.584108	0.245580	99
Es	4.292362	1.203250	0.164780	99
Es	2.720293	-0.474223	0.329455	99
Es	0.621014	0.239471	-0.746845	99
Es	5.011266	2.945601	0.654303	99
Es	3.282930	1.417297	0.211696	99
Es	2.729285	-0.158838	-0.850059	99
Es	4.151924	2.100843	0.410350	99
Es	3.772954	3.223568	0.716054	99
Es	0.611502	-0.061239	0.407610	99
Es	0.763240	-0.915323	-0.430038	99
Es	1.666555	-0.106394	-0.211778	99
Es	2.720470	1.329486	0.179820	99
Es	2.624239	0.830265	0.046153	99
Es	4.192632	2.052516	0.398140	99
