32
Properties=species:S:1:pos:R:3:Z:I:1 energy=-247.096963621802 field_type=dipole dipole="0.000000 0.000000 0.000000" charge=0
C	0.857540	0.146370	0.107830	6
N	2.293200	0.133030	-0.019140	7
C	3.117560	1.217070	-0.113090	6
C	2.496210	2.584150	-0.015380	6
O	4.327900	1.056810	-0.248670	8
H	0.518640	-0.866420	0.337180	1
H	0.421640	0.477440	-0.838140	1
H	0.560700	0.828410	0.908160	1
H	2.771510	-0.755120	-0.118710	1
H	1.608550	2.655520	-0.648110	1
H	3.215660	3.331840	-0.360380	1
H	2.234830	2.794070	1.024590	1
Es	4.327770	1.056438	-0.248645	99
Es	2.293198	0.133037	-0.019159	99
Es	3.117200	1.217039	-0.113081	99
Es	0.857984	0.146459	0.107758	99
Es	2.496145	2.583746	-0.015421	99
Es	3.811132	1.099703	-0.197243	99
Es	2.565504	-0.380856	-0.082567	99
Es	1.905077	2.616274	-0.420556	99
Es	0.623731	-0.542876	0.261465	99
Es	2.637287	0.633972	-0.068501	99
Es	1.672065	0.132465	0.038415	99
Es	2.793517	1.878371	-0.070530	99
Es	0.561824	0.379153	-0.530038	99
Es	2.318169	2.704223	0.660698	99
Es	4.603760	1.099378	-0.279613	99
Es	0.660618	0.615081	0.644710	99
Es	2.959456	3.086603	-0.242716	99
Es	4.047149	1.101504	-0.209344	99
Es	4.256838	1.001622	-0.241474	99
Es	2.371842	0.231473	0.008366	99
