35
Properties=species:S:1:pos:R:3:Z:I:1 energy=-248.2252786325456 field_type=dipole dipole="0.000000 0.000000 0.000000" charge=0
C	1.333580	-0.295470	-0.064900	6
O	2.714250	-0.025370	0.138700	8
C	3.014090	1.358450	-0.083750	6
C	4.520900	1.576040	0.092330	6
N	5.284070	0.854320	-0.931760	7
H	1.157800	-1.356190	0.132350	1
H	1.050550	-0.081030	-1.099800	1
H	0.721620	0.294610	0.623920	1
H	2.470040	1.964870	0.649100	1
H	2.699200	1.651630	-1.092410	1
H	4.829580	1.208560	1.077130	1
H	4.756800	2.642490	0.029740	1
H	4.937280	-0.108770	-0.944700	1
H	6.259630	0.799130	-0.644280	1
Es	2.713962	-0.024985	0.138634	99
Es	5.283979	0.854422	-0.931884	99
Es	3.014626	1.358180	-0.083614	99
Es	1.333923	-0.295429	-0.064832	99
Es	4.520696	1.575692	0.091816	99
Es	2.946952	-0.251669	0.194161	99
Es	4.990816	1.109023	-0.487148	99
Es	3.766007	1.464800	-0.005616	99
Es	1.211746	-1.022439	0.068586	99
Es	4.722430	1.332546	0.770241	99
Es	5.830769	0.802979	-0.714070	99
Es	2.793352	1.556777	-0.769036	99
Es	2.791009	0.482038	0.043272	99
Es	0.917045	0.118949	0.401387	99
Es	2.635137	1.778836	0.420457	99
Es	4.675845	2.307479	0.052120	99
Es	5.101531	0.310630	-0.890257	99
Es	1.141278	-0.135479	-0.769614	99
Es	2.179199	-0.079316	0.051466	99
Es	2.687839	0.003884	0.163423	99
Es	5.233898	1.034135	-1.286740	99
