32
Properties=species:S:1:pos:R:3:Z:I:1 energy=-247.02644715694527 field_type=dipole dipole="0.000000 0.000000 0.000000" charge=0
N	1.012010	-0.067590	-0.115940	7
C	2.469370	-0.025880	-0.012810	6
C	3.287900	-0.705650	-1.071390	6
C	3.263690	0.793170	-0.998100	6
O	4.447160	1.430680	-0.492670	8
H	0.596170	0.718810	0.383790	1
H	0.640440	-0.910150	0.321380	1
H	2.850260	-0.068980	1.004780	1
H	2.771250	-1.171280	-1.903460	1
H	4.185500	-1.228280	-0.766680	1
H	2.714270	1.319070	-1.773030	1
H	4.955050	0.854110	0.101950	1
Es	4.447248	1.430203	-0.492419	99
Es	1.012132	-0.067584	-0.115777	99
Es	3.263658	0.792724	-0.997766	99
Es	2.469244	-0.025891	-0.013390	99
Es	3.287717	-0.705112	-1.071054	99
Es	4.024487	1.153358	-0.661114	99
Es	1.612647	-0.055167	-0.020685	99
Es	0.916693	-0.054675	-0.502387	99
Es	3.400399	0.031339	-1.191562	99
Es	2.735309	-0.051163	0.678046	99
Es	4.663248	1.097560	-0.196387	99
Es	0.807283	0.364218	0.214541	99
Es	0.832031	-0.533815	0.179685	99
Es	2.906317	1.159250	-1.505035	99
Es	4.547395	1.723134	-0.577587	99
Es	4.425314	1.405968	-0.464760	99
Es	2.944239	-1.016517	-1.615173	99
Es	3.888479	-1.045822	-0.857638	99
Es	2.825379	-0.550614	-0.488810	99
Es	2.780610	0.552098	-0.411289	99
