29
Properties=species:S:1:pos:R:3:Z:I:1 energy=-245.89919737197994 field_type=dipole dipole="0.000000 0.000000 0.000000" charge=0
O	1.175690	-0.205350	0.291160	8
C	2.362770	-0.044850	0.156770	6
C	3.343980	1.119160	-0.064060	6
C	4.294630	0.012310	-0.555230	6
N	3.373030	-0.952220	0.055950	7
H	3.642890	1.627410	0.857230	1
H	3.032460	1.840500	-0.821220	1
H	4.365360	-0.105740	-1.640510	1
H	5.287750	0.006220	-0.100890	1
H	3.123150	-1.879800	-0.259210	1
Es	1.176006	-0.205337	0.291087	99
Es	3.372917	-0.952352	0.056200	99
Es	2.363001	-0.044942	0.156740	99
Es	4.293867	0.012189	-0.554705	99
Es	3.343983	1.118625	-0.064095	99
Es	1.667256	-0.148262	0.234495	99
Es	2.904492	-0.598108	0.050532	99
Es	3.881753	0.622972	-0.334416	99
Es	3.734491	-0.620151	-0.259855	99
Es	3.217374	-1.430131	-0.176859	99
Es	4.337300	-0.061193	-1.292762	99
Es	2.783589	0.611552	0.075997	99
Es	0.902505	-0.210260	0.333388	99
Es	1.465287	-0.161803	0.245266	99
Es	3.541605	1.444059	0.532927	99
Es	3.140507	1.592147	-0.559336	99
Es	4.974424	0.008176	-0.250258	99
Es	1.270197	-0.219825	0.279376	99
Es	3.464653	-0.945992	0.386932	99
