32
Properties=species:S:1:pos:R:3:Z:I:1 energy=-247.02249269937948 field_type=dipole dipole="0.000000 0.000000 0.000000" charge=0
O	0.914360	0.011060	-0.011300	8
C	2.356600	0.020020	-0.008300	6
C	3.047840	1.025050	0.938700	6
N	4.048420	-0.015980	1.273000	7
C	3.071240	-1.045280	0.851880	6
H	0.671200	-0.798680	-0.491350	1
H	2.742800	0.069770	-1.035210	1
H	2.438780	1.338400	1.794590	1
H	3.462280	1.915930	0.458210	1
H	4.878850	0.021950	0.681610	1
H	3.504010	-1.883500	0.298490	1
H	2.469820	-1.442650	1.677440	1
Es	0.914547	0.010644	-0.011583	99
Es	4.048554	-0.015963	1.272977	99
Es	2.356386	0.020013	-0.007855	99
Es	3.048102	1.024497	0.938540	99
Es	3.071519	-1.044740	0.851760	99
Es	0.740076	0.230550	0.116766	99
Es	3.681677	-0.465484	1.070185	99
Es	3.335099	1.637677	0.610795	99
Es	2.660656	-1.298931	1.410537	99
Es	2.623797	0.046610	-0.706814	99
Es	0.825992	-0.419394	-0.257312	99
Es	2.641026	0.597372	0.426642	99
Es	1.413464	-0.007016	-0.039318	99
Es	3.369781	-1.625474	0.471343	99
Es	2.635707	1.219691	1.516153	99
Es	3.670759	0.437243	1.108950	99
Es	4.482161	0.007352	0.875756	99
Es	0.937618	-0.016611	-0.019110	99
Es	2.660495	-0.591923	0.381191	99
Es	4.143391	-0.031195	1.654491	99
