32
Properties=species:S:1:pos:R:3:Z:I:1 energy=-247.02597841436835 field_type=dipole dipole="0.000000 0.000000 0.000000" charge=0
O	3.165150	-1.000770	-0.545310	8
C	2.365930	0.023170	0.033240	6
C	3.170610	1.278220	0.092450	6
C	3.229580	2.199250	-1.096530	6
N	2.497800	2.577220	0.111450	7
H	2.602320	-1.791090	-0.599170	1
H	2.077720	-0.288180	1.042010	1
H	1.460530	0.142340	-0.571590	1
H	4.054230	1.174320	0.710530	1
H	2.627660	1.965700	-1.965820	1
H	4.153910	2.726630	-1.295180	1
H	3.034030	3.252220	0.660160	1
Es	3.467790	-0.966906	-0.634806	99
Es	2.498341	2.577325	0.111457	99
Es	2.366426	0.023423	0.033115	99
Es	3.170338	1.278662	0.092263	99
Es	3.229365	2.199132	-1.095877	99
Es	3.164914	-1.001068	-0.545287	99
Es	2.750705	2.042669	0.215735	99
Es	1.746023	0.105551	-0.374082	99
Es	2.815561	2.051125	-1.673108	99
Es	3.761909	1.216721	0.522575	99
Es	3.862506	2.559225	-1.225396	99
Es	2.860304	-0.648886	-0.342058	99
Es	2.166962	-0.186390	0.725325	99
Es	2.854364	2.935606	0.415161	99
Es	2.838958	-1.391239	-0.555876	99
Es	2.759321	0.685228	0.058483	99
Es	2.832884	2.496572	-0.440754	99
Es	3.307569	1.592186	-0.629968	99
Es	3.134818	-1.003272	-0.532375	99
Es	2.108734	2.576898	0.118078	99
