29
Properties=species:S:1:pos:R:3:Z:I:1 energy=-245.85456213379683 field_type=dipole dipole="0.000000 0.000000 0.000000" charge=0
O	2.210630	-1.005810	-0.460880	8
C	2.043510	0.151810	-0.092450	6
C	3.172540	1.106050	-0.078480	6
C	3.337410	2.085440	-1.208820	6
N	2.797450	2.517330	0.076860	7
H	1.062350	0.521510	0.248680	1
H	4.060330	0.778560	0.448620	1
H	2.637460	2.047610	-2.035020	1
H	4.335550	2.422090	-1.459780	1
H	3.506160	3.020090	0.615710	1
Es	2.210708	-1.005395	-0.460785	99
Es	2.797918	2.517288	0.076868	99
Es	2.043463	0.151987	-0.092404	99
Es	3.337179	2.085215	-1.208037	99
Es	3.172128	1.106321	-0.078586	99
Es	2.218037	-1.268381	-0.532101	99
Es	3.062907	2.414388	-0.508957	99
Es	1.397474	0.422863	0.134149	99
Es	4.015209	2.309326	-1.371044	99
Es	3.762784	0.893153	0.272431	99
Es	3.243880	2.770624	0.366439	99
Es	2.590818	0.627116	-0.079739	99
Es	2.152718	-0.537582	-0.292920	99
Es	2.863113	2.069125	-1.749380	99
Es	2.153870	-0.642712	-0.369471	99
Es	2.945996	1.934091	0.126028	99
Es	3.293900	1.413534	-0.757159	99
Es	2.236363	-0.938120	-0.447735	99
Es	2.417746	2.592361	0.115879	99
