29
Properties=species:S:1:pos:R:3:Z:I:1 energy=-245.85678774196558 field_type=dipole dipole="0.000000 0.000000 0.000000" charge=0
O	2.307180	0.021120	-1.156540	8
C	2.247430	0.367150	0.016360	6
N	2.873010	1.461070	0.598050	7
C	4.188750	1.849510	0.175730	6
C	3.006250	2.689460	-0.132540	6
H	1.659130	-0.185710	0.767310	1
H	4.625330	1.246930	-0.610490	1
H	4.838360	2.128900	0.992780	1
H	2.810970	3.568790	0.464350	1
H	2.603730	2.682750	-1.137420	1
Es	2.307260	0.021339	-1.156248	99
Es	2.873100	1.461312	0.598363	99
Es	2.246933	0.366835	0.017410	99
Es	4.187899	1.849359	0.175889	99
Es	3.006292	2.688675	-0.132148	99
Es	2.248391	-0.145578	-1.385433	99
Es	3.432444	1.498160	0.412642	99
Es	1.866635	0.016745	0.522709	99
Es	2.815888	1.936071	0.251963	99
Es	4.622022	2.038069	0.727771	99
Es	2.613805	0.979084	0.278792	99
Es	2.293754	0.178813	-0.675152	99
Es	4.479011	1.443521	-0.346790	99
Es	2.875688	3.278435	0.272563	99
Es	2.733753	2.683133	-0.801728	99
Es	3.715931	2.401932	-0.071896	99
Es	2.289561	0.119237	-0.821257	99
Es	2.374568	0.128451	-1.122539	99
Es	2.817448	1.523155	0.980352	99
