26
Properties=species:S:1:pos:R:3:Z:I:1 energy=-244.60532241838894 field_type=dipole dipole="0.000000 0.000000 0.000000" charge=0
O	0.962240	0.075370	0.000000	8
N	2.357900	-0.048300	-0.000000	7
C	2.879440	1.127480	0.000000	6
C	4.313620	1.092510	0.000000	6
C	5.514840	1.069440	0.000000	6
H	0.671350	-0.856370	-0.000000	1
H	2.336460	2.084830	0.000000	1
H	6.579590	1.038460	-0.000000	1
Es	0.962241	0.074829	0.000000	99
Es	2.357887	-0.048522	0.000000	99
Es	2.879637	1.127483	0.000000	99
Es	4.313197	1.092458	-0.000000	99
Es	5.517087	1.069219	0.000000	99
Es	1.553026	0.040198	0.000000	99
Es	2.565323	1.741361	0.000000	99
Es	5.818529	1.066492	0.000000	99
Es	2.586447	0.509424	0.000000	99
Es	0.844355	-0.413560	0.000000	99
Es	5.251933	1.065260	-0.000000	99
Es	0.822584	0.352409	-0.000000	99
Es	3.567211	1.108712	-0.000000	99
Es	1.011348	0.057997	0.000000	99
Es	2.522874	-0.400153	0.000000	99
Es	2.637537	0.483423	-0.000000	99
Es	4.912960	1.095094	-0.000000	99
Es	4.877006	1.083567	0.000000	99
