32
Properties=species:S:1:pos:R:3:Z:I:1 energy=-194.03021582174154 field_type=dipole dipole="0.000000 0.000000 0.000000" charge=0
C	0.867330	0.025970	-0.090920	6
C	2.356290	0.006220	-0.219770	6
C	3.165090	0.912610	0.348360	6
C	4.600510	0.873360	0.210080	6
C	5.411930	1.775340	0.774920	6
H	0.521480	-0.902940	0.372420	1
H	0.409120	0.108500	-1.081080	1
H	0.514760	0.863780	0.519330	1
H	2.771740	-0.803180	-0.815060	1
H	2.740710	1.719130	0.942340	1
H	5.034540	0.069860	-0.382530	1
H	5.034420	2.596380	1.375360	1
H	6.487300	1.706450	0.643840	1
Es	2.356391	0.006408	-0.219647	99
Es	4.600593	0.873090	0.209886	99
Es	3.165183	0.912767	0.348462	99
Es	0.867821	0.025935	-0.090982	99
Es	5.411828	1.775082	0.774749	99
Es	3.892982	0.883100	0.271554	99
Es	5.011918	1.358499	0.515839	99
Es	2.653849	-0.537428	-0.621038	99
Es	6.122130	1.711919	0.675885	99
Es	2.879992	1.467768	0.756675	99
Es	2.739503	0.433795	0.048110	99
Es	1.639216	0.050162	-0.133759	99
Es	0.565087	0.082482	-0.752237	99
Es	5.144392	2.324234	1.177508	99
Es	4.880671	0.319744	-0.196775	99
Es	0.635585	0.582281	0.314106	99
Es	0.640197	-0.593680	0.219448	99
Es	4.989910	1.330456	0.497992	99
Es	2.824169	0.484883	0.077104	99
