29
Properties=species:S:1:pos:R:3:Z:I:1 energy=-192.8147952453822 field_type=dipole dipole="0.000000 0.000000 0.000000" charge=0
C	0.943130	-0.038520	0.013480	6
C	2.435250	-0.003190	0.023190	6
C	3.139020	1.137990	0.000000	6
C	4.545020	1.137990	0.000000	6
C	5.735180	1.137990	0.000000	6
H	0.595970	-1.073960	-0.056900	1
H	0.542780	0.505460	-0.848720	1
H	0.537680	0.390230	0.933750	1
H	2.951160	-0.960290	0.046700	1
H	2.630600	2.097660	-0.023130	1
H	6.800189	1.136360	0.000040	1
Es	2.435730	-0.004673	0.023213	99
Es	3.139700	1.138036	-0.000008	99
Es	0.943403	-0.038515	0.013511	99
Es	4.544776	1.137984	0.000019	99
Es	5.737183	1.137609	0.000007	99
Es	1.794690	0.010360	0.018407	99
Es	6.132900	1.129849	0.005616	99
Es	2.806050	0.535182	0.027405	99
Es	2.733756	-0.612567	0.038515	99
Es	3.816816	1.113688	-0.001440	99
Es	5.375807	1.090151	0.008476	99
Es	2.850627	1.783535	-0.014173	99
Es	0.686952	0.251337	0.613814	99
Es	0.705559	-0.738724	-0.033081	99
Es	0.688399	0.326927	-0.547608	99
Es	5.132699	1.133049	-0.011443	99
Es	5.140135	1.200549	-0.001373	99
Es	2.875047	0.621142	-0.004962	99
