35
Properties=species:S:1:pos:R:3:Z:I:1 energy=-195.21444986803564 field_type=dipole dipole="0.000000 0.000000 0.000000" charge=0
C	2.089170	-0.318150	1.491470	6
C	2.486260	0.047380	0.068150	6
C	3.076250	1.433680	-0.036070	6
C	2.131770	2.589560	0.140390	6
C	4.378540	1.626300	-0.307580	6
H	1.715660	-1.346820	1.524870	1
H	1.296250	0.335640	1.868060	1
H	2.944500	-0.246870	2.171830	1
H	1.611200	-0.024630	-0.588910	1
H	3.202230	-0.700380	-0.295710	1
H	1.301200	2.512960	-0.568790	1
H	2.624910	3.552140	-0.031060	1
H	1.723880	2.603610	1.155780	1
H	5.059290	0.792180	-0.446850	1
H	4.799850	2.622930	-0.395090	1
Es	3.076397	1.433692	-0.036068	99
Es	2.486255	0.047601	0.068273	99
Es	2.131912	2.589306	0.140361	99
Es	2.089364	-0.317949	1.490869	99
Es	4.375317	1.625759	-0.306819	99
Es	2.664352	-0.264935	1.949278	99
Es	4.712155	1.044812	-0.361317	99
Es	2.469926	3.236123	0.024241	99
Es	2.975624	-0.455245	-0.177660	99
Es	4.576016	2.294874	-0.343942	99
Es	2.791346	0.749433	0.017172	99
Es	3.931955	1.546678	-0.199029	99
Es	1.831566	-1.021700	1.511772	99
Es	1.863754	2.585988	0.826938	99
Es	1.556424	0.128054	1.740916	99
Es	2.296410	-0.111870	0.781165	99
Es	1.575445	2.523759	-0.341327	99
Es	1.897578	0.010219	-0.377288	99
Es	2.609637	2.016868	0.057340	99
Es	3.773294	1.538930	-0.210696	99
