35
Properties=species:S:1:pos:R:3:Z:I:1 energy=-195.21197963151548 field_type=dipole dipole="0.000000 0.000000 0.000000" charge=0
C	0.978040	-0.074660	0.021010	6
C	2.498770	-0.056980	0.028330	6
C	3.040780	1.371280	-0.030800	6
C	4.542800	1.385850	-0.014070	6
C	5.299420	1.881030	-1.000700	6
H	0.610710	-1.104730	0.065220	1
H	0.584880	0.387280	-0.890270	1
H	0.575210	0.467050	0.882780	1
H	2.868100	-0.635160	-0.827120	1
H	2.857820	-0.559380	0.935180	1
H	2.679020	1.942370	0.832610	1
H	2.659010	1.874250	-0.927690	1
H	5.029690	0.973160	0.867520	1
H	4.861660	2.308150	-1.897920	1
H	6.383260	1.868440	-0.929560	1
Es	4.542973	1.385772	-0.013903	99
Es	3.041274	1.371164	-0.030740	99
Es	2.498658	-0.056612	0.028279	99
Es	5.299367	1.881045	-1.000314	99
Es	0.978583	-0.074631	0.021008	99
Es	3.811743	1.389568	-0.036126	99
Es	0.708821	0.298158	0.604261	99
Es	4.985306	2.165603	-1.576211	99
Es	2.747412	-0.394316	0.643388	99
Es	4.867337	1.101587	0.594491	99
Es	2.749887	-0.444043	-0.545886	99
Es	1.729935	-0.061506	0.025256	99
Es	6.015329	1.865223	-0.940915	99
Es	0.725294	-0.781222	0.052317	99
Es	0.715121	0.244112	-0.598346	99
Es	4.941374	1.672962	-0.551056	99
Es	2.788781	0.669074	-0.006213	99
Es	2.782692	1.702922	-0.628922	99
Es	2.798878	1.748590	0.547892	99
Es	4.943360	1.615895	-0.542178	99
