28
Properties=species:S:1:pos:R:3:Z:I:1 energy=-208.88606122989333 field_type=dipole dipole="0.000000 0.000000 0.000000" charge=0
N	-1.132550	-0.000110	0.000540	7
C	-0.339850	1.118170	0.000220	6
C	0.974360	0.707850	-0.000140	6
C	0.974390	-0.708020	-0.000040	6
C	-0.339970	-1.118460	0.000380	6
H	-2.144610	-0.000140	0.000840	1
H	-0.778180	2.106730	0.000280	1
H	1.840060	1.357210	-0.000440	1
H	1.840150	-1.357610	-0.000240	1
H	-0.778210	-2.107140	0.000590	1
Es	-1.132434	-0.000110	0.000540	99
Es	-0.341001	-1.120574	0.000380	99
Es	-0.340884	1.120290	0.000220	99
Es	0.974386	-0.707961	-0.000040	99
Es	0.974356	0.707791	-0.000140	99
Es	-0.783335	0.546667	0.000394	99
Es	0.265920	0.948962	0.000035	99
Es	-0.783382	-0.546951	0.000472	99
Es	-1.737268	-0.000109	0.000718	99
Es	0.265818	-0.949244	0.000182	99
Es	-0.607044	1.709484	0.000255	99
Es	1.561775	1.131450	-0.000342	99
Es	-0.607095	-1.709795	0.000505	99
Es	0.364763	0.809892	0.000050	99
Es	1.561850	-1.131674	-0.000179	99
Es	0.988423	-0.000125	-0.000092	99
Es	-0.962644	-0.000136	0.000493	99
Es	0.364803	-0.810107	0.000152	99
