34
Properties=species:S:1:pos:R:3:Z:I:1 energy=-211.19439653004784 field_type=dipole dipole="0.000000 0.000000 0.000000" charge=0
C	1.033390	0.014830	-0.068870	6
C	2.523100	0.007860	-0.012540	6
C	3.312180	-0.706340	-1.076780	6
C	3.324340	0.795170	-1.013540	6
N	4.537870	1.481530	-0.585630	7
H	0.635690	0.788270	0.596060	1
H	0.639180	-0.952180	0.259580	1
H	0.658500	0.210120	-1.079270	1
H	2.882260	-0.067830	1.007040	1
H	2.779630	-1.169450	-1.899690	1
H	4.202990	-1.246070	-0.776050	1
H	2.779740	1.309040	-1.803620	1
H	5.008150	0.976790	0.164450	1
H	4.314860	2.401350	-0.206770	1
Es	4.538210	1.481659	-0.585933	99
Es	3.324571	0.794939	-1.013272	99
Es	2.523209	0.007855	-0.012727	99
Es	3.311987	-0.705614	-1.076496	99
Es	1.034002	0.014893	-0.068955	99
Es	4.012326	1.193549	-0.700605	99
Es	2.954374	1.151076	-1.528096	99
Es	0.785302	0.146847	-0.753843	99
Es	3.896376	-1.060762	-0.870698	99
Es	1.816825	0.008575	-0.053696	99
Es	4.369859	1.968733	-0.328920	99
Es	4.744822	1.195658	-0.137633	99
Es	2.960426	-1.007627	-1.615912	99
Es	0.768246	0.541332	0.379098	99
Es	0.768225	-0.640103	0.152886	99
Es	3.447141	0.032379	-1.197971	99
Es	2.768931	-0.031861	0.646791	99
Es	4.789491	1.524457	-0.893260	99
Es	2.854038	-0.557705	-0.488339	99
Es	2.831491	0.590731	-0.408462	99
