34
Properties=species:S:1:pos:R:3:Z:I:1 energy=-211.1826263508995 field_type=dipole dipole="0.000000 0.000000 0.000000" charge=0
C	1.019210	0.002450	-0.067230	6
C	2.507050	0.050280	-0.021200	6
C	3.319010	-0.707230	-1.045990	6
N	3.226710	0.749730	-1.079250	7
C	4.446060	1.410620	-0.622960	6
H	0.596610	0.783510	0.573050	1
H	0.662210	-0.965430	0.299630	1
H	0.628330	0.146780	-1.080310	1
H	2.883160	0.094550	0.994470	1
H	2.797680	-1.226470	-1.842260	1
H	4.250730	-1.160420	-0.736440	1
H	4.235350	2.467230	-0.429860	1
H	5.209650	1.363420	-1.406020	1
H	4.876170	0.983980	0.292280	1
Es	3.227114	0.749351	-1.078787	99
Es	2.506867	0.050276	-0.021627	99
Es	3.318781	-0.706548	-1.045750	99
Es	4.445709	1.410465	-0.623043	99
Es	1.019775	0.002483	-0.067259	99
Es	2.857283	-0.522499	-0.471837	99
Es	1.784784	0.038370	-0.068605	99
Es	4.730470	1.102666	0.008181	99
Es	3.751643	0.986664	-0.838257	99
Es	2.772003	0.101910	0.663877	99
Es	3.962477	-0.998904	-0.837947	99
Es	2.975679	-1.040023	-1.582590	99
Es	4.966132	1.370923	-1.158406	99
Es	0.787473	-0.653867	0.184868	99
Es	0.757988	0.092839	-0.740714	99
Es	4.298667	2.127746	-0.484768	99
Es	0.733038	0.531404	0.369064	99
Es	3.354261	0.084795	-1.101142	99
Es	2.912282	0.567002	-0.577550	99
Es	3.017669	0.911784	-1.359236	99
