34
Properties=species:S:1:pos:R:3:Z:I:1 energy=-211.19470893874336 field_type=dipole dipole="0.000000 0.000000 0.000000" charge=0
C	1.039860	-0.007590	-0.070800	6
C	2.526210	0.046000	0.013750	6
N	3.337430	-0.641250	-0.990850	7
C	3.332910	0.819980	-1.000120	6
C	4.565130	1.548330	-0.588060	6
H	0.600520	0.734050	0.603560	1
H	0.678800	-0.996400	0.230230	1
H	0.674520	0.196820	-1.081900	1
H	2.888240	-0.025170	1.033040	1
H	2.756970	-1.011630	-1.745640	1
H	2.827690	1.297730	-1.831490	1
H	5.086610	1.050660	0.236450	1
H	4.308780	2.562000	-0.264550	1
H	5.257420	1.626190	-1.431540	1
Es	3.337031	-0.641215	-0.990977	99
Es	3.333095	0.819690	-0.999701	99
Es	2.526218	0.045953	0.013323	99
Es	1.040488	-0.007559	-0.070833	99
Es	4.564523	1.547870	-0.588208	99
Es	2.923823	-0.438978	-0.557467	99
Es	1.798266	0.021881	-0.050110	99
Es	4.909856	1.216910	-0.033098	99
Es	3.655412	-0.834293	-0.880061	99
Es	2.987270	1.127734	-1.573313	99
Es	0.793407	-0.679550	0.133765	99
Es	2.777743	-0.016325	0.704094	99
Es	0.747400	0.492577	0.376710	99
Es	4.382325	2.226301	-0.373004	99
Es	5.032564	1.602383	-1.162257	99
Es	0.799030	0.126868	-0.753106	99
Es	3.942654	1.159515	-0.791234	99
Es	2.850911	0.641170	-0.391243	99
Es	2.970410	-0.806169	-1.421409	99
Es	3.390184	-0.022988	-1.094953	99
