28
Properties=species:S:1:pos:R:3:Z:I:1 energy=-208.87405270515515 field_type=dipole dipole="0.000000 0.000000 0.000000" charge=0
C	0.878810	-0.137700	-0.128360	6
C	2.180200	0.057300	0.125330	6
C	2.873790	1.389780	0.049520	6
C	3.483470	1.736860	1.342440	6
N	3.976120	2.018190	2.355710	7
H	0.442800	-1.130450	-0.056160	1
H	0.216380	0.676480	-0.407200	1
H	2.793840	-0.800380	0.398580	1
H	2.174950	2.178510	-0.251790	1
H	3.650200	1.337560	-0.722010	1
Es	3.977180	2.018759	2.357961	99
Es	2.873960	1.389719	0.049772	99
Es	3.483332	1.736797	1.342140	99
Es	2.180317	0.057372	0.125325	99
Es	0.879038	-0.137965	-0.128330	99
Es	3.746478	1.923098	1.861668	99
Es	2.608511	-0.516144	0.306379	99
Es	2.521737	0.750397	0.095333	99
Es	0.445677	0.418708	-0.317257	99
Es	2.431672	1.902452	-0.132309	99
Es	3.377755	1.353813	-0.433520	99
Es	3.204875	1.578605	0.751603	99
Es	1.491378	-0.029788	-0.009754	99
Es	4.118574	2.097081	2.660758	99
Es	0.615268	-0.798378	-0.072756	99
Es	3.771929	1.862294	1.902284	99
Es	3.736953	1.883039	1.919692	99
Es	1.534119	-0.037843	-0.005865	99
