35
Properties=species:S:1:pos:R:3:Z:I:1 energy=-195.19894854817656 field_type=dipole dipole="0.000000 0.000000 0.000000" charge=0
C	3.180110	-1.135490	-0.416900	6
C	2.443670	0.068560	0.147520	6
C	3.322260	1.282350	0.175890	6
C	3.453620	2.160580	-1.041460	6
C	2.706820	2.657770	0.165330	6
H	2.528590	-2.014260	-0.418310	1
H	4.068100	-1.368130	0.180300	1
H	3.507490	-0.949090	-1.444800	1
H	2.113920	-0.153760	1.167800	1
H	1.543180	0.252220	-0.449250	1
H	4.201690	1.138770	0.795450	1
H	2.879220	1.912500	-1.926970	1
H	4.425790	2.592870	-1.251800	1
H	3.173660	3.426920	0.770090	1
H	1.628660	2.745790	0.093470	1
Es	3.322121	1.282526	0.175883	99
Es	3.453388	2.160540	-1.040654	99
Es	2.707176	2.657461	0.164969	99
Es	2.443870	0.068689	0.147427	99
Es	3.179758	-1.134907	-0.416619	99
Es	3.043025	2.552948	-0.515777	99
Es	2.819875	-0.513359	-0.138795	99
Es	3.782497	-1.286488	-0.012303	99
Es	1.987147	2.707005	0.121057	99
Es	3.910767	1.188077	0.583291	99
Es	4.109982	2.445543	-1.184889	99
Es	3.069052	1.987315	-1.627376	99
Es	2.217111	-0.078396	0.839292	99
Es	2.733371	-1.742102	-0.420504	99
Es	1.836690	0.198842	-0.258946	99
Es	3.020885	3.172987	0.575712	99
Es	3.401855	-1.008286	-1.105238	99
Es	2.898443	0.714638	0.150377	99
Es	3.498425	1.566495	-0.560208	99
Es	2.919393	1.959967	0.363508	99
