37
Properties=species:S:1:pos:R:3:Z:I:1 energy=-212.38163847091528 field_type=dipole dipole="0.000000 0.000000 0.000000" charge=0
C	0.976140	-0.082480	0.099770	6
C	2.493570	0.021160	0.199490	6
N	2.986070	1.404220	0.083930	7
C	2.594610	2.225490	1.231260	6
C	4.445800	1.405590	-0.048630	6
H	0.677910	-1.135330	0.053330	1
H	0.604950	0.410150	-0.805160	1
H	0.477990	0.360470	0.966850	1
H	2.908300	-0.574790	-0.623680	1
H	2.835710	-0.443700	1.133320	1
H	1.507570	2.340410	1.284900	1
H	2.999380	3.239060	1.133360	1
H	2.948590	1.806080	2.179780	1
H	4.753070	0.843740	-0.937340	1
H	4.940350	0.968150	0.825900	1
H	4.819170	2.426900	-0.182490	1
Es	2.986001	1.403949	0.084125	99
Es	2.493223	0.021412	0.199428	99
Es	2.594685	2.225293	1.231005	99
Es	4.445481	1.405582	-0.048599	99
Es	0.976629	-0.082432	0.099813	99
Es	3.626867	1.383842	0.067350	99
Es	2.784411	-0.375949	-0.354989	99
Es	2.842886	1.728298	0.607343	99
Es	0.643259	0.220993	0.687417	99
Es	2.880945	2.916027	1.164962	99
Es	2.734080	-0.295721	0.849785	99
Es	2.802068	0.817661	0.190112	99
Es	4.699313	2.108079	-0.129686	99
Es	4.650733	1.009771	-0.651186	99
Es	1.856712	2.290792	1.266975	99
Es	2.837386	1.923844	1.882157	99
Es	4.775474	1.101303	0.558861	99
Es	0.726430	0.251674	-0.502836	99
Es	0.780649	-0.809031	0.068687	99
Es	1.725853	-0.012742	0.149312	99
Es	2.823446	1.548981	-0.231372	99
