37
Properties=species:S:1:pos:R:3:Z:I:1 energy=-212.39231886926578 field_type=dipole dipole="0.000000 0.000000 0.000000" charge=0
C	0.980400	-0.043850	0.028040	6
N	2.427110	0.053340	0.177870	7
C	2.921230	1.433650	0.071720	6
C	2.527310	2.279250	1.284630	6
C	4.447500	1.392260	-0.051780	6
H	0.688620	-1.098520	0.039800	1
H	0.643840	0.384660	-0.920780	1
H	0.451880	0.442200	0.852910	1
H	2.865080	-0.515270	-0.547150	1
H	2.526450	1.901660	-0.839610	1
H	2.862350	1.817190	2.219190	1
H	1.444310	2.421350	1.343410	1
H	2.980390	3.274620	1.222820	1
H	4.909230	0.930890	0.827820	1
H	4.853870	2.404100	-0.153670	1
H	4.755940	0.823390	-0.935350	1
Es	2.427352	0.053470	0.177651	99
Es	2.921385	1.433610	0.071753	99
Es	0.980797	-0.043818	0.028086	99
Es	4.446729	1.392230	-0.051780	99
Es	2.527474	2.278759	1.283932	99
Es	2.604767	0.627594	0.085992	99
Es	4.706929	2.086006	-0.120056	99
Es	2.842810	2.953942	1.234483	99
Es	0.630008	0.297514	0.582757	99
Es	2.715683	1.849009	0.679987	99
Es	2.659122	-0.244258	-0.281890	99
Es	2.643802	1.753187	-0.555458	99
Es	1.811045	0.040122	0.070303	99
Es	0.751312	0.262411	-0.624235	99
Es	0.776642	-0.768297	0.031962	99
Es	2.753667	1.965404	1.910701	99
Es	4.651898	0.997257	-0.659911	99
Es	4.752121	1.083719	0.548097	99
Es	1.787262	2.375101	1.321268	99
Es	3.700395	1.410751	0.012743	99
Es	2.545430	-0.074847	0.534170	99
