34
Properties=species:S:1:pos:R:3:Z:I:1 energy=-211.1998111023695 field_type=dipole dipole="0.000000 0.000000 0.000000" charge=0
C	1.119890	-0.164880	0.003450	6
N	2.563570	-0.065480	-0.156590	7
C	3.023110	1.296170	0.096170	6
C	4.512040	1.345160	-0.058720	6
C	5.163150	2.135020	-0.921980	6
H	0.801790	-1.194300	-0.189910	1
H	0.591100	0.487690	-0.698890	1
H	0.815770	0.086840	1.024810	1
H	2.811520	-0.317610	-1.112990	1
H	2.774390	1.597570	1.120630	1
H	2.537180	2.001280	-0.590000	1
H	5.084920	0.689220	0.593490	1
H	4.636800	2.808670	-1.590800	1
H	6.247650	2.118580	-0.976460	1
Es	2.564211	-0.065792	-0.156408	99
Es	3.023804	1.295892	0.096038	99
Es	1.120319	-0.164859	0.003405	99
Es	4.512176	1.345079	-0.058639	99
Es	5.163192	2.134878	-0.921615	99
Es	1.939143	-0.068908	-0.120157	99
Es	4.887139	0.891964	0.387191	99
Es	2.695561	1.769442	-0.364031	99
Es	0.759841	0.289611	-0.479171	99
Es	4.799631	2.569661	-1.343257	99
Es	2.675905	-0.171947	-0.725999	99
Es	0.898397	-0.869953	-0.130691	99
Es	4.856175	1.810332	-0.511294	99
Es	2.728388	0.534608	-0.093859	99
Es	3.791417	1.346291	0.003469	99
Es	2.845300	1.492469	0.776371	99
Es	0.920150	0.021901	0.696149	99
Es	5.869785	2.118676	-0.943515	99
Es	2.754046	-0.305069	0.093170	99
Es	4.846797	1.719526	-0.542791	99
