31
Properties=species:S:1:pos:R:3:Z:I:1 energy=-210.00204674606775 field_type=dipole dipole="0.000000 0.000000 0.000000" charge=0
N	0.959510	-0.037900	0.002810	7
C	2.422780	-0.008290	0.005920	6
C	2.959580	1.426590	0.012580	6
C	4.431690	1.443700	-0.013280	6
C	5.631640	1.462940	-0.033960	6
H	0.645830	-1.008020	-0.015010	1
H	0.610990	0.386990	-0.856080	1
H	2.792940	-0.548250	-0.873730	1
H	2.784380	-0.546220	0.890040	1
H	2.602840	1.953910	0.905460	1
H	2.576150	1.972570	-0.857890	1
H	6.697540	1.482870	-0.050290	1
Es	0.959334	-0.037702	0.003067	99
Es	2.422491	-0.007626	0.005906	99
Es	2.960062	1.426558	0.012580	99
Es	4.430943	1.443685	-0.013270	99
Es	5.633151	1.462926	-0.034003	99
Es	1.546656	-0.043299	-0.041913	99
Es	3.756604	1.440248	-0.001262	99
Es	5.355206	1.424861	-0.038661	99
Es	2.682687	-0.368597	-0.595781	99
Es	5.952478	1.437445	-0.048208	99
Es	0.793613	0.174395	-0.521377	99
Es	2.744656	1.772132	0.603728	99
Es	2.719766	1.783253	-0.572637	99
Es	0.816414	-0.605021	-0.053753	99
Es	2.719293	0.730080	0.012519	99
Es	2.665589	-0.373588	0.599673	99
Es	0.825101	0.156393	0.324614	99
Es	5.050158	1.481699	0.010310	99
Es	5.047200	1.476104	-0.041496	99
