30
Properties=species:S:1:pos:R:3:Z:I:1 energy=-229.87171539624808 field_type=dipole dipole="0.000000 0.000000 0.000000" charge=0
C	-0.361690	1.166700	0.139110	6
O	-1.200590	-0.001160	0.164310	8
C	-0.363860	-1.170010	0.126190	6
C	1.020590	-0.667810	-0.026540	6
C	1.021930	0.662820	-0.019120	6
H	-0.489520	1.714370	1.077300	1
H	-0.664720	1.800420	-0.699060	1
H	-0.668100	-1.793710	-0.718830	1
H	-0.492870	-1.727940	1.057990	1
H	1.891190	-1.298710	-0.122340	1
H	1.893870	1.294080	-0.107990	1
Es	-1.200068	-0.001161	0.164281	99
Es	-0.361312	1.166274	0.139047	99
Es	-0.363480	-1.169584	0.126131	99
Es	1.022196	0.663078	-0.019146	99
Es	1.020862	-0.668074	-0.026569	99
Es	-1.520496	-0.001003	0.185586	99
Es	1.013795	-0.002276	-0.037693	99
Es	0.443394	0.905793	0.047726	99
Es	-0.448162	-1.545711	0.747958	99
Es	1.536014	1.097850	-0.071176	99
Es	0.442416	-0.909871	0.037608	99
Es	-0.568356	-1.591996	-0.436873	99
Es	-0.445215	1.535602	0.765176	99
Es	-0.565356	1.595378	-0.419306	99
Es	1.532883	-1.102982	-0.083330	99
Es	-0.856894	-0.409001	0.149995	99
Es	-0.856246	0.406207	0.154475	99
Es	-1.161977	-0.001131	0.152224	99
Es	1.027813	-0.002567	-0.008787	99
