33
Properties=species:S:1:pos:R:3:Z:I:1 energy=-231.02686530178664 field_type=dipole dipole="0.000000 0.000000 0.000000" charge=0
C	1.034260	0.010430	-0.066900	6
C	2.524830	0.000720	-0.015380	6
C	3.313150	-0.696190	-1.092280	6
C	3.320680	0.804850	-1.007760	6
O	4.526930	1.402710	-0.517660	8
H	0.641520	0.793700	0.586960	1
H	0.640820	-0.950340	0.276630	1
H	0.658290	0.190860	-1.078600	1
H	2.887330	-0.071930	1.003280	1
H	2.777780	-1.149060	-1.918920	1
H	4.208210	-1.234840	-0.804170	1
H	2.781880	1.346550	-1.779150	1
H	4.938360	0.880600	0.191640	1
Es	4.526967	1.402252	-0.517331	99
Es	3.320559	0.804525	-1.007629	99
Es	2.524816	0.000714	-0.015565	99
Es	3.312978	-0.695614	-1.091984	99
Es	1.034917	0.010531	-0.067001	99
Es	4.654202	1.677487	-0.624004	99
Es	3.434880	0.040019	-1.204038	99
Es	0.785775	0.133349	-0.754068	99
Es	2.968339	1.179642	-1.516593	99
Es	2.779230	-0.042033	0.648768	99
Es	4.691197	1.099962	-0.162906	99
Es	2.953063	-0.995600	-1.637505	99
Es	3.905287	-1.051247	-0.891241	99
Es	0.771411	-0.638774	0.163561	99
Es	4.081458	1.144780	-0.670879	99
Es	0.772880	0.541856	0.374403	99
Es	4.513586	1.372688	-0.504098	99
Es	1.816973	0.001111	-0.053861	99
Es	2.862733	-0.548555	-0.506883	99
Es	2.829088	0.591465	-0.408963	99
