33
Properties=species:S:1:pos:R:3:Z:I:1 energy=-231.03581110939302 field_type=dipole dipole="0.000000 0.000000 0.000000" charge=0
C	1.025520	-0.058570	0.108790	6
C	2.519010	0.125630	-0.054530	6
C	3.200630	1.142210	0.869350	6
C	4.125350	-0.018420	1.227960	6
O	3.253590	-0.965490	0.564000	8
H	0.677730	-0.920380	-0.469770	1
H	0.488360	0.825030	-0.249770	1
H	0.750910	-0.221250	1.156060	1
H	2.810970	0.226060	-1.107610	1
H	2.590500	1.504180	1.702010	1
H	3.681390	1.983820	0.365700	1
H	5.113670	0.004560	0.759190	1
H	4.220900	-0.228810	2.296040	1
Es	3.253709	-0.964954	0.563878	99
Es	2.519207	0.125457	-0.054125	99
Es	4.124715	-0.018431	1.227590	99
Es	3.200668	1.141633	0.868947	99
Es	1.026151	-0.058483	0.108719	99
Es	3.209402	-1.271721	0.573128	99
Es	1.766740	0.037293	0.034320	99
Es	2.798899	0.715244	0.385741	99
Es	4.804745	0.003271	0.906024	99
Es	2.793168	1.379884	1.426551	99
Es	3.521325	1.717726	0.532114	99
Es	4.194232	-0.161823	1.961211	99
Es	2.989427	-0.584323	0.337231	99
Es	0.791645	-0.643369	-0.287551	99
Es	2.717953	0.200054	-0.777758	99
Es	0.673232	0.547265	-0.134369	99
Es	0.845808	-0.160401	0.810990	99
Es	3.583182	-0.624943	0.810656	99
Es	3.711911	0.620723	1.090386	99
Es	3.269756	-0.920579	0.548941	99
