27
Properties=species:S:1:pos:R:3:Z:I:1 energy=-228.6211427629121 field_type=dipole dipole="0.000000 0.000000 0.000000" charge=0
C	0.988540	0.018600	-0.083660	6
C	2.185930	-0.042430	-0.020660	6
C	3.611760	-0.115010	0.057800	6
C	4.381830	-0.801660	-1.037720	6
O	4.274770	0.625480	-0.977280	8
H	-0.073310	0.079180	-0.144240	1
H	4.054810	-0.085200	1.046120	1
H	3.838730	-1.311490	-1.823550	1
H	5.339530	-1.241650	-0.791480	1
Es	4.274717	0.624947	-0.977113	99
Es	3.611739	-0.114690	0.057236	99
Es	4.381136	-0.800648	-1.037271	99
Es	2.186293	-0.042518	-0.020527	99
Es	0.986296	0.018578	-0.084230	99
Es	4.306146	0.879031	-1.056000	99
Es	0.623329	0.019298	-0.078793	99
Es	3.894285	-0.651821	-0.396093	99
Es	2.877310	-0.089999	-0.005388	99
Es	4.010868	-1.125994	-1.563993	99
Es	5.026604	-1.083884	-0.864069	99
Es	4.273835	0.048657	-0.940441	99
Es	3.885409	-0.090911	0.723046	99
Es	4.098157	0.450293	-0.713495	99
Es	1.294838	-0.014513	-0.055847	99
Es	4.269435	0.575230	-0.950155	99
Es	1.595151	-0.018817	-0.065635	99
Es	1.601056	0.024941	-0.058201	99
