36
Properties=species:S:1:pos:R:3:Z:I:1 energy=-232.23876473663736 field_type=dipole dipole="0.000000 0.000000 0.000000" charge=0
C	1.052200	-0.094720	0.024040	6
C	2.571460	-0.045560	0.055720	6
C	3.087010	1.387340	-0.040300	6
C	4.608810	1.439430	-0.008260	6
O	5.047100	2.789120	-0.089710	8
H	0.704970	-1.130370	0.093120	1
H	0.665190	0.331930	-0.906820	1
H	0.624100	0.463800	0.862530	1
H	2.967730	-0.640280	-0.775570	1
H	2.926810	-0.508160	0.983900	1
H	2.686380	1.992140	0.782780	1
H	2.725210	1.859120	-0.962300	1
H	5.045060	0.881980	-0.843490	1
H	4.993610	1.016110	0.924900	1
H	4.721800	3.152020	-0.931240	1
Es	5.047105	2.789111	-0.090156	99
Es	4.608475	1.439795	-0.008339	99
Es	2.571418	-0.045252	0.055702	99
Es	3.086980	1.386952	-0.040250	99
Es	1.052810	-0.094668	0.024046	99
Es	5.260411	2.917780	0.105185	99
Es	2.817894	1.790107	0.509265	99
Es	0.765538	0.286796	0.587977	99
Es	4.871639	1.149135	0.625858	99
Es	2.817037	-0.355463	0.684900	99
Es	4.859827	2.940695	-0.532633	99
Es	2.846142	-0.447439	-0.507171	99
Es	3.843186	1.410346	-0.018125	99
Es	4.866226	2.318789	-0.089648	99
Es	0.811447	-0.805486	0.070866	99
Es	4.897320	1.053361	-0.588397	99
Es	0.793575	0.199445	-0.604068	99
Es	2.850873	1.706618	-0.671194	99
Es	1.808428	-0.066187	0.038641	99
Es	2.825172	0.672738	0.004802	99
Es	4.993776	2.785269	-0.092690	99
