38
Properties=species:S:1:pos:R:3:Z:I:1 energy=-196.4019377292893 field_type=dipole dipole="0.000000 0.000000 0.000000" charge=0
C	0.971440	-0.078260	0.040720	6
C	2.489440	0.016080	0.100710	6
C	3.018840	1.459090	0.043470	6
C	2.569950	2.292590	1.244560	6
C	4.547300	1.448800	-0.036160	6
H	0.663070	-1.127300	-0.020070	1
H	0.579290	0.441000	-0.839660	1
H	0.505920	0.350140	0.933290	1
H	2.899280	-0.550080	-0.744890	1
H	2.843260	-0.479910	1.012710	1
H	2.638520	1.938110	-0.867590	1
H	2.872070	1.824910	2.187820	1
H	1.483100	2.418210	1.258410	1
H	3.011160	3.294820	1.208390	1
H	4.988970	0.984270	0.852290	1
H	4.940380	2.468090	-0.116540	1
H	4.887860	0.891250	-0.915320	1
Es	3.018843	1.459048	0.043501	99
Es	2.489261	0.016449	0.100774	99
Es	0.972046	-0.078224	0.040738	99
Es	2.570154	2.292202	1.244034	99
Es	4.546683	1.448774	-0.036128	99
Es	4.777238	1.063396	-0.635035	99
Es	1.721405	-0.023791	0.075408	99
Es	1.827715	2.375371	1.251324	99
Es	2.773274	-0.365780	-0.472199	99
Es	2.758773	1.778071	-0.569276	99
Es	2.789728	1.876938	0.649977	99
Es	0.759043	-0.800122	-0.003628	99
Es	0.708573	0.280594	-0.552091	99
Es	4.812510	2.150792	-0.088211	99
Es	4.836384	1.129879	0.571492	99
Es	2.876068	2.975012	1.221540	99
Es	0.659086	0.216734	0.644249	99
Es	2.732459	-0.313807	0.716304	99
Es	2.773914	1.968026	1.882148	99
Es	3.800631	1.454416	-0.003051	99
Es	2.746754	0.738678	0.081124	99
