30
Properties=species:S:1:pos:R:3:Z:I:1 energy=-229.87589648581206 field_type=dipole dipole="0.000000 0.000000 0.000000" charge=0
C	1.787570	-0.739130	-0.786460	6
C	2.657670	-0.214710	0.086340	6
C	3.183140	1.187550	0.019320	6
C	4.697000	1.231280	-0.050210	6
O	5.451720	0.332530	0.310780	8
H	1.455490	-1.768370	-0.683900	1
H	1.390020	-0.167060	-1.618810	1
H	3.028800	-0.837700	0.899930	1
H	2.870980	1.752780	0.903710	1
H	2.800640	1.706030	-0.866280	1
H	5.112810	2.193280	-0.397320	1
Es	5.451263	0.332705	0.310728	99
Es	4.696945	1.231517	-0.050308	99
Es	3.183273	1.187290	0.019361	99
Es	2.657723	-0.214676	0.086397	99
Es	1.787664	-0.739142	-0.785981	99
Es	5.692136	0.199418	0.357689	99
Es	2.919565	0.490158	0.040744	99
Es	1.586999	-1.426858	-0.697525	99
Es	4.955914	1.895600	-0.293536	99
Es	2.902106	-0.626240	0.642917	99
Es	3.955057	1.195177	-0.020952	99
Es	2.998898	1.548027	0.591967	99
Es	5.143087	0.690413	0.157276	99
Es	1.518624	-0.331563	-1.335769	99
Es	2.140599	-0.459104	-0.352445	99
Es	2.933334	1.541635	-0.558450	99
Es	5.220662	0.609087	0.210720	99
Es	5.331616	0.316153	0.317101	99
Es	2.263750	-0.498840	-0.402032	99
