33
Properties=species:S:1:pos:R:3:Z:I:1 energy=-231.05046744071223 field_type=dipole dipole="0.000000 0.000000 0.000000" charge=0
C	0.912850	0.012640	0.056470	6
C	2.401150	0.013370	0.192370	6
C	3.184300	1.043490	-0.163580	6
C	4.671460	1.059830	-0.028490	6
O	5.234420	1.218680	-1.320270	8
H	0.598880	-0.808970	-0.595110	1
H	0.534940	0.948370	-0.367900	1
H	0.449210	-0.129350	1.037550	1
H	2.845060	-0.888320	0.609470	1
H	2.739310	1.946470	-0.575750	1
H	5.063720	0.138360	0.413380	1
H	4.986180	1.902100	0.594200	1
H	4.848200	0.522870	-1.879250	1
Es	5.234351	1.218278	-1.320371	99
Es	4.671120	1.059892	-0.028946	99
Es	2.401164	0.013452	0.192384	99
Es	3.184409	1.043507	-0.163636	99
Es	0.913436	0.012597	0.056519	99
Es	5.479423	1.409040	-1.381822	99
Es	1.673547	0.051717	0.115388	99
Es	2.887078	1.657472	-0.453347	99
Es	3.897484	1.019548	-0.066253	99
Es	2.717036	-0.599585	0.473259	99
Es	5.013189	0.849395	-1.577043	99
Es	4.920024	0.440830	0.264921	99
Es	4.999754	1.135561	-0.875718	99
Es	2.773312	0.568648	0.137551	99
Es	0.706582	-0.535317	-0.380727	99
Es	0.665553	0.628820	-0.223504	99
Es	0.604770	-0.081765	0.710929	99
Es	4.894274	1.617113	0.393996	99
Es	5.181669	1.220613	-1.319563	99
Es	2.828355	0.486162	-0.114095	99
