36
Properties=species:S:1:pos:R:3:Z:I:1 energy=-232.2389468689642 field_type=dipole dipole="0.000000 0.000000 0.000000" charge=0
C	0.998070	-0.026560	0.012450	6
C	2.524500	0.012500	-0.022840	6
C	3.049550	-0.759330	-1.235550	6
C	3.021320	1.461030	-0.026240	6
O	4.441710	1.509260	0.040760	8
H	0.616840	0.489690	0.899700	1
H	0.635780	-1.059410	0.045850	1
H	0.567520	0.455220	-0.871670	1
H	2.908580	-0.488280	0.875670	1
H	2.719780	-0.297590	-2.171970	1
H	2.688190	-1.793270	-1.222620	1
H	4.143550	-0.791680	-1.239570	1
H	2.624580	2.014080	0.831440	1
H	2.709540	1.983020	-0.936370	1
H	4.711170	1.052970	0.856360	1
Es	4.441639	1.509217	0.041284	99
Es	3.021611	1.460491	-0.026226	99
Es	2.524423	0.012471	-0.022868	99
Es	0.998762	-0.026464	0.012413	99
Es	3.049297	-0.758921	-1.234999	99
Es	4.613650	1.710693	-0.133876	99
Es	1.750444	-0.007905	0.002075	99
Es	3.787317	-0.786041	-1.238483	99
Es	2.741172	1.830756	0.570342	99
Es	2.806186	1.815278	-0.644808	99
Es	4.542735	1.260818	0.468559	99
Es	2.764619	0.735056	-0.031875	99
Es	0.740963	0.330306	0.617503	99
Es	3.943007	1.456378	0.041186	99
Es	2.822770	-0.442509	-1.865691	99
Es	0.715686	0.303769	-0.590697	99
Es	2.796191	-1.460639	-1.224422	99
Es	0.755941	-0.731704	0.033247	99
Es	2.791807	-0.315114	0.589706	99
Es	2.792543	-0.365121	-0.631858	99
Es	4.424840	1.443628	0.029934	99
