29
Properties=species:S:1:pos:R:3:Z:I:1 energy=-192.85913081251348 field_type=dipole dipole="0.000000 0.000000 0.000000" charge=0
C	0.000460	1.268890	0.008860	6
C	1.164770	0.323120	0.004110	6
C	0.720970	-0.943870	-0.002610	6
C	-0.721200	-0.942500	-0.002840	6
C	-1.164440	0.322560	0.003710	6
H	0.000100	1.902330	-0.883300	1
H	-0.000190	1.892950	0.907610	1
H	2.200500	0.626090	0.005860	1
H	1.327930	-1.835660	-0.007170	1
H	-1.328890	-1.834080	-0.007620	1
H	-2.199970	0.625980	0.005140	1
Es	0.000461	1.268588	0.008858	99
Es	1.164681	0.323172	0.004110	99
Es	-1.164353	0.322614	0.003710	99
Es	0.720874	-0.944046	-0.002611	99
Es	-0.721100	-0.942675	-0.002841	99
Es	0.000064	-0.947894	-0.002749	99
Es	-0.938304	-0.360027	0.000179	99
Es	0.000120	1.664528	0.591296	99
Es	1.845563	0.557590	0.005451	99
Es	-1.845046	0.557360	0.004829	99
Es	-1.134237	-1.525649	-0.005963	99
Es	0.000311	1.670608	-0.569398	99
Es	0.938590	-0.360200	0.000493	99
Es	1.133101	-1.527025	-0.005594	99
Es	0.642429	0.797461	0.006498	99
Es	-0.641654	0.797180	0.006286	99
Es	-0.917194	-0.306917	0.000449	99
Es	0.917160	-0.307474	0.000756	99
