42
Properties=species:S:1:pos:R:3:Z:I:1 energy=-234.25961495409896 field_type=dipole dipole="0.000000 0.000000 0.000000" charge=0
C	1.179280	-0.671100	-0.060440	6
C	2.695820	-0.565450	-0.075170	6
C	3.154990	0.885880	-0.207810	6
C	4.682100	0.986090	-0.210640	6
C	5.136940	2.409600	-0.357520	6
C	5.869350	3.061540	0.554190	6
H	0.872260	-1.718420	0.030040	1
H	0.747890	-0.269560	-0.983600	1
H	0.755290	-0.119210	0.785330	1
H	3.088690	-1.158280	-0.909100	1
H	3.094260	-1.000360	0.848560	1
H	2.747140	1.477880	0.621150	1
H	2.752920	1.313860	-1.135000	1
H	5.091220	0.403580	-1.045480	1
H	5.082140	0.545120	0.711090	1
H	4.853390	2.925380	-1.272820	1
H	6.181680	2.589030	1.480370	1
H	6.173310	4.090550	0.389280	1
Es	5.136905	2.409777	-0.357693	99
Es	4.682194	0.986628	-0.210742	99
Es	3.155271	0.885607	-0.207679	99
Es	5.869340	3.061423	0.553826	99
Es	2.695710	-0.565171	-0.075186	99
Es	1.179901	-0.670992	-0.060451	99
Es	6.067878	2.718399	1.146128	99
Es	2.920340	0.161367	-0.141361	99
Es	4.949523	0.598524	-0.769600	99
Es	0.966738	-1.389734	0.001552	99
Es	2.968388	-0.965381	-0.641433	99
Es	5.544652	2.749878	0.147454	99
Es	2.971787	-0.857236	0.553852	99
Es	6.063623	3.744842	0.431430	99
Es	4.928455	1.718200	-0.272459	99
Es	0.895121	-0.293647	0.508515	99
Es	0.889897	-0.394069	-0.682941	99
Es	2.884691	1.175218	-0.834034	99
Es	4.936564	2.751138	-0.989253	99
Es	4.943494	0.689196	0.405087	99
Es	1.933169	-0.614108	-0.068487	99
Es	2.882229	1.281036	0.343734	99
Es	3.938846	0.955379	-0.206853	99
Es	5.496967	2.764314	0.130728	99
