34
Properties=species:S:1:pos:R:3:Z:I:1 energy=-263.88801852841436 field_type=dipole dipole="0.000000 0.000000 0.000000" charge=0
C	0.400480	1.489590	0.501500	6
C	0.922080	0.370100	-0.343310	6
N	0.954250	-0.997570	0.193650	7
C	-0.374750	-1.314700	0.342140	6
N	-1.271510	-0.418380	0.042090	7
C	-0.552670	0.762270	-0.403950	6
H	0.679310	2.500290	0.229150	1
H	0.301510	1.335790	1.569400	1
H	1.542480	0.567500	-1.206310	1
H	1.544120	-1.715120	-0.211160	1
H	-0.595040	-2.343490	0.664380	1
H	-0.977100	1.326130	-1.223130	1
Es	0.954457	-0.997542	0.193665	99
Es	-1.271419	-0.418203	0.041987	99
Es	-0.374756	-1.315007	0.342311	99
Es	0.921558	0.370177	-0.343093	99
Es	-0.552291	0.762071	-0.403698	99
Es	0.400388	1.488934	0.500877	99
Es	-0.524541	-1.969147	0.546597	99
Es	1.039354	-0.972637	0.534134	99
Es	0.862694	0.947982	0.187558	99
Es	-0.922096	0.077708	-0.132175	99
Es	0.937837	-0.451998	-0.078085	99
Es	-0.802743	-0.828654	0.209288	99
Es	0.356385	-1.158805	0.198794	99
Es	0.342054	1.386004	1.193171	99
Es	1.218175	-1.378127	-0.093515	99
Es	-0.840135	1.133244	-0.964376	99
Es	1.354127	0.492995	-0.910990	99
Es	0.587746	2.154026	0.309051	99
Es	-0.226647	1.218810	0.146469	99
Es	-1.659655	-0.428519	0.055479	99
Es	0.172956	0.470534	-0.532481	99
Es	-0.944637	-0.720587	0.124450	99
