42
Properties=species:S:1:pos:R:3:Z:I:1 energy=-234.24681421793926 field_type=dipole dipole="0.000000 0.000000 0.000000" charge=0
C	0.943060	-0.008480	0.048990	6
C	2.457770	0.009240	0.010170	6
C	3.161010	1.049660	0.917640	6
C	4.235360	-0.023070	1.226730	6
C	5.493880	0.026870	0.373550	6
C	3.184820	-1.089120	0.825660	6
H	0.554660	-0.869150	-0.505380	1
H	0.535940	0.898040	-0.409280	1
H	0.564400	-0.068490	1.074830	1
H	2.813980	0.058610	-1.026920	1
H	2.580280	1.345530	1.799720	1
H	3.511540	1.953840	0.412250	1
H	4.506570	-0.065250	2.289030	1
H	5.264620	0.064240	-0.696080	1
H	6.113750	-0.857020	0.555010	1
H	6.089350	0.911130	0.622200	1
H	3.554870	-1.938760	0.245130	1
H	2.612040	-1.472360	1.678750	1
Es	2.457410	0.009231	0.010309	99
Es	4.235302	-0.023079	1.226901	99
Es	5.493064	0.026842	0.373998	99
Es	3.185183	-1.088772	0.825358	99
Es	3.161379	1.049344	0.917312	99
Es	0.943762	-0.008475	0.049040	99
Es	2.760925	-0.623676	0.374436	99
Es	4.844534	0.001971	0.797781	99
Es	0.680958	-0.602280	-0.327410	99
Es	3.762967	0.595927	1.101148	99
Es	4.424714	-0.051452	1.940961	99
Es	2.695023	0.041936	-0.679875	99
Es	3.393651	1.661079	0.581789	99
Es	1.701510	0.000131	0.033015	99
Es	5.895128	0.633008	0.541897	99
Es	0.668535	0.616493	-0.261011	99
Es	0.698580	-0.048824	0.744433	99
Es	5.333988	0.052138	-0.347933	99
Es	2.798481	-1.340311	1.402213	99
Es	5.911956	-0.579198	0.495881	99
Es	2.769702	1.241687	1.513218	99
Es	2.747437	0.615018	0.428121	99
Es	3.430797	-1.663992	0.439126	99
Es	3.776829	-0.639418	1.048230	99
