35
Properties=species:S:1:pos:R:3:Z:I:1 energy=-247.87466438151415 field_type=dipole dipole="0.000000 0.000000 0.000000" charge=0
C	0.993120	-0.964980	-0.032220	6
C	-0.444080	-1.405650	-0.184320	6
C	-1.257260	-0.343290	-0.047300	6
C	-0.549400	0.915450	0.220190	6
N	0.368070	1.453010	-0.770380	7
C	0.920120	0.529850	0.216430	6
H	1.454680	-1.472770	0.820200	1
H	1.568250	-1.183580	-0.936880	1
H	-0.756800	-2.420040	-0.380450	1
H	-2.336780	-0.389400	-0.117020	1
H	-0.912110	1.569020	1.003030	1
H	0.228820	0.991730	-1.670820	1
H	1.581150	0.921630	0.974460	1
Es	0.367995	1.452911	-0.770534	99
Es	-0.548942	0.915433	0.220056	99
Es	0.919902	0.530015	0.216543	99
Es	-0.444188	-1.406327	-0.184410	99
Es	0.992679	-0.964759	-0.032273	99
Es	-1.257279	-0.343193	-0.047293	99
Es	0.276173	1.144379	-1.246345	99
Es	-0.873166	-0.898709	0.146373	99
Es	0.204566	-1.230538	-0.119298	99
Es	-0.810960	1.378553	0.714399	99
Es	0.685559	1.014843	-0.424794	99
Es	-1.972307	-0.377976	-0.083682	99
Es	1.383164	0.785913	0.703725	99
Es	1.369259	-1.112164	-0.632679	99
Es	1.301948	-1.293941	0.530519	99
Es	-0.603091	-2.057502	-0.325819	99
Es	0.979429	-0.193114	0.071024	99
Es	-0.941228	0.262817	0.059346	99
Es	-0.119490	1.220402	-0.409039	99
Es	0.475546	1.819821	-0.754277	99
Es	0.161414	0.657459	0.377709	99
Es	-0.835583	-0.822443	-0.373339	99
