38
Properties=species:S:1:pos:R:3:Z:I:1 energy=-249.086737972651 field_type=dipole dipole="0.000000 0.000000 0.000000" charge=0
C	0.422760	1.326610	0.262890	6
C	-1.057690	1.057560	-0.053490	6
C	-1.400270	-0.404180	-0.004570	6
C	-0.436690	-1.336250	0.045940	6
C	1.026860	-1.001320	0.024710	6
N	1.309230	0.370460	-0.406490	7
H	0.677270	2.341320	-0.062740	1
H	0.589700	1.291380	1.347060	1
H	-1.302320	1.437190	-1.052590	1
H	-1.680870	1.600770	0.665760	1
H	-2.447370	-0.690050	-0.014610	1
H	-0.703810	-2.387850	0.096980	1
H	1.444070	-1.175800	1.023520	1
H	1.536070	-1.684540	-0.663250	1
H	2.278170	0.591780	-0.186910	1
Es	1.309272	0.370447	-0.406536	99
Es	1.026422	-1.001155	0.024742	99
Es	0.422519	1.326103	0.262489	99
Es	-1.401018	-0.404266	-0.004554	99
Es	-1.057683	1.057128	-0.053481	99
Es	-0.436542	-1.336917	0.045959	99
Es	1.191200	-0.195998	-0.165004	99
Es	-0.890367	-0.840605	0.009977	99
Es	0.238495	-1.164055	0.038895	99
Es	1.303524	-1.116069	0.697145	99
Es	0.536285	1.300982	1.011757	99
Es	-1.214424	1.310020	-0.711596	99
Es	1.863737	0.492190	-0.218944	99
Es	0.596513	2.019368	0.039158	99
Es	0.964954	0.740588	-0.085642	99
Es	-1.229238	0.260238	-0.026497	99
Es	-2.077865	-0.571344	-0.000385	99
Es	-1.466649	1.422866	0.428408	99
Es	-0.350043	1.172735	0.100948	99
Es	1.370035	-1.457578	-0.428591	99
Es	-0.604499	-2.036451	0.071350	99
Es	1.236355	0.399695	-0.799174	99
Es	-0.923873	-0.880841	0.039352	99
