41
Properties=species:S:1:pos:R:3:Z:I:1 energy=-250.27567336132893 field_type=dipole dipole="0.000000 0.000000 0.000000" charge=0
C	0.735800	1.274050	-0.200990	6
C	-0.729230	1.238530	0.223440	6
C	-1.409330	-0.046800	-0.245290	6
N	-0.700680	-1.240360	0.223290	7
C	0.686190	-1.245030	-0.248030	6
C	1.449420	-0.006750	0.220430	6
H	0.797040	1.383370	-1.290950	1
H	1.234580	2.144780	0.238270	1
H	-1.254600	2.108040	-0.187180	1
H	-0.793910	1.311840	1.316420	1
H	-2.436790	-0.073990	0.134500	1
H	-1.479860	-0.062830	-1.339650	1
H	-0.701960	-1.244500	1.243500	1
H	1.184460	-2.144440	0.129770	1
H	0.705680	-1.312700	-1.342440	1
H	1.548680	-0.027150	1.312950	1
H	2.464950	-0.018450	-0.192980	1
Es	-0.700786	-1.240545	0.223249	99
Es	-1.408766	-0.046797	-0.244941	99
Es	0.685906	-1.244543	-0.247680	99
Es	0.735556	1.273621	-0.200622	99
Es	1.449067	-0.006588	0.220103	99
Es	-0.728909	1.238308	0.223112	99
Es	-0.943042	-0.716866	0.054988	99
Es	1.087556	0.630318	0.008776	99
Es	-0.127131	-1.183523	0.054002	99
Es	-2.110228	-0.061971	0.022814	99
Es	0.003207	1.250364	0.010205	99
Es	-0.673170	-1.193432	0.823080	99
Es	1.029128	-1.856851	0.018728	99
Es	1.506437	-0.023505	0.971001	99
Es	-1.445105	-0.056093	-0.992184	99
Es	2.139605	-0.009191	-0.058876	99
Es	1.076772	-0.615468	-0.023063	99
Es	-1.064896	0.608992	-0.020136	99
Es	0.694683	-1.279761	-0.994944	99
Es	1.073811	1.864249	0.092184	99
Es	-0.770567	1.277873	0.974243	99
Es	0.772015	1.339008	-0.937428	99
Es	-1.081701	1.832262	-0.053984	99
Es	-0.883594	-1.559960	0.072503	99
