34
Properties=species:S:1:pos:R:3:Z:I:1 energy=-263.9198954470049 field_type=dipole dipole="0.000000 0.000000 0.000000" charge=0
C	1.417400	-0.205140	0.060880	6
C	0.414070	-1.326530	-0.001130	6
C	-0.896440	-1.067360	-0.036640	6
N	-1.323850	0.225470	-0.018330	7
C	-0.428240	1.254040	0.030570	6
N	0.854040	1.162920	0.069100	7
H	2.024310	-0.327950	0.964790	1
H	2.091060	-0.289940	-0.799040	1
H	0.782580	-2.345590	-0.015580	1
H	-1.660550	-1.835150	-0.080720	1
H	-2.318590	0.407770	-0.047320	1
H	-0.913120	2.244160	0.034460	1
Es	-1.323720	0.225453	-0.018327	99
Es	0.854371	1.162594	0.069106	99
Es	-0.428902	1.254940	0.030569	99
Es	-0.898788	-1.069205	-0.036764	99
Es	1.417237	-0.205204	0.060874	99
Es	0.414219	-1.326720	-0.001130	99
Es	-1.119621	-0.380135	-0.026901	99
Es	0.205917	1.144150	0.048874	99
Es	-0.271406	-1.165333	-0.017764	99
Es	0.878337	-0.775503	0.028340	99
Es	-0.907458	0.703309	0.003939	99
Es	-1.914329	0.331870	-0.036713	99
Es	-0.738637	1.878653	0.032973	99
Es	1.014959	0.568065	0.062769	99
Es	1.865913	-0.259316	-0.518988	99
Es	0.647131	-2.017442	-0.011467	99
Es	-1.384388	-1.543498	-0.064178	99
Es	-1.242019	0.246241	-0.012217	99
Es	1.820615	-0.284842	0.670042	99
Es	0.404216	1.179605	0.054741	99
Es	1.116733	1.447153	0.082787	99
Es	-0.200122	-1.230293	-0.020088	99
