38
Properties=species:S:1:pos:R:3:Z:I:1 energy=-249.03397836320704 field_type=dipole dipole="0.000000 0.000000 0.000000" charge=0
C	0.921720	-0.013880	0.925880	6
C	0.275890	-1.043080	-0.030390	6
C	0.751350	-0.035650	-1.103450	6
N	0.327430	0.998120	-0.056690	7
C	-1.137400	0.768380	0.066130	6
C	-1.205500	-0.754130	0.093640	6
H	2.018330	-0.012410	0.974980	1
H	0.531570	0.034160	1.948750	1
H	0.644880	-2.066180	-0.049900	1
H	0.195560	-0.009230	-2.047510	1
H	1.824300	-0.037160	-1.334920	1
H	-1.532660	1.215130	0.984620	1
H	-1.677900	1.190350	-0.787880	1
H	-1.775190	-1.158510	-0.748920	1
H	-1.621650	-1.133910	1.032070	1
Es	0.326975	0.997491	-0.056646	99
Es	0.750691	-0.035588	-1.103312	99
Es	0.921045	-0.013819	0.925855	99
Es	-1.136884	0.767704	0.066103	99
Es	0.276306	-1.045169	-0.030402	99
Es	-1.204544	-0.753699	0.093537	99
Es	0.609992	-0.616644	0.535752	99
Es	0.555842	0.585722	0.395150	99
Es	-0.279624	0.875905	-0.005399	99
Es	0.658607	0.028130	1.619667	99
Es	-1.399687	1.070797	0.693265	99
Es	0.375840	-0.008167	-1.744226	99
Es	0.509026	-1.744721	-0.042221	99
Es	-1.592051	-1.027046	-0.471514	99
Es	-1.498852	1.053817	-0.518283	99
Es	-1.488669	-1.010307	0.724045	99
Es	1.478900	-0.032666	-1.238135	99
Es	1.661588	-0.009273	0.937085	99
Es	-0.449576	-0.942645	0.030578	99
Es	-1.218338	-0.015608	0.084112	99
Es	0.478489	0.575758	-0.531882	99
Es	0.509784	-0.629494	-0.653592	99
Es	0.464707	1.379433	-0.072179	99
