34
Properties=species:S:1:pos:R:3:Z:I:1 energy=-263.85114092586036 field_type=dipole dipole="0.000000 0.000000 0.000000" charge=0
C	0.425560	1.424040	0.313200	6
C	1.107930	0.305630	-0.440130	6
C	1.047350	-1.091360	0.050010	6
C	-0.430980	-1.247350	0.087920	6
N	-1.091960	-0.216740	-0.332290	7
N	-0.244570	0.761840	-0.801870	7
H	0.747500	2.439490	0.118180	1
H	0.036760	1.258020	1.310150	1
H	1.900380	0.527130	-1.138410	1
H	1.473850	-1.217690	1.047480	1
H	1.479820	-1.813090	-0.646880	1
H	-0.898950	-2.165210	0.468320	1
Es	-0.244454	0.761227	-0.801082	99
Es	-1.091468	-0.216276	-0.332506	99
Es	-0.430925	-1.247291	0.087914	99
Es	0.425522	1.423487	0.312618	99
Es	1.107704	0.305663	-0.440453	99
Es	1.046804	-1.091080	0.049936	99
Es	-0.615522	0.238693	-0.513857	99
Es	-0.743050	-0.648837	-0.084705	99
Es	0.214548	-1.225063	0.082209	99
Es	0.646769	2.104787	0.172917	99
Es	1.641681	0.452056	-0.915995	99
Es	-0.664460	-1.816937	0.327349	99
Es	0.941108	0.862689	0.089986	99
Es	1.319225	-1.175498	0.697794	99
Es	0.154388	1.307329	0.971072	99
Es	1.344431	-1.558158	-0.408336	99
Es	0.317792	0.490644	-0.713803	99
Es	1.103371	-0.382328	-0.172215	99
Es	-0.329390	0.936471	-1.121993	99
Es	-1.467779	-0.158669	-0.347077	99
Es	-0.797621	-0.676757	-0.203639	99
Es	-0.046312	1.053015	-0.276051	99
