38
Properties=species:S:1:pos:R:3:Z:I:1 energy=-249.05615236652082 field_type=dipole dipole="0.000000 0.000000 0.000000" charge=0
C	0.802850	1.406180	-0.589790	6
C	-0.330980	0.919260	0.272410	6
C	-1.370630	-0.023220	-0.239280	6
N	-0.759040	-1.350270	-0.029180	7
C	0.693820	-1.192730	-0.229090	6
C	0.963470	0.185620	0.278840	6
H	0.733160	1.273350	-1.663160	1
H	1.314600	2.312480	-0.287800	1
H	-0.622860	1.475560	1.151330	1
H	-2.312860	0.059470	0.312170	1
H	-1.572100	0.137780	-1.304310	1
H	-0.902720	-1.593200	0.950840	1
H	1.244550	-1.954260	0.330220	1
H	0.943770	-1.287090	-1.290870	1
H	1.584910	0.226670	1.161190	1
Es	-0.759074	-1.350329	-0.029227	99
Es	-1.370024	-0.023455	-0.238984	99
Es	0.693302	-1.192324	-0.228800	99
Es	0.802572	1.405690	-0.589294	99
Es	-0.331066	0.919589	0.273340	99
Es	0.963789	0.185724	0.279769	99
Es	-0.163086	-1.257734	-0.086010	99
Es	1.102286	0.752100	-0.255432	99
Es	-0.986172	-0.791329	-0.090270	99
Es	-0.813954	-1.441099	0.562054	99
Es	0.756025	1.317378	-1.278513	99
Es	-0.511078	1.284515	0.859974	99
Es	1.365396	0.222274	0.868777	99
Es	0.862019	-0.467674	0.014115	99
Es	1.066283	-1.705587	0.156033	99
Es	-1.502339	0.082862	-0.961495	99
Es	1.143245	2.009100	-0.384432	99
Es	-2.005827	0.033867	0.140731	99
Es	0.858072	-1.254171	-0.949165	99
Es	-0.837651	0.494853	0.005701	99
Es	0.086604	1.327722	-0.260266	99
Es	0.265036	0.462697	0.406892	99
Es	-0.917927	-1.633212	-0.274630	99
