37
Properties=species:S:1:pos:R:3:Z:I:1 energy=-265.05000151982796 field_type=dipole dipole="0.000000 0.000000 0.000000" charge=0
C	0.665670	1.237410	-0.197770	6
N	-0.784860	1.379900	0.022900	7
C	-1.395820	0.059680	-0.217840	6
C	-0.335660	-0.905650	0.210410	6
N	0.753450	-1.301600	-0.682220	7
C	0.952350	-0.169640	0.223040	6
H	0.916610	1.392410	-1.252460	1
H	1.212650	1.963030	0.409740	1
H	-1.167000	2.059690	-0.630910	1
H	-2.307850	-0.047790	0.375410	1
H	-1.641440	-0.068700	-1.277700	1
H	-0.596750	-1.543420	1.041990	1
H	1.225280	-2.133690	-0.324400	1
H	1.621960	-0.276060	1.063830	1
Es	0.753513	-1.301721	-0.681565	99
Es	-0.784920	1.380006	0.022852	99
Es	0.952045	-0.169950	0.223019	99
Es	-0.335238	-0.905544	0.210396	99
Es	-1.395151	0.060005	-0.217586	99
Es	0.665046	1.236995	-0.197529	99
Es	0.225563	-1.218336	-0.326984	99
Es	-0.194495	1.308266	-0.125714	99
Es	-2.007391	-0.020468	0.188418	99
Es	-0.853062	-0.462496	-0.033095	99
Es	1.011762	-1.758363	-0.415682	99
Es	1.424632	-0.247567	0.777593	99
Es	-0.516635	-1.356663	0.758591	99
Es	0.835474	1.347924	-0.914182	99
Es	1.039300	1.719838	0.218086	99
Es	-1.566792	-0.024313	-0.937773	99
Es	-0.993524	1.752217	-0.398179	99
Es	-1.020901	0.836083	-0.133738	99
Es	0.837011	0.503000	-0.016535	99
Es	0.720972	-1.238238	-1.065047	99
Es	0.944581	-0.807477	-0.319887	99
Es	-0.843152	1.475492	0.407961	99
Es	0.258942	-0.453544	0.357686	99
