42
Properties=species:S:1:pos:R:3:Z:I:1 energy=-234.247021587416 field_type=dipole dipole="0.000000 0.000000 0.000000" charge=0
C	2.487190	-1.330420	-0.666770	6
C	1.896070	-0.043160	-0.111770	6
C	2.958360	0.959460	0.296960	6
C	3.770380	0.578960	1.508980	6
C	3.639180	1.763270	-0.790210	6
C	2.638640	2.428240	0.111250	6
H	1.688100	-2.002690	-0.994440	1
H	3.078790	-1.856280	0.088560	1
H	3.137360	-1.128930	-1.523940	1
H	1.262780	-0.273800	0.753230	1
H	1.236010	0.391000	-0.873310	1
H	4.438350	1.388750	1.822860	1
H	4.392290	-0.297040	1.299860	1
H	3.112570	0.344180	2.352300	1
H	3.353840	1.591170	-1.822310	1
H	4.684900	2.022590	-0.666790	1
H	3.008960	3.140680	0.840510	1
H	1.680380	2.706670	-0.313850	1
Es	2.958168	0.959850	0.296737	99
Es	1.896454	-0.042872	-0.111780	99
Es	3.638457	1.763530	-0.789620	99
Es	2.639261	2.427996	0.110617	99
Es	3.770210	0.579099	1.508705	99
Es	2.486912	-1.329786	-0.666504	99
Es	3.151312	2.202272	-0.406123	99
Es	2.221495	-0.653485	-0.380445	99
Es	3.308820	0.418508	2.070835	99
Es	1.460299	0.275083	-0.628583	99
Es	1.995138	2.590315	-0.153181	99
Es	4.332831	1.919083	-0.702956	99
Es	3.450750	1.632183	-1.466688	99
Es	3.372175	0.774587	0.903544	99
Es	2.889524	-1.680713	-0.153258	99
Es	4.184161	-0.018412	1.350568	99
Es	1.939557	-1.791956	-0.893676	99
Es	4.221249	1.141848	1.709828	99
Es	2.926811	-1.193528	-1.239863	99
Es	2.881256	2.886032	0.603862	99
Es	1.478200	-0.183855	0.477310	99
Es	2.441456	0.464847	0.091854	99
Es	3.417313	1.219329	-0.344308	99
Es	2.650888	1.731152	0.333226	99
