41
Properties=species:S:1:pos:R:3:Z:I:1 energy=-250.24470978631336 field_type=dipole dipole="0.000000 0.000000 0.000000" charge=0
C	0.937870	-0.032210	0.152060	6
C	2.448170	0.040360	-0.028000	6
C	2.863240	0.013550	-1.496990	6
C	3.156630	1.103890	0.848120	6
C	4.146120	-0.015410	1.203670	6
N	3.135810	-1.002260	0.776160	7
H	0.652900	-0.057120	1.210250	1
H	0.524690	-0.928020	-0.324460	1
H	0.453150	0.840750	-0.298500	1
H	3.951500	0.036140	-1.622340	1
H	2.455540	0.881780	-2.026500	1
H	2.490020	-0.887890	-1.995660	1
H	2.572890	1.460100	1.705490	1
H	3.581610	1.966130	0.327130	1
H	5.056130	-0.021460	0.592920	1
H	4.428330	-0.077510	2.257990	1
H	3.505980	-1.790630	0.247620	1
Es	3.136174	-1.002337	0.775472	99
Es	2.448031	0.040195	-0.027675	99
Es	4.145264	-0.015459	1.203536	99
Es	2.863109	0.013583	-1.496364	99
Es	3.156624	1.103394	0.847855	99
Es	0.938444	-0.032142	0.152087	99
Es	2.864372	-0.612008	0.385369	99
Es	1.661698	0.004967	0.056856	99
Es	3.700410	0.596301	1.058337	99
Es	0.764180	-0.040213	0.873162	99
Es	2.589582	0.605376	-1.851411	99
Es	3.439211	1.682315	0.495124	99
Es	4.766392	-0.018129	0.776588	99
Es	4.342621	-0.061505	1.921626	99
Es	2.606665	-0.611275	-1.823872	99
Es	0.673647	-0.652300	-0.183760	99
Es	0.622752	0.569579	-0.159213	99
Es	3.602079	0.028943	-1.564398	99
Es	2.762717	1.342141	1.421338	99
Es	3.616067	-0.628443	0.922756	99
Es	2.665764	0.031814	-0.774111	99
Es	3.374742	-1.426194	0.434665	99
Es	2.745504	0.658513	0.374526	99
Es	2.908201	-1.102804	1.084160	99
