41
Properties=species:S:1:pos:R:3:Z:I:1 energy=-250.245349027194 field_type=dipole dipole="0.000000 0.000000 0.000000" charge=0
C	0.981270	-0.051570	0.089700	6
C	2.488540	0.067530	-0.006120	6
C	3.166980	1.118160	0.898340	6
C	4.189490	0.008750	1.218540	6
C	5.464490	-0.018390	0.388250	6
N	3.185610	-0.983590	0.769030	7
H	0.625550	-0.929160	-0.459590	1
H	0.501240	0.830230	-0.346950	1
H	0.640610	-0.138600	1.126860	1
H	2.825380	0.123960	-1.050380	1
H	2.571980	1.430340	1.764550	1
H	3.552250	2.007710	0.392450	1
H	4.424240	-0.069530	2.286560	1
H	5.265910	0.038160	-0.687540	1
H	6.031430	-0.935980	0.580120	1
H	6.106150	0.829060	0.652310	1
H	3.550300	-1.755200	0.213370	1
Es	3.186076	-0.983618	0.768472	99
Es	4.189249	0.008630	1.218435	99
Es	2.488240	0.067321	-0.005566	99
Es	5.463646	-0.018358	0.388710	99
Es	3.167193	1.117492	0.898142	99
Es	0.982090	-0.051508	0.089679	99
Es	2.953837	-1.090605	1.070212	99
Es	4.356153	-0.051392	1.948187	99
Es	3.422578	1.713482	0.557870	99
Es	0.744191	-0.653737	-0.286743	99
Es	0.663003	0.554028	-0.208053	99
Es	3.419968	-1.398682	0.417383	99
Es	2.719569	0.101833	-0.718558	99
Es	4.822157	0.003740	0.787913	99
Es	2.908861	-0.594472	0.391462	99
Es	1.739666	0.009654	0.048594	99
Es	5.896817	0.560119	0.565462	99
Es	5.324087	0.018700	-0.329297	99
Es	2.774710	1.327585	1.474345	99
Es	0.757731	-0.104022	0.779462	99
Es	5.840435	-0.651406	0.516328	99
Es	3.736276	0.632358	1.081691	99
Es	2.760138	0.675814	0.426567	99
Es	3.665294	-0.607396	0.913145	99
