41
Properties=species:S:1:pos:R:3:Z:I:1 energy=-250.2300859382288 field_type=dipole dipole="0.000000 0.000000 0.000000" charge=0
C	0.992640	-0.059160	0.074540	6
C	2.506750	-0.003460	0.032720	6
C	3.181010	1.078780	0.909560	6
C	4.200400	-0.028780	1.242820	6
N	3.135130	-1.015130	0.929970	7
C	3.678070	-2.126280	0.156080	6
H	0.621900	-0.952670	-0.439500	1
H	0.564830	0.814420	-0.428800	1
H	0.608730	-0.074750	1.101010	1
H	2.884540	0.003570	-1.000010	1
H	2.590610	1.412820	1.771060	1
H	3.575680	1.950840	0.382130	1
H	5.072740	-0.033980	0.577220	1
H	4.547640	-0.043980	2.279910	1
H	2.861370	-2.752760	-0.219760	1
H	4.301910	-2.757520	0.798140	1
H	4.285200	-1.812960	-0.702010	1
Es	3.135568	-1.014783	0.929261	99
Es	2.506492	-0.003483	0.033100	99
Es	4.199631	-0.028759	1.242635	99
Es	3.677923	-2.125947	0.156281	99
Es	3.180968	1.078123	0.909322	99
Es	0.993351	-0.059161	0.074524	99
Es	2.872097	-0.631665	0.494371	99
Es	3.448144	1.670134	0.548800	99
Es	1.746949	-0.036707	0.052698	99
Es	3.119641	-2.546694	-0.108584	99
Es	4.791352	-0.045769	0.778045	99
Es	2.772523	-0.012890	-0.667112	99
Es	3.385221	-1.465176	0.577620	99
Es	4.444543	-0.046011	1.950105	99
Es	3.641658	-0.640270	1.039603	99
Es	0.745207	-0.670906	-0.275417	99
Es	4.091780	-1.892930	-0.432764	99
Es	0.709321	0.541733	-0.274157	99
Es	0.738904	-0.065498	0.761803	99
Es	2.791282	1.302049	1.484385	99
Es	4.112148	-2.556775	0.592583	99
Es	3.739787	0.581650	1.105127	99
Es	2.780142	0.622337	0.447632	99
Es	2.916803	-1.099896	1.238443	99
