41
Properties=species:S:1:pos:R:3:Z:I:1 energy=-250.26983237190322 field_type=dipole dipole="0.000000 0.000000 0.000000" charge=0
C	0.988820	0.005040	0.004490	6
C	2.507160	0.015750	0.041690	6
C	3.085160	1.137130	0.890180	6
C	4.480490	0.622600	1.177940	6
N	4.285750	-0.805690	1.427070	7
C	3.115180	-1.242500	0.657450	6
H	0.624420	-0.828760	-0.603990	1
H	0.607150	0.934790	-0.429640	1
H	0.563670	-0.097940	1.008340	1
H	2.885080	0.124330	-0.984420	1
H	2.520110	1.262380	1.821780	1
H	3.096230	2.094950	0.361010	1
H	5.130850	0.767110	0.307270	1
H	4.935260	1.120630	2.038640	1
H	5.115479	-1.333750	1.160720	1
H	3.401370	-1.955820	-0.123420	1
H	2.417850	-1.747430	1.333860	1
Es	4.285797	-0.805750	1.426557	99
Es	4.479722	0.622068	1.177981	99
Es	3.115545	-1.241476	0.657433	99
Es	2.506836	0.015684	0.042004	99
Es	3.085427	1.136485	0.889746	99
Es	0.989441	0.005031	0.004544	99
Es	4.189626	-0.859481	1.807939	99
Es	2.759931	0.091033	-0.654523	99
Es	4.928661	0.726439	0.571911	99
Es	0.729063	0.641363	-0.292497	99
Es	4.761567	-1.088026	1.220352	99
Es	2.706075	1.224502	1.518955	99
Es	2.637949	-1.586192	1.112877	99
Es	4.791025	0.965226	1.765766	99
Es	2.790977	-0.635029	0.353940	99
Es	3.312266	-1.729097	0.116958	99
Es	0.742298	-0.568580	-0.409312	99
Es	3.849870	-0.972867	1.060689	99
Es	0.707971	-0.063886	0.686883	99
Es	3.798488	0.897764	1.038440	99
Es	1.755886	0.007371	0.028101	99
Es	3.092491	1.780029	0.529285	99
Es	2.759913	0.603046	0.469454	99
Es	4.381101	-0.228373	1.268734	99
