34
Properties=species:S:1:pos:R:3:Z:I:1 energy=-263.9286040821244 field_type=dipole dipole="0.000000 0.000000 0.000000" charge=0
C	0.980200	0.064170	-0.004790	6
C	2.459780	-0.029090	-0.006000	6
N	3.215300	1.075850	-0.011320	7
N	4.474440	0.610630	-0.011030	7
C	4.549640	-0.750490	-0.006000	6
C	3.252040	-1.200520	-0.002680	6
H	0.641260	1.105260	0.009200	1
H	0.568040	-0.437910	0.876170	1
H	0.568480	-0.414330	-0.898980	1
H	5.234370	1.282130	-0.014520	1
H	5.499279	-1.265390	-0.005280	1
H	2.918000	-2.228400	0.001540	1
Es	4.474232	0.610742	-0.011031	99
Es	3.216258	1.075422	-0.011319	99
Es	4.555039	-0.753506	-0.005997	99
Es	2.459885	-0.028919	-0.006001	99
Es	0.980602	0.064098	-0.004792	99
Es	3.252165	-1.200423	-0.002680	99
Es	3.856696	0.812130	-0.011092	99
Es	2.931579	0.575272	-0.007993	99
Es	5.029024	-1.080528	-0.004969	99
Es	0.712699	-0.274974	0.580594	99
Es	2.846546	-0.667485	-0.004511	99
Es	4.516102	-0.023333	-0.008494	99
Es	4.930419	1.005737	-0.013028	99
Es	4.385964	0.414760	-0.010437	99
Es	4.062537	-0.961571	-0.003741	99
Es	3.001795	-1.883513	-0.000007	99
Es	0.713191	-0.259117	-0.598930	99
Es	1.743515	0.027789	-0.005044	99
Es	0.755434	0.748054	0.004342	99
Es	3.124701	1.441801	-0.012667	99
Es	3.599046	-0.940578	-0.004773	99
Es	3.042662	0.613807	-0.010254	99
