37
Properties=species:S:1:pos:R:3:Z:I:1 energy=-265.0508982888804 field_type=dipole dipole="0.000000 0.000000 0.000000" charge=0
C	1.257160	0.265590	0.022510	6
C	2.686570	-0.148490	0.003050	6
C	3.255280	-0.937580	-1.132870	6
N	3.690700	0.448500	-0.888320	7
C	3.303230	1.394790	-1.799550	6
N	3.954660	2.474960	-2.066510	7
H	1.158650	1.275490	0.432980	1
H	0.684450	-0.414010	0.662040	1
H	0.795380	0.246940	-0.969510	1
H	3.078470	-0.317010	0.999150	1
H	2.677290	-1.092490	-2.033250	1
H	4.033330	-1.659420	-0.925710	1
H	2.365480	1.182100	-2.339700	1
H	4.789070	2.474530	-1.468100	1
Es	3.690388	0.448390	-0.888182	99
Es	3.954548	2.475978	-2.067281	99
Es	3.302862	1.394450	-1.799745	99
Es	2.686722	-0.148244	0.002680	99
Es	3.255313	-0.936806	-1.132519	99
Es	1.257672	0.265543	0.022448	99
Es	4.035948	0.488698	-0.715043	99
Es	3.709469	1.931988	-1.941135	99
Es	2.005779	0.062297	-0.015472	99
Es	2.843318	-0.712749	-0.522570	99
Es	0.874353	-0.192417	0.450866	99
Es	2.681484	1.238314	-2.160084	99
Es	2.960883	-0.261987	0.672387	99
Es	3.461924	0.844164	-1.306185	99
Es	1.198847	0.939689	0.293561	99
Es	4.399916	2.437427	-1.718218	99
Es	3.779650	-1.417016	-1.001449	99
Es	0.956086	0.259038	-0.639675	99
Es	3.240554	0.352508	-0.531292	99
Es	2.865420	-1.028859	-1.741901	99
Es	3.876413	2.765736	-2.306733	99
Es	3.685063	2.069474	-1.914153	99
Es	3.513198	-0.140632	-1.095224	99
