37
Properties=species:S:1:pos:R:3:Z:I:1 energy=-265.01031939506777 field_type=dipole dipole="0.000000 0.000000 0.000000" charge=0
C	1.193970	-0.367460	0.181320	6
C	2.674670	-0.227780	0.287560	6
C	3.588400	-0.994110	-0.620230	6
N	3.503430	0.468550	-0.705140	7
N	2.757190	0.749510	-1.789510	7
C	3.122540	1.857060	-2.340850	6
H	0.705940	0.590060	0.389620	1
H	0.838840	-1.092270	0.921360	1
H	0.864690	-0.717960	-0.802460	1
H	2.986930	-0.074590	1.313770	1
H	3.169250	-1.578220	-1.430880	1
H	4.511230	-1.380250	-0.207400	1
H	2.599170	2.214570	-3.240310	1
H	3.946910	2.489730	-1.962500	1
Es	2.757764	0.749707	-1.788994	99
Es	3.502697	0.468101	-0.705582	99
Es	3.122635	1.857365	-2.340982	99
Es	2.674811	-0.227550	0.287256	99
Es	3.588165	-0.993323	-0.619913	99
Es	1.194455	-0.367367	0.181249	99
Es	2.476075	0.488689	-1.887243	99
Es	3.064154	-0.810542	-0.076816	99
Es	1.970952	-0.281525	0.201946	99
Es	2.760062	2.080276	-2.942571	99
Es	3.311997	-1.363995	-1.168386	99
Es	2.943784	1.303343	-2.012398	99
Es	3.088741	0.296677	-0.321255	99
Es	2.898375	-0.108256	0.974753	99
Es	3.673708	2.268103	-2.074926	99
Es	0.870178	0.276629	0.323587	99
Es	4.217327	-1.242768	-0.354333	99
Es	3.793674	0.703890	-0.587590	99
Es	0.961818	-0.858623	0.684726	99
Es	0.974731	-0.596155	-0.463813	99
Es	3.124636	0.615549	-1.251325	99
Es	2.934164	1.210553	-2.033003	99
Es	3.565726	-0.185764	-0.754159	99
