41
Properties=species:S:1:pos:R:3:Z:I:1 energy=-250.23436722852733 field_type=dipole dipole="0.000000 0.000000 0.000000" charge=0
C	0.939360	0.013030	0.013810	6
C	2.453560	0.004380	0.013610	6
C	3.158300	1.003970	0.954970	6
N	4.159670	-0.045900	1.260990	7
C	3.151080	-1.074130	0.882700	6
C	3.761700	-2.256670	0.155420	6
H	0.550760	-0.841740	-0.548130	1
H	0.560210	0.925530	-0.456060	1
H	0.533490	-0.037760	1.029800	1
H	2.847330	0.055060	-1.011700	1
H	2.574880	1.310630	1.831340	1
H	3.565150	1.898610	0.475250	1
H	4.966600	-0.016970	0.636470	1
H	2.553020	-1.402800	1.743920	1
H	4.380510	-1.943860	-0.692200	1
H	2.974460	-2.912010	-0.230240	1
H	4.385710	-2.848720	0.832150	1
Es	4.159669	-0.045938	1.260606	99
Es	3.151404	-1.073959	0.882549	99
Es	3.158485	1.003347	0.954764	99
Es	2.453358	0.004300	0.013456	99
Es	3.761432	-2.256112	0.155720	99
Es	0.939843	0.013010	0.013834	99
Es	3.789274	0.409464	1.114235	99
Es	1.694176	0.008805	0.008866	99
Es	4.188653	-2.657744	0.619893	99
Es	2.747700	0.583944	0.448401	99
Es	2.765180	1.204050	1.549150	99
Es	2.749327	-1.285629	1.468768	99
Es	4.570643	-0.025452	0.850156	99
Es	3.454883	-1.668085	0.515102	99
Es	0.682673	0.640486	-0.305458	99
Es	0.673858	-0.023330	0.704090	99
Es	3.439169	1.614735	0.625976	99
Es	3.225698	-2.695204	-0.108583	99
Es	4.178752	-2.034085	-0.415511	99
Es	2.714584	0.034060	-0.653722	99
Es	3.782379	-0.493067	1.070265	99
Es	0.676303	-0.573095	-0.367611	99
Es	2.735698	-0.614461	0.388194	99
Es	4.267323	-0.058463	1.641932	99
