40
Properties=species:S:1:pos:R:3:Z:I:1 energy=-266.2357840075888 field_type=dipole dipole="0.000000 0.000000 0.000000" charge=0
C	1.042820	0.009290	-0.065580	6
C	2.532790	-0.022210	-0.022860	6
C	3.358200	-0.760020	-1.045870	6
N	2.727850	-1.508520	-2.132840	7
C	3.330840	0.751890	-1.036800	6
N	4.503080	1.510530	-0.598130	7
H	0.665090	0.765030	0.631210	1
H	0.634390	-0.961520	0.235080	1
H	0.654610	0.251800	-1.060920	1
H	2.887810	-0.062630	1.001490	1
H	4.269730	-1.228660	-0.678860	1
H	1.948040	-0.999130	-2.542850	1
H	2.349660	-2.390050	-1.790890	1
H	2.787500	1.229780	-1.849560	1
H	5.015650	1.020420	0.133450	1
H	4.223480	2.406520	-0.200630	1
Es	2.728121	-1.508610	-2.133154	99
Es	4.503329	1.510630	-0.598435	99
Es	3.331234	0.751675	-1.036479	99
Es	3.358083	-0.759904	-1.046068	99
Es	1.043491	0.009303	-0.065664	99
Es	2.532650	-0.022192	-0.022724	99
Es	2.925692	-1.185855	-1.645651	99
Es	4.749013	1.576021	-0.906298	99
Es	3.477377	-0.002689	-1.214326	99
Es	0.789664	0.168498	-0.744956	99
Es	2.963715	1.069367	-1.559675	99
Es	2.768866	-0.035249	0.610726	99
Es	3.948768	-1.076412	-0.788374	99
Es	4.305517	1.978921	-0.330193	99
Es	2.479707	-1.967332	-1.893976	99
Es	4.731442	1.229502	-0.160902	99
Es	0.770051	-0.647292	0.133899	99
Es	0.788578	0.523880	0.402873	99
Es	3.994522	1.188586	-0.718093	99
Es	1.839535	-0.013646	-0.062302	99
Es	3.000638	-1.582128	-2.407847	99
Es	2.269707	-1.215454	-2.306194	99
Es	2.870419	-0.589309	-0.424534	99
Es	2.835651	0.555513	-0.433010	99
