34
Properties=species:S:1:pos:R:3:Z:I:1 energy=-263.95018476570476 field_type=dipole dipole="0.000000 0.000000 0.000000" charge=0
C	0.961350	-0.013350	-0.007670	6
C	2.437530	0.044410	-0.000930	6
C	3.323710	1.099400	0.002500	6
N	4.619090	0.651080	0.008750	7
C	4.532610	-0.658600	0.009210	6
N	3.232020	-1.074610	0.003270	7
H	0.529070	0.992270	0.001960	1
H	0.592150	-0.548960	0.872700	1
H	0.599820	-0.528890	-0.903060	1
H	3.098260	2.158440	0.000690	1
H	5.365030	-1.349310	0.013630	1
H	2.919040	-2.035570	0.002300	1
Es	3.232020	-1.074550	0.003270	99
Es	4.619263	0.651429	0.008751	99
Es	4.533433	-0.659489	0.009216	99
Es	2.437518	0.044158	-0.000929	99
Es	0.961820	-0.013408	-0.007669	99
Es	3.323019	1.103905	0.002495	99
Es	3.842351	-0.912888	0.006300	99
Es	4.018651	0.831686	0.005757	99
Es	2.910535	0.659925	-0.000107	99
Es	0.723357	-0.375134	0.578803	99
Es	3.033510	-1.638376	0.002655	99
Es	2.855855	-0.623040	0.001315	99
Es	5.036641	-1.083215	0.011952	99
Es	4.550865	-0.001167	0.008861	99
Es	3.332769	-0.946947	0.003361	99
Es	1.713066	0.006271	-0.003776	99
Es	3.140058	1.712159	0.000717	99
Es	0.728704	-0.361516	-0.603957	99
Es	0.678443	0.653659	-0.001391	99
Es	4.942209	0.877699	0.010232	99
Es	4.493578	0.201152	0.008379	99
Es	2.968962	0.547130	0.002408	99
