34
Properties=species:S:1:pos:R:3:Z:I:1 energy=-263.886678735098 field_type=dipole dipole="0.000000 0.000000 0.000000" charge=0
C	0.944350	0.000370	0.040280	6
C	2.454670	0.000370	0.111880	6
C	3.050480	1.115540	-0.675700	6
N	3.784320	0.712570	-1.660720	7
N	3.784340	-0.716160	-1.658830	7
C	3.050510	-1.116400	-0.673050	6
H	0.532630	0.890600	0.527420	1
H	0.532390	-0.885870	0.534380	1
H	0.586920	-0.003660	-0.996200	1
H	2.824110	0.001710	1.139140	1
H	2.874560	2.167610	-0.418140	1
H	2.874640	-2.168410	-0.412890	1
Es	3.784313	0.712228	-1.660742	99
Es	3.784334	-0.715819	-1.658855	99
Es	3.050518	1.115490	-0.675741	99
Es	3.050548	-1.116351	-0.673090	99
Es	2.454951	0.000369	0.111516	99
Es	0.945125	0.000370	0.040214	99
Es	3.989376	-0.917220	-1.921704	99
Es	3.740642	-0.001695	-1.600819	99
Es	2.749554	0.610474	-0.270247	99
Es	0.672914	0.600808	0.368854	99
Es	3.420375	0.859518	-1.205966	99
Es	2.749495	-0.610480	-0.268715	99
Es	2.926111	1.801910	-0.503106	99
Es	2.686134	0.001226	0.775314	99
Es	0.672741	-0.597400	0.373537	99
Es	1.756665	0.000358	0.062034	99
Es	0.715570	-0.002297	-0.648273	99
Es	2.926159	-1.802729	-0.498825	99
Es	3.476140	0.848726	-1.229241	99
Es	3.989280	0.912938	-1.924177	99
Es	3.420017	-0.861827	-1.204051	99
Es	3.476508	-0.851098	-1.226899	99
