34
Properties=species:S:1:pos:R:3:Z:I:1 energy=-263.90097906476166 field_type=dipole dipole="0.000000 0.000000 0.000000" charge=0
C	1.047650	0.000830	-0.069310	6
C	2.535130	0.021560	0.003950	6
N	3.323850	-0.671150	-1.006220	7
C	3.350080	0.801720	-1.003250	6
C	4.516100	1.509210	-0.544010	6
N	5.437270	2.109770	-0.176560	7
H	0.630600	0.784130	0.571400	1
H	0.664580	-0.963140	0.280270	1
H	0.679210	0.165530	-1.087450	1
H	2.898390	-0.066790	1.022400	1
H	2.740190	-1.016790	-1.769260	1
H	2.828260	1.270730	-1.830230	1
Es	3.323518	-0.671013	-1.006321	99
Es	5.439027	2.110910	-0.175821	99
Es	3.350340	0.801939	-1.003253	99
Es	2.535649	0.021807	0.003309	99
Es	4.515095	1.508629	-0.544482	99
Es	1.048225	0.000872	-0.069361	99
Es	3.391832	0.005295	-1.090098	99
Es	5.035146	1.733235	-0.278687	99
Es	1.817770	0.021219	-0.058727	99
Es	3.970615	1.178329	-0.779343	99
Es	2.958900	-0.813649	-1.433788	99
Es	3.012172	1.103754	-1.548243	99
Es	0.810101	0.110078	-0.758338	99
Es	0.775019	0.525536	0.354447	99
Es	0.796099	-0.650438	0.165534	99
Es	5.704020	2.278211	-0.060792	99
Es	2.809101	-0.021367	0.681024	99
Es	2.928956	-0.478307	-0.580679	99
Es	3.635621	-0.865704	-0.898790	99
Es	5.039758	1.841914	-0.353845	99
Es	4.960050	1.917247	-0.384222	99
Es	2.914506	0.622824	-0.439600	99
