10
Properties=species:S:1:pos:R:3:Z:I:1 energy=-40.20898433529598 field_type=dipole dipole="0.000000 0.000000 0.000000" charge=0
C	0.000128	0.000186	0.000314	6
H	1.092078	0.000216	0.008814	1
H	-0.364342	1.029506	0.008814	1
H	-0.371092	-0.525084	0.882784	1
H	-0.356772	-0.504824	-0.900726	1
Es	0.000128	0.000186	0.000313	99
Es	-0.250886	-0.354930	0.597068	99
Es	-0.241147	-0.341253	-0.608869	99
Es	0.738489	0.000233	0.006148	99
Es	-0.246279	0.696208	0.006089	99
