14
Properties=species:S:1:pos:R:3:Z:I:1 energy=-78.61541662209821 field_type=dipole dipole="0.000000 0.000000 0.000000" charge=0
C	-0.667878	0.000130	0.000000	6
C	0.667882	-0.000140	-0.000000	6
H	-1.227628	0.930170	0.000000	1
H	-1.227968	-0.929820	0.000000	1
H	1.227962	0.929830	-0.000000	1
H	1.227632	-0.930170	0.000000	1
Es	-1.049112	0.620024	-0.000060	99
Es	0.667955	-0.000140	0.000003	99
Es	1.049170	-0.619993	-0.000018	99
Es	1.049416	0.619633	-0.000055	99
Es	-0.667951	0.000130	-0.000000	99
Es	0.000002	-0.000024	0.312871	99
Es	-1.049464	-0.619632	-0.000100	99
Es	-0.000004	-0.000023	-0.312640	99
