18
Properties=species:S:1:pos:R:3:Z:I:1 energy=-116.69223825269319 field_type=dipole dipole="0.000000 0.000000 0.000000" charge=0
C	-0.937096	-0.001873	-0.008259	6
C	0.506904	-0.001873	-0.008259	6
C	1.697064	-0.001873	-0.008259	6
H	-1.338716	1.016307	0.027041	1
H	-1.317546	-0.509873	0.884841	1
H	-1.374056	-0.498943	-0.878849	1
H	2.763444	-0.001873	-0.008259	1
Es	-1.176226	0.668364	0.012013	99
Es	-0.936986	-0.001873	-0.008258	99
Es	1.111427	-0.185207	0.292588	99
Es	-1.198168	-0.329609	-0.583143	99
Es	1.111000	0.349938	0.000067	99
Es	0.506624	-0.001876	-0.008256	99
Es	1.110443	-0.170192	-0.316322	99
Es	-1.163688	-0.337780	0.577294	99
Es	1.697294	-0.001873	-0.008257	99
Es	-0.199776	-0.002621	-0.013817	99
Es	2.391475	-0.001839	-0.008036	99
