27
Properties=species:S:1:pos:R:3:Z:I:1 energy=-172.11277363916975 field_type=dipole dipole="0.000000 0.000000 0.000000" charge=0
C	-1.239611	-0.008605	0.579296	6
N	0.213849	-0.079675	0.698436	7
C	0.850879	-0.748455	-0.430544	6
C	0.920349	0.749585	-0.271084	6
H	-1.624341	0.749155	1.269866	1
H	-1.681221	-0.969605	0.862736	1
H	-1.599181	0.242405	-0.426174	1
H	0.223419	-1.160965	-1.210554	1
H	1.735969	-1.326505	-0.194884	1
H	1.853749	1.181394	0.069916	1
H	0.346139	1.371275	-0.947014	1
Es	0.431493	-0.500463	0.237312	99
Es	0.850793	-0.748276	-0.430396	99
Es	0.213647	-0.079598	0.697791	99
Es	1.008809	0.013888	-0.536483	99
Es	0.471139	0.408050	0.335510	99
Es	-1.239480	-0.008610	0.579297	99
Es	-1.500563	0.510771	1.045026	99
Es	-0.416068	-0.043397	0.608595	99
Es	-1.538061	-0.664971	0.768518	99
Es	1.449671	-1.145101	-0.272783	99
Es	0.920246	0.749390	-0.270974	99
Es	-1.475861	0.163733	-0.120741	99
Es	0.358066	-0.121905	1.026096	99
Es	0.521115	1.171168	-0.727169	99
Es	1.552427	1.047327	-0.040513	99
Es	0.416060	-1.027489	-0.958139	99
