30
Properties=species:S:1:pos:R:3:Z:I:1 energy=-173.3341962947228 field_type=dipole dipole="0.000000 0.000000 0.000000" charge=0
C	-1.300289	-0.239857	0.420012	6
N	0.161661	-0.232907	0.416952	7
C	0.673681	-0.956407	-0.745708	6
C	0.666212	1.139203	0.427842	6
H	-1.685889	0.265693	1.312772	1
H	-1.680459	-1.267307	0.453232	1
H	-1.719949	0.254393	-0.464148	1
H	0.330842	-1.997367	-0.733098	1
H	1.769141	-0.987287	-0.728378	1
H	0.356761	-0.500697	-1.691238	1
H	0.315932	1.671343	1.319712	1
H	0.350892	1.704843	-0.456908	1
H	1.761461	1.146353	0.468952	1
Es	0.367456	0.374690	0.391871	99
Es	-1.587653	0.104286	-0.195536	99
Es	0.370493	-0.527837	-0.113654	99
Es	-1.560115	0.112591	1.027029	99
Es	-0.479534	-0.219134	0.388529	99
Es	0.272390	-0.392368	0.702314	99
Es	0.673640	-0.956349	-0.745613	99
Es	-1.556304	-0.943048	0.435096	99
Es	0.666172	1.139093	0.427842	99
Es	0.451364	-0.636733	-1.400087	99
Es	0.431517	-1.664602	-0.737897	99
Es	-1.300171	-0.239856	0.420013	99
Es	1.414408	1.140318	0.448129	99
Es	0.444896	1.528386	-0.188107	99
Es	0.419077	1.501825	1.034264	99
Es	0.161437	-0.232603	0.416413	99
Es	1.421986	-0.969023	-0.734596	99
