32
Properties=species:S:1:pos:R:3:Z:I:1 energy=-247.0296545774341 field_type=dipole dipole="0.000000 0.000000 0.000000" charge=0
C	-1.541176	-0.802447	0.055447	6
N	-0.086017	-0.731357	-0.005583	7
C	0.364984	0.661593	0.102117	6
C	1.877973	0.685103	0.081017	6
O	2.535663	1.287533	-0.763653	8
H	-1.858296	-1.846397	-0.028813	1
H	-2.005007	-0.242067	-0.762773	1
H	-1.915956	-0.419877	1.010167	1
H	0.220593	-1.105717	-0.906412	1
H	0.043234	1.109813	1.048057	1
H	-0.010527	1.266113	-0.730433	1
H	2.374533	0.137703	0.900858	1
Es	-1.790304	-0.534015	0.704358	99
Es	0.104090	-0.107319	0.025267	99
Es	2.205511	0.307650	0.643158	99
Es	0.365009	0.661448	0.102136	99
Es	2.535588	1.287437	-0.763513	99
Es	-0.718782	-0.741254	0.004777	99
Es	2.357796	1.434220	-0.977825	99
Es	0.089074	-0.937425	-0.560588	99
Es	-1.541031	-0.802437	0.055440	99
Es	2.290691	1.270493	-0.312722	99
Es	0.107423	1.075646	-0.462734	99
Es	2.296725	0.862051	-0.598493	99
Es	2.846588	1.260115	-0.717606	99
Es	-1.755796	-1.511411	-0.006385	99
Es	1.121407	0.671071	0.089818	99
Es	0.063047	-0.920851	0.259119	99
Es	-1.860182	-0.410666	-0.507306	99
Es	0.155298	0.959209	0.742802	99
Es	1.877964	0.685127	0.080995	99
Es	-0.086263	-0.730984	-0.006047	99
