31
Properties=species:S:1:pos:R:3:Z:I:1 energy=-553.0726768421696 field_type=dipole dipole="0.000000 0.000000 0.000000" charge=0
S	-0.560830	-1.666903	0.023457	16
C	-1.346230	-0.145823	0.007157	6
C	-0.449370	0.899427	-0.009703	6
C	0.901650	0.444647	-0.009213	6
C	0.983750	-0.930433	0.007997	6
H	-2.426330	-0.093123	0.010727	1
H	-0.748140	1.940607	-0.021803	1
H	1.769630	1.092967	-0.020893	1
H	1.875870	-1.541363	0.012277	1
Es	-0.848327	0.352150	-0.303619	99
Es	0.240303	-1.314946	0.015843	99
Es	-0.562082	-1.779827	-0.005725	99
Es	-0.846382	0.360006	0.301115	99
Es	-0.457930	-1.618308	-0.011895	99
Es	-2.059186	-0.125262	0.009753	99
Es	0.901636	0.444655	-0.009213	99
Es	-0.449353	0.899424	-0.009704	99
Es	-0.599780	-1.782553	-0.379730	99
Es	-0.646218	1.591684	-0.017775	99
Es	-0.560979	-1.666688	0.023510	99
Es	0.891036	-0.224926	0.301945	99
Es	-0.569783	-1.654803	0.141357	99
Es	-1.346197	-0.145995	0.007153	99
Es	0.888736	-0.232647	-0.302941	99
Es	1.477285	0.876836	-0.016951	99
Es	1.564002	-1.345052	0.010904	99
Es	-0.986426	-0.902067	0.015753	99
Es	-0.651954	-1.610890	-0.029803	99
Es	-0.596966	-1.774815	0.429153	99
Es	0.239103	0.710347	-0.010010	99
Es	0.983622	-0.930535	0.007997	99
