29
Properties=species:S:1:pos:R:3:Z:I:1 energy=-194.10965291280246 field_type=dipole dipole="0.000000 0.000000 0.000000" charge=0
C	-1.861959	-0.535585	0.005443	6
C	-0.369839	-0.500255	0.015153	6
C	0.333931	0.640924	-0.008037	6
C	1.739931	0.640924	-0.008037	6
C	2.930091	0.640924	-0.008037	6
H	-2.209119	-1.571025	-0.064937	1
H	-2.262309	0.008395	-0.856757	1
H	-2.267409	-0.106835	0.925713	1
H	0.146071	-1.457355	0.038663	1
H	-0.174489	1.600594	-0.031167	1
H	3.995100	0.639295	-0.007997	1
Es	0.038707	0.090617	-0.306427	99
Es	-1.117463	-0.515021	0.010104	99
Es	1.739705	0.640931	-0.008034	99
Es	0.036071	0.105206	0.313007	99
Es	0.009644	1.279487	-0.023782	99
Es	1.053960	0.648125	-0.007454	99
Es	-2.111987	-0.167807	-0.563784	99
Es	2.930321	0.640919	-0.008035	99
Es	-2.112488	-0.245289	0.613577	99
Es	-0.369923	-0.500299	0.015161	99
Es	3.623288	0.639656	-0.008022	99
Es	0.334060	0.640988	-0.008025	99
Es	-2.092197	-1.227847	-0.041004	99
Es	2.341476	0.991117	-0.045474	99
Es	2.313375	0.488456	0.306941	99
Es	-1.861898	-0.535584	0.005443	99
Es	2.317714	0.424673	-0.285066	99
Es	-0.029858	-1.141620	0.031306	99
