29
Properties=species:S:1:pos:R:3:Z:I:1 energy=-192.79363481734626 field_type=dipole dipole="0.000000 0.000000 0.000000" charge=0
C	-1.861959	-0.535585	0.005443	6
C	-0.369839	-0.500255	0.015153	6
C	0.333931	0.640924	-0.008037	6
C	1.739931	0.640924	-0.008037	6
C	2.930091	0.640924	-0.008037	6
H	-2.209119	-1.571025	-0.064937	1
H	-2.262309	0.008395	-0.856757	1
H	-2.267409	-0.106835	0.925713	1
H	0.146071	-1.457355	0.038663	1
H	-0.174489	1.600594	-0.031167	1
H	3.995100	0.639295	-0.007997	1
Es	2.342815	0.999669	-0.020025	99
Es	-0.026660	-1.148238	0.031534	99
Es	0.004026	1.287819	-0.023855	99
Es	0.031512	0.093512	-0.316417	99
Es	-0.369919	-0.500320	0.015154	99
Es	0.028514	0.108483	0.322372	99
Es	1.057801	0.647601	-0.007008	99
Es	2.332902	0.446412	-0.306790	99
Es	-2.120979	-0.163858	-0.572049	99
Es	0.334077	0.641007	-0.008037	99
Es	1.739686	0.640933	-0.008041	99
Es	-1.861906	-0.535587	0.005443	99
Es	-2.095206	-1.237809	-0.041812	99
Es	-1.113939	-0.516476	0.010335	99
Es	3.626146	0.639766	-0.007997	99
Es	2.930338	0.640905	-0.008041	99
Es	2.332934	0.466220	0.302659	99
Es	-2.122561	-0.242801	0.622801	99
