44
Properties=species:S:1:pos:R:3:Z:I:1 energy=-307.94000442944474 field_type=dipole dipole="0.000000 0.000000 0.000000" charge=0
C	-0.695465	-1.879164	0.441798	6
C	0.374155	-1.182523	-0.388862	6
C	0.113975	0.319696	-0.569992	6
C	0.184455	1.079646	0.731518	6
C	-0.817795	1.817996	1.226908	6
C	1.136255	0.951966	-1.503582	6
O	2.146425	0.391627	-1.922212	8
H	-0.498495	-2.955324	0.481188	1
H	-1.688525	-1.732353	0.005478	1
H	-0.710825	-1.506484	1.470498	1
H	0.415875	-1.663284	-1.374712	1
H	1.354615	-1.349804	0.075778	1
H	-0.864015	0.455236	-1.048602	1
H	1.114805	1.010087	1.295158	1
H	-1.769825	1.915686	0.713518	1
H	-0.707675	2.337846	2.174428	1
H	0.912055	1.989146	-1.808302	1
Es	2.315036	0.576957	-2.109832	99
Es	0.374101	-1.182467	-0.388839	99
Es	-1.373557	-1.774216	0.140751	99
Es	0.245030	-0.408470	-0.469471	99
Es	0.393463	-1.501530	-1.060472	99
Es	2.146182	0.391733	-1.922101	99
Es	-0.695446	-1.879149	0.441773	99
Es	0.114031	0.319745	-0.569982	99
Es	-0.430903	1.194418	1.129042	99
Es	0.184521	1.079568	0.731433	99
Es	-0.559217	-2.610696	0.465382	99
Es	1.136269	0.951949	-1.503560	99
Es	-0.204389	1.715044	0.817526	99
Es	1.906894	0.678371	-1.570789	99
Es	-0.817864	1.818049	1.226938	99
Es	0.626061	0.633398	-1.031784	99
Es	1.036099	-1.286452	-0.065543	99
Es	0.818139	1.024445	1.101201	99
Es	0.152864	0.704028	0.070406	99
Es	0.970417	1.662817	-1.703571	99
Es	-0.704761	-1.622986	1.139422	99
Es	1.650856	0.510660	-1.965309	99
Es	-0.749527	2.171670	1.866332	99
Es	2.176703	0.097997	-1.817114	99
Es	-1.463276	1.886126	0.880008	99
Es	-0.168717	-1.518124	0.031437	99
Es	-0.542652	0.422222	-0.896144	99
