40
Properties=species:S:1:pos:R:3:Z:I:1 energy=-322.7491926177754 field_type=dipole dipole="0.000000 0.000000 0.000000" charge=0
C	-2.017716	-0.642618	0.024912	6
C	-0.545847	-0.834318	-0.302018	6
C	0.229834	0.426332	-0.093728	6
O	0.634343	0.662592	1.258692	8
C	1.682973	0.381921	0.313182	6
C	2.528594	1.501112	0.026492	6
N	3.221673	2.395521	-0.231418	7
H	-2.570527	-1.571779	-0.143888	1
H	-2.460647	0.138452	-0.601858	1
H	-2.151807	-0.348348	1.071072	1
H	-0.444396	-1.143678	-1.348278	1
H	-0.143027	-1.647188	0.313742	1
H	-0.133657	1.263662	-0.676168	1
H	2.170204	-0.581658	0.389262	1
Es	-1.270471	-0.726628	-0.138886	99
Es	0.639848	0.966721	1.323516	99
Es	0.375226	0.600345	0.781037	99
Es	1.125125	0.567142	0.956766	99
Es	0.583516	0.400694	1.422692	99
Es	-0.140231	-0.201388	-0.194088	99
Es	0.634439	0.662517	1.258348	99
Es	2.907241	1.892464	-0.405780	99
Es	-2.017662	-0.642621	0.024892	99
Es	-2.312176	-0.109443	-0.405470	99
Es	2.679718	2.172405	-0.014834	99
Es	0.230011	0.426366	-0.093437	99
Es	-0.264022	-1.378309	0.117644	99
Es	2.019322	-0.248793	0.368370	99
Es	1.076297	0.374101	-0.111395	99
Es	2.528404	1.500854	0.026578	99
Es	-2.103498	-0.443701	0.731242	99
Es	1.682824	0.382143	0.313370	99
Es	-0.473072	-1.033391	-1.014564	99
Es	-0.013382	0.997794	-0.478847	99
Es	-0.545845	-0.834261	-0.302009	99
Es	-2.387265	-1.274147	-0.092080	99
Es	3.439321	2.678516	-0.313293	99
Es	3.117258	1.881012	0.082194	99
Es	3.221394	2.395161	-0.231315	99
Es	2.130225	0.971300	0.167546	99
