37
Properties=species:S:1:pos:R:3:Z:I:1 energy=-323.5551921461151 field_type=dipole dipole="0.000000 0.000000 0.000000" charge=0
C	-1.634282	0.494262	0.602234	6
C	-0.306722	0.487712	0.385314	6
C	0.474128	-0.789018	0.236244	6
C	0.961478	-0.997508	-1.183006	6
O	0.506388	-0.432738	-2.172146	8
C	0.407378	1.724362	0.329054	6
N	1.008978	2.716922	0.316294	7
H	-2.187282	1.423652	0.716744	1
H	-2.208512	-0.425208	0.657174	1
H	-0.118362	-1.668468	0.512374	1
H	1.351068	-0.767388	0.893734	1
H	1.745738	-1.766578	-1.294016	1
Es	0.474105	-0.788963	0.236194	99
Es	1.195711	3.025556	0.313313	99
Es	0.510714	-0.821001	-1.814020	99
Es	0.961516	2.107377	0.195596	99
Es	0.074051	1.127192	0.347592	99
Es	-0.973413	0.526017	0.189492	99
Es	0.505169	2.371437	0.154453	99
Es	1.492539	-1.519647	-1.238851	99
Es	0.506477	-0.432856	-2.171914	99
Es	-2.000820	1.106696	0.678827	99
Es	0.644008	-0.533242	-2.423642	99
Es	-0.872336	0.509338	0.797893	99
Es	0.084653	-1.359998	0.391448	99
Es	0.288476	-0.233292	-2.090909	99
Es	0.709053	-0.870310	-0.455507	99
Es	1.008770	2.716590	0.316299	99
Es	0.089210	-0.133569	0.304773	99
Es	0.850310	-0.470582	-1.766298	99
Es	-1.634305	0.494259	0.602229	99
Es	0.690256	2.256832	0.621584	99
Es	0.407237	1.724105	0.329041	99
Es	-0.306544	0.487775	0.385283	99
Es	1.047594	-0.770315	0.654177	99
Es	0.961426	-0.997468	-1.182979	99
Es	-2.009914	-0.120696	0.640164	99
