37
Properties=species:S:1:pos:R:3:Z:I:1 energy=-321.6001521534884 field_type=dipole dipole="0.000000 0.000000 0.000000" charge=0
C	-1.634282	0.494262	0.602234	6
C	-0.306722	0.487712	0.385314	6
C	0.474128	-0.789018	0.236244	6
C	0.961478	-0.997508	-1.183006	6
O	0.506388	-0.432738	-2.172146	8
C	0.407378	1.724362	0.329054	6
N	1.008978	2.716922	0.316294	7
H	-2.187282	1.423652	0.716744	1
H	-2.208512	-0.425208	0.657174	1
H	-0.118362	-1.668468	0.512374	1
H	1.351068	-0.767388	0.893734	1
H	1.745738	-1.766578	-1.294016	1
Es	0.506495	-0.432885	-2.171850	99
Es	0.846878	-0.460405	-1.780401	99
Es	1.198621	3.030792	0.312944	99
Es	0.707314	2.264497	0.019729	99
Es	-0.871735	0.502526	0.810461	99
Es	0.967972	2.117094	0.457312	99
Es	0.642243	-0.528271	-2.435516	99
Es	0.961454	-0.997487	-1.182968	99
Es	-1.634333	0.494256	0.602249	99
Es	-0.306525	0.487802	0.385290	99
Es	0.077105	-1.370743	0.401730	99
Es	-2.015833	-0.125254	0.640776	99
Es	0.088102	-0.133742	0.305159	99
Es	-0.977014	0.520095	0.181092	99
Es	0.283594	-0.226583	-2.099201	99
Es	1.498025	-1.524580	-1.240928	99
Es	0.500536	-0.817073	-1.831077	99
Es	0.407205	1.724077	0.329056	99
Es	1.008727	2.716509	0.316297	99
Es	1.059305	-0.771283	0.664759	99
Es	0.511013	2.392627	0.492874	99
Es	0.075435	1.132256	0.347569	99
Es	-2.005249	1.111962	0.679791	99
Es	0.474108	-0.788966	0.236199	99
Es	0.713926	-0.873649	-0.462388	99
