14
Properties=species:S:1:pos:R:3:Z:I:1 energy=-78.06490694393145 field_type=dipole dipole="0.000000 0.000000 0.000000" charge=0
C	-0.662428	0.000105	0.000000	6
C	0.662428	-0.000105	0.000000	6
H	-1.231463	0.920907	-0.000000	1
H	-1.231756	-0.920515	-0.000000	1
H	1.231757	0.920515	-0.000000	1
H	1.231463	-0.920907	-0.000000	1
Es	-0.662545	0.000105	0.000003	99
Es	-0.000005	-0.000010	0.323204	99
Es	1.052980	-0.622079	0.000006	99
Es	1.053117	0.621764	-0.000015	99
Es	0.000004	-0.000030	-0.323323	99
Es	0.662545	-0.000105	0.000001	99
Es	-1.053163	-0.621750	0.000068	99
Es	-1.052932	0.622106	0.000056	99
