14
Properties=species:S:1:pos:R:3:Z:I:1 energy=-78.05594248636362 field_type=dipole dipole="0.000000 0.000000 0.000000" charge=0
C	-0.662428	0.000105	0.000000	6
C	0.662428	-0.000105	0.000000	6
H	-1.231463	0.920907	-0.000000	1
H	-1.231756	-0.920515	-0.000000	1
H	1.231757	0.920515	-0.000000	1
H	1.231463	-0.920907	-0.000000	1
Es	0.662539	-0.000105	-0.000003	99
Es	0.000000	-0.000004	0.320103	99
Es	1.052204	-0.621901	0.000032	99
Es	1.052428	0.621567	0.000051	99
Es	-1.052399	-0.621592	0.000025	99
Es	-0.000004	0.000004	-0.320227	99
Es	-1.052228	0.621926	0.000019	99
Es	-0.662540	0.000105	-0.000001	99
