33
Properties=species:S:1:pos:R:3:Z:I:1 energy=-230.75586900622895 field_type=dipole dipole="0.000000 0.000000 0.000000" charge=0
C	-1.213100	-0.688400	0.000000	6
C	-1.202800	0.706400	0.000100	6
C	-0.010300	-1.394800	0.000000	6
C	0.010400	1.394800	-0.000100	6
C	1.202800	-0.706300	0.000000	6
C	1.213100	0.688400	0.000000	6
H	-2.157700	-1.224400	0.000000	1
H	-2.139300	1.256400	0.000100	1
H	-0.018400	-2.480900	-0.000100	1
H	0.018400	2.480800	0.000000	1
H	2.139400	-1.256300	0.000100	1
H	2.157700	1.224500	0.000000	1
Es	-0.017942	-2.134212	-0.000003	99
Es	-1.213126	-0.688412	-0.000001	99
Es	0.531638	-0.935763	0.287337	99
Es	0.013779	2.134208	-0.000165	99
Es	1.841523	-1.078920	0.000044	99
Es	1.224515	-0.009020	-0.000037	99
Es	-1.855172	-1.055154	-0.000025	99
Es	-0.620090	-1.055939	0.000697	99
Es	1.213123	0.688417	-0.000003	99
Es	1.202823	-0.706317	-0.000000	99
Es	-1.074550	0.007367	-0.287733	99
Es	-1.076130	0.007490	0.287279	99
Es	0.530962	-0.934200	-0.287693	99
Es	-0.604422	1.065059	-0.000040	99
Es	-0.010297	-1.394828	-0.000003	99
Es	0.543331	0.926189	0.287646	99
Es	0.544888	0.928974	-0.287392	99
Es	-1.839325	1.082663	0.000162	99
Es	1.857267	1.051500	-0.000029	99
Es	0.010403	1.394828	-0.000100	99
Es	-1.202826	0.706413	0.000102	99
