14
Properties=species:S:1:pos:R:3:Z:I:1 energy=-187.68919801779822 field_type=dipole dipole="0.000000 0.000000 0.000000" charge=0
O	-1.160482	0.000000	-0.000000	8
O	1.160482	0.000000	-0.000000	8
C	-0.000000	-0.000000	0.000000	6
Es	-1.433408	0.000117	-0.000163	99
Es	0.000001	-0.000000	-0.000004	99
Es	-0.846674	0.203973	-0.175228	99
Es	0.847643	0.229929	0.140228	99
Es	-0.846524	0.049971	0.264632	99
Es	0.844454	-0.236412	0.128022	99
Es	1.157093	0.000021	0.000008	99
Es	-1.157096	0.000009	0.000004	99
Es	0.847059	0.008277	-0.268090	99
Es	1.433923	-0.001803	-0.000164	99
Es	-0.846470	-0.254082	-0.089247	99
