14
Properties=species:S:1:pos:R:3:Z:I:1 energy=-187.6891980189598 field_type=dipole dipole="0.000000 0.000000 0.000000" charge=0
O	-1.157569	0.000000	0.000000	8
O	1.157569	0.000000	0.000000	8
C	0.000000	0.000000	0.000000	6
Es	-0.844848	-0.039988	-0.266903	99
Es	0.847475	0.265315	-0.044784	99
Es	-1.433677	0.000225	-0.000304	99
Es	0.845051	-0.093810	0.251488	99
Es	1.157099	-0.000008	-0.000002	99
Es	1.433755	-0.000757	0.001527	99
Es	0.000004	-0.000003	-0.000008	99
Es	-0.847472	-0.209640	0.167860	99
Es	-1.157106	-0.000010	-0.000005	99
Es	-0.847073	0.249410	0.099334	99
Es	0.846791	-0.170734	-0.208203	99
