31
Properties=species:S:1:pos:R:3:Z:I:1 energy=-551.3501190493658 field_type=dipole dipole="0.000000 0.000000 0.000000" charge=0
S	-0.562156	-1.669827	0.023547	16
C	-1.352065	-0.135529	0.007030	6
C	-0.451572	0.888278	-0.009534	6
C	0.896834	0.434329	-0.009065	6
C	0.994826	-0.925617	0.007882	6
H	-2.427134	-0.079983	0.010532	1
H	-0.737651	1.929391	-0.021685	1
H	1.754292	1.090476	-0.020807	1
H	1.884626	-1.531514	0.012102	1
Es	-0.611057	-1.813848	0.450360	99
Es	1.581268	-1.338865	0.010819	99
Es	-0.997754	-0.891541	0.015649	99
Es	0.896828	0.434354	-0.009065	99
Es	-2.069049	-0.110011	0.009549	99
Es	-1.352052	-0.135742	0.007033	99
Es	-0.640406	1.590490	-0.017666	99
Es	-0.868477	0.359706	-0.312261	99
Es	-0.612366	-1.819733	-0.400143	99
Es	-0.563129	-1.670071	0.023436	99
Es	-0.866947	0.367888	0.309311	99
Es	-0.651866	-1.680364	0.097801	99
Es	1.471918	0.879334	-0.017029	99
Es	0.994688	-0.925776	0.007888	99
Es	0.909812	-0.239007	-0.311410	99
Es	0.912446	-0.231101	0.310009	99
Es	-0.465355	-1.720366	0.070435	99
Es	-0.541462	-1.554273	0.003617	99
Es	-0.587875	-1.721468	-0.077621	99
Es	-0.451553	0.888297	-0.009536	99
Es	0.235385	0.699503	-0.009353	99
Es	0.255338	-1.313359	0.016632	99
