31
Properties=species:S:1:pos:R:3:Z:I:1 energy=-551.381186988913 field_type=dipole dipole="0.000000 0.000000 0.000000" charge=0
S	-0.562156	-1.669827	0.023547	16
C	-1.352065	-0.135529	0.007030	6
C	-0.451572	0.888278	-0.009534	6
C	0.896834	0.434329	-0.009065	6
C	0.994826	-0.925617	0.007882	6
H	-2.427134	-0.079983	0.010532	1
H	-0.737651	1.929391	-0.021685	1
H	1.754292	1.090476	-0.020807	1
H	1.884626	-1.531514	0.012102	1
Es	-0.506774	-1.711631	-0.070645	99
Es	1.472373	0.879900	-0.017040	99
Es	-0.545634	-1.551514	0.028710	99
Es	-0.451550	0.888307	-0.009538	99
Es	-0.640482	1.591215	-0.017790	99
Es	-0.607452	-1.803965	0.450381	99
Es	0.258594	-1.313192	0.014897	99
Es	0.994687	-0.925784	0.007896	99
Es	-0.866334	0.355451	-0.311744	99
Es	-0.678826	-1.694952	0.017024	99
Es	0.896834	0.434356	-0.009066	99
Es	0.907390	-0.232801	0.310060	99
Es	-0.863832	0.363387	0.309464	99
Es	-1.000186	-0.889449	0.014530	99
Es	-0.516662	-1.717964	0.118880	99
Es	-0.562185	-1.669932	0.023615	99
Es	1.582284	-1.338560	0.010803	99
Es	-0.613681	-1.824840	-0.397504	99
Es	-1.352058	-0.135747	0.007031	99
Es	-2.069595	-0.109179	0.009491	99
Es	0.905179	-0.240828	-0.311032	99
Es	0.235804	0.700461	-0.009953	99
