32
Properties=species:S:1:pos:R:3:Z:I:1 energy=-698.130091050524 field_type=dipole dipole="0.000000 0.000000 0.000000" charge=0
S	0.000200	-0.000200	-0.118100	16
O	1.274400	0.035500	0.897500	8
O	-1.276500	-0.032600	0.894900	8
O	-0.033600	1.257700	-0.839100	8
O	0.035400	-1.260400	-0.835100	8
H	1.211100	0.691200	1.631200	1
H	-1.214800	-0.685900	1.630700	1
Es	-0.275362	1.167390	-0.982549	99
Es	-1.276226	-0.032836	0.894958	99
Es	1.274088	0.035733	0.897538	99
Es	-1.258917	0.244595	1.014457	99
Es	-0.073017	-0.053385	-0.197654	99
Es	-0.033593	1.257457	-0.838947	99
Es	-1.206656	-0.383014	1.252960	99
Es	-0.808768	-0.054946	0.581918	99
Es	0.278081	-1.171543	-0.976779	99
Es	-0.062859	0.790452	-0.530679	99
Es	0.228976	1.111363	-0.926178	99
Es	-0.226115	-1.113470	-0.924734	99
Es	-0.054522	0.010832	-0.013257	99
Es	-1.484997	-0.105985	0.701451	99
Es	-0.018442	1.423946	-0.592436	99
Es	0.029194	0.105830	-0.156319	99
Es	0.017938	-1.425913	-0.587615	99
Es	0.099174	-0.063926	-0.104603	99
Es	1.203866	0.386683	1.254615	99
Es	1.257650	-0.240045	1.017498	99
Es	0.000163	-0.000345	-0.117867	99
Es	0.806205	0.055398	0.584579	99
Es	1.483387	0.108779	0.703213	99
Es	0.035392	-1.260163	-0.834953	99
Es	0.064368	-0.791966	-0.528371	99
