32
Properties=species:S:1:pos:R:3:Z:I:1 energy=-698.2473096191108 field_type=dipole dipole="0.000000 0.000000 0.000000" charge=0
S	-0.007035	-0.007972	0.006533	16
O	1.257110	-0.004178	1.003448	8
O	-1.242462	0.026794	1.038254	8
O	-0.046202	1.246271	-0.689258	8
O	0.013171	-1.287795	-0.641871	8
H	1.467336	0.913111	1.234842	1
H	-1.445719	-0.880931	1.310054	1
Es	0.221800	1.146875	-0.792993	99
Es	0.036575	-0.808546	-0.401915	99
Es	-0.259325	-1.177916	-0.735997	99
Es	1.256886	-0.003915	1.003349	99
Es	0.814889	0.031093	0.680991	99
Es	0.005943	-1.399764	-0.359776	99
Es	1.160266	-0.162429	1.230400	99
Es	-1.316917	-0.450674	1.169956	99
Es	0.007331	-0.118570	-0.029574	99
Es	-0.811625	-0.021052	0.702538	99
Es	0.088235	0.027129	0.075364	99
Es	-0.046189	1.246017	-0.689102	99
Es	0.013160	-1.287550	-0.641735	99
Es	-0.017085	0.061064	-0.087389	99
Es	-0.039904	1.369037	-0.412740	99
Es	-1.136934	0.193226	1.256899	99
Es	-0.106599	-0.001472	0.068656	99
Es	0.251759	-1.225094	-0.786611	99
Es	1.335329	0.477862	1.115288	99
Es	-1.442092	0.105322	0.847007	99
Es	-0.292054	1.165172	-0.818628	99
Es	-0.048662	0.775273	-0.429826	99
Es	-0.007057	-0.007968	0.006532	99
Es	-1.242192	0.026515	1.038161	99
Es	1.450541	-0.089627	0.807514	99
