32
Properties=species:S:1:pos:R:3:Z:I:1 energy=-698.1300910273353 field_type=dipole dipole="0.000000 0.000000 0.000000" charge=0
S	0.000200	-0.000200	-0.118100	16
O	1.274400	0.035500	0.897500	8
O	-1.276500	-0.032600	0.894900	8
O	-0.033600	1.257700	-0.839100	8
O	0.035400	-1.260400	-0.835100	8
H	1.211100	0.691200	1.631200	1
H	-1.214800	-0.685900	1.630700	1
Es	0.000246	-0.000173	-0.117916	99
Es	0.035393	-1.260158	-0.834949	99
Es	-0.029903	-0.054423	-0.014157	99
Es	-1.206510	-0.382089	1.253662	99
Es	-0.050720	-0.055749	-0.209515	99
Es	-0.230748	-1.116724	-0.916270	99
Es	0.233603	1.109519	-0.913410	99
Es	1.258689	-0.241026	1.016217	99
Es	-0.266594	1.169142	-0.994229	99
Es	0.116860	-0.002180	-0.131820	99
Es	0.065963	-0.791605	-0.529111	99
Es	-1.484581	-0.107570	0.700327	99
Es	-0.033586	1.257480	-0.838969	99
Es	1.482665	0.110276	0.703685	99
Es	-0.070619	0.790217	-0.532864	99
Es	-0.807471	-0.053604	0.583263	99
Es	0.026438	-1.425489	-0.587344	99
Es	1.203476	0.385554	1.255617	99
Es	0.272569	-1.169076	-0.984785	99
Es	1.274006	0.035663	0.897573	99
Es	-0.024113	1.424274	-0.591268	99
Es	-1.276172	-0.032854	0.894930	99
Es	-0.035416	0.111510	-0.116327	99
Es	-1.260826	0.243931	1.013555	99
Es	0.806360	0.056074	0.584349	99
