27
Properties=species:S:1:pos:R:3:Z:I:1 energy=-172.13138253571316 field_type=dipole dipole="0.000000 0.000000 0.000000" charge=0
C	-1.239611	-0.008605	0.579296	6
N	0.213849	-0.079675	0.698436	7
C	0.850879	-0.748455	-0.430544	6
C	0.920349	0.749585	-0.271084	6
H	-1.624341	0.749155	1.269866	1
H	-1.681221	-0.969605	0.862736	1
H	-1.599181	0.242405	-0.426174	1
H	0.223419	-1.160965	-1.210554	1
H	1.735969	-1.326505	-0.194884	1
H	1.853749	1.181394	0.069916	1
H	0.346139	1.371275	-0.947014	1
Es	-1.239482	-0.008610	0.579298	99
Es	0.521505	1.171714	-0.727404	99
Es	0.469161	0.408014	0.335613	99
Es	1.008846	0.013865	-0.538305	99
Es	1.553510	1.047570	-0.040645	99
Es	-1.476310	0.163715	-0.121285	99
Es	0.213666	-0.079601	0.697804	99
Es	-1.501577	0.511615	1.045551	99
Es	0.850797	-0.748276	-0.430399	99
Es	-1.538923	-0.665905	0.768514	99
Es	1.450566	-1.145437	-0.272957	99
Es	0.416404	-1.028028	-0.958493	99
Es	-0.414746	-0.043329	0.606974	99
Es	0.355146	-0.121727	1.019815	99
Es	0.429470	-0.499289	0.236825	99
Es	0.920246	0.749394	-0.270973	99
27
Properties=species:S:1:pos:R:3:Z:I:1 energy=-172.13138253571316 field_type=dipole dipole="0.000000 0.000000 0.000000" charge=0
C	-1.239611	-0.008605	0.579296	6
N	0.213849	-0.079675	0.698436	7
C	0.850879	-0.748455	-0.430544	6
C	0.920349	0.749585	-0.271084	6
H	-1.624341	0.749155	1.269866	1
H	-1.681221	-0.969605	0.862736	1
H	-1.599181	0.242405	-0.426174	1
H	0.223419	-1.160965	-1.210554	1
H	1.735969	-1.326505	-0.194884	1
H	1.853749	1.181394	0.069916	1
H	0.346139	1.371275	-0.947014	1
Es	0.416819	-1.028383	-0.957521	99
Es	-0.414647	-0.043299	0.608511	99
Es	0.521810	1.171730	-0.726456	99
Es	1.010384	0.014276	-0.540602	99
Es	-1.239484	-0.008609	0.579299	99
Es	-1.501615	0.512763	1.045519	99
Es	1.552481	1.047882	-0.040723	99
Es	0.213658	-0.079598	0.697796	99
Es	0.429940	-0.503283	0.237828	99
Es	0.920246	0.749392	-0.270974	99
Es	1.449601	-1.145478	-0.273041	99
Es	0.850793	-0.748278	-0.430396	99
Es	0.469805	0.410813	0.336877	99
Es	0.352997	-0.120700	1.015960	99
Es	-1.475314	0.163561	-0.120195	99
Es	-1.539194	-0.667101	0.768051	99
27
Properties=species:S:1:pos:R:3:Z:I:1 energy=-172.13138253571316 field_type=dipole dipole="0.000000 0.000000 0.000000" charge=0
C	-1.239611	-0.008605	0.579296	6
N	0.213849	-0.079675	0.698436	7
C	0.850879	-0.748455	-0.430544	6
C	0.920349	0.749585	-0.271084	6
H	-1.624341	0.749155	1.269866	1
H	-1.681221	-0.969605	0.862736	1
H	-1.599181	0.242405	-0.426174	1
H	0.223419	-1.160965	-1.210554	1
H	1.735969	-1.326505	-0.194884	1
H	1.853749	1.181394	0.069916	1
H	0.346139	1.371275	-0.947014	1
Es	1.011476	0.014419	-0.542274	99
Es	-1.239485	-0.008610	0.579298	99
Es	0.351585	-0.120525	1.012961	99
Es	0.920248	0.749394	-0.270974	99
Es	-1.539286	-0.667806	0.767762	99
Es	-1.501618	0.513605	1.045501	99
Es	0.213656	-0.079599	0.697771	99
Es	1.551771	1.047913	-0.040834	99
Es	-1.474636	0.163341	-0.119488	99
Es	0.470165	0.413251	0.338061	99
Es	-0.414447	-0.043534	0.609821	99
Es	1.448862	-1.145636	-0.273188	99
Es	0.522149	1.171768	-0.725811	99
Es	0.850790	-0.748283	-0.430393	99
Es	0.417123	-1.028403	-0.956797	99
Es	0.429925	-0.505608	0.238516	99
27
Properties=species:S:1:pos:R:3:Z:I:1 energy=-172.13138253571316 field_type=dipole dipole="0.000000 0.000000 0.000000" charge=0
C	-1.239611	-0.008605	0.579296	6
N	0.213849	-0.079675	0.698436	7
C	0.850879	-0.748455	-0.430544	6
C	0.920349	0.749585	-0.271084	6
H	-1.624341	0.749155	1.269866	1
H	-1.681221	-0.969605	0.862736	1
H	-1.599181	0.242405	-0.426174	1
H	0.223419	-1.160965	-1.210554	1
H	1.735969	-1.326505	-0.194884	1
H	1.853749	1.181394	0.069916	1
H	0.346139	1.371275	-0.947014	1
Es	1.448293	-1.145571	-0.273299	99
Es	1.012309	0.014447	-0.543630	99
Es	0.920250	0.749393	-0.270974	99
Es	-1.474089	0.163287	-0.118917	99
Es	1.551125	1.047820	-0.040912	99
Es	0.470273	0.414903	0.339013	99
Es	0.213666	-0.079597	0.697782	99
Es	-1.239483	-0.008610	0.579298	99
Es	0.522451	1.171888	-0.725277	99
Es	-1.539294	-0.668486	0.767498	99
Es	0.350933	-0.120583	1.010882	99
Es	0.429562	-0.507159	0.238702	99
Es	0.417427	-1.028500	-0.956287	99
Es	-0.414406	-0.043468	0.610920	99
Es	-1.501530	0.514205	1.045528	99
Es	0.850792	-0.748282	-0.430397	99
27
Properties=species:S:1:pos:R:3:Z:I:1 energy=-172.13138253571316 field_type=dipole dipole="0.000000 0.000000 0.000000" charge=0
C	-1.239611	-0.008605	0.579296	6
N	0.213849	-0.079675	0.698436	7
C	0.850879	-0.748455	-0.430544	6
C	0.920349	0.749585	-0.271084	6
H	-1.624341	0.749155	1.269866	1
H	-1.681221	-0.969605	0.862736	1
H	-1.599181	0.242405	-0.426174	1
H	0.223419	-1.160965	-1.210554	1
H	1.735969	-1.326505	-0.194884	1
H	1.853749	1.181394	0.069916	1
H	0.346139	1.371275	-0.947014	1
Es	1.550594	1.047948	-0.041001	99
Es	-1.539226	-0.668858	0.767345	99
Es	0.470203	0.416113	0.339309	99
Es	0.522682	1.171723	-0.724898	99
Es	1.013209	0.014561	-0.544764	99
Es	0.213636	-0.079590	0.697729	99
Es	-1.501500	0.514682	1.045555	99
Es	-0.414304	-0.043711	0.612014	99
Es	0.429412	-0.508742	0.239608	99
Es	-1.239481	-0.008609	0.579298	99
Es	0.417679	-1.028523	-0.955857	99
Es	0.350298	-0.119984	1.008912	99
Es	1.447729	-1.145571	-0.273372	99
Es	0.850793	-0.748284	-0.430398	99
Es	0.920247	0.749396	-0.270974	99
Es	-1.473691	0.163134	-0.118574	99
27
Properties=species:S:1:pos:R:3:Z:I:1 energy=-172.13138253571316 field_type=dipole dipole="0.000000 0.000000 0.000000" charge=0
C	-1.239611	-0.008605	0.579296	6
N	0.213849	-0.079675	0.698436	7
C	0.850879	-0.748455	-0.430544	6
C	0.920349	0.749585	-0.271084	6
H	-1.624341	0.749155	1.269866	1
H	-1.681221	-0.969605	0.862736	1
H	-1.599181	0.242405	-0.426174	1
H	0.223419	-1.160965	-1.210554	1
H	1.735969	-1.326505	-0.194884	1
H	1.853749	1.181394	0.069916	1
H	0.346139	1.371275	-0.947014	1
Es	-1.473245	0.163031	-0.118140	99
Es	0.469957	0.417019	0.339958	99
Es	0.213669	-0.079600	0.697809	99
Es	0.429256	-0.509696	0.239761	99
Es	0.920251	0.749390	-0.270974	99
Es	-1.239483	-0.008610	0.579299	99
Es	1.550142	1.047934	-0.041096	99
Es	0.522840	1.171714	-0.724567	99
Es	0.850793	-0.748279	-0.430400	99
Es	1.447304	-1.145518	-0.273467	99
Es	0.417849	-1.028592	-0.955442	99
Es	-1.539223	-0.669304	0.767156	99
Es	0.350048	-0.119831	1.007244	99
Es	-1.501432	0.515161	1.045523	99
Es	-0.414323	-0.043827	0.613045	99
Es	1.013878	0.014694	-0.545779	99
27
Properties=species:S:1:pos:R:3:Z:I:1 energy=-172.13138253571316 field_type=dipole dipole="0.000000 0.000000 0.000000" charge=0
C	-1.239611	-0.008605	0.579296	6
N	0.213849	-0.079675	0.698436	7
C	0.850879	-0.748455	-0.430544	6
C	0.920349	0.749585	-0.271084	6
H	-1.624341	0.749155	1.269866	1
H	-1.681221	-0.969605	0.862736	1
H	-1.599181	0.242405	-0.426174	1
H	0.223419	-1.160965	-1.210554	1
H	1.735969	-1.326505	-0.194884	1
H	1.853749	1.181394	0.069916	1
H	0.346139	1.371275	-0.947014	1
Es	0.213654	-0.079596	0.697778	99
Es	1.014444	0.014838	-0.546543	99
Es	0.920242	0.749395	-0.270971	99
Es	1.446923	-1.145449	-0.273554	99
Es	0.469752	0.417738	0.340244	99
Es	0.349905	-0.119418	1.005712	99
Es	0.850793	-0.748280	-0.430396	99
Es	0.418045	-1.028591	-0.955177	99
Es	0.428941	-0.510869	0.240234	99
Es	-1.239484	-0.008610	0.579299	99
Es	1.549746	1.047766	-0.041186	99
Es	-1.501351	0.515497	1.045561	99
Es	0.523090	1.171768	-0.724339	99
Es	-1.472976	0.162939	-0.117888	99
Es	-1.539117	-0.669605	0.767058	99
Es	-0.414328	-0.043836	0.614101	99
27
Properties=species:S:1:pos:R:3:Z:I:1 energy=-172.13138253571316 field_type=dipole dipole="0.000000 0.000000 0.000000" charge=0
C	-1.239611	-0.008605	0.579296	6
N	0.213849	-0.079675	0.698436	7
C	0.850879	-0.748455	-0.430544	6
C	0.920349	0.749585	-0.271084	6
H	-1.624341	0.749155	1.269866	1
H	-1.681221	-0.969605	0.862736	1
H	-1.599181	0.242405	-0.426174	1
H	0.223419	-1.160965	-1.210554	1
H	1.735969	-1.326505	-0.194884	1
H	1.853749	1.181394	0.069916	1
H	0.346139	1.371275	-0.947014	1
Es	0.850789	-0.748276	-0.430395	99
Es	-1.501244	0.515802	1.045538	99
Es	0.349579	-0.119468	1.004572	99
Es	0.523190	1.171708	-0.724088	99
Es	-1.472667	0.162879	-0.117670	99
Es	0.213653	-0.079595	0.697754	99
Es	0.428705	-0.511495	0.240448	99
Es	-0.414470	-0.043814	0.614710	99
Es	1.015042	0.014861	-0.547338	99
Es	-1.239480	-0.008610	0.579297	99
Es	1.446503	-1.145403	-0.273615	99
Es	0.418249	-1.028583	-0.954859	99
Es	-1.539075	-0.669886	0.766984	99
Es	0.469841	0.418372	0.340817	99
Es	0.920248	0.749393	-0.270974	99
Es	1.549417	1.047802	-0.041247	99
27
Properties=species:S:1:pos:R:3:Z:I:1 energy=-172.13138253571316 field_type=dipole dipole="0.000000 0.000000 0.000000" charge=0
C	-1.239611	-0.008605	0.579296	6
N	0.213849	-0.079675	0.698436	7
C	0.850879	-0.748455	-0.430544	6
C	0.920349	0.749585	-0.271084	6
H	-1.624341	0.749155	1.269866	1
H	-1.681221	-0.969605	0.862736	1
H	-1.599181	0.242405	-0.426174	1
H	0.223419	-1.160965	-1.210554	1
H	1.735969	-1.326505	-0.194884	1
H	1.853749	1.181394	0.069916	1
H	0.346139	1.371275	-0.947014	1
Es	-1.501152	0.516040	1.045514	99
Es	0.920241	0.749391	-0.270970	99
Es	0.349654	-0.119400	1.003356	99
Es	0.418387	-1.028612	-0.954698	99
Es	0.850792	-0.748280	-0.430395	99
Es	-1.538997	-0.670128	0.766955	99
Es	0.428489	-0.511978	0.240528	99
Es	0.523359	1.171715	-0.723977	99
Es	-1.472421	0.162825	-0.117534	99
Es	-1.239485	-0.008611	0.579299	99
Es	0.213656	-0.079594	0.697761	99
Es	1.549052	1.047705	-0.041315	99
Es	1.015478	0.014863	-0.547804	99
Es	1.446268	-1.145316	-0.273655	99
Es	-0.414570	-0.044007	0.615730	99
Es	0.469530	0.419073	0.341137	99
27
Properties=species:S:1:pos:R:3:Z:I:1 energy=-172.13138253571316 field_type=dipole dipole="0.000000 0.000000 0.000000" charge=0
C	-1.239611	-0.008605	0.579296	6
N	0.213849	-0.079675	0.698436	7
C	0.850879	-0.748455	-0.430544	6
C	0.920349	0.749585	-0.271084	6
H	-1.624341	0.749155	1.269866	1
H	-1.681221	-0.969605	0.862736	1
H	-1.599181	0.242405	-0.426174	1
H	0.223419	-1.160965	-1.210554	1
H	1.735969	-1.326505	-0.194884	1
H	1.853749	1.181394	0.069916	1
H	0.346139	1.371275	-0.947014	1
Es	0.850790	-0.748284	-0.430395	99
Es	1.548746	1.047665	-0.041338	99
Es	1.015904	0.014985	-0.548314	99
Es	0.213654	-0.079595	0.697770	99
Es	-1.472161	0.162723	-0.117393	99
Es	0.920252	0.749393	-0.270978	99
Es	0.469471	0.419557	0.341128	99
Es	0.349716	-0.119259	1.002266	99
Es	-1.501198	0.516267	1.045553	99
Es	0.418565	-1.028649	-0.954510	99
Es	-0.414583	-0.044094	0.616697	99
Es	1.445959	-1.145196	-0.273683	99
Es	0.523448	1.171731	-0.723779	99
Es	-1.239486	-0.008610	0.579298	99
Es	-1.538892	-0.670276	0.766810	99
Es	0.428093	-0.512671	0.240799	99
27
Properties=species:S:1:pos:R:3:Z:I:1 energy=-172.13138253571316 field_type=dipole dipole="0.000000 0.000000 0.000000" charge=0
C	-1.239611	-0.008605	0.579296	6
N	0.213849	-0.079675	0.698436	7
C	0.850879	-0.748455	-0.430544	6
C	0.920349	0.749585	-0.271084	6
H	-1.624341	0.749155	1.269866	1
H	-1.681221	-0.969605	0.862736	1
H	-1.599181	0.242405	-0.426174	1
H	0.223419	-1.160965	-1.210554	1
H	1.735969	-1.326505	-0.194884	1
H	1.853749	1.181394	0.069916	1
H	0.346139	1.371275	-0.947014	1
Es	0.213669	-0.079604	0.697832	99
Es	1.016187	0.015071	-0.548907	99
Es	0.469253	0.420007	0.341506	99
Es	0.523616	1.171747	-0.723626	99
Es	0.920244	0.749391	-0.270974	99
Es	0.349480	-0.119115	1.001434	99
Es	-0.414638	-0.044219	0.617074	99
Es	1.445742	-1.145190	-0.273745	99
Es	0.850791	-0.748282	-0.430396	99
Es	-1.239482	-0.008610	0.579298	99
Es	1.548551	1.047540	-0.041406	99
Es	0.418680	-1.028617	-0.954251	99
Es	-1.501078	0.516432	1.045564	99
Es	0.428079	-0.513124	0.241041	99
Es	-1.538848	-0.670471	0.766762	99
Es	-1.471968	0.162730	-0.117273	99
27
Properties=species:S:1:pos:R:3:Z:I:1 energy=-172.13138253571316 field_type=dipole dipole="0.000000 0.000000 0.000000" charge=0
C	-1.239611	-0.008605	0.579296	6
N	0.213849	-0.079675	0.698436	7
C	0.850879	-0.748455	-0.430544	6
C	0.920349	0.749585	-0.271084	6
H	-1.624341	0.749155	1.269866	1
H	-1.681221	-0.969605	0.862736	1
H	-1.599181	0.242405	-0.426174	1
H	0.223419	-1.160965	-1.210554	1
H	1.735969	-1.326505	-0.194884	1
H	1.853749	1.181394	0.069916	1
H	0.346139	1.371275	-0.947014	1
Es	0.469175	0.420302	0.341616	99
Es	-1.471717	0.162749	-0.117269	99
Es	0.349700	-0.119022	1.000418	99
Es	-0.414779	-0.044248	0.618312	99
Es	-1.501030	0.516533	1.045514	99
Es	0.850792	-0.748284	-0.430395	99
Es	-1.538811	-0.670629	0.766750	99
Es	1.016577	0.015061	-0.549285	99
Es	0.427784	-0.513469	0.241125	99
Es	0.418743	-1.028677	-0.954175	99
Es	-1.239482	-0.008610	0.579299	99
Es	1.445522	-1.145083	-0.273776	99
Es	0.523669	1.171785	-0.723458	99
Es	0.213636	-0.079588	0.697708	99
Es	1.548254	1.047475	-0.041478	99
Es	0.920247	0.749391	-0.270974	99
27
Properties=species:S:1:pos:R:3:Z:I:1 energy=-172.13138253571316 field_type=dipole dipole="0.000000 0.000000 0.000000" charge=0
C	-1.239611	-0.008605	0.579296	6
N	0.213849	-0.079675	0.698436	7
C	0.850879	-0.748455	-0.430544	6
C	0.920349	0.749585	-0.271084	6
H	-1.624341	0.749155	1.269866	1
H	-1.681221	-0.969605	0.862736	1
H	-1.599181	0.242405	-0.426174	1
H	0.223419	-1.160965	-1.210554	1
H	1.735969	-1.326505	-0.194884	1
H	1.853749	1.181394	0.069916	1
H	0.346139	1.371275	-0.947014	1
Es	-1.538694	-0.670787	0.766693	99
Es	0.850795	-0.748285	-0.430394	99
Es	-0.415070	-0.044322	0.619380	99
Es	0.427551	-0.513885	0.241188	99
Es	0.213652	-0.079593	0.697746	99
Es	0.920244	0.749391	-0.270971	99
Es	0.468914	0.420647	0.341624	99
Es	1.548129	1.047334	-0.041531	99
Es	-1.239488	-0.008610	0.579298	99
Es	1.016769	0.015044	-0.549428	99
Es	0.523800	1.171810	-0.723488	99
Es	1.445326	-1.145062	-0.273860	99
Es	0.350027	-0.118806	0.999300	99
Es	-1.500879	0.516696	1.045610	99
Es	-1.471590	0.162737	-0.117165	99
Es	0.418795	-1.028623	-0.954070	99
27
Properties=species:S:1:pos:R:3:Z:I:1 energy=-172.13138253571316 field_type=dipole dipole="0.000000 0.000000 0.000000" charge=0
C	-1.239611	-0.008605	0.579296	6
N	0.213849	-0.079675	0.698436	7
C	0.850879	-0.748455	-0.430544	6
C	0.920349	0.749585	-0.271084	6
H	-1.624341	0.749155	1.269866	1
H	-1.681221	-0.969605	0.862736	1
H	-1.599181	0.242405	-0.426174	1
H	0.223419	-1.160965	-1.210554	1
H	1.735969	-1.326505	-0.194884	1
H	1.853749	1.181394	0.069916	1
H	0.346139	1.371275	-0.947014	1
Es	0.349737	-0.118790	0.999058	99
Es	1.017043	0.015107	-0.550046	99
Es	-1.538617	-0.670891	0.766632	99
Es	0.427470	-0.514160	0.241418	99
Es	-1.500869	0.516865	1.045614	99
Es	0.468784	0.420950	0.341840	99
Es	0.920245	0.749394	-0.270976	99
Es	0.213654	-0.079595	0.697772	99
Es	0.850793	-0.748280	-0.430395	99
Es	1.445128	-1.144870	-0.273819	99
Es	-1.471451	0.162652	-0.117026	99
Es	0.523901	1.171802	-0.723306	99
Es	0.418963	-1.028782	-0.953862	99
Es	-1.239483	-0.008610	0.579298	99
Es	1.547931	1.047308	-0.041531	99
Es	-0.414950	-0.044414	0.619262	99
27
Properties=species:S:1:pos:R:3:Z:I:1 energy=-172.13138253571316 field_type=dipole dipole="0.000000 0.000000 0.000000" charge=0
C	-1.239611	-0.008605	0.579296	6
N	0.213849	-0.079675	0.698436	7
C	0.850879	-0.748455	-0.430544	6
C	0.920349	0.749585	-0.271084	6
H	-1.624341	0.749155	1.269866	1
H	-1.681221	-0.969605	0.862736	1
H	-1.599181	0.242405	-0.426174	1
H	0.223419	-1.160965	-1.210554	1
H	1.735969	-1.326505	-0.194884	1
H	1.853749	1.181394	0.069916	1
H	0.346139	1.371275	-0.947014	1
Es	0.213660	-0.079598	0.697781	99
Es	0.850788	-0.748280	-0.430393	99
Es	0.468814	0.421286	0.342180	99
Es	1.547690	1.047255	-0.041549	99
Es	-1.239484	-0.008611	0.579299	99
Es	0.427375	-0.514496	0.241544	99
Es	-1.471279	0.162727	-0.117084	99
Es	-1.500779	0.516891	1.045607	99
Es	0.920253	0.749392	-0.270972	99
Es	0.419061	-1.028715	-0.953894	99
Es	0.523942	1.171838	-0.723278	99
Es	1.017397	0.015056	-0.550157	99
Es	-0.415210	-0.044458	0.620132	99
Es	-1.538562	-0.671028	0.766649	99
Es	1.444944	-1.144828	-0.273847	99
Es	0.349670	-0.118746	0.997915	99
27
Properties=species:S:1:pos:R:3:Z:I:1 energy=-172.13138253571316 field_type=dipole dipole="0.000000 0.000000 0.000000" charge=0
C	-1.239611	-0.008605	0.579296	6
N	0.213849	-0.079675	0.698436	7
C	0.850879	-0.748455	-0.430544	6
C	0.920349	0.749585	-0.271084	6
H	-1.624341	0.749155	1.269866	1
H	-1.681221	-0.969605	0.862736	1
H	-1.599181	0.242405	-0.426174	1
H	0.223419	-1.160965	-1.210554	1
H	1.735969	-1.326505	-0.194884	1
H	1.853749	1.181394	0.069916	1
H	0.346139	1.371275	-0.947014	1
Es	0.850792	-0.748280	-0.430394	99
Es	-1.239485	-0.008610	0.579299	99
Es	0.468620	0.421447	0.342239	99
Es	0.523985	1.171871	-0.723164	99
Es	0.419100	-1.028888	-0.953767	99
Es	0.213655	-0.079596	0.697774	99
Es	1.547543	1.047174	-0.041626	99
Es	-1.471137	0.162676	-0.117110	99
Es	0.349941	-0.118653	0.997069	99
Es	-0.415320	-0.044617	0.621123	99
Es	1.444800	-1.144670	-0.273821	99
Es	1.017561	0.015192	-0.550510	99
Es	-1.538499	-0.671066	0.766638	99
Es	0.427224	-0.514686	0.241525	99
Es	0.920244	0.749395	-0.270972	99
Es	-1.500743	0.516998	1.045629	99
27
Properties=species:S:1:pos:R:3:Z:I:1 energy=-172.13138253571316 field_type=dipole dipole="0.000000 0.000000 0.000000" charge=0
C	-1.239611	-0.008605	0.579296	6
N	0.213849	-0.079675	0.698436	7
C	0.850879	-0.748455	-0.430544	6
C	0.920349	0.749585	-0.271084	6
H	-1.624341	0.749155	1.269866	1
H	-1.681221	-0.969605	0.862736	1
H	-1.599181	0.242405	-0.426174	1
H	0.223419	-1.160965	-1.210554	1
H	1.735969	-1.326505	-0.194884	1
H	1.853749	1.181394	0.069916	1
H	0.346139	1.371275	-0.947014	1
Es	0.850794	-0.748281	-0.430391	99
Es	-1.470915	0.162537	-0.117107	99
Es	1.017851	0.015243	-0.550741	99
Es	0.427094	-0.514917	0.241572	99
Es	1.547398	1.047100	-0.041623	99
Es	0.419167	-1.028796	-0.953638	99
Es	0.920249	0.749392	-0.270972	99
Es	-1.500732	0.517200	1.045527	99
Es	0.524132	1.171848	-0.723156	99
Es	-0.415418	-0.044648	0.621511	99
Es	0.213660	-0.079596	0.697773	99
Es	-1.538469	-0.671113	0.766692	99
Es	-1.239485	-0.008610	0.579299	99
Es	0.349844	-0.118654	0.996572	99
Es	0.468513	0.421710	0.342466	99
Es	1.444595	-1.144730	-0.273852	99
27
Properties=species:S:1:pos:R:3:Z:I:1 energy=-172.13138253571316 field_type=dipole dipole="0.000000 0.000000 0.000000" charge=0
C	-1.239611	-0.008605	0.579296	6
N	0.213849	-0.079675	0.698436	7
C	0.850879	-0.748455	-0.430544	6
C	0.920349	0.749585	-0.271084	6
H	-1.624341	0.749155	1.269866	1
H	-1.681221	-0.969605	0.862736	1
H	-1.599181	0.242405	-0.426174	1
H	0.223419	-1.160965	-1.210554	1
H	1.735969	-1.326505	-0.194884	1
H	1.853749	1.181394	0.069916	1
H	0.346139	1.371275	-0.947014	1
Es	0.427000	-0.515184	0.241779	99
Es	1.547296	1.047059	-0.041652	99
Es	0.524128	1.171893	-0.723035	99
Es	-1.500695	0.517155	1.045601	99
Es	0.468418	0.421864	0.342403	99
Es	0.349925	-0.118473	0.995921	99
Es	-1.538378	-0.671222	0.766633	99
Es	-0.415393	-0.044690	0.622211	99
Es	-1.239486	-0.008610	0.579299	99
Es	-1.470853	0.162628	-0.117071	99
Es	0.419197	-1.028825	-0.953581	99
Es	1.017947	0.015195	-0.550980	99
Es	0.850789	-0.748279	-0.430395	99
Es	0.920245	0.749393	-0.270974	99
Es	1.444520	-1.144633	-0.273915	99
Es	0.213619	-0.079585	0.697688	99
27
Properties=species:S:1:pos:R:3:Z:I:1 energy=-172.13138253571316 field_type=dipole dipole="0.000000 0.000000 0.000000" charge=0
C	-1.239611	-0.008605	0.579296	6
N	0.213849	-0.079675	0.698436	7
C	0.850879	-0.748455	-0.430544	6
C	0.920349	0.749585	-0.271084	6
H	-1.624341	0.749155	1.269866	1
H	-1.681221	-0.969605	0.862736	1
H	-1.599181	0.242405	-0.426174	1
H	0.223419	-1.160965	-1.210554	1
H	1.735969	-1.326505	-0.194884	1
H	1.853749	1.181394	0.069916	1
H	0.346139	1.371275	-0.947014	1
Es	0.419320	-1.028822	-0.953579	99
Es	0.524197	1.171905	-0.722957	99
Es	-0.415491	-0.044938	0.622693	99
Es	0.468292	0.422187	0.342518	99
Es	1.547166	1.047009	-0.041671	99
Es	0.850792	-0.748279	-0.430393	99
Es	1.018017	0.015216	-0.551107	99
Es	0.920244	0.749392	-0.270975	99
Es	0.213622	-0.079587	0.697701	99
Es	-1.500596	0.517240	1.045662	99
Es	-1.239482	-0.008610	0.579301	99
Es	-1.470751	0.162655	-0.117014	99
Es	0.426852	-0.515346	0.241798	99
Es	1.444460	-1.144502	-0.273962	99
Es	-1.538381	-0.671287	0.766548	99
Es	0.350020	-0.118547	0.995368	99
27
Properties=species:S:1:pos:R:3:Z:I:1 energy=-172.13138253571316 field_type=dipole dipole="0.000000 0.000000 0.000000" charge=0
C	-1.239611	-0.008605	0.579296	6
N	0.213849	-0.079675	0.698436	7
C	0.850879	-0.748455	-0.430544	6
C	0.920349	0.749585	-0.271084	6
H	-1.624341	0.749155	1.269866	1
H	-1.681221	-0.969605	0.862736	1
H	-1.599181	0.242405	-0.426174	1
H	0.223419	-1.160965	-1.210554	1
H	1.735969	-1.326505	-0.194884	1
H	1.853749	1.181394	0.069916	1
H	0.346139	1.371275	-0.947014	1
Es	0.419333	-1.028939	-0.953544	99
Es	0.524290	1.171975	-0.722948	99
Es	0.468244	0.422152	0.342481	99
Es	0.350102	-0.118363	0.994729	99
Es	1.444318	-1.144421	-0.273904	99
Es	0.850797	-0.748282	-0.430392	99
Es	-0.415727	-0.044845	0.623357	99
Es	1.018240	0.015288	-0.551283	99
Es	-1.538301	-0.671380	0.766569	99
Es	0.213618	-0.079586	0.697710	99
Es	-1.470587	0.162641	-0.117037	99
Es	0.920248	0.749395	-0.270971	99
Es	1.547020	1.046890	-0.041667	99
Es	-1.239485	-0.008610	0.579299	99
Es	-1.500570	0.517311	1.045631	99
Es	0.426742	-0.515539	0.241903	99
27
Properties=species:S:1:pos:R:3:Z:I:1 energy=-172.13138253571316 field_type=dipole dipole="0.000000 0.000000 0.000000" charge=0
C	-1.239611	-0.008605	0.579296	6
N	0.213849	-0.079675	0.698436	7
C	0.850879	-0.748455	-0.430544	6
C	0.920349	0.749585	-0.271084	6
H	-1.624341	0.749155	1.269866	1
H	-1.681221	-0.969605	0.862736	1
H	-1.599181	0.242405	-0.426174	1
H	0.223419	-1.160965	-1.210554	1
H	1.735969	-1.326505	-0.194884	1
H	1.853749	1.181394	0.069916	1
H	0.346139	1.371275	-0.947014	1
Es	0.850798	-0.748281	-0.430391	99
Es	0.468200	0.422588	0.342606	99
Es	0.524377	1.171954	-0.723133	99
Es	-0.416100	-0.044929	0.624502	99
Es	1.546918	1.046832	-0.041662	99
Es	-1.500532	0.517327	1.045706	99
Es	0.920246	0.749387	-0.270977	99
Es	-1.470462	0.162650	-0.117218	99
Es	0.213673	-0.079596	0.697763	99
Es	0.426611	-0.515639	0.241878	99
Es	0.350203	-0.118364	0.993522	99
Es	-1.239486	-0.008610	0.579299	99
Es	-1.538130	-0.671427	0.766602	99
Es	0.419354	-1.028910	-0.953576	99
Es	1.018477	0.015114	-0.551090	99
Es	1.444132	-1.144411	-0.273899	99
27
Properties=species:S:1:pos:R:3:Z:I:1 energy=-172.13138253571316 field_type=dipole dipole="0.000000 0.000000 0.000000" charge=0
C	-1.239611	-0.008605	0.579296	6
N	0.213849	-0.079675	0.698436	7
C	0.850879	-0.748455	-0.430544	6
C	0.920349	0.749585	-0.271084	6
H	-1.624341	0.749155	1.269866	1
H	-1.681221	-0.969605	0.862736	1
H	-1.599181	0.242405	-0.426174	1
H	0.223419	-1.160965	-1.210554	1
H	1.735969	-1.326505	-0.194884	1
H	1.853749	1.181394	0.069916	1
H	0.346139	1.371275	-0.947014	1
Es	1.546796	1.046843	-0.041740	99
Es	1.018570	0.015351	-0.551836	99
Es	0.920247	0.749394	-0.270969	99
Es	0.349886	-0.118316	0.993971	99
Es	0.850792	-0.748281	-0.430393	99
Es	-1.239486	-0.008610	0.579299	99
Es	0.468234	0.422467	0.342843	99
Es	1.444083	-1.144385	-0.273979	99
Es	-1.470234	0.162594	-0.117102	99
Es	0.524350	1.171957	-0.722751	99
Es	-1.500573	0.517447	1.045592	99
Es	-1.538225	-0.671477	0.766544	99
Es	0.213670	-0.079598	0.697787	99
Es	0.426699	-0.515883	0.242130	99
Es	0.419424	-1.028903	-0.953307	99
Es	-0.415954	-0.044915	0.623843	99
27
Properties=species:S:1:pos:R:3:Z:I:1 energy=-172.13138253571316 field_type=dipole dipole="0.000000 0.000000 0.000000" charge=0
C	-1.239611	-0.008605	0.579296	6
N	0.213849	-0.079675	0.698436	7
C	0.850879	-0.748455	-0.430544	6
C	0.920349	0.749585	-0.271084	6
H	-1.624341	0.749155	1.269866	1
H	-1.681221	-0.969605	0.862736	1
H	-1.599181	0.242405	-0.426174	1
H	0.223419	-1.160965	-1.210554	1
H	1.735969	-1.326505	-0.194884	1
H	1.853749	1.181394	0.069916	1
H	0.346139	1.371275	-0.947014	1
Es	-1.470212	0.162672	-0.117200	99
Es	1.018484	0.015253	-0.551668	99
Es	0.850790	-0.748280	-0.430393	99
Es	0.467929	0.422546	0.342468	99
Es	0.426351	-0.515784	0.241818	99
Es	1.546787	1.046673	-0.041697	99
Es	-1.500402	0.517444	1.045655	99
Es	-1.538178	-0.671519	0.766602	99
Es	-1.239486	-0.008610	0.579299	99
Es	-0.416242	-0.045139	0.626030	99
Es	0.524384	1.172152	-0.722851	99
Es	0.213646	-0.079589	0.697723	99
Es	0.350716	-0.118203	0.992431	99
Es	1.444054	-1.144205	-0.273885	99
Es	0.920246	0.749392	-0.270973	99
Es	0.419412	-1.029117	-0.953426	99
27
Properties=species:S:1:pos:R:3:Z:I:1 energy=-172.13138253571316 field_type=dipole dipole="0.000000 0.000000 0.000000" charge=0
C	-1.239611	-0.008605	0.579296	6
N	0.213849	-0.079675	0.698436	7
C	0.850879	-0.748455	-0.430544	6
C	0.920349	0.749585	-0.271084	6
H	-1.624341	0.749155	1.269866	1
H	-1.681221	-0.969605	0.862736	1
H	-1.599181	0.242405	-0.426174	1
H	0.223419	-1.160965	-1.210554	1
H	1.735969	-1.326505	-0.194884	1
H	1.853749	1.181394	0.069916	1
H	0.346139	1.371275	-0.947014	1
Es	0.468069	0.422665	0.342774	99
Es	-1.538082	-0.671585	0.766581	99
Es	0.524388	1.171978	-0.722806	99
Es	-1.239487	-0.008610	0.579298	99
Es	0.350214	-0.118180	0.992313	99
Es	-1.470119	0.162655	-0.117181	99
Es	-1.500380	0.517493	1.045689	99
Es	1.546691	1.046788	-0.041756	99
Es	0.426331	-0.516031	0.242017	99
Es	0.920247	0.749395	-0.270977	99
Es	0.213689	-0.079601	0.697790	99
Es	1.018650	0.015288	-0.551840	99
Es	1.444004	-1.144202	-0.273911	99
Es	-0.416237	-0.045029	0.625684	99
Es	0.419504	-1.029054	-0.953353	99
Es	0.850798	-0.748285	-0.430389	99
27
Properties=species:S:1:pos:R:3:Z:I:1 energy=-172.13138253571316 field_type=dipole dipole="0.000000 0.000000 0.000000" charge=0
C	-1.239611	-0.008605	0.579296	6
N	0.213849	-0.079675	0.698436	7
C	0.850879	-0.748455	-0.430544	6
C	0.920349	0.749585	-0.271084	6
H	-1.624341	0.749155	1.269866	1
H	-1.681221	-0.969605	0.862736	1
H	-1.599181	0.242405	-0.426174	1
H	0.223419	-1.160965	-1.210554	1
H	1.735969	-1.326505	-0.194884	1
H	1.853749	1.181394	0.069916	1
H	0.346139	1.371275	-0.947014	1
Es	0.850789	-0.748281	-0.430391	99
Es	0.467924	0.422739	0.342727	99
Es	0.920247	0.749393	-0.270972	99
Es	0.213637	-0.079590	0.697734	99
Es	1.018823	0.015348	-0.551885	99
Es	1.443921	-1.144285	-0.273951	99
Es	-1.500314	0.517580	1.045685	99
Es	1.546591	1.046690	-0.041738	99
Es	0.419445	-1.028967	-0.953385	99
Es	-1.470027	0.162620	-0.117180	99
Es	-0.416482	-0.045210	0.626372	99
Es	-1.538043	-0.671627	0.766598	99
Es	0.524426	1.172085	-0.722731	99
Es	0.350590	-0.118220	0.991818	99
Es	0.426235	-0.515978	0.241932	99
Es	-1.239481	-0.008610	0.579300	99
27
Properties=species:S:1:pos:R:3:Z:I:1 energy=-172.13138253571316 field_type=dipole dipole="0.000000 0.000000 0.000000" charge=0
C	-1.239611	-0.008605	0.579296	6
N	0.213849	-0.079675	0.698436	7
C	0.850879	-0.748455	-0.430544	6
C	0.920349	0.749585	-0.271084	6
H	-1.624341	0.749155	1.269866	1
H	-1.681221	-0.969605	0.862736	1
H	-1.599181	0.242405	-0.426174	1
H	0.223419	-1.160965	-1.210554	1
H	1.735969	-1.326505	-0.194884	1
H	1.853749	1.181394	0.069916	1
H	0.346139	1.371275	-0.947014	1
Es	1.546578	1.046556	-0.041647	99
Es	-0.416698	-0.045314	0.627789	99
Es	-1.538000	-0.671632	0.766631	99
Es	-1.500284	0.517540	1.045713	99
Es	0.920244	0.749395	-0.270973	99
Es	1.443863	-1.144070	-0.273882	99
Es	1.018780	0.015271	-0.551841	99
Es	0.426072	-0.516053	0.241747	99
Es	-1.469883	0.162670	-0.117364	99
Es	0.213666	-0.079595	0.697756	99
Es	0.524491	1.172246	-0.722834	99
Es	0.419543	-1.029151	-0.953398	99
Es	-1.239487	-0.008610	0.579298	99
Es	0.467708	0.422808	0.342611	99
Es	0.850789	-0.748282	-0.430396	99
Es	0.350900	-0.118093	0.990723	99
27
Properties=species:S:1:pos:R:3:Z:I:1 energy=-172.13138253571316 field_type=dipole dipole="0.000000 0.000000 0.000000" charge=0
C	-1.239611	-0.008605	0.579296	6
N	0.213849	-0.079675	0.698436	7
C	0.850879	-0.748455	-0.430544	6
C	0.920349	0.749585	-0.271084	6
H	-1.624341	0.749155	1.269866	1
H	-1.681221	-0.969605	0.862736	1
H	-1.599181	0.242405	-0.426174	1
H	0.223419	-1.160965	-1.210554	1
H	1.735969	-1.326505	-0.194884	1
H	1.853749	1.181394	0.069916	1
H	0.346139	1.371275	-0.947014	1
Es	0.850791	-0.748279	-0.430394	99
Es	0.920243	0.749393	-0.270974	99
Es	-0.416612	-0.045271	0.627176	99
Es	0.426166	-0.516255	0.242048	99
Es	0.350605	-0.118079	0.991017	99
Es	-1.469807	0.162649	-0.117236	99
Es	0.524556	1.172177	-0.722739	99
Es	0.213645	-0.079591	0.697734	99
Es	-1.500315	0.517609	1.045706	99
Es	-1.537990	-0.671693	0.766542	99
Es	1.018925	0.015308	-0.552105	99
Es	1.546467	1.046513	-0.041761	99
Es	0.419549	-1.029147	-0.953298	99
Es	1.443755	-1.144052	-0.273922	99
Es	0.467781	0.423016	0.342839	99
Es	-1.239481	-0.008610	0.579299	99
27
Properties=species:S:1:pos:R:3:Z:I:1 energy=-172.13138253571316 field_type=dipole dipole="0.000000 0.000000 0.000000" charge=0
C	-1.239611	-0.008605	0.579296	6
N	0.213849	-0.079675	0.698436	7
C	0.850879	-0.748455	-0.430544	6
C	0.920349	0.749585	-0.271084	6
H	-1.624341	0.749155	1.269866	1
H	-1.681221	-0.969605	0.862736	1
H	-1.599181	0.242405	-0.426174	1
H	0.223419	-1.160965	-1.210554	1
H	1.735969	-1.326505	-0.194884	1
H	1.853749	1.181394	0.069916	1
H	0.346139	1.371275	-0.947014	1
Es	0.426079	-0.516399	0.242038	99
Es	-0.416783	-0.045396	0.628258	99
Es	1.546397	1.046500	-0.041744	99
Es	0.920243	0.749396	-0.270972	99
Es	-1.500247	0.517591	1.045709	99
Es	0.524527	1.172225	-0.722724	99
Es	0.213653	-0.079595	0.697764	99
Es	0.850787	-0.748277	-0.430395	99
Es	1.443695	-1.143920	-0.273890	99
Es	-1.537978	-0.671716	0.766586	99
Es	0.467616	0.422995	0.342634	99
Es	-1.469714	0.162708	-0.117350	99
Es	1.018997	0.015286	-0.552085	99
Es	-1.239486	-0.008610	0.579298	99
Es	0.350897	-0.117850	0.990162	99
Es	0.419597	-1.029252	-0.953357	99
27
Properties=species:S:1:pos:R:3:Z:I:1 energy=-172.13138253571316 field_type=dipole dipole="0.000000 0.000000 0.000000" charge=0
C	-1.239611	-0.008605	0.579296	6
N	0.213849	-0.079675	0.698436	7
C	0.850879	-0.748455	-0.430544	6
C	0.920349	0.749585	-0.271084	6
H	-1.624341	0.749155	1.269866	1
H	-1.681221	-0.969605	0.862736	1
H	-1.599181	0.242405	-0.426174	1
H	0.223419	-1.160965	-1.210554	1
H	1.735969	-1.326505	-0.194884	1
H	1.853749	1.181394	0.069916	1
H	0.346139	1.371275	-0.947014	1
Es	-1.469522	0.162634	-0.117376	99
Es	-0.416835	-0.045438	0.628551	99
Es	-1.500330	0.517665	1.045680	99
Es	1.443662	-1.143911	-0.273928	99
Es	0.419598	-1.029244	-0.953276	99
Es	0.350848	-0.118018	0.989946	99
Es	-1.239485	-0.008610	0.579299	99
Es	-1.537932	-0.671721	0.766563	99
Es	0.524548	1.172353	-0.722656	99
Es	0.467659	0.423006	0.342821	99
Es	0.920245	0.749394	-0.270972	99
Es	0.850790	-0.748278	-0.430392	99
Es	1.546380	1.046406	-0.041715	99
Es	1.019008	0.015387	-0.552277	99
Es	0.213617	-0.079586	0.697697	99
Es	0.426029	-0.516353	0.241969	99
27
Properties=species:S:1:pos:R:3:Z:I:1 energy=-172.13138253571316 field_type=dipole dipole="0.000000 0.000000 0.000000" charge=0
C	-1.239611	-0.008605	0.579296	6
N	0.213849	-0.079675	0.698436	7
C	0.850879	-0.748455	-0.430544	6
C	0.920349	0.749585	-0.271084	6
H	-1.624341	0.749155	1.269866	1
H	-1.681221	-0.969605	0.862736	1
H	-1.599181	0.242405	-0.426174	1
H	0.223419	-1.160965	-1.210554	1
H	1.735969	-1.326505	-0.194884	1
H	1.853749	1.181394	0.069916	1
H	0.346139	1.371275	-0.947014	1
Es	0.350658	-0.117982	0.989452	99
Es	-1.500114	0.517626	1.045794	99
Es	0.850788	-0.748271	-0.430391	99
Es	-1.537823	-0.671795	0.766615	99
Es	1.546305	1.046375	-0.041746	99
Es	-1.239485	-0.008610	0.579299	99
Es	1.019108	0.015318	-0.552255	99
Es	1.443610	-1.143934	-0.273965	99
Es	-0.417041	-0.045331	0.628621	99
Es	0.213704	-0.079602	0.697809	99
Es	0.419581	-1.029194	-0.953290	99
Es	0.467777	0.423177	0.342950	99
Es	-1.469637	0.162722	-0.117393	99
Es	0.920245	0.749391	-0.270973	99
Es	0.425980	-0.516509	0.242086	99
Es	0.524622	1.172305	-0.722680	99
