30
Properties=species:S:1:pos:R:3:Z:I:1 energy=-173.33419629567496 field_type=dipole dipole="0.000000 0.000000 0.000000" charge=0
C	-1.300289	-0.239857	0.420012	6
N	0.161661	-0.232907	0.416952	7
C	0.673681	-0.956407	-0.745708	6
C	0.666212	1.139203	0.427842	6
H	-1.685889	0.265693	1.312772	1
H	-1.680459	-1.267307	0.453232	1
H	-1.719949	0.254393	-0.464148	1
H	0.330842	-1.997367	-0.733098	1
H	1.769141	-0.987287	-0.728378	1
H	0.356761	-0.500697	-1.691238	1
H	0.315932	1.671343	1.319712	1
H	0.350892	1.704843	-0.456908	1
H	1.761461	1.146353	0.468952	1
Es	0.419000	1.501800	1.034197	99
Es	0.367508	0.374624	0.391928	99
Es	1.422023	-0.968988	-0.734653	99
Es	-1.560191	0.112664	1.026999	99
Es	0.451341	-0.636739	-1.400005	99
Es	1.414431	1.140384	0.448217	99
Es	0.431479	-1.664631	-0.737919	99
Es	-1.587494	0.104287	-0.195519	99
Es	0.666172	1.139093	0.427842	99
Es	0.161443	-0.232589	0.416380	99
Es	-1.300172	-0.239857	0.420013	99
Es	0.370667	-0.527856	-0.113583	99
Es	0.673641	-0.956349	-0.745613	99
Es	0.272258	-0.392350	0.702378	99
Es	-1.556436	-0.943000	0.435016	99
Es	0.444910	1.528372	-0.188121	99
Es	-0.479522	-0.219229	0.388454	99
30
Properties=species:S:1:pos:R:3:Z:I:1 energy=-173.33419629567496 field_type=dipole dipole="0.000000 0.000000 0.000000" charge=0
C	-1.300289	-0.239857	0.420012	6
N	0.161661	-0.232907	0.416952	7
C	0.673681	-0.956407	-0.745708	6
C	0.666212	1.139203	0.427842	6
H	-1.685889	0.265693	1.312772	1
H	-1.680459	-1.267307	0.453232	1
H	-1.719949	0.254393	-0.464148	1
H	0.330842	-1.997367	-0.733098	1
H	1.769141	-0.987287	-0.728378	1
H	0.356761	-0.500697	-1.691238	1
H	0.315932	1.671343	1.319712	1
H	0.350892	1.704843	-0.456908	1
H	1.761461	1.146353	0.468952	1
Es	-1.300172	-0.239857	0.420013	99
Es	0.367216	0.374699	0.391585	99
Es	0.418961	1.501826	1.034227	99
Es	0.673641	-0.956349	-0.745614	99
Es	-0.479628	-0.219509	0.388640	99
Es	1.414409	1.140345	0.448241	99
Es	0.431531	-1.664628	-0.737853	99
Es	-1.556422	-0.943034	0.435057	99
Es	0.370962	-0.528226	-0.113429	99
Es	0.451368	-0.636711	-1.400134	99
Es	1.421945	-0.969014	-0.734559	99
Es	-1.587507	0.104239	-0.195512	99
Es	0.444961	1.528358	-0.188164	99
Es	0.161417	-0.232575	0.416358	99
Es	0.272383	-0.391733	0.702322	99
Es	-1.560174	0.112713	1.026990	99
Es	0.666170	1.139090	0.427842	99
30
Properties=species:S:1:pos:R:3:Z:I:1 energy=-173.33419629567496 field_type=dipole dipole="0.000000 0.000000 0.000000" charge=0
C	-1.300289	-0.239857	0.420012	6
N	0.161661	-0.232907	0.416952	7
C	0.673681	-0.956407	-0.745708	6
C	0.666212	1.139203	0.427842	6
H	-1.685889	0.265693	1.312772	1
H	-1.680459	-1.267307	0.453232	1
H	-1.719949	0.254393	-0.464148	1
H	0.330842	-1.997367	-0.733098	1
H	1.769141	-0.987287	-0.728378	1
H	0.356761	-0.500697	-1.691238	1
H	0.315932	1.671343	1.319712	1
H	0.350892	1.704843	-0.456908	1
H	1.761461	1.146353	0.468952	1
Es	0.666172	1.139092	0.427842	99
Es	0.451336	-0.636718	-1.400032	99
Es	0.272677	-0.392363	0.702775	99
Es	0.418965	1.501853	1.034220	99
Es	-1.556374	-0.943023	0.435026	99
Es	1.422017	-0.969042	-0.734644	99
Es	-1.300172	-0.239856	0.420012	99
Es	-1.560180	0.112693	1.027048	99
Es	0.673640	-0.956350	-0.745615	99
Es	0.367177	0.374615	0.391450	99
Es	-1.587534	0.104227	-0.195495	99
Es	0.445008	1.528361	-0.188117	99
Es	0.370468	-0.527777	-0.113610	99
Es	0.161429	-0.232591	0.416363	99
Es	-0.479496	-0.219195	0.388488	99
Es	0.431481	-1.664584	-0.737927	99
Es	1.414444	1.140292	0.448227	99
30
Properties=species:S:1:pos:R:3:Z:I:1 energy=-173.33419629567496 field_type=dipole dipole="0.000000 0.000000 0.000000" charge=0
C	-1.300289	-0.239857	0.420012	6
N	0.161661	-0.232907	0.416952	7
C	0.673681	-0.956407	-0.745708	6
C	0.666212	1.139203	0.427842	6
H	-1.685889	0.265693	1.312772	1
H	-1.680459	-1.267307	0.453232	1
H	-1.719949	0.254393	-0.464148	1
H	0.330842	-1.997367	-0.733098	1
H	1.769141	-0.987287	-0.728378	1
H	0.356761	-0.500697	-1.691238	1
H	0.315932	1.671343	1.319712	1
H	0.350892	1.704843	-0.456908	1
H	1.761461	1.146353	0.468952	1
Es	0.367434	0.374713	0.391915	99
Es	0.370496	-0.527831	-0.113595	99
Es	0.666172	1.139092	0.427842	99
Es	1.414451	1.140322	0.448197	99
Es	0.444970	1.528311	-0.188125	99
Es	-1.556417	-0.943059	0.435132	99
Es	-1.587506	0.104173	-0.195533	99
Es	-1.300172	-0.239857	0.420013	99
Es	0.272442	-0.392396	0.702268	99
Es	0.673640	-0.956349	-0.745614	99
Es	0.451306	-0.636707	-1.400099	99
Es	0.431559	-1.664599	-0.737897	99
Es	1.421993	-0.968991	-0.734596	99
Es	-0.479580	-0.219291	0.388581	99
Es	-1.560151	0.112796	1.026964	99
Es	0.161432	-0.232585	0.416369	99
Es	0.418990	1.501892	1.034188	99
30
Properties=species:S:1:pos:R:3:Z:I:1 energy=-173.33419629567496 field_type=dipole dipole="0.000000 0.000000 0.000000" charge=0
C	-1.300289	-0.239857	0.420012	6
N	0.161661	-0.232907	0.416952	7
C	0.673681	-0.956407	-0.745708	6
C	0.666212	1.139203	0.427842	6
H	-1.685889	0.265693	1.312772	1
H	-1.680459	-1.267307	0.453232	1
H	-1.719949	0.254393	-0.464148	1
H	0.330842	-1.997367	-0.733098	1
H	1.769141	-0.987287	-0.728378	1
H	0.356761	-0.500697	-1.691238	1
H	0.315932	1.671343	1.319712	1
H	0.350892	1.704843	-0.456908	1
H	1.761461	1.146353	0.468952	1
Es	-1.560155	0.112726	1.027039	99
Es	-1.556382	-0.943018	0.435073	99
Es	-1.300170	-0.239857	0.420013	99
Es	0.161487	-0.232653	0.416493	99
Es	0.272501	-0.392463	0.702398	99
Es	0.445020	1.528363	-0.188140	99
Es	0.673640	-0.956351	-0.745613	99
Es	0.666172	1.139093	0.427843	99
Es	1.422003	-0.969031	-0.734686	99
Es	0.370562	-0.527595	-0.113713	99
Es	0.367281	0.374692	0.391802	99
Es	-1.587532	0.104222	-0.195541	99
Es	-0.479532	-0.219288	0.388480	99
Es	0.418959	1.501849	1.034221	99
Es	1.414425	1.140289	0.448252	99
Es	0.451335	-0.636712	-1.399997	99
Es	0.431445	-1.664632	-0.737915	99
30
Properties=species:S:1:pos:R:3:Z:I:1 energy=-173.33419629567496 field_type=dipole dipole="0.000000 0.000000 0.000000" charge=0
C	-1.300289	-0.239857	0.420012	6
N	0.161661	-0.232907	0.416952	7
C	0.673681	-0.956407	-0.745708	6
C	0.666212	1.139203	0.427842	6
H	-1.685889	0.265693	1.312772	1
H	-1.680459	-1.267307	0.453232	1
H	-1.719949	0.254393	-0.464148	1
H	0.330842	-1.997367	-0.733098	1
H	1.769141	-0.987287	-0.728378	1
H	0.356761	-0.500697	-1.691238	1
H	0.315932	1.671343	1.319712	1
H	0.350892	1.704843	-0.456908	1
H	1.761461	1.146353	0.468952	1
Es	0.161440	-0.232567	0.416359	99
Es	0.666172	1.139093	0.427843	99
Es	0.673639	-0.956348	-0.745611	99
Es	-1.556353	-0.943031	0.435050	99
Es	0.418955	1.501779	1.034129	99
Es	0.444934	1.528385	-0.188104	99
Es	-1.587517	0.104196	-0.195536	99
Es	0.272283	-0.392385	0.702564	99
Es	1.422047	-0.969008	-0.734600	99
Es	-1.300170	-0.239857	0.420012	99
Es	0.367467	0.374749	0.391639	99
Es	0.451345	-0.636690	-1.400024	99
Es	1.414508	1.140364	0.448281	99
Es	0.370472	-0.528052	-0.113510	99
Es	-1.560205	0.112723	1.027035	99
Es	-0.479429	-0.219111	0.388422	99
Es	0.431471	-1.664603	-0.737939	99
30
Properties=species:S:1:pos:R:3:Z:I:1 energy=-173.33419629567496 field_type=dipole dipole="0.000000 0.000000 0.000000" charge=0
C	-1.300289	-0.239857	0.420012	6
N	0.161661	-0.232907	0.416952	7
C	0.673681	-0.956407	-0.745708	6
C	0.666212	1.139203	0.427842	6
H	-1.685889	0.265693	1.312772	1
H	-1.680459	-1.267307	0.453232	1
H	-1.719949	0.254393	-0.464148	1
H	0.330842	-1.997367	-0.733098	1
H	1.769141	-0.987287	-0.728378	1
H	0.356761	-0.500697	-1.691238	1
H	0.315932	1.671343	1.319712	1
H	0.350892	1.704843	-0.456908	1
H	1.761461	1.146353	0.468952	1
Es	0.666172	1.139093	0.427842	99
Es	0.418991	1.501846	1.034211	99
Es	1.414407	1.140250	0.448278	99
Es	0.370631	-0.527741	-0.113476	99
Es	0.272367	-0.392468	0.702274	99
Es	0.161447	-0.232595	0.416412	99
Es	-1.560097	0.112637	1.027022	99
Es	0.367461	0.374729	0.391895	99
Es	0.451315	-0.636689	-1.400061	99
Es	1.421986	-0.969074	-0.734660	99
Es	-0.479646	-0.219292	0.388430	99
Es	-1.556440	-0.943037	0.435035	99
Es	0.673640	-0.956349	-0.745613	99
Es	0.445041	1.528397	-0.188172	99
Es	-1.300171	-0.239857	0.420013	99
Es	-1.587528	0.104361	-0.195511	99
Es	0.431484	-1.664578	-0.737910	99
30
Properties=species:S:1:pos:R:3:Z:I:1 energy=-173.33419629567496 field_type=dipole dipole="0.000000 0.000000 0.000000" charge=0
C	-1.300289	-0.239857	0.420012	6
N	0.161661	-0.232907	0.416952	7
C	0.673681	-0.956407	-0.745708	6
C	0.666212	1.139203	0.427842	6
H	-1.685889	0.265693	1.312772	1
H	-1.680459	-1.267307	0.453232	1
H	-1.719949	0.254393	-0.464148	1
H	0.330842	-1.997367	-0.733098	1
H	1.769141	-0.987287	-0.728378	1
H	0.356761	-0.500697	-1.691238	1
H	0.315932	1.671343	1.319712	1
H	0.350892	1.704843	-0.456908	1
H	1.761461	1.146353	0.468952	1
Es	-1.587484	0.104208	-0.195532	99
Es	0.370538	-0.527692	-0.113605	99
Es	0.451312	-0.636697	-1.400107	99
Es	1.414392	1.140300	0.448256	99
Es	1.421943	-0.968976	-0.734621	99
Es	0.161453	-0.232616	0.416428	99
Es	0.418986	1.501816	1.034239	99
Es	0.272524	-0.392433	0.702285	99
Es	0.445021	1.528406	-0.188128	99
Es	-0.479566	-0.219422	0.388586	99
Es	-1.560193	0.112747	1.027016	99
Es	0.431562	-1.664644	-0.737873	99
Es	0.673641	-0.956348	-0.745611	99
Es	-1.300171	-0.239857	0.420013	99
Es	-1.556399	-0.943033	0.435052	99
Es	0.367327	0.374783	0.391770	99
Es	0.666172	1.139092	0.427843	99
30
Properties=species:S:1:pos:R:3:Z:I:1 energy=-173.33419629567496 field_type=dipole dipole="0.000000 0.000000 0.000000" charge=0
C	-1.300289	-0.239857	0.420012	6
N	0.161661	-0.232907	0.416952	7
C	0.673681	-0.956407	-0.745708	6
C	0.666212	1.139203	0.427842	6
H	-1.685889	0.265693	1.312772	1
H	-1.680459	-1.267307	0.453232	1
H	-1.719949	0.254393	-0.464148	1
H	0.330842	-1.997367	-0.733098	1
H	1.769141	-0.987287	-0.728378	1
H	0.356761	-0.500697	-1.691238	1
H	0.315932	1.671343	1.319712	1
H	0.350892	1.704843	-0.456908	1
H	1.761461	1.146353	0.468952	1
Es	-1.300170	-0.239857	0.420013	99
Es	0.272525	-0.392470	0.702458	99
Es	0.431519	-1.664614	-0.737917	99
Es	-1.556397	-0.943051	0.435124	99
Es	-1.587510	0.104207	-0.195571	99
Es	-1.560147	0.112765	1.026987	99
Es	0.673641	-0.956352	-0.745615	99
Es	0.370535	-0.527686	-0.113643	99
Es	-0.479571	-0.219297	0.388509	99
Es	0.161434	-0.232585	0.416376	99
Es	1.421996	-0.969001	-0.734640	99
Es	0.444925	1.528369	-0.188117	99
Es	0.666170	1.139091	0.427841	99
Es	0.419062	1.501853	1.034200	99
Es	0.367257	0.374705	0.391878	99
Es	1.414466	1.140276	0.448166	99
Es	0.451325	-0.636720	-1.400036	99
30
Properties=species:S:1:pos:R:3:Z:I:1 energy=-173.33419629567496 field_type=dipole dipole="0.000000 0.000000 0.000000" charge=0
C	-1.300289	-0.239857	0.420012	6
N	0.161661	-0.232907	0.416952	7
C	0.673681	-0.956407	-0.745708	6
C	0.666212	1.139203	0.427842	6
H	-1.685889	0.265693	1.312772	1
H	-1.680459	-1.267307	0.453232	1
H	-1.719949	0.254393	-0.464148	1
H	0.330842	-1.997367	-0.733098	1
H	1.769141	-0.987287	-0.728378	1
H	0.356761	-0.500697	-1.691238	1
H	0.315932	1.671343	1.319712	1
H	0.350892	1.704843	-0.456908	1
H	1.761461	1.146353	0.468952	1
Es	-1.587520	0.104247	-0.195521	99
Es	0.272348	-0.392469	0.702722	99
Es	0.161435	-0.232585	0.416370	99
Es	0.370524	-0.527862	-0.113489	99
Es	0.451332	-0.636728	-1.399987	99
Es	-0.479415	-0.219163	0.388259	99
Es	0.445008	1.528349	-0.188118	99
Es	-1.556384	-0.943012	0.435023	99
Es	1.422047	-0.968997	-0.734654	99
Es	0.418925	1.501840	1.034183	99
Es	0.673640	-0.956350	-0.745613	99
Es	-1.560189	0.112677	1.027038	99
Es	-1.300175	-0.239857	0.420013	99
Es	1.414464	1.140332	0.448268	99
Es	0.367362	0.374728	0.391625	99
Es	0.431487	-1.664603	-0.737951	99
Es	0.666171	1.139088	0.427843	99
30
Properties=species:S:1:pos:R:3:Z:I:1 energy=-173.33419629567496 field_type=dipole dipole="0.000000 0.000000 0.000000" charge=0
C	-1.300289	-0.239857	0.420012	6
N	0.161661	-0.232907	0.416952	7
C	0.673681	-0.956407	-0.745708	6
C	0.666212	1.139203	0.427842	6
H	-1.685889	0.265693	1.312772	1
H	-1.680459	-1.267307	0.453232	1
H	-1.719949	0.254393	-0.464148	1
H	0.330842	-1.997367	-0.733098	1
H	1.769141	-0.987287	-0.728378	1
H	0.356761	-0.500697	-1.691238	1
H	0.315932	1.671343	1.319712	1
H	0.350892	1.704843	-0.456908	1
H	1.761461	1.146353	0.468952	1
Es	1.422016	-0.969037	-0.734622	99
Es	1.414460	1.140386	0.448286	99
Es	-1.300172	-0.239857	0.420013	99
Es	-0.479464	-0.219233	0.388556	99
Es	0.431502	-1.664576	-0.737884	99
Es	0.666172	1.139093	0.427842	99
Es	-1.587545	0.104296	-0.195551	99
Es	0.451307	-0.636715	-1.400078	99
Es	0.161428	-0.232582	0.416359	99
Es	0.367487	0.374712	0.391913	99
Es	0.673641	-0.956349	-0.745614	99
Es	-1.556377	-0.943027	0.435053	99
Es	0.272301	-0.392361	0.702361	99
Es	-1.560155	0.112635	1.027013	99
Es	0.370597	-0.527897	-0.113659	99
Es	0.444958	1.528338	-0.188148	99
Es	0.418904	1.501811	1.034169	99
30
Properties=species:S:1:pos:R:3:Z:I:1 energy=-173.33419629567496 field_type=dipole dipole="0.000000 0.000000 0.000000" charge=0
C	-1.300289	-0.239857	0.420012	6
N	0.161661	-0.232907	0.416952	7
C	0.673681	-0.956407	-0.745708	6
C	0.666212	1.139203	0.427842	6
H	-1.685889	0.265693	1.312772	1
H	-1.680459	-1.267307	0.453232	1
H	-1.719949	0.254393	-0.464148	1
H	0.330842	-1.997367	-0.733098	1
H	1.769141	-0.987287	-0.728378	1
H	0.356761	-0.500697	-1.691238	1
H	0.315932	1.671343	1.319712	1
H	0.350892	1.704843	-0.456908	1
H	1.761461	1.146353	0.468952	1
Es	-1.587453	0.104151	-0.195548	99
Es	0.444955	1.528366	-0.188096	99
Es	0.673641	-0.956351	-0.745613	99
Es	0.451345	-0.636736	-1.400071	99
Es	0.431563	-1.664594	-0.737930	99
Es	0.370527	-0.527816	-0.113568	99
Es	0.272495	-0.392372	0.702604	99
Es	-1.560247	0.112782	1.026933	99
Es	0.666172	1.139093	0.427842	99
Es	1.421988	-0.969001	-0.734610	99
Es	0.161439	-0.232582	0.416393	99
Es	0.367237	0.374643	0.391659	99
Es	1.414463	1.140372	0.448242	99
Es	-0.479461	-0.219243	0.388516	99
Es	-1.300171	-0.239857	0.420014	99
Es	-1.556414	-0.943046	0.435093	99
Es	0.418979	1.501824	1.034153	99
30
Properties=species:S:1:pos:R:3:Z:I:1 energy=-173.33419629567496 field_type=dipole dipole="0.000000 0.000000 0.000000" charge=0
C	-1.300289	-0.239857	0.420012	6
N	0.161661	-0.232907	0.416952	7
C	0.673681	-0.956407	-0.745708	6
C	0.666212	1.139203	0.427842	6
H	-1.685889	0.265693	1.312772	1
H	-1.680459	-1.267307	0.453232	1
H	-1.719949	0.254393	-0.464148	1
H	0.330842	-1.997367	-0.733098	1
H	1.769141	-0.987287	-0.728378	1
H	0.356761	-0.500697	-1.691238	1
H	0.315932	1.671343	1.319712	1
H	0.350892	1.704843	-0.456908	1
H	1.761461	1.146353	0.468952	1
Es	0.367551	0.374802	0.391940	99
Es	0.673641	-0.956349	-0.745614	99
Es	0.161464	-0.232626	0.416456	99
Es	0.418932	1.501831	1.034249	99
Es	0.666171	1.139092	0.427843	99
Es	1.414450	1.140304	0.448223	99
Es	-1.587528	0.104294	-0.195537	99
Es	-1.560138	0.112666	1.027000	99
Es	0.370547	-0.527885	-0.113518	99
Es	0.431651	-1.664619	-0.737898	99
Es	0.272083	-0.392544	0.702406	99
Es	-1.556424	-0.943003	0.435067	99
Es	1.422021	-0.968888	-0.734660	99
Es	-0.479423	-0.219158	0.388205	99
Es	0.451234	-0.636776	-1.400060	99
Es	0.444997	1.528353	-0.188104	99
Es	-1.300171	-0.239860	0.420013	99
30
Properties=species:S:1:pos:R:3:Z:I:1 energy=-173.33419629567496 field_type=dipole dipole="0.000000 0.000000 0.000000" charge=0
C	-1.300289	-0.239857	0.420012	6
N	0.161661	-0.232907	0.416952	7
C	0.673681	-0.956407	-0.745708	6
C	0.666212	1.139203	0.427842	6
H	-1.685889	0.265693	1.312772	1
H	-1.680459	-1.267307	0.453232	1
H	-1.719949	0.254393	-0.464148	1
H	0.330842	-1.997367	-0.733098	1
H	1.769141	-0.987287	-0.728378	1
H	0.356761	-0.500697	-1.691238	1
H	0.315932	1.671343	1.319712	1
H	0.350892	1.704843	-0.456908	1
H	1.761461	1.146353	0.468952	1
Es	-0.479493	-0.219130	0.388302	99
Es	0.431595	-1.664602	-0.737874	99
Es	0.367497	0.374722	0.391707	99
Es	0.445015	1.528346	-0.188138	99
Es	0.673640	-0.956351	-0.745615	99
Es	-1.587521	0.104172	-0.195496	99
Es	0.451253	-0.636761	-1.400070	99
Es	1.422007	-0.968954	-0.734661	99
Es	0.418940	1.501851	1.034193	99
Es	-1.560217	0.112736	1.027037	99
Es	1.414432	1.140328	0.448267	99
Es	-1.556368	-0.943022	0.435035	99
Es	0.666173	1.139092	0.427842	99
Es	0.370499	-0.527876	-0.113438	99
Es	0.272342	-0.392477	0.702523	99
Es	0.161435	-0.232582	0.416384	99
Es	-1.300169	-0.239858	0.420012	99
30
Properties=species:S:1:pos:R:3:Z:I:1 energy=-173.33419629567496 field_type=dipole dipole="0.000000 0.000000 0.000000" charge=0
C	-1.300289	-0.239857	0.420012	6
N	0.161661	-0.232907	0.416952	7
C	0.673681	-0.956407	-0.745708	6
C	0.666212	1.139203	0.427842	6
H	-1.685889	0.265693	1.312772	1
H	-1.680459	-1.267307	0.453232	1
H	-1.719949	0.254393	-0.464148	1
H	0.330842	-1.997367	-0.733098	1
H	1.769141	-0.987287	-0.728378	1
H	0.356761	-0.500697	-1.691238	1
H	0.315932	1.671343	1.319712	1
H	0.350892	1.704843	-0.456908	1
H	1.761461	1.146353	0.468952	1
Es	-1.300171	-0.239857	0.420013	99
Es	0.272604	-0.392415	0.702444	99
Es	0.370530	-0.527647	-0.113736	99
Es	0.418935	1.501825	1.034175	99
Es	0.367247	0.374657	0.391747	99
Es	0.666172	1.139092	0.427842	99
Es	1.414486	1.140325	0.448261	99
Es	0.451347	-0.636721	-1.400043	99
Es	0.673641	-0.956348	-0.745611	99
Es	0.444986	1.528358	-0.188111	99
Es	0.431485	-1.664645	-0.737892	99
Es	-1.587513	0.104272	-0.195534	99
Es	1.421990	-0.968996	-0.734632	99
Es	0.161451	-0.232589	0.416384	99
Es	-1.556407	-0.943052	0.435064	99
Es	-1.560135	0.112709	1.027015	99
Es	-0.479590	-0.219335	0.388625	99
30
Properties=species:S:1:pos:R:3:Z:I:1 energy=-173.33419629567496 field_type=dipole dipole="0.000000 0.000000 0.000000" charge=0
C	-1.300289	-0.239857	0.420012	6
N	0.161661	-0.232907	0.416952	7
C	0.673681	-0.956407	-0.745708	6
C	0.666212	1.139203	0.427842	6
H	-1.685889	0.265693	1.312772	1
H	-1.680459	-1.267307	0.453232	1
H	-1.719949	0.254393	-0.464148	1
H	0.330842	-1.997367	-0.733098	1
H	1.769141	-0.987287	-0.728378	1
H	0.356761	-0.500697	-1.691238	1
H	0.315932	1.671343	1.319712	1
H	0.350892	1.704843	-0.456908	1
H	1.761461	1.146353	0.468952	1
Es	0.161438	-0.232599	0.416403	99
Es	1.421998	-0.968972	-0.734621	99
Es	-0.479494	-0.219207	0.388340	99
Es	0.673640	-0.956350	-0.745613	99
Es	0.666173	1.139096	0.427843	99
Es	-1.560156	0.112712	1.026996	99
Es	-1.300171	-0.239858	0.420012	99
Es	1.414438	1.140368	0.448206	99
Es	0.451333	-0.636674	-1.400036	99
Es	0.370651	-0.527868	-0.113586	99
Es	-1.587488	0.104269	-0.195496	99
Es	-1.556455	-0.943033	0.435038	99
Es	0.444909	1.528393	-0.188098	99
Es	0.418978	1.501770	1.034241	99
Es	0.367446	0.374641	0.391775	99
Es	0.272323	-0.392399	0.702528	99
Es	0.431495	-1.664653	-0.737923	99
30
Properties=species:S:1:pos:R:3:Z:I:1 energy=-173.33419629567496 field_type=dipole dipole="0.000000 0.000000 0.000000" charge=0
C	-1.300289	-0.239857	0.420012	6
N	0.161661	-0.232907	0.416952	7
C	0.673681	-0.956407	-0.745708	6
C	0.666212	1.139203	0.427842	6
H	-1.685889	0.265693	1.312772	1
H	-1.680459	-1.267307	0.453232	1
H	-1.719949	0.254393	-0.464148	1
H	0.330842	-1.997367	-0.733098	1
H	1.769141	-0.987287	-0.728378	1
H	0.356761	-0.500697	-1.691238	1
H	0.315932	1.671343	1.319712	1
H	0.350892	1.704843	-0.456908	1
H	1.761461	1.146353	0.468952	1
Es	1.422024	-0.969029	-0.734696	99
Es	0.451277	-0.636678	-1.400003	99
Es	-1.587504	0.104235	-0.195521	99
Es	1.414444	1.140315	0.448274	99
Es	0.418938	1.501900	1.034156	99
Es	-0.479527	-0.219224	0.388423	99
Es	0.431484	-1.664591	-0.737942	99
Es	0.367356	0.374675	0.391864	99
Es	-1.560157	0.112734	1.026980	99
Es	0.445032	1.528310	-0.188162	99
Es	0.370645	-0.527807	-0.113522	99
Es	-1.556423	-0.943054	0.435082	99
Es	0.161440	-0.232565	0.416370	99
Es	0.666172	1.139091	0.427842	99
Es	0.272388	-0.392470	0.702466	99
Es	0.673640	-0.956350	-0.745614	99
Es	-1.300171	-0.239857	0.420013	99
30
Properties=species:S:1:pos:R:3:Z:I:1 energy=-173.33419629567496 field_type=dipole dipole="0.000000 0.000000 0.000000" charge=0
C	-1.300289	-0.239857	0.420012	6
N	0.161661	-0.232907	0.416952	7
C	0.673681	-0.956407	-0.745708	6
C	0.666212	1.139203	0.427842	6
H	-1.685889	0.265693	1.312772	1
H	-1.680459	-1.267307	0.453232	1
H	-1.719949	0.254393	-0.464148	1
H	0.330842	-1.997367	-0.733098	1
H	1.769141	-0.987287	-0.728378	1
H	0.356761	-0.500697	-1.691238	1
H	0.315932	1.671343	1.319712	1
H	0.350892	1.704843	-0.456908	1
H	1.761461	1.146353	0.468952	1
Es	-0.479505	-0.219024	0.388372	99
Es	1.421991	-0.968971	-0.734603	99
Es	-1.587522	0.104214	-0.195534	99
Es	0.444968	1.528358	-0.188076	99
Es	0.451361	-0.636718	-1.400044	99
Es	0.418911	1.501795	1.034164	99
Es	-1.300174	-0.239857	0.420013	99
Es	-1.556365	-0.943029	0.435053	99
Es	0.673641	-0.956350	-0.745615	99
Es	0.666170	1.139088	0.427843	99
Es	0.370390	-0.527817	-0.113603	99
Es	0.367567	0.374618	0.391745	99
Es	-1.560188	0.112713	1.027032	99
Es	1.414491	1.140392	0.448270	99
Es	0.272352	-0.392544	0.702536	99
Es	0.161442	-0.232596	0.416391	99
Es	0.431529	-1.664639	-0.737934	99
30
Properties=species:S:1:pos:R:3:Z:I:1 energy=-173.33419629567496 field_type=dipole dipole="0.000000 0.000000 0.000000" charge=0
C	-1.300289	-0.239857	0.420012	6
N	0.161661	-0.232907	0.416952	7
C	0.673681	-0.956407	-0.745708	6
C	0.666212	1.139203	0.427842	6
H	-1.685889	0.265693	1.312772	1
H	-1.680459	-1.267307	0.453232	1
H	-1.719949	0.254393	-0.464148	1
H	0.330842	-1.997367	-0.733098	1
H	1.769141	-0.987287	-0.728378	1
H	0.356761	-0.500697	-1.691238	1
H	0.315932	1.671343	1.319712	1
H	0.350892	1.704843	-0.456908	1
H	1.761461	1.146353	0.468952	1
Es	0.272288	-0.392459	0.702439	99
Es	0.418918	1.501807	1.034192	99
Es	1.421987	-0.969032	-0.734581	99
Es	-1.556366	-0.943022	0.435039	99
Es	0.370638	-0.527765	-0.113572	99
Es	1.414479	1.140331	0.448270	99
Es	0.444974	1.528359	-0.188129	99
Es	0.161449	-0.232595	0.416386	99
Es	-1.300171	-0.239857	0.420013	99
Es	0.673640	-0.956350	-0.745613	99
Es	0.431426	-1.664651	-0.737964	99
Es	0.367434	0.374745	0.391882	99
Es	-1.560150	0.112649	1.027048	99
Es	-1.587532	0.104302	-0.195564	99
Es	-0.479555	-0.219260	0.388344	99
Es	0.451430	-0.636657	-1.400020	99
Es	0.666171	1.139091	0.427842	99
30
Properties=species:S:1:pos:R:3:Z:I:1 energy=-173.33419629567496 field_type=dipole dipole="0.000000 0.000000 0.000000" charge=0
C	-1.300289	-0.239857	0.420012	6
N	0.161661	-0.232907	0.416952	7
C	0.673681	-0.956407	-0.745708	6
C	0.666212	1.139203	0.427842	6
H	-1.685889	0.265693	1.312772	1
H	-1.680459	-1.267307	0.453232	1
H	-1.719949	0.254393	-0.464148	1
H	0.330842	-1.997367	-0.733098	1
H	1.769141	-0.987287	-0.728378	1
H	0.356761	-0.500697	-1.691238	1
H	0.315932	1.671343	1.319712	1
H	0.350892	1.704843	-0.456908	1
H	1.761461	1.146353	0.468952	1
Es	-1.556398	-0.943028	0.435067	99
Es	0.451312	-0.636685	-1.400071	99
Es	1.421998	-0.969032	-0.734622	99
Es	-0.479448	-0.219381	0.388593	99
Es	-1.560136	0.112619	1.026989	99
Es	0.272288	-0.391997	0.702365	99
Es	-1.587573	0.104311	-0.195527	99
Es	-1.300170	-0.239857	0.420013	99
Es	0.444964	1.528422	-0.188158	99
Es	0.666169	1.139089	0.427841	99
Es	0.161452	-0.232607	0.416419	99
Es	0.418966	1.501760	1.034104	99
Es	0.370877	-0.528102	-0.113629	99
Es	0.673640	-0.956350	-0.745614	99
Es	0.431485	-1.664603	-0.737883	99
Es	1.414483	1.140342	0.448347	99
Es	0.367149	0.374734	0.391777	99
30
Properties=species:S:1:pos:R:3:Z:I:1 energy=-173.33419629567496 field_type=dipole dipole="0.000000 0.000000 0.000000" charge=0
C	-1.300289	-0.239857	0.420012	6
N	0.161661	-0.232907	0.416952	7
C	0.673681	-0.956407	-0.745708	6
C	0.666212	1.139203	0.427842	6
H	-1.685889	0.265693	1.312772	1
H	-1.680459	-1.267307	0.453232	1
H	-1.719949	0.254393	-0.464148	1
H	0.330842	-1.997367	-0.733098	1
H	1.769141	-0.987287	-0.728378	1
H	0.356761	-0.500697	-1.691238	1
H	0.315932	1.671343	1.319712	1
H	0.350892	1.704843	-0.456908	1
H	1.761461	1.146353	0.468952	1
Es	-1.300171	-0.239857	0.420013	99
Es	1.414462	1.140360	0.448269	99
Es	0.444906	1.528421	-0.188148	99
Es	0.272362	-0.392284	0.702348	99
Es	-1.560196	0.112685	1.026995	99
Es	0.666171	1.139089	0.427842	99
Es	0.431502	-1.664648	-0.737896	99
Es	0.418977	1.501744	1.034186	99
Es	0.370643	-0.527881	-0.113574	99
Es	0.161436	-0.232605	0.416374	99
Es	-0.479567	-0.219214	0.388561	99
Es	0.451322	-0.636703	-1.400035	99
Es	0.367472	0.374679	0.391829	99
Es	-1.556359	-0.943044	0.435068	99
Es	-1.587519	0.104234	-0.195560	99
Es	1.421977	-0.968992	-0.734649	99
Es	0.673640	-0.956349	-0.745613	99
30
Properties=species:S:1:pos:R:3:Z:I:1 energy=-173.33419629567496 field_type=dipole dipole="0.000000 0.000000 0.000000" charge=0
C	-1.300289	-0.239857	0.420012	6
N	0.161661	-0.232907	0.416952	7
C	0.673681	-0.956407	-0.745708	6
C	0.666212	1.139203	0.427842	6
H	-1.685889	0.265693	1.312772	1
H	-1.680459	-1.267307	0.453232	1
H	-1.719949	0.254393	-0.464148	1
H	0.330842	-1.997367	-0.733098	1
H	1.769141	-0.987287	-0.728378	1
H	0.356761	-0.500697	-1.691238	1
H	0.315932	1.671343	1.319712	1
H	0.350892	1.704843	-0.456908	1
H	1.761461	1.146353	0.468952	1
Es	-1.300171	-0.239857	0.420012	99
Es	0.451320	-0.636703	-1.399991	99
Es	1.414472	1.140334	0.448260	99
Es	0.666172	1.139089	0.427842	99
Es	-0.479488	-0.219230	0.388293	99
Es	0.444970	1.528361	-0.188124	99
Es	0.161435	-0.232595	0.416417	99
Es	0.431489	-1.664615	-0.737950	99
Es	1.422021	-0.969006	-0.734671	99
Es	0.272445	-0.392477	0.702625	99
Es	0.367273	0.374683	0.391744	99
Es	0.418962	1.501825	1.034162	99
Es	0.673642	-0.956349	-0.745612	99
Es	-1.556448	-0.943070	0.435052	99
Es	0.370599	-0.527751	-0.113564	99
Es	-1.560142	0.112747	1.026996	99
Es	-1.587492	0.104247	-0.195483	99
30
Properties=species:S:1:pos:R:3:Z:I:1 energy=-173.33419629567496 field_type=dipole dipole="0.000000 0.000000 0.000000" charge=0
C	-1.300289	-0.239857	0.420012	6
N	0.161661	-0.232907	0.416952	7
C	0.673681	-0.956407	-0.745708	6
C	0.666212	1.139203	0.427842	6
H	-1.685889	0.265693	1.312772	1
H	-1.680459	-1.267307	0.453232	1
H	-1.719949	0.254393	-0.464148	1
H	0.330842	-1.997367	-0.733098	1
H	1.769141	-0.987287	-0.728378	1
H	0.356761	-0.500697	-1.691238	1
H	0.315932	1.671343	1.319712	1
H	0.350892	1.704843	-0.456908	1
H	1.761461	1.146353	0.468952	1
Es	0.367312	0.374711	0.391497	99
Es	0.370534	-0.527892	-0.113466	99
Es	0.444996	1.528328	-0.188126	99
Es	1.414441	1.140349	0.448246	99
Es	0.161428	-0.232602	0.416365	99
Es	0.451315	-0.636731	-1.399990	99
Es	-1.587525	0.104182	-0.195515	99
Es	0.673640	-0.956348	-0.745613	99
Es	-1.300172	-0.239857	0.420013	99
Es	0.666172	1.139094	0.427842	99
Es	-0.479443	-0.219219	0.388308	99
Es	1.422057	-0.969003	-0.734662	99
Es	0.418922	1.501851	1.034203	99
Es	0.272471	-0.392341	0.702755	99
Es	-1.560189	0.112744	1.027025	99
Es	0.431475	-1.664598	-0.737934	99
Es	-1.556374	-0.943033	0.435064	99
30
Properties=species:S:1:pos:R:3:Z:I:1 energy=-173.33419629567496 field_type=dipole dipole="0.000000 0.000000 0.000000" charge=0
C	-1.300289	-0.239857	0.420012	6
N	0.161661	-0.232907	0.416952	7
C	0.673681	-0.956407	-0.745708	6
C	0.666212	1.139203	0.427842	6
H	-1.685889	0.265693	1.312772	1
H	-1.680459	-1.267307	0.453232	1
H	-1.719949	0.254393	-0.464148	1
H	0.330842	-1.997367	-0.733098	1
H	1.769141	-0.987287	-0.728378	1
H	0.356761	-0.500697	-1.691238	1
H	0.315932	1.671343	1.319712	1
H	0.350892	1.704843	-0.456908	1
H	1.761461	1.146353	0.468952	1
Es	-1.300172	-0.239857	0.420013	99
Es	0.666172	1.139094	0.427843	99
Es	0.673641	-0.956350	-0.745613	99
Es	-1.560130	0.112614	1.027000	99
Es	1.414482	1.140364	0.448263	99
Es	-1.556416	-0.943046	0.435029	99
Es	0.367298	0.374581	0.391869	99
Es	0.370590	-0.527781	-0.113776	99
Es	0.272366	-0.392463	0.702649	99
Es	-0.479394	-0.219106	0.388405	99
Es	0.431499	-1.664663	-0.737897	99
Es	0.161434	-0.232584	0.416366	99
Es	0.451299	-0.636745	-1.399989	99
Es	-1.587554	0.104336	-0.195496	99
Es	0.444981	1.528309	-0.188119	99
Es	1.422034	-0.968932	-0.734675	99
Es	0.418927	1.501864	1.034138	99
30
Properties=species:S:1:pos:R:3:Z:I:1 energy=-173.33419629567496 field_type=dipole dipole="0.000000 0.000000 0.000000" charge=0
C	-1.300289	-0.239857	0.420012	6
N	0.161661	-0.232907	0.416952	7
C	0.673681	-0.956407	-0.745708	6
C	0.666212	1.139203	0.427842	6
H	-1.685889	0.265693	1.312772	1
H	-1.680459	-1.267307	0.453232	1
H	-1.719949	0.254393	-0.464148	1
H	0.330842	-1.997367	-0.733098	1
H	1.769141	-0.987287	-0.728378	1
H	0.356761	-0.500697	-1.691238	1
H	0.315932	1.671343	1.319712	1
H	0.350892	1.704843	-0.456908	1
H	1.761461	1.146353	0.468952	1
Es	0.370487	-0.527714	-0.113608	99
Es	-0.479456	-0.219208	0.388331	99
Es	-1.587513	0.104247	-0.195487	99
Es	1.422011	-0.968983	-0.734626	99
Es	-1.560155	0.112718	1.027008	99
Es	0.444987	1.528326	-0.188097	99
Es	0.673640	-0.956350	-0.745613	99
Es	0.451349	-0.636726	-1.400032	99
Es	-1.300172	-0.239857	0.420013	99
Es	-1.556434	-0.943033	0.435044	99
Es	0.161433	-0.232578	0.416377	99
Es	0.272466	-0.392539	0.702632	99
Es	0.431508	-1.664628	-0.737928	99
Es	0.367331	0.374686	0.391725	99
Es	0.418933	1.501851	1.034196	99
Es	0.666173	1.139093	0.427843	99
Es	1.414473	1.140326	0.448231	99
30
Properties=species:S:1:pos:R:3:Z:I:1 energy=-173.33419629567496 field_type=dipole dipole="0.000000 0.000000 0.000000" charge=0
C	-1.300289	-0.239857	0.420012	6
N	0.161661	-0.232907	0.416952	7
C	0.673681	-0.956407	-0.745708	6
C	0.666212	1.139203	0.427842	6
H	-1.685889	0.265693	1.312772	1
H	-1.680459	-1.267307	0.453232	1
H	-1.719949	0.254393	-0.464148	1
H	0.330842	-1.997367	-0.733098	1
H	1.769141	-0.987287	-0.728378	1
H	0.356761	-0.500697	-1.691238	1
H	0.315932	1.671343	1.319712	1
H	0.350892	1.704843	-0.456908	1
H	1.761461	1.146353	0.468952	1
Es	0.431457	-1.664598	-0.737897	99
Es	0.666171	1.139091	0.427843	99
Es	0.418982	1.501754	1.034205	99
Es	1.414426	1.140310	0.448302	99
Es	0.272449	-0.392129	0.702103	99
Es	-0.479600	-0.219453	0.388829	99
Es	0.161427	-0.232587	0.416374	99
Es	0.451354	-0.636651	-1.400087	99
Es	-1.300170	-0.239857	0.420012	99
Es	0.673641	-0.956350	-0.745614	99
Es	0.367412	0.374776	0.391787	99
Es	0.444961	1.528442	-0.188175	99
Es	0.370674	-0.527970	-0.113575	99
Es	1.421960	-0.969087	-0.734602	99
Es	-1.587582	0.104251	-0.195642	99
Es	-1.560155	0.112652	1.027018	99
Es	-1.556347	-0.942958	0.435129	99
30
Properties=species:S:1:pos:R:3:Z:I:1 energy=-173.33419629567496 field_type=dipole dipole="0.000000 0.000000 0.000000" charge=0
C	-1.300289	-0.239857	0.420012	6
N	0.161661	-0.232907	0.416952	7
C	0.673681	-0.956407	-0.745708	6
C	0.666212	1.139203	0.427842	6
H	-1.685889	0.265693	1.312772	1
H	-1.680459	-1.267307	0.453232	1
H	-1.719949	0.254393	-0.464148	1
H	0.330842	-1.997367	-0.733098	1
H	1.769141	-0.987287	-0.728378	1
H	0.356761	-0.500697	-1.691238	1
H	0.315932	1.671343	1.319712	1
H	0.350892	1.704843	-0.456908	1
H	1.761461	1.146353	0.468952	1
Es	0.444966	1.528403	-0.188145	99
Es	0.272486	-0.392397	0.702510	99
Es	1.422047	-0.968991	-0.734651	99
Es	-0.479559	-0.219281	0.388472	99
Es	0.451351	-0.636757	-1.399991	99
Es	0.161432	-0.232593	0.416372	99
Es	0.418991	1.501791	1.034157	99
Es	-1.300172	-0.239857	0.420013	99
Es	0.666172	1.139093	0.427842	99
Es	0.431490	-1.664607	-0.737952	99
Es	-1.587514	0.104267	-0.195531	99
Es	0.370475	-0.527765	-0.113618	99
Es	0.367346	0.374651	0.391756	99
Es	1.414446	1.140332	0.448290	99
Es	0.673641	-0.956350	-0.745613	99
Es	-1.560118	0.112728	1.027035	99
Es	-1.556422	-0.943033	0.435065	99
30
Properties=species:S:1:pos:R:3:Z:I:1 energy=-173.33419629567496 field_type=dipole dipole="0.000000 0.000000 0.000000" charge=0
C	-1.300289	-0.239857	0.420012	6
N	0.161661	-0.232907	0.416952	7
C	0.673681	-0.956407	-0.745708	6
C	0.666212	1.139203	0.427842	6
H	-1.685889	0.265693	1.312772	1
H	-1.680459	-1.267307	0.453232	1
H	-1.719949	0.254393	-0.464148	1
H	0.330842	-1.997367	-0.733098	1
H	1.769141	-0.987287	-0.728378	1
H	0.356761	-0.500697	-1.691238	1
H	0.315932	1.671343	1.319712	1
H	0.350892	1.704843	-0.456908	1
H	1.761461	1.146353	0.468952	1
Es	-1.300168	-0.239856	0.420014	99
Es	0.673640	-0.956350	-0.745614	99
Es	0.370774	-0.527792	-0.113562	99
Es	0.161424	-0.232567	0.416343	99
Es	-1.560108	0.112694	1.027035	99
Es	0.431512	-1.664569	-0.737877	99
Es	-1.587577	0.104254	-0.195585	99
Es	0.666172	1.139092	0.427842	99
Es	-0.479642	-0.219318	0.388331	99
Es	0.272245	-0.392377	0.702297	99
Es	0.367375	0.374712	0.392086	99
Es	-1.556349	-0.943040	0.435117	99
Es	0.444992	1.528363	-0.188150	99
Es	0.451335	-0.636712	-1.400115	99
Es	1.421998	-0.969048	-0.734583	99
Es	1.414436	1.140291	0.448251	99
Es	0.419001	1.501856	1.034181	99
30
Properties=species:S:1:pos:R:3:Z:I:1 energy=-173.33419629567496 field_type=dipole dipole="0.000000 0.000000 0.000000" charge=0
C	-1.300289	-0.239857	0.420012	6
N	0.161661	-0.232907	0.416952	7
C	0.673681	-0.956407	-0.745708	6
C	0.666212	1.139203	0.427842	6
H	-1.685889	0.265693	1.312772	1
H	-1.680459	-1.267307	0.453232	1
H	-1.719949	0.254393	-0.464148	1
H	0.330842	-1.997367	-0.733098	1
H	1.769141	-0.987287	-0.728378	1
H	0.356761	-0.500697	-1.691238	1
H	0.315932	1.671343	1.319712	1
H	0.350892	1.704843	-0.456908	1
H	1.761461	1.146353	0.468952	1
Es	0.431509	-1.664592	-0.737880	99
Es	0.367415	0.374643	0.391866	99
Es	0.161449	-0.232610	0.416404	99
Es	-1.587502	0.104202	-0.195536	99
Es	0.673640	-0.956349	-0.745613	99
Es	0.666172	1.139092	0.427842	99
Es	0.272438	-0.392478	0.702416	99
Es	1.421975	-0.969049	-0.734660	99
Es	-0.479594	-0.219263	0.388413	99
Es	0.418999	1.501856	1.034196	99
Es	1.414405	1.140299	0.448252	99
Es	0.445001	1.528375	-0.188168	99
Es	-1.300172	-0.239857	0.420013	99
Es	-1.556470	-0.943044	0.435153	99
Es	0.451327	-0.636739	-1.400072	99
Es	0.370585	-0.527647	-0.113560	99
Es	-1.560119	0.112795	1.026944	99
30
Properties=species:S:1:pos:R:3:Z:I:1 energy=-173.33419629567496 field_type=dipole dipole="0.000000 0.000000 0.000000" charge=0
C	-1.300289	-0.239857	0.420012	6
N	0.161661	-0.232907	0.416952	7
C	0.673681	-0.956407	-0.745708	6
C	0.666212	1.139203	0.427842	6
H	-1.685889	0.265693	1.312772	1
H	-1.680459	-1.267307	0.453232	1
H	-1.719949	0.254393	-0.464148	1
H	0.330842	-1.997367	-0.733098	1
H	1.769141	-0.987287	-0.728378	1
H	0.356761	-0.500697	-1.691238	1
H	0.315932	1.671343	1.319712	1
H	0.350892	1.704843	-0.456908	1
H	1.761461	1.146353	0.468952	1
Es	0.431539	-1.664558	-0.737912	99
Es	0.451311	-0.636712	-1.400092	99
Es	0.272518	-0.392532	0.702415	99
Es	-1.300172	-0.239857	0.420013	99
Es	0.161424	-0.232584	0.416392	99
Es	0.367364	0.374626	0.391907	99
Es	-1.556393	-0.943014	0.435098	99
Es	0.418985	1.501862	1.034135	99
Es	-0.479515	-0.219244	0.388514	99
Es	0.673640	-0.956349	-0.745613	99
Es	0.666171	1.139093	0.427843	99
Es	1.421970	-0.969069	-0.734658	99
Es	-1.560146	0.112666	1.026987	99
Es	-1.587563	0.104265	-0.195553	99
Es	0.370510	-0.527664	-0.113594	99
Es	1.414454	1.140373	0.448241	99
Es	0.444961	1.528332	-0.188113	99
