26
Properties=species:S:1:pos:R:3:Z:I:1 energy=-191.97913078045264 field_type=dipole dipole="0.000000 0.000000 0.000000" charge=0
C	-1.161662	0.280251	0.325012	6
C	0.314898	0.142251	0.430662	6
C	1.117378	-0.486139	-0.675728	6
O	1.057118	0.938381	-0.498488	8
H	-1.516362	1.066781	0.998552	1
H	-1.648122	-0.657769	0.610312	1
H	-1.480122	0.534441	-0.691608	1
H	0.673058	0.069631	1.447752	1
H	0.597768	-0.907769	-1.526658	1
H	2.046048	-0.980059	-0.419808	1
Es	-1.161645	0.280238	0.325028	99
Es	0.856000	1.053521	-0.701850	99
Es	1.057058	0.938067	-0.498352	99
Es	-1.484221	-0.358107	0.523950	99
Es	1.117351	-0.485834	-0.675672	99
Es	-1.369665	0.446468	-0.363391	99
Es	0.315050	0.142401	0.430442	99
Es	0.752845	0.730531	-0.090274	99
Es	0.647854	-0.398843	-0.056178	99
Es	1.322684	1.035283	-0.372601	99
Es	0.766504	-0.767699	-1.261114	99
Es	-0.426109	0.208957	0.370646	99
Es	1.144867	0.406965	-0.654865	99
Es	1.755040	-0.817510	-0.508106	99
Es	-1.395823	0.813080	0.783896	99
Es	0.565345	0.099690	1.125064	99
26
Properties=species:S:1:pos:R:3:Z:I:1 energy=-191.97913078045264 field_type=dipole dipole="0.000000 0.000000 0.000000" charge=0
C	-1.161662	0.280251	0.325012	6
C	0.314898	0.142251	0.430662	6
C	1.117378	-0.486139	-0.675728	6
O	1.057118	0.938381	-0.498488	8
H	-1.516362	1.066781	0.998552	1
H	-1.648122	-0.657769	0.610312	1
H	-1.480122	0.534441	-0.691608	1
H	0.673058	0.069631	1.447752	1
H	0.597768	-0.907769	-1.526658	1
H	2.046048	-0.980059	-0.419808	1
Es	0.646782	-0.401763	-0.055095	99
Es	1.148264	0.405703	-0.658720	99
Es	0.315052	0.142404	0.430441	99
Es	0.564766	0.100502	1.124640	99
Es	1.057003	0.938064	-0.498392	99
Es	-0.426842	0.209696	0.370414	99
Es	0.751280	0.733120	-0.086316	99
Es	0.767583	-0.767156	-1.261083	99
Es	-1.368389	0.445688	-0.362880	99
Es	-1.396126	0.814870	0.784940	99
Es	1.117360	-0.485828	-0.675679	99
Es	-1.483548	-0.358999	0.523226	99
Es	1.316961	1.032492	-0.375093	99
Es	-1.161645	0.280238	0.325028	99
Es	0.860040	1.054992	-0.699592	99
Es	1.754595	-0.816816	-0.509215	99
26
Properties=species:S:1:pos:R:3:Z:I:1 energy=-191.97913078045264 field_type=dipole dipole="0.000000 0.000000 0.000000" charge=0
C	-1.161662	0.280251	0.325012	6
C	0.314898	0.142251	0.430662	6
C	1.117378	-0.486139	-0.675728	6
O	1.057118	0.938381	-0.498488	8
H	-1.516362	1.066781	0.998552	1
H	-1.648122	-0.657769	0.610312	1
H	-1.480122	0.534441	-0.691608	1
H	0.673058	0.069631	1.447752	1
H	0.597768	-0.907769	-1.526658	1
H	2.046048	-0.980059	-0.419808	1
Es	0.645886	-0.403718	-0.054338	99
Es	0.315053	0.142411	0.430443	99
Es	0.749790	0.735548	-0.083296	99
Es	-1.161646	0.280238	0.325029	99
Es	1.151310	0.405285	-0.661968	99
Es	0.864023	1.056541	-0.697821	99
Es	-1.367380	0.445240	-0.362409	99
Es	-1.483068	-0.359806	0.522690	99
Es	1.056980	0.938052	-0.498403	99
Es	0.564320	0.100986	1.124363	99
Es	-0.427379	0.210235	0.370251	99
Es	1.754243	-0.816239	-0.509897	99
Es	0.768475	-0.766772	-1.261037	99
Es	-1.396304	0.816000	0.785518	99
Es	1.117355	-0.485836	-0.675679	99
Es	1.311476	1.029044	-0.376823	99
26
Properties=species:S:1:pos:R:3:Z:I:1 energy=-191.97913078045264 field_type=dipole dipole="0.000000 0.000000 0.000000" charge=0
C	-1.161662	0.280251	0.325012	6
C	0.314898	0.142251	0.430662	6
C	1.117378	-0.486139	-0.675728	6
O	1.057118	0.938381	-0.498488	8
H	-1.516362	1.066781	0.998552	1
H	-1.648122	-0.657769	0.610312	1
H	-1.480122	0.534441	-0.691608	1
H	0.673058	0.069631	1.447752	1
H	0.597768	-0.907769	-1.526658	1
H	2.046048	-0.980059	-0.419808	1
Es	0.749616	0.737557	-0.080967	99
Es	-1.366736	0.444993	-0.361813	99
Es	-1.396285	0.816804	0.785920	99
Es	0.315049	0.142403	0.430442	99
Es	1.153340	0.405067	-0.663896	99
Es	1.753843	-0.815678	-0.510472	99
Es	0.563978	0.101373	1.124033	99
Es	1.056974	0.938041	-0.498398	99
Es	-0.427909	0.210864	0.369926	99
Es	0.645253	-0.405469	-0.053689	99
Es	1.307044	1.025404	-0.378183	99
Es	1.117355	-0.485835	-0.675678	99
Es	0.769255	-0.766456	-1.260995	99
Es	0.866666	1.058529	-0.696948	99
Es	-1.482663	-0.360625	0.522313	99
Es	-1.161645	0.280238	0.325029	99
26
Properties=species:S:1:pos:R:3:Z:I:1 energy=-191.97913078045264 field_type=dipole dipole="0.000000 0.000000 0.000000" charge=0
C	-1.161662	0.280251	0.325012	6
C	0.314898	0.142251	0.430662	6
C	1.117378	-0.486139	-0.675728	6
O	1.057118	0.938381	-0.498488	8
H	-1.516362	1.066781	0.998552	1
H	-1.648122	-0.657769	0.610312	1
H	-1.480122	0.534441	-0.691608	1
H	0.673058	0.069631	1.447752	1
H	0.597768	-0.907769	-1.526658	1
H	2.046048	-0.980059	-0.419808	1
Es	0.769748	-0.766110	-1.260833	99
Es	-1.161646	0.280237	0.325029	99
Es	0.644670	-0.406531	-0.053207	99
Es	1.155248	0.405390	-0.666413	99
Es	-1.482432	-0.361157	0.522001	99
Es	-1.365890	0.444632	-0.361434	99
Es	1.056989	0.938109	-0.498422	99
Es	0.747507	0.738876	-0.080383	99
Es	1.753580	-0.815416	-0.510942	99
Es	-0.428409	0.211113	0.369894	99
Es	0.563720	0.101630	1.123885	99
Es	0.315051	0.142404	0.430442	99
Es	0.871528	1.062632	-0.696289	99
Es	1.302471	1.019620	-0.377093	99
Es	1.117357	-0.485828	-0.675678	99
Es	-1.396354	0.817610	0.786068	99
26
Properties=species:S:1:pos:R:3:Z:I:1 energy=-191.97913078045264 field_type=dipole dipole="0.000000 0.000000 0.000000" charge=0
C	-1.161662	0.280251	0.325012	6
C	0.314898	0.142251	0.430662	6
C	1.117378	-0.486139	-0.675728	6
O	1.057118	0.938381	-0.498488	8
H	-1.516362	1.066781	0.998552	1
H	-1.648122	-0.657769	0.610312	1
H	-1.480122	0.534441	-0.691608	1
H	0.673058	0.069631	1.447752	1
H	0.597768	-0.907769	-1.526658	1
H	2.046048	-0.980059	-0.419808	1
Es	1.056954	0.938088	-0.498435	99
Es	-0.428942	0.211511	0.370006	99
Es	-1.365184	0.444366	-0.361173	99
Es	-1.482125	-0.361651	0.521764	99
Es	1.299753	1.016077	-0.377981	99
Es	-1.396525	0.818145	0.786126	99
Es	0.644336	-0.407714	-0.052760	99
Es	-1.161643	0.280238	0.325029	99
Es	0.746992	0.741184	-0.079000	99
Es	1.117356	-0.485834	-0.675677	99
Es	0.563460	0.101911	1.123564	99
Es	0.874548	1.064219	-0.695650	99
Es	1.753282	-0.815015	-0.511269	99
Es	0.315048	0.142406	0.430440	99
Es	0.770286	-0.765915	-1.260773	99
Es	1.155539	0.405195	-0.667587	99
26
Properties=species:S:1:pos:R:3:Z:I:1 energy=-191.97913078045264 field_type=dipole dipole="0.000000 0.000000 0.000000" charge=0
C	-1.161662	0.280251	0.325012	6
C	0.314898	0.142251	0.430662	6
C	1.117378	-0.486139	-0.675728	6
O	1.057118	0.938381	-0.498488	8
H	-1.516362	1.066781	0.998552	1
H	-1.648122	-0.657769	0.610312	1
H	-1.480122	0.534441	-0.691608	1
H	0.673058	0.069631	1.447752	1
H	0.597768	-0.907769	-1.526658	1
H	2.046048	-0.980059	-0.419808	1
Es	1.295538	1.010430	-0.377041	99
Es	1.156824	0.405862	-0.669911	99
Es	0.644109	-0.408491	-0.052238	99
Es	-1.481980	-0.362040	0.521443	99
Es	-0.429047	0.211756	0.369734	99
Es	-1.396556	0.818572	0.786259	99
Es	-1.364886	0.444209	-0.360555	99
Es	-1.161644	0.280238	0.325030	99
Es	0.770565	-0.765849	-1.260663	99
Es	0.563279	0.102146	1.123353	99
Es	0.315050	0.142407	0.430441	99
Es	1.117358	-0.485830	-0.675679	99
Es	0.746194	0.741463	-0.078594	99
Es	1.752972	-0.814675	-0.511597	99
Es	0.878393	1.068967	-0.694952	99
Es	1.056967	0.938045	-0.498407	99
26
Properties=species:S:1:pos:R:3:Z:I:1 energy=-191.97913078045264 field_type=dipole dipole="0.000000 0.000000 0.000000" charge=0
C	-1.161662	0.280251	0.325012	6
C	0.314898	0.142251	0.430662	6
C	1.117378	-0.486139	-0.675728	6
O	1.057118	0.938381	-0.498488	8
H	-1.516362	1.066781	0.998552	1
H	-1.648122	-0.657769	0.610312	1
H	-1.480122	0.534441	-0.691608	1
H	0.673058	0.069631	1.447752	1
H	0.597768	-0.907769	-1.526658	1
H	2.046048	-0.980059	-0.419808	1
Es	0.563168	0.102261	1.123106	99
Es	1.157561	0.405868	-0.670917	99
Es	1.056930	0.938048	-0.498425	99
Es	1.117362	-0.485830	-0.675678	99
Es	-1.396589	0.818989	0.786219	99
Es	0.315049	0.142408	0.430441	99
Es	0.643892	-0.409196	-0.051899	99
Es	-1.481823	-0.362478	0.521282	99
Es	-1.161647	0.280238	0.325028	99
Es	0.882566	1.072078	-0.694595	99
Es	1.752678	-0.814277	-0.511794	99
Es	1.291959	1.005670	-0.376689	99
Es	-1.364398	0.444036	-0.360197	99
Es	-0.429502	0.212000	0.369743	99
Es	0.771013	-0.765748	-1.260722	99
Es	0.744916	0.743145	-0.078281	99
26
Properties=species:S:1:pos:R:3:Z:I:1 energy=-191.97913078045264 field_type=dipole dipole="0.000000 0.000000 0.000000" charge=0
C	-1.161662	0.280251	0.325012	6
C	0.314898	0.142251	0.430662	6
C	1.117378	-0.486139	-0.675728	6
O	1.057118	0.938381	-0.498488	8
H	-1.516362	1.066781	0.998552	1
H	-1.648122	-0.657769	0.610312	1
H	-1.480122	0.534441	-0.691608	1
H	0.673058	0.069631	1.447752	1
H	0.597768	-0.907769	-1.526658	1
H	2.046048	-0.980059	-0.419808	1
Es	1.287181	0.996259	-0.375158	99
Es	1.752447	-0.813926	-0.512123	99
Es	0.889887	1.080186	-0.694028	99
Es	0.315052	0.142412	0.430440	99
Es	1.056911	0.938027	-0.498434	99
Es	0.771171	-0.765697	-1.260738	99
Es	0.563141	0.102413	1.122847	99
Es	1.117359	-0.485828	-0.675678	99
Es	-1.396768	0.819313	0.786207	99
Es	-1.161642	0.280237	0.325030	99
Es	-1.364145	0.443858	-0.359630	99
Es	-1.481817	-0.362661	0.520957	99
Es	0.643913	-0.409811	-0.051454	99
Es	1.156441	0.406139	-0.672844	99
Es	-0.429581	0.212162	0.369685	99
Es	0.743587	0.744127	-0.078455	99
26
Properties=species:S:1:pos:R:3:Z:I:1 energy=-191.97913078045264 field_type=dipole dipole="0.000000 0.000000 0.000000" charge=0
C	-1.161662	0.280251	0.325012	6
C	0.314898	0.142251	0.430662	6
C	1.117378	-0.486139	-0.675728	6
O	1.057118	0.938381	-0.498488	8
H	-1.516362	1.066781	0.998552	1
H	-1.648122	-0.657769	0.610312	1
H	-1.480122	0.534441	-0.691608	1
H	0.673058	0.069631	1.447752	1
H	0.597768	-0.907769	-1.526658	1
H	2.046048	-0.980059	-0.419808	1
Es	0.563013	0.102532	1.122706	99
Es	0.892229	1.081783	-0.693353	99
Es	1.157787	0.406585	-0.673891	99
Es	0.742791	0.744595	-0.078258	99
Es	1.057025	0.938024	-0.498362	99
Es	0.771495	-0.765711	-1.260778	99
Es	-1.363821	0.443819	-0.359201	99
Es	-1.396730	0.819588	0.786209	99
Es	1.284240	0.993767	-0.375141	99
Es	-0.429715	0.212183	0.369567	99
Es	0.315049	0.142405	0.430442	99
Es	1.117362	-0.485821	-0.675682	99
Es	0.643803	-0.410218	-0.051192	99
Es	-1.161644	0.280238	0.325030	99
Es	1.752118	-0.813627	-0.512185	99
Es	-1.481867	-0.362932	0.520714	99
26
Properties=species:S:1:pos:R:3:Z:I:1 energy=-191.97913078045264 field_type=dipole dipole="0.000000 0.000000 0.000000" charge=0
C	-1.161662	0.280251	0.325012	6
C	0.314898	0.142251	0.430662	6
C	1.117378	-0.486139	-0.675728	6
O	1.057118	0.938381	-0.498488	8
H	-1.516362	1.066781	0.998552	1
H	-1.648122	-0.657769	0.610312	1
H	-1.480122	0.534441	-0.691608	1
H	0.673058	0.069631	1.447752	1
H	0.597768	-0.907769	-1.526658	1
H	2.046048	-0.980059	-0.419808	1
Es	1.056947	0.938016	-0.498406	99
Es	1.280192	0.987176	-0.374522	99
Es	-1.363645	0.443677	-0.358753	99
Es	1.157039	0.406829	-0.675614	99
Es	0.643810	-0.410492	-0.050820	99
Es	0.771662	-0.765749	-1.260892	99
Es	-1.161646	0.280238	0.325029	99
Es	1.751913	-0.813356	-0.512271	99
Es	-1.396872	0.819811	0.786142	99
Es	0.898103	1.087207	-0.692089	99
Es	0.563018	0.102626	1.122460	99
Es	1.117358	-0.485830	-0.675679	99
Es	0.315048	0.142409	0.430444	99
Es	0.741905	0.745407	-0.078464	99
Es	-1.481865	-0.363089	0.520509	99
Es	-0.429833	0.212329	0.369550	99
26
Properties=species:S:1:pos:R:3:Z:I:1 energy=-191.97913078045264 field_type=dipole dipole="0.000000 0.000000 0.000000" charge=0
C	-1.161662	0.280251	0.325012	6
C	0.314898	0.142251	0.430662	6
C	1.117378	-0.486139	-0.675728	6
O	1.057118	0.938381	-0.498488	8
H	-1.516362	1.066781	0.998552	1
H	-1.648122	-0.657769	0.610312	1
H	-1.480122	0.534441	-0.691608	1
H	0.673058	0.069631	1.447752	1
H	0.597768	-0.907769	-1.526658	1
H	2.046048	-0.980059	-0.419808	1
Es	-1.161646	0.280238	0.325029	99
Es	1.751609	-0.813027	-0.512306	99
Es	1.056938	0.938007	-0.498409	99
Es	-1.363731	0.443634	-0.358213	99
Es	0.904033	1.092946	-0.690979	99
Es	0.563105	0.102674	1.122283	99
Es	0.740833	0.745594	-0.078792	99
Es	1.275544	0.980740	-0.373900	99
Es	1.117357	-0.485822	-0.675683	99
Es	0.643959	-0.410512	-0.050563	99
Es	-1.481960	-0.363127	0.520273	99
Es	0.771764	-0.765936	-1.261077	99
Es	1.156910	0.407142	-0.677030	99
Es	0.315048	0.142408	0.430442	99
Es	-1.396913	0.819918	0.786180	99
Es	-0.429715	0.212333	0.369366	99
26
Properties=species:S:1:pos:R:3:Z:I:1 energy=-191.97913078045264 field_type=dipole dipole="0.000000 0.000000 0.000000" charge=0
C	-1.161662	0.280251	0.325012	6
C	0.314898	0.142251	0.430662	6
C	1.117378	-0.486139	-0.675728	6
O	1.057118	0.938381	-0.498488	8
H	-1.516362	1.066781	0.998552	1
H	-1.648122	-0.657769	0.610312	1
H	-1.480122	0.534441	-0.691608	1
H	0.673058	0.069631	1.447752	1
H	0.597768	-0.907769	-1.526658	1
H	2.046048	-0.980059	-0.419808	1
Es	0.912948	1.100712	-0.689422	99
Es	-1.482180	-0.362961	0.520015	99
Es	1.117351	-0.485829	-0.675685	99
Es	0.563004	0.102790	1.122383	99
Es	-1.397008	0.819959	0.786216	99
Es	0.739344	0.746237	-0.079533	99
Es	1.269652	0.972005	-0.373285	99
Es	0.315052	0.142407	0.430442	99
Es	-1.364010	0.443567	-0.357584	99
Es	0.771888	-0.766118	-1.261393	99
Es	-1.161643	0.280238	0.325030	99
Es	-0.429137	0.212156	0.368804	99
Es	1.056853	0.938011	-0.498466	99
Es	0.644135	-0.410482	-0.050393	99
Es	1.751429	-0.812711	-0.512250	99
Es	1.155460	0.407228	-0.678256	99
26
Properties=species:S:1:pos:R:3:Z:I:1 energy=-191.97913078045264 field_type=dipole dipole="0.000000 0.000000 0.000000" charge=0
C	-1.161662	0.280251	0.325012	6
C	0.314898	0.142251	0.430662	6
C	1.117378	-0.486139	-0.675728	6
O	1.057118	0.938381	-0.498488	8
H	-1.516362	1.066781	0.998552	1
H	-1.648122	-0.657769	0.610312	1
H	-1.480122	0.534441	-0.691608	1
H	0.673058	0.069631	1.447752	1
H	0.597768	-0.907769	-1.526658	1
H	2.046048	-0.980059	-0.419808	1
Es	1.056953	0.938032	-0.498409	99
Es	0.563016	0.102862	1.122430	99
Es	1.264657	0.965317	-0.373034	99
Es	0.920110	1.106877	-0.687449	99
Es	1.154321	0.407581	-0.679808	99
Es	-1.161646	0.280238	0.325029	99
Es	1.751333	-0.812546	-0.512328	99
Es	-0.428843	0.212055	0.368486	99
Es	0.315050	0.142404	0.430442	99
Es	-1.364149	0.443533	-0.357128	99
Es	0.771845	-0.766202	-1.261547	99
Es	0.644355	-0.410331	-0.050245	99
Es	1.117354	-0.485823	-0.675677	99
Es	-1.397156	0.819958	0.786306	99
Es	0.738208	0.746097	-0.080186	99
Es	-1.482273	-0.362843	0.519741	99
26
Properties=species:S:1:pos:R:3:Z:I:1 energy=-191.97913078045264 field_type=dipole dipole="0.000000 0.000000 0.000000" charge=0
C	-1.161662	0.280251	0.325012	6
C	0.314898	0.142251	0.430662	6
C	1.117378	-0.486139	-0.675728	6
O	1.057118	0.938381	-0.498488	8
H	-1.516362	1.066781	0.998552	1
H	-1.648122	-0.657769	0.610312	1
H	-1.480122	0.534441	-0.691608	1
H	0.673058	0.069631	1.447752	1
H	0.597768	-0.907769	-1.526658	1
H	2.046048	-0.980059	-0.419808	1
Es	0.315048	0.142405	0.430441	99
Es	-1.397315	0.819985	0.786294	99
Es	1.751170	-0.812319	-0.512282	99
Es	0.922311	1.107853	-0.686628	99
Es	-1.161646	0.280238	0.325029	99
Es	-1.482130	-0.362938	0.519676	99
Es	0.772098	-0.766268	-1.261651	99
Es	0.737933	0.746684	-0.080112	99
Es	1.057125	0.938039	-0.498291	99
Es	0.644240	-0.410536	-0.050079	99
Es	-1.364132	0.443450	-0.356954	99
Es	0.562949	0.102937	1.122347	99
Es	1.154404	0.407666	-0.680297	99
Es	1.262509	0.963608	-0.373607	99
Es	-0.428786	0.212228	0.368418	99
Es	1.117358	-0.485825	-0.675681	99
26
Properties=species:S:1:pos:R:3:Z:I:1 energy=-191.97913078045264 field_type=dipole dipole="0.000000 0.000000 0.000000" charge=0
C	-1.161662	0.280251	0.325012	6
C	0.314898	0.142251	0.430662	6
C	1.117378	-0.486139	-0.675728	6
O	1.057118	0.938381	-0.498488	8
H	-1.516362	1.066781	0.998552	1
H	-1.648122	-0.657769	0.610312	1
H	-1.480122	0.534441	-0.691608	1
H	0.673058	0.069631	1.447752	1
H	0.597768	-0.907769	-1.526658	1
H	2.046048	-0.980059	-0.419808	1
Es	0.563010	0.102971	1.121989	99
Es	1.057420	0.937916	-0.498034	99
Es	0.644009	-0.411119	-0.049907	99
Es	1.117358	-0.485826	-0.675679	99
Es	0.772532	-0.766230	-1.261638	99
Es	-1.363754	0.443426	-0.356774	99
Es	-0.429332	0.212381	0.368673	99
Es	0.918761	1.103859	-0.687136	99
Es	1.750825	-0.812043	-0.512302	99
Es	-1.161644	0.280238	0.325029	99
Es	0.315047	0.142407	0.430438	99
Es	1.263602	0.967023	-0.374592	99
Es	-1.397122	0.820272	0.786251	99
Es	-1.482116	-0.363276	0.519610	99
Es	1.156119	0.407863	-0.680110	99
Es	0.738421	0.747348	-0.079194	99
26
Properties=species:S:1:pos:R:3:Z:I:1 energy=-191.97913078045264 field_type=dipole dipole="0.000000 0.000000 0.000000" charge=0
C	-1.161662	0.280251	0.325012	6
C	0.314898	0.142251	0.430662	6
C	1.117378	-0.486139	-0.675728	6
O	1.057118	0.938381	-0.498488	8
H	-1.516362	1.066781	0.998552	1
H	-1.648122	-0.657769	0.610312	1
H	-1.480122	0.534441	-0.691608	1
H	0.673058	0.069631	1.447752	1
H	0.597768	-0.907769	-1.526658	1
H	2.046048	-0.980059	-0.419808	1
Es	0.315048	0.142407	0.430440	99
Es	0.931443	1.114030	-0.683911	99
Es	1.750858	-0.811931	-0.512205	99
Es	0.772237	-0.766557	-1.262006	99
Es	1.117359	-0.485825	-0.675680	99
Es	-1.364414	0.443385	-0.356254	99
Es	0.563055	0.102969	1.122310	99
Es	0.644473	-0.410299	-0.049879	99
Es	1.153966	0.407959	-0.681708	99
Es	-1.482301	-0.362794	0.519410	99
Es	1.255331	0.956118	-0.374337	99
Es	-1.397385	0.820027	0.786368	99
Es	0.736684	0.747364	-0.080456	99
Es	-0.428452	0.212113	0.367953	99
Es	-1.161645	0.280238	0.325029	99
Es	1.056878	0.938006	-0.498450	99
26
Properties=species:S:1:pos:R:3:Z:I:1 energy=-191.97913078045264 field_type=dipole dipole="0.000000 0.000000 0.000000" charge=0
C	-1.161662	0.280251	0.325012	6
C	0.314898	0.142251	0.430662	6
C	1.117378	-0.486139	-0.675728	6
O	1.057118	0.938381	-0.498488	8
H	-1.516362	1.066781	0.998552	1
H	-1.648122	-0.657769	0.610312	1
H	-1.480122	0.534441	-0.691608	1
H	0.673058	0.069631	1.447752	1
H	0.597768	-0.907769	-1.526658	1
H	2.046048	-0.980059	-0.419808	1
Es	0.936389	1.117182	-0.682377	99
Es	1.056793	0.937992	-0.498499	99
Es	-1.482298	-0.362656	0.519291	99
Es	1.152961	0.407941	-0.682353	99
Es	0.772213	-0.766472	-1.262029	99
Es	-1.397511	0.819962	0.786451	99
Es	0.563037	0.103014	1.122419	99
Es	-1.364436	0.443384	-0.356265	99
Es	0.735835	0.747773	-0.081041	99
Es	1.117362	-0.485824	-0.675680	99
Es	0.644534	-0.410317	-0.049849	99
Es	1.750937	-0.811870	-0.512347	99
Es	-0.428316	0.212037	0.367913	99
Es	-1.161646	0.280238	0.325029	99
Es	1.252229	0.952418	-0.374479	99
Es	0.315052	0.142408	0.430439	99
26
Properties=species:S:1:pos:R:3:Z:I:1 energy=-191.97913078045264 field_type=dipole dipole="0.000000 0.000000 0.000000" charge=0
C	-1.161662	0.280251	0.325012	6
C	0.314898	0.142251	0.430662	6
C	1.117378	-0.486139	-0.675728	6
O	1.057118	0.938381	-0.498488	8
H	-1.516362	1.066781	0.998552	1
H	-1.648122	-0.657769	0.610312	1
H	-1.480122	0.534441	-0.691608	1
H	0.673058	0.069631	1.447752	1
H	0.597768	-0.907769	-1.526658	1
H	2.046048	-0.980059	-0.419808	1
Es	-0.428298	0.211980	0.367890	99
Es	-1.397536	0.819907	0.786578	99
Es	1.750763	-0.811717	-0.512125	99
Es	0.563193	0.102978	1.122259	99
Es	-1.482323	-0.362524	0.519163	99
Es	1.153021	0.408267	-0.682829	99
Es	0.315048	0.142408	0.430441	99
Es	0.644602	-0.410092	-0.049891	99
Es	0.735701	0.747448	-0.080892	99
Es	-1.161646	0.280238	0.325029	99
Es	1.057038	0.937791	-0.498219	99
Es	0.772358	-0.766689	-1.262273	99
Es	1.248843	0.950873	-0.375933	99
Es	1.117357	-0.485827	-0.675681	99
Es	-1.364586	0.443398	-0.356065	99
Es	0.939601	1.118771	-0.680830	99
26
Properties=species:S:1:pos:R:3:Z:I:1 energy=-191.97913078045264 field_type=dipole dipole="0.000000 0.000000 0.000000" charge=0
C	-1.161662	0.280251	0.325012	6
C	0.314898	0.142251	0.430662	6
C	1.117378	-0.486139	-0.675728	6
O	1.057118	0.938381	-0.498488	8
H	-1.516362	1.066781	0.998552	1
H	-1.648122	-0.657769	0.610312	1
H	-1.480122	0.534441	-0.691608	1
H	0.673058	0.069631	1.447752	1
H	0.597768	-0.907769	-1.526658	1
H	2.046048	-0.980059	-0.419808	1
Es	1.057114	0.938062	-0.498316	99
Es	1.117368	-0.485824	-0.675677	99
Es	-1.161646	0.280238	0.325029	99
Es	-1.397608	0.819832	0.786625	99
Es	-1.364584	0.443478	-0.355935	99
Es	1.750824	-0.811770	-0.512328	99
Es	0.315049	0.142407	0.430440	99
Es	0.772127	-0.766607	-1.262216	99
Es	-0.428152	0.211868	0.367751	99
Es	1.245732	0.946749	-0.375977	99
Es	0.563146	0.103013	1.122374	99
Es	1.152440	0.408272	-0.683628	99
Es	0.735143	0.748067	-0.081053	99
Es	-1.482436	-0.362472	0.518985	99
Es	0.644812	-0.409921	-0.049780	99
Es	0.943808	1.121816	-0.679671	99
26
Properties=species:S:1:pos:R:3:Z:I:1 energy=-191.97913078045264 field_type=dipole dipole="0.000000 0.000000 0.000000" charge=0
C	-1.161662	0.280251	0.325012	6
C	0.314898	0.142251	0.430662	6
C	1.117378	-0.486139	-0.675728	6
O	1.057118	0.938381	-0.498488	8
H	-1.516362	1.066781	0.998552	1
H	-1.648122	-0.657769	0.610312	1
H	-1.480122	0.534441	-0.691608	1
H	0.673058	0.069631	1.447752	1
H	0.597768	-0.907769	-1.526658	1
H	2.046048	-0.980059	-0.419808	1
Es	0.735375	0.748052	-0.080744	99
Es	0.772522	-0.766691	-1.262318	99
Es	0.563050	0.103135	1.122345	99
Es	-0.428144	0.212030	0.367391	99
Es	1.056997	0.938018	-0.498377	99
Es	-1.482376	-0.362693	0.519083	99
Es	1.750520	-0.811498	-0.512231	99
Es	0.315048	0.142409	0.430441	99
Es	-1.364592	0.443277	-0.355517	99
Es	1.246718	0.948421	-0.375975	99
Es	-1.397515	0.820102	0.786483	99
Es	-1.161645	0.280238	0.325029	99
Es	1.153569	0.408634	-0.683755	99
Es	0.941623	1.119929	-0.679939	99
Es	0.644628	-0.410325	-0.049613	99
Es	1.117358	-0.485827	-0.675681	99
26
Properties=species:S:1:pos:R:3:Z:I:1 energy=-191.97913078045264 field_type=dipole dipole="0.000000 0.000000 0.000000" charge=0
C	-1.161662	0.280251	0.325012	6
C	0.314898	0.142251	0.430662	6
C	1.117378	-0.486139	-0.675728	6
O	1.057118	0.938381	-0.498488	8
H	-1.516362	1.066781	0.998552	1
H	-1.648122	-0.657769	0.610312	1
H	-1.480122	0.534441	-0.691608	1
H	0.673058	0.069631	1.447752	1
H	0.597768	-0.907769	-1.526658	1
H	2.046048	-0.980059	-0.419808	1
Es	0.948068	1.123614	-0.677467	99
Es	0.772366	-0.766777	-1.262401	99
Es	1.152416	0.408492	-0.684262	99
Es	-1.364783	0.443308	-0.355714	99
Es	0.315045	0.142407	0.430438	99
Es	1.055614	0.937235	-0.498889	99
Es	1.117355	-0.485831	-0.675683	99
Es	0.563225	0.103080	1.122285	99
Es	-1.482330	-0.362388	0.519029	99
Es	0.735072	0.748035	-0.080871	99
Es	0.644733	-0.409877	-0.049684	99
Es	-0.428027	0.211950	0.367600	99
Es	-1.397680	0.819885	0.786632	99
Es	-1.161646	0.280239	0.325028	99
Es	1.750709	-0.811505	-0.512207	99
Es	1.242999	0.945345	-0.377209	99
26
Properties=species:S:1:pos:R:3:Z:I:1 energy=-191.97913078045264 field_type=dipole dipole="0.000000 0.000000 0.000000" charge=0
C	-1.161662	0.280251	0.325012	6
C	0.314898	0.142251	0.430662	6
C	1.117378	-0.486139	-0.675728	6
O	1.057118	0.938381	-0.498488	8
H	-1.516362	1.066781	0.998552	1
H	-1.648122	-0.657769	0.610312	1
H	-1.480122	0.534441	-0.691608	1
H	0.673058	0.069631	1.447752	1
H	0.597768	-0.907769	-1.526658	1
H	2.046048	-0.980059	-0.419808	1
Es	0.733905	0.748271	-0.081717	99
Es	-1.397746	0.819693	0.786808	99
Es	0.315048	0.142407	0.430441	99
Es	1.150951	0.408493	-0.684969	99
Es	-1.365051	0.443384	-0.355642	99
Es	0.644984	-0.409483	-0.049809	99
Es	1.117359	-0.485828	-0.675683	99
Es	-1.482490	-0.361986	0.518863	99
Es	0.954061	1.127988	-0.676009	99
Es	-1.161646	0.280237	0.325030	99
Es	0.772161	-0.766755	-1.262486	99
Es	-0.427602	0.211588	0.367217	99
Es	1.750852	-0.811607	-0.512226	99
Es	1.237588	0.939810	-0.377905	99
Es	0.563169	0.103136	1.122602	99
Es	1.057592	0.937862	-0.497890	99
26
Properties=species:S:1:pos:R:3:Z:I:1 energy=-191.97913078045264 field_type=dipole dipole="0.000000 0.000000 0.000000" charge=0
C	-1.161662	0.280251	0.325012	6
C	0.314898	0.142251	0.430662	6
C	1.117378	-0.486139	-0.675728	6
O	1.057118	0.938381	-0.498488	8
H	-1.516362	1.066781	0.998552	1
H	-1.648122	-0.657769	0.610312	1
H	-1.480122	0.534441	-0.691608	1
H	0.673058	0.069631	1.447752	1
H	0.597768	-0.907769	-1.526658	1
H	2.046048	-0.980059	-0.419808	1
Es	1.117358	-0.485828	-0.675679	99
Es	-1.482467	-0.362107	0.518772	99
Es	1.750835	-0.811503	-0.512287	99
Es	0.563044	0.103202	1.122657	99
Es	0.734092	0.748314	-0.081567	99
Es	0.644962	-0.409557	-0.049652	99
Es	0.954308	1.128055	-0.675621	99
Es	1.057424	0.937917	-0.498030	99
Es	0.772247	-0.766734	-1.262501	99
Es	-1.161647	0.280239	0.325027	99
Es	-1.364857	0.443317	-0.355509	99
Es	-0.427635	0.211635	0.367150	99
Es	1.151142	0.408547	-0.685259	99
Es	0.315046	0.142406	0.430439	99
Es	1.237154	0.939516	-0.378045	99
Es	-1.397869	0.819790	0.786728	99
26
Properties=species:S:1:pos:R:3:Z:I:1 energy=-191.97913078045264 field_type=dipole dipole="0.000000 0.000000 0.000000" charge=0
C	-1.161662	0.280251	0.325012	6
C	0.314898	0.142251	0.430662	6
C	1.117378	-0.486139	-0.675728	6
O	1.057118	0.938381	-0.498488	8
H	-1.516362	1.066781	0.998552	1
H	-1.648122	-0.657769	0.610312	1
H	-1.480122	0.534441	-0.691608	1
H	0.673058	0.069631	1.447752	1
H	0.597768	-0.907769	-1.526658	1
H	2.046048	-0.980059	-0.419808	1
Es	0.644822	-0.409887	-0.049647	99
Es	0.315047	0.142408	0.430443	99
Es	1.750612	-0.811419	-0.512282	99
Es	0.953935	1.126848	-0.675308	99
Es	-1.365132	0.443240	-0.355111	99
Es	0.563015	0.103224	1.122676	99
Es	-1.482255	-0.362267	0.518815	99
Es	1.152255	0.408982	-0.685373	99
Es	-1.161645	0.280238	0.325029	99
Es	-0.427359	0.211891	0.366705	99
Es	1.117357	-0.485828	-0.675683	99
Es	1.056227	0.937884	-0.498827	99
Es	0.772397	-0.766742	-1.262502	99
Es	0.733885	0.748559	-0.081424	99
Es	-1.397865	0.819788	0.786787	99
Es	1.237839	0.940289	-0.377676	99
26
Properties=species:S:1:pos:R:3:Z:I:1 energy=-191.97913078045264 field_type=dipole dipole="0.000000 0.000000 0.000000" charge=0
C	-1.161662	0.280251	0.325012	6
C	0.314898	0.142251	0.430662	6
C	1.117378	-0.486139	-0.675728	6
O	1.057118	0.938381	-0.498488	8
H	-1.516362	1.066781	0.998552	1
H	-1.648122	-0.657769	0.610312	1
H	-1.480122	0.534441	-0.691608	1
H	0.673058	0.069631	1.447752	1
H	0.597768	-0.907769	-1.526658	1
H	2.046048	-0.980059	-0.419808	1
Es	1.234460	0.936820	-0.378534	99
Es	0.733541	0.748815	-0.081564	99
Es	0.644921	-0.409530	-0.049738	99
Es	-0.427626	0.211738	0.367233	99
Es	0.958769	1.129863	-0.673768	99
Es	-1.482386	-0.361979	0.518773	99
Es	1.150823	0.408766	-0.685884	99
Es	0.772378	-0.766811	-1.262629	99
Es	-1.397885	0.819733	0.786834	99
Es	1.117356	-0.485830	-0.675681	99
Es	1.056504	0.937954	-0.498679	99
Es	0.563259	0.103095	1.122496	99
Es	-1.161645	0.280238	0.325030	99
Es	0.315049	0.142409	0.430441	99
Es	1.750684	-0.811363	-0.512232	99
Es	-1.365067	0.443289	-0.355472	99
26
Properties=species:S:1:pos:R:3:Z:I:1 energy=-191.97913078045264 field_type=dipole dipole="0.000000 0.000000 0.000000" charge=0
C	-1.161662	0.280251	0.325012	6
C	0.314898	0.142251	0.430662	6
C	1.117378	-0.486139	-0.675728	6
O	1.057118	0.938381	-0.498488	8
H	-1.516362	1.066781	0.998552	1
H	-1.648122	-0.657769	0.610312	1
H	-1.480122	0.534441	-0.691608	1
H	0.673058	0.069631	1.447752	1
H	0.597768	-0.907769	-1.526658	1
H	2.046048	-0.980059	-0.419808	1
Es	1.152278	0.408993	-0.685913	99
Es	0.772451	-0.766857	-1.262702	99
Es	-1.482380	-0.362155	0.518635	99
Es	1.234834	0.938120	-0.378541	99
Es	-1.161646	0.280238	0.325029	99
Es	-1.364982	0.443268	-0.355108	99
Es	0.733821	0.748668	-0.081385	99
Es	-0.427489	0.211796	0.367030	99
Es	-1.397980	0.819783	0.786791	99
Es	0.956801	1.128638	-0.674054	99
Es	0.644987	-0.409776	-0.049421	99
Es	1.056479	0.937906	-0.498667	99
Es	0.563137	0.103215	1.122465	99
Es	1.750419	-0.811207	-0.512294	99
Es	1.117357	-0.485827	-0.675682	99
Es	0.315048	0.142407	0.430441	99
26
Properties=species:S:1:pos:R:3:Z:I:1 energy=-191.97913078045264 field_type=dipole dipole="0.000000 0.000000 0.000000" charge=0
C	-1.161662	0.280251	0.325012	6
C	0.314898	0.142251	0.430662	6
C	1.117378	-0.486139	-0.675728	6
O	1.057118	0.938381	-0.498488	8
H	-1.516362	1.066781	0.998552	1
H	-1.648122	-0.657769	0.610312	1
H	-1.480122	0.534441	-0.691608	1
H	0.673058	0.069631	1.447752	1
H	0.597768	-0.907769	-1.526658	1
H	2.046048	-0.980059	-0.419808	1
Es	0.733520	0.748597	-0.081442	99
Es	0.563329	0.103164	1.122322	99
Es	0.315048	0.142408	0.430441	99
Es	1.117358	-0.485825	-0.675682	99
Es	1.057300	0.938060	-0.498200	99
Es	0.958476	1.129599	-0.673348	99
Es	0.644937	-0.409569	-0.049557	99
Es	-1.482487	-0.362122	0.518582	99
Es	0.772535	-0.766970	-1.262745	99
Es	-1.364884	0.443345	-0.355227	99
Es	-0.427741	0.211749	0.367356	99
Es	-1.397875	0.819792	0.786840	99
Es	1.151853	0.409114	-0.686382	99
Es	1.750465	-0.811141	-0.512183	99
Es	-1.161646	0.280238	0.325029	99
Es	1.232947	0.936771	-0.379181	99
26
Properties=species:S:1:pos:R:3:Z:I:1 energy=-191.97913078045264 field_type=dipole dipole="0.000000 0.000000 0.000000" charge=0
C	-1.161662	0.280251	0.325012	6
C	0.314898	0.142251	0.430662	6
C	1.117378	-0.486139	-0.675728	6
O	1.057118	0.938381	-0.498488	8
H	-1.516362	1.066781	0.998552	1
H	-1.648122	-0.657769	0.610312	1
H	-1.480122	0.534441	-0.691608	1
H	0.673058	0.069631	1.447752	1
H	0.597768	-0.907769	-1.526658	1
H	2.046048	-0.980059	-0.419808	1
Es	0.563191	0.103222	1.122637	99
Es	1.117358	-0.485828	-0.675681	99
Es	-1.161644	0.280238	0.325029	99
Es	-1.365151	0.443275	-0.355306	99
Es	1.056718	0.937982	-0.498546	99
Es	1.229774	0.933528	-0.379809	99
Es	0.733011	0.748793	-0.081761	99
Es	1.150780	0.409076	-0.686735	99
Es	-1.398043	0.819649	0.786917	99
Es	0.315047	0.142407	0.430441	99
Es	0.772247	-0.766867	-1.262738	99
Es	-1.482378	-0.361839	0.518623	99
Es	1.750743	-0.811306	-0.512283	99
Es	0.645160	-0.409234	-0.049585	99
Es	-0.427419	0.211580	0.366975	99
Es	0.963742	1.132534	-0.671555	99
26
Properties=species:S:1:pos:R:3:Z:I:1 energy=-191.97913078045264 field_type=dipole dipole="0.000000 0.000000 0.000000" charge=0
C	-1.161662	0.280251	0.325012	6
C	0.314898	0.142251	0.430662	6
C	1.117378	-0.486139	-0.675728	6
O	1.057118	0.938381	-0.498488	8
H	-1.516362	1.066781	0.998552	1
H	-1.648122	-0.657769	0.610312	1
H	-1.480122	0.534441	-0.691608	1
H	0.673058	0.069631	1.447752	1
H	0.597768	-0.907769	-1.526658	1
H	2.046048	-0.980059	-0.419808	1
Es	0.770959	-0.763114	-1.259401	99
Es	0.315051	0.142411	0.430444	99
Es	-0.429508	0.211584	0.371730	99
Es	-1.477818	-0.356941	0.521158	99
Es	1.217577	1.145747	-0.506047	99
Es	1.189098	0.409920	-0.656554	99
Es	1.117361	-0.485832	-0.675680	99
Es	-1.398131	0.815484	0.789885	99
Es	0.899228	0.916388	-0.597363	99
Es	-1.366297	0.443784	-0.366487	99
Es	0.641896	-0.405286	-0.056030	99
Es	0.769279	0.751368	-0.059656	99
Es	0.563880	0.101379	1.125418	99
Es	-1.161645	0.280239	0.325029	99
Es	1.755681	-0.817488	-0.511377	99
Es	1.056525	0.937567	-0.498447	99
