29
Properties=species:S:1:pos:R:3:Z:I:1 energy=-192.8147952435218 field_type=dipole dipole="0.000000 0.000000 0.000000" charge=0
C	-1.861959	-0.535585	0.005443	6
C	-0.369839	-0.500255	0.015153	6
C	0.333931	0.640924	-0.008037	6
C	1.739931	0.640924	-0.008037	6
C	2.930091	0.640924	-0.008037	6
H	-2.209119	-1.571025	-0.064937	1
H	-2.262309	0.008395	-0.856757	1
H	-2.267409	-0.106835	0.925713	1
H	0.146071	-1.457355	0.038663	1
H	-0.174489	1.600594	-0.031167	1
H	3.995100	0.639295	-0.007997	1
Es	-0.369920	-0.500326	0.015153	99
Es	2.339207	0.309085	0.129740	99
Es	-0.026831	-1.148941	0.031674	99
Es	1.739673	0.640932	-0.008034	99
Es	2.930354	0.640925	-0.008039	99
Es	-1.113972	-0.516690	0.010288	99
Es	-2.122978	-0.242465	0.623680	99
Es	-2.121146	-0.163432	-0.572782	99
Es	2.338844	0.926179	0.205194	99
Es	-2.095236	-1.238732	-0.041950	99
Es	1.058079	0.647774	-0.007180	99
Es	0.334074	0.641009	-0.008032	99
Es	2.330762	0.679194	-0.359323	99
Es	0.031010	0.092779	-0.317923	99
Es	0.028276	0.108034	0.324195	99
Es	0.003981	1.288300	-0.023886	99
Es	-1.861909	-0.535586	0.005442	99
Es	3.626331	0.639689	-0.007989	99
29
Properties=species:S:1:pos:R:3:Z:I:1 energy=-192.8147952435218 field_type=dipole dipole="0.000000 0.000000 0.000000" charge=0
C	-1.861959	-0.535585	0.005443	6
C	-0.369839	-0.500255	0.015153	6
C	0.333931	0.640924	-0.008037	6
C	1.739931	0.640924	-0.008037	6
C	2.930091	0.640924	-0.008037	6
H	-2.209119	-1.571025	-0.064937	1
H	-2.262309	0.008395	-0.856757	1
H	-2.267409	-0.106835	0.925713	1
H	0.146071	-1.457355	0.038663	1
H	-0.174489	1.600594	-0.031167	1
H	3.995100	0.639295	-0.007997	1
Es	-0.369925	-0.500328	0.015161	99
Es	1.739666	0.640930	-0.008036	99
Es	-2.123015	-0.243013	0.617271	99
Es	0.030889	0.093485	-0.314227	99
Es	0.027492	0.108230	0.320247	99
Es	0.003656	1.284707	-0.023976	99
Es	3.628281	0.644356	-0.008162	99
Es	-1.861909	-0.535587	0.005443	99
Es	-2.099987	-1.239404	-0.041579	99
Es	2.333174	0.472007	0.292550	99
Es	2.930368	0.640930	-0.008028	99
Es	-2.121609	-0.164768	-0.566947	99
Es	0.334081	0.641019	-0.008035	99
Es	1.060617	0.644148	-0.007073	99
Es	-0.026717	-1.145693	0.031745	99
Es	2.333563	0.442171	-0.291797	99
Es	-1.111886	-0.514977	0.010565	99
Es	2.341858	0.999514	-0.024894	99
29
Properties=species:S:1:pos:R:3:Z:I:1 energy=-192.8147952435218 field_type=dipole dipole="0.000000 0.000000 0.000000" charge=0
C	-1.861959	-0.535585	0.005443	6
C	-0.369839	-0.500255	0.015153	6
C	0.333931	0.640924	-0.008037	6
C	1.739931	0.640924	-0.008037	6
C	2.930091	0.640924	-0.008037	6
H	-2.209119	-1.571025	-0.064937	1
H	-2.262309	0.008395	-0.856757	1
H	-2.267409	-0.106835	0.925713	1
H	0.146071	-1.457355	0.038663	1
H	-0.174489	1.600594	-0.031167	1
H	3.995100	0.639295	-0.007997	1
Es	-1.110956	-0.513706	0.010848	99
Es	0.030638	0.093503	-0.312321	99
Es	3.628830	0.646591	-0.008451	99
Es	-0.369927	-0.500329	0.015151	99
Es	-2.120826	-0.166059	-0.561957	99
Es	-0.027201	-1.143042	0.031672	99
Es	0.334082	0.641017	-0.008037	99
Es	0.003812	1.281905	-0.024136	99
Es	0.027649	0.108424	0.318666	99
Es	-2.121792	-0.243517	0.611539	99
Es	-2.104251	-1.239804	-0.040980	99
Es	2.333421	0.448234	-0.287147	99
Es	2.333513	0.464523	0.279761	99
Es	1.061970	0.642721	-0.007255	99
Es	-1.861909	-0.535586	0.005444	99
Es	2.341520	1.001010	-0.016498	99
Es	1.739658	0.640914	-0.008036	99
Es	2.930368	0.640928	-0.008034	99
29
Properties=species:S:1:pos:R:3:Z:I:1 energy=-192.8147952435218 field_type=dipole dipole="0.000000 0.000000 0.000000" charge=0
C	-1.861959	-0.535585	0.005443	6
C	-0.369839	-0.500255	0.015153	6
C	0.333931	0.640924	-0.008037	6
C	1.739931	0.640924	-0.008037	6
C	2.930091	0.640924	-0.008037	6
H	-2.209119	-1.571025	-0.064937	1
H	-2.262309	0.008395	-0.856757	1
H	-2.267409	-0.106835	0.925713	1
H	0.146071	-1.457355	0.038663	1
H	-0.174489	1.600594	-0.031167	1
H	3.995100	0.639295	-0.007997	1
Es	-2.108123	-1.239337	-0.041707	99
Es	1.739655	0.640917	-0.008037	99
Es	3.628984	0.648079	-0.008896	99
Es	0.028079	0.108256	0.318860	99
Es	0.334084	0.641020	-0.008044	99
Es	2.337413	0.355328	0.203255	99
Es	2.330084	0.566365	-0.299734	99
Es	2.340964	0.991494	0.072997	99
Es	-0.028560	-1.140359	0.031123	99
Es	1.062664	0.642858	-0.007261	99
Es	-1.110538	-0.513059	0.010196	99
Es	-2.118643	-0.168137	-0.556835	99
Es	-0.369927	-0.500329	0.015155	99
Es	-1.861911	-0.535586	0.005445	99
Es	0.030107	0.093648	-0.312719	99
Es	0.005088	1.278937	-0.023267	99
Es	2.930373	0.640938	-0.008047	99
Es	-2.121194	-0.243306	0.607744	99
29
Properties=species:S:1:pos:R:3:Z:I:1 energy=-192.8147952435218 field_type=dipole dipole="0.000000 0.000000 0.000000" charge=0
C	-1.861959	-0.535585	0.005443	6
C	-0.369839	-0.500255	0.015153	6
C	0.333931	0.640924	-0.008037	6
C	1.739931	0.640924	-0.008037	6
C	2.930091	0.640924	-0.008037	6
H	-2.209119	-1.571025	-0.064937	1
H	-2.262309	0.008395	-0.856757	1
H	-2.267409	-0.106835	0.925713	1
H	0.146071	-1.457355	0.038663	1
H	-0.174489	1.600594	-0.031167	1
H	3.995100	0.639295	-0.007997	1
Es	2.338408	0.320224	0.157379	99
Es	-2.117091	-0.169251	-0.553417	99
Es	2.340720	0.984405	0.096824	99
Es	2.930374	0.640931	-0.008035	99
Es	1.739655	0.640905	-0.008035	99
Es	-0.369927	-0.500328	0.015159	99
Es	0.030877	0.093642	-0.314415	99
Es	0.027442	0.107932	0.320410	99
Es	1.063009	0.643343	-0.007190	99
Es	-1.110339	-0.513206	0.010406	99
Es	0.334085	0.641017	-0.008044	99
Es	-0.030832	-1.137137	0.031444	99
Es	-2.111805	-1.238325	-0.041217	99
Es	-1.861911	-0.535588	0.005445	99
Es	2.329372	0.608107	-0.277818	99
Es	0.007134	1.275927	-0.023547	99
Es	3.629055	0.648771	-0.008905	99
Es	-2.119626	-0.243642	0.603785	99
29
Properties=species:S:1:pos:R:3:Z:I:1 energy=-192.8147952435218 field_type=dipole dipole="0.000000 0.000000 0.000000" charge=0
C	-1.861959	-0.535585	0.005443	6
C	-0.369839	-0.500255	0.015153	6
C	0.333931	0.640924	-0.008037	6
C	1.739931	0.640924	-0.008037	6
C	2.930091	0.640924	-0.008037	6
H	-2.209119	-1.571025	-0.064937	1
H	-2.262309	0.008395	-0.856757	1
H	-2.267409	-0.106835	0.925713	1
H	0.146071	-1.457355	0.038663	1
H	-0.174489	1.600594	-0.031167	1
H	3.995100	0.639295	-0.007997	1
Es	1.063164	0.643812	-0.007297	99
Es	0.025733	0.107456	0.322316	99
Es	2.329417	0.624782	0.240485	99
Es	2.338356	0.305501	-0.143801	99
Es	0.009122	1.273195	-0.024895	99
Es	-0.033276	-1.133826	0.032160	99
Es	-2.115419	-0.246118	0.597719	99
Es	3.629156	0.648757	-0.008153	99
Es	0.334086	0.641019	-0.008036	99
Es	-0.369928	-0.500330	0.015156	99
Es	2.930374	0.640936	-0.008041	99
Es	-1.110214	-0.513372	0.010804	99
Es	1.739653	0.640915	-0.008040	99
Es	2.340725	0.982351	-0.120979	99
Es	-2.117085	-0.168522	-0.550894	99
Es	-2.116361	-1.236646	-0.038016	99
Es	0.033005	0.093402	-0.315699	99
Es	-1.861908	-0.535585	0.005442	99
29
Properties=species:S:1:pos:R:3:Z:I:1 energy=-192.8147952435218 field_type=dipole dipole="0.000000 0.000000 0.000000" charge=0
C	-1.861959	-0.535585	0.005443	6
C	-0.369839	-0.500255	0.015153	6
C	0.333931	0.640924	-0.008037	6
C	1.739931	0.640924	-0.008037	6
C	2.930091	0.640924	-0.008037	6
H	-2.209119	-1.571025	-0.064937	1
H	-2.262309	0.008395	-0.856757	1
H	-2.267409	-0.106835	0.925713	1
H	0.146071	-1.457355	0.038663	1
H	-0.174489	1.600594	-0.031167	1
H	3.995100	0.639295	-0.007997	1
Es	0.032305	0.093145	-0.318786	99
Es	-1.110144	-0.513566	0.010354	99
Es	2.328998	0.622349	-0.224412	99
Es	-2.116152	-0.244125	0.595521	99
Es	2.930375	0.640935	-0.008039	99
Es	2.338508	0.300480	0.119560	99
Es	0.334085	0.641016	-0.008040	99
Es	-2.120372	-1.234306	-0.040148	99
Es	1.063207	0.644218	-0.007257	99
Es	-1.861909	-0.535586	0.005445	99
Es	2.341013	0.989685	0.081067	99
Es	-0.036223	-1.129862	0.031436	99
Es	1.739653	0.640916	-0.008040	99
Es	0.026633	0.106807	0.325057	99
Es	-0.369929	-0.500329	0.015156	99
Es	0.011838	1.270229	-0.023838	99
Es	-2.112537	-0.172681	-0.546102	99
Es	3.629249	0.648403	-0.008703	99
29
Properties=species:S:1:pos:R:3:Z:I:1 energy=-192.8147952435218 field_type=dipole dipole="0.000000 0.000000 0.000000" charge=0
C	-1.861959	-0.535585	0.005443	6
C	-0.369839	-0.500255	0.015153	6
C	0.333931	0.640924	-0.008037	6
C	1.739931	0.640924	-0.008037	6
C	2.930091	0.640924	-0.008037	6
H	-2.209119	-1.571025	-0.064937	1
H	-2.262309	0.008395	-0.856757	1
H	-2.267409	-0.106835	0.925713	1
H	0.146071	-1.457355	0.038663	1
H	-0.174489	1.600594	-0.031167	1
H	3.995100	0.639295	-0.007997	1
Es	-2.112211	-0.172371	-0.544128	99
Es	-0.369929	-0.500332	0.015152	99
Es	1.063234	0.644353	-0.007290	99
Es	2.930374	0.640938	-0.008032	99
Es	0.033656	0.092331	-0.320739	99
Es	1.739654	0.640909	-0.008044	99
Es	0.014007	1.267749	-0.024620	99
Es	2.338487	0.290972	-0.107391	99
Es	-1.110097	-0.513704	0.010582	99
Es	2.329054	0.631889	0.183454	99
Es	-1.861908	-0.535588	0.005443	99
Es	-2.125331	-1.230927	-0.035569	99
Es	2.340981	0.989624	-0.100198	99
Es	3.629335	0.647970	-0.008281	99
Es	-0.038766	-1.126159	0.031889	99
Es	-2.111661	-0.247443	0.588714	99
Es	0.025636	0.106500	0.327323	99
Es	0.334085	0.641016	-0.008036	99
29
Properties=species:S:1:pos:R:3:Z:I:1 energy=-192.8147952435218 field_type=dipole dipole="0.000000 0.000000 0.000000" charge=0
C	-1.861959	-0.535585	0.005443	6
C	-0.369839	-0.500255	0.015153	6
C	0.333931	0.640924	-0.008037	6
C	1.739931	0.640924	-0.008037	6
C	2.930091	0.640924	-0.008037	6
H	-2.209119	-1.571025	-0.064937	1
H	-2.262309	0.008395	-0.856757	1
H	-2.267409	-0.106835	0.925713	1
H	0.146071	-1.457355	0.038663	1
H	-0.174489	1.600594	-0.031167	1
H	3.995100	0.639295	-0.007997	1
Es	2.341150	0.995385	0.060002	99
Es	-1.861909	-0.535585	0.005441	99
Es	3.629420	0.647401	-0.008538	99
Es	-0.369929	-0.500328	0.015156	99
Es	2.930375	0.640931	-0.008040	99
Es	1.063230	0.644575	-0.007346	99
Es	2.338602	0.288237	0.083737	99
Es	-0.041178	-1.122365	0.031818	99
Es	1.739653	0.640911	-0.008033	99
Es	0.034618	0.092261	-0.322759	99
Es	2.328771	0.628891	-0.167612	99
Es	0.334086	0.641018	-0.008040	99
Es	-2.129711	-1.226939	-0.038248	99
Es	-2.111464	-0.246866	0.586291	99
Es	-2.108133	-0.176476	-0.538752	99
Es	0.025191	0.105033	0.328963	99
Es	-1.110063	-0.513860	0.010325	99
Es	0.015890	1.265503	-0.024133	99
29
Properties=species:S:1:pos:R:3:Z:I:1 energy=-192.8147952435218 field_type=dipole dipole="0.000000 0.000000 0.000000" charge=0
C	-1.861959	-0.535585	0.005443	6
C	-0.369839	-0.500255	0.015153	6
C	0.333931	0.640924	-0.008037	6
C	1.739931	0.640924	-0.008037	6
C	2.930091	0.640924	-0.008037	6
H	-2.209119	-1.571025	-0.064937	1
H	-2.262309	0.008395	-0.856757	1
H	-2.267409	-0.106835	0.925713	1
H	0.146071	-1.457355	0.038663	1
H	-0.174489	1.600594	-0.031167	1
H	3.995100	0.639295	-0.007997	1
Es	1.063226	0.644703	-0.007278	99
Es	0.035037	0.091683	-0.324663	99
Es	-2.110225	-0.247824	0.583323	99
Es	1.739653	0.640909	-0.008039	99
Es	-2.133003	-1.223454	-0.038500	99
Es	0.025291	0.103953	0.330826	99
Es	-2.106151	-0.178613	-0.535610	99
Es	2.930375	0.640936	-0.008035	99
Es	3.629492	0.646888	-0.008466	99
Es	0.017570	1.263411	-0.023920	99
Es	2.328671	0.629625	-0.129759	99
Es	2.338584	0.283952	0.066052	99
Es	0.334087	0.641018	-0.008036	99
Es	2.341261	0.998986	0.039771	99
Es	-0.369930	-0.500326	0.015156	99
Es	-1.110044	-0.513964	0.010365	99
Es	-0.043385	-1.118568	0.031599	99
Es	-1.861910	-0.535587	0.005442	99
29
Properties=species:S:1:pos:R:3:Z:I:1 energy=-192.8147952435218 field_type=dipole dipole="0.000000 0.000000 0.000000" charge=0
C	-1.861959	-0.535585	0.005443	6
C	-0.369839	-0.500255	0.015153	6
C	0.333931	0.640924	-0.008037	6
C	1.739931	0.640924	-0.008037	6
C	2.930091	0.640924	-0.008037	6
H	-2.209119	-1.571025	-0.064937	1
H	-2.262309	0.008395	-0.856757	1
H	-2.267409	-0.106835	0.925713	1
H	0.146071	-1.457355	0.038663	1
H	-0.174489	1.600594	-0.031167	1
H	3.995100	0.639295	-0.007997	1
Es	2.341300	1.000455	0.028264	99
Es	2.930375	0.640935	-0.008040	99
Es	-0.044755	-1.116098	0.031377	99
Es	-0.369930	-0.500327	0.015153	99
Es	-1.861908	-0.535586	0.005442	99
Es	0.035312	0.090138	-0.325079	99
Es	0.017670	1.263357	-0.024261	99
Es	1.739653	0.640914	-0.008035	99
Es	2.338579	0.281975	0.055603	99
Es	2.328632	0.630177	-0.107728	99
Es	-1.110034	-0.513990	0.010255	99
Es	-2.103372	-0.182167	-0.531644	99
Es	0.026276	0.103145	0.331762	99
Es	0.334086	0.641015	-0.008021	99
Es	-2.108654	-0.249105	0.578456	99
Es	3.629540	0.646520	-0.008451	99
Es	-2.137410	-1.218286	-0.037524	99
Es	1.063237	0.644657	-0.007300	99
29
Properties=species:S:1:pos:R:3:Z:I:1 energy=-192.8147952435218 field_type=dipole dipole="0.000000 0.000000 0.000000" charge=0
C	-1.861959	-0.535585	0.005443	6
C	-0.369839	-0.500255	0.015153	6
C	0.333931	0.640924	-0.008037	6
C	1.739931	0.640924	-0.008037	6
C	2.930091	0.640924	-0.008037	6
H	-2.209119	-1.571025	-0.064937	1
H	-2.262309	0.008395	-0.856757	1
H	-2.267409	-0.106835	0.925713	1
H	0.146071	-1.457355	0.038663	1
H	-0.174489	1.600594	-0.031167	1
H	3.995100	0.639295	-0.007997	1
Es	2.328625	0.633785	0.045451	99
Es	2.338510	0.277462	-0.035050	99
Es	0.024900	0.100590	0.331803	99
Es	0.037689	0.090194	-0.325265	99
Es	-2.103787	-0.181442	-0.531520	99
Es	0.334086	0.641020	-0.008032	99
Es	-0.369930	-0.500327	0.015155	99
Es	3.629587	0.646121	-0.008287	99
Es	-1.861908	-0.535585	0.005442	99
Es	-1.110015	-0.514161	0.010377	99
Es	1.063223	0.644791	-0.007356	99
Es	2.930375	0.640932	-0.008038	99
Es	-2.140159	-1.214753	-0.032884	99
Es	-0.046564	-1.112529	0.031568	99
Es	2.341377	1.001364	-0.034343	99
Es	1.739653	0.640912	-0.008036	99
Es	-2.105536	-0.252997	0.573537	99
Es	0.018470	1.262350	-0.024294	99
29
Properties=species:S:1:pos:R:3:Z:I:1 energy=-192.8147952435218 field_type=dipole dipole="0.000000 0.000000 0.000000" charge=0
C	-1.861959	-0.535585	0.005443	6
C	-0.369839	-0.500255	0.015153	6
C	0.333931	0.640924	-0.008037	6
C	1.739931	0.640924	-0.008037	6
C	2.930091	0.640924	-0.008037	6
H	-2.209119	-1.571025	-0.064937	1
H	-2.262309	0.008395	-0.856757	1
H	-2.267409	-0.106835	0.925713	1
H	0.146071	-1.457355	0.038663	1
H	-0.174489	1.600594	-0.031167	1
H	3.995100	0.639295	-0.007997	1
Es	2.341371	1.002149	0.004624	99
Es	-0.046918	-1.111939	0.031923	99
Es	0.018684	1.262100	-0.024522	99
Es	1.063230	0.644769	-0.007156	99
Es	-1.861909	-0.535583	0.005438	99
Es	0.334086	0.641015	-0.008023	99
Es	-2.102177	-0.183880	-0.526799	99
Es	0.023153	0.099334	0.330008	99
Es	-2.143556	-1.209791	-0.035425	99
Es	2.338566	0.276930	0.009710	99
Es	-0.369929	-0.500326	0.015156	99
Es	2.328573	0.633559	-0.038291	99
Es	3.629612	0.645900	-0.008338	99
Es	-2.103771	-0.255408	0.571463	99
Es	0.039586	0.090967	-0.323738	99
Es	2.930375	0.640935	-0.008039	99
Es	-1.110029	-0.513917	0.010274	99
Es	1.739653	0.640914	-0.008037	99
29
Properties=species:S:1:pos:R:3:Z:I:1 energy=-192.8147952435218 field_type=dipole dipole="0.000000 0.000000 0.000000" charge=0
C	-1.861959	-0.535585	0.005443	6
C	-0.369839	-0.500255	0.015153	6
C	0.333931	0.640924	-0.008037	6
C	1.739931	0.640924	-0.008037	6
C	2.930091	0.640924	-0.008037	6
H	-2.209119	-1.571025	-0.064937	1
H	-2.262309	0.008395	-0.856757	1
H	-2.267409	-0.106835	0.925713	1
H	0.146071	-1.457355	0.038663	1
H	-0.174489	1.600594	-0.031167	1
H	3.995100	0.639295	-0.007997	1
Es	1.063228	0.644781	-0.007122	99
Es	1.739653	0.640915	-0.008041	99
Es	-1.861910	-0.535579	0.005434	99
Es	3.629639	0.645655	-0.008115	99
Es	0.334087	0.641019	-0.008032	99
Es	0.024660	0.098993	0.330668	99
Es	-2.103875	-0.255570	0.565084	99
Es	-2.147094	-1.204303	-0.032109	99
Es	2.338529	0.276560	-0.008993	99
Es	0.018223	1.262833	-0.024139	99
Es	-0.369930	-0.500326	0.015157	99
Es	2.341401	1.002291	-0.015291	99
Es	2.328580	0.633779	0.000243	99
Es	-2.098557	-0.189056	-0.524023	99
Es	0.038811	0.090163	-0.324447	99
Es	-0.047203	-1.111342	0.031567	99
Es	-1.110016	-0.514014	0.010427	99
Es	2.930376	0.640929	-0.008038	99
