34
Properties=species:S:1:pos:R:3:Z:I:1 energy=-211.19728785381676 field_type=dipole dipole="0.000000 0.000000 0.000000" charge=0
C	-1.541908	0.110104	-0.046296	6
C	-0.060078	0.052804	0.222304	6
N	0.312782	0.019394	1.642794	7
C	0.806752	-0.703606	-0.753576	6
C	0.850682	0.797854	-0.721506	6
H	-1.763798	0.142734	-1.118586	1
H	-1.978788	1.002834	0.413784	1
H	-2.039218	-0.771786	0.371554	1
H	1.323502	-0.026726	1.761264	1
H	-0.059728	-0.818586	2.089004	1
H	0.335562	-1.176776	-1.607966	1
H	1.670682	-1.242336	-0.382486	1
H	1.736412	1.276194	-0.319656	1
H	0.407142	1.337894	-1.550626	1
Es	1.453408	1.115837	-0.442485	99
Es	0.482955	-1.022586	-1.336209	99
Es	-1.876861	-0.494185	0.241315	99
Es	-0.059937	0.052791	0.222331	99
Es	0.344701	0.601272	-0.183050	99
Es	0.312568	-0.508628	-0.220597	99
Es	0.544139	1.160995	-1.283783	99
Es	0.850634	0.797694	-0.721462	99
Es	0.169756	0.008132	1.019682	99
Es	0.186955	0.302590	1.806975	99
Es	0.806734	-0.703445	-0.753550	99
Es	0.953785	0.046060	-0.873735	99
Es	-0.799288	0.078209	0.085214	99
Es	0.925329	-0.025639	1.692573	99
Es	1.394293	-1.066406	-0.492009	99
Es	0.312992	0.018910	1.642517	99
Es	0.095650	-0.502605	1.890182	99
Es	-1.541878	0.110090	-0.046298	99
Es	-1.836601	0.714992	0.264934	99
Es	-1.681557	0.129687	-0.778082	99
34
Properties=species:S:1:pos:R:3:Z:I:1 energy=-211.19728785381676 field_type=dipole dipole="0.000000 0.000000 0.000000" charge=0
C	-1.541908	0.110104	-0.046296	6
C	-0.060078	0.052804	0.222304	6
N	0.312782	0.019394	1.642794	7
C	0.806752	-0.703606	-0.753576	6
C	0.850682	0.797854	-0.721506	6
H	-1.763798	0.142734	-1.118586	1
H	-1.978788	1.002834	0.413784	1
H	-2.039218	-0.771786	0.371554	1
H	1.323502	-0.026726	1.761264	1
H	-0.059728	-0.818586	2.089004	1
H	0.335562	-1.176776	-1.607966	1
H	1.670682	-1.242336	-0.382486	1
H	1.736412	1.276194	-0.319656	1
H	0.407142	1.337894	-1.550626	1
Es	-1.877067	-0.495473	0.241423	99
Es	0.483704	-1.022429	-1.335219	99
Es	0.923743	-0.027209	1.690875	99
Es	1.452829	1.115581	-0.443145	99
Es	0.850634	0.797703	-0.721459	99
Es	-0.799476	0.078272	0.084889	99
Es	0.312968	0.018965	1.642527	99
Es	0.544710	1.160946	-1.283462	99
Es	-1.541882	0.110090	-0.046297	99
Es	-1.680759	0.129963	-0.777385	99
Es	-0.059934	0.052797	0.222327	99
Es	0.806726	-0.703449	-0.753541	99
Es	1.393471	-1.066459	-0.492593	99
Es	0.344321	0.602463	-0.182418	99
Es	0.188024	0.306275	1.806286	99
Es	0.311269	-0.510145	-0.219690	99
Es	0.955363	0.047019	-0.875398	99
Es	0.171002	0.006578	1.020545	99
Es	-1.836384	0.715707	0.264810	99
Es	0.094511	-0.503429	1.891386	99
34
Properties=species:S:1:pos:R:3:Z:I:1 energy=-211.19728785381676 field_type=dipole dipole="0.000000 0.000000 0.000000" charge=0
C	-1.541908	0.110104	-0.046296	6
C	-0.060078	0.052804	0.222304	6
N	0.312782	0.019394	1.642794	7
C	0.806752	-0.703606	-0.753576	6
C	0.850682	0.797854	-0.721506	6
H	-1.763798	0.142734	-1.118586	1
H	-1.978788	1.002834	0.413784	1
H	-2.039218	-0.771786	0.371554	1
H	1.323502	-0.026726	1.761264	1
H	-0.059728	-0.818586	2.089004	1
H	0.335562	-1.176776	-1.607966	1
H	1.670682	-1.242336	-0.382486	1
H	1.736412	1.276194	-0.319656	1
H	0.407142	1.337894	-1.550626	1
Es	0.545247	1.161049	-1.283229	99
Es	1.392894	-1.066364	-0.493122	99
Es	0.093496	-0.503886	1.892450	99
Es	0.188740	0.309014	1.805237	99
Es	-0.799708	0.078145	0.084686	99
Es	0.850632	0.797691	-0.721460	99
Es	-1.680193	0.129971	-0.776893	99
Es	-1.877323	-0.496157	0.241605	99
Es	-0.059934	0.052799	0.222326	99
Es	1.452286	1.115215	-0.443564	99
Es	0.484381	-1.022220	-1.334487	99
Es	0.343999	0.603294	-0.181871	99
Es	-1.836097	0.716354	0.264569	99
Es	0.956508	0.047604	-0.876667	99
Es	0.312984	0.018926	1.642512	99
Es	0.310287	-0.511317	-0.218921	99
Es	0.922595	-0.028183	1.689846	99
Es	0.806731	-0.703442	-0.753545	99
Es	0.172129	0.005179	1.021289	99
Es	-1.541881	0.110090	-0.046298	99
34
Properties=species:S:1:pos:R:3:Z:I:1 energy=-211.19728785381676 field_type=dipole dipole="0.000000 0.000000 0.000000" charge=0
C	-1.541908	0.110104	-0.046296	6
C	-0.060078	0.052804	0.222304	6
N	0.312782	0.019394	1.642794	7
C	0.806752	-0.703606	-0.753576	6
C	0.850682	0.797854	-0.721506	6
H	-1.763798	0.142734	-1.118586	1
H	-1.978788	1.002834	0.413784	1
H	-2.039218	-0.771786	0.371554	1
H	1.323502	-0.026726	1.761264	1
H	-0.059728	-0.818586	2.089004	1
H	0.335562	-1.176776	-1.607966	1
H	1.670682	-1.242336	-0.382486	1
H	1.736412	1.276194	-0.319656	1
H	0.407142	1.337894	-1.550626	1
Es	0.850629	0.797700	-0.721456	99
Es	-1.541880	0.110090	-0.046298	99
Es	-0.059933	0.052798	0.222323	99
Es	0.545589	1.160937	-1.283090	99
Es	0.957720	0.047994	-0.877801	99
Es	0.806729	-0.703443	-0.753543	99
Es	0.312988	0.018924	1.642513	99
Es	1.451835	1.115102	-0.443940	99
Es	1.392440	-1.066457	-0.493470	99
Es	0.484795	-1.021964	-1.333820	99
Es	0.172209	0.005276	1.021914	99
Es	-1.835959	0.716771	0.264397	99
Es	-0.799774	0.078062	0.084482	99
Es	0.343584	0.603654	-0.181488	99
Es	0.093423	-0.504564	1.892341	99
Es	-1.679817	0.130013	-0.776432	99
Es	0.921610	-0.029334	1.688497	99
Es	0.189551	0.310691	1.805962	99
Es	0.309470	-0.511743	-0.218325	99
Es	-1.877437	-0.496741	0.241696	99
34
Properties=species:S:1:pos:R:3:Z:I:1 energy=-211.19728785381676 field_type=dipole dipole="0.000000 0.000000 0.000000" charge=0
C	-1.541908	0.110104	-0.046296	6
C	-0.060078	0.052804	0.222304	6
N	0.312782	0.019394	1.642794	7
C	0.806752	-0.703606	-0.753576	6
C	0.850682	0.797854	-0.721506	6
H	-1.763798	0.142734	-1.118586	1
H	-1.978788	1.002834	0.413784	1
H	-2.039218	-0.771786	0.371554	1
H	1.323502	-0.026726	1.761264	1
H	-0.059728	-0.818586	2.089004	1
H	0.335562	-1.176776	-1.607966	1
H	1.670682	-1.242336	-0.382486	1
H	1.736412	1.276194	-0.319656	1
H	0.407142	1.337894	-1.550626	1
Es	0.308856	-0.512238	-0.217929	99
Es	0.093044	-0.504674	1.893110	99
Es	-1.679464	0.130116	-0.776119	99
Es	0.806725	-0.703434	-0.753545	99
Es	0.312989	0.018926	1.642514	99
Es	-0.799893	0.078085	0.084370	99
Es	-0.059932	0.052797	0.222323	99
Es	-1.835821	0.717037	0.264258	99
Es	-1.877559	-0.497220	0.241741	99
Es	-1.541879	0.110090	-0.046297	99
Es	0.958346	0.048008	-0.878502	99
Es	1.451478	1.114786	-0.444295	99
Es	0.173173	0.003645	1.022507	99
Es	0.921193	-0.029228	1.688336	99
Es	0.850636	0.797699	-0.721464	99
Es	1.392134	-1.066462	-0.493773	99
Es	0.189191	0.312201	1.804619	99
Es	0.545925	1.160963	-1.283034	99
Es	0.485188	-1.021740	-1.333277	99
Es	0.343446	0.604409	-0.181080	99
34
Properties=species:S:1:pos:R:3:Z:I:1 energy=-211.19728785381676 field_type=dipole dipole="0.000000 0.000000 0.000000" charge=0
C	-1.541908	0.110104	-0.046296	6
C	-0.060078	0.052804	0.222304	6
N	0.312782	0.019394	1.642794	7
C	0.806752	-0.703606	-0.753576	6
C	0.850682	0.797854	-0.721506	6
H	-1.763798	0.142734	-1.118586	1
H	-1.978788	1.002834	0.413784	1
H	-2.039218	-0.771786	0.371554	1
H	1.323502	-0.026726	1.761264	1
H	-0.059728	-0.818586	2.089004	1
H	0.335562	-1.176776	-1.607966	1
H	1.670682	-1.242336	-0.382486	1
H	1.736412	1.276194	-0.319656	1
H	0.407142	1.337894	-1.550626	1
Es	-0.059934	0.052806	0.222329	99
Es	1.391948	-1.066456	-0.494112	99
Es	0.806726	-0.703445	-0.753542	99
Es	0.485488	-1.021504	-1.332783	99
Es	0.092486	-0.504910	1.893558	99
Es	-0.800012	0.078115	0.084178	99
Es	1.451216	1.114556	-0.444559	99
Es	0.313017	0.018888	1.642499	99
Es	0.308494	-0.512688	-0.217647	99
Es	-1.877556	-0.497560	0.241807	99
Es	-1.541879	0.110090	-0.046297	99
Es	0.190069	0.313015	1.804384	99
Es	0.546222	1.160941	-1.283000	99
Es	0.958843	0.048282	-0.879132	99
Es	-1.835736	0.717279	0.264181	99
Es	0.850636	0.797695	-0.721457	99
Es	0.920530	-0.029828	1.687741	99
Es	0.173343	0.003621	1.022795	99
Es	-1.679275	0.130127	-0.775855	99
Es	0.343148	0.604741	-0.180628	99
34
Properties=species:S:1:pos:R:3:Z:I:1 energy=-211.19728785381676 field_type=dipole dipole="0.000000 0.000000 0.000000" charge=0
C	-1.541908	0.110104	-0.046296	6
C	-0.060078	0.052804	0.222304	6
N	0.312782	0.019394	1.642794	7
C	0.806752	-0.703606	-0.753576	6
C	0.850682	0.797854	-0.721506	6
H	-1.763798	0.142734	-1.118586	1
H	-1.978788	1.002834	0.413784	1
H	-2.039218	-0.771786	0.371554	1
H	1.323502	-0.026726	1.761264	1
H	-0.059728	-0.818586	2.089004	1
H	0.335562	-1.176776	-1.607966	1
H	1.670682	-1.242336	-0.382486	1
H	1.736412	1.276194	-0.319656	1
H	0.407142	1.337894	-1.550626	1
Es	0.190592	0.313699	1.804394	99
Es	0.313000	0.018916	1.642511	99
Es	-1.835692	0.717555	0.264072	99
Es	0.308061	-0.512879	-0.217325	99
Es	0.546351	1.160933	-1.282771	99
Es	0.485758	-1.021356	-1.332445	99
Es	-1.541878	0.110090	-0.046301	99
Es	0.806733	-0.703447	-0.753548	99
Es	-1.877619	-0.497853	0.241788	99
Es	1.391665	-1.066439	-0.494292	99
Es	-0.800256	0.078025	0.084237	99
Es	0.920265	-0.030465	1.687204	99
Es	-0.059936	0.052804	0.222330	99
Es	0.092109	-0.504990	1.893632	99
Es	0.959595	0.048529	-0.879923	99
Es	-1.678891	0.130117	-0.775675	99
Es	0.173395	0.003562	1.023108	99
Es	1.450950	1.114524	-0.444711	99
Es	0.850635	0.797696	-0.721462	99
Es	0.342937	0.604746	-0.180360	99
34
Properties=species:S:1:pos:R:3:Z:I:1 energy=-211.19728785381676 field_type=dipole dipole="0.000000 0.000000 0.000000" charge=0
C	-1.541908	0.110104	-0.046296	6
C	-0.060078	0.052804	0.222304	6
N	0.312782	0.019394	1.642794	7
C	0.806752	-0.703606	-0.753576	6
C	0.850682	0.797854	-0.721506	6
H	-1.763798	0.142734	-1.118586	1
H	-1.978788	1.002834	0.413784	1
H	-2.039218	-0.771786	0.371554	1
H	1.323502	-0.026726	1.761264	1
H	-0.059728	-0.818586	2.089004	1
H	0.335562	-1.176776	-1.607966	1
H	1.670682	-1.242336	-0.382486	1
H	1.736412	1.276194	-0.319656	1
H	0.407142	1.337894	-1.550626	1
Es	-1.835684	0.717689	0.263979	99
Es	0.959782	0.048517	-0.880291	99
Es	0.342874	0.605054	-0.180311	99
Es	-1.541880	0.110090	-0.046298	99
Es	0.546588	1.160995	-1.282775	99
Es	0.191183	0.314759	1.803530	99
Es	-0.059937	0.052803	0.222328	99
Es	0.173865	0.002759	1.023485	99
Es	0.091543	-0.504902	1.894453	99
Es	0.312966	0.018979	1.642531	99
Es	-0.800160	0.078082	0.084067	99
Es	1.391626	-1.066427	-0.494553	99
Es	0.806730	-0.703439	-0.753545	99
Es	0.850636	0.797694	-0.721464	99
Es	-1.678818	0.130133	-0.775383	99
Es	1.450751	1.114333	-0.444773	99
Es	0.307575	-0.513296	-0.217027	99
Es	0.486072	-1.021083	-1.332081	99
Es	0.919705	-0.030895	1.686801	99
Es	-1.877645	-0.498081	0.241789	99
34
Properties=species:S:1:pos:R:3:Z:I:1 energy=-211.19728785381676 field_type=dipole dipole="0.000000 0.000000 0.000000" charge=0
C	-1.541908	0.110104	-0.046296	6
C	-0.060078	0.052804	0.222304	6
N	0.312782	0.019394	1.642794	7
C	0.806752	-0.703606	-0.753576	6
C	0.850682	0.797854	-0.721506	6
H	-1.763798	0.142734	-1.118586	1
H	-1.978788	1.002834	0.413784	1
H	-2.039218	-0.771786	0.371554	1
H	1.323502	-0.026726	1.761264	1
H	-0.059728	-0.818586	2.089004	1
H	0.335562	-1.176776	-1.607966	1
H	1.670682	-1.242336	-0.382486	1
H	1.736412	1.276194	-0.319656	1
H	0.407142	1.337894	-1.550626	1
Es	0.919479	-0.030819	1.686582	99
Es	0.312997	0.018939	1.642518	99
Es	-1.541880	0.110090	-0.046298	99
Es	-0.800255	0.077988	0.083980	99
Es	0.546736	1.160933	-1.282677	99
Es	0.342710	0.605294	-0.179984	99
Es	0.307335	-0.513540	-0.216819	99
Es	-1.678726	0.130154	-0.775281	99
Es	0.850635	0.797698	-0.721462	99
Es	0.191036	0.314982	1.803808	99
Es	-0.059936	0.052806	0.222331	99
Es	0.806732	-0.703444	-0.753547	99
Es	0.486286	-1.020950	-1.331832	99
Es	1.450647	1.114184	-0.445030	99
Es	0.173869	0.002922	1.023627	99
Es	1.391340	-1.066417	-0.494701	99
Es	-1.877657	-0.498231	0.241836	99
Es	0.960222	0.048701	-0.880713	99
Es	0.091773	-0.505349	1.894152	99
Es	-1.835570	0.717824	0.263970	99
34
Properties=species:S:1:pos:R:3:Z:I:1 energy=-211.19728785381676 field_type=dipole dipole="0.000000 0.000000 0.000000" charge=0
C	-1.541908	0.110104	-0.046296	6
C	-0.060078	0.052804	0.222304	6
N	0.312782	0.019394	1.642794	7
C	0.806752	-0.703606	-0.753576	6
C	0.850682	0.797854	-0.721506	6
H	-1.763798	0.142734	-1.118586	1
H	-1.978788	1.002834	0.413784	1
H	-2.039218	-0.771786	0.371554	1
H	1.323502	-0.026726	1.761264	1
H	-0.059728	-0.818586	2.089004	1
H	0.335562	-1.176776	-1.607966	1
H	1.670682	-1.242336	-0.382486	1
H	1.736412	1.276194	-0.319656	1
H	0.407142	1.337894	-1.550626	1
Es	0.191073	0.315608	1.803283	99
Es	-1.541882	0.110091	-0.046298	99
Es	0.307071	-0.513780	-0.216604	99
Es	0.806731	-0.703445	-0.753544	99
Es	-1.877710	-0.498395	0.241932	99
Es	0.486399	-1.020801	-1.331523	99
Es	1.450455	1.114009	-0.445182	99
Es	-0.800329	0.078035	0.083980	99
Es	0.850636	0.797696	-0.721461	99
Es	-1.835486	0.717942	0.263836	99
Es	-0.059935	0.052798	0.222329	99
Es	0.174280	0.002276	1.023911	99
Es	0.342643	0.605464	-0.179798	99
Es	-1.678563	0.130139	-0.775182	99
Es	0.919286	-0.030966	1.686506	99
Es	0.312945	0.018983	1.642529	99
Es	1.391265	-1.066414	-0.494922	99
Es	0.091517	-0.505299	1.894419	99
Es	0.960482	0.048849	-0.881116	99
Es	0.546897	1.160973	-1.282630	99
34
Properties=species:S:1:pos:R:3:Z:I:1 energy=-211.19728785381676 field_type=dipole dipole="0.000000 0.000000 0.000000" charge=0
C	-1.541908	0.110104	-0.046296	6
C	-0.060078	0.052804	0.222304	6
N	0.312782	0.019394	1.642794	7
C	0.806752	-0.703606	-0.753576	6
C	0.850682	0.797854	-0.721506	6
H	-1.763798	0.142734	-1.118586	1
H	-1.978788	1.002834	0.413784	1
H	-2.039218	-0.771786	0.371554	1
H	1.323502	-0.026726	1.761264	1
H	-0.059728	-0.818586	2.089004	1
H	0.335562	-1.176776	-1.607966	1
H	1.670682	-1.242336	-0.382486	1
H	1.736412	1.276194	-0.319656	1
H	0.407142	1.337894	-1.550626	1
Es	0.960866	0.049083	-0.881391	99
Es	0.306847	-0.514029	-0.216398	99
Es	-1.678545	0.130173	-0.775043	99
Es	0.342574	0.605425	-0.179669	99
Es	0.091191	-0.505215	1.894685	99
Es	-0.800361	0.078098	0.083833	99
Es	0.174266	0.002128	1.024273	99
Es	0.806728	-0.703440	-0.753543	99
Es	0.191676	0.316510	1.803278	99
Es	0.312993	0.018920	1.642505	99
Es	0.850637	0.797696	-0.721458	99
Es	-0.059936	0.052800	0.222330	99
Es	-1.541878	0.110090	-0.046299	99
Es	0.546987	1.160893	-1.282639	99
Es	0.918914	-0.031726	1.685872	99
Es	1.391059	-1.066488	-0.495111	99
Es	-1.835460	0.718020	0.263864	99
Es	1.450373	1.113973	-0.445291	99
Es	-1.877667	-0.498541	0.241917	99
Es	0.486511	-1.020605	-1.331251	99
34
Properties=species:S:1:pos:R:3:Z:I:1 energy=-211.19728785381676 field_type=dipole dipole="0.000000 0.000000 0.000000" charge=0
C	-1.541908	0.110104	-0.046296	6
C	-0.060078	0.052804	0.222304	6
N	0.312782	0.019394	1.642794	7
C	0.806752	-0.703606	-0.753576	6
C	0.850682	0.797854	-0.721506	6
H	-1.763798	0.142734	-1.118586	1
H	-1.978788	1.002834	0.413784	1
H	-2.039218	-0.771786	0.371554	1
H	1.323502	-0.026726	1.761264	1
H	-0.059728	-0.818586	2.089004	1
H	0.335562	-1.176776	-1.607966	1
H	1.670682	-1.242336	-0.382486	1
H	1.736412	1.276194	-0.319656	1
H	0.407142	1.337894	-1.550626	1
Es	0.806731	-0.703449	-0.753546	99
Es	0.918759	-0.031762	1.685953	99
Es	0.191431	0.317105	1.802837	99
Es	0.547131	1.160977	-1.282590	99
Es	0.091137	-0.505126	1.894860	99
Es	0.850635	0.797698	-0.721459	99
Es	0.312981	0.018931	1.642514	99
Es	0.306592	-0.514013	-0.216298	99
Es	-1.541879	0.110090	-0.046298	99
Es	-1.835429	0.718141	0.263782	99
Es	-0.059935	0.052796	0.222321	99
Es	0.486729	-1.020567	-1.331068	99
Es	1.450184	1.113843	-0.445318	99
Es	-0.800432	0.078035	0.083705	99
Es	0.342512	0.605507	-0.179569	99
Es	1.390905	-1.066418	-0.495120	99
Es	0.174665	0.001352	1.024443	99
Es	0.961186	0.049152	-0.881754	99
Es	-1.678452	0.130147	-0.774889	99
Es	-1.877676	-0.498676	0.241956	99
34
Properties=species:S:1:pos:R:3:Z:I:1 energy=-211.19728785381676 field_type=dipole dipole="0.000000 0.000000 0.000000" charge=0
C	-1.541908	0.110104	-0.046296	6
C	-0.060078	0.052804	0.222304	6
N	0.312782	0.019394	1.642794	7
C	0.806752	-0.703606	-0.753576	6
C	0.850682	0.797854	-0.721506	6
H	-1.763798	0.142734	-1.118586	1
H	-1.978788	1.002834	0.413784	1
H	-2.039218	-0.771786	0.371554	1
H	1.323502	-0.026726	1.761264	1
H	-0.059728	-0.818586	2.089004	1
H	0.335562	-1.176776	-1.607966	1
H	1.670682	-1.242336	-0.382486	1
H	1.736412	1.276194	-0.319656	1
H	0.407142	1.337894	-1.550626	1
Es	0.192031	0.317034	1.802796	99
Es	0.306365	-0.514336	-0.216194	99
Es	0.090839	-0.505311	1.895015	99
Es	-0.800487	0.078083	0.083796	99
Es	0.918495	-0.031919	1.685709	99
Es	-1.678329	0.130156	-0.774855	99
Es	0.486950	-1.020452	-1.330884	99
Es	-1.877665	-0.498775	0.241940	99
Es	0.312964	0.018975	1.642532	99
Es	-1.835449	0.718188	0.263755	99
Es	-1.541879	0.110090	-0.046297	99
Es	1.390906	-1.066327	-0.495246	99
Es	1.450033	1.113824	-0.445399	99
Es	0.806729	-0.703435	-0.753546	99
Es	0.174650	0.001783	1.024484	99
Es	-0.059935	0.052801	0.222328	99
Es	0.961341	0.049113	-0.882113	99
Es	0.342381	0.605607	-0.179466	99
Es	0.850635	0.797696	-0.721462	99
Es	0.547200	1.160970	-1.282430	99
34
Properties=species:S:1:pos:R:3:Z:I:1 energy=-211.19728785381676 field_type=dipole dipole="0.000000 0.000000 0.000000" charge=0
C	-1.541908	0.110104	-0.046296	6
C	-0.060078	0.052804	0.222304	6
N	0.312782	0.019394	1.642794	7
C	0.806752	-0.703606	-0.753576	6
C	0.850682	0.797854	-0.721506	6
H	-1.763798	0.142734	-1.118586	1
H	-1.978788	1.002834	0.413784	1
H	-2.039218	-0.771786	0.371554	1
H	1.323502	-0.026726	1.761264	1
H	-0.059728	-0.818586	2.089004	1
H	0.335562	-1.176776	-1.607966	1
H	1.670682	-1.242336	-0.382486	1
H	1.736412	1.276194	-0.319656	1
H	0.407142	1.337894	-1.550626	1
Es	-1.541880	0.110090	-0.046298	99
Es	0.306383	-0.514299	-0.216039	99
Es	-1.877736	-0.498881	0.241931	99
Es	-1.835331	0.718226	0.263757	99
Es	1.390758	-1.066436	-0.495458	99
Es	0.486899	-1.020298	-1.330675	99
Es	-0.800496	0.077975	0.083711	99
Es	0.090752	-0.505222	1.895071	99
Es	0.918460	-0.032181	1.685516	99
Es	0.174714	0.001306	1.024788	99
Es	0.547372	1.160987	-1.282577	99
Es	0.191931	0.317640	1.802620	99
Es	0.850632	0.797698	-0.721461	99
Es	1.449992	1.113611	-0.445486	99
Es	0.806724	-0.703440	-0.753547	99
Es	-0.059935	0.052802	0.222328	99
Es	0.961533	0.049124	-0.882187	99
Es	-1.678259	0.130245	-0.774796	99
Es	0.313000	0.018924	1.642518	99
Es	0.342262	0.605892	-0.179253	99
34
Properties=species:S:1:pos:R:3:Z:I:1 energy=-211.19728785381676 field_type=dipole dipole="0.000000 0.000000 0.000000" charge=0
C	-1.541908	0.110104	-0.046296	6
C	-0.060078	0.052804	0.222304	6
N	0.312782	0.019394	1.642794	7
C	0.806752	-0.703606	-0.753576	6
C	0.850682	0.797854	-0.721506	6
H	-1.763798	0.142734	-1.118586	1
H	-1.978788	1.002834	0.413784	1
H	-2.039218	-0.771786	0.371554	1
H	1.323502	-0.026726	1.761264	1
H	-0.059728	-0.818586	2.089004	1
H	0.335562	-1.176776	-1.607966	1
H	1.670682	-1.242336	-0.382486	1
H	1.736412	1.276194	-0.319656	1
H	0.407142	1.337894	-1.550626	1
Es	0.090758	-0.505405	1.895016	99
Es	1.390661	-1.066251	-0.495470	99
Es	-1.835255	0.718319	0.263725	99
Es	0.342146	0.605899	-0.179255	99
Es	-1.678299	0.130170	-0.774748	99
Es	0.850635	0.797689	-0.721462	99
Es	-1.541881	0.110090	-0.046297	99
Es	0.547574	1.161004	-1.282560	99
Es	0.306189	-0.514599	-0.215910	99
Es	0.174548	0.001555	1.024969	99
Es	1.449805	1.113514	-0.445479	99
Es	0.192150	0.317742	1.802779	99
Es	0.806729	-0.703441	-0.753548	99
Es	-1.877723	-0.498872	0.242037	99
Es	0.918355	-0.032305	1.685184	99
Es	0.312996	0.018918	1.642519	99
Es	-0.059937	0.052795	0.222330	99
Es	0.961724	0.049327	-0.882364	99
Es	0.487104	-1.020337	-1.330617	99
Es	-0.800506	0.077952	0.083613	99
34
Properties=species:S:1:pos:R:3:Z:I:1 energy=-211.19728785381676 field_type=dipole dipole="0.000000 0.000000 0.000000" charge=0
C	-1.541908	0.110104	-0.046296	6
C	-0.060078	0.052804	0.222304	6
N	0.312782	0.019394	1.642794	7
C	0.806752	-0.703606	-0.753576	6
C	0.850682	0.797854	-0.721506	6
H	-1.763798	0.142734	-1.118586	1
H	-1.978788	1.002834	0.413784	1
H	-2.039218	-0.771786	0.371554	1
H	1.323502	-0.026726	1.761264	1
H	-0.059728	-0.818586	2.089004	1
H	0.335562	-1.176776	-1.607966	1
H	1.670682	-1.242336	-0.382486	1
H	1.736412	1.276194	-0.319656	1
H	0.407142	1.337894	-1.550626	1
Es	-1.835256	0.718429	0.263697	99
Es	0.305910	-0.514817	-0.215869	99
Es	0.090503	-0.505378	1.895240	99
Es	0.342255	0.605890	-0.179113	99
Es	0.547511	1.160910	-1.282514	99
Es	-1.541879	0.110090	-0.046297	99
Es	1.390600	-1.066304	-0.495554	99
Es	0.961829	0.049336	-0.882465	99
Es	0.192260	0.317878	1.802398	99
Es	-0.059935	0.052800	0.222330	99
Es	-1.678057	0.130189	-0.774714	99
Es	0.850635	0.797688	-0.721463	99
Es	0.174795	0.001425	1.025050	99
Es	1.449821	1.113532	-0.445659	99
Es	0.806731	-0.703437	-0.753546	99
Es	-1.877707	-0.499045	0.241999	99
Es	0.918237	-0.032320	1.685228	99
Es	0.313016	0.018921	1.642528	99
Es	0.487275	-1.020141	-1.330478	99
Es	-0.800771	0.078121	0.083665	99
34
Properties=species:S:1:pos:R:3:Z:I:1 energy=-211.19728785381676 field_type=dipole dipole="0.000000 0.000000 0.000000" charge=0
C	-1.541908	0.110104	-0.046296	6
C	-0.060078	0.052804	0.222304	6
N	0.312782	0.019394	1.642794	7
C	0.806752	-0.703606	-0.753576	6
C	0.850682	0.797854	-0.721506	6
H	-1.763798	0.142734	-1.118586	1
H	-1.978788	1.002834	0.413784	1
H	-2.039218	-0.771786	0.371554	1
H	1.323502	-0.026726	1.761264	1
H	-0.059728	-0.818586	2.089004	1
H	0.335562	-1.176776	-1.607966	1
H	1.670682	-1.242336	-0.382486	1
H	1.736412	1.276194	-0.319656	1
H	0.407142	1.337894	-1.550626	1
Es	-0.059940	0.052800	0.222331	99
Es	0.918225	-0.032476	1.684848	99
Es	0.487172	-1.020153	-1.330224	99
Es	-0.800728	0.077978	0.083670	99
Es	-1.541880	0.110090	-0.046298	99
Es	0.312990	0.018947	1.642525	99
Es	0.090581	-0.505444	1.895250	99
Es	0.342079	0.605845	-0.179006	99
Es	0.547604	1.160917	-1.282394	99
Es	-1.835164	0.718448	0.263707	99
Es	0.850637	0.797690	-0.721465	99
Es	1.390473	-1.066371	-0.495629	99
Es	0.305920	-0.514638	-0.215689	99
Es	0.174567	0.001404	1.025208	99
Es	0.962292	0.049419	-0.883004	99
Es	1.449635	1.113526	-0.445669	99
Es	0.192397	0.318063	1.802532	99
Es	0.806731	-0.703444	-0.753547	99
Es	-1.877722	-0.499017	0.242069	99
Es	-1.678096	0.130179	-0.774753	99
34
Properties=species:S:1:pos:R:3:Z:I:1 energy=-211.19728785381676 field_type=dipole dipole="0.000000 0.000000 0.000000" charge=0
C	-1.541908	0.110104	-0.046296	6
C	-0.060078	0.052804	0.222304	6
N	0.312782	0.019394	1.642794	7
C	0.806752	-0.703606	-0.753576	6
C	0.850682	0.797854	-0.721506	6
H	-1.763798	0.142734	-1.118586	1
H	-1.978788	1.002834	0.413784	1
H	-2.039218	-0.771786	0.371554	1
H	1.323502	-0.026726	1.761264	1
H	-0.059728	-0.818586	2.089004	1
H	0.335562	-1.176776	-1.607966	1
H	1.670682	-1.242336	-0.382486	1
H	1.736412	1.276194	-0.319656	1
H	0.407142	1.337894	-1.550626	1
Es	-1.877737	-0.499115	0.242025	99
Es	0.806727	-0.703442	-0.753542	99
Es	0.850635	0.797697	-0.721463	99
Es	0.305786	-0.514724	-0.215670	99
Es	1.390449	-1.066369	-0.495717	99
Es	0.487296	-1.020021	-1.330133	99
Es	-0.800687	0.078008	0.083582	99
Es	0.312993	0.018909	1.642477	99
Es	0.917956	-0.032406	1.685214	99
Es	0.192246	0.318596	1.801758	99
Es	0.175275	0.000610	1.025318	99
Es	-0.059936	0.052800	0.222330	99
Es	1.449618	1.113428	-0.445711	99
Es	0.090268	-0.505249	1.895653	99
Es	0.342086	0.605984	-0.178978	99
Es	-1.835209	0.718499	0.263649	99
Es	-1.678044	0.130182	-0.774589	99
Es	0.547653	1.160954	-1.282407	99
Es	0.962277	0.049332	-0.883036	99
Es	-1.541879	0.110090	-0.046297	99
34
Properties=species:S:1:pos:R:3:Z:I:1 energy=-211.19728785381676 field_type=dipole dipole="0.000000 0.000000 0.000000" charge=0
C	-1.541908	0.110104	-0.046296	6
C	-0.060078	0.052804	0.222304	6
N	0.312782	0.019394	1.642794	7
C	0.806752	-0.703606	-0.753576	6
C	0.850682	0.797854	-0.721506	6
H	-1.763798	0.142734	-1.118586	1
H	-1.978788	1.002834	0.413784	1
H	-2.039218	-0.771786	0.371554	1
H	1.323502	-0.026726	1.761264	1
H	-0.059728	-0.818586	2.089004	1
H	0.335562	-1.176776	-1.607966	1
H	1.670682	-1.242336	-0.382486	1
H	1.736412	1.276194	-0.319656	1
H	0.407142	1.337894	-1.550626	1
Es	0.175156	0.000866	1.025357	99
Es	0.850636	0.797699	-0.721467	99
Es	0.305615	-0.514795	-0.215518	99
Es	0.547717	1.160941	-1.282349	99
Es	1.390367	-1.066317	-0.495788	99
Es	-0.059935	0.052791	0.222328	99
Es	0.090423	-0.505493	1.895469	99
Es	0.917905	-0.032410	1.685008	99
Es	0.342053	0.605963	-0.178926	99
Es	-1.877716	-0.499161	0.242043	99
Es	-1.677997	0.130172	-0.774573	99
Es	1.449486	1.113401	-0.445764	99
Es	-0.800783	0.078005	0.083609	99
Es	-1.541880	0.110090	-0.046297	99
Es	0.312986	0.018947	1.642517	99
Es	0.487394	-1.019977	-1.330034	99
Es	0.962518	0.049377	-0.883260	99
Es	0.192290	0.318559	1.802008	99
Es	-1.835190	0.718549	0.263644	99
Es	0.806730	-0.703443	-0.753544	99
34
Properties=species:S:1:pos:R:3:Z:I:1 energy=-211.19728785381676 field_type=dipole dipole="0.000000 0.000000 0.000000" charge=0
C	-1.541908	0.110104	-0.046296	6
C	-0.060078	0.052804	0.222304	6
N	0.312782	0.019394	1.642794	7
C	0.806752	-0.703606	-0.753576	6
C	0.850682	0.797854	-0.721506	6
H	-1.763798	0.142734	-1.118586	1
H	-1.978788	1.002834	0.413784	1
H	-2.039218	-0.771786	0.371554	1
H	1.323502	-0.026726	1.761264	1
H	-0.059728	-0.818586	2.089004	1
H	0.335562	-1.176776	-1.607966	1
H	1.670682	-1.242336	-0.382486	1
H	1.736412	1.276194	-0.319656	1
H	0.407142	1.337894	-1.550626	1
Es	-1.541882	0.110090	-0.046298	99
Es	-1.877821	-0.499209	0.241999	99
Es	0.341987	0.605942	-0.178925	99
Es	0.090288	-0.505401	1.895686	99
Es	1.390320	-1.066378	-0.495787	99
Es	0.917667	-0.032716	1.684779	99
Es	0.305456	-0.514787	-0.215480	99
Es	0.192716	0.318772	1.801976	99
Es	0.312971	0.018981	1.642556	99
Es	0.487471	-1.019891	-1.329904	99
Es	-0.059936	0.052794	0.222330	99
Es	-1.835165	0.718642	0.263564	99
Es	0.962622	0.049386	-0.883507	99
Es	0.175030	0.000840	1.025414	99
Es	0.547803	1.160942	-1.282267	99
Es	0.850636	0.797695	-0.721461	99
Es	0.806728	-0.703443	-0.753547	99
Es	1.449488	1.113361	-0.445770	99
Es	-0.800714	0.077978	0.083545	99
Es	-1.677891	0.130168	-0.774439	99
34
Properties=species:S:1:pos:R:3:Z:I:1 energy=-211.19728785381676 field_type=dipole dipole="0.000000 0.000000 0.000000" charge=0
C	-1.541908	0.110104	-0.046296	6
C	-0.060078	0.052804	0.222304	6
N	0.312782	0.019394	1.642794	7
C	0.806752	-0.703606	-0.753576	6
C	0.850682	0.797854	-0.721506	6
H	-1.763798	0.142734	-1.118586	1
H	-1.978788	1.002834	0.413784	1
H	-2.039218	-0.771786	0.371554	1
H	1.323502	-0.026726	1.761264	1
H	-0.059728	-0.818586	2.089004	1
H	0.335562	-1.176776	-1.607966	1
H	1.670682	-1.242336	-0.382486	1
H	1.736412	1.276194	-0.319656	1
H	0.407142	1.337894	-1.550626	1
Es	-1.835122	0.718649	0.263649	99
Es	0.192577	0.319010	1.801743	99
Es	0.090155	-0.505350	1.895718	99
Es	0.850635	0.797698	-0.721463	99
Es	0.962620	0.049485	-0.883503	99
Es	-1.541878	0.110090	-0.046297	99
Es	0.305303	-0.515057	-0.215411	99
Es	0.487634	-1.019830	-1.329909	99
Es	-1.877731	-0.499277	0.242024	99
Es	0.342094	0.606027	-0.178848	99
Es	0.175223	0.000553	1.025587	99
Es	1.390283	-1.066259	-0.495862	99
Es	0.806728	-0.703442	-0.753544	99
Es	-0.059936	0.052801	0.222329	99
Es	-1.677937	0.130201	-0.774452	99
Es	-0.800788	0.077967	0.083483	99
Es	0.917743	-0.032738	1.684803	99
Es	0.312971	0.018955	1.642512	99
Es	0.547789	1.161039	-1.282245	99
Es	1.449413	1.113244	-0.445853	99
34
Properties=species:S:1:pos:R:3:Z:I:1 energy=-211.19728785381676 field_type=dipole dipole="0.000000 0.000000 0.000000" charge=0
C	-1.541908	0.110104	-0.046296	6
C	-0.060078	0.052804	0.222304	6
N	0.312782	0.019394	1.642794	7
C	0.806752	-0.703606	-0.753576	6
C	0.850682	0.797854	-0.721506	6
H	-1.763798	0.142734	-1.118586	1
H	-1.978788	1.002834	0.413784	1
H	-2.039218	-0.771786	0.371554	1
H	1.323502	-0.026726	1.761264	1
H	-0.059728	-0.818586	2.089004	1
H	0.335562	-1.176776	-1.607966	1
H	1.670682	-1.242336	-0.382486	1
H	1.736412	1.276194	-0.319656	1
H	0.407142	1.337894	-1.550626	1
Es	0.192515	0.319210	1.801661	99
Es	-1.835154	0.718641	0.263616	99
Es	0.341973	0.606122	-0.178787	99
Es	0.487600	-1.019746	-1.329719	99
Es	0.305304	-0.515073	-0.215309	99
Es	0.917688	-0.032741	1.684721	99
Es	1.390216	-1.066326	-0.495979	99
Es	0.806731	-0.703440	-0.753545	99
Es	-1.877688	-0.499302	0.242063	99
Es	-0.800815	0.078007	0.083527	99
Es	0.547905	1.160966	-1.282305	99
Es	0.962784	0.049493	-0.883626	99
Es	0.090152	-0.505421	1.895713	99
Es	0.312984	0.018935	1.642501	99
Es	0.850637	0.797698	-0.721467	99
Es	-0.059936	0.052799	0.222330	99
Es	1.449348	1.113212	-0.445882	99
Es	0.175299	0.000466	1.025741	99
Es	-1.541880	0.110090	-0.046298	99
Es	-1.677888	0.130175	-0.774493	99
34
Properties=species:S:1:pos:R:3:Z:I:1 energy=-211.19728785381676 field_type=dipole dipole="0.000000 0.000000 0.000000" charge=0
C	-1.541908	0.110104	-0.046296	6
C	-0.060078	0.052804	0.222304	6
N	0.312782	0.019394	1.642794	7
C	0.806752	-0.703606	-0.753576	6
C	0.850682	0.797854	-0.721506	6
H	-1.763798	0.142734	-1.118586	1
H	-1.978788	1.002834	0.413784	1
H	-2.039218	-0.771786	0.371554	1
H	1.323502	-0.026726	1.761264	1
H	-0.059728	-0.818586	2.089004	1
H	0.335562	-1.176776	-1.607966	1
H	1.670682	-1.242336	-0.382486	1
H	1.736412	1.276194	-0.319656	1
H	0.407142	1.337894	-1.550626	1
Es	0.341882	0.606237	-0.178767	99
Es	1.449262	1.113208	-0.445886	99
Es	-0.800822	0.077946	0.083547	99
Es	-1.835135	0.718705	0.263567	99
Es	-1.677823	0.130138	-0.774467	99
Es	-0.059936	0.052799	0.222330	99
Es	-1.541880	0.110090	-0.046298	99
Es	0.305289	-0.515029	-0.215325	99
Es	0.850635	0.797695	-0.721465	99
Es	-1.877737	-0.499288	0.242067	99
Es	0.806730	-0.703438	-0.753548	99
Es	0.175429	0.000340	1.025956	99
Es	0.962940	0.049368	-0.883696	99
Es	0.917587	-0.032990	1.684597	99
Es	0.547950	1.160959	-1.282291	99
Es	0.487641	-1.019733	-1.329679	99
Es	1.390129	-1.066304	-0.496006	99
Es	0.192914	0.319396	1.801272	99
Es	0.312992	0.018940	1.642515	99
Es	0.089728	-0.505274	1.896038	99
34
Properties=species:S:1:pos:R:3:Z:I:1 energy=-211.19728785381676 field_type=dipole dipole="0.000000 0.000000 0.000000" charge=0
C	-1.541908	0.110104	-0.046296	6
C	-0.060078	0.052804	0.222304	6
N	0.312782	0.019394	1.642794	7
C	0.806752	-0.703606	-0.753576	6
C	0.850682	0.797854	-0.721506	6
H	-1.763798	0.142734	-1.118586	1
H	-1.978788	1.002834	0.413784	1
H	-2.039218	-0.771786	0.371554	1
H	1.323502	-0.026726	1.761264	1
H	-0.059728	-0.818586	2.089004	1
H	0.335562	-1.176776	-1.607966	1
H	1.670682	-1.242336	-0.382486	1
H	1.736412	1.276194	-0.319656	1
H	0.407142	1.337894	-1.550626	1
Es	-1.877856	-0.499412	0.242087	99
Es	0.548088	1.160902	-1.282259	99
Es	0.312990	0.018964	1.642541	99
Es	0.341795	0.606268	-0.178631	99
Es	0.192775	0.319514	1.801470	99
Es	0.806729	-0.703440	-0.753547	99
Es	-0.059937	0.052798	0.222331	99
Es	0.962960	0.049533	-0.883768	99
Es	1.449226	1.113085	-0.446028	99
Es	0.089972	-0.505391	1.895892	99
Es	-1.677724	0.130212	-0.774351	99
Es	0.175384	0.000326	1.025903	99
Es	0.305210	-0.515055	-0.215267	99
Es	1.390175	-1.066377	-0.496020	99
Es	0.487638	-1.019666	-1.329658	99
Es	-1.835036	0.718731	0.263470	99
Es	0.917481	-0.032981	1.684546	99
Es	-1.541880	0.110090	-0.046298	99
Es	-0.800853	0.077968	0.083510	99
Es	0.850635	0.797696	-0.721461	99
34
Properties=species:S:1:pos:R:3:Z:I:1 energy=-211.19728785381676 field_type=dipole dipole="0.000000 0.000000 0.000000" charge=0
C	-1.541908	0.110104	-0.046296	6
C	-0.060078	0.052804	0.222304	6
N	0.312782	0.019394	1.642794	7
C	0.806752	-0.703606	-0.753576	6
C	0.850682	0.797854	-0.721506	6
H	-1.763798	0.142734	-1.118586	1
H	-1.978788	1.002834	0.413784	1
H	-2.039218	-0.771786	0.371554	1
H	1.323502	-0.026726	1.761264	1
H	-0.059728	-0.818586	2.089004	1
H	0.335562	-1.176776	-1.607966	1
H	1.670682	-1.242336	-0.382486	1
H	1.736412	1.276194	-0.319656	1
H	0.407142	1.337894	-1.550626	1
Es	0.305047	-0.515451	-0.215187	99
Es	-1.877730	-0.499369	0.242043	99
Es	0.487786	-1.019623	-1.329535	99
Es	1.449151	1.113150	-0.445937	99
Es	0.548051	1.160948	-1.282237	99
Es	1.390068	-1.066243	-0.496130	99
Es	0.192798	0.319509	1.801241	99
Es	0.850634	0.797696	-0.721462	99
Es	0.963121	0.049681	-0.883920	99
Es	-1.835153	0.718779	0.263530	99
Es	0.312994	0.018960	1.642539	99
Es	0.175443	0.000332	1.026048	99
Es	0.341755	0.606126	-0.178752	99
Es	0.089790	-0.505326	1.896001	99
Es	-0.059937	0.052794	0.222328	99
Es	0.917602	-0.032989	1.684520	99
Es	-1.541880	0.110090	-0.046297	99
Es	-0.800769	0.078015	0.083597	99
Es	0.806729	-0.703439	-0.753542	99
Es	-1.677725	0.130124	-0.774385	99
34
Properties=species:S:1:pos:R:3:Z:I:1 energy=-211.19728785381676 field_type=dipole dipole="0.000000 0.000000 0.000000" charge=0
C	-1.541908	0.110104	-0.046296	6
C	-0.060078	0.052804	0.222304	6
N	0.312782	0.019394	1.642794	7
C	0.806752	-0.703606	-0.753576	6
C	0.850682	0.797854	-0.721506	6
H	-1.763798	0.142734	-1.118586	1
H	-1.978788	1.002834	0.413784	1
H	-2.039218	-0.771786	0.371554	1
H	1.323502	-0.026726	1.761264	1
H	-0.059728	-0.818586	2.089004	1
H	0.335562	-1.176776	-1.607966	1
H	1.670682	-1.242336	-0.382486	1
H	1.736412	1.276194	-0.319656	1
H	0.407142	1.337894	-1.550626	1
Es	0.305093	-0.515229	-0.215080	99
Es	1.390012	-1.066280	-0.496192	99
Es	0.312993	0.018934	1.642516	99
Es	0.850635	0.797694	-0.721457	99
Es	0.963238	0.049553	-0.884093	99
Es	-1.835053	0.718729	0.263536	99
Es	0.192809	0.319881	1.801230	99
Es	0.548054	1.160959	-1.282221	99
Es	0.487763	-1.019585	-1.329409	99
Es	0.341842	0.606171	-0.178615	99
Es	0.175585	0.000052	1.026057	99
Es	-0.059935	0.052799	0.222329	99
Es	0.089846	-0.505364	1.896029	99
Es	0.806729	-0.703441	-0.753544	99
Es	-1.877746	-0.499412	0.242117	99
Es	-1.541879	0.110090	-0.046297	99
Es	-1.677771	0.130192	-0.774406	99
Es	1.449128	1.113109	-0.445991	99
Es	0.917354	-0.033086	1.684476	99
Es	-0.800921	0.077997	0.083478	99
34
Properties=species:S:1:pos:R:3:Z:I:1 energy=-211.19728785381676 field_type=dipole dipole="0.000000 0.000000 0.000000" charge=0
C	-1.541908	0.110104	-0.046296	6
C	-0.060078	0.052804	0.222304	6
N	0.312782	0.019394	1.642794	7
C	0.806752	-0.703606	-0.753576	6
C	0.850682	0.797854	-0.721506	6
H	-1.763798	0.142734	-1.118586	1
H	-1.978788	1.002834	0.413784	1
H	-2.039218	-0.771786	0.371554	1
H	1.323502	-0.026726	1.761264	1
H	-0.059728	-0.818586	2.089004	1
H	0.335562	-1.176776	-1.607966	1
H	1.670682	-1.242336	-0.382486	1
H	1.736412	1.276194	-0.319656	1
H	0.407142	1.337894	-1.550626	1
Es	0.548077	1.160996	-1.282176	99
Es	-1.877736	-0.499412	0.242198	99
Es	1.389951	-1.066294	-0.496225	99
Es	0.312967	0.018953	1.642492	99
Es	0.806729	-0.703439	-0.753546	99
Es	0.850637	0.797694	-0.721465	99
Es	-1.835041	0.718850	0.263443	99
Es	1.449035	1.113066	-0.446020	99
Es	0.175640	0.000128	1.026178	99
Es	0.304976	-0.515265	-0.215037	99
Es	0.089479	-0.505239	1.896145	99
Es	0.963366	0.049472	-0.884089	99
Es	-1.541879	0.110090	-0.046297	99
Es	0.341840	0.606273	-0.178648	99
Es	0.917414	-0.033271	1.684437	99
Es	-0.800910	0.077959	0.083465	99
Es	-0.059936	0.052801	0.222330	99
Es	-1.677744	0.130076	-0.774329	99
Es	0.487798	-1.019516	-1.329457	99
Es	0.193112	0.319844	1.801066	99
34
Properties=species:S:1:pos:R:3:Z:I:1 energy=-211.19728785381676 field_type=dipole dipole="0.000000 0.000000 0.000000" charge=0
C	-1.541908	0.110104	-0.046296	6
C	-0.060078	0.052804	0.222304	6
N	0.312782	0.019394	1.642794	7
C	0.806752	-0.703606	-0.753576	6
C	0.850682	0.797854	-0.721506	6
H	-1.763798	0.142734	-1.118586	1
H	-1.978788	1.002834	0.413784	1
H	-2.039218	-0.771786	0.371554	1
H	1.323502	-0.026726	1.761264	1
H	-0.059728	-0.818586	2.089004	1
H	0.335562	-1.176776	-1.607966	1
H	1.670682	-1.242336	-0.382486	1
H	1.736412	1.276194	-0.319656	1
H	0.407142	1.337894	-1.550626	1
Es	0.806729	-0.703441	-0.753544	99
Es	-1.877700	-0.499435	0.242166	99
Es	0.917320	-0.033058	1.684313	99
Es	0.487867	-1.019495	-1.329294	99
Es	-0.801056	0.077996	0.083510	99
Es	-0.059937	0.052799	0.222329	99
Es	0.089844	-0.505451	1.896095	99
Es	0.850635	0.797696	-0.721462	99
Es	-1.677676	0.130128	-0.774448	99
Es	-1.541880	0.110090	-0.046297	99
Es	0.963395	0.049666	-0.884263	99
Es	1.389944	-1.066260	-0.496268	99
Es	0.341816	0.606115	-0.178557	99
Es	0.548124	1.160988	-1.282201	99
Es	0.312960	0.018953	1.642502	99
Es	0.304969	-0.515326	-0.214977	99
Es	0.175666	-0.000157	1.026323	99
Es	0.192772	0.320118	1.801038	99
Es	-1.835062	0.718793	0.263505	99
Es	1.449045	1.113044	-0.446007	99
34
Properties=species:S:1:pos:R:3:Z:I:1 energy=-211.19728785381676 field_type=dipole dipole="0.000000 0.000000 0.000000" charge=0
C	-1.541908	0.110104	-0.046296	6
C	-0.060078	0.052804	0.222304	6
N	0.312782	0.019394	1.642794	7
C	0.806752	-0.703606	-0.753576	6
C	0.850682	0.797854	-0.721506	6
H	-1.763798	0.142734	-1.118586	1
H	-1.978788	1.002834	0.413784	1
H	-2.039218	-0.771786	0.371554	1
H	1.323502	-0.026726	1.761264	1
H	-0.059728	-0.818586	2.089004	1
H	0.335562	-1.176776	-1.607966	1
H	1.670682	-1.242336	-0.382486	1
H	1.736412	1.276194	-0.319656	1
H	0.407142	1.337894	-1.550626	1
Es	1.389917	-1.066173	-0.496277	99
Es	0.341722	0.606231	-0.178530	99
Es	0.850635	0.797696	-0.721458	99
Es	-1.677653	0.130165	-0.774342	99
Es	-1.541880	0.110090	-0.046298	99
Es	-1.835042	0.718830	0.263499	99
Es	0.806729	-0.703440	-0.753544	99
Es	-0.800970	0.077966	0.083495	99
Es	0.917303	-0.033248	1.684242	99
Es	0.089707	-0.505410	1.896075	99
Es	0.548184	1.160961	-1.282237	99
Es	-1.877749	-0.499487	0.242109	99
Es	0.192969	0.320104	1.801091	99
Es	0.304899	-0.515445	-0.214946	99
Es	0.175610	0.000032	1.026328	99
Es	1.449018	1.112992	-0.446065	99
Es	0.963406	0.049643	-0.884292	99
Es	0.487936	-1.019519	-1.329256	99
Es	0.312967	0.018969	1.642541	99
Es	-0.059933	0.052806	0.222325	99
34
Properties=species:S:1:pos:R:3:Z:I:1 energy=-211.19728785381676 field_type=dipole dipole="0.000000 0.000000 0.000000" charge=0
C	-1.541908	0.110104	-0.046296	6
C	-0.060078	0.052804	0.222304	6
N	0.312782	0.019394	1.642794	7
C	0.806752	-0.703606	-0.753576	6
C	0.850682	0.797854	-0.721506	6
H	-1.763798	0.142734	-1.118586	1
H	-1.978788	1.002834	0.413784	1
H	-2.039218	-0.771786	0.371554	1
H	1.323502	-0.026726	1.761264	1
H	-0.059728	-0.818586	2.089004	1
H	0.335562	-1.176776	-1.607966	1
H	1.670682	-1.242336	-0.382486	1
H	1.736412	1.276194	-0.319656	1
H	0.407142	1.337894	-1.550626	1
Es	0.850634	0.797695	-0.721462	99
Es	0.341712	0.606348	-0.178375	99
Es	-1.677594	0.130162	-0.774326	99
Es	-0.059936	0.052799	0.222329	99
Es	0.548219	1.160944	-1.282258	99
Es	0.089504	-0.505208	1.896367	99
Es	-1.541878	0.110090	-0.046298	99
Es	-1.877743	-0.499524	0.242094	99
Es	0.487944	-1.019481	-1.329182	99
Es	0.193137	0.320395	1.800822	99
Es	-1.835043	0.718871	0.263499	99
Es	0.305006	-0.515515	-0.215004	99
Es	1.389905	-1.066178	-0.496332	99
Es	-0.801038	0.077982	0.083431	99
Es	0.963294	0.049699	-0.884271	99
Es	0.175652	-0.000280	1.026413	99
Es	0.917194	-0.033436	1.684183	99
Es	0.806730	-0.703440	-0.753544	99
Es	1.449079	1.112917	-0.446133	99
Es	0.312996	0.018926	1.642511	99
