31
Properties=species:S:1:pos:R:3:Z:I:1 energy=-209.99567799656796 field_type=dipole dipole="0.000000 0.000000 0.000000" charge=0
C	-0.781357	-1.806843	-0.507954	6
C	-0.722337	-0.753833	0.318676	6
C	0.410463	0.156018	0.464576	6
C	0.595613	1.264767	-0.538624	6
N	0.101103	1.541378	0.804196	7
H	-1.668676	-2.429913	-0.549114	1
H	0.048363	-2.061603	-1.158674	1
H	-1.588937	-0.550163	0.946626	1
H	1.292953	-0.264403	0.935996	1
H	-0.124237	1.373637	-1.340434	1
H	1.601253	1.593807	-0.766424	1
H	0.835793	1.937148	1.391156	1
Es	1.283126	1.488639	-0.692816	99
Es	-0.781354	-1.806914	-0.508017	99
Es	-0.220005	-1.985289	-0.952643	99
Es	-0.873950	-1.099097	-0.334939	99
Es	0.410411	0.156254	0.464573	99
Es	0.326322	1.562157	0.194287	99
Es	1.008213	-0.130925	0.781350	99
Es	0.101669	1.541158	0.804055	99
Es	0.215897	0.899199	0.790928	99
Es	0.559320	1.768967	1.145643	99
Es	0.570389	0.548926	-0.190711	99
Es	0.595552	1.264754	-0.538374	99
Es	-0.623387	-1.478512	0.132503	99
Es	-0.241252	1.633687	0.851144	99
Es	-1.377944	-2.233987	-0.540435	99
Es	-0.722311	-0.753752	0.318735	99
Es	-0.156829	-0.298177	0.392716	99
Es	-1.301980	-0.610210	0.745873	99
Es	0.110164	1.338039	-1.082228	99
31
Properties=species:S:1:pos:R:3:Z:I:1 energy=-209.99567799656796 field_type=dipole dipole="0.000000 0.000000 0.000000" charge=0
C	-0.781357	-1.806843	-0.507954	6
C	-0.722337	-0.753833	0.318676	6
C	0.410463	0.156018	0.464576	6
C	0.595613	1.264767	-0.538624	6
N	0.101103	1.541378	0.804196	7
H	-1.668676	-2.429913	-0.549114	1
H	0.048363	-2.061603	-1.158674	1
H	-1.588937	-0.550163	0.946626	1
H	1.292953	-0.264403	0.935996	1
H	-0.124237	1.373637	-1.340434	1
H	1.601253	1.593807	-0.766424	1
H	0.835793	1.937148	1.391156	1
Es	0.595552	1.264755	-0.538375	99
Es	-0.781350	-1.806926	-0.508012	99
Es	0.101643	1.541155	0.804039	99
Es	-0.621681	-1.479798	0.133730	99
Es	1.280847	1.488685	-0.692769	99
Es	-0.157124	-0.298361	0.392158	99
Es	-0.722312	-0.753747	0.318735	99
Es	-1.300973	-0.610081	0.745715	99
Es	-0.220782	-1.985386	-0.952949	99
Es	0.556051	1.773522	1.149155	99
Es	-1.376417	-2.234626	-0.539422	99
Es	0.410408	0.156259	0.464575	99
Es	0.111347	1.337917	-1.081912	99
Es	-0.876009	-1.097835	-0.336518	99
Es	-0.233523	1.630100	0.846998	99
Es	0.323832	1.566448	0.194778	99
Es	1.006350	-0.130183	0.780411	99
Es	0.213185	0.897669	0.793331	99
Es	0.573008	0.545348	-0.192026	99
31
Properties=species:S:1:pos:R:3:Z:I:1 energy=-209.99567799656796 field_type=dipole dipole="0.000000 0.000000 0.000000" charge=0
C	-0.781357	-1.806843	-0.507954	6
C	-0.722337	-0.753833	0.318676	6
C	0.410463	0.156018	0.464576	6
C	0.595613	1.264767	-0.538624	6
N	0.101103	1.541378	0.804196	7
H	-1.668676	-2.429913	-0.549114	1
H	0.048363	-2.061603	-1.158674	1
H	-1.588937	-0.550163	0.946626	1
H	1.292953	-0.264403	0.935996	1
H	-0.124237	1.373637	-1.340434	1
H	1.601253	1.593807	-0.766424	1
H	0.835793	1.937148	1.391156	1
Es	1.278896	1.488343	-0.692566	99
Es	0.101698	1.541144	0.804045	99
Es	-0.877184	-1.097210	-0.337344	99
Es	0.551799	1.778202	1.152964	99
Es	-0.226755	1.625703	0.842809	99
Es	-0.781351	-1.806926	-0.508013	99
Es	0.410407	0.156260	0.464581	99
Es	-0.722311	-0.753746	0.318735	99
Es	0.575109	0.542801	-0.192921	99
Es	-0.620697	-1.480465	0.134358	99
Es	-1.300472	-0.610083	0.745761	99
Es	-1.375411	-2.234756	-0.538808	99
Es	-0.157369	-0.298864	0.391763	99
Es	1.004573	-0.129240	0.779499	99
Es	-0.221126	-1.985545	-0.953244	99
Es	0.112418	1.337959	-1.081562	99
Es	0.595552	1.264754	-0.538375	99
Es	0.322334	1.569832	0.195208	99
Es	0.211942	0.896750	0.794754	99
31
Properties=species:S:1:pos:R:3:Z:I:1 energy=-209.99567799656796 field_type=dipole dipole="0.000000 0.000000 0.000000" charge=0
C	-0.781357	-1.806843	-0.507954	6
C	-0.722337	-0.753833	0.318676	6
C	0.410463	0.156018	0.464576	6
C	0.595613	1.264767	-0.538624	6
N	0.101103	1.541378	0.804196	7
H	-1.668676	-2.429913	-0.549114	1
H	0.048363	-2.061603	-1.158674	1
H	-1.588937	-0.550163	0.946626	1
H	1.292953	-0.264403	0.935996	1
H	-0.124237	1.373637	-1.340434	1
H	1.601253	1.593807	-0.766424	1
H	0.835793	1.937148	1.391156	1
Es	-0.219966	1.621728	0.838926	99
Es	0.113283	1.338057	-1.081199	99
Es	-1.300223	-0.610076	0.745748	99
Es	0.595547	1.264751	-0.538367	99
Es	0.321439	1.572037	0.195530	99
Es	-0.221292	-1.985844	-0.953531	99
Es	0.547102	1.782457	1.156406	99
Es	1.277361	1.487945	-0.692335	99
Es	0.101682	1.541151	0.804048	99
Es	1.003088	-0.128418	0.778601	99
Es	-0.877909	-1.096913	-0.337822	99
Es	-0.157508	-0.299236	0.391522	99
Es	0.410410	0.156260	0.464579	99
Es	-1.374730	-2.234771	-0.538099	99
Es	0.210818	0.896235	0.796073	99
Es	-0.619997	-1.480712	0.134568	99
Es	-0.781351	-1.806927	-0.508013	99
Es	-0.722313	-0.753746	0.318734	99
Es	0.576612	0.540938	-0.193729	99
31
Properties=species:S:1:pos:R:3:Z:I:1 energy=-209.99567799656796 field_type=dipole dipole="0.000000 0.000000 0.000000" charge=0
C	-0.781357	-1.806843	-0.507954	6
C	-0.722337	-0.753833	0.318676	6
C	0.410463	0.156018	0.464576	6
C	0.595613	1.264767	-0.538624	6
N	0.101103	1.541378	0.804196	7
H	-1.668676	-2.429913	-0.549114	1
H	0.048363	-2.061603	-1.158674	1
H	-1.588937	-0.550163	0.946626	1
H	1.292953	-0.264403	0.935996	1
H	-0.124237	1.373637	-1.340434	1
H	1.601253	1.593807	-0.766424	1
H	0.835793	1.937148	1.391156	1
Es	1.276213	1.487622	-0.692283	99
Es	0.541786	1.786622	1.159436	99
Es	-0.781351	-1.806928	-0.508013	99
Es	0.320729	1.573730	0.195959	99
Es	0.101620	1.541163	0.804061	99
Es	0.210497	0.895880	0.796684	99
Es	0.595550	1.264751	-0.538365	99
Es	0.577799	0.539517	-0.194266	99
Es	-1.374248	-2.234553	-0.537687	99
Es	-0.878329	-1.096733	-0.338175	99
Es	-0.619673	-1.480861	0.134750	99
Es	-0.722310	-0.753751	0.318738	99
Es	-0.213465	1.617717	0.835591	99
Es	0.410409	0.156259	0.464576	99
Es	-0.221334	-1.986182	-0.953778	99
Es	-1.300092	-0.609929	0.745875	99
Es	0.113890	1.338070	-1.080711	99
Es	1.001780	-0.127401	0.777847	99
Es	-0.157420	-0.300077	0.391404	99
31
Properties=species:S:1:pos:R:3:Z:I:1 energy=-209.99567799656796 field_type=dipole dipole="0.000000 0.000000 0.000000" charge=0
C	-0.781357	-1.806843	-0.507954	6
C	-0.722337	-0.753833	0.318676	6
C	0.410463	0.156018	0.464576	6
C	0.595613	1.264767	-0.538624	6
N	0.101103	1.541378	0.804196	7
H	-1.668676	-2.429913	-0.549114	1
H	0.048363	-2.061603	-1.158674	1
H	-1.588937	-0.550163	0.946626	1
H	1.292953	-0.264403	0.935996	1
H	-0.124237	1.373637	-1.340434	1
H	1.601253	1.593807	-0.766424	1
H	0.835793	1.937148	1.391156	1
Es	0.210410	0.895562	0.796597	99
Es	0.537128	1.789705	1.161849	99
Es	-0.221357	-1.986518	-0.954002	99
Es	-0.207755	1.614418	0.833393	99
Es	-0.722313	-0.753745	0.318733	99
Es	0.101714	1.541136	0.804040	99
Es	-0.781350	-1.806927	-0.508012	99
Es	0.595552	1.264754	-0.538361	99
Es	0.410403	0.156259	0.464577	99
Es	-0.878612	-1.096623	-0.338345	99
Es	1.275289	1.487267	-0.692083	99
Es	1.000700	-0.126652	0.777234	99
Es	-0.157382	-0.300572	0.391295	99
Es	0.578659	0.538393	-0.194801	99
Es	-0.619439	-1.480962	0.134808	99
Es	0.319805	1.575436	0.196426	99
Es	0.114483	1.338161	-1.080389	99
Es	-1.373868	-2.234360	-0.537258	99
Es	-1.300015	-0.609818	0.745944	99
31
Properties=species:S:1:pos:R:3:Z:I:1 energy=-209.99567799656796 field_type=dipole dipole="0.000000 0.000000 0.000000" charge=0
C	-0.781357	-1.806843	-0.507954	6
C	-0.722337	-0.753833	0.318676	6
C	0.410463	0.156018	0.464576	6
C	0.595613	1.264767	-0.538624	6
N	0.101103	1.541378	0.804196	7
H	-1.668676	-2.429913	-0.549114	1
H	0.048363	-2.061603	-1.158674	1
H	-1.588937	-0.550163	0.946626	1
H	1.292953	-0.264403	0.935996	1
H	-0.124237	1.373637	-1.340434	1
H	1.601253	1.593807	-0.766424	1
H	0.835793	1.937148	1.391156	1
Es	0.209939	0.895439	0.797086	99
Es	-0.202674	1.612133	0.830834	99
Es	0.999815	-0.125943	0.776701	99
Es	1.274499	1.487062	-0.691992	99
Es	-0.221373	-1.986709	-0.954185	99
Es	0.532349	1.792614	1.163833	99
Es	-0.619283	-1.481087	0.134904	99
Es	-0.878757	-1.096566	-0.338430	99
Es	0.320075	1.575719	0.196969	99
Es	-0.722312	-0.753745	0.318734	99
Es	0.101713	1.541137	0.804040	99
Es	0.410408	0.156262	0.464576	99
Es	0.114876	1.338215	-1.080023	99
Es	-0.781352	-1.806929	-0.508014	99
Es	0.595550	1.264754	-0.538356	99
Es	-1.300008	-0.609742	0.745999	99
Es	0.579480	0.537634	-0.195040	99
Es	-1.373566	-2.234170	-0.537062	99
Es	-0.157327	-0.301162	0.391068	99
31
Properties=species:S:1:pos:R:3:Z:I:1 energy=-209.99567799656796 field_type=dipole dipole="0.000000 0.000000 0.000000" charge=0
C	-0.781357	-1.806843	-0.507954	6
C	-0.722337	-0.753833	0.318676	6
C	0.410463	0.156018	0.464576	6
C	0.595613	1.264767	-0.538624	6
N	0.101103	1.541378	0.804196	7
H	-1.668676	-2.429913	-0.549114	1
H	0.048363	-2.061603	-1.158674	1
H	-1.588937	-0.550163	0.946626	1
H	1.292953	-0.264403	0.935996	1
H	-0.124237	1.373637	-1.340434	1
H	1.601253	1.593807	-0.766424	1
H	0.835793	1.937148	1.391156	1
Es	0.101605	1.541157	0.804049	99
Es	0.410406	0.156258	0.464576	99
Es	0.527999	1.794956	1.165399	99
Es	0.115262	1.338199	-1.079790	99
Es	-0.722311	-0.753744	0.318734	99
Es	-0.197739	1.609851	0.829216	99
Es	-1.300026	-0.609630	0.746068	99
Es	0.209999	0.895261	0.796970	99
Es	0.579912	0.537016	-0.195203	99
Es	-0.619158	-1.481072	0.134859	99
Es	-0.878756	-1.096553	-0.338483	99
Es	-0.781353	-1.806926	-0.508013	99
Es	-0.157239	-0.301682	0.391035	99
Es	0.999149	-0.125358	0.776161	99
Es	0.595549	1.264751	-0.538359	99
Es	0.319669	1.576553	0.197419	99
Es	-0.221404	-1.986953	-0.954338	99
Es	-1.373437	-2.234002	-0.536800	99
Es	1.273924	1.486832	-0.691858	99
31
Properties=species:S:1:pos:R:3:Z:I:1 energy=-209.99567799656796 field_type=dipole dipole="0.000000 0.000000 0.000000" charge=0
C	-0.781357	-1.806843	-0.507954	6
C	-0.722337	-0.753833	0.318676	6
C	0.410463	0.156018	0.464576	6
C	0.595613	1.264767	-0.538624	6
N	0.101103	1.541378	0.804196	7
H	-1.668676	-2.429913	-0.549114	1
H	0.048363	-2.061603	-1.158674	1
H	-1.588937	-0.550163	0.946626	1
H	1.292953	-0.264403	0.935996	1
H	-0.124237	1.373637	-1.340434	1
H	1.601253	1.593807	-0.766424	1
H	0.835793	1.937148	1.391156	1
Es	0.410404	0.156265	0.464581	99
Es	1.273356	1.486583	-0.691612	99
Es	0.580525	0.536465	-0.195357	99
Es	-0.619152	-1.481101	0.134884	99
Es	-1.300005	-0.609486	0.746129	99
Es	-0.157127	-0.302186	0.390914	99
Es	-0.221393	-1.987189	-0.954474	99
Es	0.524542	1.796840	1.166414	99
Es	0.115597	1.338283	-1.079721	99
Es	0.209972	0.895080	0.796913	99
Es	0.101735	1.541131	0.804036	99
Es	0.595552	1.264754	-0.538357	99
Es	-1.373349	-2.233784	-0.536642	99
Es	0.998418	-0.124824	0.775809	99
Es	-0.194048	1.608273	0.827970	99
Es	-0.722308	-0.753746	0.318737	99
Es	-0.781351	-1.806928	-0.508013	99
Es	-0.878732	-1.096535	-0.338539	99
Es	0.319416	1.577022	0.197970	99
31
Properties=species:S:1:pos:R:3:Z:I:1 energy=-209.99567799656796 field_type=dipole dipole="0.000000 0.000000 0.000000" charge=0
C	-0.781357	-1.806843	-0.507954	6
C	-0.722337	-0.753833	0.318676	6
C	0.410463	0.156018	0.464576	6
C	0.595613	1.264767	-0.538624	6
N	0.101103	1.541378	0.804196	7
H	-1.668676	-2.429913	-0.549114	1
H	0.048363	-2.061603	-1.158674	1
H	-1.588937	-0.550163	0.946626	1
H	1.292953	-0.264403	0.935996	1
H	-0.124237	1.373637	-1.340434	1
H	1.601253	1.593807	-0.766424	1
H	0.835793	1.937148	1.391156	1
Es	-0.619034	-1.481042	0.134815	99
Es	-0.878744	-1.096651	-0.338439	99
Es	-0.190644	1.606901	0.827042	99
Es	-1.373286	-2.233618	-0.536432	99
Es	-0.722312	-0.753744	0.318734	99
Es	0.595547	1.264751	-0.538363	99
Es	0.101753	1.541129	0.804039	99
Es	0.997971	-0.124376	0.775447	99
Es	0.580847	0.536044	-0.195558	99
Es	-0.221459	-1.987340	-0.954690	99
Es	1.272866	1.486445	-0.691593	99
Es	0.521453	1.798280	1.167333	99
Es	0.209968	0.894943	0.796701	99
Es	0.410405	0.156267	0.464579	99
Es	0.319281	1.577550	0.198375	99
Es	-1.300030	-0.609421	0.746201	99
Es	-0.781352	-1.806929	-0.508013	99
Es	0.115786	1.338303	-1.079431	99
Es	-0.156963	-0.302577	0.390897	99
31
Properties=species:S:1:pos:R:3:Z:I:1 energy=-209.99567799656796 field_type=dipole dipole="0.000000 0.000000 0.000000" charge=0
C	-0.781357	-1.806843	-0.507954	6
C	-0.722337	-0.753833	0.318676	6
C	0.410463	0.156018	0.464576	6
C	0.595613	1.264767	-0.538624	6
N	0.101103	1.541378	0.804196	7
H	-1.668676	-2.429913	-0.549114	1
H	0.048363	-2.061603	-1.158674	1
H	-1.588937	-0.550163	0.946626	1
H	1.292953	-0.264403	0.935996	1
H	-0.124237	1.373637	-1.340434	1
H	1.601253	1.593807	-0.766424	1
H	0.835793	1.937148	1.391156	1
Es	-0.221468	-1.987482	-0.954755	99
Es	0.410406	0.156265	0.464575	99
Es	0.115894	1.338295	-1.079147	99
Es	0.518576	1.799571	1.168106	99
Es	-0.187830	1.605907	0.826041	99
Es	0.319497	1.577655	0.198977	99
Es	-0.619057	-1.481178	0.134946	99
Es	0.581268	0.535586	-0.195641	99
Es	-0.156900	-0.302902	0.390870	99
Es	0.595547	1.264752	-0.538360	99
Es	0.101740	1.541128	0.804033	99
Es	-1.299952	-0.609371	0.746212	99
Es	-0.878821	-1.096536	-0.338571	99
Es	-0.781351	-1.806928	-0.508013	99
Es	-0.722310	-0.753744	0.318732	99
Es	0.997415	-0.123983	0.775159	99
Es	-1.373141	-2.233453	-0.536400	99
Es	1.272537	1.486366	-0.691650	99
Es	0.210002	0.894970	0.796531	99
31
Properties=species:S:1:pos:R:3:Z:I:1 energy=-209.99567799656796 field_type=dipole dipole="0.000000 0.000000 0.000000" charge=0
C	-0.781357	-1.806843	-0.507954	6
C	-0.722337	-0.753833	0.318676	6
C	0.410463	0.156018	0.464576	6
C	0.595613	1.264767	-0.538624	6
N	0.101103	1.541378	0.804196	7
H	-1.668676	-2.429913	-0.549114	1
H	0.048363	-2.061603	-1.158674	1
H	-1.588937	-0.550163	0.946626	1
H	1.292953	-0.264403	0.935996	1
H	-0.124237	1.373637	-1.340434	1
H	1.601253	1.593807	-0.766424	1
H	0.835793	1.937148	1.391156	1
Es	-0.619097	-1.481146	0.134872	99
Es	-0.221490	-1.987669	-0.954818	99
Es	0.997072	-0.123629	0.774746	99
Es	-0.781351	-1.806928	-0.508014	99
Es	-1.373140	-2.233288	-0.536316	99
Es	-0.878707	-1.096541	-0.338543	99
Es	-1.299992	-0.609353	0.746236	99
Es	0.515826	1.800784	1.168749	99
Es	0.116075	1.338243	-1.079177	99
Es	0.319426	1.577908	0.199311	99
Es	-0.185146	1.604826	0.825308	99
Es	-0.722311	-0.753749	0.318736	99
Es	0.210292	0.894833	0.796451	99
Es	0.581551	0.535474	-0.195553	99
Es	1.272147	1.486252	-0.691461	99
Es	0.410418	0.156266	0.464584	99
Es	-0.156751	-0.303260	0.390851	99
Es	0.595548	1.264752	-0.538358	99
Es	0.101682	1.541140	0.804038	99
31
Properties=species:S:1:pos:R:3:Z:I:1 energy=-209.99567799656796 field_type=dipole dipole="0.000000 0.000000 0.000000" charge=0
C	-0.781357	-1.806843	-0.507954	6
C	-0.722337	-0.753833	0.318676	6
C	0.410463	0.156018	0.464576	6
C	0.595613	1.264767	-0.538624	6
N	0.101103	1.541378	0.804196	7
H	-1.668676	-2.429913	-0.549114	1
H	0.048363	-2.061603	-1.158674	1
H	-1.588937	-0.550163	0.946626	1
H	1.292953	-0.264403	0.935996	1
H	-0.124237	1.373637	-1.340434	1
H	1.601253	1.593807	-0.766424	1
H	0.835793	1.937148	1.391156	1
Es	0.996701	-0.123357	0.774530	99
Es	-0.722312	-0.753744	0.318734	99
Es	0.581718	0.535195	-0.195434	99
Es	-0.156682	-0.303575	0.390752	99
Es	0.410405	0.156263	0.464576	99
Es	0.319292	1.578360	0.199784	99
Es	-1.373130	-2.233135	-0.536417	99
Es	0.513442	1.801748	1.169274	99
Es	-0.182590	1.604011	0.824696	99
Es	1.271931	1.486017	-0.691337	99
Es	0.595551	1.264748	-0.538365	99
Es	0.116307	1.338298	-1.079097	99
Es	-0.878625	-1.096535	-0.338590	99
Es	-0.619140	-1.481186	0.134948	99
Es	-1.300016	-0.609309	0.746284	99
Es	0.210267	0.894650	0.796135	99
Es	0.101765	1.541125	0.804035	99
Es	-0.781353	-1.806929	-0.508013	99
Es	-0.221479	-1.987730	-0.954853	99
31
Properties=species:S:1:pos:R:3:Z:I:1 energy=-209.99567799656796 field_type=dipole dipole="0.000000 0.000000 0.000000" charge=0
C	-0.781357	-1.806843	-0.507954	6
C	-0.722337	-0.753833	0.318676	6
C	0.410463	0.156018	0.464576	6
C	0.595613	1.264767	-0.538624	6
N	0.101103	1.541378	0.804196	7
H	-1.668676	-2.429913	-0.549114	1
H	0.048363	-2.061603	-1.158674	1
H	-1.588937	-0.550163	0.946626	1
H	1.292953	-0.264403	0.935996	1
H	-0.124237	1.373637	-1.340434	1
H	1.601253	1.593807	-0.766424	1
H	0.835793	1.937148	1.391156	1
Es	0.319223	1.578386	0.200076	99
Es	-0.722312	-0.753746	0.318736	99
Es	0.996387	-0.123060	0.774302	99
Es	0.210545	0.894750	0.795958	99
Es	0.511477	1.802595	1.169709	99
Es	0.410407	0.156262	0.464581	99
Es	0.595543	1.264751	-0.538357	99
Es	-1.299967	-0.609267	0.746298	99
Es	0.101744	1.541127	0.804034	99
Es	-1.373103	-2.233118	-0.536243	99
Es	-0.878710	-1.096573	-0.338611	99
Es	0.116355	1.338186	-1.078993	99
Es	-0.156498	-0.303815	0.390780	99
Es	-0.221505	-1.987824	-0.954912	99
Es	-0.180749	1.603233	0.824292	99
Es	0.582090	0.535049	-0.195528	99
Es	-0.619133	-1.481101	0.134865	99
Es	-0.781352	-1.806927	-0.508015	99
Es	1.271609	1.486010	-0.691327	99
31
Properties=species:S:1:pos:R:3:Z:I:1 energy=-209.99567799656796 field_type=dipole dipole="0.000000 0.000000 0.000000" charge=0
C	-0.781357	-1.806843	-0.507954	6
C	-0.722337	-0.753833	0.318676	6
C	0.410463	0.156018	0.464576	6
C	0.595613	1.264767	-0.538624	6
N	0.101103	1.541378	0.804196	7
H	-1.668676	-2.429913	-0.549114	1
H	0.048363	-2.061603	-1.158674	1
H	-1.588937	-0.550163	0.946626	1
H	1.292953	-0.264403	0.935996	1
H	-0.124237	1.373637	-1.340434	1
H	1.601253	1.593807	-0.766424	1
H	0.835793	1.937148	1.391156	1
Es	-1.300070	-0.609280	0.746311	99
Es	-0.619144	-1.481157	0.134883	99
Es	0.318981	1.578548	0.200267	99
Es	-0.221513	-1.987920	-0.955051	99
Es	0.210530	0.894699	0.795884	99
Es	0.410418	0.156269	0.464589	99
Es	0.582056	0.534783	-0.195410	99
Es	0.101536	1.541175	0.804048	99
Es	-1.373091	-2.232908	-0.536267	99
Es	1.271478	1.485926	-0.691300	99
Es	0.509701	1.803418	1.170004	99
Es	0.595546	1.264756	-0.538356	99
Es	-0.878524	-1.096592	-0.338528	99
Es	0.116473	1.338312	-1.078835	99
Es	-0.722314	-0.753744	0.318731	99
Es	-0.781351	-1.806928	-0.508014	99
Es	-0.156476	-0.304033	0.390719	99
Es	0.996172	-0.122867	0.774021	99
Es	-0.178356	1.602459	0.823949	99
31
Properties=species:S:1:pos:R:3:Z:I:1 energy=-209.99567799656796 field_type=dipole dipole="0.000000 0.000000 0.000000" charge=0
C	-0.781357	-1.806843	-0.507954	6
C	-0.722337	-0.753833	0.318676	6
C	0.410463	0.156018	0.464576	6
C	0.595613	1.264767	-0.538624	6
N	0.101103	1.541378	0.804196	7
H	-1.668676	-2.429913	-0.549114	1
H	0.048363	-2.061603	-1.158674	1
H	-1.588937	-0.550163	0.946626	1
H	1.292953	-0.264403	0.935996	1
H	-0.124237	1.373637	-1.340434	1
H	1.601253	1.593807	-0.766424	1
H	0.835793	1.937148	1.391156	1
Es	-0.619171	-1.481124	0.134875	99
Es	-0.156415	-0.304168	0.390679	99
Es	1.271244	1.485756	-0.691352	99
Es	0.508086	1.804149	1.170276	99
Es	0.101714	1.541137	0.804038	99
Es	-1.300042	-0.609290	0.746257	99
Es	0.582280	0.534686	-0.195431	99
Es	0.595547	1.264751	-0.538358	99
Es	0.318981	1.578590	0.200330	99
Es	0.116578	1.338217	-1.078642	99
Es	-0.722311	-0.753744	0.318735	99
Es	-0.781351	-1.806929	-0.508013	99
Es	0.995941	-0.122689	0.774014	99
Es	-1.373050	-2.232938	-0.536251	99
Es	-0.176946	1.601860	0.823688	99
Es	-0.878591	-1.096582	-0.338603	99
Es	-0.221468	-1.987950	-0.954987	99
Es	0.410406	0.156270	0.464580	99
Es	0.210619	0.894913	0.795809	99
31
Properties=species:S:1:pos:R:3:Z:I:1 energy=-209.99567799656796 field_type=dipole dipole="0.000000 0.000000 0.000000" charge=0
C	-0.781357	-1.806843	-0.507954	6
C	-0.722337	-0.753833	0.318676	6
C	0.410463	0.156018	0.464576	6
C	0.595613	1.264767	-0.538624	6
N	0.101103	1.541378	0.804196	7
H	-1.668676	-2.429913	-0.549114	1
H	0.048363	-2.061603	-1.158674	1
H	-1.588937	-0.550163	0.946626	1
H	1.292953	-0.264403	0.935996	1
H	-0.124237	1.373637	-1.340434	1
H	1.601253	1.593807	-0.766424	1
H	0.835793	1.937148	1.391156	1
Es	0.410404	0.156270	0.464580	99
Es	0.506449	1.804574	1.170701	99
Es	-0.722313	-0.753743	0.318731	99
Es	0.116690	1.338238	-1.078722	99
Es	0.582293	0.534679	-0.195474	99
Es	0.595544	1.264750	-0.538355	99
Es	0.210587	0.894616	0.795546	99
Es	-0.156271	-0.304316	0.390665	99
Es	0.101736	1.541131	0.804037	99
Es	-1.373140	-2.232803	-0.536186	99
Es	0.995804	-0.122549	0.773729	99
Es	-0.175372	1.601558	0.823184	99
Es	-0.781351	-1.806927	-0.508014	99
Es	1.271092	1.485679	-0.691195	99
Es	-0.878479	-1.096598	-0.338601	99
Es	-1.300024	-0.609243	0.746305	99
Es	0.319101	1.578788	0.200910	99
Es	-0.619175	-1.481087	0.134840	99
Es	-0.221522	-1.988101	-0.955040	99
31
Properties=species:S:1:pos:R:3:Z:I:1 energy=-209.99567799656796 field_type=dipole dipole="0.000000 0.000000 0.000000" charge=0
C	-0.781357	-1.806843	-0.507954	6
C	-0.722337	-0.753833	0.318676	6
C	0.410463	0.156018	0.464576	6
C	0.595613	1.264767	-0.538624	6
N	0.101103	1.541378	0.804196	7
H	-1.668676	-2.429913	-0.549114	1
H	0.048363	-2.061603	-1.158674	1
H	-1.588937	-0.550163	0.946626	1
H	1.292953	-0.264403	0.935996	1
H	-0.124237	1.373637	-1.340434	1
H	1.601253	1.593807	-0.766424	1
H	0.835793	1.937148	1.391156	1
Es	-0.878582	-1.096636	-0.338609	99
Es	0.505745	1.804991	1.170686	99
Es	-0.156162	-0.304613	0.390613	99
Es	0.116757	1.338376	-1.078610	99
Es	0.582533	0.534410	-0.195551	99
Es	0.595548	1.264753	-0.538356	99
Es	0.410408	0.156268	0.464579	99
Es	-0.619216	-1.481098	0.134903	99
Es	0.101746	1.541128	0.804036	99
Es	-0.221508	-1.988089	-0.955134	99
Es	-0.174522	1.601161	0.823204	99
Es	1.270882	1.485570	-0.691141	99
Es	-0.722314	-0.753742	0.318731	99
Es	0.995352	-0.122266	0.773511	99
Es	-0.781350	-1.806930	-0.508012	99
Es	-1.299976	-0.609181	0.746407	99
Es	0.318821	1.579118	0.201310	99
Es	0.210934	0.894406	0.795309	99
Es	-1.373046	-2.232710	-0.536232	99
31
Properties=species:S:1:pos:R:3:Z:I:1 energy=-209.99567799656796 field_type=dipole dipole="0.000000 0.000000 0.000000" charge=0
C	-0.781357	-1.806843	-0.507954	6
C	-0.722337	-0.753833	0.318676	6
C	0.410463	0.156018	0.464576	6
C	0.595613	1.264767	-0.538624	6
N	0.101103	1.541378	0.804196	7
H	-1.668676	-2.429913	-0.549114	1
H	0.048363	-2.061603	-1.158674	1
H	-1.588937	-0.550163	0.946626	1
H	1.292953	-0.264403	0.935996	1
H	-0.124237	1.373637	-1.340434	1
H	1.601253	1.593807	-0.766424	1
H	0.835793	1.937148	1.391156	1
Es	-1.373026	-2.232691	-0.536259	99
Es	-0.156119	-0.304704	0.390588	99
Es	0.410406	0.156261	0.464575	99
Es	0.582780	0.534325	-0.195362	99
Es	0.319247	1.578836	0.201483	99
Es	0.595543	1.264755	-0.538354	99
Es	-0.781351	-1.806928	-0.508014	99
Es	1.270718	1.485547	-0.691126	99
Es	-0.619252	-1.481189	0.134904	99
Es	0.995213	-0.122115	0.773490	99
Es	-0.722310	-0.753743	0.318737	99
Es	0.210601	0.894601	0.795298	99
Es	-0.878483	-1.096567	-0.338602	99
Es	-1.300027	-0.609264	0.746302	99
Es	0.504223	1.805465	1.171016	99
Es	0.101748	1.541128	0.804035	99
Es	0.116803	1.338302	-1.078573	99
Es	-0.173145	1.600971	0.822656	99
Es	-0.221517	-1.988075	-0.955151	99
31
Properties=species:S:1:pos:R:3:Z:I:1 energy=-209.99567799656796 field_type=dipole dipole="0.000000 0.000000 0.000000" charge=0
C	-0.781357	-1.806843	-0.507954	6
C	-0.722337	-0.753833	0.318676	6
C	0.410463	0.156018	0.464576	6
C	0.595613	1.264767	-0.538624	6
N	0.101103	1.541378	0.804196	7
H	-1.668676	-2.429913	-0.549114	1
H	0.048363	-2.061603	-1.158674	1
H	-1.588937	-0.550163	0.946626	1
H	1.292953	-0.264403	0.935996	1
H	-0.124237	1.373637	-1.340434	1
H	1.601253	1.593807	-0.766424	1
H	0.835793	1.937148	1.391156	1
Es	0.503153	1.805819	1.171163	99
Es	0.995034	-0.122029	0.773299	99
Es	-0.878343	-1.096588	-0.338517	99
Es	0.595542	1.264753	-0.538363	99
Es	-0.171928	1.600635	0.822482	99
Es	0.319203	1.579111	0.201601	99
Es	-0.156128	-0.304746	0.390480	99
Es	-0.722312	-0.753744	0.318734	99
Es	-0.221510	-1.988132	-0.955136	99
Es	0.116895	1.338256	-1.078538	99
Es	0.101688	1.541143	0.804050	99
Es	-0.781350	-1.806930	-0.508012	99
Es	-1.373107	-2.232593	-0.536342	99
Es	0.582902	0.534254	-0.195334	99
Es	0.410407	0.156264	0.464576	99
Es	-0.619291	-1.481223	0.134906	99
Es	0.210743	0.894471	0.795297	99
Es	-1.300043	-0.609239	0.746352	99
Es	1.270498	1.485433	-0.691054	99
31
Properties=species:S:1:pos:R:3:Z:I:1 energy=-209.99567799656796 field_type=dipole dipole="0.000000 0.000000 0.000000" charge=0
C	-0.781357	-1.806843	-0.507954	6
C	-0.722337	-0.753833	0.318676	6
C	0.410463	0.156018	0.464576	6
C	0.595613	1.264767	-0.538624	6
N	0.101103	1.541378	0.804196	7
H	-1.668676	-2.429913	-0.549114	1
H	0.048363	-2.061603	-1.158674	1
H	-1.588937	-0.550163	0.946626	1
H	1.292953	-0.264403	0.935996	1
H	-0.124237	1.373637	-1.340434	1
H	1.601253	1.593807	-0.766424	1
H	0.835793	1.937148	1.391156	1
Es	0.583293	0.534192	-0.195059	99
Es	0.210815	0.894525	0.795079	99
Es	1.270360	1.485432	-0.690943	99
Es	-0.722312	-0.753744	0.318734	99
Es	-0.221494	-1.988186	-0.955206	99
Es	0.595548	1.264751	-0.538349	99
Es	-0.155976	-0.305023	0.390424	99
Es	-0.619296	-1.481122	0.134862	99
Es	0.101694	1.541142	0.804038	99
Es	0.116904	1.338124	-1.078705	99
Es	-0.878415	-1.096656	-0.338539	99
Es	0.502403	1.806232	1.171212	99
Es	-1.373055	-2.232550	-0.536251	99
Es	-1.300058	-0.609217	0.746380	99
Es	0.318889	1.579155	0.201779	99
Es	0.410406	0.156266	0.464579	99
Es	-0.781350	-1.806929	-0.508014	99
Es	0.994728	-0.121769	0.773203	99
Es	-0.171032	1.600294	0.822417	99
31
Properties=species:S:1:pos:R:3:Z:I:1 energy=-209.99567799656796 field_type=dipole dipole="0.000000 0.000000 0.000000" charge=0
C	-0.781357	-1.806843	-0.507954	6
C	-0.722337	-0.753833	0.318676	6
C	0.410463	0.156018	0.464576	6
C	0.595613	1.264767	-0.538624	6
N	0.101103	1.541378	0.804196	7
H	-1.668676	-2.429913	-0.549114	1
H	0.048363	-2.061603	-1.158674	1
H	-1.588937	-0.550163	0.946626	1
H	1.292953	-0.264403	0.935996	1
H	-0.124237	1.373637	-1.340434	1
H	1.601253	1.593807	-0.766424	1
H	0.835793	1.937148	1.391156	1
Es	1.270281	1.485243	-0.691007	99
Es	-0.155867	-0.305162	0.390497	99
Es	0.210868	0.894566	0.794916	99
Es	0.116960	1.338221	-1.078507	99
Es	-0.170110	1.600088	0.822160	99
Es	-0.878341	-1.096623	-0.338539	99
Es	0.410405	0.156267	0.464574	99
Es	0.994575	-0.121668	0.773141	99
Es	0.501378	1.806493	1.171415	99
Es	0.101642	1.541151	0.804040	99
Es	-0.722310	-0.753746	0.318738	99
Es	-0.619425	-1.481222	0.134935	99
Es	0.319226	1.579300	0.202005	99
Es	-0.781352	-1.806929	-0.508013	99
Es	-1.300052	-0.609133	0.746319	99
Es	-0.221539	-1.988235	-0.955273	99
Es	-1.373031	-2.232436	-0.536275	99
Es	0.583193	0.533991	-0.195122	99
Es	0.595549	1.264752	-0.538361	99
31
Properties=species:S:1:pos:R:3:Z:I:1 energy=-209.99567799656796 field_type=dipole dipole="0.000000 0.000000 0.000000" charge=0
C	-0.781357	-1.806843	-0.507954	6
C	-0.722337	-0.753833	0.318676	6
C	0.410463	0.156018	0.464576	6
C	0.595613	1.264767	-0.538624	6
N	0.101103	1.541378	0.804196	7
H	-1.668676	-2.429913	-0.549114	1
H	0.048363	-2.061603	-1.158674	1
H	-1.588937	-0.550163	0.946626	1
H	1.292953	-0.264403	0.935996	1
H	-0.124237	1.373637	-1.340434	1
H	1.601253	1.593807	-0.766424	1
H	0.835793	1.937148	1.391156	1
Es	0.117017	1.338355	-1.078461	99
Es	-0.169503	1.599968	0.822008	99
Es	-1.373009	-2.232544	-0.536298	99
Es	-0.781351	-1.806928	-0.508013	99
Es	0.994387	-0.121506	0.772971	99
Es	0.583328	0.533798	-0.195305	99
Es	-1.299989	-0.609156	0.746505	99
Es	0.319250	1.579141	0.202332	99
Es	1.270073	1.485229	-0.690905	99
Es	0.500905	1.806774	1.171445	99
Es	-0.878519	-1.096628	-0.338656	99
Es	0.210911	0.894574	0.794832	99
Es	0.410406	0.156261	0.464578	99
Es	-0.619273	-1.481113	0.134910	99
Es	0.595546	1.264750	-0.538353	99
Es	0.101558	1.541171	0.804046	99
Es	-0.722311	-0.753746	0.318736	99
Es	-0.221494	-1.988141	-0.955226	99
Es	-0.155880	-0.305343	0.390498	99
31
Properties=species:S:1:pos:R:3:Z:I:1 energy=-209.99567799656796 field_type=dipole dipole="0.000000 0.000000 0.000000" charge=0
C	-0.781357	-1.806843	-0.507954	6
C	-0.722337	-0.753833	0.318676	6
C	0.410463	0.156018	0.464576	6
C	0.595613	1.264767	-0.538624	6
N	0.101103	1.541378	0.804196	7
H	-1.668676	-2.429913	-0.549114	1
H	0.048363	-2.061603	-1.158674	1
H	-1.588937	-0.550163	0.946626	1
H	1.292953	-0.264403	0.935996	1
H	-0.124237	1.373637	-1.340434	1
H	1.601253	1.593807	-0.766424	1
H	0.835793	1.937148	1.391156	1
Es	-0.619415	-1.481200	0.134915	99
Es	1.270025	1.485211	-0.690926	99
Es	0.101749	1.541130	0.804037	99
Es	-1.373086	-2.232314	-0.536315	99
Es	0.499792	1.807165	1.171551	99
Es	0.319305	1.579077	0.202473	99
Es	0.410403	0.156271	0.464581	99
Es	0.583426	0.533911	-0.195158	99
Es	-0.722312	-0.753745	0.318735	99
Es	0.116978	1.338229	-1.078498	99
Es	0.210751	0.894482	0.794993	99
Es	-1.300058	-0.609166	0.746369	99
Es	0.595548	1.264752	-0.538353	99
Es	-0.168401	1.599793	0.821745	99
Es	-0.781349	-1.806933	-0.508009	99
Es	0.994334	-0.121502	0.772866	99
Es	-0.155893	-0.305268	0.390429	99
Es	-0.221507	-1.988351	-0.955257	99
Es	-0.878238	-1.096628	-0.338537	99
31
Properties=species:S:1:pos:R:3:Z:I:1 energy=-209.99567799656796 field_type=dipole dipole="0.000000 0.000000 0.000000" charge=0
C	-0.781357	-1.806843	-0.507954	6
C	-0.722337	-0.753833	0.318676	6
C	0.410463	0.156018	0.464576	6
C	0.595613	1.264767	-0.538624	6
N	0.101103	1.541378	0.804196	7
H	-1.668676	-2.429913	-0.549114	1
H	0.048363	-2.061603	-1.158674	1
H	-1.588937	-0.550163	0.946626	1
H	1.292953	-0.264403	0.935996	1
H	-0.124237	1.373637	-1.340434	1
H	1.601253	1.593807	-0.766424	1
H	0.835793	1.937148	1.391156	1
Es	-0.155794	-0.305460	0.390424	99
Es	-1.373124	-2.232312	-0.536260	99
Es	0.101577	1.541167	0.804059	99
Es	-0.619373	-1.481166	0.134814	99
Es	-0.878165	-1.096650	-0.338466	99
Es	0.499139	1.807346	1.171700	99
Es	0.410409	0.156271	0.464581	99
Es	-0.781351	-1.806929	-0.508013	99
Es	0.211035	0.894400	0.794610	99
Es	-0.722310	-0.753746	0.318737	99
Es	1.269856	1.485159	-0.690799	99
Es	0.583589	0.533807	-0.195139	99
Es	-0.221557	-1.988305	-0.955366	99
Es	0.117144	1.338248	-1.078470	99
Es	0.595545	1.264751	-0.538356	99
Es	0.318976	1.579453	0.202569	99
Es	0.994148	-0.121342	0.772784	99
Es	-0.167590	1.599391	0.821811	99
Es	-1.300102	-0.609168	0.746425	99
31
Properties=species:S:1:pos:R:3:Z:I:1 energy=-209.99567799656796 field_type=dipole dipole="0.000000 0.000000 0.000000" charge=0
C	-0.781357	-1.806843	-0.507954	6
C	-0.722337	-0.753833	0.318676	6
C	0.410463	0.156018	0.464576	6
C	0.595613	1.264767	-0.538624	6
N	0.101103	1.541378	0.804196	7
H	-1.668676	-2.429913	-0.549114	1
H	0.048363	-2.061603	-1.158674	1
H	-1.588937	-0.550163	0.946626	1
H	1.292953	-0.264403	0.935996	1
H	-0.124237	1.373637	-1.340434	1
H	1.601253	1.593807	-0.766424	1
H	0.835793	1.937148	1.391156	1
Es	-1.373082	-2.232302	-0.536190	99
Es	-0.167555	1.599265	0.821854	99
Es	-0.781351	-1.806928	-0.508014	99
Es	-0.722312	-0.753745	0.318735	99
Es	0.498940	1.807514	1.171707	99
Es	0.211129	0.894630	0.794650	99
Es	0.410407	0.156268	0.464581	99
Es	0.101709	1.541137	0.804036	99
Es	-0.221607	-1.988323	-0.955419	99
Es	0.595545	1.264755	-0.538353	99
Es	0.583510	0.533650	-0.195163	99
Es	0.994015	-0.121189	0.772663	99
Es	-0.155702	-0.305558	0.390398	99
Es	0.319007	1.579346	0.202558	99
Es	-0.878227	-1.096644	-0.338479	99
Es	1.269757	1.485028	-0.690731	99
Es	-0.619311	-1.481183	0.134820	99
Es	0.117227	1.338387	-1.078432	99
Es	-1.300045	-0.609193	0.746422	99
31
Properties=species:S:1:pos:R:3:Z:I:1 energy=-209.99567799656796 field_type=dipole dipole="0.000000 0.000000 0.000000" charge=0
C	-0.781357	-1.806843	-0.507954	6
C	-0.722337	-0.753833	0.318676	6
C	0.410463	0.156018	0.464576	6
C	0.595613	1.264767	-0.538624	6
N	0.101103	1.541378	0.804196	7
H	-1.668676	-2.429913	-0.549114	1
H	0.048363	-2.061603	-1.158674	1
H	-1.588937	-0.550163	0.946626	1
H	1.292953	-0.264403	0.935996	1
H	-0.124237	1.373637	-1.340434	1
H	1.601253	1.593807	-0.766424	1
H	0.835793	1.937148	1.391156	1
Es	0.211132	0.894256	0.794550	99
Es	-0.619373	-1.481137	0.134820	99
Es	-0.722311	-0.753741	0.318732	99
Es	0.319026	1.579374	0.203050	99
Es	1.269666	1.485094	-0.690782	99
Es	0.101774	1.541125	0.804037	99
Es	-0.781352	-1.806926	-0.508016	99
Es	0.583686	0.533759	-0.195122	99
Es	0.117182	1.338254	-1.078378	99
Es	-0.166503	1.599129	0.821547	99
Es	-0.155746	-0.305615	0.390315	99
Es	0.993993	-0.121195	0.772620	99
Es	0.497828	1.807961	1.171726	99
Es	0.410405	0.156266	0.464575	99
Es	-0.878200	-1.096690	-0.338463	99
Es	-1.299991	-0.609210	0.746519	99
Es	-1.373201	-2.232260	-0.536335	99
Es	-0.221505	-1.988279	-0.955399	99
Es	0.595544	1.264751	-0.538353	99
31
Properties=species:S:1:pos:R:3:Z:I:1 energy=-209.99567799656796 field_type=dipole dipole="0.000000 0.000000 0.000000" charge=0
C	-0.781357	-1.806843	-0.507954	6
C	-0.722337	-0.753833	0.318676	6
C	0.410463	0.156018	0.464576	6
C	0.595613	1.264767	-0.538624	6
N	0.101103	1.541378	0.804196	7
H	-1.668676	-2.429913	-0.549114	1
H	0.048363	-2.061603	-1.158674	1
H	-1.588937	-0.550163	0.946626	1
H	1.292953	-0.264403	0.935996	1
H	-0.124237	1.373637	-1.340434	1
H	1.601253	1.593807	-0.766424	1
H	0.835793	1.937148	1.391156	1
Es	0.211552	0.894326	0.794157	99
Es	0.410409	0.156272	0.464580	99
Es	0.318673	1.579858	0.203024	99
Es	-0.221550	-1.988364	-0.955392	99
Es	-0.619393	-1.481186	0.134880	99
Es	0.583669	0.533625	-0.195081	99
Es	0.497714	1.807868	1.171876	99
Es	-1.300049	-0.609272	0.746402	99
Es	-1.373129	-2.232187	-0.536331	99
Es	-0.155556	-0.305724	0.390578	99
Es	0.595545	1.264752	-0.538361	99
Es	0.101693	1.541145	0.804054	99
Es	0.117284	1.338233	-1.078385	99
Es	-0.781350	-1.806930	-0.508013	99
Es	0.993717	-0.120942	0.772404	99
Es	-0.722311	-0.753744	0.318735	99
Es	1.269628	1.485001	-0.690726	99
Es	-0.878149	-1.096643	-0.338532	99
Es	-0.166343	1.598826	0.821772	99
