38
Properties=species:S:1:pos:R:3:Z:I:1 energy=-196.40193774007383 field_type=dipole dipole="0.000000 0.000000 0.000000" charge=0
C	-1.729139	-1.113072	-0.273524	6
C	-0.211139	-1.018732	-0.213534	6
C	0.318261	0.424278	-0.270774	6
C	-0.130629	1.257778	0.930316	6
C	1.846721	0.413988	-0.350404	6
H	-2.037509	-2.162112	-0.334314	1
H	-2.121289	-0.593812	-1.153903	1
H	-2.194659	-0.684672	0.619046	1
H	0.198701	-1.584893	-1.059134	1
H	0.142681	-1.514722	0.698466	1
H	-0.062059	0.903297	-1.181834	1
H	0.171491	0.790097	1.873576	1
H	-1.217479	1.383398	0.944166	1
H	0.310581	2.260007	0.894146	1
H	2.288391	-0.050542	0.538046	1
H	2.239801	1.433278	-0.430784	1
H	2.187281	-0.143562	-1.229563	1
Es	0.033028	-1.354273	0.416601	99
Es	2.144037	0.095304	0.259939	99
Es	1.092817	0.417461	-0.307376	99
Es	-1.994198	-0.755155	-0.876314	99
Es	-0.130629	1.257776	0.930311	99
Es	-2.045093	-0.817487	0.336147	99
Es	0.088401	0.840509	0.340535	99
Es	2.113671	1.113061	-0.403963	99
Es	-1.938455	-1.830336	-0.315399	99
Es	0.078362	0.933046	1.573178	99
Es	2.077621	0.030393	-0.952319	99
Es	0.071625	-1.404767	-0.797201	99
Es	-1.729121	-1.113072	-0.273524	99
Es	0.046219	-0.297105	-0.234783	99
Es	0.318283	0.424269	-0.270735	99
Es	0.173919	1.941386	0.902475	99
Es	-0.211175	-1.018715	-0.213534	99
Es	-0.977973	-1.057578	-0.240465	99
Es	0.053869	0.752415	-0.898570	99
Es	-0.873548	1.340483	0.939282	99
Es	1.846717	0.413988	-0.350404	99
38
Properties=species:S:1:pos:R:3:Z:I:1 energy=-196.40193774007383 field_type=dipole dipole="0.000000 0.000000 0.000000" charge=0
C	-1.729139	-1.113072	-0.273524	6
C	-0.211139	-1.018732	-0.213534	6
C	0.318261	0.424278	-0.270774	6
C	-0.130629	1.257778	0.930316	6
C	1.846721	0.413988	-0.350404	6
H	-2.037509	-2.162112	-0.334314	1
H	-2.121289	-0.593812	-1.153903	1
H	-2.194659	-0.684672	0.619046	1
H	0.198701	-1.584893	-1.059134	1
H	0.142681	-1.514722	0.698466	1
H	-0.062059	0.903297	-1.181834	1
H	0.171491	0.790097	1.873576	1
H	-1.217479	1.383398	0.944166	1
H	0.310581	2.260007	0.894146	1
H	2.288391	-0.050542	0.538046	1
H	2.239801	1.433278	-0.430784	1
H	2.187281	-0.143562	-1.229563	1
Es	2.077337	0.030498	-0.952489	99
Es	0.078358	0.932761	1.573817	99
Es	1.846716	0.413988	-0.350404	99
Es	0.318284	0.424269	-0.270734	99
Es	0.033125	-1.354535	0.417000	99
Es	-2.044786	-0.817628	0.336257	99
Es	-1.729121	-1.113073	-0.273524	99
Es	-0.873012	1.340680	0.939048	99
Es	-0.211176	-1.018718	-0.213535	99
Es	-0.130630	1.257775	0.930308	99
Es	2.113433	1.113138	-0.404085	99
Es	-1.938297	-1.830437	-0.315283	99
Es	0.053875	0.752634	-0.899036	99
Es	2.144068	0.095034	0.260375	99
Es	-0.977966	-1.057642	-0.240358	99
Es	0.046154	-0.297096	-0.234747	99
Es	1.092849	0.417424	-0.307341	99
Es	0.173668	1.941327	0.902258	99
Es	-1.994213	-0.754769	-0.876678	99
Es	0.088382	0.840618	0.340460	99
Es	0.071328	-1.404645	-0.797426	99
38
Properties=species:S:1:pos:R:3:Z:I:1 energy=-196.40193774007383 field_type=dipole dipole="0.000000 0.000000 0.000000" charge=0
C	-1.729139	-1.113072	-0.273524	6
C	-0.211139	-1.018732	-0.213534	6
C	0.318261	0.424278	-0.270774	6
C	-0.130629	1.257778	0.930316	6
C	1.846721	0.413988	-0.350404	6
H	-2.037509	-2.162112	-0.334314	1
H	-2.121289	-0.593812	-1.153903	1
H	-2.194659	-0.684672	0.619046	1
H	0.198701	-1.584893	-1.059134	1
H	0.142681	-1.514722	0.698466	1
H	-0.062059	0.903297	-1.181834	1
H	0.171491	0.790097	1.873576	1
H	-1.217479	1.383398	0.944166	1
H	0.310581	2.260007	0.894146	1
H	2.288391	-0.050542	0.538046	1
H	2.239801	1.433278	-0.430784	1
H	2.187281	-0.143562	-1.229563	1
Es	1.846716	0.413988	-0.350404	99
Es	1.092883	0.417426	-0.307293	99
Es	0.078328	0.932693	1.574136	99
Es	-1.938023	-1.830496	-0.315059	99
Es	-2.044550	-0.817691	0.336378	99
Es	2.113167	1.113148	-0.404206	99
Es	0.033121	-1.354752	0.417355	99
Es	-1.729119	-1.113073	-0.273526	99
Es	0.046215	-0.297089	-0.234779	99
Es	-1.994330	-0.754614	-0.877048	99
Es	-0.978075	-1.057644	-0.240563	99
Es	0.053829	0.752779	-0.899352	99
Es	0.088440	0.840551	0.340450	99
Es	2.144154	0.094928	0.260711	99
Es	0.071210	-1.404494	-0.797429	99
Es	-0.211175	-1.018717	-0.213536	99
Es	0.173398	1.941438	0.902166	99
Es	0.318284	0.424269	-0.270735	99
Es	-0.872641	1.340610	0.938945	99
Es	-0.130624	1.257776	0.930308	99
Es	2.077171	0.030568	-0.952636	99
38
Properties=species:S:1:pos:R:3:Z:I:1 energy=-196.40193774007383 field_type=dipole dipole="0.000000 0.000000 0.000000" charge=0
C	-1.729139	-1.113072	-0.273524	6
C	-0.211139	-1.018732	-0.213534	6
C	0.318261	0.424278	-0.270774	6
C	-0.130629	1.257778	0.930316	6
C	1.846721	0.413988	-0.350404	6
H	-2.037509	-2.162112	-0.334314	1
H	-2.121289	-0.593812	-1.153903	1
H	-2.194659	-0.684672	0.619046	1
H	0.198701	-1.584893	-1.059134	1
H	0.142681	-1.514722	0.698466	1
H	-0.062059	0.903297	-1.181834	1
H	0.171491	0.790097	1.873576	1
H	-1.217479	1.383398	0.944166	1
H	0.310581	2.260007	0.894146	1
H	2.288391	-0.050542	0.538046	1
H	2.239801	1.433278	-0.430784	1
H	2.187281	-0.143562	-1.229563	1
Es	1.092855	0.417408	-0.307303	99
Es	-0.211176	-1.018714	-0.213536	99
Es	0.088442	0.840597	0.340485	99
Es	-1.994358	-0.754420	-0.877276	99
Es	2.077010	0.030670	-0.952676	99
Es	0.173242	1.941406	0.902086	99
Es	-0.872431	1.340658	0.938847	99
Es	-1.729121	-1.113072	-0.273524	99
Es	0.046215	-0.297067	-0.234841	99
Es	0.318283	0.424269	-0.270735	99
Es	-1.937886	-1.830544	-0.314970	99
Es	0.033077	-1.354871	0.417578	99
Es	-0.978062	-1.057616	-0.240530	99
Es	0.071084	-1.404487	-0.797559	99
Es	1.846716	0.413988	-0.350404	99
Es	-2.044385	-0.817783	0.336438	99
Es	0.053915	0.752900	-0.899584	99
Es	2.113048	1.113138	-0.404315	99
Es	-0.130627	1.257772	0.930308	99
Es	2.144196	0.094760	0.260994	99
Es	0.078341	0.932613	1.574401	99
38
Properties=species:S:1:pos:R:3:Z:I:1 energy=-196.40193774007383 field_type=dipole dipole="0.000000 0.000000 0.000000" charge=0
C	-1.729139	-1.113072	-0.273524	6
C	-0.211139	-1.018732	-0.213534	6
C	0.318261	0.424278	-0.270774	6
C	-0.130629	1.257778	0.930316	6
C	1.846721	0.413988	-0.350404	6
H	-2.037509	-2.162112	-0.334314	1
H	-2.121289	-0.593812	-1.153903	1
H	-2.194659	-0.684672	0.619046	1
H	0.198701	-1.584893	-1.059134	1
H	0.142681	-1.514722	0.698466	1
H	-0.062059	0.903297	-1.181834	1
H	0.171491	0.790097	1.873576	1
H	-1.217479	1.383398	0.944166	1
H	0.310581	2.260007	0.894146	1
H	2.288391	-0.050542	0.538046	1
H	2.239801	1.433278	-0.430784	1
H	2.187281	-0.143562	-1.229563	1
Es	-0.130628	1.257773	0.930309	99
Es	2.112977	1.113151	-0.404380	99
Es	-1.729122	-1.113073	-0.273524	99
Es	-1.937822	-1.830616	-0.314886	99
Es	1.092826	0.417408	-0.307330	99
Es	0.078342	0.932549	1.574576	99
Es	0.318284	0.424269	-0.270734	99
Es	-0.211176	-1.018714	-0.213535	99
Es	2.144211	0.094699	0.261127	99
Es	0.033075	-1.354972	0.417701	99
Es	2.076943	0.030708	-0.952682	99
Es	0.046268	-0.297027	-0.234830	99
Es	-1.994368	-0.754314	-0.877401	99
Es	-2.044263	-0.817803	0.336439	99
Es	1.846718	0.413987	-0.350404	99
Es	-0.872280	1.340677	0.938772	99
Es	0.088477	0.840591	0.340499	99
Es	0.173152	1.941404	0.902016	99
Es	0.053862	0.752973	-0.899737	99
Es	-0.978097	-1.057628	-0.240557	99
Es	0.071000	-1.404439	-0.797556	99
38
Properties=species:S:1:pos:R:3:Z:I:1 energy=-196.40193774007383 field_type=dipole dipole="0.000000 0.000000 0.000000" charge=0
C	-1.729139	-1.113072	-0.273524	6
C	-0.211139	-1.018732	-0.213534	6
C	0.318261	0.424278	-0.270774	6
C	-0.130629	1.257778	0.930316	6
C	1.846721	0.413988	-0.350404	6
H	-2.037509	-2.162112	-0.334314	1
H	-2.121289	-0.593812	-1.153903	1
H	-2.194659	-0.684672	0.619046	1
H	0.198701	-1.584893	-1.059134	1
H	0.142681	-1.514722	0.698466	1
H	-0.062059	0.903297	-1.181834	1
H	0.171491	0.790097	1.873576	1
H	-1.217479	1.383398	0.944166	1
H	0.310581	2.260007	0.894146	1
H	2.288391	-0.050542	0.538046	1
H	2.239801	1.433278	-0.430784	1
H	2.187281	-0.143562	-1.229563	1
Es	1.846717	0.413988	-0.350404	99
Es	0.070916	-1.404363	-0.797643	99
Es	0.046257	-0.297124	-0.234783	99
Es	-0.211176	-1.018716	-0.213537	99
Es	-2.044178	-0.817816	0.336500	99
Es	1.092839	0.417436	-0.307275	99
Es	0.078357	0.932497	1.574711	99
Es	2.112872	1.113195	-0.404398	99
Es	0.318285	0.424269	-0.270735	99
Es	0.053832	0.753053	-0.899837	99
Es	-0.130628	1.257771	0.930308	99
Es	0.033130	-1.355061	0.417814	99
Es	2.144256	0.094625	0.261208	99
Es	-0.872149	1.340702	0.938741	99
Es	-1.994362	-0.754242	-0.877514	99
Es	-1.729123	-1.113071	-0.273527	99
Es	-0.978126	-1.057651	-0.240549	99
Es	2.076855	0.030757	-0.952753	99
Es	0.173062	1.941393	0.901973	99
Es	-1.937759	-1.830625	-0.314841	99
Es	0.088501	0.840584	0.340421	99
38
Properties=species:S:1:pos:R:3:Z:I:1 energy=-196.40193774007383 field_type=dipole dipole="0.000000 0.000000 0.000000" charge=0
C	-1.729139	-1.113072	-0.273524	6
C	-0.211139	-1.018732	-0.213534	6
C	0.318261	0.424278	-0.270774	6
C	-0.130629	1.257778	0.930316	6
C	1.846721	0.413988	-0.350404	6
H	-2.037509	-2.162112	-0.334314	1
H	-2.121289	-0.593812	-1.153903	1
H	-2.194659	-0.684672	0.619046	1
H	0.198701	-1.584893	-1.059134	1
H	0.142681	-1.514722	0.698466	1
H	-0.062059	0.903297	-1.181834	1
H	0.171491	0.790097	1.873576	1
H	-1.217479	1.383398	0.944166	1
H	0.310581	2.260007	0.894146	1
H	2.288391	-0.050542	0.538046	1
H	2.239801	1.433278	-0.430784	1
H	2.187281	-0.143562	-1.229563	1
Es	0.318284	0.424270	-0.270735	99
Es	0.078424	0.932465	1.574764	99
Es	-0.978124	-1.057697	-0.240525	99
Es	2.112920	1.113200	-0.404398	99
Es	0.088532	0.840721	0.340458	99
Es	-0.872082	1.340581	0.938731	99
Es	-1.729121	-1.113073	-0.273524	99
Es	1.092803	0.417503	-0.307377	99
Es	-1.994327	-0.754149	-0.877684	99
Es	1.846716	0.413988	-0.350404	99
Es	-1.937706	-1.830642	-0.314759	99
Es	2.144155	0.094507	0.261318	99
Es	0.046284	-0.297080	-0.234755	99
Es	-2.044139	-0.817858	0.336450	99
Es	0.172907	1.941463	0.901971	99
Es	0.053858	0.753014	-0.899968	99
Es	0.033083	-1.355144	0.417936	99
Es	2.076802	0.030781	-0.952740	99
Es	-0.130627	1.257772	0.930308	99
Es	-0.211176	-1.018715	-0.213536	99
Es	0.070912	-1.404305	-0.797647	99
38
Properties=species:S:1:pos:R:3:Z:I:1 energy=-196.40193774007383 field_type=dipole dipole="0.000000 0.000000 0.000000" charge=0
C	-1.729139	-1.113072	-0.273524	6
C	-0.211139	-1.018732	-0.213534	6
C	0.318261	0.424278	-0.270774	6
C	-0.130629	1.257778	0.930316	6
C	1.846721	0.413988	-0.350404	6
H	-2.037509	-2.162112	-0.334314	1
H	-2.121289	-0.593812	-1.153903	1
H	-2.194659	-0.684672	0.619046	1
H	0.198701	-1.584893	-1.059134	1
H	0.142681	-1.514722	0.698466	1
H	-0.062059	0.903297	-1.181834	1
H	0.171491	0.790097	1.873576	1
H	-1.217479	1.383398	0.944166	1
H	0.310581	2.260007	0.894146	1
H	2.288391	-0.050542	0.538046	1
H	2.239801	1.433278	-0.430784	1
H	2.187281	-0.143562	-1.229563	1
Es	2.112793	1.113215	-0.404499	99
Es	-1.937655	-1.830676	-0.314731	99
Es	-0.872008	1.340740	0.938683	99
Es	-1.994404	-0.754117	-0.877684	99
Es	0.070855	-1.404368	-0.797680	99
Es	1.092860	0.417400	-0.307293	99
Es	2.144260	0.094526	0.261399	99
Es	0.046275	-0.297061	-0.234765	99
Es	-2.044036	-0.817874	0.336505	99
Es	0.033088	-1.355132	0.417913	99
Es	0.088545	0.840593	0.340410	99
Es	0.318284	0.424269	-0.270734	99
Es	-0.978172	-1.057647	-0.240533	99
Es	0.172948	1.941361	0.901921	99
Es	2.076734	0.030803	-0.952749	99
Es	0.053861	0.753117	-0.900009	99
Es	1.846716	0.413988	-0.350404	99
Es	-0.211177	-1.018715	-0.213536	99
Es	-1.729121	-1.113074	-0.273524	99
Es	0.078359	0.932484	1.574885	99
Es	-0.130627	1.257773	0.930309	99
38
Properties=species:S:1:pos:R:3:Z:I:1 energy=-196.40193774007383 field_type=dipole dipole="0.000000 0.000000 0.000000" charge=0
C	-1.729139	-1.113072	-0.273524	6
C	-0.211139	-1.018732	-0.213534	6
C	0.318261	0.424278	-0.270774	6
C	-0.130629	1.257778	0.930316	6
C	1.846721	0.413988	-0.350404	6
H	-2.037509	-2.162112	-0.334314	1
H	-2.121289	-0.593812	-1.153903	1
H	-2.194659	-0.684672	0.619046	1
H	0.198701	-1.584893	-1.059134	1
H	0.142681	-1.514722	0.698466	1
H	-0.062059	0.903297	-1.181834	1
H	0.171491	0.790097	1.873576	1
H	-1.217479	1.383398	0.944166	1
H	0.310581	2.260007	0.894146	1
H	2.288391	-0.050542	0.538046	1
H	2.239801	1.433278	-0.430784	1
H	2.187281	-0.143562	-1.229563	1
Es	0.088545	0.840551	0.340543	99
Es	0.070791	-1.404358	-0.797685	99
Es	-2.043953	-0.817906	0.336497	99
Es	-0.130628	1.257773	0.930308	99
Es	2.076679	0.030834	-0.952768	99
Es	0.046301	-0.296908	-0.234844	99
Es	0.053857	0.753185	-0.900149	99
Es	0.318284	0.424269	-0.270734	99
Es	2.144250	0.094446	0.261445	99
Es	-0.211176	-1.018715	-0.213536	99
Es	-1.937635	-1.830753	-0.314717	99
Es	0.032996	-1.355229	0.418081	99
Es	1.846716	0.413988	-0.350404	99
Es	2.112775	1.113257	-0.404497	99
Es	0.078399	0.932476	1.574938	99
Es	-0.978027	-1.057606	-0.240645	99
Es	-0.871988	1.340690	0.938658	99
Es	-1.729121	-1.113073	-0.273524	99
Es	-1.994430	-0.754029	-0.877690	99
Es	0.172892	1.941381	0.901862	99
Es	1.092850	0.417330	-0.307255	99
38
Properties=species:S:1:pos:R:3:Z:I:1 energy=-196.40193774007383 field_type=dipole dipole="0.000000 0.000000 0.000000" charge=0
C	-1.729139	-1.113072	-0.273524	6
C	-0.211139	-1.018732	-0.213534	6
C	0.318261	0.424278	-0.270774	6
C	-0.130629	1.257778	0.930316	6
C	1.846721	0.413988	-0.350404	6
H	-2.037509	-2.162112	-0.334314	1
H	-2.121289	-0.593812	-1.153903	1
H	-2.194659	-0.684672	0.619046	1
H	0.198701	-1.584893	-1.059134	1
H	0.142681	-1.514722	0.698466	1
H	-0.062059	0.903297	-1.181834	1
H	0.171491	0.790097	1.873576	1
H	-1.217479	1.383398	0.944166	1
H	0.310581	2.260007	0.894146	1
H	2.288391	-0.050542	0.538046	1
H	2.239801	1.433278	-0.430784	1
H	2.187281	-0.143562	-1.229563	1
Es	2.076724	0.030860	-0.952809	99
Es	2.144310	0.094493	0.261453	99
Es	0.172803	1.941323	0.901869	99
Es	-0.211176	-1.018715	-0.213535	99
Es	0.078410	0.932480	1.575028	99
Es	0.033056	-1.355248	0.418097	99
Es	-1.937569	-1.830732	-0.314665	99
Es	0.070731	-1.404340	-0.797710	99
Es	1.846715	0.413988	-0.350405	99
Es	0.318284	0.424269	-0.270735	99
Es	1.092795	0.417276	-0.307209	99
Es	-1.994435	-0.753988	-0.877808	99
Es	-0.871914	1.340731	0.938652	99
Es	0.046249	-0.297005	-0.234775	99
Es	-0.978102	-1.057642	-0.240571	99
Es	-0.130628	1.257773	0.930309	99
Es	2.112653	1.113268	-0.404488	99
Es	-1.729121	-1.113073	-0.273524	99
Es	0.088644	0.840591	0.340363	99
Es	-2.043911	-0.817929	0.336527	99
Es	0.053859	0.753224	-0.900181	99
38
Properties=species:S:1:pos:R:3:Z:I:1 energy=-196.40193774007383 field_type=dipole dipole="0.000000 0.000000 0.000000" charge=0
C	-1.729139	-1.113072	-0.273524	6
C	-0.211139	-1.018732	-0.213534	6
C	0.318261	0.424278	-0.270774	6
C	-0.130629	1.257778	0.930316	6
C	1.846721	0.413988	-0.350404	6
H	-2.037509	-2.162112	-0.334314	1
H	-2.121289	-0.593812	-1.153903	1
H	-2.194659	-0.684672	0.619046	1
H	0.198701	-1.584893	-1.059134	1
H	0.142681	-1.514722	0.698466	1
H	-0.062059	0.903297	-1.181834	1
H	0.171491	0.790097	1.873576	1
H	-1.217479	1.383398	0.944166	1
H	0.310581	2.260007	0.894146	1
H	2.288391	-0.050542	0.538046	1
H	2.239801	1.433278	-0.430784	1
H	2.187281	-0.143562	-1.229563	1
Es	2.076620	0.030898	-0.952828	99
Es	2.144325	0.094411	0.261649	99
Es	-0.978056	-1.057576	-0.240622	99
Es	-2.043920	-0.817871	0.336489	99
Es	0.070680	-1.404292	-0.797693	99
Es	0.033093	-1.355296	0.418163	99
Es	0.046302	-0.297006	-0.234825	99
Es	0.172860	1.941342	0.901825	99
Es	0.078350	0.932494	1.575051	99
Es	-0.211176	-1.018715	-0.213536	99
Es	-0.130627	1.257773	0.930308	99
Es	1.846716	0.413988	-0.350404	99
Es	-0.871826	1.340792	0.938678	99
Es	-1.937598	-1.830821	-0.314680	99
Es	-1.729121	-1.113073	-0.273524	99
Es	0.318284	0.424270	-0.270734	99
Es	0.088534	0.840476	0.340387	99
Es	-1.994402	-0.754015	-0.877738	99
Es	0.053827	0.753212	-0.900214	99
Es	2.112636	1.113172	-0.404579	99
Es	1.092878	0.417441	-0.307290	99
38
Properties=species:S:1:pos:R:3:Z:I:1 energy=-196.40193774007383 field_type=dipole dipole="0.000000 0.000000 0.000000" charge=0
C	-1.729139	-1.113072	-0.273524	6
C	-0.211139	-1.018732	-0.213534	6
C	0.318261	0.424278	-0.270774	6
C	-0.130629	1.257778	0.930316	6
C	1.846721	0.413988	-0.350404	6
H	-2.037509	-2.162112	-0.334314	1
H	-2.121289	-0.593812	-1.153903	1
H	-2.194659	-0.684672	0.619046	1
H	0.198701	-1.584893	-1.059134	1
H	0.142681	-1.514722	0.698466	1
H	-0.062059	0.903297	-1.181834	1
H	0.171491	0.790097	1.873576	1
H	-1.217479	1.383398	0.944166	1
H	0.310581	2.260007	0.894146	1
H	2.288391	-0.050542	0.538046	1
H	2.239801	1.433278	-0.430784	1
H	2.187281	-0.143562	-1.229563	1
Es	2.076585	0.030929	-0.952900	99
Es	-1.729121	-1.113073	-0.273524	99
Es	-0.978142	-1.057546	-0.240638	99
Es	1.846716	0.413988	-0.350405	99
Es	0.318284	0.424269	-0.270734	99
Es	2.112592	1.113177	-0.404540	99
Es	-2.043817	-0.817885	0.336534	99
Es	0.053851	0.753170	-0.900300	99
Es	0.172815	1.941369	0.901897	99
Es	0.078362	0.932415	1.575038	99
Es	0.046201	-0.297094	-0.234706	99
Es	-0.130629	1.257772	0.930308	99
Es	2.144299	0.094347	0.261704	99
Es	-0.871863	1.340721	0.938607	99
Es	0.088613	0.840653	0.340285	99
Es	-1.937602	-1.830900	-0.314712	99
Es	1.092977	0.417464	-0.307233	99
Es	0.070690	-1.404274	-0.797789	99
Es	-0.211176	-1.018715	-0.213536	99
Es	0.033106	-1.355291	0.418267	99
Es	-1.994362	-0.753892	-0.877740	99
38
Properties=species:S:1:pos:R:3:Z:I:1 energy=-196.40193774007383 field_type=dipole dipole="0.000000 0.000000 0.000000" charge=0
C	-1.729139	-1.113072	-0.273524	6
C	-0.211139	-1.018732	-0.213534	6
C	0.318261	0.424278	-0.270774	6
C	-0.130629	1.257778	0.930316	6
C	1.846721	0.413988	-0.350404	6
H	-2.037509	-2.162112	-0.334314	1
H	-2.121289	-0.593812	-1.153903	1
H	-2.194659	-0.684672	0.619046	1
H	0.198701	-1.584893	-1.059134	1
H	0.142681	-1.514722	0.698466	1
H	-0.062059	0.903297	-1.181834	1
H	0.171491	0.790097	1.873576	1
H	-1.217479	1.383398	0.944166	1
H	0.310581	2.260007	0.894146	1
H	2.288391	-0.050542	0.538046	1
H	2.239801	1.433278	-0.430784	1
H	2.187281	-0.143562	-1.229563	1
Es	0.046251	-0.296994	-0.234799	99
Es	2.144270	0.094360	0.261626	99
Es	-0.130627	1.257772	0.930308	99
Es	-0.978271	-1.057636	-0.240488	99
Es	0.172803	1.941252	0.901832	99
Es	-2.043802	-0.817973	0.336524	99
Es	1.846715	0.413988	-0.350404	99
Es	-1.937431	-1.830840	-0.314577	99
Es	0.088601	0.840649	0.340399	99
Es	-1.994406	-0.753847	-0.877995	99
Es	0.318285	0.424268	-0.270732	99
Es	0.033068	-1.355293	0.418178	99
Es	0.078414	0.932414	1.575133	99
Es	-0.871846	1.340832	0.938615	99
Es	2.076541	0.030856	-0.952834	99
Es	1.092856	0.417454	-0.307288	99
Es	-0.211176	-1.018716	-0.213536	99
Es	2.112706	1.113218	-0.404574	99
Es	0.070692	-1.404312	-0.797744	99
Es	-1.729121	-1.113073	-0.273524	99
Es	0.053854	0.753226	-0.900237	99
38
Properties=species:S:1:pos:R:3:Z:I:1 energy=-196.40193774007383 field_type=dipole dipole="0.000000 0.000000 0.000000" charge=0
C	-1.729139	-1.113072	-0.273524	6
C	-0.211139	-1.018732	-0.213534	6
C	0.318261	0.424278	-0.270774	6
C	-0.130629	1.257778	0.930316	6
C	1.846721	0.413988	-0.350404	6
H	-2.037509	-2.162112	-0.334314	1
H	-2.121289	-0.593812	-1.153903	1
H	-2.194659	-0.684672	0.619046	1
H	0.198701	-1.584893	-1.059134	1
H	0.142681	-1.514722	0.698466	1
H	-0.062059	0.903297	-1.181834	1
H	0.171491	0.790097	1.873576	1
H	-1.217479	1.383398	0.944166	1
H	0.310581	2.260007	0.894146	1
H	2.288391	-0.050542	0.538046	1
H	2.239801	1.433278	-0.430784	1
H	2.187281	-0.143562	-1.229563	1
Es	0.172748	1.941234	0.901792	99
Es	-1.937529	-1.830928	-0.314585	99
Es	-1.994425	-0.753787	-0.877889	99
Es	0.053838	0.753245	-0.900263	99
Es	0.046322	-0.297037	-0.234810	99
Es	2.144258	0.094332	0.261723	99
Es	0.318284	0.424269	-0.270734	99
Es	-2.043683	-0.817944	0.336504	99
Es	-0.211176	-1.018715	-0.213536	99
Es	-0.130627	1.257772	0.930308	99
Es	0.088646	0.840620	0.340430	99
Es	0.033030	-1.355304	0.418225	99
Es	-0.978247	-1.057578	-0.240600	99
Es	0.070679	-1.404332	-0.797740	99
Es	-0.871854	1.340810	0.938592	99
Es	-1.729121	-1.113072	-0.273525	99
Es	2.076764	0.031038	-0.952926	99
Es	1.846716	0.413988	-0.350403	99
Es	2.112420	1.113260	-0.404415	99
Es	1.092897	0.417269	-0.307442	99
Es	0.078440	0.932464	1.575177	99
38
Properties=species:S:1:pos:R:3:Z:I:1 energy=-196.40193774007383 field_type=dipole dipole="0.000000 0.000000 0.000000" charge=0
C	-1.729139	-1.113072	-0.273524	6
C	-0.211139	-1.018732	-0.213534	6
C	0.318261	0.424278	-0.270774	6
C	-0.130629	1.257778	0.930316	6
C	1.846721	0.413988	-0.350404	6
H	-2.037509	-2.162112	-0.334314	1
H	-2.121289	-0.593812	-1.153903	1
H	-2.194659	-0.684672	0.619046	1
H	0.198701	-1.584893	-1.059134	1
H	0.142681	-1.514722	0.698466	1
H	-0.062059	0.903297	-1.181834	1
H	0.171491	0.790097	1.873576	1
H	-1.217479	1.383398	0.944166	1
H	0.310581	2.260007	0.894146	1
H	2.288391	-0.050542	0.538046	1
H	2.239801	1.433278	-0.430784	1
H	2.187281	-0.143562	-1.229563	1
Es	2.144330	0.094341	0.261712	99
Es	2.076502	0.030895	-0.952822	99
Es	-2.043650	-0.817887	0.336509	99
Es	-0.871844	1.341057	0.938647	99
Es	0.318284	0.424269	-0.270735	99
Es	0.070583	-1.404094	-0.797904	99
Es	0.053972	0.753321	-0.900318	99
Es	0.078407	0.932456	1.575196	99
Es	2.112612	1.113243	-0.404643	99
Es	-1.994461	-0.753851	-0.877981	99
Es	0.046136	-0.296954	-0.234778	99
Es	0.033220	-1.355492	0.418139	99
Es	-1.937490	-1.830902	-0.314474	99
Es	1.846716	0.413988	-0.350404	99
Es	-0.130628	1.257774	0.930310	99
Es	0.088405	0.840472	0.340402	99
Es	-1.729122	-1.113073	-0.273524	99
Es	0.172918	1.941086	0.901745	99
Es	-0.978196	-1.057730	-0.240507	99
Es	-0.211175	-1.018716	-0.213537	99
Es	1.092859	0.417403	-0.307151	99
38
Properties=species:S:1:pos:R:3:Z:I:1 energy=-196.40193774007383 field_type=dipole dipole="0.000000 0.000000 0.000000" charge=0
C	-1.729139	-1.113072	-0.273524	6
C	-0.211139	-1.018732	-0.213534	6
C	0.318261	0.424278	-0.270774	6
C	-0.130629	1.257778	0.930316	6
C	1.846721	0.413988	-0.350404	6
H	-2.037509	-2.162112	-0.334314	1
H	-2.121289	-0.593812	-1.153903	1
H	-2.194659	-0.684672	0.619046	1
H	0.198701	-1.584893	-1.059134	1
H	0.142681	-1.514722	0.698466	1
H	-0.062059	0.903297	-1.181834	1
H	0.171491	0.790097	1.873576	1
H	-1.217479	1.383398	0.944166	1
H	0.310581	2.260007	0.894146	1
H	2.288391	-0.050542	0.538046	1
H	2.239801	1.433278	-0.430784	1
H	2.187281	-0.143562	-1.229563	1
Es	0.033097	-1.355365	0.418230	99
Es	0.088583	0.840617	0.340387	99
Es	-0.130629	1.257775	0.930310	99
Es	0.070613	-1.404275	-0.797812	99
Es	0.078459	0.932421	1.575213	99
Es	2.144330	0.094291	0.261722	99
Es	1.092881	0.417445	-0.307256	99
Es	-0.211176	-1.018714	-0.213536	99
Es	-1.729120	-1.113072	-0.273524	99
Es	-2.043674	-0.817989	0.336519	99
Es	-1.937458	-1.830943	-0.314582	99
Es	2.076478	0.030931	-0.952872	99
Es	2.112592	1.113239	-0.404604	99
Es	1.846716	0.413988	-0.350404	99
Es	0.053847	0.753270	-0.900325	99
Es	-1.994396	-0.753719	-0.877977	99
Es	-0.978269	-1.057635	-0.240474	99
Es	0.318284	0.424269	-0.270733	99
Es	0.172779	1.941131	0.901792	99
Es	0.046282	-0.296992	-0.234797	99
Es	-0.871842	1.340931	0.938607	99
38
Properties=species:S:1:pos:R:3:Z:I:1 energy=-196.40193774007383 field_type=dipole dipole="0.000000 0.000000 0.000000" charge=0
C	-1.729139	-1.113072	-0.273524	6
C	-0.211139	-1.018732	-0.213534	6
C	0.318261	0.424278	-0.270774	6
C	-0.130629	1.257778	0.930316	6
C	1.846721	0.413988	-0.350404	6
H	-2.037509	-2.162112	-0.334314	1
H	-2.121289	-0.593812	-1.153903	1
H	-2.194659	-0.684672	0.619046	1
H	0.198701	-1.584893	-1.059134	1
H	0.142681	-1.514722	0.698466	1
H	-0.062059	0.903297	-1.181834	1
H	0.171491	0.790097	1.873576	1
H	-1.217479	1.383398	0.944166	1
H	0.310581	2.260007	0.894146	1
H	2.288391	-0.050542	0.538046	1
H	2.239801	1.433278	-0.430784	1
H	2.187281	-0.143562	-1.229563	1
Es	0.046294	-0.296990	-0.234793	99
Es	2.144327	0.094293	0.261769	99
Es	0.033085	-1.355379	0.418260	99
Es	-0.871837	1.340868	0.938593	99
Es	-2.043617	-0.818006	0.336527	99
Es	0.172698	1.941153	0.901792	99
Es	-1.729121	-1.113072	-0.273524	99
Es	0.088642	0.840612	0.340394	99
Es	1.846716	0.413988	-0.350405	99
Es	0.070632	-1.404255	-0.797800	99
Es	2.076485	0.030937	-0.952845	99
Es	0.078469	0.932471	1.575233	99
Es	1.092895	0.417404	-0.307289	99
Es	-1.994449	-0.753699	-0.877999	99
Es	-0.978302	-1.057616	-0.240543	99
Es	-0.130627	1.257773	0.930308	99
Es	0.053847	0.753267	-0.900350	99
Es	-0.211176	-1.018716	-0.213536	99
Es	-1.937418	-1.830964	-0.314542	99
Es	2.112551	1.113268	-0.404635	99
Es	0.318284	0.424269	-0.270734	99
38
Properties=species:S:1:pos:R:3:Z:I:1 energy=-196.40193774007383 field_type=dipole dipole="0.000000 0.000000 0.000000" charge=0
C	-1.729139	-1.113072	-0.273524	6
C	-0.211139	-1.018732	-0.213534	6
C	0.318261	0.424278	-0.270774	6
C	-0.130629	1.257778	0.930316	6
C	1.846721	0.413988	-0.350404	6
H	-2.037509	-2.162112	-0.334314	1
H	-2.121289	-0.593812	-1.153903	1
H	-2.194659	-0.684672	0.619046	1
H	0.198701	-1.584893	-1.059134	1
H	0.142681	-1.514722	0.698466	1
H	-0.062059	0.903297	-1.181834	1
H	0.171491	0.790097	1.873576	1
H	-1.217479	1.383398	0.944166	1
H	0.310581	2.260007	0.894146	1
H	2.288391	-0.050542	0.538046	1
H	2.239801	1.433278	-0.430784	1
H	2.187281	-0.143562	-1.229563	1
Es	0.318284	0.424269	-0.270734	99
Es	-0.871787	1.340877	0.938555	99
Es	-0.978407	-1.057635	-0.240485	99
Es	0.053773	0.753306	-0.900540	99
Es	-0.130627	1.257773	0.930308	99
Es	0.070610	-1.404273	-0.797768	99
Es	0.078451	0.932463	1.575297	99
Es	1.092850	0.417339	-0.307179	99
Es	0.046447	-0.296840	-0.234683	99
Es	2.076515	0.030911	-0.952879	99
Es	-1.729121	-1.113072	-0.273524	99
Es	0.172678	1.941155	0.901762	99
Es	0.088667	0.840527	0.340402	99
Es	-0.211176	-1.018715	-0.213535	99
Es	2.144273	0.094294	0.261724	99
Es	1.846715	0.413988	-0.350404	99
Es	-1.994425	-0.753678	-0.877998	99
Es	-1.937411	-1.831004	-0.314550	99
Es	2.112566	1.113293	-0.404572	99
Es	0.033101	-1.355379	0.418159	99
Es	-2.043599	-0.817995	0.336527	99
38
Properties=species:S:1:pos:R:3:Z:I:1 energy=-196.40193774007383 field_type=dipole dipole="0.000000 0.000000 0.000000" charge=0
C	-1.729139	-1.113072	-0.273524	6
C	-0.211139	-1.018732	-0.213534	6
C	0.318261	0.424278	-0.270774	6
C	-0.130629	1.257778	0.930316	6
C	1.846721	0.413988	-0.350404	6
H	-2.037509	-2.162112	-0.334314	1
H	-2.121289	-0.593812	-1.153903	1
H	-2.194659	-0.684672	0.619046	1
H	0.198701	-1.584893	-1.059134	1
H	0.142681	-1.514722	0.698466	1
H	-0.062059	0.903297	-1.181834	1
H	0.171491	0.790097	1.873576	1
H	-1.217479	1.383398	0.944166	1
H	0.310581	2.260007	0.894146	1
H	2.288391	-0.050542	0.538046	1
H	2.239801	1.433278	-0.430784	1
H	2.187281	-0.143562	-1.229563	1
Es	0.088671	0.840634	0.340415	99
Es	2.112538	1.113272	-0.404638	99
Es	0.078534	0.932481	1.575268	99
Es	0.046254	-0.297054	-0.234762	99
Es	-1.729122	-1.113073	-0.273524	99
Es	1.092898	0.417433	-0.307274	99
Es	0.070630	-1.404214	-0.797845	99
Es	-0.130629	1.257772	0.930308	99
Es	0.172683	1.941099	0.901740	99
Es	0.033159	-1.355370	0.418276	99
Es	0.053829	0.753286	-0.900380	99
Es	2.144328	0.094267	0.261786	99
Es	0.318284	0.424270	-0.270734	99
Es	-0.211181	-1.018717	-0.213537	99
Es	1.846710	0.413987	-0.350406	99
Es	-1.937403	-1.831051	-0.314523	99
Es	-0.978418	-1.057623	-0.240505	99
Es	2.076442	0.030935	-0.952879	99
Es	-0.871869	1.340894	0.938595	99
Es	-2.043530	-0.818004	0.336523	99
Es	-1.994431	-0.753621	-0.878019	99
38
Properties=species:S:1:pos:R:3:Z:I:1 energy=-196.40193774007383 field_type=dipole dipole="0.000000 0.000000 0.000000" charge=0
C	-1.729139	-1.113072	-0.273524	6
C	-0.211139	-1.018732	-0.213534	6
C	0.318261	0.424278	-0.270774	6
C	-0.130629	1.257778	0.930316	6
C	1.846721	0.413988	-0.350404	6
H	-2.037509	-2.162112	-0.334314	1
H	-2.121289	-0.593812	-1.153903	1
H	-2.194659	-0.684672	0.619046	1
H	0.198701	-1.584893	-1.059134	1
H	0.142681	-1.514722	0.698466	1
H	-0.062059	0.903297	-1.181834	1
H	0.171491	0.790097	1.873576	1
H	-1.217479	1.383398	0.944166	1
H	0.310581	2.260007	0.894146	1
H	2.288391	-0.050542	0.538046	1
H	2.239801	1.433278	-0.430784	1
H	2.187281	-0.143562	-1.229563	1
Es	2.144328	0.094154	0.261752	99
Es	1.846715	0.413985	-0.350409	99
Es	-1.729121	-1.113072	-0.273524	99
Es	0.033167	-1.355373	0.418283	99
Es	-0.978352	-1.057366	-0.240048	99
Es	1.092871	0.417444	-0.307201	99
Es	0.053901	0.753277	-0.900435	99
Es	0.078478	0.932522	1.575311	99
Es	2.112570	1.113259	-0.404550	99
Es	0.070379	-1.404382	-0.797902	99
Es	0.172699	1.941086	0.901714	99
Es	-0.871838	1.340926	0.938562	99
Es	-2.043765	-0.818099	0.336416	99
Es	2.076441	0.031044	-0.952897	99
Es	-0.211177	-1.018714	-0.213536	99
Es	0.088581	0.840563	0.340414	99
Es	0.046424	-0.297038	-0.234923	99
Es	-1.937299	-1.831053	-0.314592	99
Es	-1.994280	-0.753601	-0.878126	99
Es	0.318284	0.424270	-0.270734	99
Es	-0.130628	1.257773	0.930309	99
38
Properties=species:S:1:pos:R:3:Z:I:1 energy=-196.40193774007383 field_type=dipole dipole="0.000000 0.000000 0.000000" charge=0
C	-1.729139	-1.113072	-0.273524	6
C	-0.211139	-1.018732	-0.213534	6
C	0.318261	0.424278	-0.270774	6
C	-0.130629	1.257778	0.930316	6
C	1.846721	0.413988	-0.350404	6
H	-2.037509	-2.162112	-0.334314	1
H	-2.121289	-0.593812	-1.153903	1
H	-2.194659	-0.684672	0.619046	1
H	0.198701	-1.584893	-1.059134	1
H	0.142681	-1.514722	0.698466	1
H	-0.062059	0.903297	-1.181834	1
H	0.171491	0.790097	1.873576	1
H	-1.217479	1.383398	0.944166	1
H	0.310581	2.260007	0.894146	1
H	2.288391	-0.050542	0.538046	1
H	2.239801	1.433278	-0.430784	1
H	2.187281	-0.143562	-1.229563	1
Es	1.846716	0.413988	-0.350404	99
Es	1.092887	0.417383	-0.307338	99
Es	0.053846	0.753310	-0.900410	99
Es	-1.994433	-0.753514	-0.878022	99
Es	-0.130628	1.257773	0.930309	99
Es	-1.937523	-1.831022	-0.314503	99
Es	0.070421	-1.404374	-0.797866	99
Es	-0.978325	-1.057569	-0.240424	99
Es	-2.043402	-0.818014	0.336520	99
Es	-0.871855	1.340952	0.938607	99
Es	2.144304	0.094213	0.261836	99
Es	0.078519	0.932465	1.575269	99
Es	2.076501	0.031016	-0.952884	99
Es	0.318284	0.424269	-0.270733	99
Es	0.088648	0.840619	0.340384	99
Es	0.172689	1.941055	0.901779	99
Es	0.033099	-1.355398	0.418300	99
Es	0.046442	-0.297032	-0.234887	99
Es	-1.729123	-1.113073	-0.273524	99
Es	-0.211176	-1.018714	-0.213537	99
Es	2.112487	1.113271	-0.404588	99
