33
Properties=species:S:1:pos:R:3:Z:I:1 energy=-231.04988719497874 field_type=dipole dipole="0.000000 0.000000 0.000000" charge=0
C	-1.449721	-0.243355	-0.112335	6
C	0.051899	-0.296485	-0.131485	6
C	0.719949	-1.458135	-0.020365	6
C	0.758008	1.018865	-0.303145	6
O	0.505779	1.835325	0.829655	8
H	-1.802501	0.354685	0.733925	1
H	-1.894791	-1.240025	-0.022745	1
H	-1.825391	0.205795	-1.037465	1
H	0.198399	-2.403745	0.094815	1
H	1.804929	-1.496295	-0.043405	1
H	0.397779	1.537595	-1.197205	1
H	1.841798	0.897085	-0.401815	1
H	0.693869	1.288685	1.611565	1
Es	0.392494	-0.927611	-0.396360	99
Es	0.597055	1.503521	0.406323	99
Es	0.051826	-0.296381	-0.131493	99
Es	0.370334	1.851464	0.831347	99
Es	-0.696560	-0.269111	-0.118699	99
Es	-1.691634	0.063116	-0.739408	99
Es	0.369322	-2.103014	0.059299	99
Es	-1.449674	-0.243356	-0.112341	99
Es	0.605397	1.524362	1.244462	99
Es	0.403891	0.349125	-0.222088	99
Es	0.720002	-1.458220	-0.020358	99
Es	0.757933	1.018956	-0.302951	99
Es	-1.677874	0.157948	0.455858	99
Es	0.504839	1.365952	-0.910840	99
Es	0.694363	2.089856	0.823176	99
Es	1.458203	-1.487388	-0.035434	99
Es	-1.745034	-0.923926	-0.051661	99
Es	1.504180	0.921027	-0.374305	99
Es	0.374080	1.841649	0.831009	99
Es	0.411896	-0.850762	0.259459	99
33
Properties=species:S:1:pos:R:3:Z:I:1 energy=-231.04988719497874 field_type=dipole dipole="0.000000 0.000000 0.000000" charge=0
C	-1.449721	-0.243355	-0.112335	6
C	0.051899	-0.296485	-0.131485	6
C	0.719949	-1.458135	-0.020365	6
C	0.758008	1.018865	-0.303145	6
O	0.505779	1.835325	0.829655	8
H	-1.802501	0.354685	0.733925	1
H	-1.894791	-1.240025	-0.022745	1
H	-1.825391	0.205795	-1.037465	1
H	0.198399	-2.403745	0.094815	1
H	1.804929	-1.496295	-0.043405	1
H	0.397779	1.537595	-1.197205	1
H	1.841798	0.897085	-0.401815	1
H	0.693869	1.288685	1.611565	1
Es	-1.449674	-0.243355	-0.112341	99
Es	-0.696787	-0.268670	-0.118739	99
Es	0.757932	1.018958	-0.302952	99
Es	-1.677341	0.157730	0.456276	99
Es	0.710496	2.051618	0.822059	99
Es	0.720003	-1.458219	-0.020353	99
Es	1.457552	-1.487623	-0.035063	99
Es	-1.744462	-0.923976	-0.051468	99
Es	0.618216	1.526212	1.239050	99
Es	0.392333	-0.928060	-0.398540	99
Es	0.505841	1.834994	0.829672	99
Es	-1.691768	0.063577	-0.740198	99
Es	0.199746	1.891915	0.833427	99
Es	1.503520	0.920686	-0.373643	99
Es	0.504692	1.366206	-0.912004	99
Es	0.606975	1.506006	0.412036	99
Es	0.412094	-0.850585	0.261488	99
Es	0.369925	-2.102869	0.059700	99
Es	0.051827	-0.296380	-0.131498	99
Es	0.403921	0.349042	-0.221914	99
33
Properties=species:S:1:pos:R:3:Z:I:1 energy=-231.04988719497874 field_type=dipole dipole="0.000000 0.000000 0.000000" charge=0
C	-1.449721	-0.243355	-0.112335	6
C	0.051899	-0.296485	-0.131485	6
C	0.719949	-1.458135	-0.020365	6
C	0.758008	1.018865	-0.303145	6
O	0.505779	1.835325	0.829655	8
H	-1.802501	0.354685	0.733925	1
H	-1.894791	-1.240025	-0.022745	1
H	-1.825391	0.205795	-1.037465	1
H	0.198399	-2.403745	0.094815	1
H	1.804929	-1.496295	-0.043405	1
H	0.397779	1.537595	-1.197205	1
H	1.841798	0.897085	-0.401815	1
H	0.693869	1.288685	1.611565	1
Es	1.502995	0.920549	-0.373117	99
Es	-1.676767	0.157612	0.456501	99
Es	0.717610	2.025727	0.822010	99
Es	0.198227	1.919858	0.832305	99
Es	-1.449674	-0.243356	-0.112341	99
Es	0.720002	-1.458219	-0.020351	99
Es	0.604018	1.505765	0.412366	99
Es	0.615382	1.524394	1.239703	99
Es	0.392295	-0.928352	-0.399935	99
Es	0.370297	-2.103080	0.060038	99
Es	-1.744086	-0.924517	-0.051399	99
Es	0.051824	-0.296379	-0.131501	99
Es	0.506045	1.834994	0.829645	99
Es	1.456879	-1.487569	-0.034834	99
Es	0.757933	1.018956	-0.302952	99
Es	-0.696990	-0.268330	-0.118806	99
Es	0.504817	1.366406	-0.912712	99
Es	0.412175	-0.850512	0.262389	99
Es	0.403835	0.349206	-0.221580	99
Es	-1.691780	0.064056	-0.740434	99
33
Properties=species:S:1:pos:R:3:Z:I:1 energy=-231.04988719497874 field_type=dipole dipole="0.000000 0.000000 0.000000" charge=0
C	-1.449721	-0.243355	-0.112335	6
C	0.051899	-0.296485	-0.131485	6
C	0.719949	-1.458135	-0.020365	6
C	0.758008	1.018865	-0.303145	6
O	0.505779	1.835325	0.829655	8
H	-1.802501	0.354685	0.733925	1
H	-1.894791	-1.240025	-0.022745	1
H	-1.825391	0.205795	-1.037465	1
H	0.198399	-2.403745	0.094815	1
H	1.804929	-1.496295	-0.043405	1
H	0.397779	1.537595	-1.197205	1
H	1.841798	0.897085	-0.401815	1
H	0.693869	1.288685	1.611565	1
Es	0.600679	1.505171	0.412601	99
Es	0.720003	-1.458221	-0.020354	99
Es	0.505161	1.366560	-0.912905	99
Es	0.392243	-0.928500	-0.400095	99
Es	1.456397	-1.487180	-0.034717	99
Es	0.505943	1.834978	0.829650	99
Es	-1.691608	0.064677	-0.740258	99
Es	-1.744172	-0.925536	-0.051218	99
Es	1.502526	0.920819	-0.372887	99
Es	0.612350	1.523092	1.240398	99
Es	0.717779	1.985819	0.822237	99
Es	-1.449675	-0.243355	-0.112341	99
Es	-0.696951	-0.267943	-0.118647	99
Es	-1.676206	0.157456	0.456003	99
Es	0.370355	-2.103668	0.060288	99
Es	0.051825	-0.296379	-0.131496	99
Es	0.403847	0.349270	-0.221465	99
Es	0.757933	1.018956	-0.302951	99
Es	0.412075	-0.850580	0.262262	99
Es	0.204534	1.961772	0.830890	99
33
Properties=species:S:1:pos:R:3:Z:I:1 energy=-231.04988719497874 field_type=dipole dipole="0.000000 0.000000 0.000000" charge=0
C	-1.449721	-0.243355	-0.112335	6
C	0.051899	-0.296485	-0.131485	6
C	0.719949	-1.458135	-0.020365	6
C	0.758008	1.018865	-0.303145	6
O	0.505779	1.835325	0.829655	8
H	-1.802501	0.354685	0.733925	1
H	-1.894791	-1.240025	-0.022745	1
H	-1.825391	0.205795	-1.037465	1
H	0.198399	-2.403745	0.094815	1
H	1.804929	-1.496295	-0.043405	1
H	0.397779	1.537595	-1.197205	1
H	1.841798	0.897085	-0.401815	1
H	0.693869	1.288685	1.611565	1
Es	-1.744310	-0.926085	-0.051070	99
Es	0.597858	1.504904	0.412986	99
Es	0.392284	-0.928402	-0.399585	99
Es	0.403841	0.349230	-0.221386	99
Es	-1.691715	0.065113	-0.739972	99
Es	0.505274	1.366772	-0.912887	99
Es	-1.449674	-0.243355	-0.112341	99
Es	-1.675809	0.157217	0.455579	99
Es	1.456262	-1.486829	-0.034662	99
Es	0.757934	1.018954	-0.302956	99
Es	0.370305	-2.104109	0.060293	99
Es	-0.697059	-0.267733	-0.118597	99
Es	0.720003	-1.458221	-0.020353	99
Es	0.610022	1.521691	1.240486	99
Es	0.710857	1.955244	0.822617	99
Es	0.506040	1.834985	0.829652	99
Es	0.412101	-0.850687	0.261729	99
Es	0.216547	1.993926	0.829699	99
Es	0.051825	-0.296376	-0.131494	99
Es	1.502453	0.920969	-0.372740	99
33
Properties=species:S:1:pos:R:3:Z:I:1 energy=-231.04988719497874 field_type=dipole dipole="0.000000 0.000000 0.000000" charge=0
C	-1.449721	-0.243355	-0.112335	6
C	0.051899	-0.296485	-0.131485	6
C	0.719949	-1.458135	-0.020365	6
C	0.758008	1.018865	-0.303145	6
O	0.505779	1.835325	0.829655	8
H	-1.802501	0.354685	0.733925	1
H	-1.894791	-1.240025	-0.022745	1
H	-1.825391	0.205795	-1.037465	1
H	0.198399	-2.403745	0.094815	1
H	1.804929	-1.496295	-0.043405	1
H	0.397779	1.537595	-1.197205	1
H	1.841798	0.897085	-0.401815	1
H	0.693869	1.288685	1.611565	1
Es	0.595636	1.504562	0.413647	99
Es	0.051824	-0.296378	-0.131497	99
Es	-1.675659	0.156959	0.454959	99
Es	0.720005	-1.458223	-0.020349	99
Es	0.757933	1.018956	-0.302953	99
Es	1.456471	-1.486657	-0.034605	99
Es	0.701683	1.931125	0.823176	99
Es	0.230685	2.019498	0.828343	99
Es	0.370143	-2.104225	0.060379	99
Es	0.505144	1.366789	-0.912697	99
Es	-1.449675	-0.243355	-0.112340	99
Es	-1.691793	0.065434	-0.739539	99
Es	0.392250	-0.928288	-0.399014	99
Es	-1.744728	-0.926370	-0.050988	99
Es	0.505766	1.834916	0.829662	99
Es	0.607520	1.520568	1.240331	99
Es	0.412101	-0.850860	0.261078	99
Es	0.403862	0.349258	-0.221302	99
Es	1.502701	0.921088	-0.372763	99
Es	-0.696829	-0.267589	-0.118531	99
33
Properties=species:S:1:pos:R:3:Z:I:1 energy=-231.04988719497874 field_type=dipole dipole="0.000000 0.000000 0.000000" charge=0
C	-1.449721	-0.243355	-0.112335	6
C	0.051899	-0.296485	-0.131485	6
C	0.719949	-1.458135	-0.020365	6
C	0.758008	1.018865	-0.303145	6
O	0.505779	1.835325	0.829655	8
H	-1.802501	0.354685	0.733925	1
H	-1.894791	-1.240025	-0.022745	1
H	-1.825391	0.205795	-1.037465	1
H	0.198399	-2.403745	0.094815	1
H	1.804929	-1.496295	-0.043405	1
H	0.397779	1.537595	-1.197205	1
H	1.841798	0.897085	-0.401815	1
H	0.693869	1.288685	1.611565	1
Es	1.502897	0.921042	-0.372746	99
Es	0.720004	-1.458224	-0.020352	99
Es	0.757934	1.018952	-0.302959	99
Es	0.370045	-2.104352	0.060365	99
Es	-1.449675	-0.243356	-0.112342	99
Es	1.456633	-1.486473	-0.034542	99
Es	0.505143	1.366882	-0.912532	99
Es	0.608184	1.519459	1.239968	99
Es	0.412010	-0.850971	0.260549	99
Es	0.392307	-0.928219	-0.398507	99
Es	0.240266	2.034209	0.827741	99
Es	-1.675606	0.156867	0.454483	99
Es	0.051824	-0.296377	-0.131494	99
Es	0.595699	1.505705	0.413905	99
Es	-1.744929	-0.926638	-0.050854	99
Es	-0.696774	-0.267327	-0.118541	99
Es	0.505725	1.834884	0.829670	99
Es	0.691440	1.916345	0.823650	99
Es	0.403782	0.349292	-0.221251	99
Es	-1.691869	0.065506	-0.739215	99
33
Properties=species:S:1:pos:R:3:Z:I:1 energy=-231.04988719497874 field_type=dipole dipole="0.000000 0.000000 0.000000" charge=0
C	-1.449721	-0.243355	-0.112335	6
C	0.051899	-0.296485	-0.131485	6
C	0.719949	-1.458135	-0.020365	6
C	0.758008	1.018865	-0.303145	6
O	0.505779	1.835325	0.829655	8
H	-1.802501	0.354685	0.733925	1
H	-1.894791	-1.240025	-0.022745	1
H	-1.825391	0.205795	-1.037465	1
H	0.198399	-2.403745	0.094815	1
H	1.804929	-1.496295	-0.043405	1
H	0.397779	1.537595	-1.197205	1
H	1.841798	0.897085	-0.401815	1
H	0.693869	1.288685	1.611565	1
Es	0.608962	1.519415	1.239893	99
Es	0.369878	-2.104276	0.060366	99
Es	0.596543	1.506068	0.414161	99
Es	-0.696543	-0.267244	-0.118491	99
Es	-1.449675	-0.243354	-0.112340	99
Es	0.412022	-0.851046	0.260089	99
Es	-1.692148	0.065992	-0.738745	99
Es	0.680493	1.904727	0.824164	99
Es	0.051824	-0.296378	-0.131495	99
Es	1.456916	-1.486466	-0.034546	99
Es	0.505058	1.366901	-0.912333	99
Es	0.506790	1.835092	0.829644	99
Es	0.403712	0.349286	-0.221247	99
Es	-1.745271	-0.926744	-0.050921	99
Es	0.248506	2.045235	0.826842	99
Es	0.392269	-0.928184	-0.398050	99
Es	0.720005	-1.458224	-0.020350	99
Es	1.503140	0.921093	-0.372771	99
Es	0.757933	1.018956	-0.302953	99
Es	-1.675375	0.156358	0.454079	99
33
Properties=species:S:1:pos:R:3:Z:I:1 energy=-231.04988719497874 field_type=dipole dipole="0.000000 0.000000 0.000000" charge=0
C	-1.449721	-0.243355	-0.112335	6
C	0.051899	-0.296485	-0.131485	6
C	0.719949	-1.458135	-0.020365	6
C	0.758008	1.018865	-0.303145	6
O	0.505779	1.835325	0.829655	8
H	-1.802501	0.354685	0.733925	1
H	-1.894791	-1.240025	-0.022745	1
H	-1.825391	0.205795	-1.037465	1
H	0.198399	-2.403745	0.094815	1
H	1.804929	-1.496295	-0.043405	1
H	0.397779	1.537595	-1.197205	1
H	1.841798	0.897085	-0.401815	1
H	0.693869	1.288685	1.611565	1
Es	0.609454	1.518895	1.239532	99
Es	-0.696479	-0.267065	-0.118509	99
Es	0.505033	1.366922	-0.912267	99
Es	0.051826	-0.296376	-0.131494	99
Es	0.369758	-2.104268	0.060260	99
Es	0.720005	-1.458224	-0.020350	99
Es	0.254471	2.052814	0.826198	99
Es	0.412040	-0.851101	0.259866	99
Es	0.505746	1.834903	0.829679	99
Es	0.596509	1.506594	0.414893	99
Es	-1.745413	-0.926833	-0.050835	99
Es	0.403656	0.349279	-0.221171	99
Es	0.392301	-0.928132	-0.397762	99
Es	-1.675262	0.156230	0.453805	99
Es	0.757933	1.018955	-0.302956	99
Es	0.675089	1.897291	0.824224	99
Es	-1.449676	-0.243355	-0.112341	99
Es	1.503284	0.921047	-0.372713	99
Es	1.457064	-1.486462	-0.034567	99
Es	-1.692299	0.066092	-0.738497	99
33
Properties=species:S:1:pos:R:3:Z:I:1 energy=-231.04988719497874 field_type=dipole dipole="0.000000 0.000000 0.000000" charge=0
C	-1.449721	-0.243355	-0.112335	6
C	0.051899	-0.296485	-0.131485	6
C	0.719949	-1.458135	-0.020365	6
C	0.758008	1.018865	-0.303145	6
O	0.505779	1.835325	0.829655	8
H	-1.802501	0.354685	0.733925	1
H	-1.894791	-1.240025	-0.022745	1
H	-1.825391	0.205795	-1.037465	1
H	0.198399	-2.403745	0.094815	1
H	1.804929	-1.496295	-0.043405	1
H	0.397779	1.537595	-1.197205	1
H	1.841798	0.897085	-0.401815	1
H	0.693869	1.288685	1.611565	1
Es	0.411992	-0.851083	0.259575	99
Es	0.369620	-2.104157	0.060234	99
Es	0.392385	-0.928159	-0.397532	99
Es	-1.692514	0.066334	-0.738209	99
Es	1.503418	0.921097	-0.372657	99
Es	-1.745589	-0.926839	-0.050861	99
Es	0.610413	1.517587	1.238848	99
Es	0.259881	2.058988	0.826159	99
Es	1.457284	-1.486526	-0.034639	99
Es	0.051823	-0.296378	-0.131497	99
Es	0.757934	1.018955	-0.302953	99
Es	0.720005	-1.458223	-0.020349	99
Es	0.505015	1.366756	-0.912227	99
Es	0.596643	1.508242	0.415052	99
Es	0.403621	0.349322	-0.220945	99
Es	0.505662	1.834845	0.829657	99
Es	0.668566	1.890940	0.824576	99
Es	-0.696323	-0.267081	-0.118504	99
Es	-1.449674	-0.243356	-0.112341	99
Es	-1.675125	0.155945	0.453609	99
33
Properties=species:S:1:pos:R:3:Z:I:1 energy=-231.04988719497874 field_type=dipole dipole="0.000000 0.000000 0.000000" charge=0
C	-1.449721	-0.243355	-0.112335	6
C	0.051899	-0.296485	-0.131485	6
C	0.719949	-1.458135	-0.020365	6
C	0.758008	1.018865	-0.303145	6
O	0.505779	1.835325	0.829655	8
H	-1.802501	0.354685	0.733925	1
H	-1.894791	-1.240025	-0.022745	1
H	-1.825391	0.205795	-1.037465	1
H	0.198399	-2.403745	0.094815	1
H	1.804929	-1.496295	-0.043405	1
H	0.397779	1.537595	-1.197205	1
H	1.841798	0.897085	-0.401815	1
H	0.693869	1.288685	1.611565	1
Es	0.369704	-2.104316	0.060203	99
Es	0.597897	1.508880	0.415506	99
Es	0.505545	1.834727	0.829669	99
Es	-1.745729	-0.927030	-0.050906	99
Es	0.504872	1.366832	-0.912028	99
Es	0.612180	1.517627	1.238580	99
Es	-0.696318	-0.266891	-0.118406	99
Es	1.503646	0.921008	-0.372739	99
Es	0.411865	-0.851149	0.259296	99
Es	0.051825	-0.296376	-0.131490	99
Es	0.720006	-1.458223	-0.020350	99
Es	1.457338	-1.486285	-0.034671	99
Es	-1.675003	0.155733	0.453362	99
Es	0.403526	0.349446	-0.220887	99
Es	0.263628	2.063304	0.825695	99
Es	-1.449674	-0.243355	-0.112341	99
Es	0.392355	-0.928214	-0.397312	99
Es	-1.692543	0.066589	-0.737964	99
Es	0.757933	1.018955	-0.302952	99
Es	0.661987	1.885944	0.824731	99
33
Properties=species:S:1:pos:R:3:Z:I:1 energy=-231.04988719497874 field_type=dipole dipole="0.000000 0.000000 0.000000" charge=0
C	-1.449721	-0.243355	-0.112335	6
C	0.051899	-0.296485	-0.131485	6
C	0.719949	-1.458135	-0.020365	6
C	0.758008	1.018865	-0.303145	6
O	0.505779	1.835325	0.829655	8
H	-1.802501	0.354685	0.733925	1
H	-1.894791	-1.240025	-0.022745	1
H	-1.825391	0.205795	-1.037465	1
H	0.198399	-2.403745	0.094815	1
H	1.804929	-1.496295	-0.043405	1
H	0.397779	1.537595	-1.197205	1
H	1.841798	0.897085	-0.401815	1
H	0.693869	1.288685	1.611565	1
Es	0.392290	-0.928180	-0.397058	99
Es	0.411959	-0.851178	0.259101	99
Es	-0.696212	-0.266713	-0.118379	99
Es	0.757931	1.018956	-0.302950	99
Es	0.051824	-0.296377	-0.131496	99
Es	0.505641	1.834797	0.829654	99
Es	0.720005	-1.458223	-0.020346	99
Es	-1.675054	0.155862	0.453039	99
Es	0.598232	1.509743	0.416001	99
Es	-1.745888	-0.927207	-0.050802	99
Es	-1.692488	0.066429	-0.737683	99
Es	0.403452	0.349416	-0.220843	99
Es	0.504929	1.366887	-0.911952	99
Es	0.267051	2.067159	0.825600	99
Es	1.503706	0.921054	-0.372685	99
Es	0.615383	1.517784	1.238323	99
Es	1.457464	-1.486331	-0.034806	99
Es	0.654905	1.880955	0.824426	99
Es	0.369584	-2.104268	0.060192	99
Es	-1.449676	-0.243356	-0.112341	99
33
Properties=species:S:1:pos:R:3:Z:I:1 energy=-231.04988719497874 field_type=dipole dipole="0.000000 0.000000 0.000000" charge=0
C	-1.449721	-0.243355	-0.112335	6
C	0.051899	-0.296485	-0.131485	6
C	0.719949	-1.458135	-0.020365	6
C	0.758008	1.018865	-0.303145	6
O	0.505779	1.835325	0.829655	8
H	-1.802501	0.354685	0.733925	1
H	-1.894791	-1.240025	-0.022745	1
H	-1.825391	0.205795	-1.037465	1
H	0.198399	-2.403745	0.094815	1
H	1.804929	-1.496295	-0.043405	1
H	0.397779	1.537595	-1.197205	1
H	1.841798	0.897085	-0.401815	1
H	0.693869	1.288685	1.611565	1
Es	0.504788	1.366774	-0.911813	99
Es	1.457756	-1.486436	-0.034776	99
Es	0.505604	1.834723	0.829680	99
Es	-1.675050	0.155513	0.452950	99
Es	-1.449675	-0.243355	-0.112341	99
Es	0.403504	0.349393	-0.220667	99
Es	0.648967	1.875625	0.825047	99
Es	0.598631	1.511447	0.416471	99
Es	0.757934	1.018955	-0.302955	99
Es	0.392430	-0.928200	-0.396826	99
Es	0.720006	-1.458224	-0.020351	99
Es	0.411789	-0.851197	0.258838	99
Es	1.503924	0.921073	-0.372743	99
Es	-1.745947	-0.927169	-0.050967	99
Es	0.272690	2.072569	0.825367	99
Es	-0.696157	-0.266572	-0.118303	99
Es	0.369428	-2.104089	0.060000	99
Es	0.615257	1.516074	1.237342	99
Es	0.051824	-0.296378	-0.131493	99
Es	-1.692663	0.066680	-0.737464	99
33
Properties=species:S:1:pos:R:3:Z:I:1 energy=-231.04988719497874 field_type=dipole dipole="0.000000 0.000000 0.000000" charge=0
C	-1.449721	-0.243355	-0.112335	6
C	0.051899	-0.296485	-0.131485	6
C	0.719949	-1.458135	-0.020365	6
C	0.758008	1.018865	-0.303145	6
O	0.505779	1.835325	0.829655	8
H	-1.802501	0.354685	0.733925	1
H	-1.894791	-1.240025	-0.022745	1
H	-1.825391	0.205795	-1.037465	1
H	0.198399	-2.403745	0.094815	1
H	1.804929	-1.496295	-0.043405	1
H	0.397779	1.537595	-1.197205	1
H	1.841798	0.897085	-0.401815	1
H	0.693869	1.288685	1.611565	1
Es	0.617128	1.516077	1.237114	99
Es	0.392338	-0.928154	-0.396609	99
Es	-1.674860	0.155414	0.452838	99
Es	0.757934	1.018954	-0.302955	99
Es	-1.692736	0.066840	-0.737229	99
Es	0.051824	-0.296378	-0.131497	99
Es	-1.746126	-0.927225	-0.050975	99
Es	0.403366	0.349504	-0.220663	99
Es	1.504051	0.920962	-0.372690	99
Es	0.643993	1.872535	0.825167	99
Es	-1.449673	-0.243354	-0.112339	99
Es	0.504802	1.366847	-0.911710	99
Es	0.720005	-1.458224	-0.020350	99
Es	-0.696097	-0.266552	-0.118321	99
Es	0.369423	-2.104181	0.059869	99
Es	0.505613	1.834783	0.829658	99
Es	1.457734	-1.486384	-0.034951	99
Es	0.274783	2.074705	0.825055	99
Es	0.411886	-0.851241	0.258831	99
Es	0.599651	1.512279	0.416751	99
33
Properties=species:S:1:pos:R:3:Z:I:1 energy=-231.04988719497874 field_type=dipole dipole="0.000000 0.000000 0.000000" charge=0
C	-1.449721	-0.243355	-0.112335	6
C	0.051899	-0.296485	-0.131485	6
C	0.719949	-1.458135	-0.020365	6
C	0.758008	1.018865	-0.303145	6
O	0.505779	1.835325	0.829655	8
H	-1.802501	0.354685	0.733925	1
H	-1.894791	-1.240025	-0.022745	1
H	-1.825391	0.205795	-1.037465	1
H	0.198399	-2.403745	0.094815	1
H	1.804929	-1.496295	-0.043405	1
H	0.397779	1.537595	-1.197205	1
H	1.841798	0.897085	-0.401815	1
H	0.693869	1.288685	1.611565	1
Es	0.640607	1.869716	0.824816	99
Es	-1.675057	0.155608	0.452841	99
Es	-1.746134	-0.927271	-0.051063	99
Es	0.598257	1.513565	0.417539	99
Es	0.051823	-0.296377	-0.131494	99
Es	1.504057	0.920998	-0.372677	99
Es	0.720005	-1.458224	-0.020352	99
Es	-0.696152	-0.266325	-0.118246	99
Es	0.277580	2.077326	0.825515	99
Es	0.392307	-0.928256	-0.396575	99
Es	0.369379	-2.104080	0.059928	99
Es	0.619005	1.514816	1.236102	99
Es	1.457860	-1.486445	-0.035109	99
Es	0.504744	1.366883	-0.911705	99
Es	0.403451	0.349330	-0.220499	99
Es	-1.692602	0.066614	-0.737077	99
Es	0.411910	-0.851172	0.258682	99
Es	0.757933	1.018955	-0.302955	99
Es	-1.449675	-0.243355	-0.112341	99
Es	0.505740	1.834900	0.829666	99
33
Properties=species:S:1:pos:R:3:Z:I:1 energy=-231.04988719497874 field_type=dipole dipole="0.000000 0.000000 0.000000" charge=0
C	-1.449721	-0.243355	-0.112335	6
C	0.051899	-0.296485	-0.131485	6
C	0.719949	-1.458135	-0.020365	6
C	0.758008	1.018865	-0.303145	6
O	0.505779	1.835325	0.829655	8
H	-1.802501	0.354685	0.733925	1
H	-1.894791	-1.240025	-0.022745	1
H	-1.825391	0.205795	-1.037465	1
H	0.198399	-2.403745	0.094815	1
H	1.804929	-1.496295	-0.043405	1
H	0.397779	1.537595	-1.197205	1
H	1.841798	0.897085	-0.401815	1
H	0.693869	1.288685	1.611565	1
Es	0.295011	2.091195	0.824424	99
Es	0.551955	1.841864	0.828203	99
Es	-0.695355	-0.266585	-0.118291	99
Es	0.392539	-0.927910	-0.394838	99
Es	0.561080	1.842939	0.828117	99
Es	0.504753	1.366456	-0.910871	99
Es	0.626610	1.517031	1.236500	99
Es	0.411736	-0.851445	0.257025	99
Es	1.504839	0.921099	-0.373048	99
Es	-1.747368	-0.926881	-0.051037	99
Es	-1.449675	-0.243355	-0.112340	99
Es	1.458693	-1.486339	-0.035010	99
Es	0.368765	-2.103911	0.059703	99
Es	0.720005	-1.458224	-0.020347	99
Es	0.403286	0.349397	-0.220566	99
Es	0.757934	1.018955	-0.302955	99
Es	-1.693180	0.067152	-0.735945	99
Es	0.606387	1.517504	0.416100	99
Es	0.051825	-0.296376	-0.131494	99
Es	-1.674801	0.154642	0.451665	99
33
Properties=species:S:1:pos:R:3:Z:I:1 energy=-231.04988719497874 field_type=dipole dipole="0.000000 0.000000 0.000000" charge=0
C	-1.449721	-0.243355	-0.112335	6
C	0.051899	-0.296485	-0.131485	6
C	0.719949	-1.458135	-0.020365	6
C	0.758008	1.018865	-0.303145	6
O	0.505779	1.835325	0.829655	8
H	-1.802501	0.354685	0.733925	1
H	-1.894791	-1.240025	-0.022745	1
H	-1.825391	0.205795	-1.037465	1
H	0.198399	-2.403745	0.094815	1
H	1.804929	-1.496295	-0.043405	1
H	0.397779	1.537595	-1.197205	1
H	1.841798	0.897085	-0.401815	1
H	0.693869	1.288685	1.611565	1
Es	-1.692632	0.066537	-0.736745	99
Es	0.598922	1.516629	0.418904	99
Es	0.631800	1.863492	0.825370	99
Es	-1.449676	-0.243355	-0.112340	99
Es	0.403180	0.349601	-0.220360	99
Es	-0.695937	-0.266197	-0.118276	99
Es	0.051823	-0.296376	-0.131492	99
Es	0.504696	1.366679	-0.911537	99
Es	0.283853	2.082811	0.825098	99
Es	0.720005	-1.458224	-0.020351	99
Es	0.369287	-2.103967	0.059653	99
Es	-1.746197	-0.927258	-0.051240	99
Es	1.504385	0.920771	-0.372676	99
Es	-1.675226	0.155567	0.452764	99
Es	0.757934	1.018954	-0.302956	99
Es	0.620813	1.512637	1.234482	99
Es	0.505693	1.834865	0.829665	99
Es	1.458067	-1.486518	-0.035194	99
Es	0.392407	-0.928215	-0.396419	99
Es	0.411840	-0.851225	0.258647	99
33
Properties=species:S:1:pos:R:3:Z:I:1 energy=-231.04988719497874 field_type=dipole dipole="0.000000 0.000000 0.000000" charge=0
C	-1.449721	-0.243355	-0.112335	6
C	0.051899	-0.296485	-0.131485	6
C	0.719949	-1.458135	-0.020365	6
C	0.758008	1.018865	-0.303145	6
O	0.505779	1.835325	0.829655	8
H	-1.802501	0.354685	0.733925	1
H	-1.894791	-1.240025	-0.022745	1
H	-1.825391	0.205795	-1.037465	1
H	0.198399	-2.403745	0.094815	1
H	1.804929	-1.496295	-0.043405	1
H	0.397779	1.537595	-1.197205	1
H	1.841798	0.897085	-0.401815	1
H	0.693869	1.288685	1.611565	1
Es	0.403106	0.349688	-0.220316	99
Es	-1.449677	-0.243355	-0.112340	99
Es	0.757934	1.018955	-0.302951	99
Es	-0.696012	-0.266073	-0.118275	99
Es	0.621928	1.512921	1.234235	99
Es	0.051826	-0.296378	-0.131495	99
Es	-1.692820	0.066881	-0.736552	99
Es	0.628682	1.861878	0.825546	99
Es	0.599920	1.517193	0.419051	99
Es	0.284816	2.083736	0.824898	99
Es	0.392209	-0.928120	-0.396316	99
Es	1.504424	0.920710	-0.372597	99
Es	-1.746225	-0.927452	-0.051207	99
Es	0.369277	-2.103955	0.059631	99
Es	0.505654	1.834834	0.829667	99
Es	1.458100	-1.486528	-0.035314	99
Es	-1.674918	0.155282	0.452632	99
Es	0.504811	1.366566	-0.911519	99
Es	0.720005	-1.458224	-0.020349	99
Es	0.411998	-0.851353	0.258565	99
33
Properties=species:S:1:pos:R:3:Z:I:1 energy=-231.04988719497874 field_type=dipole dipole="0.000000 0.000000 0.000000" charge=0
C	-1.449721	-0.243355	-0.112335	6
C	0.051899	-0.296485	-0.131485	6
C	0.719949	-1.458135	-0.020365	6
C	0.758008	1.018865	-0.303145	6
O	0.505779	1.835325	0.829655	8
H	-1.802501	0.354685	0.733925	1
H	-1.894791	-1.240025	-0.022745	1
H	-1.825391	0.205795	-1.037465	1
H	0.198399	-2.403745	0.094815	1
H	1.804929	-1.496295	-0.043405	1
H	0.397779	1.537595	-1.197205	1
H	1.841798	0.897085	-0.401815	1
H	0.693869	1.288685	1.611565	1
Es	0.623760	1.859189	0.825735	99
Es	0.286729	2.085362	0.825031	99
Es	0.720005	-1.458224	-0.020351	99
Es	1.504442	0.920716	-0.372614	99
Es	-0.696002	-0.265996	-0.118246	99
Es	-1.692648	0.066558	-0.736497	99
Es	1.458119	-1.486485	-0.035305	99
Es	0.757935	1.018954	-0.302963	99
Es	0.624124	1.511457	1.232944	99
Es	0.504789	1.366576	-0.911467	99
Es	-1.675164	0.155561	0.452634	99
Es	0.411688	-0.851156	0.258509	99
Es	0.369281	-2.103998	0.059455	99
Es	0.403081	0.349691	-0.220183	99
Es	0.051823	-0.296377	-0.131493	99
Es	0.392540	-0.928315	-0.396262	99
Es	0.600277	1.519511	0.419982	99
Es	0.506122	1.835023	0.829670	99
Es	-1.449676	-0.243355	-0.112341	99
Es	-1.746189	-0.927485	-0.051240	99
33
Properties=species:S:1:pos:R:3:Z:I:1 energy=-231.04988719497874 field_type=dipole dipole="0.000000 0.000000 0.000000" charge=0
C	-1.449721	-0.243355	-0.112335	6
C	0.051899	-0.296485	-0.131485	6
C	0.719949	-1.458135	-0.020365	6
C	0.758008	1.018865	-0.303145	6
O	0.505779	1.835325	0.829655	8
H	-1.802501	0.354685	0.733925	1
H	-1.894791	-1.240025	-0.022745	1
H	-1.825391	0.205795	-1.037465	1
H	0.198399	-2.403745	0.094815	1
H	1.804929	-1.496295	-0.043405	1
H	0.397779	1.537595	-1.197205	1
H	1.841798	0.897085	-0.401815	1
H	0.693869	1.288685	1.611565	1
Es	0.625307	1.510465	1.231996	99
Es	-0.696015	-0.265984	-0.118165	99
Es	0.504784	1.366315	-0.911477	99
Es	0.411733	-0.851025	0.258557	99
Es	-1.674992	0.155378	0.452684	99
Es	-1.449674	-0.243355	-0.112340	99
Es	0.051824	-0.296377	-0.131491	99
Es	0.369344	-2.103982	0.059472	99
Es	0.757934	1.018954	-0.302954	99
Es	0.505637	1.834739	0.829661	99
Es	-1.746209	-0.927464	-0.051280	99
Es	0.403067	0.349727	-0.220091	99
Es	0.288383	2.086703	0.825275	99
Es	1.458133	-1.486487	-0.035590	99
Es	1.504549	0.920696	-0.372568	99
Es	0.392477	-0.928466	-0.396261	99
Es	0.599213	1.520767	0.420767	99
Es	0.720005	-1.458224	-0.020355	99
Es	0.622335	1.858055	0.825567	99
Es	-1.692794	0.066771	-0.736412	99
33
Properties=species:S:1:pos:R:3:Z:I:1 energy=-231.04988719497874 field_type=dipole dipole="0.000000 0.000000 0.000000" charge=0
C	-1.449721	-0.243355	-0.112335	6
C	0.051899	-0.296485	-0.131485	6
C	0.719949	-1.458135	-0.020365	6
C	0.758008	1.018865	-0.303145	6
O	0.505779	1.835325	0.829655	8
H	-1.802501	0.354685	0.733925	1
H	-1.894791	-1.240025	-0.022745	1
H	-1.825391	0.205795	-1.037465	1
H	0.198399	-2.403745	0.094815	1
H	1.804929	-1.496295	-0.043405	1
H	0.397779	1.537595	-1.197205	1
H	1.841798	0.897085	-0.401815	1
H	0.693869	1.288685	1.611565	1
Es	0.720006	-1.458223	-0.020348	99
Es	0.392574	-0.928424	-0.396169	99
Es	0.051827	-0.296375	-0.131492	99
Es	0.504853	1.366256	-0.911392	99
Es	-1.692617	0.066460	-0.736317	99
Es	0.617555	1.855156	0.825808	99
Es	0.599712	1.522355	0.421389	99
Es	-1.746267	-0.927463	-0.051293	99
Es	1.458183	-1.486574	-0.035522	99
Es	0.403008	0.349775	-0.220079	99
Es	0.369256	-2.103914	0.059397	99
Es	0.757934	1.018954	-0.302957	99
Es	0.626821	1.509666	1.231048	99
Es	-1.675187	0.155671	0.452661	99
Es	0.411684	-0.851036	0.258481	99
Es	1.504612	0.920558	-0.372606	99
Es	-1.449675	-0.243355	-0.112340	99
Es	-0.696022	-0.265922	-0.118266	99
Es	0.290867	2.088675	0.825327	99
Es	0.505917	1.834966	0.829665	99
33
Properties=species:S:1:pos:R:3:Z:I:1 energy=-231.04988719497874 field_type=dipole dipole="0.000000 0.000000 0.000000" charge=0
C	-1.449721	-0.243355	-0.112335	6
C	0.051899	-0.296485	-0.131485	6
C	0.719949	-1.458135	-0.020365	6
C	0.758008	1.018865	-0.303145	6
O	0.505779	1.835325	0.829655	8
H	-1.802501	0.354685	0.733925	1
H	-1.894791	-1.240025	-0.022745	1
H	-1.825391	0.205795	-1.037465	1
H	0.198399	-2.403745	0.094815	1
H	1.804929	-1.496295	-0.043405	1
H	0.397779	1.537595	-1.197205	1
H	1.841798	0.897085	-0.401815	1
H	0.693869	1.288685	1.611565	1
Es	-0.696004	-0.265714	-0.118210	99
Es	0.411694	-0.851191	0.258604	99
Es	0.504838	1.366148	-0.911425	99
Es	0.403029	0.349893	-0.219952	99
Es	0.600753	1.524652	0.422489	99
Es	0.051824	-0.296377	-0.131491	99
Es	0.615484	1.854309	0.826161	99
Es	1.504604	0.920545	-0.372586	99
Es	0.369259	-2.103986	0.059228	99
Es	-1.449675	-0.243355	-0.112340	99
Es	0.505694	1.834864	0.829641	99
Es	0.290999	2.088825	0.825093	99
Es	-1.675613	0.156063	0.452704	99
Es	0.720005	-1.458224	-0.020348	99
Es	1.458148	-1.486532	-0.035510	99
Es	-1.746066	-0.927630	-0.051427	99
Es	0.627877	1.508244	1.229876	99
Es	0.757934	1.018955	-0.302953	99
Es	-1.692276	0.066026	-0.736317	99
Es	0.392530	-0.928306	-0.396241	99
33
Properties=species:S:1:pos:R:3:Z:I:1 energy=-231.04988719497874 field_type=dipole dipole="0.000000 0.000000 0.000000" charge=0
C	-1.449721	-0.243355	-0.112335	6
C	0.051899	-0.296485	-0.131485	6
C	0.719949	-1.458135	-0.020365	6
C	0.758008	1.018865	-0.303145	6
O	0.505779	1.835325	0.829655	8
H	-1.802501	0.354685	0.733925	1
H	-1.894791	-1.240025	-0.022745	1
H	-1.825391	0.205795	-1.037465	1
H	0.198399	-2.403745	0.094815	1
H	1.804929	-1.496295	-0.043405	1
H	0.397779	1.537595	-1.197205	1
H	1.841798	0.897085	-0.401815	1
H	0.693869	1.288685	1.611565	1
Es	0.293544	2.090737	0.825473	99
Es	1.458242	-1.486623	-0.035652	99
Es	0.612357	1.852222	0.826218	99
Es	-1.449675	-0.243355	-0.112340	99
Es	0.505048	1.365742	-0.911384	99
Es	0.392491	-0.928395	-0.396254	99
Es	0.599946	1.526785	0.423517	99
Es	1.504693	0.920354	-0.372545	99
Es	0.629176	1.506779	1.228403	99
Es	-1.746137	-0.927604	-0.051427	99
Es	-1.675261	0.155802	0.452807	99
Es	0.051824	-0.296377	-0.131491	99
Es	-0.696162	-0.265703	-0.118243	99
Es	-1.692512	0.066379	-0.736244	99
Es	0.720005	-1.458224	-0.020352	99
Es	0.505584	1.834782	0.829638	99
Es	0.402957	0.349924	-0.219983	99
Es	0.369280	-2.103855	0.059163	99
Es	0.411704	-0.851115	0.258647	99
Es	0.757934	1.018954	-0.302956	99
33
Properties=species:S:1:pos:R:3:Z:I:1 energy=-231.04988719497874 field_type=dipole dipole="0.000000 0.000000 0.000000" charge=0
C	-1.449721	-0.243355	-0.112335	6
C	0.051899	-0.296485	-0.131485	6
C	0.719949	-1.458135	-0.020365	6
C	0.758008	1.018865	-0.303145	6
O	0.505779	1.835325	0.829655	8
H	-1.802501	0.354685	0.733925	1
H	-1.894791	-1.240025	-0.022745	1
H	-1.825391	0.205795	-1.037465	1
H	0.198399	-2.403745	0.094815	1
H	1.804929	-1.496295	-0.043405	1
H	0.397779	1.537595	-1.197205	1
H	1.841798	0.897085	-0.401815	1
H	0.693869	1.288685	1.611565	1
Es	0.757935	1.018954	-0.302955	99
Es	0.506535	1.834207	0.829632	99
Es	-0.696046	-0.265814	-0.118288	99
Es	0.601202	1.528512	0.424035	99
Es	-1.449675	-0.243356	-0.112340	99
Es	0.720006	-1.458224	-0.020351	99
Es	0.605452	1.849664	0.826498	99
Es	0.369287	-2.103949	0.059103	99
Es	0.411647	-0.851119	0.258578	99
Es	0.392586	-0.928367	-0.396105	99
Es	0.403011	0.349735	-0.219861	99
Es	-1.675474	0.156065	0.452772	99
Es	-1.746304	-0.927524	-0.051509	99
Es	0.631635	1.506585	1.227481	99
Es	1.504649	0.920562	-0.372596	99
Es	0.295766	2.092378	0.825527	99
Es	1.458233	-1.486528	-0.035679	99
Es	-1.692289	0.066111	-0.736125	99
Es	0.505059	1.365691	-0.911331	99
Es	0.051824	-0.296377	-0.131492	99
33
Properties=species:S:1:pos:R:3:Z:I:1 energy=-231.04988719497874 field_type=dipole dipole="0.000000 0.000000 0.000000" charge=0
C	-1.449721	-0.243355	-0.112335	6
C	0.051899	-0.296485	-0.131485	6
C	0.719949	-1.458135	-0.020365	6
C	0.758008	1.018865	-0.303145	6
O	0.505779	1.835325	0.829655	8
H	-1.802501	0.354685	0.733925	1
H	-1.894791	-1.240025	-0.022745	1
H	-1.825391	0.205795	-1.037465	1
H	0.198399	-2.403745	0.094815	1
H	1.804929	-1.496295	-0.043405	1
H	0.397779	1.537595	-1.197205	1
H	1.841798	0.897085	-0.401815	1
H	0.693869	1.288685	1.611565	1
Es	-1.449675	-0.243355	-0.112341	99
Es	0.402808	0.350126	-0.219936	99
Es	0.601433	1.846858	0.826587	99
Es	1.458348	-1.486655	-0.035784	99
Es	0.051824	-0.296377	-0.131492	99
Es	-1.692325	0.066004	-0.736088	99
Es	0.298237	2.094235	0.825289	99
Es	0.392535	-0.928460	-0.396061	99
Es	0.411662	-0.851058	0.258537	99
Es	0.757934	1.018954	-0.302955	99
Es	0.507983	1.835175	0.829629	99
Es	1.504866	0.920207	-0.372539	99
Es	0.369204	-2.103806	0.059130	99
Es	-0.695875	-0.265771	-0.118173	99
Es	0.720005	-1.458225	-0.020352	99
Es	0.600906	1.528557	0.424626	99
Es	0.504983	1.365789	-0.911273	99
Es	0.632066	1.506399	1.226975	99
Es	-1.675581	0.156076	0.452697	99
Es	-1.746300	-0.927464	-0.051480	99
33
Properties=species:S:1:pos:R:3:Z:I:1 energy=-231.04988719497874 field_type=dipole dipole="0.000000 0.000000 0.000000" charge=0
C	-1.449721	-0.243355	-0.112335	6
C	0.051899	-0.296485	-0.131485	6
C	0.719949	-1.458135	-0.020365	6
C	0.758008	1.018865	-0.303145	6
O	0.505779	1.835325	0.829655	8
H	-1.802501	0.354685	0.733925	1
H	-1.894791	-1.240025	-0.022745	1
H	-1.825391	0.205795	-1.037465	1
H	0.198399	-2.403745	0.094815	1
H	1.804929	-1.496295	-0.043405	1
H	0.397779	1.537595	-1.197205	1
H	1.841798	0.897085	-0.401815	1
H	0.693869	1.288685	1.611565	1
Es	-0.695667	-0.265716	-0.118304	99
Es	0.504967	1.365606	-0.910860	99
Es	0.604738	1.531112	0.424561	99
Es	0.554644	1.835129	0.828143	99
Es	-1.449674	-0.243355	-0.112340	99
Es	-1.746978	-0.927195	-0.051606	99
Es	0.720005	-1.458225	-0.020355	99
Es	-1.675579	0.155859	0.452336	99
Es	0.403034	0.349789	-0.219941	99
Es	1.505178	0.920333	-0.372763	99
Es	0.757935	1.018954	-0.302957	99
Es	0.535102	1.835797	0.828771	99
Es	0.308733	2.101376	0.824880	99
Es	0.051824	-0.296377	-0.131491	99
Es	0.368861	-2.103506	0.059132	99
Es	0.392678	-0.928427	-0.395337	99
Es	0.411483	-0.851096	0.257713	99
Es	1.458821	-1.486810	-0.035710	99
Es	-1.692398	0.066085	-0.735519	99
Es	0.637332	1.507874	1.226644	99
33
Properties=species:S:1:pos:R:3:Z:I:1 energy=-231.04988719497874 field_type=dipole dipole="0.000000 0.000000 0.000000" charge=0
C	-1.449721	-0.243355	-0.112335	6
C	0.051899	-0.296485	-0.131485	6
C	0.719949	-1.458135	-0.020365	6
C	0.758008	1.018865	-0.303145	6
O	0.505779	1.835325	0.829655	8
H	-1.802501	0.354685	0.733925	1
H	-1.894791	-1.240025	-0.022745	1
H	-1.825391	0.205795	-1.037465	1
H	0.198399	-2.403745	0.094815	1
H	1.804929	-1.496295	-0.043405	1
H	0.397779	1.537595	-1.197205	1
H	1.841798	0.897085	-0.401815	1
H	0.693869	1.288685	1.611565	1
Es	0.757934	1.018954	-0.302957	99
Es	0.603125	1.847504	0.826457	99
Es	0.633575	1.503446	1.224082	99
Es	0.507120	1.835138	0.829641	99
Es	-1.691867	0.065403	-0.736268	99
Es	0.411658	-0.850977	0.258908	99
Es	1.504757	0.920161	-0.372450	99
Es	0.402866	0.350033	-0.219854	99
Es	0.599162	1.532110	0.427321	99
Es	-1.745939	-0.927646	-0.051548	99
Es	-0.696286	-0.265560	-0.118285	99
Es	0.392565	-0.928538	-0.396463	99
Es	0.720006	-1.458226	-0.020352	99
Es	0.505233	1.365203	-0.911392	99
Es	-1.675931	0.156804	0.453048	99
Es	0.369359	-2.103781	0.059131	99
Es	-1.449675	-0.243355	-0.112340	99
Es	0.297338	2.093614	0.825612	99
Es	0.051824	-0.296377	-0.131492	99
Es	1.458215	-1.486702	-0.035802	99
33
Properties=species:S:1:pos:R:3:Z:I:1 energy=-231.04988719497874 field_type=dipole dipole="0.000000 0.000000 0.000000" charge=0
C	-1.449721	-0.243355	-0.112335	6
C	0.051899	-0.296485	-0.131485	6
C	0.719949	-1.458135	-0.020365	6
C	0.758008	1.018865	-0.303145	6
O	0.505779	1.835325	0.829655	8
H	-1.802501	0.354685	0.733925	1
H	-1.894791	-1.240025	-0.022745	1
H	-1.825391	0.205795	-1.037465	1
H	0.198399	-2.403745	0.094815	1
H	1.804929	-1.496295	-0.043405	1
H	0.397779	1.537595	-1.197205	1
H	1.841798	0.897085	-0.401815	1
H	0.693869	1.288685	1.611565	1
Es	-1.691789	0.065075	-0.736203	99
Es	0.720005	-1.458224	-0.020346	99
Es	0.505225	1.365392	-0.911345	99
Es	0.411935	-0.851179	0.258947	99
Es	0.599767	1.844950	0.826625	99
Es	0.634560	1.503381	1.223500	99
Es	0.757934	1.018953	-0.302955	99
Es	-1.746093	-0.927546	-0.051384	99
Es	0.402743	0.350159	-0.219888	99
Es	1.458346	-1.486943	-0.035909	99
Es	0.300600	2.095968	0.825763	99
Es	0.369201	-2.103565	0.059124	99
Es	1.504842	0.919982	-0.372383	99
Es	-0.696126	-0.265582	-0.118354	99
Es	0.599846	1.532639	0.427519	99
Es	-1.676048	0.157081	0.452883	99
Es	0.392322	-0.928313	-0.396435	99
Es	-1.449673	-0.243357	-0.112341	99
Es	0.051825	-0.296377	-0.131486	99
Es	0.505618	1.834710	0.829665	99
33
Properties=species:S:1:pos:R:3:Z:I:1 energy=-231.04988719497874 field_type=dipole dipole="0.000000 0.000000 0.000000" charge=0
C	-1.449721	-0.243355	-0.112335	6
C	0.051899	-0.296485	-0.131485	6
C	0.719949	-1.458135	-0.020365	6
C	0.758008	1.018865	-0.303145	6
O	0.505779	1.835325	0.829655	8
H	-1.802501	0.354685	0.733925	1
H	-1.894791	-1.240025	-0.022745	1
H	-1.825391	0.205795	-1.037465	1
H	0.198399	-2.403745	0.094815	1
H	1.804929	-1.496295	-0.043405	1
H	0.397779	1.537595	-1.197205	1
H	1.841798	0.897085	-0.401815	1
H	0.693869	1.288685	1.611565	1
Es	0.369217	-2.103566	0.059038	99
Es	-0.696051	-0.265630	-0.118170	99
Es	0.636607	1.503764	1.223231	99
Es	0.411427	-0.850815	0.258515	99
Es	-1.691739	0.065073	-0.736077	99
Es	0.757935	1.018954	-0.302956	99
Es	0.392782	-0.928692	-0.396061	99
Es	0.601408	1.533754	0.428034	99
Es	-1.746225	-0.927422	-0.051551	99
Es	0.505118	1.365425	-0.911238	99
Es	0.587999	1.842458	0.827096	99
Es	0.304281	2.098426	0.825218	99
Es	1.458460	-1.486855	-0.035816	99
Es	0.402863	0.349986	-0.219871	99
Es	0.720005	-1.458224	-0.020352	99
Es	0.510125	1.833161	0.829496	99
Es	0.051824	-0.296377	-0.131492	99
Es	1.504898	0.920147	-0.372527	99
Es	-1.676218	0.156999	0.452819	99
Es	-1.449677	-0.243356	-0.112340	99
33
Properties=species:S:1:pos:R:3:Z:I:1 energy=-231.04988719497874 field_type=dipole dipole="0.000000 0.000000 0.000000" charge=0
C	-1.449721	-0.243355	-0.112335	6
C	0.051899	-0.296485	-0.131485	6
C	0.719949	-1.458135	-0.020365	6
C	0.758008	1.018865	-0.303145	6
O	0.505779	1.835325	0.829655	8
H	-1.802501	0.354685	0.733925	1
H	-1.894791	-1.240025	-0.022745	1
H	-1.825391	0.205795	-1.037465	1
H	0.198399	-2.403745	0.094815	1
H	1.804929	-1.496295	-0.043405	1
H	0.397779	1.537595	-1.197205	1
H	1.841798	0.897085	-0.401815	1
H	0.693869	1.288685	1.611565	1
Es	0.757934	1.018954	-0.302959	99
Es	0.411854	-0.851181	0.259024	99
Es	1.504833	0.920134	-0.372529	99
Es	0.369202	-2.103517	0.058848	99
Es	0.720005	-1.458225	-0.020353	99
Es	0.392412	-0.928317	-0.396502	99
Es	1.458386	-1.486994	-0.035899	99
Es	-1.746104	-0.927440	-0.051629	99
Es	0.402796	0.350054	-0.219667	99
Es	-1.691899	0.065440	-0.736185	99
Es	0.636031	1.502339	1.222111	99
Es	-1.449675	-0.243355	-0.112341	99
Es	-0.696019	-0.265644	-0.118095	99
Es	0.600509	1.534985	0.428815	99
Es	0.505255	1.364989	-0.911231	99
Es	0.051825	-0.296377	-0.131490	99
Es	-1.676006	0.156696	0.452984	99
Es	0.302921	2.097568	0.825545	99
Es	0.594565	1.842575	0.826908	99
Es	0.506214	1.834523	0.829642	99
