34
Properties=species:S:1:pos:R:3:Z:I:1 energy=-263.92860406228743 field_type=dipole dipole="0.000000 0.000000 0.000000" charge=0
C	-1.883202	0.246511	0.001351	6
C	-0.403622	0.153251	0.000141	6
N	0.351897	1.258191	-0.005179	7
N	1.611038	0.792971	-0.004889	7
C	1.686237	-0.568149	0.000141	6
C	0.388638	-1.018179	0.003461	6
H	-2.222142	1.287601	0.015341	1
H	-2.295362	-0.255569	0.882311	1
H	-2.294922	-0.231989	-0.892839	1
H	2.370968	1.464471	-0.008379	1
H	2.635877	-1.083049	0.000861	1
H	0.054598	-2.046059	0.007681	1
Es	0.388639	-1.018208	0.003461	99
Es	-2.151604	-0.081454	-0.601730	99
Es	1.686340	-0.567959	0.000158	99
Es	-0.403642	0.153312	0.000140	99
Es	0.070750	0.770642	0.272471	99
Es	-0.051314	-0.473323	0.001699	99
Es	1.610986	0.792939	-0.004896	99
Es	0.352109	1.257610	-0.005178	99
Es	0.157840	-1.711370	0.006244	99
Es	1.616624	0.399737	0.260393	99
Es	1.615878	0.399097	-0.267183	99
Es	0.913318	-0.786826	0.300844	99
Es	2.064574	1.183583	-0.006649	99
Es	0.069982	0.768579	-0.277764	99
Es	0.914562	-0.789711	-0.296613	99
Es	1.016246	1.017753	-0.005534	99
Es	-2.106595	0.945808	0.010709	99
Es	-1.883152	0.246488	0.001351	99
Es	0.281520	1.630319	-0.006644	99
Es	2.326535	-0.909620	0.000558	99
Es	-1.142270	0.197278	0.000896	99
Es	-2.152077	-0.097505	0.595544	99
34
Properties=species:S:1:pos:R:3:Z:I:1 energy=-263.92860406228743 field_type=dipole dipole="0.000000 0.000000 0.000000" charge=0
C	-1.883202	0.246511	0.001351	6
C	-0.403622	0.153251	0.000141	6
N	0.351897	1.258191	-0.005179	7
N	1.611038	0.792971	-0.004889	7
C	1.686237	-0.568149	0.000141	6
C	0.388638	-1.018179	0.003461	6
H	-2.222142	1.287601	0.015341	1
H	-2.295362	-0.255569	0.882311	1
H	-2.294922	-0.231989	-0.892839	1
H	2.370968	1.464471	-0.008379	1
H	2.635877	-1.083049	0.000861	1
H	0.054598	-2.046059	0.007681	1
Es	-0.050518	-0.469592	0.001293	99
Es	0.352120	1.257601	-0.005184	99
Es	-2.109500	0.946238	0.010731	99
Es	0.388632	-1.018212	0.003457	99
Es	-1.140079	0.195779	0.000751	99
Es	-0.403644	0.153310	0.000143	99
Es	1.574012	0.711156	-0.016373	99
Es	0.924185	-0.786547	0.299101	99
Es	1.573958	0.710800	0.008815	99
Es	0.157741	-1.712607	0.006389	99
Es	0.064087	0.751895	-0.272229	99
Es	0.065194	0.753953	0.267340	99
Es	-1.883151	0.246488	0.001350	99
Es	2.328810	-0.909473	0.000584	99
Es	0.277468	1.630752	-0.006991	99
Es	-2.152723	-0.097422	0.591919	99
Es	1.684592	0.203436	-0.004290	99
Es	1.012588	1.014751	-0.005104	99
Es	1.686345	-0.567960	0.000135	99
Es	2.072413	1.182723	-0.006799	99
Es	0.924387	-0.789338	-0.294791	99
Es	-2.151668	-0.080561	-0.597972	99
34
Properties=species:S:1:pos:R:3:Z:I:1 energy=-263.92860406228743 field_type=dipole dipole="0.000000 0.000000 0.000000" charge=0
C	-1.883202	0.246511	0.001351	6
C	-0.403622	0.153251	0.000141	6
N	0.351897	1.258191	-0.005179	7
N	1.611038	0.792971	-0.004889	7
C	1.686237	-0.568149	0.000141	6
C	0.388638	-1.018179	0.003461	6
H	-2.222142	1.287601	0.015341	1
H	-2.295362	-0.255569	0.882311	1
H	-2.294922	-0.231989	-0.892839	1
H	2.370968	1.464471	-0.008379	1
H	2.635877	-1.083049	0.000861	1
H	0.054598	-2.046059	0.007681	1
Es	-0.403645	0.153309	0.000139	99
Es	0.274673	1.630818	-0.006214	99
Es	0.157758	-1.713475	0.006308	99
Es	0.388629	-1.018212	0.003480	99
Es	1.686346	-0.567961	0.000138	99
Es	1.543372	0.622991	-0.004686	99
Es	0.066576	0.754395	0.263172	99
Es	-0.049460	-0.467648	0.001129	99
Es	0.923223	-0.788293	-0.290981	99
Es	-2.111901	0.946375	0.010498	99
Es	-1.883153	0.246487	0.001351	99
Es	0.063801	0.752667	-0.268794	99
Es	1.610972	0.792988	-0.004908	99
Es	2.073115	1.182511	-0.007040	99
Es	-2.151496	-0.080387	-0.594938	99
Es	1.683826	0.204003	-0.001891	99
Es	0.919054	-0.784105	0.295477	99
Es	-2.152488	-0.096827	0.589187	99
Es	-1.138783	0.194839	0.000647	99
Es	0.352140	1.257603	-0.005194	99
Es	1.013593	1.014916	-0.005259	99
Es	2.329098	-0.909824	0.000655	99
34
Properties=species:S:1:pos:R:3:Z:I:1 energy=-263.92860406228743 field_type=dipole dipole="0.000000 0.000000 0.000000" charge=0
C	-1.883202	0.246511	0.001351	6
C	-0.403622	0.153251	0.000141	6
N	0.351897	1.258191	-0.005179	7
N	1.611038	0.792971	-0.004889	7
C	1.686237	-0.568149	0.000141	6
C	0.388638	-1.018179	0.003461	6
H	-2.222142	1.287601	0.015341	1
H	-2.295362	-0.255569	0.882311	1
H	-2.294922	-0.231989	-0.892839	1
H	2.370968	1.464471	-0.008379	1
H	2.635877	-1.083049	0.000861	1
H	0.054598	-2.046059	0.007681	1
Es	0.062477	0.752893	-0.265599	99
Es	0.273471	1.630385	-0.007762	99
Es	0.388633	-1.018212	0.003445	99
Es	-2.112790	0.946135	0.010516	99
Es	-2.151835	-0.081033	-0.594284	99
Es	0.157634	-1.713990	0.005526	99
Es	0.072389	0.755632	0.263076	99
Es	0.998969	-0.817592	-0.243654	99
Es	1.682999	0.205127	0.012419	99
Es	-0.048366	-0.466388	-0.009736	99
Es	2.329181	-0.910017	0.002357	99
Es	-1.138325	0.194405	0.000330	99
Es	2.073452	1.182471	-0.004802	99
Es	1.014148	1.015111	-0.012157	99
Es	1.686348	-0.567961	0.000139	99
Es	-1.883156	0.246483	0.001353	99
Es	0.352126	1.257605	-0.005178	99
Es	-2.151997	-0.095735	0.587703	99
Es	-0.403646	0.153309	0.000140	99
Es	1.610964	0.792968	-0.004670	99
Es	0.833030	-0.753331	0.257313	99
Es	1.549542	0.618905	-0.014198	99
34
Properties=species:S:1:pos:R:3:Z:I:1 energy=-263.92860406228743 field_type=dipole dipole="0.000000 0.000000 0.000000" charge=0
C	-1.883202	0.246511	0.001351	6
C	-0.403622	0.153251	0.000141	6
N	0.351897	1.258191	-0.005179	7
N	1.611038	0.792971	-0.004889	7
C	1.686237	-0.568149	0.000141	6
C	0.388638	-1.018179	0.003461	6
H	-2.222142	1.287601	0.015341	1
H	-2.295362	-0.255569	0.882311	1
H	-2.294922	-0.231989	-0.892839	1
H	2.370968	1.464471	-0.008379	1
H	2.635877	-1.083049	0.000861	1
H	0.054598	-2.046059	0.007681	1
Es	0.274901	1.629156	-0.007626	99
Es	-2.152215	-0.095549	0.588951	99
Es	1.610971	0.792989	-0.004872	99
Es	-0.048137	-0.465204	-0.013149	99
Es	0.157254	-1.713900	0.005302	99
Es	-2.111818	0.945245	0.010537	99
Es	-1.138455	0.194941	0.000221	99
Es	0.352132	1.257610	-0.005170	99
Es	1.048993	-0.836637	-0.143068	99
Es	1.014057	1.015374	-0.011127	99
Es	1.682253	0.206043	0.018493	99
Es	2.073605	1.182438	-0.004298	99
Es	2.329272	-0.910018	0.002475	99
Es	0.066290	0.756245	-0.267940	99
Es	-2.152442	-0.081206	-0.595498	99
Es	-0.403646	0.153309	0.000137	99
Es	0.388632	-1.018213	0.003479	99
Es	-1.883152	0.246489	0.001350	99
Es	1.556920	0.610970	-0.021201	99
Es	0.076207	0.759999	0.265370	99
Es	1.686347	-0.567961	0.000141	99
Es	0.767281	-0.734951	0.159769	99
34
Properties=species:S:1:pos:R:3:Z:I:1 energy=-263.92860406228743 field_type=dipole dipole="0.000000 0.000000 0.000000" charge=0
C	-1.883202	0.246511	0.001351	6
C	-0.403622	0.153251	0.000141	6
N	0.351897	1.258191	-0.005179	7
N	1.611038	0.792971	-0.004889	7
C	1.686237	-0.568149	0.000141	6
C	0.388638	-1.018179	0.003461	6
H	-2.222142	1.287601	0.015341	1
H	-2.295362	-0.255569	0.882311	1
H	-2.294922	-0.231989	-0.892839	1
H	2.370968	1.464471	-0.008379	1
H	2.635877	-1.083049	0.000861	1
H	0.054598	-2.046059	0.007681	1
Es	-0.403647	0.153309	0.000143	99
Es	0.074854	0.759350	-0.271654	99
Es	-2.151541	-0.079433	-0.595551	99
Es	-0.048368	-0.464095	0.009699	99
Es	2.329317	-0.910035	-0.000384	99
Es	0.388631	-1.018215	0.003469	99
Es	-1.883151	0.246487	0.001349	99
Es	1.686346	-0.567960	0.000139	99
Es	0.352130	1.257610	-0.005176	99
Es	0.071503	0.760395	0.264574	99
Es	1.610970	0.792984	-0.004780	99
Es	1.560214	0.607930	0.002212	99
Es	-2.153671	-0.097207	0.590245	99
Es	-1.138594	0.195160	0.001116	99
Es	1.065716	-0.841726	0.063940	99
Es	2.073796	1.182438	-0.007402	99
Es	1.682184	0.205621	-0.012307	99
Es	0.156889	-1.713881	0.006793	99
Es	0.275495	1.628010	-0.005894	99
Es	-2.111169	0.944683	0.010292	99
Es	1.014196	1.016061	-0.001773	99
Es	0.743148	-0.730315	-0.066772	99
34
Properties=species:S:1:pos:R:3:Z:I:1 energy=-263.92860406228743 field_type=dipole dipole="0.000000 0.000000 0.000000" charge=0
C	-1.883202	0.246511	0.001351	6
C	-0.403622	0.153251	0.000141	6
N	0.351897	1.258191	-0.005179	7
N	1.611038	0.792971	-0.004889	7
C	1.686237	-0.568149	0.000141	6
C	0.388638	-1.018179	0.003461	6
H	-2.222142	1.287601	0.015341	1
H	-2.295362	-0.255569	0.882311	1
H	-2.294922	-0.231989	-0.892839	1
H	2.370968	1.464471	-0.008379	1
H	2.635877	-1.083049	0.000861	1
H	0.054598	-2.046059	0.007681	1
Es	-0.403646	0.153309	0.000141	99
Es	-2.111590	0.944587	0.010476	99
Es	2.329346	-0.909958	0.000478	99
Es	-1.138363	0.194980	0.000899	99
Es	-0.048269	-0.463879	0.003651	99
Es	2.073988	1.182319	-0.007069	99
Es	1.068860	-0.842891	0.017176	99
Es	0.388630	-1.018215	0.003462	99
Es	0.352117	1.257602	-0.005177	99
Es	0.075379	0.759214	-0.270697	99
Es	1.561669	0.606936	0.003648	99
Es	-1.883152	0.246488	0.001351	99
Es	1.610970	0.792983	-0.004987	99
Es	-2.151473	-0.079349	-0.595306	99
Es	0.737075	-0.728751	-0.014556	99
Es	1.682161	0.205809	-0.009879	99
Es	-2.153659	-0.097134	0.589500	99
Es	1.014296	1.016173	-0.005636	99
Es	0.156653	-1.713857	0.006436	99
Es	0.072959	0.760814	0.264214	99
Es	1.686347	-0.567959	0.000130	99
Es	0.274953	1.627949	-0.005979	99
34
Properties=species:S:1:pos:R:3:Z:I:1 energy=-263.92860406228743 field_type=dipole dipole="0.000000 0.000000 0.000000" charge=0
C	-1.883202	0.246511	0.001351	6
C	-0.403622	0.153251	0.000141	6
N	0.351897	1.258191	-0.005179	7
N	1.611038	0.792971	-0.004889	7
C	1.686237	-0.568149	0.000141	6
C	0.388638	-1.018179	0.003461	6
H	-2.222142	1.287601	0.015341	1
H	-2.295362	-0.255569	0.882311	1
H	-2.294922	-0.231989	-0.892839	1
H	2.370968	1.464471	-0.008379	1
H	2.635877	-1.083049	0.000861	1
H	0.054598	-2.046059	0.007681	1
Es	1.014517	1.016173	-0.004828	99
Es	0.274254	1.627975	-0.006279	99
Es	-1.883153	0.246488	0.001351	99
Es	0.735606	-0.728198	-0.004123	99
Es	-2.112140	0.944627	0.010438	99
Es	1.682194	0.205850	-0.005279	99
Es	1.610964	0.792960	-0.004652	99
Es	1.068999	-0.842936	0.007727	99
Es	0.075955	0.760638	0.263666	99
Es	-0.403646	0.153309	0.000141	99
Es	-0.047882	-0.463907	0.002325	99
Es	0.388631	-1.018214	0.003447	99
Es	-2.151464	-0.079325	-0.594530	99
Es	0.156404	-1.713846	0.006305	99
Es	1.686348	-0.567960	0.000141	99
Es	-1.138109	0.194663	0.000690	99
Es	1.562372	0.606891	-0.002132	99
Es	2.074069	1.182331	-0.006948	99
Es	2.329354	-0.909817	0.000542	99
Es	0.352121	1.257602	-0.005177	99
Es	0.073352	0.758802	-0.269378	99
Es	-2.153499	-0.096939	0.588833	99
34
Properties=species:S:1:pos:R:3:Z:I:1 energy=-263.92860406228743 field_type=dipole dipole="0.000000 0.000000 0.000000" charge=0
C	-1.883202	0.246511	0.001351	6
C	-0.403622	0.153251	0.000141	6
N	0.351897	1.258191	-0.005179	7
N	1.611038	0.792971	-0.004889	7
C	1.686237	-0.568149	0.000141	6
C	0.388638	-1.018179	0.003461	6
H	-2.222142	1.287601	0.015341	1
H	-2.295362	-0.255569	0.882311	1
H	-2.294922	-0.231989	-0.892839	1
H	2.370968	1.464471	-0.008379	1
H	2.635877	-1.083049	0.000861	1
H	0.054598	-2.046059	0.007681	1
Es	1.014796	1.016382	-0.004668	99
Es	-2.151365	-0.079549	-0.593810	99
Es	0.156101	-1.713733	0.006337	99
Es	-1.137876	0.194540	0.000794	99
Es	1.069073	-0.842941	0.005926	99
Es	-2.153081	-0.096717	0.587947	99
Es	0.734719	-0.727811	-0.002187	99
Es	0.273449	1.627973	-0.006188	99
Es	-0.403647	0.153309	0.000142	99
Es	1.610969	0.792975	-0.004727	99
Es	-0.047566	-0.463946	0.002183	99
Es	2.329366	-0.909699	0.000606	99
Es	1.686347	-0.567960	0.000140	99
Es	2.074218	1.182283	-0.006909	99
Es	0.388631	-1.018215	0.003455	99
Es	0.075513	0.760299	0.262624	99
Es	1.682072	0.205920	-0.004192	99
Es	1.562858	0.606999	-0.003233	99
Es	-2.112996	0.944693	0.010488	99
Es	0.074693	0.758287	-0.268637	99
Es	-1.883152	0.246487	0.001352	99
Es	0.352127	1.257596	-0.005166	99
34
Properties=species:S:1:pos:R:3:Z:I:1 energy=-263.92860406228743 field_type=dipole dipole="0.000000 0.000000 0.000000" charge=0
C	-1.883202	0.246511	0.001351	6
C	-0.403622	0.153251	0.000141	6
N	0.351897	1.258191	-0.005179	7
N	1.611038	0.792971	-0.004889	7
C	1.686237	-0.568149	0.000141	6
C	0.388638	-1.018179	0.003461	6
H	-2.222142	1.287601	0.015341	1
H	-2.295362	-0.255569	0.882311	1
H	-2.294922	-0.231989	-0.892839	1
H	2.370968	1.464471	-0.008379	1
H	2.635877	-1.083049	0.000861	1
H	0.054598	-2.046059	0.007681	1
Es	-1.137664	0.194275	0.000659	99
Es	2.329387	-0.909561	0.000577	99
Es	0.733623	-0.727514	-0.000222	99
Es	1.610971	0.792981	-0.004992	99
Es	-2.151169	-0.079361	-0.593034	99
Es	0.075776	0.760046	0.261779	99
Es	-2.113668	0.944763	0.010596	99
Es	0.352115	1.257601	-0.005174	99
Es	0.272806	1.627964	-0.005873	99
Es	1.069071	-0.842936	0.004039	99
Es	1.686347	-0.567961	0.000140	99
Es	-0.047228	-0.463992	0.001999	99
Es	-2.152894	-0.096773	0.587186	99
Es	0.388631	-1.018215	0.003461	99
Es	1.682057	0.206088	0.000279	99
Es	2.074361	1.182189	-0.006657	99
Es	1.563354	0.606901	-0.007742	99
Es	0.155875	-1.713683	0.006085	99
Es	-0.403646	0.153309	0.000140	99
Es	1.014905	1.016501	-0.004434	99
Es	0.075392	0.758062	-0.267881	99
Es	-1.883154	0.246485	0.001346	99
34
Properties=species:S:1:pos:R:3:Z:I:1 energy=-263.92860406228743 field_type=dipole dipole="0.000000 0.000000 0.000000" charge=0
C	-1.883202	0.246511	0.001351	6
C	-0.403622	0.153251	0.000141	6
N	0.351897	1.258191	-0.005179	7
N	1.611038	0.792971	-0.004889	7
C	1.686237	-0.568149	0.000141	6
C	0.388638	-1.018179	0.003461	6
H	-2.222142	1.287601	0.015341	1
H	-2.295362	-0.255569	0.882311	1
H	-2.294922	-0.231989	-0.892839	1
H	2.370968	1.464471	-0.008379	1
H	2.635877	-1.083049	0.000861	1
H	0.054598	-2.046059	0.007681	1
Es	-2.114207	0.944810	0.010594	99
Es	-2.153090	-0.097122	0.586532	99
Es	1.563782	0.606858	-0.006014	99
Es	1.015158	1.016687	-0.005269	99
Es	0.388631	-1.018214	0.003457	99
Es	-1.883152	0.246489	0.001351	99
Es	0.073477	0.759869	0.260487	99
Es	1.069150	-0.842944	0.002237	99
Es	2.329417	-0.909445	0.000776	99
Es	-0.403647	0.153309	0.000140	99
Es	0.732723	-0.727234	0.002520	99
Es	0.352136	1.257593	-0.005174	99
Es	0.078614	0.757698	-0.266809	99
Es	0.155683	-1.713650	0.006046	99
Es	1.681873	0.206138	-0.000948	99
Es	1.610972	0.792988	-0.004875	99
Es	-1.137581	0.194106	0.000637	99
Es	1.686346	-0.567960	0.000140	99
Es	-2.150645	-0.078912	-0.592440	99
Es	2.074443	1.182182	-0.006398	99
Es	-0.046944	-0.464010	0.000925	99
Es	0.272110	1.627931	-0.005639	99
34
Properties=species:S:1:pos:R:3:Z:I:1 energy=-263.92860406228743 field_type=dipole dipole="0.000000 0.000000 0.000000" charge=0
C	-1.883202	0.246511	0.001351	6
C	-0.403622	0.153251	0.000141	6
N	0.351897	1.258191	-0.005179	7
N	1.611038	0.792971	-0.004889	7
C	1.686237	-0.568149	0.000141	6
C	0.388638	-1.018179	0.003461	6
H	-2.222142	1.287601	0.015341	1
H	-2.295362	-0.255569	0.882311	1
H	-2.294922	-0.231989	-0.892839	1
H	2.370968	1.464471	-0.008379	1
H	2.635877	-1.083049	0.000861	1
H	0.054598	-2.046059	0.007681	1
Es	-2.148537	-0.076552	-0.591396	99
Es	-0.403647	0.153310	0.000149	99
Es	0.388633	-1.018213	0.003429	99
Es	1.610972	0.792987	-0.004837	99
Es	0.271824	1.627848	-0.005949	99
Es	2.329419	-0.909346	0.000539	99
Es	1.686346	-0.567961	0.000139	99
Es	1.681975	0.206118	-0.007188	99
Es	0.352129	1.257597	-0.005176	99
Es	-0.046800	-0.464003	0.001253	99
Es	0.066662	0.758046	-0.264102	99
Es	-2.154962	-0.099349	0.585803	99
Es	0.731685	-0.726984	0.004821	99
Es	1.564256	0.606574	-0.000230	99
Es	1.069094	-0.842915	-0.000566	99
Es	2.074451	1.182163	-0.006415	99
Es	1.015227	1.016791	-0.005110	99
Es	-1.883152	0.246487	0.001351	99
Es	-1.137391	0.193978	0.000677	99
Es	0.086133	0.759498	0.258566	99
Es	-2.114665	0.944717	0.010369	99
Es	0.155598	-1.713623	0.006150	99
34
Properties=species:S:1:pos:R:3:Z:I:1 energy=-263.92860406228743 field_type=dipole dipole="0.000000 0.000000 0.000000" charge=0
C	-1.883202	0.246511	0.001351	6
C	-0.403622	0.153251	0.000141	6
N	0.351897	1.258191	-0.005179	7
N	1.611038	0.792971	-0.004889	7
C	1.686237	-0.568149	0.000141	6
C	0.388638	-1.018179	0.003461	6
H	-2.222142	1.287601	0.015341	1
H	-2.295362	-0.255569	0.882311	1
H	-2.294922	-0.231989	-0.892839	1
H	2.370968	1.464471	-0.008379	1
H	2.635877	-1.083049	0.000861	1
H	0.054598	-2.046059	0.007681	1
Es	0.271825	1.627688	-0.005001	99
Es	1.564570	0.606424	-0.001671	99
Es	1.610970	0.792987	-0.004976	99
Es	0.094827	0.759106	0.252121	99
Es	1.686346	-0.567961	0.000139	99
Es	2.074535	1.182119	-0.006658	99
Es	0.730942	-0.726816	0.008788	99
Es	-0.403647	0.153309	0.000135	99
Es	2.329452	-0.909249	0.000251	99
Es	0.155471	-1.713599	0.006080	99
Es	0.352127	1.257593	-0.005178	99
Es	-1.137378	0.193971	0.000647	99
Es	-2.156170	-0.100692	0.585449	99
Es	0.058363	0.758467	-0.258144	99
Es	-1.883152	0.246488	0.001351	99
Es	1.681927	0.206156	-0.006210	99
Es	0.388631	-1.018215	0.003461	99
Es	-2.147414	-0.075121	-0.590911	99
Es	-2.114639	0.944623	0.010303	99
Es	1.069049	-0.842916	-0.004501	99
Es	-0.046660	-0.463980	0.001172	99
Es	1.015275	1.016787	-0.004370	99
34
Properties=species:S:1:pos:R:3:Z:I:1 energy=-263.92860406228743 field_type=dipole dipole="0.000000 0.000000 0.000000" charge=0
C	-1.883202	0.246511	0.001351	6
C	-0.403622	0.153251	0.000141	6
N	0.351897	1.258191	-0.005179	7
N	1.611038	0.792971	-0.004889	7
C	1.686237	-0.568149	0.000141	6
C	0.388638	-1.018179	0.003461	6
H	-2.222142	1.287601	0.015341	1
H	-2.295362	-0.255569	0.882311	1
H	-2.294922	-0.231989	-0.892839	1
H	2.370968	1.464471	-0.008379	1
H	2.635877	-1.083049	0.000861	1
H	0.054598	-2.046059	0.007681	1
Es	1.686346	-0.567960	0.000142	99
Es	1.015350	1.016766	-0.005692	99
Es	-1.137310	0.193868	0.000568	99
Es	0.055723	0.760544	0.247411	99
Es	0.388630	-1.018215	0.003458	99
Es	0.352125	1.257603	-0.005174	99
Es	1.069013	-0.842784	0.012905	99
Es	1.681929	0.206268	-0.002626	99
Es	1.564954	0.606152	-0.004128	99
Es	-2.151352	-0.094822	0.585735	99
Es	-0.403647	0.153309	0.000139	99
Es	2.329456	-0.909201	0.001143	99
Es	1.610968	0.792970	-0.004700	99
Es	0.729981	-0.726759	-0.007092	99
Es	-0.046486	-0.464021	0.000259	99
Es	2.074602	1.182106	-0.005985	99
Es	-2.152020	-0.080954	-0.591666	99
Es	0.098199	0.757124	-0.253111	99
Es	-1.883152	0.246488	0.001351	99
Es	-2.114944	0.944631	0.010318	99
Es	0.271521	1.627613	-0.006835	99
Es	0.155364	-1.713555	0.005857	99
34
Properties=species:S:1:pos:R:3:Z:I:1 energy=-263.92860406228743 field_type=dipole dipole="0.000000 0.000000 0.000000" charge=0
C	-1.883202	0.246511	0.001351	6
C	-0.403622	0.153251	0.000141	6
N	0.351897	1.258191	-0.005179	7
N	1.611038	0.792971	-0.004889	7
C	1.686237	-0.568149	0.000141	6
C	0.388638	-1.018179	0.003461	6
H	-2.222142	1.287601	0.015341	1
H	-2.295362	-0.255569	0.882311	1
H	-2.294922	-0.231989	-0.892839	1
H	2.370968	1.464471	-0.008379	1
H	2.635877	-1.083049	0.000861	1
H	0.054598	-2.046059	0.007681	1
Es	-2.150598	-0.093970	0.585511	99
Es	2.074616	1.182106	-0.005957	99
Es	-1.883152	0.246489	0.001351	99
Es	1.681938	0.206307	-0.000038	99
Es	0.155220	-1.713492	0.005851	99
Es	-1.137246	0.193760	0.000508	99
Es	-0.403647	0.153309	0.000135	99
Es	1.610971	0.792990	-0.004892	99
Es	1.565184	0.605846	-0.006603	99
Es	1.015496	1.017128	-0.005691	99
Es	-2.152914	-0.081662	-0.591718	99
Es	0.271325	1.627227	-0.006723	99
Es	2.329469	-0.909168	0.001272	99
Es	0.729298	-0.726728	-0.008096	99
Es	0.388631	-1.018214	0.003464	99
Es	-0.046354	-0.463942	0.000223	99
Es	0.102738	0.757185	-0.247284	99
Es	0.352130	1.257594	-0.005173	99
Es	1.069030	-0.842804	0.013915	99
Es	0.051660	0.760699	0.241438	99
Es	1.686346	-0.567961	0.000142	99
Es	-2.114892	0.944472	0.010642	99
34
Properties=species:S:1:pos:R:3:Z:I:1 energy=-263.92860406228743 field_type=dipole dipole="0.000000 0.000000 0.000000" charge=0
C	-1.883202	0.246511	0.001351	6
C	-0.403622	0.153251	0.000141	6
N	0.351897	1.258191	-0.005179	7
N	1.611038	0.792971	-0.004889	7
C	1.686237	-0.568149	0.000141	6
C	0.388638	-1.018179	0.003461	6
H	-2.222142	1.287601	0.015341	1
H	-2.295362	-0.255569	0.882311	1
H	-2.294922	-0.231989	-0.892839	1
H	2.370968	1.464471	-0.008379	1
H	2.635877	-1.083049	0.000861	1
H	0.054598	-2.046059	0.007681	1
Es	-1.883152	0.246487	0.001352	99
Es	0.155183	-1.713481	0.006147	99
Es	0.047220	0.759203	-0.243386	99
Es	1.069098	-0.842870	-0.006443	99
Es	-1.137307	0.193998	0.000634	99
Es	0.728950	-0.726322	0.010590	99
Es	-2.145076	-0.072216	-0.589617	99
Es	1.686347	-0.567961	0.000139	99
Es	2.329489	-0.909180	0.000106	99
Es	0.352126	1.257599	-0.005177	99
Es	0.388631	-1.018215	0.003460	99
Es	-2.114644	0.944315	0.010225	99
Es	2.074705	1.182014	-0.006580	99
Es	1.681709	0.206327	-0.011199	99
Es	1.015506	1.017140	-0.003689	99
Es	1.610971	0.792989	-0.004906	99
Es	0.271933	1.627019	-0.004502	99
Es	0.106740	0.758987	0.237232	99
Es	-2.158631	-0.103496	0.584323	99
Es	1.565499	0.605467	0.002509	99
Es	-0.046398	-0.463943	0.000919	99
Es	-0.403647	0.153310	0.000139	99
34
Properties=species:S:1:pos:R:3:Z:I:1 energy=-263.92860406228743 field_type=dipole dipole="0.000000 0.000000 0.000000" charge=0
C	-1.883202	0.246511	0.001351	6
C	-0.403622	0.153251	0.000141	6
N	0.351897	1.258191	-0.005179	7
N	1.611038	0.792971	-0.004889	7
C	1.686237	-0.568149	0.000141	6
C	0.388638	-1.018179	0.003461	6
H	-2.222142	1.287601	0.015341	1
H	-2.295362	-0.255569	0.882311	1
H	-2.294922	-0.231989	-0.892839	1
H	2.370968	1.464471	-0.008379	1
H	2.635877	-1.083049	0.000861	1
H	0.054598	-2.046059	0.007681	1
Es	-2.152200	-0.080826	-0.592177	99
Es	1.681854	0.206304	-0.002319	99
Es	0.388631	-1.018214	0.003440	99
Es	1.686347	-0.567961	0.000142	99
Es	1.015559	1.017180	-0.006539	99
Es	-0.046261	-0.463947	-0.000100	99
Es	1.565689	0.605355	-0.004675	99
Es	0.728218	-0.726498	-0.010338	99
Es	-1.137269	0.194034	0.000553	99
Es	0.110576	0.757147	-0.234203	99
Es	-2.114772	0.944237	0.010696	99
Es	1.068969	-0.842733	0.016604	99
Es	-1.883155	0.246489	0.001351	99
Es	0.352138	1.257590	-0.005181	99
Es	2.329500	-0.909091	0.001540	99
Es	0.271722	1.626848	-0.006772	99
Es	0.044018	0.761262	0.228184	99
Es	-0.403647	0.153310	0.000137	99
Es	-2.151429	-0.094884	0.585679	99
Es	0.155091	-1.713433	0.005697	99
Es	2.074700	1.182022	-0.004704	99
Es	1.610968	0.792978	-0.004739	99
34
Properties=species:S:1:pos:R:3:Z:I:1 energy=-263.92860406228743 field_type=dipole dipole="0.000000 0.000000 0.000000" charge=0
C	-1.883202	0.246511	0.001351	6
C	-0.403622	0.153251	0.000141	6
N	0.351897	1.258191	-0.005179	7
N	1.611038	0.792971	-0.004889	7
C	1.686237	-0.568149	0.000141	6
C	0.388638	-1.018179	0.003461	6
H	-2.222142	1.287601	0.015341	1
H	-2.295362	-0.255569	0.882311	1
H	-2.294922	-0.231989	-0.892839	1
H	2.370968	1.464471	-0.008379	1
H	2.635877	-1.083049	0.000861	1
H	0.054598	-2.046059	0.007681	1
Es	-2.143906	-0.070693	-0.588895	99
Es	-0.403647	0.153309	0.000139	99
Es	1.565863	0.605163	0.001767	99
Es	1.015511	1.017124	-0.002928	99
Es	-1.137261	0.194061	0.000772	99
Es	2.074681	1.182061	-0.006370	99
Es	-1.883154	0.246488	0.001348	99
Es	-2.114645	0.944148	0.010373	99
Es	0.728064	-0.726112	0.009313	99
Es	-0.046241	-0.463919	0.001055	99
Es	0.155007	-1.713410	0.005922	99
Es	2.329487	-0.909107	0.000012	99
Es	1.610971	0.792988	-0.004906	99
Es	0.352131	1.257593	-0.005178	99
Es	0.272001	1.626659	-0.003915	99
Es	0.388631	-1.018214	0.003461	99
Es	-2.159862	-0.104976	0.583406	99
Es	1.069125	-0.842917	-0.005216	99
Es	0.110577	0.758948	0.230625	99
Es	1.686346	-0.567961	0.000139	99
Es	0.043675	0.759505	-0.237315	99
Es	1.681894	0.206431	-0.011333	99
34
Properties=species:S:1:pos:R:3:Z:I:1 energy=-263.92860406228743 field_type=dipole dipole="0.000000 0.000000 0.000000" charge=0
C	-1.883202	0.246511	0.001351	6
C	-0.403622	0.153251	0.000141	6
N	0.351897	1.258191	-0.005179	7
N	1.611038	0.792971	-0.004889	7
C	1.686237	-0.568149	0.000141	6
C	0.388638	-1.018179	0.003461	6
H	-2.222142	1.287601	0.015341	1
H	-2.295362	-0.255569	0.882311	1
H	-2.294922	-0.231989	-0.892839	1
H	2.370968	1.464471	-0.008379	1
H	2.635877	-1.083049	0.000861	1
H	0.054598	-2.046059	0.007681	1
Es	0.155064	-1.713414	0.005520	99
Es	0.352129	1.257596	-0.005170	99
Es	-0.403646	0.153309	0.000144	99
Es	0.388630	-1.018215	0.003449	99
Es	0.114696	0.757170	-0.225961	99
Es	1.610971	0.792988	-0.004911	99
Es	-1.137232	0.194007	0.000480	99
Es	2.074744	1.181990	-0.005251	99
Es	-2.149887	-0.092960	0.585619	99
Es	2.329540	-0.909036	0.001356	99
Es	1.686346	-0.567961	0.000142	99
Es	-1.883154	0.246485	0.001353	99
Es	1.566026	0.605072	-0.009470	99
Es	0.271949	1.626473	-0.007100	99
Es	0.727432	-0.726369	-0.013565	99
Es	1.015611	1.017287	-0.006134	99
Es	-2.153828	-0.082683	-0.591867	99
Es	1.681826	0.206365	0.002841	99
Es	-2.114738	0.944125	0.010616	99
Es	1.068898	-0.842627	0.019243	99
Es	0.040105	0.761527	0.220251	99
Es	-0.046234	-0.463957	0.000693	99
34
Properties=species:S:1:pos:R:3:Z:I:1 energy=-263.92860406228743 field_type=dipole dipole="0.000000 0.000000 0.000000" charge=0
C	-1.883202	0.246511	0.001351	6
C	-0.403622	0.153251	0.000141	6
N	0.351897	1.258191	-0.005179	7
N	1.611038	0.792971	-0.004889	7
C	1.686237	-0.568149	0.000141	6
C	0.388638	-1.018179	0.003461	6
H	-2.222142	1.287601	0.015341	1
H	-2.295362	-0.255569	0.882311	1
H	-2.294922	-0.231989	-0.892839	1
H	2.370968	1.464471	-0.008379	1
H	2.635877	-1.083049	0.000861	1
H	0.054598	-2.046059	0.007681	1
Es	0.111802	0.758708	0.228700	99
Es	-2.161809	-0.107265	0.581390	99
Es	1.069074	-0.842760	-0.005491	99
Es	0.154973	-1.713415	0.005543	99
Es	0.352128	1.257592	-0.005178	99
Es	-2.141932	-0.068299	-0.587267	99
Es	0.727543	-0.725903	0.010321	99
Es	2.329538	-0.909053	0.000013	99
Es	0.042836	0.759543	-0.236105	99
Es	-0.403647	0.153310	0.000140	99
Es	-0.046206	-0.463891	0.000365	99
Es	1.566139	0.605045	0.002279	99
Es	-2.114780	0.944054	0.010539	99
Es	0.388634	-1.018212	0.003425	99
Es	-1.883152	0.246489	0.001351	99
Es	2.074763	1.182020	-0.005718	99
Es	1.686347	-0.567960	0.000139	99
Es	1.015589	1.017277	-0.003354	99
Es	0.271836	1.626496	-0.002777	99
Es	1.610972	0.792988	-0.004875	99
Es	-1.137197	0.193951	0.000867	99
Es	1.681798	0.206456	-0.012031	99
34
Properties=species:S:1:pos:R:3:Z:I:1 energy=-263.92860406228743 field_type=dipole dipole="0.000000 0.000000 0.000000" charge=0
C	-1.883202	0.246511	0.001351	6
C	-0.403622	0.153251	0.000141	6
N	0.351897	1.258191	-0.005179	7
N	1.611038	0.792971	-0.004889	7
C	1.686237	-0.568149	0.000141	6
C	0.388638	-1.018179	0.003461	6
H	-2.222142	1.287601	0.015341	1
H	-2.295362	-0.255569	0.882311	1
H	-2.294922	-0.231989	-0.892839	1
H	2.370968	1.464471	-0.008379	1
H	2.635877	-1.083049	0.000861	1
H	0.054598	-2.046059	0.007681	1
Es	1.068923	-0.842619	0.019273	99
Es	1.566339	0.604685	-0.006099	99
Es	-2.150249	-0.092984	0.585718	99
Es	1.681768	0.206381	0.000175	99
Es	0.154932	-1.713362	0.005699	99
Es	0.388631	-1.018215	0.003449	99
Es	1.610972	0.792988	-0.004890	99
Es	2.329575	-0.909022	0.001498	99
Es	0.352136	1.257595	-0.005190	99
Es	-1.883152	0.246484	0.001350	99
Es	0.272142	1.626180	-0.007107	99
Es	-2.114456	0.943955	0.010546	99
Es	-2.153787	-0.082482	-0.592137	99
Es	1.686346	-0.567961	0.000136	99
Es	-0.403647	0.153309	0.000139	99
Es	0.726584	-0.726238	-0.013403	99
Es	0.036868	0.761844	0.212167	99
Es	1.015646	1.017340	-0.006782	99
Es	2.074812	1.181948	-0.005277	99
Es	-0.046097	-0.463915	0.000379	99
Es	0.118185	0.757314	-0.217953	99
Es	-1.137222	0.193944	0.000589	99
34
Properties=species:S:1:pos:R:3:Z:I:1 energy=-263.92860406228743 field_type=dipole dipole="0.000000 0.000000 0.000000" charge=0
C	-1.883202	0.246511	0.001351	6
C	-0.403622	0.153251	0.000141	6
N	0.351897	1.258191	-0.005179	7
N	1.611038	0.792971	-0.004889	7
C	1.686237	-0.568149	0.000141	6
C	0.388638	-1.018179	0.003461	6
H	-2.222142	1.287601	0.015341	1
H	-2.295362	-0.255569	0.882311	1
H	-2.294922	-0.231989	-0.892839	1
H	2.370968	1.464471	-0.008379	1
H	2.635877	-1.083049	0.000861	1
H	0.054598	-2.046059	0.007681	1
Es	0.271926	1.626046	-0.003378	99
Es	0.726386	-0.725827	0.012430	99
Es	2.329567	-0.908996	-0.000213	99
Es	2.074852	1.181912	-0.006530	99
Es	-1.137219	0.194058	0.000966	99
Es	0.038039	0.760114	-0.224266	99
Es	-0.046156	-0.463840	0.001452	99
Es	-2.160224	-0.105218	0.583162	99
Es	0.154950	-1.713378	0.005808	99
Es	-1.883155	0.246489	0.001350	99
Es	0.352125	1.257592	-0.005178	99
Es	1.566549	0.604434	0.001263	99
Es	1.686346	-0.567961	0.000139	99
Es	-0.403647	0.153310	0.000130	99
Es	1.681713	0.206467	-0.009914	99
Es	-2.114617	0.943893	0.010369	99
Es	1.069067	-0.842796	-0.008578	99
Es	1.610969	0.792977	-0.005034	99
Es	-2.143663	-0.070378	-0.588810	99
Es	0.117110	0.758861	0.217362	99
Es	0.388631	-1.018214	0.003457	99
Es	1.015700	1.017625	-0.003712	99
