35
Properties=species:S:1:pos:R:3:Z:I:1 energy=-247.83628899377248 field_type=dipole dipole="0.000000 0.000000 0.000000" charge=0
C	-2.803754	-0.194459	-0.528135	6
C	-1.604674	-0.130469	-0.551815	6
C	-0.165284	-0.051959	-0.586995	6
C	0.497126	0.994761	0.334405	6
C	1.495636	-0.131449	0.651965	6
N	0.434836	-1.094869	0.282345	7
H	-3.866964	-0.256159	-0.500305	1
H	0.248996	-0.052019	-1.603935	1
H	-0.102344	1.312811	1.196555	1
H	0.914516	1.876881	-0.158085	1
H	2.368576	-0.159459	-0.010765	1
H	1.830736	-0.190939	1.690624	1
H	0.752596	-1.922669	-0.215855	1
Es	-0.165333	-0.052047	-0.586896	99
Es	0.146463	-0.683953	-0.149601	99
Es	-2.234439	0.089950	-0.800007	99
Es	0.945338	-0.731296	0.443037	99
Es	0.639753	-1.586598	-0.035858	99
Es	0.497130	0.994694	0.334360	99
Es	2.092538	-0.147384	0.186288	99
Es	1.495511	-0.131523	0.651908	99
Es	0.780469	1.599550	-0.005745	99
Es	0.105949	-0.049345	-1.277653	99
Es	-0.919155	-0.086976	-0.585891	99
Es	-2.191838	-0.508599	-0.632407	99
Es	1.733421	-0.174970	1.363974	99
Es	-2.214721	-0.062871	-0.194454	99
Es	-1.604446	-0.130452	-0.551828	99
Es	-3.498223	-0.234394	-0.509881	99
Es	-2.803999	-0.194472	-0.528129	99
Es	0.089053	1.198093	0.914049	99
Es	1.052776	0.495409	0.529660	99
Es	0.224593	-1.158733	0.555939	99
Es	0.089776	0.533719	-0.171801	99
Es	0.435202	-1.094698	0.281884	99
35
Properties=species:S:1:pos:R:3:Z:I:1 energy=-247.83628899377248 field_type=dipole dipole="0.000000 0.000000 0.000000" charge=0
C	-2.803754	-0.194459	-0.528135	6
C	-1.604674	-0.130469	-0.551815	6
C	-0.165284	-0.051959	-0.586995	6
C	0.497126	0.994761	0.334405	6
C	1.495636	-0.131449	0.651965	6
N	0.434836	-1.094869	0.282345	7
H	-3.866964	-0.256159	-0.500305	1
H	0.248996	-0.052019	-1.603935	1
H	-0.102344	1.312811	1.196555	1
H	0.914516	1.876881	-0.158085	1
H	2.368576	-0.159459	-0.010765	1
H	1.830736	-0.190939	1.690624	1
H	0.752596	-1.922669	-0.215855	1
Es	0.779353	1.598396	-0.004976	99
Es	1.731783	-0.174614	1.362469	99
Es	1.054521	0.494612	0.531296	99
Es	0.090825	0.532918	-0.173575	99
Es	0.106897	-0.049384	-1.275106	99
Es	-2.197521	-0.481425	-0.697901	99
Es	-1.604437	-0.130451	-0.551825	99
Es	0.143606	-0.683989	-0.148425	99
Es	-0.921022	-0.086730	-0.585955	99
Es	2.094787	-0.147360	0.185955	99
Es	1.495514	-0.131521	0.651908	99
Es	-2.232339	0.132207	-0.741327	99
Es	0.497133	0.994694	0.334361	99
Es	0.089116	1.198932	0.913301	99
Es	-2.804005	-0.194472	-0.528127	99
Es	-2.210826	-0.132637	-0.187219	99
Es	0.226218	-1.163007	0.555485	99
Es	0.638551	-1.582191	-0.036859	99
Es	-3.500126	-0.234090	-0.510680	99
Es	0.947914	-0.730029	0.443157	99
Es	-0.165335	-0.052047	-0.586897	99
Es	0.435211	-1.094705	0.281887	99
35
Properties=species:S:1:pos:R:3:Z:I:1 energy=-247.83628899377248 field_type=dipole dipole="0.000000 0.000000 0.000000" charge=0
C	-2.803754	-0.194459	-0.528135	6
C	-1.604674	-0.130469	-0.551815	6
C	-0.165284	-0.051959	-0.586995	6
C	0.497126	0.994761	0.334405	6
C	1.495636	-0.131449	0.651965	6
N	0.434836	-1.094869	0.282345	7
H	-3.866964	-0.256159	-0.500305	1
H	0.248996	-0.052019	-1.603935	1
H	-0.102344	1.312811	1.196555	1
H	0.914516	1.876881	-0.158085	1
H	2.368576	-0.159459	-0.010765	1
H	1.830736	-0.190939	1.690624	1
H	0.752596	-1.922669	-0.215855	1
Es	0.091497	0.532570	-0.174817	99
Es	0.637117	-1.577647	-0.037331	99
Es	-2.232728	0.112496	-0.761041	99
Es	1.056514	0.494156	0.532481	99
Es	1.730270	-0.174410	1.360847	99
Es	-0.922084	-0.086564	-0.586060	99
Es	2.096716	-0.147229	0.186076	99
Es	0.435223	-1.094696	0.281873	99
Es	0.950177	-0.729639	0.442211	99
Es	-2.212613	-0.104028	-0.193202	99
Es	-3.500927	-0.233898	-0.511064	99
Es	-2.804014	-0.194471	-0.528125	99
Es	0.107245	-0.049563	-1.273374	99
Es	0.497133	0.994694	0.334361	99
Es	0.139794	-0.683828	-0.146949	99
Es	1.495515	-0.131522	0.651906	99
Es	0.228846	-1.166992	0.555133	99
Es	0.778000	1.597197	-0.004183	99
Es	-0.165335	-0.052047	-0.586897	99
Es	-2.195227	-0.490534	-0.671885	99
Es	0.089129	1.199529	0.912817	99
Es	-1.604430	-0.130471	-0.551828	99
35
Properties=species:S:1:pos:R:3:Z:I:1 energy=-247.83628899377248 field_type=dipole dipole="0.000000 0.000000 0.000000" charge=0
C	-2.803754	-0.194459	-0.528135	6
C	-1.604674	-0.130469	-0.551815	6
C	-0.165284	-0.051959	-0.586995	6
C	0.497126	0.994761	0.334405	6
C	1.495636	-0.131449	0.651965	6
N	0.434836	-1.094869	0.282345	7
H	-3.866964	-0.256159	-0.500305	1
H	0.248996	-0.052019	-1.603935	1
H	-0.102344	1.312811	1.196555	1
H	0.914516	1.876881	-0.158085	1
H	2.368576	-0.159459	-0.010765	1
H	1.830736	-0.190939	1.690624	1
H	0.752596	-1.922669	-0.215855	1
Es	1.728535	-0.174090	1.358860	99
Es	-2.195625	-0.487726	-0.676299	99
Es	1.058668	0.494401	0.533304	99
Es	0.952043	-0.730017	0.441265	99
Es	0.497133	0.994693	0.334361	99
Es	0.136187	-0.683524	-0.145479	99
Es	-2.804014	-0.194471	-0.528120	99
Es	0.107405	-0.049752	-1.272008	99
Es	0.231377	-1.170935	0.554564	99
Es	0.435238	-1.094690	0.281873	99
Es	0.776438	1.595725	-0.003613	99
Es	2.098735	-0.147372	0.186859	99
Es	0.089398	1.200268	0.912418	99
Es	0.091706	0.532064	-0.175629	99
Es	-3.501315	-0.234041	-0.511244	99
Es	-0.922767	-0.086362	-0.586174	99
Es	-0.165337	-0.052047	-0.586897	99
Es	-1.604430	-0.130454	-0.551823	99
Es	-2.212413	-0.107608	-0.194500	99
Es	1.495514	-0.131523	0.651910	99
Es	0.635828	-1.572724	-0.037460	99
Es	-2.232488	0.113289	-0.755220	99
35
Properties=species:S:1:pos:R:3:Z:I:1 energy=-247.83628899377248 field_type=dipole dipole="0.000000 0.000000 0.000000" charge=0
C	-2.803754	-0.194459	-0.528135	6
C	-1.604674	-0.130469	-0.551815	6
C	-0.165284	-0.051959	-0.586995	6
C	0.497126	0.994761	0.334405	6
C	1.495636	-0.131449	0.651965	6
N	0.434836	-1.094869	0.282345	7
H	-3.866964	-0.256159	-0.500305	1
H	0.248996	-0.052019	-1.603935	1
H	-0.102344	1.312811	1.196555	1
H	0.914516	1.876881	-0.158085	1
H	2.368576	-0.159459	-0.010765	1
H	1.830736	-0.190939	1.690624	1
H	0.752596	-1.922669	-0.215855	1
Es	0.774870	1.594378	-0.002853	99
Es	0.953799	-0.730786	0.439811	99
Es	0.107523	-0.049882	-1.271103	99
Es	1.495519	-0.131519	0.651909	99
Es	0.091825	0.531768	-0.176162	99
Es	1.060844	0.494732	0.533649	99
Es	0.234939	-1.174715	0.553513	99
Es	-2.804017	-0.194470	-0.528112	99
Es	-2.212304	-0.110508	-0.195931	99
Es	-0.923186	-0.086277	-0.586263	99
Es	2.100649	-0.147508	0.188076	99
Es	0.089631	1.200625	0.912184	99
Es	-1.604428	-0.130451	-0.551824	99
Es	0.634465	-1.567477	-0.037225	99
Es	-0.165337	-0.052041	-0.586897	99
Es	-2.195904	-0.486054	-0.679735	99
Es	1.726808	-0.173758	1.356698	99
Es	0.435229	-1.094729	0.281864	99
Es	0.131583	-0.683388	-0.143462	99
Es	-3.501537	-0.234045	-0.511329	99
Es	-2.232286	0.114521	-0.750219	99
Es	0.497134	0.994691	0.334360	99
35
Properties=species:S:1:pos:R:3:Z:I:1 energy=-247.83628899377248 field_type=dipole dipole="0.000000 0.000000 0.000000" charge=0
C	-2.803754	-0.194459	-0.528135	6
C	-1.604674	-0.130469	-0.551815	6
C	-0.165284	-0.051959	-0.586995	6
C	0.497126	0.994761	0.334405	6
C	1.495636	-0.131449	0.651965	6
N	0.434836	-1.094869	0.282345	7
H	-3.866964	-0.256159	-0.500305	1
H	0.248996	-0.052019	-1.603935	1
H	-0.102344	1.312811	1.196555	1
H	0.914516	1.876881	-0.158085	1
H	2.368576	-0.159459	-0.010765	1
H	1.830736	-0.190939	1.690624	1
H	0.752596	-1.922669	-0.215855	1
Es	-2.804018	-0.194472	-0.528124	99
Es	0.107672	-0.050026	-1.270505	99
Es	2.102438	-0.147734	0.189616	99
Es	0.091948	0.531538	-0.176627	99
Es	0.239455	-1.177112	0.552092	99
Es	-2.204719	-0.436729	-0.762296	99
Es	-2.206066	-0.206792	-0.199438	99
Es	-3.501671	-0.233970	-0.510995	99
Es	0.089619	1.201007	0.912072	99
Es	-2.229692	0.161486	-0.664387	99
Es	0.497134	0.994691	0.334361	99
Es	0.435240	-1.094698	0.281859	99
Es	0.955331	-0.731791	0.437635	99
Es	-0.923452	-0.086268	-0.586327	99
Es	1.495515	-0.131522	0.651908	99
Es	1.062932	0.495253	0.533803	99
Es	0.632928	-1.563223	-0.036365	99
Es	-0.165338	-0.052046	-0.586898	99
Es	0.773368	1.592876	-0.002169	99
Es	1.725179	-0.173473	1.354308	99
Es	0.126440	-0.683440	-0.140753	99
Es	-1.604427	-0.130449	-0.551821	99
35
Properties=species:S:1:pos:R:3:Z:I:1 energy=-247.83628899377248 field_type=dipole dipole="0.000000 0.000000 0.000000" charge=0
C	-2.803754	-0.194459	-0.528135	6
C	-1.604674	-0.130469	-0.551815	6
C	-0.165284	-0.051959	-0.586995	6
C	0.497126	0.994761	0.334405	6
C	1.495636	-0.131449	0.651965	6
N	0.434836	-1.094869	0.282345	7
H	-3.866964	-0.256159	-0.500305	1
H	0.248996	-0.052019	-1.603935	1
H	-0.102344	1.312811	1.196555	1
H	0.914516	1.876881	-0.158085	1
H	2.368576	-0.159459	-0.010765	1
H	1.830736	-0.190939	1.690624	1
H	0.752596	-1.922669	-0.215855	1
Es	-2.190541	-0.504502	-0.608213	99
Es	0.242768	-1.179899	0.550788	99
Es	0.089976	1.200969	0.911888	99
Es	-0.165338	-0.052046	-0.586896	99
Es	0.956576	-0.733144	0.435398	99
Es	0.772236	1.592033	-0.001619	99
Es	2.103906	-0.147769	0.191200	99
Es	0.631502	-1.557965	-0.035051	99
Es	0.122227	-0.683556	-0.138820	99
Es	-2.216081	-0.033707	-0.214402	99
Es	-1.604428	-0.130455	-0.551827	99
Es	0.435226	-1.094701	0.281876	99
Es	0.107847	-0.050277	-1.270048	99
Es	-2.804018	-0.194474	-0.528122	99
Es	1.495515	-0.131527	0.651917	99
Es	0.091893	0.531255	-0.176667	99
Es	-3.501715	-0.234538	-0.511011	99
Es	1.723812	-0.173071	1.352036	99
Es	-2.233856	0.056211	-0.803125	99
Es	-0.923668	-0.085854	-0.586656	99
Es	1.064846	0.495432	0.533943	99
Es	0.497134	0.994688	0.334359	99
35
Properties=species:S:1:pos:R:3:Z:I:1 energy=-247.83628899377248 field_type=dipole dipole="0.000000 0.000000 0.000000" charge=0
C	-2.803754	-0.194459	-0.528135	6
C	-1.604674	-0.130469	-0.551815	6
C	-0.165284	-0.051959	-0.586995	6
C	0.497126	0.994761	0.334405	6
C	1.495636	-0.131449	0.651965	6
N	0.434836	-1.094869	0.282345	7
H	-3.866964	-0.256159	-0.500305	1
H	0.248996	-0.052019	-1.603935	1
H	-0.102344	1.312811	1.196555	1
H	0.914516	1.876881	-0.158085	1
H	2.368576	-0.159459	-0.010765	1
H	1.830736	-0.190939	1.690624	1
H	0.752596	-1.922669	-0.215855	1
Es	-0.923753	-0.085941	-0.586733	99
Es	0.092328	0.530981	-0.176672	99
Es	0.630590	-1.553990	-0.034601	99
Es	0.089671	1.201201	0.912062	99
Es	-2.804020	-0.194478	-0.528119	99
Es	-3.501754	-0.234721	-0.510431	99
Es	2.105099	-0.147818	0.192629	99
Es	-2.231898	-0.137494	-0.881623	99
Es	0.435233	-1.094705	0.281865	99
Es	0.108199	-0.050678	-1.270158	99
Es	1.495515	-0.131527	0.651921	99
Es	0.245060	-1.182132	0.550166	99
Es	0.771076	1.590733	-0.001156	99
Es	0.497134	0.994692	0.334361	99
Es	-0.165340	-0.052048	-0.586896	99
Es	1.722735	-0.172886	1.349741	99
Es	-1.604428	-0.130461	-0.551809	99
Es	1.066467	0.495932	0.533913	99
Es	-2.222554	0.125690	-0.339862	99
Es	-2.186038	-0.469837	-0.404412	99
Es	0.957368	-0.734021	0.433351	99
Es	0.119128	-0.683387	-0.136590	99
35
Properties=species:S:1:pos:R:3:Z:I:1 energy=-247.83628899377248 field_type=dipole dipole="0.000000 0.000000 0.000000" charge=0
C	-2.803754	-0.194459	-0.528135	6
C	-1.604674	-0.130469	-0.551815	6
C	-0.165284	-0.051959	-0.586995	6
C	0.497126	0.994761	0.334405	6
C	1.495636	-0.131449	0.651965	6
N	0.434836	-1.094869	0.282345	7
H	-3.866964	-0.256159	-0.500305	1
H	0.248996	-0.052019	-1.603935	1
H	-0.102344	1.312811	1.196555	1
H	0.914516	1.876881	-0.158085	1
H	2.368576	-0.159459	-0.010765	1
H	1.830736	-0.190939	1.690624	1
H	0.752596	-1.922669	-0.215855	1
Es	0.252152	-1.183174	0.545390	99
Es	-0.165339	-0.052047	-0.586899	99
Es	0.769651	1.589216	-0.000309	99
Es	-2.228896	0.169818	-0.635574	99
Es	-2.804018	-0.194475	-0.528121	99
Es	1.068417	0.496901	0.533424	99
Es	0.958260	-0.735388	0.431705	99
Es	1.495516	-0.131524	0.651909	99
Es	-2.204130	-0.234235	-0.207921	99
Es	0.108558	-0.050729	-1.270065	99
Es	-1.604426	-0.130450	-0.551817	99
Es	-3.501798	-0.234451	-0.510483	99
Es	0.497135	0.994688	0.334359	99
Es	-0.923864	-0.085764	-0.586443	99
Es	0.092177	0.530587	-0.176803	99
Es	0.089730	1.201265	0.911888	99
Es	2.106050	-0.148072	0.194114	99
Es	0.111480	-0.684455	-0.131372	99
Es	0.629566	-1.549793	-0.033377	99
Es	1.721804	-0.172580	1.348111	99
Es	0.435239	-1.094705	0.281867	99
Es	-2.207445	-0.417527	-0.782637	99
35
Properties=species:S:1:pos:R:3:Z:I:1 energy=-247.83628899377248 field_type=dipole dipole="0.000000 0.000000 0.000000" charge=0
C	-2.803754	-0.194459	-0.528135	6
C	-1.604674	-0.130469	-0.551815	6
C	-0.165284	-0.051959	-0.586995	6
C	0.497126	0.994761	0.334405	6
C	1.495636	-0.131449	0.651965	6
N	0.434836	-1.094869	0.282345	7
H	-3.866964	-0.256159	-0.500305	1
H	0.248996	-0.052019	-1.603935	1
H	-0.102344	1.312811	1.196555	1
H	0.914516	1.876881	-0.158085	1
H	2.368576	-0.159459	-0.010765	1
H	1.830736	-0.190939	1.690624	1
H	0.752596	-1.922669	-0.215855	1
Es	0.108817	-0.050841	-1.270035	99
Es	1.720993	-0.172432	1.345934	99
Es	-3.501794	-0.234852	-0.509973	99
Es	-0.165340	-0.052046	-0.586897	99
Es	0.497135	0.994688	0.334357	99
Es	0.769000	1.588616	-0.000098	99
Es	1.069489	0.497146	0.533411	99
Es	2.106937	-0.148137	0.195606	99
Es	1.495517	-0.131522	0.651907	99
Es	-2.224229	0.162753	-0.413627	99
Es	0.628764	-1.546905	-0.032385	99
Es	-2.189053	-0.421863	-0.332297	99
Es	0.110846	-0.684357	-0.131105	99
Es	0.252312	-1.184543	0.545669	99
Es	-2.804019	-0.194475	-0.528119	99
Es	-1.604425	-0.130454	-0.551821	99
Es	0.435238	-1.094688	0.281853	99
Es	-2.227204	-0.222555	-0.880123	99
Es	0.089339	1.201176	0.912071	99
Es	-0.923929	-0.085763	-0.586846	99
Es	0.092667	0.530387	-0.176530	99
Es	0.958760	-0.736227	0.429997	99
35
Properties=species:S:1:pos:R:3:Z:I:1 energy=-247.83628899377248 field_type=dipole dipole="0.000000 0.000000 0.000000" charge=0
C	-2.803754	-0.194459	-0.528135	6
C	-1.604674	-0.130469	-0.551815	6
C	-0.165284	-0.051959	-0.586995	6
C	0.497126	0.994761	0.334405	6
C	1.495636	-0.131449	0.651965	6
N	0.434836	-1.094869	0.282345	7
H	-3.866964	-0.256159	-0.500305	1
H	0.248996	-0.052019	-1.603935	1
H	-0.102344	1.312811	1.196555	1
H	0.914516	1.876881	-0.158085	1
H	2.368576	-0.159459	-0.010765	1
H	1.830736	-0.190939	1.690624	1
H	0.752596	-1.922669	-0.215855	1
Es	0.628055	-1.541972	-0.031131	99
Es	-2.234282	0.031711	-0.821133	99
Es	2.107562	-0.147995	0.196762	99
Es	-2.189000	-0.505158	-0.578409	99
Es	1.720377	-0.172117	1.344542	99
Es	-1.604426	-0.130447	-0.551817	99
Es	0.092330	0.530356	-0.176307	99
Es	-2.804019	-0.194477	-0.528120	99
Es	-3.501787	-0.235227	-0.510200	99
Es	-0.924015	-0.085245	-0.586776	99
Es	0.497135	0.994686	0.334357	99
Es	-0.165339	-0.052047	-0.586897	99
Es	0.108822	-0.051404	-1.269777	99
Es	1.495516	-0.131524	0.651913	99
Es	0.435246	-1.094696	0.281856	99
Es	0.090203	1.201118	0.911812	99
Es	0.104838	-0.685645	-0.126737	99
Es	0.257448	-1.186158	0.541223	99
Es	0.768656	1.588336	0.000177	99
Es	-2.217187	-0.008478	-0.226413	99
Es	1.070605	0.496686	0.533542	99
Es	0.959080	-0.737200	0.428483	99
35
Properties=species:S:1:pos:R:3:Z:I:1 energy=-247.83628899377248 field_type=dipole dipole="0.000000 0.000000 0.000000" charge=0
C	-2.803754	-0.194459	-0.528135	6
C	-1.604674	-0.130469	-0.551815	6
C	-0.165284	-0.051959	-0.586995	6
C	0.497126	0.994761	0.334405	6
C	1.495636	-0.131449	0.651965	6
N	0.434836	-1.094869	0.282345	7
H	-3.866964	-0.256159	-0.500305	1
H	0.248996	-0.052019	-1.603935	1
H	-0.102344	1.312811	1.196555	1
H	0.914516	1.876881	-0.158085	1
H	2.368576	-0.159459	-0.010765	1
H	1.830736	-0.190939	1.690624	1
H	0.752596	-1.922669	-0.215855	1
Es	0.435232	-1.094742	0.281868	99
Es	-2.199451	-0.466007	-0.713116	99
Es	0.767439	1.586829	0.000908	99
Es	1.072212	0.497693	0.532890	99
Es	0.497134	0.994689	0.334358	99
Es	-0.924038	-0.085324	-0.586708	99
Es	0.261822	-1.185711	0.537340	99
Es	-2.209769	-0.150598	-0.196564	99
Es	1.720048	-0.171998	1.343789	99
Es	0.109183	-0.051322	-1.269906	99
Es	-0.165338	-0.052050	-0.586894	99
Es	0.091983	0.530050	-0.176307	99
Es	1.495516	-0.131523	0.651909	99
Es	0.627572	-1.539738	-0.030353	99
Es	0.090206	1.201180	0.911773	99
Es	-1.604425	-0.130448	-0.551819	99
Es	-3.501802	-0.235142	-0.510108	99
Es	0.959314	-0.737671	0.427413	99
Es	-2.231247	0.134683	-0.716350	99
Es	0.100341	-0.687138	-0.122449	99
Es	2.107904	-0.148132	0.197391	99
Es	-2.804019	-0.194476	-0.528118	99
35
Properties=species:S:1:pos:R:3:Z:I:1 energy=-247.83628899377248 field_type=dipole dipole="0.000000 0.000000 0.000000" charge=0
C	-2.803754	-0.194459	-0.528135	6
C	-1.604674	-0.130469	-0.551815	6
C	-0.165284	-0.051959	-0.586995	6
C	0.497126	0.994761	0.334405	6
C	1.495636	-0.131449	0.651965	6
N	0.434836	-1.094869	0.282345	7
H	-3.866964	-0.256159	-0.500305	1
H	0.248996	-0.052019	-1.603935	1
H	-0.102344	1.312811	1.196555	1
H	0.914516	1.876881	-0.158085	1
H	2.368576	-0.159459	-0.010765	1
H	1.830736	-0.190939	1.690624	1
H	0.752596	-1.922669	-0.215855	1
Es	0.092103	0.529539	-0.176089	99
Es	-3.501808	-0.235056	-0.509756	99
Es	0.435221	-1.094744	0.281867	99
Es	0.626996	-1.536996	-0.029427	99
Es	-1.604426	-0.130448	-0.551823	99
Es	0.097002	-0.688120	-0.119194	99
Es	-0.165340	-0.052047	-0.586896	99
Es	-2.201402	-0.267561	-0.217972	99
Es	0.767343	1.586582	0.000894	99
Es	-2.228149	0.177321	-0.604899	99
Es	1.719776	-0.172006	1.342809	99
Es	0.497135	0.994687	0.334359	99
Es	1.072442	0.497675	0.533031	99
Es	1.495516	-0.131523	0.651912	99
Es	0.089689	1.201254	0.911902	99
Es	2.108215	-0.148182	0.198007	99
Es	-0.924055	-0.085281	-0.586752	99
Es	0.959856	-0.738665	0.425854	99
Es	-2.210922	-0.391630	-0.803339	99
Es	0.109853	-0.051251	-1.270238	99
Es	0.264793	-1.185966	0.534817	99
Es	-2.804020	-0.194475	-0.528121	99
35
Properties=species:S:1:pos:R:3:Z:I:1 energy=-247.83628899377248 field_type=dipole dipole="0.000000 0.000000 0.000000" charge=0
C	-2.803754	-0.194459	-0.528135	6
C	-1.604674	-0.130469	-0.551815	6
C	-0.165284	-0.051959	-0.586995	6
C	0.497126	0.994761	0.334405	6
C	1.495636	-0.131449	0.651965	6
N	0.434836	-1.094869	0.282345	7
H	-3.866964	-0.256159	-0.500305	1
H	0.248996	-0.052019	-1.603935	1
H	-0.102344	1.312811	1.196555	1
H	0.914516	1.876881	-0.158085	1
H	2.368576	-0.159459	-0.010765	1
H	1.830736	-0.190939	1.690624	1
H	0.752596	-1.922669	-0.215855	1
Es	0.959830	-0.739249	0.424732	99
Es	-2.216152	-0.037066	-0.217433	99
Es	0.265504	-1.187265	0.533799	99
Es	0.767019	1.586562	0.001087	99
Es	-1.604425	-0.130453	-0.551820	99
Es	-2.190461	-0.502920	-0.605354	99
Es	2.108672	-0.148010	0.198964	99
Es	0.095584	-0.688028	-0.118583	99
Es	1.719309	-0.171725	1.341694	99
Es	0.090600	1.200967	0.911717	99
Es	1.495517	-0.131523	0.651909	99
Es	0.626421	-1.533997	-0.028378	99
Es	0.497135	0.994688	0.334359	99
Es	0.091743	0.529514	-0.175511	99
Es	1.073454	0.497075	0.532968	99
Es	0.435255	-1.094660	0.281842	99
Es	-2.233862	0.058242	-0.803152	99
Es	0.109913	-0.051746	-1.270062	99
Es	-0.924105	-0.085101	-0.586939	99
Es	-0.165340	-0.052045	-0.586897	99
Es	-2.804020	-0.194475	-0.528124	99
Es	-3.501775	-0.235682	-0.509871	99
35
Properties=species:S:1:pos:R:3:Z:I:1 energy=-247.83628899377248 field_type=dipole dipole="0.000000 0.000000 0.000000" charge=0
C	-2.803754	-0.194459	-0.528135	6
C	-1.604674	-0.130469	-0.551815	6
C	-0.165284	-0.051959	-0.586995	6
C	0.497126	0.994761	0.334405	6
C	1.495636	-0.131449	0.651965	6
N	0.434836	-1.094869	0.282345	7
H	-3.866964	-0.256159	-0.500305	1
H	0.248996	-0.052019	-1.603935	1
H	-0.102344	1.312811	1.196555	1
H	0.914516	1.876881	-0.158085	1
H	2.368576	-0.159459	-0.010765	1
H	1.830736	-0.190939	1.690624	1
H	0.752596	-1.922669	-0.215855	1
Es	-0.924126	-0.085046	-0.587040	99
Es	0.497135	0.994688	0.334359	99
Es	-2.232703	-0.116033	-0.878467	99
Es	-2.804019	-0.194483	-0.528123	99
Es	0.435242	-1.094696	0.281832	99
Es	1.719073	-0.171696	1.340555	99
Es	0.089792	1.200995	0.912016	99
Es	0.092150	0.529004	-0.175347	99
Es	1.495517	-0.131521	0.651907	99
Es	-1.604425	-0.130449	-0.551820	99
Es	0.094447	-0.688314	-0.117418	99
Es	-2.185634	-0.477751	-0.420976	99
Es	0.266439	-1.187205	0.533610	99
Es	1.073430	0.496828	0.533213	99
Es	0.767149	1.586629	0.000891	99
Es	-0.165340	-0.052048	-0.586894	99
Es	-3.501752	-0.235862	-0.509371	99
Es	0.110557	-0.051589	-1.270447	99
Es	0.960067	-0.739709	0.423241	99
Es	0.626021	-1.532733	-0.027703	99
Es	2.108953	-0.148063	0.199558	99
Es	-2.222156	0.112157	-0.326624	99
35
Properties=species:S:1:pos:R:3:Z:I:1 energy=-247.83628899377248 field_type=dipole dipole="0.000000 0.000000 0.000000" charge=0
C	-2.803754	-0.194459	-0.528135	6
C	-1.604674	-0.130469	-0.551815	6
C	-0.165284	-0.051959	-0.586995	6
C	0.497126	0.994761	0.334405	6
C	1.495636	-0.131449	0.651965	6
N	0.434836	-1.094869	0.282345	7
H	-3.866964	-0.256159	-0.500305	1
H	0.248996	-0.052019	-1.603935	1
H	-0.102344	1.312811	1.196555	1
H	0.914516	1.876881	-0.158085	1
H	2.368576	-0.159459	-0.010765	1
H	1.830736	-0.190939	1.690624	1
H	0.752596	-1.922669	-0.215855	1
Es	-3.501758	-0.235737	-0.509108	99
Es	1.718870	-0.171630	1.339964	99
Es	-2.228553	-0.202868	-0.880812	99
Es	0.766615	1.585931	0.001186	99
Es	0.960282	-0.740237	0.422460	99
Es	-1.604425	-0.130448	-0.551821	99
Es	1.495517	-0.131523	0.651908	99
Es	0.092544	0.528895	-0.175553	99
Es	-2.804020	-0.194477	-0.528127	99
Es	0.110638	-0.051711	-1.270459	99
Es	0.497136	0.994688	0.334360	99
Es	2.109166	-0.148098	0.200037	99
Es	0.092333	-0.689110	-0.114863	99
Es	1.074044	0.497388	0.532898	99
Es	0.625752	-1.531233	-0.027347	99
Es	0.268520	-1.187206	0.531605	99
Es	0.089353	1.200964	0.912102	99
Es	-2.223954	0.155160	-0.401819	99
Es	0.435230	-1.094689	0.281856	99
Es	-0.924142	-0.084956	-0.587053	99
Es	-2.187989	-0.433953	-0.343569	99
Es	-0.165341	-0.052047	-0.586896	99
35
Properties=species:S:1:pos:R:3:Z:I:1 energy=-247.83628899377248 field_type=dipole dipole="0.000000 0.000000 0.000000" charge=0
C	-2.803754	-0.194459	-0.528135	6
C	-1.604674	-0.130469	-0.551815	6
C	-0.165284	-0.051959	-0.586995	6
C	0.497126	0.994761	0.334405	6
C	1.495636	-0.131449	0.651965	6
N	0.434836	-1.094869	0.282345	7
H	-3.866964	-0.256159	-0.500305	1
H	0.248996	-0.052019	-1.603935	1
H	-0.102344	1.312811	1.196555	1
H	0.914516	1.876881	-0.158085	1
H	2.368576	-0.159459	-0.010765	1
H	1.830736	-0.190939	1.690624	1
H	0.752596	-1.922669	-0.215855	1
Es	0.625517	-1.528174	-0.026448	99
Es	-2.804020	-0.194473	-0.528119	99
Es	1.495516	-0.131526	0.651923	99
Es	-2.189461	-0.503456	-0.585895	99
Es	0.110392	-0.052104	-1.270177	99
Es	-2.234159	0.044212	-0.816380	99
Es	0.088970	-0.690906	-0.111377	99
Es	0.766460	1.585973	0.001232	99
Es	2.109438	-0.147985	0.200714	99
Es	-1.604425	-0.130448	-0.551820	99
Es	0.960211	-0.740426	0.421873	99
Es	0.497135	0.994690	0.334361	99
Es	1.074688	0.496804	0.532985	99
Es	-2.216864	-0.022459	-0.223794	99
Es	0.091518	0.529155	-0.175158	99
Es	-0.924161	-0.084865	-0.586930	99
Es	-3.501746	-0.236081	-0.509514	99
Es	1.718584	-0.171495	1.339256	99
Es	0.271569	-1.187459	0.527521	99
Es	0.435229	-1.094727	0.281866	99
Es	-0.165340	-0.052047	-0.586897	99
Es	0.090768	1.200902	0.911726	99
35
Properties=species:S:1:pos:R:3:Z:I:1 energy=-247.83628899377248 field_type=dipole dipole="0.000000 0.000000 0.000000" charge=0
C	-2.803754	-0.194459	-0.528135	6
C	-1.604674	-0.130469	-0.551815	6
C	-0.165284	-0.051959	-0.586995	6
C	0.497126	0.994761	0.334405	6
C	1.495636	-0.131449	0.651965	6
N	0.434836	-1.094869	0.282345	7
H	-3.866964	-0.256159	-0.500305	1
H	0.248996	-0.052019	-1.603935	1
H	-0.102344	1.312811	1.196555	1
H	0.914516	1.876881	-0.158085	1
H	2.368576	-0.159459	-0.010765	1
H	1.830736	-0.190939	1.690624	1
H	0.752596	-1.922669	-0.215855	1
Es	-0.165341	-0.052048	-0.586895	99
Es	-2.226450	0.183294	-0.528414	99
Es	-1.604425	-0.130450	-0.551820	99
Es	-2.804019	-0.194475	-0.528118	99
Es	0.625177	-1.528553	-0.026083	99
Es	0.087337	-0.691954	-0.108888	99
Es	0.092010	0.528402	-0.175353	99
Es	0.435226	-1.094741	0.281860	99
Es	0.497136	0.994687	0.334359	99
Es	1.495517	-0.131521	0.651909	99
Es	1.075059	0.497349	0.532621	99
Es	0.089407	1.200950	0.912081	99
Es	0.960419	-0.740940	0.421172	99
Es	-2.218828	-0.323725	-0.844502	99
Es	-0.924162	-0.084931	-0.586927	99
Es	0.111124	-0.051355	-1.270648	99
Es	-3.501773	-0.235614	-0.509135	99
Es	1.718632	-0.171543	1.339267	99
Es	0.273442	-1.185519	0.525719	99
Es	-2.195208	-0.341331	-0.253331	99
Es	2.109414	-0.148191	0.200609	99
Es	0.766124	1.585314	0.001464	99
35
Properties=species:S:1:pos:R:3:Z:I:1 energy=-247.83628899377248 field_type=dipole dipole="0.000000 0.000000 0.000000" charge=0
C	-2.803754	-0.194459	-0.528135	6
C	-1.604674	-0.130469	-0.551815	6
C	-0.165284	-0.051959	-0.586995	6
C	0.497126	0.994761	0.334405	6
C	1.495636	-0.131449	0.651965	6
N	0.434836	-1.094869	0.282345	7
H	-3.866964	-0.256159	-0.500305	1
H	0.248996	-0.052019	-1.603935	1
H	-0.102344	1.312811	1.196555	1
H	0.914516	1.876881	-0.158085	1
H	2.368576	-0.159459	-0.010765	1
H	1.830736	-0.190939	1.690624	1
H	0.752596	-1.922669	-0.215855	1
Es	0.092080	0.528833	-0.175004	99
Es	-0.165341	-0.052047	-0.586897	99
Es	0.090211	1.200775	0.911953	99
Es	0.624987	-1.525503	-0.025562	99
Es	0.435229	-1.094710	0.281862	99
Es	0.273857	-1.187576	0.525006	99
Es	0.086308	-0.691802	-0.108325	99
Es	0.960350	-0.741130	0.420397	99
Es	-0.924204	-0.084760	-0.587061	99
Es	0.766414	1.586006	0.001206	99
Es	-2.185721	-0.498014	-0.483855	99
Es	1.075092	0.496306	0.533161	99
Es	0.110791	-0.052270	-1.270324	99
Es	-3.501713	-0.236374	-0.509097	99
Es	-2.234243	-0.045805	-0.863869	99
Es	-2.220533	0.062232	-0.278413	99
Es	-1.604425	-0.130448	-0.551821	99
Es	1.718377	-0.171416	1.338217	99
Es	1.495518	-0.131521	0.651907	99
Es	-2.804020	-0.194477	-0.528120	99
Es	2.109668	-0.147882	0.201227	99
Es	0.497135	0.994687	0.334359	99
35
Properties=species:S:1:pos:R:3:Z:I:1 energy=-247.83628899377248 field_type=dipole dipole="0.000000 0.000000 0.000000" charge=0
C	-2.803754	-0.194459	-0.528135	6
C	-1.604674	-0.130469	-0.551815	6
C	-0.165284	-0.051959	-0.586995	6
C	0.497126	0.994761	0.334405	6
C	1.495636	-0.131449	0.651965	6
N	0.434836	-1.094869	0.282345	7
H	-3.866964	-0.256159	-0.500305	1
H	0.248996	-0.052019	-1.603935	1
H	-0.102344	1.312811	1.196555	1
H	0.914516	1.876881	-0.158085	1
H	2.368576	-0.159459	-0.010765	1
H	1.830736	-0.190939	1.690624	1
H	0.752596	-1.922669	-0.215855	1
Es	0.435243	-1.094707	0.281847	99
Es	0.085230	-0.692373	-0.106716	99
Es	0.091615	0.528302	-0.174806	99
Es	1.718213	-0.171359	1.337768	99
Es	-2.233683	-0.079074	-0.872879	99
Es	-1.604425	-0.130447	-0.551821	99
Es	-2.804019	-0.194480	-0.528118	99
Es	0.766447	1.586149	0.001124	99
Es	0.090167	1.200704	0.911993	99
Es	0.274866	-1.187849	0.523744	99
Es	-0.924212	-0.084683	-0.587105	99
Es	0.497136	0.994686	0.334359	99
Es	0.624707	-1.523897	-0.025046	99
Es	1.075190	0.496077	0.533166	99
Es	-0.165341	-0.052046	-0.586898	99
Es	2.109835	-0.147956	0.201658	99
Es	1.495517	-0.131522	0.651909	99
Es	-2.185417	-0.489730	-0.451963	99
Es	0.111352	-0.051892	-1.270576	99
Es	0.960503	-0.741602	0.419639	99
Es	-2.221398	0.087185	-0.301362	99
Es	-3.501709	-0.236383	-0.508969	99
35
Properties=species:S:1:pos:R:3:Z:I:1 energy=-247.83628899377248 field_type=dipole dipole="0.000000 0.000000 0.000000" charge=0
C	-2.803754	-0.194459	-0.528135	6
C	-1.604674	-0.130469	-0.551815	6
C	-0.165284	-0.051959	-0.586995	6
C	0.497126	0.994761	0.334405	6
C	1.495636	-0.131449	0.651965	6
N	0.434836	-1.094869	0.282345	7
H	-3.866964	-0.256159	-0.500305	1
H	0.248996	-0.052019	-1.603935	1
H	-0.102344	1.312811	1.196555	1
H	0.914516	1.876881	-0.158085	1
H	2.368576	-0.159459	-0.010765	1
H	1.830736	-0.190939	1.690624	1
H	0.752596	-1.922669	-0.215855	1
Es	0.766133	1.585585	0.001297	99
Es	-0.924211	-0.084756	-0.587063	99
Es	-2.227025	-0.226981	-0.876862	99
Es	-2.224501	0.163357	-0.430587	99
Es	1.075481	0.496540	0.532942	99
Es	0.089268	1.200737	0.912168	99
Es	0.497135	0.994687	0.334358	99
Es	-2.188985	-0.417907	-0.318935	99
Es	0.435225	-1.094753	0.281865	99
Es	0.276773	-1.185924	0.521696	99
Es	-1.604425	-0.130448	-0.551821	99
Es	-0.165339	-0.052050	-0.586897	99
Es	0.083374	-0.693532	-0.104328	99
Es	-3.501717	-0.236198	-0.508725	99
Es	-2.804019	-0.194476	-0.528117	99
Es	1.718214	-0.171422	1.337720	99
Es	1.495518	-0.131520	0.651908	99
Es	0.624635	-1.524462	-0.024908	99
Es	0.092102	0.527950	-0.174887	99
Es	0.111777	-0.051657	-1.270760	99
Es	2.109845	-0.148010	0.201653	99
Es	0.960564	-0.741653	0.419231	99
35
Properties=species:S:1:pos:R:3:Z:I:1 energy=-247.83628899377248 field_type=dipole dipole="0.000000 0.000000 0.000000" charge=0
C	-2.803754	-0.194459	-0.528135	6
C	-1.604674	-0.130469	-0.551815	6
C	-0.165284	-0.051959	-0.586995	6
C	0.497126	0.994761	0.334405	6
C	1.495636	-0.131449	0.651965	6
N	0.434836	-1.094869	0.282345	7
H	-3.866964	-0.256159	-0.500305	1
H	0.248996	-0.052019	-1.603935	1
H	-0.102344	1.312811	1.196555	1
H	0.914516	1.876881	-0.158085	1
H	2.368576	-0.159459	-0.010765	1
H	1.830736	-0.190939	1.690624	1
H	0.752596	-1.922669	-0.215855	1
Es	-2.216773	-0.029521	-0.223412	99
Es	0.497136	0.994687	0.334359	99
Es	0.960413	-0.741718	0.418935	99
Es	-0.165342	-0.052047	-0.586897	99
Es	-2.804019	-0.194477	-0.528118	99
Es	-2.234137	0.048977	-0.818196	99
Es	-2.189580	-0.501132	-0.584559	99
Es	1.495516	-0.131523	0.651912	99
Es	0.091298	0.528465	-0.174659	99
Es	0.435218	-1.094711	0.281879	99
Es	1.718138	-0.171251	1.337683	99
Es	-3.501704	-0.236528	-0.509097	99
Es	0.080180	-0.695749	-0.100201	99
Es	-1.604425	-0.130447	-0.551821	99
Es	0.624474	-1.522300	-0.024345	99
Es	0.766347	1.586085	0.001155	99
Es	0.279767	-1.185299	0.517038	99
Es	0.111144	-0.052345	-1.270377	99
Es	0.090836	1.200693	0.911741	99
Es	2.109892	-0.147848	0.201821	99
Es	-0.924231	-0.084519	-0.587050	99
Es	1.075670	0.495612	0.533156	99
