35
Properties=species:S:1:pos:R:3:Z:I:1 energy=-247.83234818478323 field_type=dipole dipole="0.000000 0.000000 0.000000" charge=0
C	-2.697310	-0.013152	-0.536477	6
C	-1.497831	0.000768	-0.538277	6
C	-0.049941	0.017878	-0.545807	6
C	0.634299	1.028908	0.400353	6
N	1.651659	-0.005142	0.719383	7
C	0.658509	-1.038702	0.330173	6
H	-3.763641	-0.025542	-0.533087	1
H	0.364059	0.057248	-1.563427	1
H	0.045019	1.334558	1.273883	1
H	1.035339	1.927348	-0.078757	1
H	2.462500	0.025378	0.099963	1
H	1.080090	-1.892962	-0.208427	1
H	0.077250	-1.416592	1.180503	1
Es	-1.497586	0.000780	-0.538279	99
Es	1.769601	-0.015542	1.060716	99
Es	-2.107387	-0.287126	-0.759863	99
Es	0.257437	-1.282009	0.906846	99
Es	-2.697562	-0.013154	-0.536472	99
Es	0.219416	-0.568604	-0.156194	99
Es	-0.809125	0.009243	-0.553540	99
Es	0.221791	0.044101	-1.227483	99
Es	1.249152	0.486914	0.584949	99
Es	-2.105741	-0.059913	-0.178462	99
Es	0.634377	1.028774	0.400336	99
Es	0.228120	1.223030	0.991839	99
Es	0.948361	-1.624527	-0.041153	99
Es	0.658587	-1.038567	0.330163	99
Es	0.206086	0.582719	-0.117067	99
Es	1.260602	-0.496045	0.551272	99
Es	-0.050050	0.017877	-0.545781	99
Es	2.110928	0.014141	0.310028	99
Es	1.651439	-0.005121	0.718782	99
Es	0.910105	1.645282	0.069789	99
Es	-3.393352	-0.021250	-0.533618	99
Es	-2.112835	0.327924	-0.667406	99
35
Properties=species:S:1:pos:R:3:Z:I:1 energy=-247.83234818478323 field_type=dipole dipole="0.000000 0.000000 0.000000" charge=0
C	-2.697310	-0.013152	-0.536477	6
C	-1.497831	0.000768	-0.538277	6
C	-0.049941	0.017878	-0.545807	6
C	0.634299	1.028908	0.400353	6
N	1.651659	-0.005142	0.719383	7
C	0.658509	-1.038702	0.330173	6
H	-3.763641	-0.025542	-0.533087	1
H	0.364059	0.057248	-1.563427	1
H	0.045019	1.334558	1.273883	1
H	1.035339	1.927348	-0.078757	1
H	2.462500	0.025378	0.099963	1
H	1.080090	-1.892962	-0.208427	1
H	0.077250	-1.416592	1.180503	1
Es	-2.113052	0.315453	-0.685591	99
Es	1.261176	-0.497286	0.554044	99
Es	1.249936	0.487551	0.586974	99
Es	-2.697567	-0.013159	-0.536461	99
Es	1.757038	-0.014754	1.048923	99
Es	-2.105910	-0.036654	-0.181937	99
Es	0.222963	0.044031	-1.225146	99
Es	0.909184	1.644509	0.070042	99
Es	0.227946	1.223508	0.991562	99
Es	2.124381	0.013952	0.317091	99
Es	0.947426	-1.623877	-0.040975	99
Es	-2.106725	-0.297944	-0.738537	99
Es	-0.811477	0.009210	-0.553882	99
Es	0.207325	0.581082	-0.118588	99
Es	-0.050050	0.017875	-0.545778	99
Es	0.634378	1.028774	0.400336	99
Es	0.658585	-1.038565	0.330166	99
Es	1.651492	-0.005127	0.718873	99
Es	0.257304	-1.282424	0.906524	99
Es	-1.497581	0.000771	-0.538276	99
Es	0.220843	-0.566720	-0.157138	99
Es	-3.395249	-0.021281	-0.532825	99
35
Properties=species:S:1:pos:R:3:Z:I:1 energy=-247.83234818478323 field_type=dipole dipole="0.000000 0.000000 0.000000" charge=0
C	-2.697310	-0.013152	-0.536477	6
C	-1.497831	0.000768	-0.538277	6
C	-0.049941	0.017878	-0.545807	6
C	0.634299	1.028908	0.400353	6
N	1.651659	-0.005142	0.719383	7
C	0.658509	-1.038702	0.330173	6
H	-3.763641	-0.025542	-0.533087	1
H	0.364059	0.057248	-1.563427	1
H	0.045019	1.334558	1.273883	1
H	1.035339	1.927348	-0.078757	1
H	2.462500	0.025378	0.099963	1
H	1.080090	-1.892962	-0.208427	1
H	0.077250	-1.416592	1.180503	1
Es	0.946515	-1.623119	-0.040482	99
Es	1.262084	-0.497684	0.555066	99
Es	-2.106555	0.018496	-0.184626	99
Es	0.257195	-1.282761	0.906321	99
Es	0.634378	1.028774	0.400336	99
Es	-0.050051	0.017876	-0.545780	99
Es	-2.105251	-0.323703	-0.689180	99
Es	2.134999	0.013811	0.326020	99
Es	-2.697573	-0.013150	-0.536465	99
Es	-2.113787	0.286009	-0.732110	99
Es	0.207880	0.579701	-0.119386	99
Es	0.221377	-0.565439	-0.158300	99
Es	-1.497577	0.000767	-0.538278	99
Es	1.746985	-0.014777	1.037482	99
Es	0.223646	0.044046	-1.223672	99
Es	-3.396011	-0.021344	-0.532733	99
Es	0.908158	1.643596	0.070322	99
Es	0.658584	-1.038561	0.330167	99
Es	1.651428	-0.005127	0.718733	99
Es	1.250769	0.488263	0.588469	99
Es	0.227952	1.223986	0.991414	99
Es	-0.812779	0.009269	-0.553915	99
35
Properties=species:S:1:pos:R:3:Z:I:1 energy=-247.83234818478323 field_type=dipole dipole="0.000000 0.000000 0.000000" charge=0
C	-2.697310	-0.013152	-0.536477	6
C	-1.497831	0.000768	-0.538277	6
C	-0.049941	0.017878	-0.545807	6
C	0.634299	1.028908	0.400353	6
N	1.651659	-0.005142	0.719383	7
C	0.658509	-1.038702	0.330173	6
H	-3.763641	-0.025542	-0.533087	1
H	0.364059	0.057248	-1.563427	1
H	0.045019	1.334558	1.273883	1
H	1.035339	1.927348	-0.078757	1
H	2.462500	0.025378	0.099963	1
H	1.080090	-1.892962	-0.208427	1
H	0.077250	-1.416592	1.180503	1
Es	0.227768	1.224315	0.991367	99
Es	1.251648	0.488941	0.589643	99
Es	-0.813577	0.009261	-0.553886	99
Es	1.739430	-0.014673	1.025836	99
Es	-2.112996	0.309690	-0.686661	99
Es	0.208153	0.578582	-0.120038	99
Es	0.658583	-1.038568	0.330164	99
Es	-1.497575	0.000771	-0.538275	99
Es	2.142962	0.013648	0.335264	99
Es	-2.697578	-0.013147	-0.536460	99
Es	-3.396387	-0.021318	-0.532740	99
Es	0.907191	1.642622	0.070768	99
Es	0.945414	-1.622179	-0.040019	99
Es	1.263085	-0.498363	0.555808	99
Es	-2.105858	-0.034550	-0.185258	99
Es	-0.050051	0.017875	-0.545778	99
Es	0.634377	1.028768	0.400338	99
Es	0.221374	-0.564163	-0.158937	99
Es	-2.106698	-0.294357	-0.733978	99
Es	0.224520	0.043999	-1.222763	99
Es	0.257157	-1.283105	0.906249	99
Es	1.651423	-0.005123	0.718757	99
35
Properties=species:S:1:pos:R:3:Z:I:1 energy=-247.83234818478323 field_type=dipole dipole="0.000000 0.000000 0.000000" charge=0
C	-2.697310	-0.013152	-0.536477	6
C	-1.497831	0.000768	-0.538277	6
C	-0.049941	0.017878	-0.545807	6
C	0.634299	1.028908	0.400353	6
N	1.651659	-0.005142	0.719383	7
C	0.658509	-1.038702	0.330173	6
H	-3.763641	-0.025542	-0.533087	1
H	0.364059	0.057248	-1.563427	1
H	0.045019	1.334558	1.273883	1
H	1.035339	1.927348	-0.078757	1
H	2.462500	0.025378	0.099963	1
H	1.080090	-1.892962	-0.208427	1
H	0.077250	-1.416592	1.180503	1
Es	1.733685	-0.014287	1.015649	99
Es	0.634378	1.028772	0.400336	99
Es	1.264252	-0.499037	0.556162	99
Es	-0.814076	0.009371	-0.553650	99
Es	0.906220	1.641488	0.071197	99
Es	0.257076	-1.283482	0.906210	99
Es	1.651414	-0.005122	0.718709	99
Es	-0.050050	0.017875	-0.545778	99
Es	1.252454	0.489396	0.589872	99
Es	2.148920	0.013560	0.344274	99
Es	0.225136	0.043988	-1.222346	99
Es	0.221411	-0.563190	-0.159471	99
Es	0.658584	-1.038574	0.330164	99
Es	-3.396611	-0.021510	-0.532659	99
Es	0.944387	-1.621059	-0.039396	99
Es	-2.103847	-0.342105	-0.622286	99
Es	0.227671	1.224696	0.991397	99
Es	0.208190	0.577486	-0.120757	99
Es	-1.497574	0.000770	-0.538277	99
Es	-2.107010	0.087386	-0.197467	99
Es	-2.114668	0.235662	-0.786024	99
Es	-2.697577	-0.013158	-0.536457	99
35
Properties=species:S:1:pos:R:3:Z:I:1 energy=-247.83234818478323 field_type=dipole dipole="0.000000 0.000000 0.000000" charge=0
C	-2.697310	-0.013152	-0.536477	6
C	-1.497831	0.000768	-0.538277	6
C	-0.049941	0.017878	-0.545807	6
C	0.634299	1.028908	0.400353	6
N	1.651659	-0.005142	0.719383	7
C	0.658509	-1.038702	0.330173	6
H	-3.763641	-0.025542	-0.533087	1
H	0.364059	0.057248	-1.563427	1
H	0.045019	1.334558	1.273883	1
H	1.035339	1.927348	-0.078757	1
H	2.462500	0.025378	0.099963	1
H	1.080090	-1.892962	-0.208427	1
H	0.077250	-1.416592	1.180503	1
Es	-0.814375	0.009207	-0.553439	99
Es	1.253502	0.490307	0.590317	99
Es	0.634378	1.028771	0.400335	99
Es	-2.115080	0.192119	-0.821759	99
Es	0.208066	0.576639	-0.121125	99
Es	0.943305	-1.619833	-0.038835	99
Es	0.658585	-1.038562	0.330165	99
Es	-1.497573	0.000770	-0.538274	99
Es	-2.103056	-0.348064	-0.567597	99
Es	-2.697578	-0.013156	-0.536462	99
Es	0.225846	0.044120	-1.222152	99
Es	1.651417	-0.005121	0.718694	99
Es	0.256946	-1.283835	0.906248	99
Es	1.265197	-0.499924	0.556664	99
Es	-0.050051	0.017876	-0.545777	99
Es	-3.396739	-0.021479	-0.532491	99
Es	-2.107379	0.136895	-0.216487	99
Es	0.905178	1.640355	0.071862	99
Es	1.729716	-0.013967	1.006124	99
Es	0.227580	1.224860	0.991371	99
Es	0.221342	-0.562269	-0.159955	99
Es	2.153140	0.013219	0.351973	99
35
Properties=species:S:1:pos:R:3:Z:I:1 energy=-247.83234818478323 field_type=dipole dipole="0.000000 0.000000 0.000000" charge=0
C	-2.697310	-0.013152	-0.536477	6
C	-1.497831	0.000768	-0.538277	6
C	-0.049941	0.017878	-0.545807	6
C	0.634299	1.028908	0.400353	6
N	1.651659	-0.005142	0.719383	7
C	0.658509	-1.038702	0.330173	6
H	-3.763641	-0.025542	-0.533087	1
H	0.364059	0.057248	-1.563427	1
H	0.045019	1.334558	1.273883	1
H	1.035339	1.927348	-0.078757	1
H	2.462500	0.025378	0.099963	1
H	1.080090	-1.892962	-0.208427	1
H	0.077250	-1.416592	1.180503	1
Es	1.651415	-0.005125	0.718696	99
Es	0.207869	0.575735	-0.121629	99
Es	-2.112782	0.311672	-0.664803	99
Es	-0.050051	0.017879	-0.545779	99
Es	0.904170	1.638915	0.072387	99
Es	-2.105169	-0.057029	-0.186376	99
Es	0.256932	-1.284103	0.906204	99
Es	-2.697579	-0.013156	-0.536463	99
Es	1.726469	-0.013824	0.997628	99
Es	0.658584	-1.038561	0.330163	99
Es	1.266125	-0.500658	0.556644	99
Es	-1.497572	0.000773	-0.538265	99
Es	-2.107538	-0.273932	-0.754401	99
Es	0.226687	0.044169	-1.221997	99
Es	2.156546	0.012992	0.359345	99
Es	0.227329	1.225207	0.991393	99
Es	1.254501	0.491261	0.590578	99
Es	-3.396834	-0.021316	-0.532561	99
Es	-0.814626	0.009284	-0.553476	99
Es	0.221168	-0.561371	-0.160018	99
Es	0.634378	1.028771	0.400334	99
Es	0.942343	-1.618655	-0.038203	99
35
Properties=species:S:1:pos:R:3:Z:I:1 energy=-247.83234818478323 field_type=dipole dipole="0.000000 0.000000 0.000000" charge=0
C	-2.697310	-0.013152	-0.536477	6
C	-1.497831	0.000768	-0.538277	6
C	-0.049941	0.017878	-0.545807	6
C	0.634299	1.028908	0.400353	6
N	1.651659	-0.005142	0.719383	7
C	0.658509	-1.038702	0.330173	6
H	-3.763641	-0.025542	-0.533087	1
H	0.364059	0.057248	-1.563427	1
H	0.045019	1.334558	1.273883	1
H	1.035339	1.927348	-0.078757	1
H	2.462500	0.025378	0.099963	1
H	1.080090	-1.892962	-0.208427	1
H	0.077250	-1.416592	1.180503	1
Es	0.256540	-1.284045	0.906241	99
Es	1.723983	-0.013366	0.988344	99
Es	1.267197	-0.502202	0.557310	99
Es	-2.109680	-0.214909	-0.814356	99
Es	0.658585	-1.038562	0.330164	99
Es	0.227106	0.044282	-1.221864	99
Es	0.634378	1.028771	0.400336	99
Es	-2.111705	0.327441	-0.584845	99
Es	-3.396883	-0.021251	-0.532382	99
Es	0.941267	-1.617457	-0.037383	99
Es	-0.050053	0.017876	-0.545779	99
Es	-2.697580	-0.013153	-0.536462	99
Es	0.221429	-0.560983	-0.160421	99
Es	1.255231	0.492443	0.590947	99
Es	1.651461	-0.005128	0.718898	99
Es	0.903268	1.637808	0.072936	99
Es	-0.814767	0.009274	-0.553366	99
Es	0.227120	1.225214	0.991420	99
Es	-2.104103	-0.131831	-0.206425	99
Es	2.159216	0.012752	0.366211	99
Es	-1.497573	0.000776	-0.538280	99
Es	0.207926	0.575176	-0.121843	99
35
Properties=species:S:1:pos:R:3:Z:I:1 energy=-247.83234818478323 field_type=dipole dipole="0.000000 0.000000 0.000000" charge=0
C	-2.697310	-0.013152	-0.536477	6
C	-1.497831	0.000768	-0.538277	6
C	-0.049941	0.017878	-0.545807	6
C	0.634299	1.028908	0.400353	6
N	1.651659	-0.005142	0.719383	7
C	0.658509	-1.038702	0.330173	6
H	-3.763641	-0.025542	-0.533087	1
H	0.364059	0.057248	-1.563427	1
H	0.045019	1.334558	1.273883	1
H	1.035339	1.927348	-0.078757	1
H	2.462500	0.025378	0.099963	1
H	1.080090	-1.892962	-0.208427	1
H	0.077250	-1.416592	1.180503	1
Es	2.160947	0.012632	0.371108	99
Es	0.228035	0.044225	-1.221906	99
Es	0.256496	-1.284241	0.906257	99
Es	-0.050052	0.017875	-0.545778	99
Es	0.207558	0.574351	-0.122001	99
Es	0.227102	1.225449	0.991451	99
Es	-2.111721	-0.140264	-0.858911	99
Es	-3.396916	-0.021151	-0.532105	99
Es	-2.103185	-0.205468	-0.249383	99
Es	-2.110586	0.326301	-0.497562	99
Es	-0.814893	0.009192	-0.553215	99
Es	0.902368	1.636373	0.073547	99
Es	1.256095	0.493706	0.591361	99
Es	-1.497572	0.000772	-0.538275	99
Es	0.634378	1.028769	0.400335	99
Es	1.267889	-0.502996	0.557200	99
Es	0.658585	-1.038561	0.330165	99
Es	1.651429	-0.005124	0.718766	99
Es	1.722428	-0.013410	0.982169	99
Es	0.221035	-0.559993	-0.160473	99
Es	0.940524	-1.616354	-0.036890	99
Es	-2.697580	-0.013155	-0.536461	99
35
Properties=species:S:1:pos:R:3:Z:I:1 energy=-247.83234818478323 field_type=dipole dipole="0.000000 0.000000 0.000000" charge=0
C	-2.697310	-0.013152	-0.536477	6
C	-1.497831	0.000768	-0.538277	6
C	-0.049941	0.017878	-0.545807	6
C	0.634299	1.028908	0.400353	6
N	1.651659	-0.005142	0.719383	7
C	0.658509	-1.038702	0.330173	6
H	-3.763641	-0.025542	-0.533087	1
H	0.364059	0.057248	-1.563427	1
H	0.045019	1.334558	1.273883	1
H	1.035339	1.927348	-0.078757	1
H	2.462500	0.025378	0.099963	1
H	1.080090	-1.892962	-0.208427	1
H	0.077250	-1.416592	1.180503	1
Es	-1.497571	0.000771	-0.538273	99
Es	0.207574	0.573912	-0.122165	99
Es	-2.114974	0.179078	-0.831074	99
Es	1.256976	0.494765	0.591218	99
Es	0.939615	-1.614977	-0.036106	99
Es	-0.050052	0.017876	-0.545780	99
Es	-2.103409	-0.338808	-0.557845	99
Es	-0.814978	0.009162	-0.553248	99
Es	0.901605	1.635211	0.074118	99
Es	0.256148	-1.284297	0.906293	99
Es	1.651489	-0.005127	0.718867	99
Es	1.720775	-0.012856	0.975017	99
Es	-2.107108	0.140808	-0.216876	99
Es	0.228555	0.044071	-1.221810	99
Es	1.268607	-0.504553	0.557562	99
Es	0.658586	-1.038558	0.330164	99
Es	0.226953	1.225458	0.991433	99
Es	0.221059	-0.559530	-0.160630	99
Es	2.162658	0.012477	0.376718	99
Es	0.634378	1.028769	0.400334	99
Es	-2.697580	-0.013154	-0.536466	99
Es	-3.396939	-0.021570	-0.532048	99
35
Properties=species:S:1:pos:R:3:Z:I:1 energy=-247.83234818478323 field_type=dipole dipole="0.000000 0.000000 0.000000" charge=0
C	-2.697310	-0.013152	-0.536477	6
C	-1.497831	0.000768	-0.538277	6
C	-0.049941	0.017878	-0.545807	6
C	0.634299	1.028908	0.400353	6
N	1.651659	-0.005142	0.719383	7
C	0.658509	-1.038702	0.330173	6
H	-3.763641	-0.025542	-0.533087	1
H	0.364059	0.057248	-1.563427	1
H	0.045019	1.334558	1.273883	1
H	1.035339	1.927348	-0.078757	1
H	2.462500	0.025378	0.099963	1
H	1.080090	-1.892962	-0.208427	1
H	0.077250	-1.416592	1.180503	1
Es	0.226724	1.225416	0.991448	99
Es	0.256325	-1.284403	0.906228	99
Es	-0.050051	0.017883	-0.545777	99
Es	1.258141	0.496417	0.591510	99
Es	-1.497571	0.000771	-0.538275	99
Es	1.651412	-0.005120	0.718666	99
Es	0.938792	-1.613681	-0.035377	99
Es	0.658585	-1.038559	0.330164	99
Es	-0.815041	0.009039	-0.553207	99
Es	-2.697580	-0.013157	-0.536460	99
Es	-2.114765	0.209829	-0.807938	99
Es	-2.103967	-0.334907	-0.595601	99
Es	0.900678	1.633618	0.074961	99
Es	-3.396961	-0.021555	-0.532074	99
Es	-2.106754	0.106174	-0.202166	99
Es	0.229493	0.043940	-1.221901	99
Es	0.634378	1.028768	0.400334	99
Es	2.163731	0.012406	0.380488	99
Es	1.719870	-0.013086	0.970416	99
Es	0.207538	0.573333	-0.122085	99
Es	1.269140	-0.505607	0.556867	99
Es	0.220250	-0.558592	-0.160820	99
35
Properties=species:S:1:pos:R:3:Z:I:1 energy=-247.83234818478323 field_type=dipole dipole="0.000000 0.000000 0.000000" charge=0
C	-2.697310	-0.013152	-0.536477	6
C	-1.497831	0.000768	-0.538277	6
C	-0.049941	0.017878	-0.545807	6
C	0.634299	1.028908	0.400353	6
N	1.651659	-0.005142	0.719383	7
C	0.658509	-1.038702	0.330173	6
H	-3.763641	-0.025542	-0.533087	1
H	0.364059	0.057248	-1.563427	1
H	0.045019	1.334558	1.273883	1
H	1.035339	1.927348	-0.078757	1
H	2.462500	0.025378	0.099963	1
H	1.080090	-1.892962	-0.208427	1
H	0.077250	-1.416592	1.180503	1
Es	-2.109072	-0.231662	-0.799019	99
Es	1.651421	-0.005116	0.718663	99
Es	-2.104201	-0.105572	-0.195942	99
Es	-2.112207	0.317898	-0.610742	99
Es	0.229858	0.044654	-1.221739	99
Es	1.257936	0.497021	0.591336	99
Es	2.164854	0.012155	0.384875	99
Es	-3.396980	-0.021250	-0.532046	99
Es	0.207266	0.572626	-0.122448	99
Es	-0.815097	0.009293	-0.553195	99
Es	-1.497571	0.000771	-0.538275	99
Es	0.658585	-1.038560	0.330164	99
Es	1.718821	-0.012600	0.964804	99
Es	-2.697580	-0.013153	-0.536456	99
Es	1.270412	-0.507156	0.557254	99
Es	0.938020	-1.612138	-0.034468	99
Es	0.634378	1.028772	0.400334	99
Es	0.220934	-0.558779	-0.160897	99
Es	0.226416	1.225433	0.991438	99
Es	0.900345	1.632880	0.075251	99
Es	-0.050054	0.017877	-0.545779	99
Es	0.255884	-1.284468	0.906288	99
35
Properties=species:S:1:pos:R:3:Z:I:1 energy=-247.83234818478323 field_type=dipole dipole="0.000000 0.000000 0.000000" charge=0
C	-2.697310	-0.013152	-0.536477	6
C	-1.497831	0.000768	-0.538277	6
C	-0.049941	0.017878	-0.545807	6
C	0.634299	1.028908	0.400353	6
N	1.651659	-0.005142	0.719383	7
C	0.658509	-1.038702	0.330173	6
H	-3.763641	-0.025542	-0.533087	1
H	0.364059	0.057248	-1.563427	1
H	0.045019	1.334558	1.273883	1
H	1.035339	1.927348	-0.078757	1
H	2.462500	0.025378	0.099963	1
H	1.080090	-1.892962	-0.208427	1
H	0.077250	-1.416592	1.180503	1
Es	0.255705	-1.284398	0.906289	99
Es	-2.697581	-0.013155	-0.536456	99
Es	1.718257	-0.012445	0.960548	99
Es	-2.102617	-0.327112	-0.453189	99
Es	0.634378	1.028768	0.400335	99
Es	0.899700	1.631600	0.075818	99
Es	0.658585	-1.038561	0.330164	99
Es	-2.108185	0.220703	-0.277720	99
Es	-3.396981	-0.021496	-0.531689	99
Es	0.937581	-1.611363	-0.034001	99
Es	-2.114691	0.087345	-0.875111	99
Es	1.270590	-0.508190	0.557523	99
Es	0.207236	0.572407	-0.122558	99
Es	0.230216	0.044268	-1.221796	99
Es	1.258762	0.498306	0.591544	99
Es	0.226435	1.225505	0.991438	99
Es	-0.050054	0.017878	-0.545778	99
Es	-1.497571	0.000771	-0.538275	99
Es	0.220797	-0.558212	-0.160944	99
Es	2.165513	0.012168	0.387616	99
Es	-0.815125	0.009260	-0.553021	99
Es	1.651416	-0.005120	0.718664	99
35
Properties=species:S:1:pos:R:3:Z:I:1 energy=-247.83234818478323 field_type=dipole dipole="0.000000 0.000000 0.000000" charge=0
C	-2.697310	-0.013152	-0.536477	6
C	-1.497831	0.000768	-0.538277	6
C	-0.049941	0.017878	-0.545807	6
C	0.634299	1.028908	0.400353	6
N	1.651659	-0.005142	0.719383	7
C	0.658509	-1.038702	0.330173	6
H	-3.763641	-0.025542	-0.533087	1
H	0.364059	0.057248	-1.563427	1
H	0.045019	1.334558	1.273883	1
H	1.035339	1.927348	-0.078757	1
H	2.462500	0.025378	0.099963	1
H	1.080090	-1.892962	-0.208427	1
H	0.077250	-1.416592	1.180503	1
Es	2.166187	0.012070	0.390722	99
Es	-2.114452	0.241188	-0.775212	99
Es	0.634378	1.028768	0.400335	99
Es	-2.697581	-0.013160	-0.536464	99
Es	0.658585	-1.038559	0.330165	99
Es	1.270938	-0.509202	0.557040	99
Es	-2.104935	-0.322675	-0.642315	99
Es	0.230902	0.044002	-1.221787	99
Es	0.220411	-0.557463	-0.160848	99
Es	0.226419	1.225678	0.991451	99
Es	-1.497571	0.000772	-0.538275	99
Es	0.207003	0.572074	-0.122618	99
Es	-3.396997	-0.021482	-0.531972	99
Es	0.937011	-1.610249	-0.033451	99
Es	1.651675	-0.005138	0.719306	99
Es	0.255663	-1.284417	0.906238	99
Es	-0.815163	0.009017	-0.553105	99
Es	1.259800	0.500081	0.591178	99
Es	0.898881	1.629653	0.076689	99
Es	-0.050052	0.017873	-0.545777	99
Es	-2.106093	0.062490	-0.188123	99
Es	1.717355	-0.012396	0.956226	99
35
Properties=species:S:1:pos:R:3:Z:I:1 energy=-247.83234818478323 field_type=dipole dipole="0.000000 0.000000 0.000000" charge=0
C	-2.697310	-0.013152	-0.536477	6
C	-1.497831	0.000768	-0.538277	6
C	-0.049941	0.017878	-0.545807	6
C	0.634299	1.028908	0.400353	6
N	1.651659	-0.005142	0.719383	7
C	0.658509	-1.038702	0.330173	6
H	-3.763641	-0.025542	-0.533087	1
H	0.364059	0.057248	-1.563427	1
H	0.045019	1.334558	1.273883	1
H	1.035339	1.927348	-0.078757	1
H	2.462500	0.025378	0.099963	1
H	1.080090	-1.892962	-0.208427	1
H	0.077250	-1.416592	1.180503	1
Es	1.717258	-0.012156	0.953897	99
Es	1.272102	-0.510642	0.557189	99
Es	-2.697581	-0.013156	-0.536463	99
Es	1.259328	0.500435	0.591204	99
Es	-0.815188	0.009176	-0.553052	99
Es	-3.396993	-0.021549	-0.531618	99
Es	0.226197	1.225496	0.991424	99
Es	0.255406	-1.284549	0.906301	99
Es	0.231174	0.044385	-1.221674	99
Es	-0.050054	0.017876	-0.545780	99
Es	-2.102614	-0.328945	-0.459985	99
Es	-2.114774	0.093143	-0.872451	99
Es	0.634379	1.028765	0.400335	99
Es	-1.497572	0.000777	-0.538276	99
Es	2.166597	0.012055	0.392608	99
Es	0.936429	-1.608857	-0.032770	99
Es	0.658585	-1.038559	0.330165	99
Es	0.898721	1.629424	0.076852	99
Es	0.220546	-0.557488	-0.161148	99
Es	1.651415	-0.005123	0.718692	99
Es	-2.108103	0.216802	-0.273605	99
Es	0.207107	0.571618	-0.122445	99
35
Properties=species:S:1:pos:R:3:Z:I:1 energy=-247.83234818478323 field_type=dipole dipole="0.000000 0.000000 0.000000" charge=0
C	-2.697310	-0.013152	-0.536477	6
C	-1.497831	0.000768	-0.538277	6
C	-0.049941	0.017878	-0.545807	6
C	0.634299	1.028908	0.400353	6
N	1.651659	-0.005142	0.719383	7
C	0.658509	-1.038702	0.330173	6
H	-3.763641	-0.025542	-0.533087	1
H	0.364059	0.057248	-1.563427	1
H	0.045019	1.334558	1.273883	1
H	1.035339	1.927348	-0.078757	1
H	2.462500	0.025378	0.099963	1
H	1.080090	-1.892962	-0.208427	1
H	0.077250	-1.416592	1.180503	1
Es	-0.050053	0.017872	-0.545778	99
Es	-1.497571	0.000770	-0.538274	99
Es	0.226084	1.225542	0.991461	99
Es	0.207068	0.571445	-0.122650	99
Es	0.898205	1.628082	0.077435	99
Es	1.271899	-0.511271	0.556847	99
Es	0.255472	-1.284457	0.906274	99
Es	1.651513	-0.005135	0.719085	99
Es	1.716699	-0.012124	0.950604	99
Es	-2.114516	0.065099	-0.880602	99
Es	0.220215	-0.556906	-0.160979	99
Es	-0.815208	0.009148	-0.553004	99
Es	0.658586	-1.038557	0.330165	99
Es	0.231601	0.044036	-1.221706	99
Es	0.634379	1.028767	0.400335	99
Es	0.936121	-1.608280	-0.032399	99
Es	-2.102473	-0.321225	-0.427753	99
Es	-3.396999	-0.021454	-0.531575	99
Es	-2.108500	0.237074	-0.297665	99
Es	1.260337	0.501748	0.590994	99
Es	-2.697580	-0.013157	-0.536455	99
Es	2.167084	0.011909	0.395044	99
35
Properties=species:S:1:pos:R:3:Z:I:1 energy=-247.83234818478323 field_type=dipole dipole="0.000000 0.000000 0.000000" charge=0
C	-2.697310	-0.013152	-0.536477	6
C	-1.497831	0.000768	-0.538277	6
C	-0.049941	0.017878	-0.545807	6
C	0.634299	1.028908	0.400353	6
N	1.651659	-0.005142	0.719383	7
C	0.658509	-1.038702	0.330173	6
H	-3.763641	-0.025542	-0.533087	1
H	0.364059	0.057248	-1.563427	1
H	0.045019	1.334558	1.273883	1
H	1.035339	1.927348	-0.078757	1
H	2.462500	0.025378	0.099963	1
H	1.080090	-1.892962	-0.208427	1
H	0.077250	-1.416592	1.180503	1
Es	2.167663	0.011732	0.398205	99
Es	-2.109388	-0.224567	-0.801826	99
Es	0.220122	-0.556613	-0.160840	99
Es	1.260570	0.503120	0.591170	99
Es	-0.050054	0.017875	-0.545779	99
Es	-0.815236	0.009281	-0.553070	99
Es	1.272527	-0.512370	0.556904	99
Es	0.935691	-1.607216	-0.031810	99
Es	0.231866	0.043891	-1.221600	99
Es	0.225817	1.225529	0.991439	99
Es	0.658586	-1.038558	0.330164	99
Es	0.897753	1.626822	0.078049	99
Es	-2.697580	-0.013152	-0.536456	99
Es	-1.497571	0.000771	-0.538275	99
Es	-2.103985	-0.113510	-0.198141	99
Es	1.651515	-0.005134	0.719090	99
Es	0.207163	0.571359	-0.122963	99
Es	-3.397014	-0.021241	-0.531789	99
Es	0.255477	-1.284511	0.906214	99
Es	1.716167	-0.012058	0.946150	99
Es	0.634379	1.028766	0.400336	99
Es	-2.112105	0.318711	-0.605770	99
35
Properties=species:S:1:pos:R:3:Z:I:1 energy=-247.83234818478323 field_type=dipole dipole="0.000000 0.000000 0.000000" charge=0
C	-2.697310	-0.013152	-0.536477	6
C	-1.497831	0.000768	-0.538277	6
C	-0.049941	0.017878	-0.545807	6
C	0.634299	1.028908	0.400353	6
N	1.651659	-0.005142	0.719383	7
C	0.658509	-1.038702	0.330173	6
H	-3.763641	-0.025542	-0.533087	1
H	0.364059	0.057248	-1.563427	1
H	0.045019	1.334558	1.273883	1
H	1.035339	1.927348	-0.078757	1
H	2.462500	0.025378	0.099963	1
H	1.080090	-1.892962	-0.208427	1
H	0.077250	-1.416592	1.180503	1
Es	1.272824	-0.512859	0.556612	99
Es	0.225835	1.225602	0.991416	99
Es	0.219845	-0.556281	-0.161252	99
Es	-0.050055	0.017876	-0.545779	99
Es	0.255362	-1.284493	0.906187	99
Es	1.260782	0.504009	0.591241	99
Es	0.897463	1.625950	0.078430	99
Es	-2.109925	0.307738	-0.430278	99
Es	1.715910	-0.012161	0.944431	99
Es	0.232324	0.044042	-1.221645	99
Es	-2.112843	-0.075526	-0.880007	99
Es	0.207074	0.570911	-0.122604	99
Es	-0.815231	0.009165	-0.552905	99
Es	0.658586	-1.038556	0.330164	99
Es	-2.697581	-0.013155	-0.536458	99
Es	0.634379	1.028767	0.400335	99
Es	0.935469	-1.606682	-0.031517	99
Es	-1.497571	0.000768	-0.538275	99
Es	-2.102724	-0.251455	-0.295812	99
Es	1.651620	-0.005147	0.719474	99
Es	-3.397007	-0.021305	-0.531503	99
Es	2.167831	0.011720	0.399145	99
35
Properties=species:S:1:pos:R:3:Z:I:1 energy=-247.83234818478323 field_type=dipole dipole="0.000000 0.000000 0.000000" charge=0
C	-2.697310	-0.013152	-0.536477	6
C	-1.497831	0.000768	-0.538277	6
C	-0.049941	0.017878	-0.545807	6
C	0.634299	1.028908	0.400353	6
N	1.651659	-0.005142	0.719383	7
C	0.658509	-1.038702	0.330173	6
H	-3.763641	-0.025542	-0.533087	1
H	0.364059	0.057248	-1.563427	1
H	0.045019	1.334558	1.273883	1
H	1.035339	1.927348	-0.078757	1
H	2.462500	0.025378	0.099963	1
H	1.080090	-1.892962	-0.208427	1
H	0.077250	-1.416592	1.180503	1
Es	0.206811	0.570605	-0.122915	99
Es	0.935058	-1.605589	-0.030940	99
Es	1.651533	-0.005123	0.718921	99
Es	-2.111823	0.321285	-0.585420	99
Es	-0.050054	0.017875	-0.545779	99
Es	2.168330	0.011644	0.402119	99
Es	-3.397016	-0.021349	-0.531612	99
Es	-2.103863	-0.130368	-0.205527	99
Es	0.634379	1.028767	0.400335	99
Es	0.225685	1.225492	0.991427	99
Es	1.273147	-0.514060	0.556634	99
Es	0.255438	-1.284565	0.906192	99
Es	1.715525	-0.011959	0.940994	99
Es	-2.697581	-0.013152	-0.536461	99
Es	0.232559	0.044395	-1.221463	99
Es	-1.497571	0.000771	-0.538275	99
Es	0.219968	-0.556268	-0.160943	99
Es	0.897193	1.625236	0.078784	99
Es	-2.109794	-0.210152	-0.814934	99
Es	0.658587	-1.038555	0.330164	99
Es	-0.815261	0.009212	-0.553120	99
Es	1.261116	0.504786	0.591220	99
35
Properties=species:S:1:pos:R:3:Z:I:1 energy=-247.83234818478323 field_type=dipole dipole="0.000000 0.000000 0.000000" charge=0
C	-2.697310	-0.013152	-0.536477	6
C	-1.497831	0.000768	-0.538277	6
C	-0.049941	0.017878	-0.545807	6
C	0.634299	1.028908	0.400353	6
N	1.651659	-0.005142	0.719383	7
C	0.658509	-1.038702	0.330173	6
H	-3.763641	-0.025542	-0.533087	1
H	0.364059	0.057248	-1.563427	1
H	0.045019	1.334558	1.273883	1
H	1.035339	1.927348	-0.078757	1
H	2.462500	0.025378	0.099963	1
H	1.080090	-1.892962	-0.208427	1
H	0.077250	-1.416592	1.180503	1
Es	1.261007	0.505433	0.591070	99
Es	-0.050051	0.017875	-0.545775	99
Es	-2.103866	-0.140466	-0.211110	99
Es	0.233069	0.044259	-1.221455	99
Es	-2.697581	-0.013156	-0.536460	99
Es	-1.497571	0.000771	-0.538275	99
Es	0.225714	1.225520	0.991398	99
Es	-2.109996	-0.202342	-0.821567	99
Es	-0.815269	0.009237	-0.553156	99
Es	0.206473	0.570283	-0.123075	99
Es	-2.111616	0.323510	-0.573131	99
Es	1.715420	-0.012004	0.939655	99
Es	0.219927	-0.555899	-0.160759	99
Es	0.896963	1.624552	0.079059	99
Es	0.634378	1.028769	0.400334	99
Es	0.934719	-1.604547	-0.030392	99
Es	0.255272	-1.284615	0.906208	99
Es	1.651424	-0.005122	0.718735	99
Es	0.658585	-1.038556	0.330162	99
Es	-3.397019	-0.021325	-0.531655	99
Es	2.168553	0.011640	0.403513	99
Es	1.273829	-0.514890	0.556075	99
