35
Properties=species:S:1:pos:R:3:Z:I:1 energy=-247.83709959669974 field_type=dipole dipole="0.000000 0.000000 0.000000" charge=0
C	0.918026	-2.591733	0.253345	6
C	0.104806	-1.722743	0.254435	6
C	-0.881864	-0.668403	0.255755	6
C	-0.087734	0.597797	0.365905	6
C	0.412706	1.308357	-0.867145	6
N	-0.691924	1.856397	-0.086815	7
H	1.644586	-3.371463	0.251085	1
H	-1.557504	-0.758963	1.112525	1
H	-1.488904	-0.692403	-0.655845	1
H	0.490606	0.662117	1.281205	1
H	0.153866	0.909917	-1.841264	1
H	1.358506	1.833207	-0.814144	1
H	-0.375174	2.637917	0.490955	1
Es	0.236793	1.036927	-1.527721	99
Es	1.394129	-3.100633	0.252234	99
Es	-0.378625	-1.221591	0.255956	99
Es	-1.320642	-0.740226	0.831977	99
Es	-0.691351	1.856314	-0.086622	99
Es	-0.881758	-0.668475	0.255763	99
Es	-1.023525	1.852432	-0.222515	99
Es	0.309488	0.641498	0.986998	99
Es	0.654473	-2.035960	0.564021	99
Es	-0.480802	2.315982	0.263747	99
Es	1.056547	1.667220	-0.830317	99
Es	-0.207442	1.735567	-0.505140	99
Es	-1.271472	-0.693059	-0.355757	99
Es	0.318302	0.786103	-0.284299	99
Es	0.412535	1.308407	-0.866970	99
Es	0.648146	-2.044974	-0.060581	99
Es	0.104629	-1.722537	0.254438	99
Es	-0.497293	-0.043052	0.301015	99
Es	-0.087837	0.597975	0.365775	99
Es	-0.512362	1.315402	0.228223	99
Es	0.262720	-2.413686	0.260841	99
Es	0.918207	-2.591918	0.253350	99
35
Properties=species:S:1:pos:R:3:Z:I:1 energy=-247.83709959669974 field_type=dipole dipole="0.000000 0.000000 0.000000" charge=0
C	0.918026	-2.591733	0.253345	6
C	0.104806	-1.722743	0.254435	6
C	-0.881864	-0.668403	0.255755	6
C	-0.087734	0.597797	0.365905	6
C	0.412706	1.308357	-0.867145	6
N	-0.691924	1.856397	-0.086815	7
H	1.644586	-3.371463	0.251085	1
H	-1.557504	-0.758963	1.112525	1
H	-1.488904	-0.692403	-0.655845	1
H	0.490606	0.662117	1.281205	1
H	0.153866	0.909917	-1.841264	1
H	1.358506	1.833207	-0.814144	1
H	-0.375174	2.637917	0.490955	1
Es	0.645270	-2.045099	0.561542	99
Es	-0.209563	1.740737	-0.504243	99
Es	-0.376150	-1.223460	0.255638	99
Es	-0.512621	1.316819	0.230269	99
Es	1.054596	1.665425	-0.831256	99
Es	0.918234	-2.591917	0.253349	99
Es	-0.691325	1.856309	-0.086617	99
Es	0.412532	1.308409	-0.866971	99
Es	-0.087836	0.597977	0.365772	99
Es	0.321492	0.781605	-0.283513	99
Es	-1.322035	-0.737736	0.830993	99
Es	0.268614	-2.408069	0.261784	99
Es	-1.270160	-0.690670	-0.352918	99
Es	-0.483482	2.316212	0.261826	99
Es	0.238317	1.037857	-1.525722	99
Es	0.104612	-1.722531	0.254437	99
Es	1.394534	-3.102739	0.252235	99
Es	-1.022875	1.851500	-0.223735	99
Es	-0.881759	-0.668475	0.255763	99
Es	0.651688	-2.040848	-0.059610	99
Es	0.309209	0.640409	0.985086	99
Es	-0.498433	-0.044004	0.300306	99
35
Properties=species:S:1:pos:R:3:Z:I:1 energy=-247.83709959669974 field_type=dipole dipole="0.000000 0.000000 0.000000" charge=0
C	0.918026	-2.591733	0.253345	6
C	0.104806	-1.722743	0.254435	6
C	-0.881864	-0.668403	0.255755	6
C	-0.087734	0.597797	0.365905	6
C	0.412706	1.308357	-0.867145	6
N	-0.691924	1.856397	-0.086815	7
H	1.644586	-3.371463	0.251085	1
H	-1.557504	-0.758963	1.112525	1
H	-1.488904	-0.692403	-0.655845	1
H	0.490606	0.662117	1.281205	1
H	0.153866	0.909917	-1.841264	1
H	1.358506	1.833207	-0.814144	1
H	-0.375174	2.637917	0.490955	1
Es	0.239386	1.038709	-1.523896	99
Es	0.591323	-2.096219	0.592562	99
Es	-1.322988	-0.735892	0.830360	99
Es	-0.881757	-0.668474	0.255763	99
Es	0.281484	-2.395424	0.191864	99
Es	-0.374945	-1.224640	0.255167	99
Es	0.412526	1.308406	-0.866958	99
Es	0.323993	0.778482	-0.283011	99
Es	-0.499063	-0.044606	0.299399	99
Es	-0.485536	2.316318	0.260866	99
Es	-0.691339	1.856305	-0.086629	99
Es	0.693195	-2.001799	-0.020666	99
Es	-0.512156	1.317358	0.231220	99
Es	-0.087839	0.597979	0.365771	99
Es	-1.268856	-0.689520	-0.350622	99
Es	-1.022581	1.850648	-0.225441	99
Es	-0.210600	1.744452	-0.503074	99
Es	1.394446	-3.103840	0.252015	99
Es	0.918220	-2.591933	0.253346	99
Es	1.052546	1.664184	-0.831878	99
Es	0.308791	0.639753	0.983823	99
Es	0.104610	-1.722533	0.254432	99
35
Properties=species:S:1:pos:R:3:Z:I:1 energy=-247.83709959669974 field_type=dipole dipole="0.000000 0.000000 0.000000" charge=0
C	0.918026	-2.591733	0.253345	6
C	0.104806	-1.722743	0.254435	6
C	-0.881864	-0.668403	0.255755	6
C	-0.087734	0.597797	0.365905	6
C	0.412706	1.308357	-0.867145	6
N	-0.691924	1.856397	-0.086815	7
H	1.644586	-3.371463	0.251085	1
H	-1.557504	-0.758963	1.112525	1
H	-1.488904	-0.692403	-0.655845	1
H	0.490606	0.662117	1.281205	1
H	0.153866	0.909917	-1.841264	1
H	1.358506	1.833207	-0.814144	1
H	-0.375174	2.637917	0.490955	1
Es	-0.511091	1.317446	0.231727	99
Es	-0.499438	-0.045264	0.299176	99
Es	1.394506	-3.104292	0.251715	99
Es	-1.323925	-0.734618	0.829585	99
Es	-0.087835	0.597975	0.365768	99
Es	-0.374326	-1.225481	0.254777	99
Es	0.561583	-2.124383	0.603742	99
Es	0.240216	1.039711	-1.521913	99
Es	0.104611	-1.722529	0.254438	99
Es	0.918227	-2.591934	0.253347	99
Es	-0.691403	1.856302	-0.086656	99
Es	-0.487322	2.317233	0.260210	99
Es	0.325523	0.775989	-0.282904	99
Es	-0.212074	1.747213	-0.502770	99
Es	0.296374	-2.381465	0.161929	99
Es	0.708214	-1.987397	-0.001687	99
Es	-0.881757	-0.668475	0.255764	99
Es	-1.267453	-0.688594	-0.348914	99
Es	-1.021869	1.849198	-0.226323	99
Es	0.308623	0.639459	0.982618	99
Es	1.050953	1.663208	-0.832259	99
Es	0.412522	1.308411	-0.866956	99
35
Properties=species:S:1:pos:R:3:Z:I:1 energy=-247.83709959669974 field_type=dipole dipole="0.000000 0.000000 0.000000" charge=0
C	0.918026	-2.591733	0.253345	6
C	0.104806	-1.722743	0.254435	6
C	-0.881864	-0.668403	0.255755	6
C	-0.087734	0.597797	0.365905	6
C	0.412706	1.308357	-0.867145	6
N	-0.691924	1.856397	-0.086815	7
H	1.644586	-3.371463	0.251085	1
H	-1.557504	-0.758963	1.112525	1
H	-1.488904	-0.692403	-0.655845	1
H	0.490606	0.662117	1.281205	1
H	0.153866	0.909917	-1.841264	1
H	1.358506	1.833207	-0.814144	1
H	-0.375174	2.637917	0.490955	1
Es	-1.022541	1.848522	-0.227293	99
Es	1.394492	-3.104593	0.251369	99
Es	-0.213354	1.749714	-0.501943	99
Es	-1.324566	-0.733294	0.829188	99
Es	0.240632	1.040533	-1.520015	99
Es	0.327249	0.774038	-0.282803	99
Es	-0.373880	-1.225942	0.254625	99
Es	-0.087844	0.597983	0.365763	99
Es	-0.509313	1.317371	0.231531	99
Es	0.104617	-1.722528	0.254441	99
Es	-0.488153	2.317161	0.259920	99
Es	0.545940	-2.139179	0.607796	99
Es	0.308207	0.639348	0.981522	99
Es	0.412524	1.308410	-0.866956	99
Es	-0.499705	-0.046090	0.298672	99
Es	0.918226	-2.591932	0.253345	99
Es	0.713581	-1.982101	0.006266	99
Es	-1.266347	-0.688136	-0.347498	99
Es	-0.691294	1.856306	-0.086606	99
Es	0.306682	-2.371912	0.150146	99
Es	-0.881757	-0.668475	0.255764	99
Es	1.049461	1.662509	-0.832817	99
35
Properties=species:S:1:pos:R:3:Z:I:1 energy=-247.83709959669974 field_type=dipole dipole="0.000000 0.000000 0.000000" charge=0
C	0.918026	-2.591733	0.253345	6
C	0.104806	-1.722743	0.254435	6
C	-0.881864	-0.668403	0.255755	6
C	-0.087734	0.597797	0.365905	6
C	0.412706	1.308357	-0.867145	6
N	-0.691924	1.856397	-0.086815	7
H	1.644586	-3.371463	0.251085	1
H	-1.557504	-0.758963	1.112525	1
H	-1.488904	-0.692403	-0.655845	1
H	0.490606	0.662117	1.281205	1
H	0.153866	0.909917	-1.841264	1
H	1.358506	1.833207	-0.814144	1
H	-0.375174	2.637917	0.490955	1
Es	-0.214447	1.751304	-0.500629	99
Es	-0.691239	1.856313	-0.086580	99
Es	0.328330	0.772665	-0.282910	99
Es	0.319834	-2.359678	0.137137	99
Es	-1.021930	1.846858	-0.228695	99
Es	-0.373640	-1.226303	0.254509	99
Es	-0.489799	2.318522	0.259854	99
Es	0.412510	1.308411	-0.866944	99
Es	-1.324865	-0.732557	0.828661	99
Es	0.308167	0.639132	0.980848	99
Es	-0.881761	-0.668476	0.255763	99
Es	0.720066	-1.975674	0.016293	99
Es	1.394771	-3.104545	0.250954	99
Es	0.526130	-2.157964	0.611134	99
Es	-0.507956	1.317181	0.231237	99
Es	-1.265626	-0.687851	-0.346448	99
Es	0.241014	1.041292	-1.518515	99
Es	-0.499798	-0.046319	0.298271	99
Es	0.104609	-1.722527	0.254438	99
Es	-0.087847	0.597990	0.365765	99
Es	1.048107	1.661872	-0.833075	99
Es	0.918227	-2.591931	0.253348	99
35
Properties=species:S:1:pos:R:3:Z:I:1 energy=-247.83709959669974 field_type=dipole dipole="0.000000 0.000000 0.000000" charge=0
C	0.918026	-2.591733	0.253345	6
C	0.104806	-1.722743	0.254435	6
C	-0.881864	-0.668403	0.255755	6
C	-0.087734	0.597797	0.365905	6
C	0.412706	1.308357	-0.867145	6
N	-0.691924	1.856397	-0.086815	7
H	1.644586	-3.371463	0.251085	1
H	-1.557504	-0.758963	1.112525	1
H	-1.488904	-0.692403	-0.655845	1
H	0.490606	0.662117	1.281205	1
H	0.153866	0.909917	-1.841264	1
H	1.358506	1.833207	-0.814144	1
H	-0.375174	2.637917	0.490955	1
Es	-0.087839	0.597985	0.365768	99
Es	-0.505992	1.316848	0.230503	99
Es	-0.691294	1.856313	-0.086606	99
Es	-0.499749	-0.047312	0.298118	99
Es	1.394957	-3.104498	0.250643	99
Es	-1.264924	-0.687115	-0.346108	99
Es	-0.215825	1.753057	-0.499474	99
Es	-1.020637	1.844378	-0.229651	99
Es	0.412517	1.308410	-0.866950	99
Es	-0.373535	-1.226604	0.254621	99
Es	0.918228	-2.591934	0.253343	99
Es	1.046575	1.661284	-0.833214	99
Es	0.308190	0.638893	0.980400	99
Es	0.329421	0.771543	-0.283047	99
Es	0.729011	-1.967389	0.033340	99
Es	0.333307	-2.346713	0.118757	99
Es	0.104611	-1.722526	0.254444	99
Es	-0.492141	2.320440	0.260013	99
Es	0.503637	-2.179274	0.612647	99
Es	-0.881757	-0.668474	0.255763	99
Es	-1.325273	-0.731597	0.828363	99
Es	0.241371	1.041998	-1.517257	99
35
Properties=species:S:1:pos:R:3:Z:I:1 energy=-247.83709959669974 field_type=dipole dipole="0.000000 0.000000 0.000000" charge=0
C	0.918026	-2.591733	0.253345	6
C	0.104806	-1.722743	0.254435	6
C	-0.881864	-0.668403	0.255755	6
C	-0.087734	0.597797	0.365905	6
C	0.412706	1.308357	-0.867145	6
N	-0.691924	1.856397	-0.086815	7
H	1.644586	-3.371463	0.251085	1
H	-1.557504	-0.758963	1.112525	1
H	-1.488904	-0.692403	-0.655845	1
H	0.490606	0.662117	1.281205	1
H	0.153866	0.909917	-1.841264	1
H	1.358506	1.833207	-0.814144	1
H	-0.375174	2.637917	0.490955	1
Es	-0.503444	1.316292	0.229932	99
Es	0.104611	-1.722524	0.254436	99
Es	0.241510	1.042932	-1.515310	99
Es	0.308005	0.638703	0.979927	99
Es	-0.373399	-1.226814	0.254672	99
Es	0.412508	1.308415	-0.866942	99
Es	-0.494575	2.322094	0.259724	99
Es	1.395292	-3.104300	0.250539	99
Es	1.045740	1.661017	-0.833678	99
Es	-0.087849	0.598010	0.365757	99
Es	0.335706	-2.344915	0.126623	99
Es	-1.019374	1.842043	-0.230214	99
Es	0.330440	0.770238	-0.283599	99
Es	0.724399	-1.971401	0.025177	99
Es	-0.499912	-0.047484	0.297399	99
Es	-0.691254	1.856304	-0.086588	99
Es	-0.881761	-0.668476	0.255762	99
Es	-0.217846	1.754744	-0.498418	99
Es	0.505686	-2.177171	0.612853	99
Es	-1.325767	-0.730876	0.828098	99
Es	0.918227	-2.591933	0.253340	99
Es	-1.264084	-0.687184	-0.345073	99
35
Properties=species:S:1:pos:R:3:Z:I:1 energy=-247.83709959669974 field_type=dipole dipole="0.000000 0.000000 0.000000" charge=0
C	0.918026	-2.591733	0.253345	6
C	0.104806	-1.722743	0.254435	6
C	-0.881864	-0.668403	0.255755	6
C	-0.087734	0.597797	0.365905	6
C	0.412706	1.308357	-0.867145	6
N	-0.691924	1.856397	-0.086815	7
H	1.644586	-3.371463	0.251085	1
H	-1.557504	-0.758963	1.112525	1
H	-1.488904	-0.692403	-0.655845	1
H	0.490606	0.662117	1.281205	1
H	0.153866	0.909917	-1.841264	1
H	1.358506	1.833207	-0.814144	1
H	-0.375174	2.637917	0.490955	1
Es	0.308194	0.638158	0.980153	99
Es	0.331887	0.769629	-0.283810	99
Es	0.692957	-2.004223	0.424648	99
Es	-0.691262	1.856304	-0.086594	99
Es	-1.012481	1.836416	-0.230313	99
Es	0.572695	-2.112422	-0.098691	99
Es	0.242140	1.043165	-1.515595	99
Es	0.918231	-2.591931	0.253339	99
Es	-0.218255	1.756151	-0.497524	99
Es	-0.087840	0.597984	0.365765	99
Es	0.299047	-2.377800	0.438101	99
Es	-0.372762	-1.226510	0.255206	99
Es	-0.881756	-0.668475	0.255764	99
Es	0.104618	-1.722518	0.254436	99
Es	1.043340	1.660419	-0.833133	99
Es	-1.325583	-0.729396	0.828529	99
Es	0.412513	1.308411	-0.866952	99
Es	-1.264092	-0.685538	-0.346035	99
Es	-0.500010	-0.049493	0.297644	99
Es	1.396224	-3.103525	0.250692	99
Es	-0.502133	1.316185	0.229646	99
Es	-0.502815	2.326721	0.259140	99
35
Properties=species:S:1:pos:R:3:Z:I:1 energy=-247.83709959669974 field_type=dipole dipole="0.000000 0.000000 0.000000" charge=0
C	0.918026	-2.591733	0.253345	6
C	0.104806	-1.722743	0.254435	6
C	-0.881864	-0.668403	0.255755	6
C	-0.087734	0.597797	0.365905	6
C	0.412706	1.308357	-0.867145	6
N	-0.691924	1.856397	-0.086815	7
H	1.644586	-3.371463	0.251085	1
H	-1.557504	-0.758963	1.112525	1
H	-1.488904	-0.692403	-0.655845	1
H	0.490606	0.662117	1.281205	1
H	0.153866	0.909917	-1.841264	1
H	1.358506	1.833207	-0.814144	1
H	-0.375174	2.637917	0.490955	1
Es	-1.008909	1.833539	-0.230066	99
Es	0.918233	-2.591930	0.253344	99
Es	-0.372721	-1.226622	0.255325	99
Es	0.104611	-1.722523	0.254445	99
Es	1.042358	1.660218	-0.833495	99
Es	-0.507406	2.328871	0.258609	99
Es	-0.499554	1.315459	0.228411	99
Es	-0.087848	0.598015	0.365759	99
Es	0.242121	1.043727	-1.514410	99
Es	-1.263492	-0.684703	-0.346205	99
Es	0.332775	0.768493	-0.284395	99
Es	-0.220232	1.757771	-0.496302	99
Es	0.308287	0.637836	0.980150	99
Es	0.295137	-2.381721	0.426447	99
Es	0.583445	-2.102195	-0.096031	99
Es	-0.881757	-0.668475	0.255764	99
Es	1.396423	-3.103383	0.250593	99
Es	-0.691180	1.856338	-0.086541	99
Es	-1.325938	-0.728249	0.828702	99
Es	0.686213	-2.010440	0.433642	99
Es	-0.500210	-0.050712	0.297630	99
Es	0.412503	1.308404	-0.866961	99
35
Properties=species:S:1:pos:R:3:Z:I:1 energy=-247.83709959669974 field_type=dipole dipole="0.000000 0.000000 0.000000" charge=0
C	0.918026	-2.591733	0.253345	6
C	0.104806	-1.722743	0.254435	6
C	-0.881864	-0.668403	0.255755	6
C	-0.087734	0.597797	0.365905	6
C	0.412706	1.308357	-0.867145	6
N	-0.691924	1.856397	-0.086815	7
H	1.644586	-3.371463	0.251085	1
H	-1.557504	-0.758963	1.112525	1
H	-1.488904	-0.692403	-0.655845	1
H	0.490606	0.662117	1.281205	1
H	0.153866	0.909917	-1.841264	1
H	1.358506	1.833207	-0.814144	1
H	-0.375174	2.637917	0.490955	1
Es	1.041726	1.660050	-0.833886	99
Es	-0.222458	1.758924	-0.494868	99
Es	-0.881756	-0.668475	0.255763	99
Es	0.690233	-2.007092	0.419162	99
Es	0.242089	1.044571	-1.512710	99
Es	-1.262619	-0.684701	-0.345458	99
Es	0.300942	-2.375811	0.443129	99
Es	-1.326546	-0.727558	0.828501	99
Es	-0.497331	1.314581	0.227226	99
Es	-0.087858	0.598001	0.365753	99
Es	0.307826	0.637998	0.979614	99
Es	0.573515	-2.111557	-0.098008	99
Es	1.396600	-3.103238	0.250233	99
Es	0.333975	0.767404	-0.285143	99
Es	0.104614	-1.722521	0.254449	99
Es	0.412517	1.308410	-0.866947	99
Es	-0.500261	-0.051203	0.297435	99
Es	-0.372785	-1.226799	0.255295	99
Es	-0.691206	1.856322	-0.086560	99
Es	-0.507374	2.329118	0.258689	99
Es	0.918230	-2.591933	0.253340	99
Es	-1.009215	1.833223	-0.230593	99
35
Properties=species:S:1:pos:R:3:Z:I:1 energy=-247.83709959669974 field_type=dipole dipole="0.000000 0.000000 0.000000" charge=0
C	0.918026	-2.591733	0.253345	6
C	0.104806	-1.722743	0.254435	6
C	-0.881864	-0.668403	0.255755	6
C	-0.087734	0.597797	0.365905	6
C	0.412706	1.308357	-0.867145	6
N	-0.691924	1.856397	-0.086815	7
H	1.644586	-3.371463	0.251085	1
H	-1.557504	-0.758963	1.112525	1
H	-1.488904	-0.692403	-0.655845	1
H	0.490606	0.662117	1.281205	1
H	0.153866	0.909917	-1.841264	1
H	1.358506	1.833207	-0.814144	1
H	-0.375174	2.637917	0.490955	1
Es	-0.224203	1.759846	-0.494101	99
Es	1.396384	-3.103458	0.250019	99
Es	0.731429	-1.964665	0.040351	99
Es	-0.373240	-1.227301	0.254903	99
Es	-0.087842	0.598003	0.365761	99
Es	1.042679	1.660193	-0.834801	99
Es	-0.881756	-0.668475	0.255763	99
Es	0.412504	1.308423	-0.866924	99
Es	-0.500305	-0.052214	0.297228	99
Es	-0.495365	1.314105	0.226481	99
Es	-0.691165	1.856337	-0.086533	99
Es	0.104610	-1.722523	0.254437	99
Es	-1.261751	-0.684495	-0.345008	99
Es	-1.008212	1.832198	-0.230740	99
Es	0.333130	0.766443	-0.286152	99
Es	-1.327192	-0.726974	0.828169	99
Es	-0.509048	2.329668	0.258285	99
Es	0.918229	-2.591934	0.253344	99
Es	0.348246	-2.332944	0.114290	99
Es	0.485703	-2.196235	0.610253	99
Es	0.308240	0.638034	0.979177	99
Es	0.241783	1.045681	-1.509785	99
35
Properties=species:S:1:pos:R:3:Z:I:1 energy=-247.83709959669974 field_type=dipole dipole="0.000000 0.000000 0.000000" charge=0
C	0.918026	-2.591733	0.253345	6
C	0.104806	-1.722743	0.254435	6
C	-0.881864	-0.668403	0.255755	6
C	-0.087734	0.597797	0.365905	6
C	0.412706	1.308357	-0.867145	6
N	-0.691924	1.856397	-0.086815	7
H	1.644586	-3.371463	0.251085	1
H	-1.557504	-0.758963	1.112525	1
H	-1.488904	-0.692403	-0.655845	1
H	0.490606	0.662117	1.281205	1
H	0.153866	0.909917	-1.841264	1
H	1.358506	1.833207	-0.814144	1
H	-0.375174	2.637917	0.490955	1
Es	-1.002166	1.828941	-0.229600	99
Es	0.307824	0.637641	0.979471	99
Es	-0.500639	-0.053333	0.297249	99
Es	0.691540	-2.005878	0.416241	99
Es	-1.261264	-0.683603	-0.345399	99
Es	0.104608	-1.722525	0.254444	99
Es	-1.327419	-0.725769	0.828465	99
Es	-0.881755	-0.668474	0.255763	99
Es	-0.691187	1.856329	-0.086548	99
Es	-0.087842	0.598013	0.365757	99
Es	-0.372789	-1.226974	0.255356	99
Es	-0.226112	1.761089	-0.492643	99
Es	1.397056	-3.102847	0.250201	99
Es	-0.515884	2.332243	0.257021	99
Es	0.334644	0.765806	-0.286580	99
Es	0.241912	1.045733	-1.509814	99
Es	0.301757	-2.374902	0.445533	99
Es	-0.492971	1.313446	0.225265	99
Es	0.571353	-2.113725	-0.097454	99
Es	1.041460	1.660016	-0.834723	99
Es	0.412503	1.308417	-0.866930	99
Es	0.918231	-2.591932	0.253342	99
35
Properties=species:S:1:pos:R:3:Z:I:1 energy=-247.83709959669974 field_type=dipole dipole="0.000000 0.000000 0.000000" charge=0
C	0.918026	-2.591733	0.253345	6
C	0.104806	-1.722743	0.254435	6
C	-0.881864	-0.668403	0.255755	6
C	-0.087734	0.597797	0.365905	6
C	0.412706	1.308357	-0.867145	6
N	-0.691924	1.856397	-0.086815	7
H	1.644586	-3.371463	0.251085	1
H	-1.557504	-0.758963	1.112525	1
H	-1.488904	-0.692403	-0.655845	1
H	0.490606	0.662117	1.281205	1
H	0.153866	0.909917	-1.841264	1
H	1.358506	1.833207	-0.814144	1
H	-0.375174	2.637917	0.490955	1
Es	0.918234	-2.591930	0.253345	99
Es	-0.691265	1.856313	-0.086592	99
Es	-0.500767	-0.053434	0.297830	99
Es	-1.261040	-0.683269	-0.345693	99
Es	-0.881756	-0.668475	0.255764	99
Es	0.104606	-1.722527	0.254440	99
Es	0.343312	-2.337607	0.116378	99
Es	-0.373159	-1.227352	0.255054	99
Es	-1.327694	-0.726125	0.828060	99
Es	-0.227749	1.761994	-0.491692	99
Es	-0.996115	1.826281	-0.228620	99
Es	-0.087850	0.598013	0.365748	99
Es	1.397181	-3.102748	0.250294	99
Es	-0.490736	1.313193	0.224477	99
Es	0.241596	1.046766	-1.506619	99
Es	0.491449	-2.190888	0.609526	99
Es	0.308266	0.637664	0.979326	99
Es	0.730414	-1.965520	0.038872	99
Es	1.043507	1.660295	-0.835769	99
Es	0.412482	1.308412	-0.866933	99
Es	0.332870	0.764618	-0.287923	99
Es	-0.522929	2.334039	0.255145	99
35
Properties=species:S:1:pos:R:3:Z:I:1 energy=-247.83709959669974 field_type=dipole dipole="0.000000 0.000000 0.000000" charge=0
C	0.918026	-2.591733	0.253345	6
C	0.104806	-1.722743	0.254435	6
C	-0.881864	-0.668403	0.255755	6
C	-0.087734	0.597797	0.365905	6
C	0.412706	1.308357	-0.867145	6
N	-0.691924	1.856397	-0.086815	7
H	1.644586	-3.371463	0.251085	1
H	-1.557504	-0.758963	1.112525	1
H	-1.488904	-0.692403	-0.655845	1
H	0.490606	0.662117	1.281205	1
H	0.153866	0.909917	-1.841264	1
H	1.358506	1.833207	-0.814144	1
H	-0.375174	2.637917	0.490955	1
Es	-1.328327	-0.725086	0.828043	99
Es	0.412511	1.308409	-0.866942	99
Es	0.731999	-1.964137	0.042658	99
Es	1.042972	1.660282	-0.835691	99
Es	0.918234	-2.591930	0.253341	99
Es	-0.881755	-0.668475	0.255762	99
Es	0.345697	-2.335255	0.112770	99
Es	-0.488925	1.312668	0.223276	99
Es	0.104607	-1.722527	0.254438	99
Es	0.308276	0.637517	0.979348	99
Es	0.241717	1.047324	-1.505905	99
Es	-0.087853	0.598015	0.365749	99
Es	0.487488	-2.194611	0.609339	99
Es	-0.500921	-0.054690	0.297531	99
Es	0.333333	0.764079	-0.288517	99
Es	1.397261	-3.102681	0.250219	99
Es	-0.229619	1.762548	-0.490560	99
Es	-1.260119	-0.682792	-0.345450	99
Es	-0.691251	1.856312	-0.086586	99
Es	-0.373203	-1.227437	0.255084	99
Es	-0.524044	2.334510	0.254863	99
Es	-0.995220	1.825669	-0.228356	99
35
Properties=species:S:1:pos:R:3:Z:I:1 energy=-247.83709959669974 field_type=dipole dipole="0.000000 0.000000 0.000000" charge=0
C	0.918026	-2.591733	0.253345	6
C	0.104806	-1.722743	0.254435	6
C	-0.881864	-0.668403	0.255755	6
C	-0.087734	0.597797	0.365905	6
C	0.412706	1.308357	-0.867145	6
N	-0.691924	1.856397	-0.086815	7
H	1.644586	-3.371463	0.251085	1
H	-1.557504	-0.758963	1.112525	1
H	-1.488904	-0.692403	-0.655845	1
H	0.490606	0.662117	1.281205	1
H	0.153866	0.909917	-1.841264	1
H	1.358506	1.833207	-0.814144	1
H	-0.375174	2.637917	0.490955	1
Es	-0.231954	1.763492	-0.488944	99
Es	-1.328213	-0.724194	0.828340	99
Es	0.918233	-2.591931	0.253341	99
Es	0.353941	-2.327072	0.099582	99
Es	0.241948	1.047349	-1.506416	99
Es	0.472579	-2.208777	0.607524	99
Es	0.308454	0.637445	0.979330	99
Es	0.738491	-1.958325	0.057709	99
Es	1.397455	-3.102490	0.250022	99
Es	1.041918	1.660113	-0.835263	99
Es	-0.994370	1.824822	-0.227743	99
Es	-0.486196	1.312205	0.221545	99
Es	0.104610	-1.722523	0.254442	99
Es	-0.881757	-0.668473	0.255758	99
Es	-0.501108	-0.055580	0.297281	99
Es	-0.087854	0.598024	0.365742	99
Es	-0.691089	1.856379	-0.086476	99
Es	-0.373084	-1.227356	0.255245	99
Es	0.333983	0.764032	-0.288585	99
Es	0.412491	1.308420	-0.866922	99
Es	-0.525606	2.334765	0.254402	99
Es	-1.260015	-0.682611	-0.345498	99
35
Properties=species:S:1:pos:R:3:Z:I:1 energy=-247.83709959669974 field_type=dipole dipole="0.000000 0.000000 0.000000" charge=0
C	0.918026	-2.591733	0.253345	6
C	0.104806	-1.722743	0.254435	6
C	-0.881864	-0.668403	0.255755	6
C	-0.087734	0.597797	0.365905	6
C	0.412706	1.308357	-0.867145	6
N	-0.691924	1.856397	-0.086815	7
H	1.644586	-3.371463	0.251085	1
H	-1.557504	-0.758963	1.112525	1
H	-1.488904	-0.692403	-0.655845	1
H	0.490606	0.662117	1.281205	1
H	0.153866	0.909917	-1.841264	1
H	1.358506	1.833207	-0.814144	1
H	-0.375174	2.637917	0.490955	1
Es	0.739993	-1.956981	0.061651	99
Es	0.412492	1.308415	-0.866922	99
Es	-0.373078	-1.227390	0.255197	99
Es	-0.691195	1.856327	-0.086552	99
Es	-0.087852	0.598014	0.365748	99
Es	0.918217	-2.591945	0.253337	99
Es	0.104605	-1.722528	0.254439	99
Es	1.397650	-3.102313	0.250068	99
Es	0.241670	1.047507	-1.505162	99
Es	0.473317	-2.208198	0.606901	99
Es	-0.501327	-0.055884	0.297676	99
Es	-0.232973	1.763956	-0.487854	99
Es	-1.328138	-0.724022	0.828353	99
Es	-0.988711	1.823396	-0.226651	99
Es	0.308443	0.636951	0.979646	99
Es	-0.881756	-0.668475	0.255764	99
Es	1.042841	1.660206	-0.835955	99
Es	0.333398	0.763389	-0.289230	99
Es	-0.531484	2.336021	0.252698	99
Es	-1.259903	-0.681594	-0.346046	99
Es	0.351703	-2.328987	0.096306	99
Es	-0.485055	1.311848	0.221004	99
35
Properties=species:S:1:pos:R:3:Z:I:1 energy=-247.83709959669974 field_type=dipole dipole="0.000000 0.000000 0.000000" charge=0
C	0.918026	-2.591733	0.253345	6
C	0.104806	-1.722743	0.254435	6
C	-0.881864	-0.668403	0.255755	6
C	-0.087734	0.597797	0.365905	6
C	0.412706	1.308357	-0.867145	6
N	-0.691924	1.856397	-0.086815	7
H	1.644586	-3.371463	0.251085	1
H	-1.557504	-0.758963	1.112525	1
H	-1.488904	-0.692403	-0.655845	1
H	0.490606	0.662117	1.281205	1
H	0.153866	0.909917	-1.841264	1
H	1.358506	1.833207	-0.814144	1
H	-0.375174	2.637917	0.490955	1
Es	-0.373197	-1.227524	0.255240	99
Es	0.918231	-2.591932	0.253345	99
Es	-0.087851	0.598011	0.365750	99
Es	-0.983996	1.822317	-0.225358	99
Es	0.343218	-2.337250	0.106314	99
Es	0.308600	0.636856	0.979726	99
Es	-0.881754	-0.668474	0.255764	99
Es	-0.691086	1.856381	-0.086474	99
Es	0.734472	-1.962077	0.049645	99
Es	0.332719	0.762824	-0.290203	99
Es	1.397866	-3.102115	0.250346	99
Es	-0.484536	1.311927	0.220888	99
Es	-0.536771	2.336649	0.250828	99
Es	-0.501422	-0.056557	0.297508	99
Es	0.412458	1.308399	-0.866954	99
Es	-1.328656	-0.723690	0.828148	99
Es	1.043761	1.660308	-0.836860	99
Es	-0.233306	1.764079	-0.487501	99
Es	0.241477	1.048308	-1.502881	99
Es	0.104603	-1.722530	0.254442	99
Es	-1.259289	-0.681370	-0.345978	99
Es	0.487318	-2.194827	0.608682	99
35
Properties=species:S:1:pos:R:3:Z:I:1 energy=-247.83709959669974 field_type=dipole dipole="0.000000 0.000000 0.000000" charge=0
C	0.918026	-2.591733	0.253345	6
C	0.104806	-1.722743	0.254435	6
C	-0.881864	-0.668403	0.255755	6
C	-0.087734	0.597797	0.365905	6
C	0.412706	1.308357	-0.867145	6
N	-0.691924	1.856397	-0.086815	7
H	1.644586	-3.371463	0.251085	1
H	-1.557504	-0.758963	1.112525	1
H	-1.488904	-0.692403	-0.655845	1
H	0.490606	0.662117	1.281205	1
H	0.153866	0.909917	-1.841264	1
H	1.358506	1.833207	-0.814144	1
H	-0.375174	2.637917	0.490955	1
Es	-1.258582	-0.681282	-0.345764	99
Es	-0.373154	-1.227501	0.255196	99
Es	-0.483345	1.311701	0.220012	99
Es	0.725246	-1.970249	0.030093	99
Es	0.412482	1.308416	-0.866926	99
Es	0.918233	-2.591931	0.253342	99
Es	-0.691148	1.856349	-0.086521	99
Es	0.104605	-1.722528	0.254439	99
Es	0.331992	0.761749	-0.291437	99
Es	-0.881755	-0.668475	0.255764	99
Es	-0.980986	1.821672	-0.224349	99
Es	0.308679	0.637092	0.979491	99
Es	-0.234394	1.764475	-0.487012	99
Es	1.398023	-3.101970	0.250502	99
Es	-1.329323	-0.723538	0.827795	99
Es	0.241445	1.049069	-1.501159	99
Es	-0.540084	2.336957	0.249911	99
Es	0.505831	-2.177277	0.608540	99
Es	-0.501661	-0.056823	0.297967	99
Es	1.044695	1.660439	-0.837218	99
Es	0.333907	-2.346652	0.126002	99
Es	-0.087846	0.598020	0.365746	99
35
Properties=species:S:1:pos:R:3:Z:I:1 energy=-247.83709959669974 field_type=dipole dipole="0.000000 0.000000 0.000000" charge=0
C	0.918026	-2.591733	0.253345	6
C	0.104806	-1.722743	0.254435	6
C	-0.881864	-0.668403	0.255755	6
C	-0.087734	0.597797	0.365905	6
C	0.412706	1.308357	-0.867145	6
N	-0.691924	1.856397	-0.086815	7
H	1.644586	-3.371463	0.251085	1
H	-1.557504	-0.758963	1.112525	1
H	-1.488904	-0.692403	-0.655845	1
H	0.490606	0.662117	1.281205	1
H	0.153866	0.909917	-1.841264	1
H	1.358506	1.833207	-0.814144	1
H	-0.375174	2.637917	0.490955	1
Es	-0.372814	-1.227169	0.255639	99
Es	-0.555853	2.337802	0.244065	99
Es	-0.233449	1.764451	-0.486976	99
Es	0.104606	-1.722527	0.254441	99
Es	0.309683	0.635844	0.980666	99
Es	-0.501936	-0.057061	0.297619	99
Es	0.331212	0.762794	-0.290154	99
Es	-0.087849	0.598016	0.365744	99
Es	0.918236	-2.591927	0.253345	99
Es	0.241621	1.047545	-1.504543	99
Es	0.412492	1.308418	-0.866925	99
Es	0.685983	-2.009362	0.457585	99
Es	0.592164	-2.094694	-0.088420	99
Es	1.044074	1.660354	-0.836112	99
Es	-0.966241	1.819826	-0.218702	99
Es	1.398655	-3.101341	0.250749	99
Es	0.286303	-2.390646	0.395109	99
Es	-1.260610	-0.680241	-0.347672	99
Es	-0.483506	1.312433	0.220445	99
Es	-1.326990	-0.722662	0.829283	99
Es	-0.691168	1.856335	-0.086534	99
Es	-0.881756	-0.668475	0.255763	99
35
Properties=species:S:1:pos:R:3:Z:I:1 energy=-247.83709959669974 field_type=dipole dipole="0.000000 0.000000 0.000000" charge=0
C	0.918026	-2.591733	0.253345	6
C	0.104806	-1.722743	0.254435	6
C	-0.881864	-0.668403	0.255755	6
C	-0.087734	0.597797	0.365905	6
C	0.412706	1.308357	-0.867145	6
N	-0.691924	1.856397	-0.086815	7
H	1.644586	-3.371463	0.251085	1
H	-1.557504	-0.758963	1.112525	1
H	-1.488904	-0.692403	-0.655845	1
H	0.490606	0.662117	1.281205	1
H	0.153866	0.909917	-1.841264	1
H	1.358506	1.833207	-0.814144	1
H	-0.375174	2.637917	0.490955	1
Es	-1.260591	-0.679570	-0.348251	99
Es	-0.953736	1.819984	-0.214217	99
Es	-0.568932	2.337216	0.237728	99
Es	-0.881756	-0.668475	0.255763	99
Es	-0.502010	-0.057272	0.298643	99
Es	0.302540	-2.376121	0.158749	99
Es	-0.485436	1.313338	0.222747	99
Es	-0.691076	1.856384	-0.086469	99
Es	0.310667	0.636203	0.980418	99
Es	0.327330	0.762546	-0.291574	99
Es	-0.231419	1.763557	-0.488419	99
Es	-0.087844	0.598026	0.365743	99
Es	0.550791	-2.134909	0.596541	99
Es	1.398789	-3.101212	0.251425	99
Es	-0.373148	-1.227494	0.255198	99
Es	0.711492	-1.983288	0.008951	99
Es	0.104603	-1.722529	0.254438	99
Es	0.241372	1.048665	-1.500696	99
Es	1.047825	1.660514	-0.837398	99
Es	0.412498	1.308415	-0.866938	99
Es	0.918235	-2.591930	0.253346	99
Es	-1.327338	-0.724334	0.828688	99
35
Properties=species:S:1:pos:R:3:Z:I:1 energy=-247.83709959669974 field_type=dipole dipole="0.000000 0.000000 0.000000" charge=0
C	0.918026	-2.591733	0.253345	6
C	0.104806	-1.722743	0.254435	6
C	-0.881864	-0.668403	0.255755	6
C	-0.087734	0.597797	0.365905	6
C	0.412706	1.308357	-0.867145	6
N	-0.691924	1.856397	-0.086815	7
H	1.644586	-3.371463	0.251085	1
H	-1.557504	-0.758963	1.112525	1
H	-1.488904	-0.692403	-0.655845	1
H	0.490606	0.662117	1.281205	1
H	0.153866	0.909917	-1.841264	1
H	1.358506	1.833207	-0.814144	1
H	-0.375174	2.637917	0.490955	1
Es	0.918235	-2.591930	0.253353	99
Es	0.309435	0.636603	0.979846	99
Es	-0.478305	1.311028	0.216639	99
Es	0.330908	0.761946	-0.291491	99
Es	-1.259157	-0.680344	-0.346703	99
Es	0.740490	-1.956573	0.063940	99
Es	-0.238821	1.765841	-0.483517	99
Es	-1.328276	-0.722252	0.828606	99
Es	0.345091	-2.335007	0.094482	99
Es	-0.372991	-1.227391	0.255429	99
Es	0.479176	-2.202829	0.606319	99
Es	0.412487	1.308415	-0.866918	99
Es	-0.502199	-0.058352	0.297813	99
Es	-0.691194	1.856328	-0.086553	99
Es	-0.549820	2.337702	0.246421	99
Es	1.045048	1.660388	-0.836802	99
Es	-0.087850	0.598025	0.365737	99
Es	-0.881756	-0.668475	0.255764	99
Es	0.104601	-1.722533	0.254441	99
Es	-0.972220	1.819943	-0.220790	99
Es	1.398464	-3.101524	0.250327	99
Es	0.241512	1.048704	-1.501927	99
35
Properties=species:S:1:pos:R:3:Z:I:1 energy=-247.83709959669974 field_type=dipole dipole="0.000000 0.000000 0.000000" charge=0
C	0.918026	-2.591733	0.253345	6
C	0.104806	-1.722743	0.254435	6
C	-0.881864	-0.668403	0.255755	6
C	-0.087734	0.597797	0.365905	6
C	0.412706	1.308357	-0.867145	6
N	-0.691924	1.856397	-0.086815	7
H	1.644586	-3.371463	0.251085	1
H	-1.557504	-0.758963	1.112525	1
H	-1.488904	-0.692403	-0.655845	1
H	0.490606	0.662117	1.281205	1
H	0.153866	0.909917	-1.841264	1
H	1.358506	1.833207	-0.814144	1
H	-0.375174	2.637917	0.490955	1
Es	0.328959	0.762453	-0.291352	99
Es	-0.236862	1.765198	-0.484676	99
Es	0.412490	1.308416	-0.866919	99
Es	-0.502138	-0.058107	0.298030	99
Es	-0.563223	2.337686	0.240652	99
Es	1.398993	-3.100993	0.250652	99
Es	0.104604	-1.722529	0.254436	99
Es	-0.480082	1.311782	0.218403	99
Es	-1.328100	-0.722817	0.828685	99
Es	-0.881753	-0.668472	0.255763	99
Es	-0.087852	0.598024	0.365741	99
Es	1.046446	1.660404	-0.836547	99
Es	0.241537	1.048390	-1.502186	99
Es	-0.691050	1.856406	-0.086440	99
Es	-1.259449	-0.679839	-0.347352	99
Es	-0.372801	-1.227184	0.255501	99
Es	0.711165	-1.986193	0.415858	99
Es	0.918237	-2.591927	0.253345	99
Es	0.302377	-2.374701	0.443517	99
Es	-0.959479	1.819449	-0.215990	99
Es	0.550760	-2.133975	-0.094867	99
Es	0.310079	0.636243	0.980164	99
35
Properties=species:S:1:pos:R:3:Z:I:1 energy=-247.83709959669974 field_type=dipole dipole="0.000000 0.000000 0.000000" charge=0
C	0.918026	-2.591733	0.253345	6
C	0.104806	-1.722743	0.254435	6
C	-0.881864	-0.668403	0.255755	6
C	-0.087734	0.597797	0.365905	6
C	0.412706	1.308357	-0.867145	6
N	-0.691924	1.856397	-0.086815	7
H	1.644586	-3.371463	0.251085	1
H	-1.557504	-0.758963	1.112525	1
H	-1.488904	-0.692403	-0.655845	1
H	0.490606	0.662117	1.281205	1
H	0.153866	0.909917	-1.841264	1
H	1.358506	1.833207	-0.814144	1
H	-0.375174	2.637917	0.490955	1
Es	0.745439	-1.954059	0.348554	99
Es	-0.372850	-1.227189	0.255268	99
Es	0.487033	-2.194884	-0.082238	99
Es	-0.945357	1.820148	-0.210118	99
Es	-0.087851	0.598019	0.365744	99
Es	0.412491	1.308417	-0.866921	99
Es	-0.577696	2.336640	0.233832	99
Es	1.048486	1.660276	-0.836718	99
Es	0.325984	0.763059	-0.291557	99
Es	0.331686	-2.346087	0.498401	99
Es	0.104605	-1.722528	0.254437	99
Es	-0.502145	-0.058010	0.298518	99
Es	-0.483239	1.313037	0.221318	99
Es	-0.233315	1.764233	-0.486958	99
Es	0.241430	1.048431	-1.501468	99
Es	-0.881756	-0.668475	0.255762	99
Es	1.399290	-3.100688	0.250960	99
Es	-1.326966	-0.723915	0.828950	99
Es	0.311272	0.636051	0.980381	99
Es	-1.260789	-0.679192	-0.348567	99
Es	-0.691132	1.856357	-0.086509	99
Es	0.918238	-2.591926	0.253344	99
