41
Properties=species:S:1:pos:R:3:Z:I:1 energy=-250.26004755730781 field_type=dipole dipole="0.000000 0.000000 0.000000" charge=0
C	-1.784543	-1.888910	-1.033446	6
C	-0.803993	-1.593760	0.090514	6
C	-0.453733	-0.135200	0.142654	6
C	0.794257	0.339460	-0.003066	6
C	1.158978	1.787800	0.045314	6
N	2.116198	2.008800	1.116884	7
H	-2.029553	-2.955740	-1.050916	1
H	-1.361773	-1.622470	-2.007866	1
H	-2.717543	-1.330900	-0.902256	1
H	0.093597	-2.209470	-0.042956	1
H	-1.250383	-1.882870	1.048854	1
H	-1.275543	0.555600	0.321524	1
H	1.617127	-0.351070	-0.178266	1
H	0.278717	2.420840	0.199494	1
H	1.610037	2.075080	-0.910466	1
H	1.668488	1.782010	2.003603	1
H	2.339667	3.000800	1.160404	1
Es	2.231684	2.615780	1.141943	99
Es	-1.294067	-1.730553	-0.471660	99
Es	0.123466	0.131056	-0.256294	99
Es	1.355739	-0.125878	-0.122319	99
Es	2.408617	1.814565	1.072370	99
Es	-1.784530	-1.888906	-1.033421	99
Es	0.968284	1.061818	0.022437	99
Es	-0.453837	-0.135248	0.142669	99
Es	0.794345	0.339520	-0.003090	99
Es	0.541576	2.219283	0.147720	99
Es	0.220461	0.086075	0.398625	99
Es	2.115705	2.009119	1.116952	99
Es	-1.110472	-1.783332	0.743299	99
Es	-0.804015	-1.593719	0.090490	99
Es	1.827718	1.884339	1.647564	99
Es	-1.493553	-1.705965	-1.695458	99
Es	-0.626110	-0.859715	0.114271	99
Es	1.684668	1.925933	0.660223	99
Es	-1.950920	-2.617608	-1.042698	99
Es	-1.020779	0.330989	0.263324	99
Es	1.466865	1.981110	-0.606007	99
Es	-2.420270	-1.504110	-0.940092	99
Es	1.159066	1.787782	0.045416	99
Es	-0.187816	-2.009292	-0.003420	99
41
Properties=species:S:1:pos:R:3:Z:I:1 energy=-250.26004755730781 field_type=dipole dipole="0.000000 0.000000 0.000000" charge=0
C	-1.784543	-1.888910	-1.033446	6
C	-0.803993	-1.593760	0.090514	6
C	-0.453733	-0.135200	0.142654	6
C	0.794257	0.339460	-0.003066	6
C	1.158978	1.787800	0.045314	6
N	2.116198	2.008800	1.116884	7
H	-2.029553	-2.955740	-1.050916	1
H	-1.361773	-1.622470	-2.007866	1
H	-2.717543	-1.330900	-0.902256	1
H	0.093597	-2.209470	-0.042956	1
H	-1.250383	-1.882870	1.048854	1
H	-1.275543	0.555600	0.321524	1
H	1.617127	-0.351070	-0.178266	1
H	0.278717	2.420840	0.199494	1
H	1.610037	2.075080	-0.910466	1
H	1.668488	1.782010	2.003603	1
H	2.339667	3.000800	1.160404	1
Es	2.235432	2.615946	1.141317	99
Es	0.123418	0.131189	-0.256987	99
Es	0.794349	0.339520	-0.003079	99
Es	1.466912	1.981384	-0.606284	99
Es	-0.453842	-0.135256	0.142670	99
Es	-2.420420	-1.504019	-0.939882	99
Es	2.115711	2.009109	1.116953	99
Es	1.355309	-0.125625	-0.122873	99
Es	0.541771	2.219100	0.148033	99
Es	0.220526	0.085978	0.399418	99
Es	0.968540	1.061593	0.022122	99
Es	1.159066	1.787782	0.045416	99
Es	-0.626291	-0.859582	0.114638	99
Es	1.826996	1.885150	1.647501	99
Es	-1.294018	-1.730455	-0.471679	99
Es	-0.187853	-2.009414	-0.003545	99
Es	-0.804015	-1.593719	0.090489	99
Es	-1.493328	-1.705931	-1.695558	99
Es	2.405996	1.812107	1.071940	99
Es	1.684144	1.927475	0.660960	99
Es	-1.784530	-1.888906	-1.033421	99
Es	-1.110859	-1.783423	0.743339	99
Es	-1.020441	0.330697	0.263844	99
Es	-1.950749	-2.617656	-1.042486	99
41
Properties=species:S:1:pos:R:3:Z:I:1 energy=-250.26004755730781 field_type=dipole dipole="0.000000 0.000000 0.000000" charge=0
C	-1.784543	-1.888910	-1.033446	6
C	-0.803993	-1.593760	0.090514	6
C	-0.453733	-0.135200	0.142654	6
C	0.794257	0.339460	-0.003066	6
C	1.158978	1.787800	0.045314	6
N	2.116198	2.008800	1.116884	7
H	-2.029553	-2.955740	-1.050916	1
H	-1.361773	-1.622470	-2.007866	1
H	-2.717543	-1.330900	-0.902256	1
H	0.093597	-2.209470	-0.042956	1
H	-1.250383	-1.882870	1.048854	1
H	-1.275543	0.555600	0.321524	1
H	1.617127	-0.351070	-0.178266	1
H	0.278717	2.420840	0.199494	1
H	1.610037	2.075080	-0.910466	1
H	1.668488	1.782010	2.003603	1
H	2.339667	3.000800	1.160404	1
Es	1.159066	1.787782	0.045416	99
Es	2.239941	2.615874	1.140164	99
Es	-2.420367	-1.503932	-0.939582	99
Es	2.115719	2.009109	1.116954	99
Es	1.825681	1.886936	1.647229	99
Es	-1.020139	0.330550	0.263972	99
Es	0.968735	1.061479	0.022219	99
Es	-1.950839	-2.617572	-1.042414	99
Es	-1.493398	-1.705921	-1.695720	99
Es	2.402883	1.809240	1.072423	99
Es	-0.626678	-0.859380	0.114722	99
Es	0.123358	0.131166	-0.257661	99
Es	-1.293771	-1.730691	-0.471544	99
Es	-0.804014	-1.593719	0.090489	99
Es	-0.187893	-2.009298	-0.003772	99
Es	-0.453844	-0.135255	0.142667	99
Es	1.466794	1.981614	-0.606592	99
Es	-1.110922	-1.783608	0.743440	99
Es	-1.784530	-1.888906	-1.033420	99
Es	1.684089	1.928699	0.661620	99
Es	0.541924	2.218807	0.148348	99
Es	1.355112	-0.125402	-0.122845	99
Es	0.794350	0.339521	-0.003077	99
Es	0.220565	0.085951	0.399810	99
41
Properties=species:S:1:pos:R:3:Z:I:1 energy=-250.26004755730781 field_type=dipole dipole="0.000000 0.000000 0.000000" charge=0
C	-1.784543	-1.888910	-1.033446	6
C	-0.803993	-1.593760	0.090514	6
C	-0.453733	-0.135200	0.142654	6
C	0.794257	0.339460	-0.003066	6
C	1.158978	1.787800	0.045314	6
N	2.116198	2.008800	1.116884	7
H	-2.029553	-2.955740	-1.050916	1
H	-1.361773	-1.622470	-2.007866	1
H	-2.717543	-1.330900	-0.902256	1
H	0.093597	-2.209470	-0.042956	1
H	-1.250383	-1.882870	1.048854	1
H	-1.275543	0.555600	0.321524	1
H	1.617127	-0.351070	-0.178266	1
H	0.278717	2.420840	0.199494	1
H	1.610037	2.075080	-0.910466	1
H	1.668488	1.782010	2.003603	1
H	2.339667	3.000800	1.160404	1
Es	-0.453845	-0.135256	0.142668	99
Es	-1.111407	-1.783621	0.743482	99
Es	0.220655	0.085891	0.400271	99
Es	-1.784528	-1.888905	-1.033419	99
Es	1.354895	-0.125357	-0.122937	99
Es	-1.293436	-1.730311	-0.471588	99
Es	0.969063	1.061317	0.022186	99
Es	2.245908	2.615847	1.139174	99
Es	2.115689	2.009112	1.116962	99
Es	-0.626842	-0.859335	0.114688	99
Es	0.794352	0.339520	-0.003084	99
Es	-1.020025	0.330411	0.264080	99
Es	-0.187799	-2.009425	-0.003834	99
Es	1.683815	1.929964	0.662335	99
Es	-2.421006	-1.504089	-0.939486	99
Es	-0.804014	-1.593720	0.090490	99
Es	0.123289	0.131231	-0.258026	99
Es	0.541916	2.218722	0.148474	99
Es	-1.493377	-1.706090	-1.695746	99
Es	1.466763	1.981661	-0.606637	99
Es	2.398012	1.806942	1.072750	99
Es	1.824905	1.888063	1.646924	99
Es	-1.950225	-2.617313	-1.042298	99
Es	1.159066	1.787782	0.045416	99
41
Properties=species:S:1:pos:R:3:Z:I:1 energy=-250.26004755730781 field_type=dipole dipole="0.000000 0.000000 0.000000" charge=0
C	-1.784543	-1.888910	-1.033446	6
C	-0.803993	-1.593760	0.090514	6
C	-0.453733	-0.135200	0.142654	6
C	0.794257	0.339460	-0.003066	6
C	1.158978	1.787800	0.045314	6
N	2.116198	2.008800	1.116884	7
H	-2.029553	-2.955740	-1.050916	1
H	-1.361773	-1.622470	-2.007866	1
H	-2.717543	-1.330900	-0.902256	1
H	0.093597	-2.209470	-0.042956	1
H	-1.250383	-1.882870	1.048854	1
H	-1.275543	0.555600	0.321524	1
H	1.617127	-0.351070	-0.178266	1
H	0.278717	2.420840	0.199494	1
H	1.610037	2.075080	-0.910466	1
H	1.668488	1.782010	2.003603	1
H	2.339667	3.000800	1.160404	1
Es	-1.784530	-1.888906	-1.033419	99
Es	0.969451	1.061185	0.022089	99
Es	-1.493279	-1.706225	-1.695709	99
Es	0.541911	2.218622	0.148748	99
Es	1.354661	-0.125399	-0.122911	99
Es	0.794351	0.339523	-0.003081	99
Es	-1.949923	-2.617042	-1.042328	99
Es	-0.187659	-2.009591	-0.003984	99
Es	2.393444	1.805302	1.073438	99
Es	-2.421449	-1.503995	-0.939307	99
Es	1.683731	1.930835	0.662617	99
Es	1.159067	1.787783	0.045416	99
Es	2.251477	2.615260	1.138183	99
Es	1.466788	1.981880	-0.606694	99
Es	-1.019787	0.330454	0.264162	99
Es	-1.111392	-1.783518	0.743371	99
Es	-1.293461	-1.730523	-0.471361	99
Es	2.115680	2.009128	1.116969	99
Es	-0.627263	-0.859150	0.114802	99
Es	0.123274	0.131214	-0.258400	99
Es	-0.804014	-1.593719	0.090490	99
Es	1.823943	1.889295	1.646679	99
Es	-0.453840	-0.135255	0.142675	99
Es	0.220644	0.085887	0.400403	99
41
Properties=species:S:1:pos:R:3:Z:I:1 energy=-250.26004755730781 field_type=dipole dipole="0.000000 0.000000 0.000000" charge=0
C	-1.784543	-1.888910	-1.033446	6
C	-0.803993	-1.593760	0.090514	6
C	-0.453733	-0.135200	0.142654	6
C	0.794257	0.339460	-0.003066	6
C	1.158978	1.787800	0.045314	6
N	2.116198	2.008800	1.116884	7
H	-2.029553	-2.955740	-1.050916	1
H	-1.361773	-1.622470	-2.007866	1
H	-2.717543	-1.330900	-0.902256	1
H	0.093597	-2.209470	-0.042956	1
H	-1.250383	-1.882870	1.048854	1
H	-1.275543	0.555600	0.321524	1
H	1.617127	-0.351070	-0.178266	1
H	0.278717	2.420840	0.199494	1
H	1.610037	2.075080	-0.910466	1
H	1.668488	1.782010	2.003603	1
H	2.339667	3.000800	1.160404	1
Es	1.354635	-0.125375	-0.122868	99
Es	-1.784531	-1.888906	-1.033419	99
Es	2.115696	2.009105	1.116968	99
Es	-1.111562	-1.783570	0.743301	99
Es	0.794351	0.339523	-0.003082	99
Es	0.969707	1.061083	0.022227	99
Es	-2.422064	-1.504073	-0.939327	99
Es	-1.293279	-1.730390	-0.471316	99
Es	-1.019809	0.330408	0.264231	99
Es	1.159064	1.787782	0.045413	99
Es	0.220654	0.085892	0.400497	99
Es	1.466645	1.981763	-0.606715	99
Es	1.823188	1.890431	1.646278	99
Es	-0.187388	-2.009545	-0.004078	99
Es	2.257921	2.614353	1.137170	99
Es	-1.493238	-1.706492	-1.695630	99
Es	-0.627546	-0.859094	0.114845	99
Es	-0.453845	-0.135255	0.142668	99
Es	-1.949403	-2.616732	-1.042260	99
Es	2.388028	1.803748	1.073865	99
Es	-0.804013	-1.593720	0.090490	99
Es	0.123256	0.131204	-0.258579	99
Es	0.541783	2.218564	0.148862	99
Es	1.683572	1.932342	0.663305	99
41
Properties=species:S:1:pos:R:3:Z:I:1 energy=-250.26004755730781 field_type=dipole dipole="0.000000 0.000000 0.000000" charge=0
C	-1.784543	-1.888910	-1.033446	6
C	-0.803993	-1.593760	0.090514	6
C	-0.453733	-0.135200	0.142654	6
C	0.794257	0.339460	-0.003066	6
C	1.158978	1.787800	0.045314	6
N	2.116198	2.008800	1.116884	7
H	-2.029553	-2.955740	-1.050916	1
H	-1.361773	-1.622470	-2.007866	1
H	-2.717543	-1.330900	-0.902256	1
H	0.093597	-2.209470	-0.042956	1
H	-1.250383	-1.882870	1.048854	1
H	-1.275543	0.555600	0.321524	1
H	1.617127	-0.351070	-0.178266	1
H	0.278717	2.420840	0.199494	1
H	1.610037	2.075080	-0.910466	1
H	1.668488	1.782010	2.003603	1
H	2.339667	3.000800	1.160404	1
Es	-0.453845	-0.135259	0.142669	99
Es	0.794351	0.339525	-0.003085	99
Es	-0.627924	-0.859019	0.114817	99
Es	2.264024	2.613283	1.136209	99
Es	2.382504	1.803171	1.074200	99
Es	1.822539	1.891032	1.645979	99
Es	0.970097	1.061074	0.022270	99
Es	2.115759	2.009074	1.116958	99
Es	1.466626	1.981728	-0.606674	99
Es	-1.019792	0.330441	0.264171	99
Es	0.123239	0.131153	-0.258579	99
Es	1.683604	1.933454	0.664029	99
Es	-1.493256	-1.706451	-1.695441	99
Es	0.541513	2.218483	0.148977	99
Es	1.354590	-0.125404	-0.122905	99
Es	-1.292987	-1.730468	-0.471270	99
Es	1.159064	1.787782	0.045415	99
Es	-1.784531	-1.888909	-1.033418	99
Es	-1.111819	-1.783590	0.743178	99
Es	-1.948829	-2.616451	-1.042517	99
Es	0.220716	0.085871	0.400600	99
Es	-0.187093	-2.009577	-0.004146	99
Es	-2.422714	-1.504180	-0.939082	99
Es	-0.804014	-1.593720	0.090489	99
41
Properties=species:S:1:pos:R:3:Z:I:1 energy=-250.26004755730781 field_type=dipole dipole="0.000000 0.000000 0.000000" charge=0
C	-1.784543	-1.888910	-1.033446	6
C	-0.803993	-1.593760	0.090514	6
C	-0.453733	-0.135200	0.142654	6
C	0.794257	0.339460	-0.003066	6
C	1.158978	1.787800	0.045314	6
N	2.116198	2.008800	1.116884	7
H	-2.029553	-2.955740	-1.050916	1
H	-1.361773	-1.622470	-2.007866	1
H	-2.717543	-1.330900	-0.902256	1
H	0.093597	-2.209470	-0.042956	1
H	-1.250383	-1.882870	1.048854	1
H	-1.275543	0.555600	0.321524	1
H	1.617127	-0.351070	-0.178266	1
H	0.278717	2.420840	0.199494	1
H	1.610037	2.075080	-0.910466	1
H	1.668488	1.782010	2.003603	1
H	2.339667	3.000800	1.160404	1
Es	1.159064	1.787781	0.045416	99
Es	-1.111983	-1.783476	0.742993	99
Es	2.115682	2.009107	1.116964	99
Es	-0.186717	-2.009719	-0.004217	99
Es	2.375395	1.802989	1.075454	99
Es	0.541362	2.218549	0.149099	99
Es	1.683805	1.934555	0.664467	99
Es	-1.784532	-1.888907	-1.033420	99
Es	0.123298	0.131101	-0.258428	99
Es	1.354584	-0.125508	-0.122937	99
Es	-1.948165	-2.616113	-1.042554	99
Es	-1.292815	-1.730381	-0.471203	99
Es	-0.628304	-0.859027	0.114853	99
Es	2.272209	2.610904	1.134724	99
Es	0.220683	0.085857	0.400451	99
Es	0.794351	0.339523	-0.003083	99
Es	-0.804014	-1.593719	0.090489	99
Es	0.970315	1.061003	0.022276	99
Es	1.821430	1.892504	1.645460	99
Es	-0.453843	-0.135256	0.142673	99
Es	1.466538	1.981652	-0.606553	99
Es	-2.423479	-1.504252	-0.939030	99
Es	-1.493251	-1.706693	-1.695221	99
Es	-1.019788	0.330569	0.264174	99
41
Properties=species:S:1:pos:R:3:Z:I:1 energy=-250.26004755730781 field_type=dipole dipole="0.000000 0.000000 0.000000" charge=0
C	-1.784543	-1.888910	-1.033446	6
C	-0.803993	-1.593760	0.090514	6
C	-0.453733	-0.135200	0.142654	6
C	0.794257	0.339460	-0.003066	6
C	1.158978	1.787800	0.045314	6
N	2.116198	2.008800	1.116884	7
H	-2.029553	-2.955740	-1.050916	1
H	-1.361773	-1.622470	-2.007866	1
H	-2.717543	-1.330900	-0.902256	1
H	0.093597	-2.209470	-0.042956	1
H	-1.250383	-1.882870	1.048854	1
H	-1.275543	0.555600	0.321524	1
H	1.617127	-0.351070	-0.178266	1
H	0.278717	2.420840	0.199494	1
H	1.610037	2.075080	-0.910466	1
H	1.668488	1.782010	2.003603	1
H	2.339667	3.000800	1.160404	1
Es	0.220618	0.085908	0.400197	99
Es	-0.628686	-0.858998	0.114943	99
Es	1.684132	1.935795	0.664961	99
Es	-1.019830	0.330687	0.264202	99
Es	-1.112433	-1.783576	0.742727	99
Es	2.115689	2.009096	1.116953	99
Es	0.541113	2.218532	0.149228	99
Es	-1.947583	-2.615874	-1.042629	99
Es	1.354614	-0.125641	-0.122877	99
Es	-0.804014	-1.593718	0.090487	99
Es	-2.424108	-1.504340	-0.938906	99
Es	-1.784532	-1.888906	-1.033419	99
Es	2.368795	1.803537	1.076385	99
Es	-1.493352	-1.706835	-1.694998	99
Es	1.820509	1.893429	1.644830	99
Es	1.159064	1.787782	0.045415	99
Es	-1.292257	-1.730186	-0.471184	99
Es	-0.453846	-0.135257	0.142663	99
Es	0.123337	0.131074	-0.258295	99
Es	2.279565	2.608347	1.133609	99
Es	1.466334	1.981553	-0.606412	99
Es	-0.186311	-2.009815	-0.004275	99
Es	0.794351	0.339523	-0.003079	99
Es	0.970655	1.060927	0.022321	99
41
Properties=species:S:1:pos:R:3:Z:I:1 energy=-250.26004755730781 field_type=dipole dipole="0.000000 0.000000 0.000000" charge=0
C	-1.784543	-1.888910	-1.033446	6
C	-0.803993	-1.593760	0.090514	6
C	-0.453733	-0.135200	0.142654	6
C	0.794257	0.339460	-0.003066	6
C	1.158978	1.787800	0.045314	6
N	2.116198	2.008800	1.116884	7
H	-2.029553	-2.955740	-1.050916	1
H	-1.361773	-1.622470	-2.007866	1
H	-2.717543	-1.330900	-0.902256	1
H	0.093597	-2.209470	-0.042956	1
H	-1.250383	-1.882870	1.048854	1
H	-1.275543	0.555600	0.321524	1
H	1.617127	-0.351070	-0.178266	1
H	0.278717	2.420840	0.199494	1
H	1.610037	2.075080	-0.910466	1
H	1.668488	1.782010	2.003603	1
H	2.339667	3.000800	1.160404	1
Es	0.794351	0.339523	-0.003082	99
Es	0.123395	0.130997	-0.257949	99
Es	-1.112817	-1.783609	0.742531	99
Es	1.159064	1.787782	0.045415	99
Es	-2.424781	-1.504460	-0.938817	99
Es	-1.019989	0.330819	0.264164	99
Es	2.115676	2.009094	1.117008	99
Es	1.818796	1.894691	1.644075	99
Es	1.354708	-0.125770	-0.122839	99
Es	-0.186113	-2.009989	-0.004310	99
Es	-1.946932	-2.615665	-1.042764	99
Es	-0.628744	-0.858957	0.114879	99
Es	0.540876	2.218635	0.149275	99
Es	1.466151	1.981386	-0.606146	99
Es	-1.784531	-1.888906	-1.033418	99
Es	-1.291614	-1.729906	-0.471212	99
Es	2.287306	2.604898	1.132213	99
Es	0.970803	1.060952	0.022207	99
Es	1.685212	1.936991	0.665648	99
Es	-1.493635	-1.707021	-1.694644	99
Es	-0.453844	-0.135257	0.142668	99
Es	-0.804014	-1.593720	0.090491	99
Es	2.361932	1.804570	1.077573	99
Es	0.220567	0.085968	0.399878	99
41
Properties=species:S:1:pos:R:3:Z:I:1 energy=-250.26004755730781 field_type=dipole dipole="0.000000 0.000000 0.000000" charge=0
C	-1.784543	-1.888910	-1.033446	6
C	-0.803993	-1.593760	0.090514	6
C	-0.453733	-0.135200	0.142654	6
C	0.794257	0.339460	-0.003066	6
C	1.158978	1.787800	0.045314	6
N	2.116198	2.008800	1.116884	7
H	-2.029553	-2.955740	-1.050916	1
H	-1.361773	-1.622470	-2.007866	1
H	-2.717543	-1.330900	-0.902256	1
H	0.093597	-2.209470	-0.042956	1
H	-1.250383	-1.882870	1.048854	1
H	-1.275543	0.555600	0.321524	1
H	1.617127	-0.351070	-0.178266	1
H	0.278717	2.420840	0.199494	1
H	1.610037	2.075080	-0.910466	1
H	1.668488	1.782010	2.003603	1
H	2.339667	3.000800	1.160404	1
Es	-1.493871	-1.707187	-1.694342	99
Es	-1.290850	-1.729673	-0.471186	99
Es	0.123450	0.131061	-0.257921	99
Es	-0.629306	-0.858954	0.114887	99
Es	2.292146	2.602517	1.131446	99
Es	2.357541	1.805498	1.077966	99
Es	1.818271	1.895206	1.643660	99
Es	-0.453843	-0.135259	0.142668	99
Es	-1.784532	-1.888907	-1.033418	99
Es	-2.425241	-1.504498	-0.938762	99
Es	0.220505	0.085865	0.399699	99
Es	-1.113308	-1.783751	0.742327	99
Es	2.115683	2.009095	1.116963	99
Es	0.540706	2.218709	0.149272	99
Es	0.794351	0.339522	-0.003073	99
Es	-0.804013	-1.593719	0.090489	99
Es	0.971028	1.060887	0.022221	99
Es	1.466087	1.981304	-0.605898	99
Es	1.685354	1.937986	0.666288	99
Es	1.159064	1.787782	0.045415	99
Es	-0.185764	-2.010024	-0.004372	99
Es	1.354691	-0.125821	-0.122813	99
Es	-1.019824	0.330926	0.264186	99
Es	-1.946501	-2.615521	-1.042858	99
41
Properties=species:S:1:pos:R:3:Z:I:1 energy=-250.26004755730781 field_type=dipole dipole="0.000000 0.000000 0.000000" charge=0
C	-1.784543	-1.888910	-1.033446	6
C	-0.803993	-1.593760	0.090514	6
C	-0.453733	-0.135200	0.142654	6
C	0.794257	0.339460	-0.003066	6
C	1.158978	1.787800	0.045314	6
N	2.116198	2.008800	1.116884	7
H	-2.029553	-2.955740	-1.050916	1
H	-1.361773	-1.622470	-2.007866	1
H	-2.717543	-1.330900	-0.902256	1
H	0.093597	-2.209470	-0.042956	1
H	-1.250383	-1.882870	1.048854	1
H	-1.275543	0.555600	0.321524	1
H	1.617127	-0.351070	-0.178266	1
H	0.278717	2.420840	0.199494	1
H	1.610037	2.075080	-0.910466	1
H	1.668488	1.782010	2.003603	1
H	2.339667	3.000800	1.160404	1
Es	-1.784532	-1.888907	-1.033417	99
Es	1.465636	1.981023	-0.605573	99
Es	-0.629398	-0.858972	0.115106	99
Es	-0.185464	-2.010147	-0.004368	99
Es	0.123533	0.130883	-0.257485	99
Es	-1.494321	-1.707495	-1.693932	99
Es	0.220436	0.086033	0.399358	99
Es	0.794351	0.339524	-0.003080	99
Es	1.687524	1.938817	0.666489	99
Es	-1.290074	-1.729208	-0.471285	99
Es	-2.425808	-1.504636	-0.938792	99
Es	-1.113665	-1.783860	0.741960	99
Es	-0.804014	-1.593719	0.090488	99
Es	-1.020018	0.331060	0.264081	99
Es	1.159063	1.787782	0.045412	99
Es	1.816239	1.895535	1.643106	99
Es	0.540484	2.218802	0.149331	99
Es	2.115688	2.009107	1.116952	99
Es	0.971209	1.060881	0.022134	99
Es	2.351853	1.807835	1.079078	99
Es	-1.945946	-2.615329	-1.042931	99
Es	-0.453844	-0.135257	0.142670	99
Es	2.298128	2.599263	1.130305	99
Es	1.354764	-0.125973	-0.122762	99
41
Properties=species:S:1:pos:R:3:Z:I:1 energy=-250.26004755730781 field_type=dipole dipole="0.000000 0.000000 0.000000" charge=0
C	-1.784543	-1.888910	-1.033446	6
C	-0.803993	-1.593760	0.090514	6
C	-0.453733	-0.135200	0.142654	6
C	0.794257	0.339460	-0.003066	6
C	1.158978	1.787800	0.045314	6
N	2.116198	2.008800	1.116884	7
H	-2.029553	-2.955740	-1.050916	1
H	-1.361773	-1.622470	-2.007866	1
H	-2.717543	-1.330900	-0.902256	1
H	0.093597	-2.209470	-0.042956	1
H	-1.250383	-1.882870	1.048854	1
H	-1.275543	0.555600	0.321524	1
H	1.617127	-0.351070	-0.178266	1
H	0.278717	2.420840	0.199494	1
H	1.610037	2.075080	-0.910466	1
H	1.668488	1.782010	2.003603	1
H	2.339667	3.000800	1.160404	1
Es	2.115684	2.009093	1.116950	99
Es	2.347442	1.809845	1.079556	99
Es	-1.945595	-2.615222	-1.042980	99
Es	-1.784533	-1.888907	-1.033415	99
Es	0.220352	0.086006	0.399182	99
Es	0.794350	0.339526	-0.003080	99
Es	-0.453844	-0.135257	0.142669	99
Es	-1.020060	0.331110	0.264068	99
Es	0.971375	1.060815	0.022121	99
Es	-1.286923	-1.727918	-0.471693	99
Es	1.464902	1.980654	-0.605212	99
Es	-0.804013	-1.593719	0.090486	99
Es	-0.629579	-0.858940	0.115087	99
Es	-2.426158	-1.504664	-0.938711	99
Es	1.689588	1.940038	0.666773	99
Es	1.814640	1.895521	1.642581	99
Es	1.354794	-0.126031	-0.122663	99
Es	-0.185265	-2.010208	-0.004367	99
Es	1.159063	1.787782	0.045411	99
Es	-1.115296	-1.784463	0.741711	99
Es	-1.495851	-1.708197	-1.693286	99
Es	0.123599	0.130915	-0.257412	99
Es	0.540354	2.218832	0.149377	99
Es	2.302798	2.596431	1.129694	99
41
Properties=species:S:1:pos:R:3:Z:I:1 energy=-250.26004755730781 field_type=dipole dipole="0.000000 0.000000 0.000000" charge=0
C	-1.784543	-1.888910	-1.033446	6
C	-0.803993	-1.593760	0.090514	6
C	-0.453733	-0.135200	0.142654	6
C	0.794257	0.339460	-0.003066	6
C	1.158978	1.787800	0.045314	6
N	2.116198	2.008800	1.116884	7
H	-2.029553	-2.955740	-1.050916	1
H	-1.361773	-1.622470	-2.007866	1
H	-2.717543	-1.330900	-0.902256	1
H	0.093597	-2.209470	-0.042956	1
H	-1.250383	-1.882870	1.048854	1
H	-1.275543	0.555600	0.321524	1
H	1.617127	-0.351070	-0.178266	1
H	0.278717	2.420840	0.199494	1
H	1.610037	2.075080	-0.910466	1
H	1.668488	1.782010	2.003603	1
H	2.339667	3.000800	1.160404	1
Es	-0.804013	-1.593718	0.090486	99
Es	-0.453844	-0.135257	0.142667	99
Es	1.464077	1.980225	-0.604758	99
Es	2.115710	2.009058	1.116918	99
Es	0.123616	0.130852	-0.257215	99
Es	-1.945222	-2.615127	-1.043081	99
Es	1.692931	1.941375	0.667252	99
Es	-1.784532	-1.888907	-1.033415	99
Es	-0.629801	-0.858960	0.115111	99
Es	2.307352	2.593323	1.128845	99
Es	1.354777	-0.126133	-0.122598	99
Es	-1.115426	-1.784466	0.741476	99
Es	-1.020060	0.331201	0.263969	99
Es	2.343305	1.811634	1.080460	99
Es	1.159063	1.787782	0.045418	99
Es	-2.426514	-1.504773	-0.938697	99
Es	0.971550	1.060797	0.022116	99
Es	0.794351	0.339522	-0.003075	99
Es	-0.185064	-2.010290	-0.004369	99
Es	-1.286444	-1.727698	-0.471764	99
Es	1.811651	1.895994	1.641589	99
Es	0.220328	0.086097	0.399019	99
Es	-1.496217	-1.708353	-1.692922	99
Es	0.540250	2.218866	0.149413	99
41
Properties=species:S:1:pos:R:3:Z:I:1 energy=-250.26004755730781 field_type=dipole dipole="0.000000 0.000000 0.000000" charge=0
C	-1.784543	-1.888910	-1.033446	6
C	-0.803993	-1.593760	0.090514	6
C	-0.453733	-0.135200	0.142654	6
C	0.794257	0.339460	-0.003066	6
C	1.158978	1.787800	0.045314	6
N	2.116198	2.008800	1.116884	7
H	-2.029553	-2.955740	-1.050916	1
H	-1.361773	-1.622470	-2.007866	1
H	-2.717543	-1.330900	-0.902256	1
H	0.093597	-2.209470	-0.042956	1
H	-1.250383	-1.882870	1.048854	1
H	-1.275543	0.555600	0.321524	1
H	1.617127	-0.351070	-0.178266	1
H	0.278717	2.420840	0.199494	1
H	1.610037	2.075080	-0.910466	1
H	1.668488	1.782010	2.003603	1
H	2.339667	3.000800	1.160404	1
Es	-1.020088	0.331259	0.263938	99
Es	-1.115046	-1.784250	0.741397	99
Es	0.540225	2.218978	0.149433	99
Es	0.794351	0.339523	-0.003079	99
Es	0.971501	1.060736	0.022041	99
Es	-0.453844	-0.135257	0.142666	99
Es	0.220322	0.086182	0.398912	99
Es	2.310841	2.590831	1.128180	99
Es	-0.629894	-0.858935	0.115138	99
Es	-0.804013	-1.593719	0.090486	99
Es	1.463356	1.979814	-0.604282	99
Es	2.115730	2.009079	1.116935	99
Es	-1.945075	-2.615091	-1.043133	99
Es	0.123634	0.130739	-0.257105	99
Es	1.354851	-0.126163	-0.122552	99
Es	-1.496720	-1.708597	-1.692574	99
Es	-0.184956	-2.010362	-0.004371	99
Es	-2.426666	-1.504788	-0.938722	99
Es	-1.286320	-1.727633	-0.471929	99
Es	1.159063	1.787781	0.045414	99
Es	2.339988	1.813322	1.080739	99
Es	-1.784533	-1.888907	-1.033415	99
Es	1.696217	1.942581	0.668081	99
Es	1.808902	1.895922	1.640648	99
