41
Properties=species:S:1:pos:R:3:Z:I:1 energy=-250.2297163944218 field_type=dipole dipole="0.000000 0.000000 0.000000" charge=0
C	-2.337223	-0.804657	-0.574419	6
C	-0.826343	-0.764177	-0.747729	6
C	-0.222303	0.479863	-0.091189	6
N	1.228067	0.501123	-0.307319	7
C	1.939307	1.341103	0.649961	6
C	1.990267	-0.162267	0.746081	6
H	-2.747303	-1.705497	-1.040379	1
H	-2.808163	0.065433	-1.042759	1
H	-2.610263	-0.815307	0.485001	1
H	-0.588013	-0.779197	-1.817940	1
H	-0.394413	-1.670857	-0.306329	1
H	-0.499803	0.506553	0.971131	1
H	-0.653623	1.377033	-0.552549	1
H	1.368187	1.889673	1.389101	1
H	2.812997	1.855953	0.267311	1
H	2.895697	-0.662367	0.424531	1
H	1.452936	-0.652407	1.547501	1
Es	-0.523593	-0.142395	-0.415015	99
Es	-1.587804	-0.779406	-0.655586	99
Es	-0.518508	1.095488	-0.406338	99
Es	2.531984	1.695789	0.391924	99
Es	1.616552	-0.495337	1.289393	99
Es	1.542597	1.713315	1.150177	99
Es	1.503132	0.078108	0.118816	99
Es	-2.616814	-1.419397	-0.892083	99
Es	1.477516	0.991125	0.060573	99
Es	1.990164	-0.162108	0.745952	99
Es	0.609294	0.493199	-0.173437	99
Es	-0.405451	0.494472	0.650856	99
Es	1.227922	0.501162	-0.306671	99
Es	2.100104	0.605394	0.877363	99
Es	-0.665634	-0.770137	-1.477426	99
Es	-0.222167	0.479842	-0.091216	99
Es	-2.656395	-0.207178	-0.893778	99
Es	-0.529143	-1.383065	-0.438692	99
Es	1.348478	0.482932	-0.640083	99
Es	-2.337203	-0.804656	-0.574419	99
Es	1.939218	1.340909	0.649857	99
Es	2.604609	-0.506525	0.530171	99
Es	-2.521049	-0.809946	0.152456	99
Es	-0.826379	-0.764152	-0.747696	99
41
Properties=species:S:1:pos:R:3:Z:I:1 energy=-250.2297163944218 field_type=dipole dipole="0.000000 0.000000 0.000000" charge=0
C	-2.337223	-0.804657	-0.574419	6
C	-0.826343	-0.764177	-0.747729	6
C	-0.222303	0.479863	-0.091189	6
N	1.228067	0.501123	-0.307319	7
C	1.939307	1.341103	0.649961	6
C	1.990267	-0.162267	0.746081	6
H	-2.747303	-1.705497	-1.040379	1
H	-2.808163	0.065433	-1.042759	1
H	-2.610263	-0.815307	0.485001	1
H	-0.588013	-0.779197	-1.817940	1
H	-0.394413	-1.670857	-0.306329	1
H	-0.499803	0.506553	0.971131	1
H	-0.653623	1.377033	-0.552549	1
H	1.368187	1.889673	1.389101	1
H	2.812997	1.855953	0.267311	1
H	2.895697	-0.662367	0.424531	1
H	1.452936	-0.652407	1.547501	1
Es	-0.666743	-0.769832	-1.476892	99
Es	-0.404715	0.494205	0.650159	99
Es	1.477242	0.993707	0.059524	99
Es	1.939214	1.340916	0.649856	99
Es	-0.529068	-1.384674	-0.438439	99
Es	1.503313	0.074812	0.118728	99
Es	-0.222168	0.479839	-0.091213	99
Es	1.227923	0.501163	-0.306662	99
Es	-2.519876	-0.810088	0.151757	99
Es	-0.523800	-0.142113	-0.414865	99
Es	-0.518685	1.096660	-0.406386	99
Es	2.101966	0.605007	0.879368	99
Es	1.542886	1.713750	1.149351	99
Es	-1.587821	-0.779259	-0.655495	99
Es	1.990157	-0.162099	0.745945	99
Es	2.530528	1.695711	0.391952	99
Es	-2.656440	-0.205612	-0.893937	99
Es	0.610001	0.493476	-0.174480	99
Es	-2.337202	-0.804655	-0.574420	99
Es	1.346809	0.483587	-0.637826	99
Es	1.616907	-0.495354	1.288562	99
Es	-0.826379	-0.764154	-0.747697	99
Es	-2.616491	-1.420704	-0.892051	99
Es	2.603874	-0.506857	0.530259	99
41
Properties=species:S:1:pos:R:3:Z:I:1 energy=-250.2297163944218 field_type=dipole dipole="0.000000 0.000000 0.000000" charge=0
C	-2.337223	-0.804657	-0.574419	6
C	-0.826343	-0.764177	-0.747729	6
C	-0.222303	0.479863	-0.091189	6
N	1.228067	0.501123	-0.307319	7
C	1.939307	1.341103	0.649961	6
C	1.990267	-0.162267	0.746081	6
H	-2.747303	-1.705497	-1.040379	1
H	-2.808163	0.065433	-1.042759	1
H	-2.610263	-0.815307	0.485001	1
H	-0.588013	-0.779197	-1.817940	1
H	-0.394413	-1.670857	-0.306329	1
H	-0.499803	0.506553	0.971131	1
H	-0.653623	1.377033	-0.552549	1
H	1.368187	1.889673	1.389101	1
H	2.812997	1.855953	0.267311	1
H	2.895697	-0.662367	0.424531	1
H	1.452936	-0.652407	1.547501	1
Es	-0.826379	-0.764152	-0.747696	99
Es	1.990156	-0.162096	0.745944	99
Es	-0.518779	1.097425	-0.406308	99
Es	2.102977	0.605011	0.880615	99
Es	-1.587909	-0.779255	-0.655481	99
Es	-0.529131	-1.385623	-0.438330	99
Es	0.610345	0.493528	-0.175031	99
Es	-2.616233	-1.421494	-0.891992	99
Es	1.939210	1.340914	0.649849	99
Es	1.617184	-0.495206	1.287948	99
Es	1.543046	1.713994	1.148857	99
Es	1.345690	0.483970	-0.636136	99
Es	-0.667384	-0.769690	-1.476509	99
Es	-2.656405	-0.204585	-0.894047	99
Es	-2.519109	-0.810196	0.151289	99
Es	-0.404206	0.494012	0.649627	99
Es	-0.222169	0.479842	-0.091214	99
Es	2.529698	1.695541	0.392145	99
Es	-2.337203	-0.804655	-0.574418	99
Es	1.503441	0.072663	0.118327	99
Es	2.603458	-0.507060	0.530481	99
Es	1.477144	0.995340	0.058646	99
Es	1.227931	0.501160	-0.306701	99
Es	-0.523942	-0.141957	-0.414765	99
41
Properties=species:S:1:pos:R:3:Z:I:1 energy=-250.2297163944218 field_type=dipole dipole="0.000000 0.000000 0.000000" charge=0
C	-2.337223	-0.804657	-0.574419	6
C	-0.826343	-0.764177	-0.747729	6
C	-0.222303	0.479863	-0.091189	6
N	1.228067	0.501123	-0.307319	7
C	1.939307	1.341103	0.649961	6
C	1.990267	-0.162267	0.746081	6
H	-2.747303	-1.705497	-1.040379	1
H	-2.808163	0.065433	-1.042759	1
H	-2.610263	-0.815307	0.485001	1
H	-0.588013	-0.779197	-1.817940	1
H	-0.394413	-1.670857	-0.306329	1
H	-0.499803	0.506553	0.971131	1
H	-0.653623	1.377033	-0.552549	1
H	1.368187	1.889673	1.389101	1
H	2.812997	1.855953	0.267311	1
H	2.895697	-0.662367	0.424531	1
H	1.452936	-0.652407	1.547501	1
Es	-0.524030	-0.141864	-0.414625	99
Es	1.503284	0.071421	0.118062	99
Es	1.344937	0.484210	-0.635372	99
Es	0.610833	0.493511	-0.175221	99
Es	2.603197	-0.507230	0.530588	99
Es	-0.518774	1.097932	-0.406314	99
Es	-1.587939	-0.779159	-0.655384	99
Es	-2.337203	-0.804655	-0.574419	99
Es	-0.529237	-1.386333	-0.438311	99
Es	-0.403890	0.493919	0.649281	99
Es	1.227924	0.501160	-0.306691	99
Es	-0.667950	-0.769530	-1.476342	99
Es	2.103754	0.604909	0.881622	99
Es	-0.222172	0.479842	-0.091214	99
Es	-0.826380	-0.764153	-0.747696	99
Es	1.476884	0.996467	0.058180	99
Es	1.617389	-0.495087	1.287489	99
Es	-2.656373	-0.203909	-0.894161	99
Es	1.990145	-0.162098	0.745944	99
Es	2.529039	1.695204	0.392260	99
Es	1.543241	1.714326	1.148521	99
Es	-2.518545	-0.810246	0.151011	99
Es	1.939213	1.340906	0.649851	99
Es	-2.615918	-1.422116	-0.891959	99
41
Properties=species:S:1:pos:R:3:Z:I:1 energy=-250.2297163944218 field_type=dipole dipole="0.000000 0.000000 0.000000" charge=0
C	-2.337223	-0.804657	-0.574419	6
C	-0.826343	-0.764177	-0.747729	6
C	-0.222303	0.479863	-0.091189	6
N	1.228067	0.501123	-0.307319	7
C	1.939307	1.341103	0.649961	6
C	1.990267	-0.162267	0.746081	6
H	-2.747303	-1.705497	-1.040379	1
H	-2.808163	0.065433	-1.042759	1
H	-2.610263	-0.815307	0.485001	1
H	-0.588013	-0.779197	-1.817940	1
H	-0.394413	-1.670857	-0.306329	1
H	-0.499803	0.506553	0.971131	1
H	-0.653623	1.377033	-0.552549	1
H	1.368187	1.889673	1.389101	1
H	2.812997	1.855953	0.267311	1
H	2.895697	-0.662367	0.424531	1
H	1.452936	-0.652407	1.547501	1
Es	1.344709	0.484356	-0.634021	99
Es	2.602863	-0.507427	0.530746	99
Es	-0.403520	0.493870	0.649081	99
Es	1.543354	1.714462	1.148376	99
Es	1.503156	0.070673	0.117684	99
Es	0.610777	0.493320	-0.176189	99
Es	1.990161	-0.162098	0.745945	99
Es	1.617540	-0.494889	1.287133	99
Es	-0.222170	0.479842	-0.091215	99
Es	2.528423	1.695058	0.392342	99
Es	1.939208	1.340911	0.649847	99
Es	-0.524278	-0.141775	-0.414465	99
Es	-0.826379	-0.764151	-0.747697	99
Es	1.476624	0.997305	0.057699	99
Es	-0.668320	-0.769421	-1.476257	99
Es	2.104694	0.604843	0.882416	99
Es	-2.518202	-0.810188	0.150767	99
Es	-1.587927	-0.779313	-0.655257	99
Es	-2.337202	-0.804654	-0.574419	99
Es	-0.518797	1.098291	-0.406263	99
Es	-2.615783	-1.422572	-0.891934	99
Es	-2.656197	-0.203432	-0.894259	99
Es	-0.529241	-1.386739	-0.438290	99
Es	1.227937	0.501162	-0.306672	99
41
Properties=species:S:1:pos:R:3:Z:I:1 energy=-250.2297163944218 field_type=dipole dipole="0.000000 0.000000 0.000000" charge=0
C	-2.337223	-0.804657	-0.574419	6
C	-0.826343	-0.764177	-0.747729	6
C	-0.222303	0.479863	-0.091189	6
N	1.228067	0.501123	-0.307319	7
C	1.939307	1.341103	0.649961	6
C	1.990267	-0.162267	0.746081	6
H	-2.747303	-1.705497	-1.040379	1
H	-2.808163	0.065433	-1.042759	1
H	-2.610263	-0.815307	0.485001	1
H	-0.588013	-0.779197	-1.817940	1
H	-0.394413	-1.670857	-0.306329	1
H	-0.499803	0.506553	0.971131	1
H	-0.653623	1.377033	-0.552549	1
H	1.368187	1.889673	1.389101	1
H	2.812997	1.855953	0.267311	1
H	2.895697	-0.662367	0.424531	1
H	1.452936	-0.652407	1.547501	1
Es	1.617659	-0.494869	1.286725	99
Es	-2.517695	-0.810256	0.150728	99
Es	1.990160	-0.162095	0.745948	99
Es	-2.656247	-0.203085	-0.894222	99
Es	-2.615627	-1.422880	-0.891904	99
Es	-0.529345	-1.387055	-0.438267	99
Es	-0.518743	1.098540	-0.406287	99
Es	-2.337203	-0.804655	-0.574419	99
Es	1.503218	0.069700	0.117257	99
Es	1.476169	0.997748	0.057504	99
Es	1.939214	1.340908	0.649850	99
Es	1.227973	0.501160	-0.306713	99
Es	2.528015	1.694816	0.392506	99
Es	0.610848	0.493329	-0.176739	99
Es	2.602768	-0.507475	0.530845	99
Es	1.543584	1.714567	1.148186	99
Es	-0.826380	-0.764151	-0.747697	99
Es	1.344480	0.485047	-0.633072	99
Es	-1.587964	-0.779245	-0.655336	99
Es	-0.668728	-0.769455	-1.476216	99
Es	-0.222172	0.479842	-0.091214	99
Es	-0.403373	0.493834	0.648910	99
Es	-0.524264	-0.141630	-0.414464	99
Es	2.105085	0.604790	0.883190	99
41
Properties=species:S:1:pos:R:3:Z:I:1 energy=-250.2297163944218 field_type=dipole dipole="0.000000 0.000000 0.000000" charge=0
C	-2.337223	-0.804657	-0.574419	6
C	-0.826343	-0.764177	-0.747729	6
C	-0.222303	0.479863	-0.091189	6
N	1.228067	0.501123	-0.307319	7
C	1.939307	1.341103	0.649961	6
C	1.990267	-0.162267	0.746081	6
H	-2.747303	-1.705497	-1.040379	1
H	-2.808163	0.065433	-1.042759	1
H	-2.610263	-0.815307	0.485001	1
H	-0.588013	-0.779197	-1.817940	1
H	-0.394413	-1.670857	-0.306329	1
H	-0.499803	0.506553	0.971131	1
H	-0.653623	1.377033	-0.552549	1
H	1.368187	1.889673	1.389101	1
H	2.812997	1.855953	0.267311	1
H	2.895697	-0.662367	0.424531	1
H	1.452936	-0.652407	1.547501	1
Es	1.543662	1.714724	1.147961	99
Es	-2.337204	-0.804655	-0.574419	99
Es	0.610747	0.493283	-0.177048	99
Es	-0.826380	-0.764153	-0.747696	99
Es	-1.587965	-0.779118	-0.655278	99
Es	-0.669067	-0.769403	-1.476119	99
Es	1.990163	-0.162096	0.745946	99
Es	2.105454	0.604778	0.883745	99
Es	1.939205	1.340905	0.649846	99
Es	-2.656220	-0.202784	-0.894296	99
Es	-2.517418	-0.810275	0.150612	99
Es	-0.403281	0.493757	0.648771	99
Es	-0.529429	-1.387433	-0.438217	99
Es	1.503105	0.069508	0.117410	99
Es	-0.524201	-0.141554	-0.414500	99
Es	2.527678	1.694657	0.392568	99
Es	-0.518747	1.098750	-0.406338	99
Es	-0.222172	0.479843	-0.091215	99
Es	-2.615411	-1.423175	-0.891877	99
Es	2.602656	-0.507530	0.531037	99
Es	1.476103	0.998298	0.056910	99
Es	1.344469	0.484669	-0.632518	99
Es	1.227928	0.501163	-0.306668	99
Es	1.617756	-0.494727	1.286482	99
41
Properties=species:S:1:pos:R:3:Z:I:1 energy=-250.2297163944218 field_type=dipole dipole="0.000000 0.000000 0.000000" charge=0
C	-2.337223	-0.804657	-0.574419	6
C	-0.826343	-0.764177	-0.747729	6
C	-0.222303	0.479863	-0.091189	6
N	1.228067	0.501123	-0.307319	7
C	1.939307	1.341103	0.649961	6
C	1.990267	-0.162267	0.746081	6
H	-2.747303	-1.705497	-1.040379	1
H	-2.808163	0.065433	-1.042759	1
H	-2.610263	-0.815307	0.485001	1
H	-0.588013	-0.779197	-1.817940	1
H	-0.394413	-1.670857	-0.306329	1
H	-0.499803	0.506553	0.971131	1
H	-0.653623	1.377033	-0.552549	1
H	1.368187	1.889673	1.389101	1
H	2.812997	1.855953	0.267311	1
H	2.895697	-0.662367	0.424531	1
H	1.452936	-0.652407	1.547501	1
Es	-0.529463	-1.387653	-0.438204	99
Es	-2.656216	-0.202565	-0.894260	99
Es	-2.517203	-0.810318	0.150492	99
Es	-1.587976	-0.779109	-0.655349	99
Es	1.990155	-0.162099	0.745943	99
Es	-0.222170	0.479842	-0.091215	99
Es	-0.518701	1.098916	-0.406361	99
Es	1.344249	0.484910	-0.631874	99
Es	-0.669187	-0.769338	-1.476017	99
Es	-2.337203	-0.804655	-0.574419	99
Es	1.228012	0.501153	-0.306856	99
Es	1.502933	0.068982	0.117131	99
Es	1.475894	0.998762	0.056706	99
Es	2.527239	1.694435	0.392754	99
Es	-0.826380	-0.764153	-0.747696	99
Es	1.543793	1.714807	1.147871	99
Es	1.617904	-0.494610	1.286330	99
Es	-2.615327	-1.423358	-0.891876	99
Es	-0.403170	0.493754	0.648654	99
Es	2.602460	-0.507592	0.531102	99
Es	2.106023	0.604745	0.884139	99
Es	-0.524308	-0.141518	-0.414425	99
Es	1.939210	1.340905	0.649849	99
Es	0.610862	0.493190	-0.177320	99
41
Properties=species:S:1:pos:R:3:Z:I:1 energy=-250.2297163944218 field_type=dipole dipole="0.000000 0.000000 0.000000" charge=0
C	-2.337223	-0.804657	-0.574419	6
C	-0.826343	-0.764177	-0.747729	6
C	-0.222303	0.479863	-0.091189	6
N	1.228067	0.501123	-0.307319	7
C	1.939307	1.341103	0.649961	6
C	1.990267	-0.162267	0.746081	6
H	-2.747303	-1.705497	-1.040379	1
H	-2.808163	0.065433	-1.042759	1
H	-2.610263	-0.815307	0.485001	1
H	-0.588013	-0.779197	-1.817940	1
H	-0.394413	-1.670857	-0.306329	1
H	-0.499803	0.506553	0.971131	1
H	-0.653623	1.377033	-0.552549	1
H	1.368187	1.889673	1.389101	1
H	2.812997	1.855953	0.267311	1
H	2.895697	-0.662367	0.424531	1
H	1.452936	-0.652407	1.547501	1
Es	-2.615116	-1.423647	-0.891863	99
Es	1.502644	0.068854	0.117223	99
Es	-2.337204	-0.804655	-0.574419	99
Es	-0.222171	0.479842	-0.091215	99
Es	2.527002	1.694282	0.392764	99
Es	-2.517068	-0.810260	0.150384	99
Es	1.939211	1.340907	0.649850	99
Es	-0.826381	-0.764153	-0.747695	99
Es	1.990151	-0.162105	0.745938	99
Es	1.544015	1.714865	1.147777	99
Es	-2.656096	-0.202341	-0.894394	99
Es	-0.669344	-0.769259	-1.475850	99
Es	1.475676	0.998922	0.056325	99
Es	1.617952	-0.494506	1.286120	99
Es	-0.524502	-0.141435	-0.414458	99
Es	-0.518666	1.099088	-0.406344	99
Es	1.227966	0.501160	-0.306715	99
Es	-0.403007	0.493723	0.648579	99
Es	2.106303	0.604856	0.884639	99
Es	-0.529315	-1.387831	-0.438200	99
Es	1.344416	0.484692	-0.631537	99
Es	0.610748	0.493279	-0.177807	99
Es	2.602422	-0.507648	0.531239	99
Es	-1.588205	-0.779199	-0.655240	99
41
Properties=species:S:1:pos:R:3:Z:I:1 energy=-250.2297163944218 field_type=dipole dipole="0.000000 0.000000 0.000000" charge=0
C	-2.337223	-0.804657	-0.574419	6
C	-0.826343	-0.764177	-0.747729	6
C	-0.222303	0.479863	-0.091189	6
N	1.228067	0.501123	-0.307319	7
C	1.939307	1.341103	0.649961	6
C	1.990267	-0.162267	0.746081	6
H	-2.747303	-1.705497	-1.040379	1
H	-2.808163	0.065433	-1.042759	1
H	-2.610263	-0.815307	0.485001	1
H	-0.588013	-0.779197	-1.817940	1
H	-0.394413	-1.670857	-0.306329	1
H	-0.499803	0.506553	0.971131	1
H	-0.653623	1.377033	-0.552549	1
H	1.368187	1.889673	1.389101	1
H	2.812997	1.855953	0.267311	1
H	2.895697	-0.662367	0.424531	1
H	1.452936	-0.652407	1.547501	1
Es	1.344380	0.485108	-0.630968	99
Es	1.227939	0.501162	-0.306666	99
Es	2.526748	1.694182	0.392869	99
Es	-0.222172	0.479843	-0.091215	99
Es	-1.588063	-0.779189	-0.655300	99
Es	1.502613	0.068473	0.116649	99
Es	-0.669575	-0.769236	-1.475914	99
Es	-0.826382	-0.764153	-0.747695	99
Es	2.602292	-0.507662	0.531309	99
Es	-2.615097	-1.423718	-0.891827	99
Es	1.475519	0.999287	0.056469	99
Es	-2.516814	-0.810311	0.150378	99
Es	0.610748	0.493038	-0.178172	99
Es	1.618135	-0.494380	1.285993	99
Es	-2.337203	-0.804655	-0.574419	99
Es	-0.529498	-1.388019	-0.438249	99
Es	1.990156	-0.162097	0.745945	99
Es	-2.656105	-0.202169	-0.894363	99
Es	-0.518720	1.099226	-0.406326	99
Es	-0.524399	-0.141399	-0.414336	99
Es	1.939210	1.340906	0.649851	99
Es	-0.402946	0.493637	0.648437	99
Es	1.544033	1.714928	1.147586	99
Es	2.106633	0.604627	0.885064	99
41
Properties=species:S:1:pos:R:3:Z:I:1 energy=-250.2297163944218 field_type=dipole dipole="0.000000 0.000000 0.000000" charge=0
C	-2.337223	-0.804657	-0.574419	6
C	-0.826343	-0.764177	-0.747729	6
C	-0.222303	0.479863	-0.091189	6
N	1.228067	0.501123	-0.307319	7
C	1.939307	1.341103	0.649961	6
C	1.990267	-0.162267	0.746081	6
H	-2.747303	-1.705497	-1.040379	1
H	-2.808163	0.065433	-1.042759	1
H	-2.610263	-0.815307	0.485001	1
H	-0.588013	-0.779197	-1.817940	1
H	-0.394413	-1.670857	-0.306329	1
H	-0.499803	0.506553	0.971131	1
H	-0.653623	1.377033	-0.552549	1
H	1.368187	1.889673	1.389101	1
H	2.812997	1.855953	0.267311	1
H	2.895697	-0.662367	0.424531	1
H	1.452936	-0.652407	1.547501	1
Es	-0.402821	0.493604	0.648360	99
Es	1.227909	0.501166	-0.306587	99
Es	-2.614978	-1.423828	-0.891878	99
Es	-1.587939	-0.779022	-0.655251	99
Es	2.602227	-0.507702	0.531365	99
Es	-2.516668	-0.810405	0.150298	99
Es	2.526530	1.694061	0.392910	99
Es	2.106854	0.604715	0.885329	99
Es	-0.518725	1.099335	-0.406250	99
Es	0.610704	0.493068	-0.178713	99
Es	1.344568	0.485164	-0.630616	99
Es	1.544135	1.714994	1.147525	99
Es	-0.222171	0.479842	-0.091215	99
Es	1.990153	-0.162105	0.745940	99
Es	1.618217	-0.494301	1.285825	99
Es	-0.529591	-1.388192	-0.438181	99
Es	-0.826380	-0.764152	-0.747696	99
Es	-0.524434	-0.141400	-0.414374	99
Es	-2.656168	-0.202038	-0.894279	99
Es	1.939211	1.340904	0.649850	99
Es	1.475232	0.999415	0.056247	99
Es	-0.669778	-0.769240	-1.475949	99
Es	-2.337203	-0.804655	-0.574419	99
Es	1.502547	0.068203	0.116858	99
41
Properties=species:S:1:pos:R:3:Z:I:1 energy=-250.2297163944218 field_type=dipole dipole="0.000000 0.000000 0.000000" charge=0
C	-2.337223	-0.804657	-0.574419	6
C	-0.826343	-0.764177	-0.747729	6
C	-0.222303	0.479863	-0.091189	6
N	1.228067	0.501123	-0.307319	7
C	1.939307	1.341103	0.649961	6
C	1.990267	-0.162267	0.746081	6
H	-2.747303	-1.705497	-1.040379	1
H	-2.808163	0.065433	-1.042759	1
H	-2.610263	-0.815307	0.485001	1
H	-0.588013	-0.779197	-1.817940	1
H	-0.394413	-1.670857	-0.306329	1
H	-0.499803	0.506553	0.971131	1
H	-0.653623	1.377033	-0.552549	1
H	1.368187	1.889673	1.389101	1
H	2.812997	1.855953	0.267311	1
H	2.895697	-0.662367	0.424531	1
H	1.452936	-0.652407	1.547501	1
Es	2.107140	0.604638	0.885651	99
Es	1.475139	0.999738	0.055796	99
Es	-0.518676	1.099369	-0.406302	99
Es	-2.337203	-0.804655	-0.574420	99
Es	2.526260	1.694014	0.393018	99
Es	0.610584	0.493113	-0.178944	99
Es	2.602213	-0.507714	0.531348	99
Es	-2.655983	-0.201895	-0.894322	99
Es	-0.669847	-0.769249	-1.475936	99
Es	1.990158	-0.162095	0.745944	99
Es	1.939208	1.340911	0.649847	99
Es	1.544237	1.714912	1.147507	99
Es	1.227914	0.501161	-0.306673	99
Es	-0.222171	0.479842	-0.091215	99
Es	-2.615070	-1.423893	-0.891851	99
Es	1.502535	0.068070	0.116831	99
Es	1.618278	-0.494316	1.285666	99
Es	-0.826380	-0.764152	-0.747695	99
Es	1.344473	0.485150	-0.630006	99
Es	-1.587935	-0.779178	-0.655304	99
Es	-0.529673	-1.388275	-0.438172	99
Es	-2.516550	-0.810340	0.150288	99
Es	-0.524476	-0.141404	-0.414281	99
Es	-0.402747	0.493682	0.648324	99
41
Properties=species:S:1:pos:R:3:Z:I:1 energy=-250.2297163944218 field_type=dipole dipole="0.000000 0.000000 0.000000" charge=0
C	-2.337223	-0.804657	-0.574419	6
C	-0.826343	-0.764177	-0.747729	6
C	-0.222303	0.479863	-0.091189	6
N	1.228067	0.501123	-0.307319	7
C	1.939307	1.341103	0.649961	6
C	1.990267	-0.162267	0.746081	6
H	-2.747303	-1.705497	-1.040379	1
H	-2.808163	0.065433	-1.042759	1
H	-2.610263	-0.815307	0.485001	1
H	-0.588013	-0.779197	-1.817940	1
H	-0.394413	-1.670857	-0.306329	1
H	-0.499803	0.506553	0.971131	1
H	-0.653623	1.377033	-0.552549	1
H	1.368187	1.889673	1.389101	1
H	2.812997	1.855953	0.267311	1
H	2.895697	-0.662367	0.424531	1
H	1.452936	-0.652407	1.547501	1
Es	-0.222173	0.479842	-0.091214	99
Es	1.939211	1.340910	0.649853	99
Es	-2.337203	-0.804655	-0.574420	99
Es	2.107168	0.604578	0.885626	99
Es	-0.529708	-1.388359	-0.438123	99
Es	1.618314	-0.494046	1.285673	99
Es	-1.587982	-0.779033	-0.655325	99
Es	1.344548	0.485249	-0.629727	99
Es	-0.518608	1.099501	-0.406320	99
Es	-0.524474	-0.141392	-0.414327	99
Es	-2.614907	-1.424071	-0.891853	99
Es	1.990157	-0.162096	0.745944	99
Es	2.602189	-0.507812	0.531565	99
Es	1.227934	0.501162	-0.306656	99
Es	1.502523	0.067827	0.116683	99
Es	-2.516357	-0.810371	0.150232	99
Es	2.526158	1.693693	0.393031	99
Es	1.544404	1.715163	1.147489	99
Es	-2.656092	-0.201820	-0.894274	99
Es	-0.669944	-0.769259	-1.475938	99
Es	-0.402715	0.493638	0.648241	99
Es	1.475003	0.999902	0.055753	99
Es	0.610363	0.493034	-0.179117	99
Es	-0.826379	-0.764152	-0.747695	99
41
Properties=species:S:1:pos:R:3:Z:I:1 energy=-250.2297163944218 field_type=dipole dipole="0.000000 0.000000 0.000000" charge=0
C	-2.337223	-0.804657	-0.574419	6
C	-0.826343	-0.764177	-0.747729	6
C	-0.222303	0.479863	-0.091189	6
N	1.228067	0.501123	-0.307319	7
C	1.939307	1.341103	0.649961	6
C	1.990267	-0.162267	0.746081	6
H	-2.747303	-1.705497	-1.040379	1
H	-2.808163	0.065433	-1.042759	1
H	-2.610263	-0.815307	0.485001	1
H	-0.588013	-0.779197	-1.817940	1
H	-0.394413	-1.670857	-0.306329	1
H	-0.499803	0.506553	0.971131	1
H	-0.653623	1.377033	-0.552549	1
H	1.368187	1.889673	1.389101	1
H	2.812997	1.855953	0.267311	1
H	2.895697	-0.662367	0.424531	1
H	1.452936	-0.652407	1.547501	1
Es	-0.529707	-1.388464	-0.438170	99
Es	1.990157	-0.162098	0.745945	99
Es	-0.524508	-0.141369	-0.414260	99
Es	-1.587894	-0.779147	-0.655214	99
Es	-0.670225	-0.769228	-1.476014	99
Es	-2.656050	-0.201713	-0.894425	99
Es	2.107389	0.604653	0.886052	99
Es	1.618330	-0.494136	1.285450	99
Es	1.227930	0.501162	-0.306650	99
Es	1.544456	1.715139	1.147386	99
Es	-0.222168	0.479842	-0.091215	99
Es	1.344787	0.485373	-0.629181	99
Es	2.602185	-0.507799	0.531542	99
Es	-0.826381	-0.764152	-0.747696	99
Es	-2.516244	-0.810349	0.150279	99
Es	-2.337202	-0.804655	-0.574419	99
Es	1.474924	0.999976	0.055839	99
Es	-0.518610	1.099462	-0.406368	99
Es	0.610281	0.492979	-0.179707	99
Es	1.502407	0.067736	0.116538	99
Es	-0.402714	0.493732	0.648216	99
Es	1.939210	1.340908	0.649851	99
Es	-2.614838	-1.424096	-0.891745	99
Es	2.525915	1.693675	0.393066	99
41
Properties=species:S:1:pos:R:3:Z:I:1 energy=-250.2297163944218 field_type=dipole dipole="0.000000 0.000000 0.000000" charge=0
C	-2.337223	-0.804657	-0.574419	6
C	-0.826343	-0.764177	-0.747729	6
C	-0.222303	0.479863	-0.091189	6
N	1.228067	0.501123	-0.307319	7
C	1.939307	1.341103	0.649961	6
C	1.990267	-0.162267	0.746081	6
H	-2.747303	-1.705497	-1.040379	1
H	-2.808163	0.065433	-1.042759	1
H	-2.610263	-0.815307	0.485001	1
H	-0.588013	-0.779197	-1.817940	1
H	-0.394413	-1.670857	-0.306329	1
H	-0.499803	0.506553	0.971131	1
H	-0.653623	1.377033	-0.552549	1
H	1.368187	1.889673	1.389101	1
H	2.812997	1.855953	0.267311	1
H	2.895697	-0.662367	0.424531	1
H	1.452936	-0.652407	1.547501	1
Es	-0.529645	-1.388604	-0.438183	99
Es	-2.337203	-0.804655	-0.574420	99
Es	2.107738	0.604568	0.886425	99
Es	-2.614863	-1.424227	-0.891833	99
Es	-0.524550	-0.141283	-0.414364	99
Es	-2.656011	-0.201677	-0.894294	99
Es	-0.826380	-0.764152	-0.747697	99
Es	1.344685	0.485099	-0.628821	99
Es	-2.516214	-0.810335	0.150151	99
Es	1.474981	1.000094	0.055325	99
Es	1.544478	1.715260	1.147300	99
Es	-0.402589	0.493596	0.648238	99
Es	-0.670314	-0.769158	-1.475889	99
Es	1.990164	-0.162096	0.745953	99
Es	1.502253	0.067975	0.116644	99
Es	1.939206	1.340907	0.649849	99
Es	-0.222168	0.479840	-0.091212	99
Es	1.227980	0.501154	-0.306785	99
Es	1.618254	-0.494113	1.285354	99
Es	0.610294	0.493128	-0.179929	99
Es	2.525751	1.693498	0.393185	99
Es	-0.518639	1.099563	-0.406284	99
Es	-1.587829	-0.779058	-0.655200	99
Es	2.602050	-0.507892	0.531586	99
41
Properties=species:S:1:pos:R:3:Z:I:1 energy=-250.2297163944218 field_type=dipole dipole="0.000000 0.000000 0.000000" charge=0
C	-2.337223	-0.804657	-0.574419	6
C	-0.826343	-0.764177	-0.747729	6
C	-0.222303	0.479863	-0.091189	6
N	1.228067	0.501123	-0.307319	7
C	1.939307	1.341103	0.649961	6
C	1.990267	-0.162267	0.746081	6
H	-2.747303	-1.705497	-1.040379	1
H	-2.808163	0.065433	-1.042759	1
H	-2.610263	-0.815307	0.485001	1
H	-0.588013	-0.779197	-1.817940	1
H	-0.394413	-1.670857	-0.306329	1
H	-0.499803	0.506553	0.971131	1
H	-0.653623	1.377033	-0.552549	1
H	1.368187	1.889673	1.389101	1
H	2.812997	1.855953	0.267311	1
H	2.895697	-0.662367	0.424531	1
H	1.452936	-0.652407	1.547501	1
Es	1.227956	0.501158	-0.306719	99
Es	1.474749	1.000251	0.055475	99
Es	-0.529754	-1.388622	-0.438154	99
Es	-0.826380	-0.764152	-0.747696	99
Es	-2.337202	-0.804655	-0.574419	99
Es	-1.587989	-0.779041	-0.655298	99
Es	-0.518618	1.099624	-0.406312	99
Es	-2.614728	-1.424272	-0.891831	99
Es	2.601955	-0.507859	0.531588	99
Es	1.502280	0.067411	0.116460	99
Es	1.618523	-0.493969	1.285326	99
Es	2.107737	0.604617	0.886515	99
Es	-2.656014	-0.201615	-0.894363	99
Es	-0.402592	0.493593	0.648164	99
Es	2.525716	1.693457	0.393206	99
Es	-2.516096	-0.810359	0.150238	99
Es	1.939215	1.340903	0.649845	99
Es	-0.670269	-0.769181	-1.475912	99
Es	1.544584	1.715248	1.147176	99
Es	0.610211	0.492975	-0.180020	99
Es	-0.222171	0.479842	-0.091215	99
Es	1.344698	0.485457	-0.628630	99
Es	1.990167	-0.162092	0.745954	99
Es	-0.524546	-0.141287	-0.414279	99
