35
Properties=species:S:1:pos:R:3:Z:I:1 energy=-247.82623106150626 field_type=dipole dipole="0.000000 0.000000 0.000000" charge=0
C	0.757612	-2.856606	-0.376904	6
C	0.200172	-1.869096	0.022116	6
C	-0.484827	-0.662396	0.510696	6
N	0.423722	0.489174	0.476066	7
C	0.372722	1.245904	-0.772194	6
C	-0.266838	1.774884	0.486546	6
H	1.260672	-3.726986	-0.728084	1
H	-0.798298	-0.824736	1.548776	1
H	-1.402457	-0.505256	-0.071834	1
H	-0.263547	0.888724	-1.572504	1
H	1.310723	1.683934	-1.091274	1
H	0.237943	2.574914	1.014546	1
H	-1.347597	1.787544	0.554046	1
Es	0.454363	0.702719	-0.143316	99
Es	0.730063	0.460801	0.646628	99
Es	0.171751	-2.555075	-0.135570	99
Es	0.718860	-2.350808	0.085655	99
Es	0.547233	-2.208435	-0.496350	99
Es	-0.063810	0.996444	-1.310477	99
Es	0.002622	-0.005703	0.463141	99
Es	0.065721	1.022029	0.616076	99
Es	0.200035	-1.868870	0.022205	99
Es	0.757716	-2.856803	-0.376984	99
Es	-1.099458	-0.557252	0.103975	99
Es	0.071104	2.316911	0.848436	99
Es	1.084434	-3.425354	-0.606488	99
Es	-0.126773	-1.289406	0.251776	99
Es	-1.003643	1.773429	0.534254	99
Es	-0.011688	1.694480	-0.250423	99
Es	-0.690185	-0.781435	1.202914	99
Es	0.423147	0.489303	0.475724	99
Es	-0.484672	-0.662410	0.510635	99
Es	-0.266723	1.774672	0.486477	99
Es	1.007444	1.541862	-0.991841	99
Es	0.372682	1.245826	-0.771956	99
35
Properties=species:S:1:pos:R:3:Z:I:1 energy=-247.82623106150626 field_type=dipole dipole="0.000000 0.000000 0.000000" charge=0
C	0.757612	-2.856606	-0.376904	6
C	0.200172	-1.869096	0.022116	6
C	-0.484827	-0.662396	0.510696	6
N	0.423722	0.489174	0.476066	7
C	0.372722	1.245904	-0.772194	6
C	-0.266838	1.774884	0.486546	6
H	1.260672	-3.726986	-0.728084	1
H	-0.798298	-0.824736	1.548776	1
H	-1.402457	-0.505256	-0.071834	1
H	-0.263547	0.888724	-1.572504	1
H	1.310723	1.683934	-1.091274	1
H	0.237943	2.574914	1.014546	1
H	-1.347597	1.787544	0.554046	1
Es	1.005593	1.538279	-0.991876	99
Es	-1.003240	1.773585	0.533836	99
Es	0.723086	0.460752	0.638476	99
Es	-0.691599	-0.778942	1.202317	99
Es	-0.126734	-1.291773	0.251121	99
Es	-1.097083	-0.556157	0.106396	99
Es	-0.059865	0.995302	-1.308935	99
Es	0.070693	2.317303	0.848134	99
Es	0.757727	-2.856813	-0.376985	99
Es	0.701478	-2.364605	0.093153	99
Es	0.200032	-1.868867	0.022214	99
Es	0.423141	0.489298	0.475724	99
Es	-0.484671	-0.662409	0.510633	99
Es	0.458973	0.696567	-0.144183	99
Es	0.558780	-2.202234	-0.491501	99
Es	0.005901	-0.008393	0.464250	99
Es	0.064899	1.028061	0.620593	99
Es	-0.016126	1.701077	-0.247805	99
Es	-0.266725	1.774674	0.486478	99
Es	0.372679	1.245829	-0.771949	99
Es	1.085318	-3.426853	-0.607385	99
Es	0.177963	-2.546759	-0.148213	99
35
Properties=species:S:1:pos:R:3:Z:I:1 energy=-247.82623106150626 field_type=dipole dipole="0.000000 0.000000 0.000000" charge=0
C	0.757612	-2.856606	-0.376904	6
C	0.200172	-1.869096	0.022116	6
C	-0.484827	-0.662396	0.510696	6
N	0.423722	0.489174	0.476066	7
C	0.372722	1.245904	-0.772194	6
C	-0.266838	1.774884	0.486546	6
H	1.260672	-3.726986	-0.728084	1
H	-0.798298	-0.824736	1.548776	1
H	-1.402457	-0.505256	-0.071834	1
H	-0.263547	0.888724	-1.572504	1
H	1.310723	1.683934	-1.091274	1
H	0.237943	2.574914	1.014546	1
H	-1.347597	1.787544	0.554046	1
Es	0.185356	-2.541148	-0.152227	99
Es	0.065155	1.030389	0.621416	99
Es	-0.057291	0.995053	-1.307323	99
Es	0.560461	-2.200636	-0.491494	99
Es	0.200024	-1.868864	0.022201	99
Es	-0.266729	1.774684	0.486475	99
Es	-1.095094	-0.555672	0.107906	99
Es	0.372684	1.245826	-0.771954	99
Es	0.692747	-2.371527	0.097284	99
Es	-1.003102	1.773691	0.533689	99
Es	0.462840	0.692504	-0.144464	99
Es	0.757724	-2.856816	-0.376988	99
Es	0.070484	2.317352	0.848005	99
Es	0.717038	0.462310	0.633781	99
Es	1.003714	1.536183	-0.991688	99
Es	0.423112	0.489307	0.475707	99
Es	0.008513	-0.010809	0.465452	99
Es	-0.692600	-0.777432	1.201962	99
Es	1.085807	-3.427244	-0.607979	99
Es	-0.018911	1.705282	-0.246390	99
Es	-0.127039	-1.293104	0.250489	99
Es	-0.484673	-0.662408	0.510634	99
35
Properties=species:S:1:pos:R:3:Z:I:1 energy=-247.82623106150626 field_type=dipole dipole="0.000000 0.000000 0.000000" charge=0
C	0.757612	-2.856606	-0.376904	6
C	0.200172	-1.869096	0.022116	6
C	-0.484827	-0.662396	0.510696	6
N	0.423722	0.489174	0.476066	7
C	0.372722	1.245904	-0.772194	6
C	-0.266838	1.774884	0.486546	6
H	1.260672	-3.726986	-0.728084	1
H	-0.798298	-0.824736	1.548776	1
H	-1.402457	-0.505256	-0.071834	1
H	-0.263547	0.888724	-1.572504	1
H	1.310723	1.683934	-1.091274	1
H	0.237943	2.574914	1.014546	1
H	-1.347597	1.787544	0.554046	1
Es	0.070348	2.317529	0.847949	99
Es	-0.055415	0.995241	-1.305856	99
Es	1.002038	1.534486	-0.991325	99
Es	-1.003038	1.773689	0.533473	99
Es	0.372677	1.245827	-0.771943	99
Es	0.423120	0.489321	0.475707	99
Es	0.065485	1.031282	0.621365	99
Es	0.522173	-2.217140	-0.509119	99
Es	-0.484669	-0.662407	0.510633	99
Es	0.200023	-1.868868	0.022204	99
Es	0.465232	0.689388	-0.144679	99
Es	0.012013	-0.014019	0.467657	99
Es	0.714467	-2.346788	0.069915	99
Es	-0.020722	1.708354	-0.245659	99
Es	1.086406	-3.427394	-0.607822	99
Es	0.711253	0.465199	0.629338	99
Es	-0.127080	-1.293934	0.250379	99
Es	0.201769	-2.549183	-0.107809	99
Es	-0.693267	-0.776108	1.201805	99
Es	0.757724	-2.856817	-0.376992	99
Es	-1.093596	-0.555407	0.108781	99
Es	-0.266722	1.774673	0.486490	99
35
Properties=species:S:1:pos:R:3:Z:I:1 energy=-247.82623106150626 field_type=dipole dipole="0.000000 0.000000 0.000000" charge=0
C	0.757612	-2.856606	-0.376904	6
C	0.200172	-1.869096	0.022116	6
C	-0.484827	-0.662396	0.510696	6
N	0.423722	0.489174	0.476066	7
C	0.372722	1.245904	-0.772194	6
C	-0.266838	1.774884	0.486546	6
H	1.260672	-3.726986	-0.728084	1
H	-0.798298	-0.824736	1.548776	1
H	-1.402457	-0.505256	-0.071834	1
H	-0.263547	0.888724	-1.572504	1
H	1.310723	1.683934	-1.091274	1
H	0.237943	2.574914	1.014546	1
H	-1.347597	1.787544	0.554046	1
Es	0.757732	-2.856820	-0.376988	99
Es	-0.266725	1.774682	0.486482	99
Es	-0.053964	0.995428	-1.304780	99
Es	0.200026	-1.868861	0.022209	99
Es	1.087445	-3.426327	-0.609454	99
Es	0.423147	0.489319	0.475727	99
Es	-0.484673	-0.662411	0.510635	99
Es	-0.693667	-0.774965	1.201884	99
Es	0.707597	0.466967	0.627066	99
Es	-1.092502	-0.554843	0.109128	99
Es	0.070203	2.317314	0.847816	99
Es	0.014464	-0.016174	0.469068	99
Es	0.467071	0.687001	-0.145125	99
Es	0.733532	-2.177313	-0.278936	99
Es	0.461422	-2.518619	0.148697	99
Es	-0.021980	1.710454	-0.244451	99
Es	0.243182	-2.418328	-0.414428	99
Es	0.065345	1.031442	0.620252	99
Es	-1.003405	1.773847	0.533230	99
Es	-0.127366	-1.294152	0.249239	99
Es	0.372681	1.245823	-0.771948	99
Es	1.000656	1.533458	-0.990830	99
35
Properties=species:S:1:pos:R:3:Z:I:1 energy=-247.82623106150626 field_type=dipole dipole="0.000000 0.000000 0.000000" charge=0
C	0.757612	-2.856606	-0.376904	6
C	0.200172	-1.869096	0.022116	6
C	-0.484827	-0.662396	0.510696	6
N	0.423722	0.489174	0.476066	7
C	0.372722	1.245904	-0.772194	6
C	-0.266838	1.774884	0.486546	6
H	1.260672	-3.726986	-0.728084	1
H	-0.798298	-0.824736	1.548776	1
H	-1.402457	-0.505256	-0.071834	1
H	-0.263547	0.888724	-1.572504	1
H	1.310723	1.683934	-1.091274	1
H	0.237943	2.574914	1.014546	1
H	-1.347597	1.787544	0.554046	1
Es	0.998898	1.532428	-0.989508	99
Es	-0.127015	-1.294785	0.250255	99
Es	0.467105	0.686119	-0.143172	99
Es	0.707576	0.466936	0.625738	99
Es	0.070501	2.318004	0.847823	99
Es	0.293271	-2.565728	0.051494	99
Es	0.742045	-2.264462	-0.073372	99
Es	-0.023326	1.712064	-0.241265	99
Es	-0.693217	-0.774372	1.201172	99
Es	0.200020	-1.868870	0.022227	99
Es	0.372674	1.245827	-0.771938	99
Es	0.423104	0.489329	0.475705	99
Es	-1.092603	-0.554424	0.109630	99
Es	-1.003744	1.773796	0.532524	99
Es	0.757734	-2.856816	-0.376992	99
Es	0.066353	1.031767	0.616886	99
Es	-0.484667	-0.662408	0.510637	99
Es	-0.052895	0.995251	-1.305029	99
Es	-0.266726	1.774677	0.486485	99
Es	0.015137	-0.017141	0.468409	99
Es	1.087718	-3.426671	-0.608654	99
Es	0.402280	-2.283598	-0.524562	99
35
Properties=species:S:1:pos:R:3:Z:I:1 energy=-247.82623106150626 field_type=dipole dipole="0.000000 0.000000 0.000000" charge=0
C	0.757612	-2.856606	-0.376904	6
C	0.200172	-1.869096	0.022116	6
C	-0.484827	-0.662396	0.510696	6
N	0.423722	0.489174	0.476066	7
C	0.372722	1.245904	-0.772194	6
C	-0.266838	1.774884	0.486546	6
H	1.260672	-3.726986	-0.728084	1
H	-0.798298	-0.824736	1.548776	1
H	-1.402457	-0.505256	-0.071834	1
H	-0.263547	0.888724	-1.572504	1
H	1.310723	1.683934	-1.091274	1
H	0.237943	2.574914	1.014546	1
H	-1.347597	1.787544	0.554046	1
Es	0.736694	-2.270484	-0.067949	99
Es	0.290122	-2.565561	0.047183	99
Es	0.066853	1.031579	0.615285	99
Es	-0.024286	1.713287	-0.239479	99
Es	-0.484672	-0.662411	0.510634	99
Es	-1.003906	1.773677	0.532107	99
Es	-0.266732	1.774680	0.486479	99
Es	1.087886	-3.426543	-0.608951	99
Es	0.423095	0.489319	0.475692	99
Es	-1.091818	-0.553927	0.109663	99
Es	0.467678	0.685181	-0.143152	99
Es	0.757723	-2.856821	-0.376996	99
Es	0.410956	-2.277611	-0.525680	99
Es	0.372675	1.245829	-0.771941	99
Es	0.018156	-0.020325	0.470305	99
Es	0.200027	-1.868864	0.022217	99
Es	-0.127078	-1.295186	0.250447	99
Es	0.704352	0.469278	0.622817	99
Es	-0.693453	-0.773397	1.201295	99
Es	-0.051886	0.995230	-1.304774	99
Es	0.997383	1.531723	-0.988625	99
Es	0.070452	2.318269	0.847917	99
35
Properties=species:S:1:pos:R:3:Z:I:1 energy=-247.82623106150626 field_type=dipole dipole="0.000000 0.000000 0.000000" charge=0
C	0.757612	-2.856606	-0.376904	6
C	0.200172	-1.869096	0.022116	6
C	-0.484827	-0.662396	0.510696	6
N	0.423722	0.489174	0.476066	7
C	0.372722	1.245904	-0.772194	6
C	-0.266838	1.774884	0.486546	6
H	1.260672	-3.726986	-0.728084	1
H	-0.798298	-0.824736	1.548776	1
H	-1.402457	-0.505256	-0.071834	1
H	-0.263547	0.888724	-1.572504	1
H	1.310723	1.683934	-1.091274	1
H	0.237943	2.574914	1.014546	1
H	-1.347597	1.787544	0.554046	1
Es	-0.693587	-0.772486	1.201449	99
Es	0.200021	-1.868866	0.022214	99
Es	0.757737	-2.856818	-0.376988	99
Es	0.423131	0.489313	0.475712	99
Es	-0.127244	-1.295533	0.250542	99
Es	-0.051132	0.995226	-1.304251	99
Es	1.088161	-3.426287	-0.609277	99
Es	0.996359	1.531267	-0.988180	99
Es	0.020806	-0.023215	0.471373	99
Es	0.733445	-2.266673	-0.080009	99
Es	0.372669	1.245828	-0.771930	99
Es	0.468971	0.684620	-0.142661	99
Es	0.067824	1.031423	0.612863	99
Es	0.301121	-2.564395	0.058278	99
Es	-0.266733	1.774680	0.486480	99
Es	0.403206	-2.282613	-0.524641	99
Es	0.700459	0.471099	0.620353	99
Es	-0.484670	-0.662407	0.510631	99
Es	-1.091118	-0.553565	0.109778	99
Es	-0.025588	1.714310	-0.237089	99
Es	0.070793	2.318040	0.847671	99
Es	-1.004411	1.773976	0.532175	99
35
Properties=species:S:1:pos:R:3:Z:I:1 energy=-247.82623106150626 field_type=dipole dipole="0.000000 0.000000 0.000000" charge=0
C	0.757612	-2.856606	-0.376904	6
C	0.200172	-1.869096	0.022116	6
C	-0.484827	-0.662396	0.510696	6
N	0.423722	0.489174	0.476066	7
C	0.372722	1.245904	-0.772194	6
C	-0.266838	1.774884	0.486546	6
H	1.260672	-3.726986	-0.728084	1
H	-0.798298	-0.824736	1.548776	1
H	-1.402457	-0.505256	-0.071834	1
H	-0.263547	0.888724	-1.572504	1
H	1.310723	1.683934	-1.091274	1
H	0.237943	2.574914	1.014546	1
H	-1.347597	1.787544	0.554046	1
Es	-1.090603	-0.552601	0.109493	99
Es	-1.004729	1.774111	0.532002	99
Es	-0.050522	0.995276	-1.304317	99
Es	0.372672	1.245831	-0.771920	99
Es	0.070880	2.317966	0.847565	99
Es	0.995093	1.530852	-0.987380	99
Es	-0.026181	1.714995	-0.235217	99
Es	0.470925	0.683904	-0.142943	99
Es	0.291164	-2.564221	0.045224	99
Es	0.412219	-2.276518	-0.525703	99
Es	0.692738	0.474765	0.616237	99
Es	-0.484671	-0.662410	0.510633	99
Es	0.027016	-0.028288	0.475278	99
Es	-0.127340	-1.295773	0.250680	99
Es	0.068042	1.031092	0.611075	99
Es	-0.693381	-0.771414	1.201864	99
Es	0.200020	-1.868869	0.022222	99
Es	-0.266728	1.774688	0.486473	99
Es	1.088352	-3.426136	-0.609458	99
Es	0.423044	0.489322	0.475665	99
Es	0.757733	-2.856817	-0.376994	99
Es	0.734480	-2.272831	-0.065987	99
35
Properties=species:S:1:pos:R:3:Z:I:1 energy=-247.82623106150626 field_type=dipole dipole="0.000000 0.000000 0.000000" charge=0
C	0.757612	-2.856606	-0.376904	6
C	0.200172	-1.869096	0.022116	6
C	-0.484827	-0.662396	0.510696	6
N	0.423722	0.489174	0.476066	7
C	0.372722	1.245904	-0.772194	6
C	-0.266838	1.774884	0.486546	6
H	1.260672	-3.726986	-0.728084	1
H	-0.798298	-0.824736	1.548776	1
H	-1.402457	-0.505256	-0.071834	1
H	-0.263547	0.888724	-1.572504	1
H	1.310723	1.683934	-1.091274	1
H	0.237943	2.574914	1.014546	1
H	-1.347597	1.787544	0.554046	1
Es	-0.127675	-1.296083	0.250641	99
Es	-0.484670	-0.662409	0.510634	99
Es	0.071594	2.317365	0.846850	99
Es	-0.266730	1.774683	0.486478	99
Es	-0.693984	-0.770748	1.201881	99
Es	-1.005606	1.774800	0.532511	99
Es	-0.028137	1.715098	-0.231597	99
Es	0.471889	0.684502	-0.141300	99
Es	0.200024	-1.868867	0.022223	99
Es	0.690313	0.475258	0.615681	99
Es	1.088596	-3.425733	-0.610042	99
Es	0.423067	0.489327	0.475675	99
Es	0.331924	-2.559085	0.084199	99
Es	0.027958	-0.029729	0.473425	99
Es	0.377464	-2.299641	-0.520077	99
Es	-0.050290	0.995586	-1.302591	99
Es	0.372671	1.245829	-0.771926	99
Es	0.069241	1.030994	0.607420	99
Es	0.996025	1.530742	-0.988384	99
Es	-1.089615	-0.553035	0.109852	99
Es	0.757732	-2.856813	-0.377002	99
Es	0.728434	-2.255119	-0.110059	99
35
Properties=species:S:1:pos:R:3:Z:I:1 energy=-247.82623106150626 field_type=dipole dipole="0.000000 0.000000 0.000000" charge=0
C	0.757612	-2.856606	-0.376904	6
C	0.200172	-1.869096	0.022116	6
C	-0.484827	-0.662396	0.510696	6
N	0.423722	0.489174	0.476066	7
C	0.372722	1.245904	-0.772194	6
C	-0.266838	1.774884	0.486546	6
H	1.260672	-3.726986	-0.728084	1
H	-0.798298	-0.824736	1.548776	1
H	-1.402457	-0.505256	-0.071834	1
H	-0.263547	0.888724	-1.572504	1
H	1.310723	1.683934	-1.091274	1
H	0.237943	2.574914	1.014546	1
H	-1.347597	1.787544	0.554046	1
Es	-0.694254	-0.770049	1.202009	99
Es	-0.028938	1.715419	-0.228917	99
Es	-0.127727	-1.296260	0.250776	99
Es	0.473910	0.683956	-0.141279	99
Es	0.423021	0.489314	0.475663	99
Es	1.088714	-3.425615	-0.610188	99
Es	0.994986	1.530546	-0.987725	99
Es	0.685844	0.476639	0.613988	99
Es	-0.266727	1.774685	0.486480	99
Es	-1.005899	1.774901	0.532341	99
Es	0.030869	-0.031985	0.475157	99
Es	0.757734	-2.856818	-0.376993	99
Es	0.329190	-2.559385	0.081535	99
Es	0.200022	-1.868865	0.022218	99
Es	-0.049900	0.995523	-1.302756	99
Es	-1.088908	-0.552416	0.109610	99
Es	0.071703	2.317336	0.846758	99
Es	0.069875	1.030948	0.604644	99
Es	-0.484670	-0.662410	0.510633	99
Es	0.372670	1.245833	-0.771930	99
Es	0.727135	-2.257604	-0.106607	99
Es	0.381573	-2.296770	-0.520926	99
35
Properties=species:S:1:pos:R:3:Z:I:1 energy=-247.82623106150626 field_type=dipole dipole="0.000000 0.000000 0.000000" charge=0
C	0.757612	-2.856606	-0.376904	6
C	0.200172	-1.869096	0.022116	6
C	-0.484827	-0.662396	0.510696	6
N	0.423722	0.489174	0.476066	7
C	0.372722	1.245904	-0.772194	6
C	-0.266838	1.774884	0.486546	6
H	1.260672	-3.726986	-0.728084	1
H	-0.798298	-0.824736	1.548776	1
H	-1.402457	-0.505256	-0.071834	1
H	-0.263547	0.888724	-1.572504	1
H	1.310723	1.683934	-1.091274	1
H	0.237943	2.574914	1.014546	1
H	-1.347597	1.787544	0.554046	1
Es	0.532324	-2.212541	-0.502972	99
Es	0.757724	-2.856824	-0.376991	99
Es	-0.696024	-0.769348	1.202382	99
Es	1.088258	-3.425761	-0.610510	99
Es	0.686565	-2.376842	0.103919	99
Es	0.072058	2.316520	0.846176	99
Es	0.423084	0.489322	0.475686	99
Es	0.481594	0.682899	-0.141921	99
Es	-1.086635	-0.552754	0.109722	99
Es	0.048204	-0.037100	0.484710	99
Es	0.372666	1.245832	-0.771907	99
Es	0.070421	1.031014	0.605474	99
Es	0.200013	-1.868866	0.022210	99
Es	-0.128279	-1.296558	0.250597	99
Es	-0.049985	0.996160	-1.300573	99
Es	-0.266729	1.774684	0.486479	99
Es	0.996168	1.530569	-0.989367	99
Es	-0.029539	1.715353	-0.229389	99
Es	-0.484673	-0.662411	0.510634	99
Es	-1.006206	1.775510	0.533292	99
Es	0.659435	0.482008	0.603652	99
Es	0.219779	-2.523942	-0.146809	99
35
Properties=species:S:1:pos:R:3:Z:I:1 energy=-247.82623106150626 field_type=dipole dipole="0.000000 0.000000 0.000000" charge=0
C	0.757612	-2.856606	-0.376904	6
C	0.200172	-1.869096	0.022116	6
C	-0.484827	-0.662396	0.510696	6
N	0.423722	0.489174	0.476066	7
C	0.372722	1.245904	-0.772194	6
C	-0.266838	1.774884	0.486546	6
H	1.260672	-3.726986	-0.728084	1
H	-0.798298	-0.824736	1.548776	1
H	-1.402457	-0.505256	-0.071834	1
H	-0.263547	0.888724	-1.572504	1
H	1.310723	1.683934	-1.091274	1
H	0.237943	2.574914	1.014546	1
H	-1.347597	1.787544	0.554046	1
Es	0.045829	-0.040679	0.482840	99
Es	1.088881	-3.425386	-0.610479	99
Es	0.668537	0.481023	0.604548	99
Es	-1.088471	-0.550499	0.109053	99
Es	0.475201	0.684788	-0.140543	99
Es	0.200022	-1.868865	0.022220	99
Es	0.299018	-2.562006	0.049616	99
Es	0.399863	-2.284814	-0.523470	99
Es	-0.266734	1.774679	0.486483	99
Es	0.372669	1.245832	-0.771915	99
Es	-0.049472	0.995058	-1.303719	99
Es	-0.692612	-0.767742	1.202938	99
Es	0.423061	0.489317	0.475676	99
Es	0.739111	-2.266826	-0.072244	99
Es	-0.029673	1.715786	-0.226082	99
Es	0.757736	-2.856816	-0.376993	99
Es	0.993566	1.530287	-0.986608	99
Es	-1.006396	1.775550	0.532931	99
Es	-0.484675	-0.662410	0.510632	99
Es	0.070420	1.030467	0.602443	99
Es	0.072112	2.316604	0.846233	99
Es	-0.127770	-1.296424	0.250934	99
35
Properties=species:S:1:pos:R:3:Z:I:1 energy=-247.82623106150626 field_type=dipole dipole="0.000000 0.000000 0.000000" charge=0
C	0.757612	-2.856606	-0.376904	6
C	0.200172	-1.869096	0.022116	6
C	-0.484827	-0.662396	0.510696	6
N	0.423722	0.489174	0.476066	7
C	0.372722	1.245904	-0.772194	6
C	-0.266838	1.774884	0.486546	6
H	1.260672	-3.726986	-0.728084	1
H	-0.798298	-0.824736	1.548776	1
H	-1.402457	-0.505256	-0.071834	1
H	-0.263547	0.888724	-1.572504	1
H	1.310723	1.683934	-1.091274	1
H	0.237943	2.574914	1.014546	1
H	-1.347597	1.787544	0.554046	1
Es	-0.266729	1.774686	0.486478	99
Es	-0.696143	-0.768202	1.202661	99
Es	0.757727	-2.856819	-0.377000	99
Es	-0.128359	-1.296745	0.250745	99
Es	-0.030970	1.715406	-0.225451	99
Es	-0.049698	0.996266	-1.300286	99
Es	0.071469	1.030957	0.601653	99
Es	-1.085781	-0.552657	0.109769	99
Es	0.648258	0.483107	0.598485	99
Es	0.995925	1.530349	-0.989186	99
Es	0.057509	-0.039495	0.488118	99
Es	0.072418	2.316198	0.845797	99
Es	-1.006595	1.775903	0.533586	99
Es	0.372671	1.245835	-0.771936	99
Es	0.423035	0.489333	0.475650	99
Es	0.200019	-1.868867	0.022218	99
Es	0.519920	-2.218588	-0.507159	99
Es	1.088479	-3.425476	-0.610842	99
Es	0.696139	-2.367775	0.095999	99
Es	-0.484671	-0.662410	0.510634	99
Es	0.222564	-2.527021	-0.134619	99
Es	0.483034	0.682936	-0.140822	99
35
Properties=species:S:1:pos:R:3:Z:I:1 energy=-247.82623106150626 field_type=dipole dipole="0.000000 0.000000 0.000000" charge=0
C	0.757612	-2.856606	-0.376904	6
C	0.200172	-1.869096	0.022116	6
C	-0.484827	-0.662396	0.510696	6
N	0.423722	0.489174	0.476066	7
C	0.372722	1.245904	-0.772194	6
C	-0.266838	1.774884	0.486546	6
H	1.260672	-3.726986	-0.728084	1
H	-0.798298	-0.824736	1.548776	1
H	-1.402457	-0.505256	-0.071834	1
H	-0.263547	0.888724	-1.572504	1
H	1.310723	1.683934	-1.091274	1
H	0.237943	2.574914	1.014546	1
H	-1.347597	1.787544	0.554046	1
Es	0.641732	0.483646	0.596215	99
Es	-1.085615	-0.551914	0.109434	99
Es	0.200015	-1.868868	0.022216	99
Es	-0.031266	1.715413	-0.223985	99
Es	0.372658	1.245826	-0.771911	99
Es	0.705453	-2.357632	0.084649	99
Es	0.225234	-2.531657	-0.118862	99
Es	-1.006693	1.775988	0.533510	99
Es	-0.128289	-1.296764	0.250831	99
Es	0.995755	1.530247	-0.988579	99
Es	0.422981	0.489308	0.475641	99
Es	0.072416	2.316124	0.845752	99
Es	-0.695821	-0.767627	1.202785	99
Es	0.484918	0.683031	-0.139751	99
Es	-0.484670	-0.662410	0.510633	99
Es	1.088558	-3.425401	-0.610905	99
Es	-0.266728	1.774684	0.486480	99
Es	0.507888	-2.224139	-0.511529	99
Es	-0.049480	0.996232	-1.300901	99
Es	0.071554	1.030904	0.600143	99
Es	0.757732	-2.856816	-0.376998	99
Es	0.061888	-0.041250	0.489623	99
35
Properties=species:S:1:pos:R:3:Z:I:1 energy=-247.82623106150626 field_type=dipole dipole="0.000000 0.000000 0.000000" charge=0
C	0.757612	-2.856606	-0.376904	6
C	0.200172	-1.869096	0.022116	6
C	-0.484827	-0.662396	0.510696	6
N	0.423722	0.489174	0.476066	7
C	0.372722	1.245904	-0.772194	6
C	-0.266838	1.774884	0.486546	6
H	1.260672	-3.726986	-0.728084	1
H	-0.798298	-0.824736	1.548776	1
H	-1.402457	-0.505256	-0.071834	1
H	-0.263547	0.888724	-1.572504	1
H	1.310723	1.683934	-1.091274	1
H	0.237943	2.574914	1.014546	1
H	-1.347597	1.787544	0.554046	1
Es	0.486838	0.683080	-0.138793	99
Es	0.679653	-2.383986	0.112732	99
Es	-0.032524	1.715149	-0.220470	99
Es	1.088598	-3.425272	-0.611127	99
Es	0.059681	-0.041360	0.487560	99
Es	0.995803	1.530220	-0.989077	99
Es	0.372659	1.245827	-0.771909	99
Es	0.642080	0.483816	0.597129	99
Es	-0.266735	1.774680	0.486480	99
Es	-0.696322	-0.767306	1.202780	99
Es	-1.007001	1.776378	0.533755	99
Es	-0.484670	-0.662410	0.510633	99
Es	0.222426	-2.517977	-0.158729	99
Es	0.200021	-1.868866	0.022219	99
Es	-0.128418	-1.296856	0.250796	99
Es	-0.049497	0.996078	-1.300208	99
Es	0.422996	0.489313	0.475646	99
Es	0.536536	-2.211515	-0.499587	99
Es	0.072704	2.315814	0.845391	99
Es	-1.085042	-0.552265	0.109614	99
Es	0.072703	1.031198	0.596659	99
Es	0.757730	-2.856816	-0.377000	99
35
Properties=species:S:1:pos:R:3:Z:I:1 energy=-247.82623106150626 field_type=dipole dipole="0.000000 0.000000 0.000000" charge=0
C	0.757612	-2.856606	-0.376904	6
C	0.200172	-1.869096	0.022116	6
C	-0.484827	-0.662396	0.510696	6
N	0.423722	0.489174	0.476066	7
C	0.372722	1.245904	-0.772194	6
C	-0.266838	1.774884	0.486546	6
H	1.260672	-3.726986	-0.728084	1
H	-0.798298	-0.824736	1.548776	1
H	-1.402457	-0.505256	-0.071834	1
H	-0.263547	0.888724	-1.572504	1
H	1.310723	1.683934	-1.091274	1
H	0.237943	2.574914	1.014546	1
H	-1.347597	1.787544	0.554046	1
Es	-0.484672	-0.662411	0.510634	99
Es	-0.128379	-1.296850	0.250837	99
Es	0.226953	-2.539650	-0.096370	99
Es	0.072317	1.030921	0.598370	99
Es	0.484507	0.684040	-0.138539	99
Es	0.372667	1.245831	-0.771910	99
Es	-0.266737	1.774682	0.486477	99
Es	0.072784	2.315217	0.845113	99
Es	-0.049203	0.995730	-1.301653	99
Es	0.757733	-2.856816	-0.376998	99
Es	0.423071	0.489319	0.475681	99
Es	0.070482	-0.043611	0.492538	99
Es	-0.031874	1.715459	-0.221831	99
Es	0.632823	0.483496	0.591462	99
Es	0.719725	-2.341039	0.065752	99
Es	-0.695284	-0.766251	1.203208	99
Es	0.200019	-1.868869	0.022223	99
Es	-1.007112	1.776820	0.534232	99
Es	-1.084961	-0.551322	0.109320	99
Es	0.491895	-2.232719	-0.515163	99
Es	0.994855	1.530241	-0.987821	99
Es	1.088613	-3.425293	-0.611070	99
35
Properties=species:S:1:pos:R:3:Z:I:1 energy=-247.82623106150626 field_type=dipole dipole="0.000000 0.000000 0.000000" charge=0
C	0.757612	-2.856606	-0.376904	6
C	0.200172	-1.869096	0.022116	6
C	-0.484827	-0.662396	0.510696	6
N	0.423722	0.489174	0.476066	7
C	0.372722	1.245904	-0.772194	6
C	-0.266838	1.774884	0.486546	6
H	1.260672	-3.726986	-0.728084	1
H	-0.798298	-0.824736	1.548776	1
H	-1.402457	-0.505256	-0.071834	1
H	-0.263547	0.888724	-1.572504	1
H	1.310723	1.683934	-1.091274	1
H	0.237943	2.574914	1.014546	1
H	-1.347597	1.787544	0.554046	1
Es	0.200013	-1.868870	0.022216	99
Es	-0.484670	-0.662410	0.510633	99
Es	0.072974	2.315023	0.844813	99
Es	0.757733	-2.856816	-0.376999	99
Es	-0.695977	-0.766016	1.203141	99
Es	-0.049369	0.995557	-1.301104	99
Es	0.631668	0.483830	0.591777	99
Es	-1.084287	-0.551555	0.109389	99
Es	0.372661	1.245829	-0.771894	99
Es	1.088614	-3.425185	-0.611288	99
Es	-1.007300	1.777119	0.534389	99
Es	0.698116	-2.365852	0.094355	99
Es	0.520452	-2.219036	-0.505746	99
Es	-0.032635	1.715215	-0.219353	99
Es	0.220082	-2.528564	-0.134197	99
Es	0.995464	1.530064	-0.988443	99
Es	0.069948	-0.044160	0.490450	99
Es	-0.128423	-1.296909	0.250857	99
Es	0.422995	0.489305	0.475649	99
Es	0.485956	0.684619	-0.136653	99
Es	-0.266730	1.774686	0.486476	99
Es	0.072937	1.031052	0.596024	99
35
Properties=species:S:1:pos:R:3:Z:I:1 energy=-247.82623106150626 field_type=dipole dipole="0.000000 0.000000 0.000000" charge=0
C	0.757612	-2.856606	-0.376904	6
C	0.200172	-1.869096	0.022116	6
C	-0.484827	-0.662396	0.510696	6
N	0.423722	0.489174	0.476066	7
C	0.372722	1.245904	-0.772194	6
C	-0.266838	1.774884	0.486546	6
H	1.260672	-3.726986	-0.728084	1
H	-0.798298	-0.824736	1.548776	1
H	-1.402457	-0.505256	-0.071834	1
H	-0.263547	0.888724	-1.572504	1
H	1.310723	1.683934	-1.091274	1
H	0.237943	2.574914	1.014546	1
H	-1.347597	1.787544	0.554046	1
Es	0.757734	-2.856815	-0.377000	99
Es	-0.128465	-1.296999	0.250941	99
Es	-1.007377	1.776896	0.534023	99
Es	1.088690	-3.425036	-0.611492	99
Es	0.632463	0.484255	0.593038	99
Es	-0.696008	-0.765740	1.203071	99
Es	0.073748	1.031528	0.592543	99
Es	0.488439	0.683573	-0.136712	99
Es	0.995513	1.530060	-0.988579	99
Es	0.372663	1.245829	-0.771903	99
Es	0.072973	2.315329	0.844985	99
Es	0.536457	-2.211667	-0.499350	99
Es	0.680367	-2.383176	0.111589	99
Es	-0.266730	1.774684	0.486480	99
Es	0.200013	-1.868869	0.022216	99
Es	0.221826	-2.518716	-0.157619	99
Es	-0.033597	1.714770	-0.216021	99
Es	-0.484670	-0.662410	0.510634	99
Es	0.422979	0.489308	0.475641	99
Es	0.066717	-0.044098	0.489100	99
Es	-0.049253	0.995994	-1.300554	99
Es	-1.084257	-0.551775	0.109462	99
35
Properties=species:S:1:pos:R:3:Z:I:1 energy=-247.82623106150626 field_type=dipole dipole="0.000000 0.000000 0.000000" charge=0
C	0.757612	-2.856606	-0.376904	6
C	0.200172	-1.869096	0.022116	6
C	-0.484827	-0.662396	0.510696	6
N	0.423722	0.489174	0.476066	7
C	0.372722	1.245904	-0.772194	6
C	-0.266838	1.774884	0.486546	6
H	1.260672	-3.726986	-0.728084	1
H	-0.798298	-0.824736	1.548776	1
H	-1.402457	-0.505256	-0.071834	1
H	-0.263547	0.888724	-1.572504	1
H	1.310723	1.683934	-1.091274	1
H	0.237943	2.574914	1.014546	1
H	-1.347597	1.787544	0.554046	1
Es	0.423015	0.489319	0.475652	99
Es	-0.484669	-0.662408	0.510631	99
Es	0.217783	-2.524252	-0.148885	99
Es	0.757735	-2.856815	-0.376997	99
Es	0.200020	-1.868866	0.022219	99
Es	0.073738	1.031320	0.592907	99
Es	0.073006	2.315092	0.844809	99
Es	-0.266734	1.774684	0.486476	99
Es	-0.033693	1.714868	-0.216243	99
Es	1.088663	-3.425016	-0.611565	99
Es	0.689062	-2.375061	0.104023	99
Es	0.995547	1.530003	-0.988389	99
Es	-0.128476	-1.296998	0.250925	99
Es	-0.049149	0.995648	-1.300926	99
Es	0.627879	0.483919	0.590315	99
Es	-1.007403	1.777032	0.534363	99
Es	-0.696039	-0.764841	1.203301	99
Es	0.072386	-0.045407	0.490445	99
Es	-1.083535	-0.551653	0.109396	99
Es	0.486559	0.684740	-0.135573	99
Es	0.372659	1.245827	-0.771896	99
Es	0.531867	-2.214214	-0.500496	99
