38
Properties=species:S:1:pos:R:3:Z:I:1 energy=-249.04661225586733 field_type=dipole dipole="0.000000 0.000000 0.000000" charge=0
C	-1.723009	-0.931795	-0.268191	6
C	-0.209198	-0.834085	-0.134841	6
C	0.328182	0.606225	-0.230861	6
N	-0.140229	1.439305	0.873599	7
C	1.772181	0.606225	-0.230861	6
C	2.962342	0.606225	-0.230861	6
H	-2.029228	-1.982535	-0.290911	1
H	-2.067599	-0.459545	-1.193961	1
H	-2.234689	-0.457785	0.574939	1
H	0.242722	-1.440325	-0.930431	1
H	0.097862	-1.295725	0.812379	1
H	-0.028789	1.053885	-1.165921	1
H	0.158231	1.021845	1.753439	1
H	-1.156389	1.452395	0.890429	1
H	4.027612	0.615685	-0.227941	1
Es	-0.018385	1.764947	0.846322	99
Es	0.328250	0.606271	-0.230738	99
Es	3.658889	0.610654	-0.229233	99
Es	0.096888	0.903709	-0.863395	99
Es	0.097458	-1.242955	-0.682017	99
Es	-0.972378	-0.865747	-0.198820	99
Es	0.030771	1.163783	1.396717	99
Es	0.000315	-1.138779	0.518446	99
Es	2.962606	0.606215	-0.230858	99
Es	-1.722985	-0.931786	-0.268186	99
Es	-1.954085	-0.605011	-0.900103	99
Es	0.072334	-0.112305	-0.181979	99
Es	0.059587	1.052535	0.399289	99
Es	1.080876	0.603588	-0.229119	99
Es	-1.927442	-1.645727	-0.282462	99
Es	1.771929	0.606218	-0.230867	99
Es	-0.754897	1.420054	0.878107	99
Es	2.374587	0.381415	-0.515223	99
Es	-0.209232	-0.834051	-0.134848	99
Es	2.383783	0.957699	-0.279226	99
Es	-2.069486	-0.601620	0.308431	99
Es	-0.140419	1.438784	0.873654	99
Es	2.374018	0.464720	0.104399	99
38
Properties=species:S:1:pos:R:3:Z:I:1 energy=-249.04661225586733 field_type=dipole dipole="0.000000 0.000000 0.000000" charge=0
C	-1.723009	-0.931795	-0.268191	6
C	-0.209198	-0.834085	-0.134841	6
C	0.328182	0.606225	-0.230861	6
N	-0.140229	1.439305	0.873599	7
C	1.772181	0.606225	-0.230861	6
C	2.962342	0.606225	-0.230861	6
H	-2.029228	-1.982535	-0.290911	1
H	-2.067599	-0.459545	-1.193961	1
H	-2.234689	-0.457785	0.574939	1
H	0.242722	-1.440325	-0.930431	1
H	0.097862	-1.295725	0.812379	1
H	-0.028789	1.053885	-1.165921	1
H	0.158231	1.021845	1.753439	1
H	-1.156389	1.452395	0.890429	1
H	4.027612	0.615685	-0.227941	1
Es	0.001621	-1.137841	0.516921	99
Es	-1.722984	-0.931786	-0.268185	99
Es	2.962616	0.606221	-0.230858	99
Es	-0.018302	1.755897	0.847024	99
Es	0.095373	0.902633	-0.861671	99
Es	0.061463	1.054550	0.398756	99
Es	-1.928370	-1.642842	-0.282662	99
Es	0.033880	1.166201	1.395708	99
Es	1.771918	0.606229	-0.230864	99
Es	0.072255	-0.112118	-0.182002	99
Es	2.384016	0.944053	-0.322064	99
Es	-0.972129	-0.866236	-0.198716	99
Es	-1.955408	-0.606249	-0.899099	99
Es	1.082792	0.603376	-0.229771	99
Es	-0.140441	1.438819	0.873650	99
Es	-0.209233	-0.834052	-0.134848	99
Es	0.098516	-1.241931	-0.680544	99
Es	2.375634	0.353218	-0.483978	99
Es	3.660538	0.610325	-0.229224	99
Es	2.372473	0.506846	0.116256	99
Es	-0.760710	1.423826	0.877782	99
Es	0.328251	0.606271	-0.230736	99
Es	-2.070786	-0.602800	0.307416	99
38
Properties=species:S:1:pos:R:3:Z:I:1 energy=-249.04661225586733 field_type=dipole dipole="0.000000 0.000000 0.000000" charge=0
C	-1.723009	-0.931795	-0.268191	6
C	-0.209198	-0.834085	-0.134841	6
C	0.328182	0.606225	-0.230861	6
N	-0.140229	1.439305	0.873599	7
C	1.772181	0.606225	-0.230861	6
C	2.962342	0.606225	-0.230861	6
H	-2.029228	-1.982535	-0.290911	1
H	-2.067599	-0.459545	-1.193961	1
H	-2.234689	-0.457785	0.574939	1
H	0.242722	-1.440325	-0.930431	1
H	0.097862	-1.295725	0.812379	1
H	-0.028789	1.053885	-1.165921	1
H	0.158231	1.021845	1.753439	1
H	-1.156389	1.452395	0.890429	1
H	4.027612	0.615685	-0.227941	1
Es	-1.956094	-0.607167	-0.898154	99
Es	3.661229	0.610182	-0.229448	99
Es	-0.140403	1.438825	0.873616	99
Es	0.072235	-0.111891	-0.181957	99
Es	0.328252	0.606268	-0.230737	99
Es	-0.209233	-0.834051	-0.134848	99
Es	-1.722984	-0.931787	-0.268186	99
Es	0.002190	-1.137287	0.515654	99
Es	1.083878	0.603310	-0.229974	99
Es	-0.763523	1.425289	0.877672	99
Es	-0.019417	1.750478	0.847858	99
Es	2.962619	0.606217	-0.230858	99
Es	2.373922	0.459817	0.099047	99
Es	-0.971951	-0.866554	-0.198753	99
Es	0.094627	0.902055	-0.860447	99
Es	0.099046	-1.241315	-0.679557	99
Es	0.063102	1.056302	0.398147	99
Es	0.035816	1.167794	1.394815	99
Es	2.383835	0.950403	-0.274462	99
Es	-1.928713	-1.640969	-0.282916	99
Es	1.771917	0.606216	-0.230847	99
Es	2.374260	0.393994	-0.514204	99
Es	-2.071628	-0.603519	0.306831	99
38
Properties=species:S:1:pos:R:3:Z:I:1 energy=-249.04661225586733 field_type=dipole dipole="0.000000 0.000000 0.000000" charge=0
C	-1.723009	-0.931795	-0.268191	6
C	-0.209198	-0.834085	-0.134841	6
C	0.328182	0.606225	-0.230861	6
N	-0.140229	1.439305	0.873599	7
C	1.772181	0.606225	-0.230861	6
C	2.962342	0.606225	-0.230861	6
H	-2.029228	-1.982535	-0.290911	1
H	-2.067599	-0.459545	-1.193961	1
H	-2.234689	-0.457785	0.574939	1
H	0.242722	-1.440325	-0.930431	1
H	0.097862	-1.295725	0.812379	1
H	-0.028789	1.053885	-1.165921	1
H	0.158231	1.021845	1.753439	1
H	-1.156389	1.452395	0.890429	1
H	4.027612	0.615685	-0.227941	1
Es	-0.971883	-0.866875	-0.198734	99
Es	0.072341	-0.111753	-0.182108	99
Es	0.094064	0.901554	-0.859559	99
Es	1.771911	0.606217	-0.230864	99
Es	-1.956492	-0.608014	-0.897557	99
Es	2.375041	0.376002	-0.494874	99
Es	2.383861	0.945414	-0.302104	99
Es	0.002577	-1.136653	0.514771	99
Es	-0.019903	1.747432	0.848209	99
Es	-0.209232	-0.834051	-0.134848	99
Es	2.962622	0.606211	-0.230856	99
Es	3.661626	0.610276	-0.229437	99
Es	-0.140455	1.438716	0.873652	99
Es	1.084568	0.603084	-0.230220	99
Es	0.063946	1.057438	0.398122	99
Es	-1.928753	-1.639370	-0.283043	99
Es	0.036881	1.168676	1.394070	99
Es	0.099363	-1.241000	-0.678674	99
Es	-0.765089	1.425947	0.877432	99
Es	0.328251	0.606270	-0.230737	99
Es	-1.722984	-0.931786	-0.268185	99
Es	-2.072360	-0.604006	0.306438	99
Es	2.373080	0.482882	0.107398	99
38
Properties=species:S:1:pos:R:3:Z:I:1 energy=-249.04661225586733 field_type=dipole dipole="0.000000 0.000000 0.000000" charge=0
C	-1.723009	-0.931795	-0.268191	6
C	-0.209198	-0.834085	-0.134841	6
C	0.328182	0.606225	-0.230861	6
N	-0.140229	1.439305	0.873599	7
C	1.772181	0.606225	-0.230861	6
C	2.962342	0.606225	-0.230861	6
H	-2.029228	-1.982535	-0.290911	1
H	-2.067599	-0.459545	-1.193961	1
H	-2.234689	-0.457785	0.574939	1
H	0.242722	-1.440325	-0.930431	1
H	0.097862	-1.295725	0.812379	1
H	-0.028789	1.053885	-1.165921	1
H	0.158231	1.021845	1.753439	1
H	-1.156389	1.452395	0.890429	1
H	4.027612	0.615685	-0.227941	1
Es	-0.021102	1.744203	0.849108	99
Es	2.374740	0.436075	0.086322	99
Es	0.099531	-1.240624	-0.678059	99
Es	-1.956707	-0.608577	-0.896926	99
Es	0.328252	0.606266	-0.230739	99
Es	2.373723	0.418695	-0.525328	99
Es	-0.971807	-0.867164	-0.198746	99
Es	-0.766169	1.426502	0.877447	99
Es	-1.928802	-1.638099	-0.283290	99
Es	-2.072914	-0.604444	0.306166	99
Es	-0.209233	-0.834051	-0.134849	99
Es	0.093804	0.901280	-0.858673	99
Es	-1.722985	-0.931786	-0.268186	99
Es	0.072249	-0.111689	-0.181974	99
Es	3.661876	0.610502	-0.229709	99
Es	1.085106	0.603024	-0.230332	99
Es	1.771910	0.606217	-0.230870	99
Es	2.383490	0.949379	-0.250315	99
Es	0.037893	1.169394	1.393406	99
Es	0.065229	1.058992	0.397156	99
Es	-0.140466	1.438713	0.873644	99
Es	2.962617	0.606218	-0.230854	99
Es	0.002747	-1.136416	0.513890	99
38
Properties=species:S:1:pos:R:3:Z:I:1 energy=-249.04661225586733 field_type=dipole dipole="0.000000 0.000000 0.000000" charge=0
C	-1.723009	-0.931795	-0.268191	6
C	-0.209198	-0.834085	-0.134841	6
C	0.328182	0.606225	-0.230861	6
N	-0.140229	1.439305	0.873599	7
C	1.772181	0.606225	-0.230861	6
C	2.962342	0.606225	-0.230861	6
H	-2.029228	-1.982535	-0.290911	1
H	-2.067599	-0.459545	-1.193961	1
H	-2.234689	-0.457785	0.574939	1
H	0.242722	-1.440325	-0.930431	1
H	0.097862	-1.295725	0.812379	1
H	-0.028789	1.053885	-1.165921	1
H	0.158231	1.021845	1.753439	1
H	-1.156389	1.452395	0.890429	1
H	4.027612	0.615685	-0.227941	1
Es	-0.140480	1.438686	0.873650	99
Es	2.375433	0.372470	-0.484817	99
Es	0.066065	1.060031	0.396841	99
Es	-0.766966	1.426450	0.877518	99
Es	0.093651	0.900923	-0.857948	99
Es	3.662070	0.610406	-0.229420	99
Es	0.002932	-1.136129	0.513060	99
Es	-0.022508	1.741498	0.849055	99
Es	0.039186	1.170871	1.393162	99
Es	-0.209232	-0.834052	-0.134848	99
Es	-1.722984	-0.931785	-0.268185	99
Es	0.072292	-0.111543	-0.181997	99
Es	1.771908	0.606218	-0.230865	99
Es	-1.956776	-0.609072	-0.896352	99
Es	2.372804	0.489583	0.108262	99
Es	-1.928834	-1.637061	-0.283524	99
Es	-2.073412	-0.604760	0.305900	99
Es	2.383675	0.942410	-0.312822	99
Es	-0.971782	-0.867518	-0.198630	99
Es	2.962625	0.606215	-0.230858	99
Es	0.099581	-1.240340	-0.677454	99
Es	1.085483	0.602840	-0.230698	99
Es	0.328252	0.606268	-0.230737	99
38
Properties=species:S:1:pos:R:3:Z:I:1 energy=-249.04661225586733 field_type=dipole dipole="0.000000 0.000000 0.000000" charge=0
C	-1.723009	-0.931795	-0.268191	6
C	-0.209198	-0.834085	-0.134841	6
C	0.328182	0.606225	-0.230861	6
N	-0.140229	1.439305	0.873599	7
C	1.772181	0.606225	-0.230861	6
C	2.962342	0.606225	-0.230861	6
H	-2.029228	-1.982535	-0.290911	1
H	-2.067599	-0.459545	-1.193961	1
H	-2.234689	-0.457785	0.574939	1
H	0.242722	-1.440325	-0.930431	1
H	0.097862	-1.295725	0.812379	1
H	-0.028789	1.053885	-1.165921	1
H	0.158231	1.021845	1.753439	1
H	-1.156389	1.452395	0.890429	1
H	4.027612	0.615685	-0.227941	1
Es	0.072378	-0.111394	-0.181916	99
Es	0.328252	0.606269	-0.230735	99
Es	-0.209234	-0.834051	-0.134849	99
Es	-1.928795	-1.636313	-0.283644	99
Es	2.372159	0.512475	0.113524	99
Es	-0.767507	1.426179	0.877488	99
Es	0.099660	-1.240235	-0.676797	99
Es	-0.024297	1.738767	0.849029	99
Es	2.383451	0.936562	-0.337608	99
Es	-1.722985	-0.931786	-0.268185	99
Es	-0.140492	1.438719	0.873652	99
Es	0.067133	1.061222	0.396254	99
Es	2.376298	0.355538	-0.465346	99
Es	0.002880	-1.135823	0.512382	99
Es	0.040547	1.172358	1.393225	99
Es	0.093462	0.900698	-0.857373	99
Es	-1.956828	-0.609627	-0.895800	99
Es	1.771908	0.606217	-0.230867	99
Es	1.085777	0.602778	-0.230826	99
Es	3.662174	0.610424	-0.229319	99
Es	-2.073841	-0.604958	0.305628	99
Es	2.962626	0.606212	-0.230855	99
Es	-0.971746	-0.867622	-0.198771	99
38
Properties=species:S:1:pos:R:3:Z:I:1 energy=-249.04661225586733 field_type=dipole dipole="0.000000 0.000000 0.000000" charge=0
C	-1.723009	-0.931795	-0.268191	6
C	-0.209198	-0.834085	-0.134841	6
C	0.328182	0.606225	-0.230861	6
N	-0.140229	1.439305	0.873599	7
C	1.772181	0.606225	-0.230861	6
C	2.962342	0.606225	-0.230861	6
H	-2.029228	-1.982535	-0.290911	1
H	-2.067599	-0.459545	-1.193961	1
H	-2.234689	-0.457785	0.574939	1
H	0.242722	-1.440325	-0.930431	1
H	0.097862	-1.295725	0.812379	1
H	-0.028789	1.053885	-1.165921	1
H	0.158231	1.021845	1.753439	1
H	-1.156389	1.452395	0.890429	1
H	4.027612	0.615685	-0.227941	1
Es	0.068416	1.062801	0.395363	99
Es	0.099736	-1.240152	-0.676445	99
Es	-1.722984	-0.931787	-0.268185	99
Es	-0.971717	-0.867844	-0.198709	99
Es	0.040194	1.171750	1.391941	99
Es	2.962625	0.606225	-0.230870	99
Es	0.002925	-1.135501	0.511723	99
Es	2.382607	0.944535	-0.200914	99
Es	0.328252	0.606269	-0.230735	99
Es	-0.024728	1.737697	0.850718	99
Es	0.072306	-0.111415	-0.181951	99
Es	2.376383	0.389483	0.057141	99
Es	-0.767936	1.426045	0.877610	99
Es	-1.928464	-1.635213	-0.283916	99
Es	0.093375	0.900566	-0.856762	99
Es	-0.209232	-0.834053	-0.134847	99
Es	2.372911	0.470004	-0.545558	99
Es	1.771907	0.606218	-0.230865	99
Es	-0.140482	1.438673	0.873645	99
Es	-1.956869	-0.610198	-0.895381	99
Es	3.662261	0.610827	-0.229633	99
Es	1.085988	0.602980	-0.230784	99
Es	-2.074494	-0.605299	0.305706	99
38
Properties=species:S:1:pos:R:3:Z:I:1 energy=-249.04661225586733 field_type=dipole dipole="0.000000 0.000000 0.000000" charge=0
C	-1.723009	-0.931795	-0.268191	6
C	-0.209198	-0.834085	-0.134841	6
C	0.328182	0.606225	-0.230861	6
N	-0.140229	1.439305	0.873599	7
C	1.772181	0.606225	-0.230861	6
C	2.962342	0.606225	-0.230861	6
H	-2.029228	-1.982535	-0.290911	1
H	-2.067599	-0.459545	-1.193961	1
H	-2.234689	-0.457785	0.574939	1
H	0.242722	-1.440325	-0.930431	1
H	0.097862	-1.295725	0.812379	1
H	-0.028789	1.053885	-1.165921	1
H	0.158231	1.021845	1.753439	1
H	-1.156389	1.452395	0.890429	1
H	4.027612	0.615685	-0.227941	1
Es	0.099889	-1.240248	-0.675847	99
Es	0.002716	-1.135087	0.511103	99
Es	0.093248	0.900469	-0.856312	99
Es	2.962627	0.606216	-0.230858	99
Es	0.069635	1.063959	0.394667	99
Es	-0.209234	-0.834049	-0.134848	99
Es	-0.768288	1.425964	0.877549	99
Es	-1.928393	-1.634570	-0.284114	99
Es	2.373393	0.470360	0.099977	99
Es	0.042090	1.174056	1.392677	99
Es	-0.140492	1.438649	0.873644	99
Es	3.662337	0.610653	-0.229294	99
Es	1.771907	0.606215	-0.230865	99
Es	-0.027375	1.734031	0.850252	99
Es	-2.074940	-0.605499	0.305466	99
Es	1.086181	0.602859	-0.231127	99
Es	-0.971704	-0.867994	-0.198690	99
Es	-1.956767	-0.610620	-0.894928	99
Es	2.375127	0.388139	-0.490617	99
Es	-1.722984	-0.931786	-0.268185	99
Es	2.383364	0.945910	-0.298685	99
Es	0.072392	-0.111284	-0.181937	99
Es	0.328252	0.606269	-0.230738	99
38
Properties=species:S:1:pos:R:3:Z:I:1 energy=-249.04661225586733 field_type=dipole dipole="0.000000 0.000000 0.000000" charge=0
C	-1.723009	-0.931795	-0.268191	6
C	-0.209198	-0.834085	-0.134841	6
C	0.328182	0.606225	-0.230861	6
N	-0.140229	1.439305	0.873599	7
C	1.772181	0.606225	-0.230861	6
C	2.962342	0.606225	-0.230861	6
H	-2.029228	-1.982535	-0.290911	1
H	-2.067599	-0.459545	-1.193961	1
H	-2.234689	-0.457785	0.574939	1
H	0.242722	-1.440325	-0.930431	1
H	0.097862	-1.295725	0.812379	1
H	-0.028789	1.053885	-1.165921	1
H	0.158231	1.021845	1.753439	1
H	-1.156389	1.452395	0.890429	1
H	4.027612	0.615685	-0.227941	1
Es	-1.928433	-1.634058	-0.284253	99
Es	-0.140477	1.438670	0.873638	99
Es	-0.209234	-0.834049	-0.134849	99
Es	2.962627	0.606212	-0.230856	99
Es	0.002519	-1.134874	0.510406	99
Es	1.771907	0.606218	-0.230866	99
Es	-1.722984	-0.931787	-0.268185	99
Es	2.375207	0.388616	-0.488454	99
Es	0.099830	-1.240329	-0.675368	99
Es	0.070441	1.064511	0.394389	99
Es	-2.075239	-0.605510	0.305317	99
Es	-0.971706	-0.868119	-0.198658	99
Es	-0.029128	1.731445	0.849644	99
Es	0.328251	0.606266	-0.230733	99
Es	3.662389	0.610694	-0.229235	99
Es	-1.956641	-0.610967	-0.894487	99
Es	-0.768569	1.425792	0.877634	99
Es	2.373384	0.470063	0.099609	99
Es	0.093256	0.900423	-0.855810	99
Es	0.043523	1.176059	1.393025	99
Es	2.383288	0.945826	-0.300534	99
Es	1.086311	0.602758	-0.231233	99
Es	0.072460	-0.111251	-0.181851	99
38
Properties=species:S:1:pos:R:3:Z:I:1 energy=-249.04661225586733 field_type=dipole dipole="0.000000 0.000000 0.000000" charge=0
C	-1.723009	-0.931795	-0.268191	6
C	-0.209198	-0.834085	-0.134841	6
C	0.328182	0.606225	-0.230861	6
N	-0.140229	1.439305	0.873599	7
C	1.772181	0.606225	-0.230861	6
C	2.962342	0.606225	-0.230861	6
H	-2.029228	-1.982535	-0.290911	1
H	-2.067599	-0.459545	-1.193961	1
H	-2.234689	-0.457785	0.574939	1
H	0.242722	-1.440325	-0.930431	1
H	0.097862	-1.295725	0.812379	1
H	-0.028789	1.053885	-1.165921	1
H	0.158231	1.021845	1.753439	1
H	-1.156389	1.452395	0.890429	1
H	4.027612	0.615685	-0.227941	1
Es	-0.209234	-0.834047	-0.134848	99
Es	1.086445	0.602854	-0.231335	99
Es	-1.928430	-1.633670	-0.284455	99
Es	-0.140448	1.438734	0.873632	99
Es	0.072275	-0.111221	-0.181627	99
Es	-0.971692	-0.868235	-0.198679	99
Es	0.002313	-1.134631	0.509885	99
Es	-0.768752	1.425532	0.877506	99
Es	0.072088	1.066426	0.393154	99
Es	-1.956352	-0.611411	-0.894000	99
Es	1.771907	0.606213	-0.230870	99
Es	-1.722984	-0.931785	-0.268184	99
Es	0.100017	-1.240292	-0.674991	99
Es	2.373232	0.474133	0.100692	99
Es	0.043925	1.176453	1.392796	99
Es	2.375423	0.385348	-0.483737	99
Es	3.662427	0.610668	-0.228912	99
Es	-0.030840	1.729099	0.850710	99
Es	0.093269	0.900373	-0.855352	99
Es	0.328253	0.606269	-0.230736	99
Es	2.383217	0.945070	-0.306546	99
Es	-2.075704	-0.605486	0.305044	99
Es	2.962627	0.606214	-0.230857	99
38
Properties=species:S:1:pos:R:3:Z:I:1 energy=-249.04661225586733 field_type=dipole dipole="0.000000 0.000000 0.000000" charge=0
C	-1.723009	-0.931795	-0.268191	6
C	-0.209198	-0.834085	-0.134841	6
C	0.328182	0.606225	-0.230861	6
N	-0.140229	1.439305	0.873599	7
C	1.772181	0.606225	-0.230861	6
C	2.962342	0.606225	-0.230861	6
H	-2.029228	-1.982535	-0.290911	1
H	-2.067599	-0.459545	-1.193961	1
H	-2.234689	-0.457785	0.574939	1
H	0.242722	-1.440325	-0.930431	1
H	0.097862	-1.295725	0.812379	1
H	-0.028789	1.053885	-1.165921	1
H	0.158231	1.021845	1.753439	1
H	-1.156389	1.452395	0.890429	1
H	4.027612	0.615685	-0.227941	1
Es	1.086514	0.603079	-0.231141	99
Es	2.377974	0.887225	-0.062989	99
Es	3.662446	0.611510	-0.229246	99
Es	1.771906	0.606216	-0.230866	99
Es	0.072966	1.067465	0.392345	99
Es	2.962628	0.606218	-0.230855	99
Es	0.044178	1.176593	1.392421	99
Es	-0.031584	1.728521	0.851178	99
Es	2.380510	0.293890	-0.053503	99
Es	0.328253	0.606269	-0.230736	99
Es	2.373402	0.622612	-0.573145	99
Es	-1.956172	-0.611904	-0.893598	99
Es	-1.928181	-1.633351	-0.284652	99
Es	0.002149	-1.134480	0.509237	99
Es	-0.971716	-0.868206	-0.198626	99
Es	0.072080	-0.111268	-0.181798	99
Es	-0.140481	1.438679	0.873644	99
Es	-2.076225	-0.605527	0.305056	99
Es	0.093587	0.900440	-0.854610	99
Es	-0.209234	-0.834050	-0.134848	99
Es	-0.768829	1.424855	0.877705	99
Es	0.099795	-1.240391	-0.674497	99
Es	-1.722985	-0.931786	-0.268186	99
38
Properties=species:S:1:pos:R:3:Z:I:1 energy=-249.04661225586733 field_type=dipole dipole="0.000000 0.000000 0.000000" charge=0
C	-1.723009	-0.931795	-0.268191	6
C	-0.209198	-0.834085	-0.134841	6
C	0.328182	0.606225	-0.230861	6
N	-0.140229	1.439305	0.873599	7
C	1.772181	0.606225	-0.230861	6
C	2.962342	0.606225	-0.230861	6
H	-2.029228	-1.982535	-0.290911	1
H	-2.067599	-0.459545	-1.193961	1
H	-2.234689	-0.457785	0.574939	1
H	0.242722	-1.440325	-0.930431	1
H	0.097862	-1.295725	0.812379	1
H	-0.028789	1.053885	-1.165921	1
H	0.158231	1.021845	1.753439	1
H	-1.156389	1.452395	0.890429	1
H	4.027612	0.615685	-0.227941	1
Es	0.072263	-0.111065	-0.181493	99
Es	0.046403	1.179385	1.393445	99
Es	2.382759	0.951207	-0.245212	99
Es	-0.035698	1.722488	0.851467	99
Es	-0.140536	1.438597	0.873653	99
Es	-0.769009	1.424991	0.877595	99
Es	1.086614	0.602849	-0.231582	99
Es	-0.971682	-0.868368	-0.198655	99
Es	-2.076788	-0.605580	0.304959	99
Es	0.075216	1.070425	0.390859	99
Es	-1.928013	-1.632591	-0.284853	99
Es	1.771907	0.606213	-0.230867	99
Es	0.328253	0.606269	-0.230734	99
Es	0.099977	-1.240500	-0.674202	99
Es	2.962625	0.606217	-0.230855	99
Es	0.001856	-1.134245	0.508783	99
Es	-1.722984	-0.931786	-0.268185	99
Es	3.662477	0.611030	-0.229011	99
Es	0.093388	0.900393	-0.854513	99
Es	-0.209234	-0.834049	-0.134849	99
Es	2.375257	0.414032	0.072691	99
Es	-1.955924	-0.612344	-0.893313	99
Es	2.373855	0.439040	-0.516840	99
38
Properties=species:S:1:pos:R:3:Z:I:1 energy=-249.04661225586733 field_type=dipole dipole="0.000000 0.000000 0.000000" charge=0
C	-1.723009	-0.931795	-0.268191	6
C	-0.209198	-0.834085	-0.134841	6
C	0.328182	0.606225	-0.230861	6
N	-0.140229	1.439305	0.873599	7
C	1.772181	0.606225	-0.230861	6
C	2.962342	0.606225	-0.230861	6
H	-2.029228	-1.982535	-0.290911	1
H	-2.067599	-0.459545	-1.193961	1
H	-2.234689	-0.457785	0.574939	1
H	0.242722	-1.440325	-0.930431	1
H	0.097862	-1.295725	0.812379	1
H	-0.028789	1.053885	-1.165921	1
H	0.158231	1.021845	1.753439	1
H	-1.156389	1.452395	0.890429	1
H	4.027612	0.615685	-0.227941	1
Es	1.086664	0.603060	-0.231515	99
Es	-0.209234	-0.834050	-0.134849	99
Es	2.373477	0.622127	-0.570344	99
Es	-1.955635	-0.612582	-0.892792	99
Es	-0.769038	1.424281	0.877619	99
Es	-2.077275	-0.605747	0.304942	99
Es	0.328254	0.606268	-0.230738	99
Es	0.072278	-0.110950	-0.181665	99
Es	-1.722984	-0.931787	-0.268185	99
Es	-0.971683	-0.868512	-0.198657	99
Es	-1.927888	-1.632342	-0.285263	99
Es	0.001527	-1.133892	0.508231	99
Es	2.378191	0.888446	-0.067351	99
Es	-0.140502	1.438635	0.873651	99
Es	0.093533	0.900445	-0.853985	99
Es	2.380211	0.293208	-0.051776	99
Es	3.662488	0.611563	-0.229049	99
Es	1.771906	0.606215	-0.230863	99
Es	2.962628	0.606224	-0.230858	99
Es	-0.035176	1.723699	0.851767	99
Es	0.099877	-1.240770	-0.673514	99
Es	0.075539	1.070334	0.390699	99
Es	0.045824	1.178735	1.392785	99
38
Properties=species:S:1:pos:R:3:Z:I:1 energy=-249.04661225586733 field_type=dipole dipole="0.000000 0.000000 0.000000" charge=0
C	-1.723009	-0.931795	-0.268191	6
C	-0.209198	-0.834085	-0.134841	6
C	0.328182	0.606225	-0.230861	6
N	-0.140229	1.439305	0.873599	7
C	1.772181	0.606225	-0.230861	6
C	2.962342	0.606225	-0.230861	6
H	-2.029228	-1.982535	-0.290911	1
H	-2.067599	-0.459545	-1.193961	1
H	-2.234689	-0.457785	0.574939	1
H	0.242722	-1.440325	-0.930431	1
H	0.097862	-1.295725	0.812379	1
H	-0.028789	1.053885	-1.165921	1
H	0.158231	1.021845	1.753439	1
H	-1.156389	1.452395	0.890429	1
H	4.027612	0.615685	-0.227941	1
Es	0.049142	1.183320	1.394425	99
Es	-0.971686	-0.868586	-0.198603	99
Es	3.662516	0.610838	-0.228733	99
Es	-0.209234	-0.834049	-0.134848	99
Es	-1.722985	-0.931786	-0.268185	99
Es	-1.928070	-1.632041	-0.285450	99
Es	0.328254	0.606268	-0.230736	99
Es	-0.769203	1.424815	0.877631	99
Es	-1.955206	-0.612908	-0.892327	99
Es	0.072766	-0.110774	-0.181287	99
Es	2.962625	0.606223	-0.230857	99
Es	0.076132	1.070640	0.390432	99
Es	1.771906	0.606215	-0.230866	99
Es	0.093147	0.900425	-0.854004	99
Es	2.382689	0.948620	-0.304085	99
Es	-0.038659	1.717990	0.850031	99
Es	2.373651	0.464394	0.094618	99
Es	0.099967	-1.241065	-0.673024	99
Es	1.086735	0.602894	-0.231743	99
Es	-2.077626	-0.605482	0.304639	99
Es	2.375527	0.391571	-0.480022	99
Es	0.001111	-1.133544	0.507635	99
Es	-0.140520	1.438630	0.873653	99
38
Properties=species:S:1:pos:R:3:Z:I:1 energy=-249.04661225586733 field_type=dipole dipole="0.000000 0.000000 0.000000" charge=0
C	-1.723009	-0.931795	-0.268191	6
C	-0.209198	-0.834085	-0.134841	6
C	0.328182	0.606225	-0.230861	6
N	-0.140229	1.439305	0.873599	7
C	1.772181	0.606225	-0.230861	6
C	2.962342	0.606225	-0.230861	6
H	-2.029228	-1.982535	-0.290911	1
H	-2.067599	-0.459545	-1.193961	1
H	-2.234689	-0.457785	0.574939	1
H	0.242722	-1.440325	-0.930431	1
H	0.097862	-1.295725	0.812379	1
H	-0.028789	1.053885	-1.165921	1
H	0.158231	1.021845	1.753439	1
H	-1.156389	1.452395	0.890429	1
H	4.027612	0.615685	-0.227941	1
Es	-0.769216	1.424091	0.877488	99
Es	-0.971690	-0.868594	-0.198544	99
Es	3.662521	0.611355	-0.228940	99
Es	-1.955176	-0.613311	-0.892316	99
Es	-0.209235	-0.834048	-0.134848	99
Es	2.381918	0.947806	-0.197308	99
Es	0.099845	-1.240849	-0.673000	99
Es	0.328254	0.606268	-0.230737	99
Es	1.086753	0.602918	-0.231802	99
Es	0.072267	-0.110910	-0.181344	99
Es	2.962628	0.606216	-0.230857	99
Es	-0.041818	1.713885	0.852398	99
Es	1.771906	0.606214	-0.230866	99
Es	0.093310	0.900638	-0.853625	99
Es	0.001277	-1.133623	0.507557	99
Es	2.373126	0.486119	-0.534047	99
Es	-1.927457	-1.631315	-0.285641	99
Es	2.376823	0.370209	0.042097	99
Es	0.049191	1.183048	1.394224	99
Es	-2.078305	-0.605885	0.304860	99
Es	-1.722984	-0.931786	-0.268185	99
Es	-0.140468	1.438702	0.873637	99
Es	0.079510	1.075460	0.388092	99
38
Properties=species:S:1:pos:R:3:Z:I:1 energy=-249.04661225586733 field_type=dipole dipole="0.000000 0.000000 0.000000" charge=0
C	-1.723009	-0.931795	-0.268191	6
C	-0.209198	-0.834085	-0.134841	6
C	0.328182	0.606225	-0.230861	6
N	-0.140229	1.439305	0.873599	7
C	1.772181	0.606225	-0.230861	6
C	2.962342	0.606225	-0.230861	6
H	-2.029228	-1.982535	-0.290911	1
H	-2.067599	-0.459545	-1.193961	1
H	-2.234689	-0.457785	0.574939	1
H	0.242722	-1.440325	-0.930431	1
H	0.097862	-1.295725	0.812379	1
H	-0.028789	1.053885	-1.165921	1
H	0.158231	1.021845	1.753439	1
H	-1.156389	1.452395	0.890429	1
H	4.027612	0.615685	-0.227941	1
Es	2.962627	0.606217	-0.230858	99
Es	0.328253	0.606268	-0.230734	99
Es	-1.954647	-0.613374	-0.891562	99
Es	3.662511	0.611926	-0.228384	99
Es	0.093780	0.900729	-0.853029	99
Es	0.099661	-1.241016	-0.672370	99
Es	1.771906	0.606213	-0.230868	99
Es	-0.209234	-0.834049	-0.134849	99
Es	2.381824	0.254861	-0.161251	99
Es	-0.140524	1.438598	0.873648	99
Es	0.079458	1.075176	0.388140	99
Es	2.373653	0.804417	0.017838	99
Es	0.051175	1.186062	1.394999	99
Es	-1.928146	-1.632109	-0.285813	99
Es	-0.043514	1.712155	0.851022	99
Es	2.376406	0.744586	-0.546482	99
Es	0.072128	-0.110774	-0.181631	99
Es	-2.078167	-0.605270	0.304295	99
Es	-0.769215	1.423155	0.877668	99
Es	-1.722984	-0.931786	-0.268186	99
Es	1.086781	0.602789	-0.231744	99
Es	0.000924	-1.133472	0.507064	99
Es	-0.971674	-0.868692	-0.198622	99
38
Properties=species:S:1:pos:R:3:Z:I:1 energy=-249.04661225586733 field_type=dipole dipole="0.000000 0.000000 0.000000" charge=0
C	-1.723009	-0.931795	-0.268191	6
C	-0.209198	-0.834085	-0.134841	6
C	0.328182	0.606225	-0.230861	6
N	-0.140229	1.439305	0.873599	7
C	1.772181	0.606225	-0.230861	6
C	2.962342	0.606225	-0.230861	6
H	-2.029228	-1.982535	-0.290911	1
H	-2.067599	-0.459545	-1.193961	1
H	-2.234689	-0.457785	0.574939	1
H	0.242722	-1.440325	-0.930431	1
H	0.097862	-1.295725	0.812379	1
H	-0.028789	1.053885	-1.165921	1
H	0.158231	1.021845	1.753439	1
H	-1.156389	1.452395	0.890429	1
H	4.027612	0.615685	-0.227941	1
Es	0.093275	0.901171	-0.853020	99
Es	-1.955202	-0.613227	-0.892013	99
Es	-0.971689	-0.868612	-0.198578	99
Es	-0.140524	1.438602	0.873652	99
Es	2.962628	0.606222	-0.230857	99
Es	0.328254	0.606269	-0.230736	99
Es	0.001169	-1.134045	0.506929	99
Es	3.662514	0.611818	-0.228272	99
Es	-0.209234	-0.834050	-0.134849	99
Es	-1.927702	-1.631554	-0.285662	99
Es	2.379234	0.838380	-0.492654	99
Es	1.771906	0.606214	-0.230865	99
Es	-0.047925	1.705216	0.851696	99
Es	2.370953	0.711495	0.070551	99
Es	-0.769251	1.422839	0.877606	99
Es	2.381688	0.254348	-0.267849	99
Es	0.053452	1.188762	1.395792	99
Es	-2.078077	-0.605980	0.304527	99
Es	0.082329	1.079176	0.386219	99
Es	-1.722984	-0.931786	-0.268186	99
Es	0.098989	-1.240508	-0.672138	99
Es	1.086800	0.602590	-0.231762	99
Es	0.072379	-0.110732	-0.181240	99
