40
Properties=species:S:1:pos:R:3:Z:I:1 energy=-266.27608543972974 field_type=dipole dipole="0.000000 0.000000 0.000000" charge=0
C	-1.509377	-1.266603	0.567660	6
C	-1.186197	-0.516073	-0.717110	6
C	-0.158747	0.595807	-0.502910	6
N	1.126212	0.037807	-0.134120	7
C	2.163193	0.748717	0.384470	6
N	2.151753	1.925527	0.894360	7
H	-2.281898	-2.019023	0.380260	1
H	-1.880477	-0.583463	1.337420	1
H	-0.628227	-1.781943	0.960850	1
H	-2.109687	-0.073403	-1.108030	1
H	-0.824627	-1.225863	-1.470800	1
H	-0.526608	1.279977	0.271050	1
H	-0.047277	1.170257	-1.429870	1
H	1.392953	-0.789193	-0.661490	1
H	3.113383	0.190787	0.348960	1
H	1.205632	2.306687	0.879300	1
Es	2.430292	2.100864	1.035707	99
Es	1.289964	-0.442194	-0.469035	99
Es	2.802797	0.357475	0.352357	99
Es	-2.036821	-1.778219	0.435773	99
Es	-0.401421	1.059527	0.029586	99
Es	2.151378	1.925231	0.894150	99
Es	0.593188	0.293122	-0.297775	99
Es	1.562749	0.390217	-0.033558	99
Es	1.126510	0.038179	-0.134567	99
Es	-1.340587	-0.888858	-0.071679	99
Es	-0.082114	0.992670	-1.138702	99
Es	-1.509375	-1.266586	0.567626	99
Es	-0.927036	-1.000729	-1.233628	99
Es	-1.186168	-0.516058	-0.717082	99
Es	-1.813665	-0.208068	-0.984288	99
Es	1.166421	-0.020829	0.163464	99
Es	2.085858	1.351326	0.940365	99
Es	-1.761281	-0.795260	1.088760	99
Es	-0.909690	-1.616130	0.831044	99
Es	-0.158593	0.595710	-0.502855	99
Es	2.195316	1.580723	0.432977	99
Es	2.163096	0.748562	0.384392	99
Es	1.569505	2.142870	0.873632	99
Es	-0.659066	0.037322	-0.605672	99
40
Properties=species:S:1:pos:R:3:Z:I:1 energy=-266.27608543972974 field_type=dipole dipole="0.000000 0.000000 0.000000" charge=0
C	-1.509377	-1.266603	0.567660	6
C	-1.186197	-0.516073	-0.717110	6
C	-0.158747	0.595807	-0.502910	6
N	1.126212	0.037807	-0.134120	7
C	2.163193	0.748717	0.384470	6
N	2.151753	1.925527	0.894360	7
H	-2.281898	-2.019023	0.380260	1
H	-1.880477	-0.583463	1.337420	1
H	-0.628227	-1.781943	0.960850	1
H	-2.109687	-0.073403	-1.108030	1
H	-0.824627	-1.225863	-1.470800	1
H	-0.526608	1.279977	0.271050	1
H	-0.047277	1.170257	-1.429870	1
H	1.392953	-0.789193	-0.661490	1
H	3.113383	0.190787	0.348960	1
H	1.205632	2.306687	0.879300	1
Es	1.570637	2.142680	0.873518	99
Es	1.288637	-0.450401	-0.464924	99
Es	-1.761144	-0.793440	1.089928	99
Es	-0.081517	0.991263	-1.137396	99
Es	2.163095	0.748560	0.384392	99
Es	2.432267	2.100919	1.037472	99
Es	2.151399	1.925258	0.894169	99
Es	-0.158593	0.595710	-0.502855	99
Es	-1.813059	-0.208699	-0.982769	99
Es	-2.036713	-1.779297	0.434826	99
Es	1.164672	-0.013710	0.143404	99
Es	-0.659283	0.037678	-0.606203	99
Es	1.566431	0.391012	-0.019553	99
Es	-1.509374	-1.266585	0.567623	99
Es	-1.186168	-0.516058	-0.717082	99
Es	2.193818	1.581384	0.433080	99
Es	1.126386	0.038053	-0.134461	99
Es	-0.910078	-1.615392	0.829449	99
Es	2.083801	1.351270	0.938708	99
Es	0.592798	0.293453	-0.296752	99
Es	-0.401489	1.061241	0.030250	99
Es	2.802559	0.357473	0.352401	99
Es	-1.340731	-0.889032	-0.071442	99
Es	-0.927096	-1.002471	-1.234791	99
40
Properties=species:S:1:pos:R:3:Z:I:1 energy=-266.27608543972974 field_type=dipole dipole="0.000000 0.000000 0.000000" charge=0
C	-1.509377	-1.266603	0.567660	6
C	-1.186197	-0.516073	-0.717110	6
C	-0.158747	0.595807	-0.502910	6
N	1.126212	0.037807	-0.134120	7
C	2.163193	0.748717	0.384470	6
N	2.151753	1.925527	0.894360	7
H	-2.281898	-2.019023	0.380260	1
H	-1.880477	-0.583463	1.337420	1
H	-0.628227	-1.781943	0.960850	1
H	-2.109687	-0.073403	-1.108030	1
H	-0.824627	-1.225863	-1.470800	1
H	-0.526608	1.279977	0.271050	1
H	-0.047277	1.170257	-1.429870	1
H	1.392953	-0.789193	-0.661490	1
H	3.113383	0.190787	0.348960	1
H	1.205632	2.306687	0.879300	1
Es	-0.910604	-1.614752	0.828434	99
Es	2.192990	1.581209	0.433039	99
Es	-0.401471	1.062308	0.030712	99
Es	-1.761052	-0.792516	1.090736	99
Es	-1.340689	-0.888941	-0.071404	99
Es	-2.036445	-1.780101	0.434213	99
Es	2.802440	0.357489	0.352384	99
Es	-0.081168	0.990348	-1.136607	99
Es	0.594221	0.294887	-0.298331	99
Es	-0.659345	0.037998	-0.606534	99
Es	-0.158592	0.595709	-0.502854	99
Es	1.569147	0.390338	-0.005501	99
Es	-1.509376	-1.266586	0.567627	99
Es	-1.186168	-0.516062	-0.717079	99
Es	1.287760	-0.455087	-0.461919	99
Es	2.151389	1.925232	0.894152	99
Es	1.126507	0.038180	-0.134575	99
Es	-0.927256	-1.003553	-1.235528	99
Es	2.082716	1.351128	0.939566	99
Es	2.163094	0.748557	0.384389	99
Es	2.432775	2.100824	1.037035	99
Es	1.571590	2.143425	0.873288	99
Es	-1.812522	-0.209225	-0.981711	99
Es	1.161315	-0.009941	0.127461	99
40
Properties=species:S:1:pos:R:3:Z:I:1 energy=-266.27608543972974 field_type=dipole dipole="0.000000 0.000000 0.000000" charge=0
C	-1.509377	-1.266603	0.567660	6
C	-1.186197	-0.516073	-0.717110	6
C	-0.158747	0.595807	-0.502910	6
N	1.126212	0.037807	-0.134120	7
C	2.163193	0.748717	0.384470	6
N	2.151753	1.925527	0.894360	7
H	-2.281898	-2.019023	0.380260	1
H	-1.880477	-0.583463	1.337420	1
H	-0.628227	-1.781943	0.960850	1
H	-2.109687	-0.073403	-1.108030	1
H	-0.824627	-1.225863	-1.470800	1
H	-0.526608	1.279977	0.271050	1
H	-0.047277	1.170257	-1.429870	1
H	1.392953	-0.789193	-0.661490	1
H	3.113383	0.190787	0.348960	1
H	1.205632	2.306687	0.879300	1
Es	-1.760982	-0.791747	1.091272	99
Es	-0.910960	-1.614409	0.827691	99
Es	-1.509375	-1.266586	0.567626	99
Es	1.126677	0.038309	-0.134597	99
Es	-1.186168	-0.516058	-0.717081	99
Es	1.572291	2.143503	0.872751	99
Es	-0.080871	0.989355	-1.135902	99
Es	1.161290	-0.006926	0.120644	99
Es	2.192969	1.580078	0.432164	99
Es	2.151363	1.925237	0.894151	99
Es	2.163094	0.748556	0.384391	99
Es	-0.927415	-1.004425	-1.236079	99
Es	-0.158592	0.595710	-0.502855	99
Es	2.081811	1.352219	0.940805	99
Es	-0.401328	1.063412	0.030801	99
Es	1.569733	0.390375	-0.001546	99
Es	-1.340821	-0.888933	-0.071430	99
Es	2.432742	2.101083	1.037152	99
Es	1.286673	-0.458419	-0.459381	99
Es	2.802225	0.357428	0.352535	99
Es	-1.811993	-0.209545	-0.980916	99
Es	-0.659487	0.038070	-0.606582	99
Es	-2.036211	-1.780527	0.433744	99
Es	0.594590	0.295108	-0.298365	99
40
Properties=species:S:1:pos:R:3:Z:I:1 energy=-266.27608543972974 field_type=dipole dipole="0.000000 0.000000 0.000000" charge=0
C	-1.509377	-1.266603	0.567660	6
C	-1.186197	-0.516073	-0.717110	6
C	-0.158747	0.595807	-0.502910	6
N	1.126212	0.037807	-0.134120	7
C	2.163193	0.748717	0.384470	6
N	2.151753	1.925527	0.894360	7
H	-2.281898	-2.019023	0.380260	1
H	-1.880477	-0.583463	1.337420	1
H	-0.628227	-1.781943	0.960850	1
H	-2.109687	-0.073403	-1.108030	1
H	-0.824627	-1.225863	-1.470800	1
H	-0.526608	1.279977	0.271050	1
H	-0.047277	1.170257	-1.429870	1
H	1.392953	-0.789193	-0.661490	1
H	3.113383	0.190787	0.348960	1
H	1.205632	2.306687	0.879300	1
Es	2.151366	1.925248	0.894152	99
Es	2.081454	1.350633	0.940019	99
Es	-2.035940	-1.781001	0.433478	99
Es	-0.158593	0.595711	-0.502854	99
Es	-0.080693	0.988772	-1.135422	99
Es	-0.659518	0.038266	-0.606780	99
Es	1.126213	0.037840	-0.134157	99
Es	-1.811556	-0.209921	-0.980279	99
Es	2.432910	2.100144	1.036922	99
Es	1.572631	2.144323	0.873502	99
Es	0.596786	0.296664	-0.300928	99
Es	2.802123	0.357318	0.352714	99
Es	1.570606	0.389398	0.006135	99
Es	1.286110	-0.460776	-0.457428	99
Es	1.159187	-0.004621	0.112815	99
Es	-0.911436	-1.613980	0.827144	99
Es	-1.509375	-1.266586	0.567626	99
Es	2.192527	1.582038	0.432240	99
Es	-0.401274	1.064044	0.031073	99
Es	2.163094	0.748557	0.384395	99
Es	-1.340742	-0.889046	-0.071456	99
Es	-1.186168	-0.516058	-0.717081	99
Es	-0.927544	-1.005026	-1.236492	99
Es	-1.760912	-0.791075	1.091653	99
40
Properties=species:S:1:pos:R:3:Z:I:1 energy=-266.27608543972974 field_type=dipole dipole="0.000000 0.000000 0.000000" charge=0
C	-1.509377	-1.266603	0.567660	6
C	-1.186197	-0.516073	-0.717110	6
C	-0.158747	0.595807	-0.502910	6
N	1.126212	0.037807	-0.134120	7
C	2.163193	0.748717	0.384470	6
N	2.151753	1.925527	0.894360	7
H	-2.281898	-2.019023	0.380260	1
H	-1.880477	-0.583463	1.337420	1
H	-0.628227	-1.781943	0.960850	1
H	-2.109687	-0.073403	-1.108030	1
H	-0.824627	-1.225863	-1.470800	1
H	-0.526608	1.279977	0.271050	1
H	-0.047277	1.170257	-1.429870	1
H	1.392953	-0.789193	-0.661490	1
H	3.113383	0.190787	0.348960	1
H	1.205632	2.306687	0.879300	1
Es	2.081165	1.351388	0.941968	99
Es	-0.401175	1.064601	0.031160	99
Es	2.151357	1.925226	0.894156	99
Es	2.191975	1.580657	0.431844	99
Es	-0.911707	-1.613561	0.826659	99
Es	-1.760834	-0.790634	1.091935	99
Es	-1.340958	-0.889004	-0.071524	99
Es	-1.186168	-0.516058	-0.717082	99
Es	-0.927563	-1.005563	-1.236682	99
Es	2.432905	2.100262	1.035469	99
Es	1.285844	-0.461999	-0.456597	99
Es	1.158388	-0.003549	0.107309	99
Es	1.126466	0.038177	-0.134606	99
Es	-0.158594	0.595711	-0.502854	99
Es	-1.509375	-1.266586	0.567625	99
Es	2.163095	0.748560	0.384386	99
Es	-1.811146	-0.210237	-0.979931	99
Es	1.573226	2.145029	0.873350	99
Es	-0.080541	0.988255	-1.135037	99
Es	1.570807	0.388962	0.011442	99
Es	2.802068	0.357247	0.352787	99
Es	-0.659631	0.038417	-0.606846	99
Es	-2.035681	-1.781433	0.433375	99
Es	0.597331	0.297002	-0.301314	99
40
Properties=species:S:1:pos:R:3:Z:I:1 energy=-266.27608543972974 field_type=dipole dipole="0.000000 0.000000 0.000000" charge=0
C	-1.509377	-1.266603	0.567660	6
C	-1.186197	-0.516073	-0.717110	6
C	-0.158747	0.595807	-0.502910	6
N	1.126212	0.037807	-0.134120	7
C	2.163193	0.748717	0.384470	6
N	2.151753	1.925527	0.894360	7
H	-2.281898	-2.019023	0.380260	1
H	-1.880477	-0.583463	1.337420	1
H	-0.628227	-1.781943	0.960850	1
H	-2.109687	-0.073403	-1.108030	1
H	-0.824627	-1.225863	-1.470800	1
H	-0.526608	1.279977	0.271050	1
H	-0.047277	1.170257	-1.429870	1
H	1.392953	-0.789193	-0.661490	1
H	3.113383	0.190787	0.348960	1
H	1.205632	2.306687	0.879300	1
Es	2.163094	0.748558	0.384389	99
Es	-0.659782	0.038786	-0.607126	99
Es	1.285155	-0.463705	-0.454777	99
Es	-0.401104	1.065049	0.031284	99
Es	1.571166	0.388418	0.014620	99
Es	-1.186172	-0.516063	-0.717076	99
Es	-0.080440	0.987824	-1.134665	99
Es	2.801970	0.357141	0.352820	99
Es	-2.035506	-1.781650	0.433129	99
Es	2.432806	2.099302	1.035710	99
Es	-1.340891	-0.889045	-0.071380	99
Es	-1.810705	-0.210731	-0.979447	99
Es	-0.158592	0.595710	-0.502856	99
Es	-0.911976	-1.613357	0.826344	99
Es	2.192068	1.582152	0.431857	99
Es	2.151362	1.925236	0.894158	99
Es	2.080682	1.350230	0.941335	99
Es	-0.927695	-1.005988	-1.236934	99
Es	1.126615	0.038284	-0.134647	99
Es	-1.760812	-0.790190	1.092111	99
Es	0.598467	0.297850	-0.302707	99
Es	1.573526	2.145805	0.873646	99
Es	-1.509375	-1.266586	0.567626	99
Es	1.157395	-0.002162	0.103580	99
40
Properties=species:S:1:pos:R:3:Z:I:1 energy=-266.27608543972974 field_type=dipole dipole="0.000000 0.000000 0.000000" charge=0
C	-1.509377	-1.266603	0.567660	6
C	-1.186197	-0.516073	-0.717110	6
C	-0.158747	0.595807	-0.502910	6
N	1.126212	0.037807	-0.134120	7
C	2.163193	0.748717	0.384470	6
N	2.151753	1.925527	0.894360	7
H	-2.281898	-2.019023	0.380260	1
H	-1.880477	-0.583463	1.337420	1
H	-0.628227	-1.781943	0.960850	1
H	-2.109687	-0.073403	-1.108030	1
H	-0.824627	-1.225863	-1.470800	1
H	-0.526608	1.279977	0.271050	1
H	-0.047277	1.170257	-1.429870	1
H	1.392953	-0.789193	-0.661490	1
H	3.113383	0.190787	0.348960	1
H	1.205632	2.306687	0.879300	1
Es	-2.035263	-1.782089	0.433036	99
Es	-0.912227	-1.612919	0.826076	99
Es	-0.659791	0.038664	-0.607296	99
Es	2.432341	2.098639	1.035118	99
Es	-1.810486	-0.210840	-0.979200	99
Es	-1.186168	-0.516059	-0.717082	99
Es	2.192152	1.582618	0.431630	99
Es	-1.509375	-1.266586	0.567625	99
Es	1.156885	-0.000922	0.099108	99
Es	2.163094	0.748558	0.384384	99
Es	1.284751	-0.464864	-0.453640	99
Es	2.151360	1.925224	0.894144	99
Es	2.801914	0.357148	0.352925	99
Es	1.571301	0.388006	0.018452	99
Es	0.599055	0.298205	-0.303304	99
Es	-0.401009	1.065336	0.031371	99
Es	-0.158598	0.595712	-0.502855	99
Es	1.573641	2.146568	0.873991	99
Es	2.080738	1.349812	0.941759	99
Es	1.126683	0.038348	-0.134695	99
Es	-1.760819	-0.789942	1.092252	99
Es	-0.927744	-1.006414	-1.237014	99
Es	-1.340909	-0.888900	-0.071391	99
Es	-0.080269	0.987563	-1.134400	99
40
Properties=species:S:1:pos:R:3:Z:I:1 energy=-266.27608543972974 field_type=dipole dipole="0.000000 0.000000 0.000000" charge=0
C	-1.509377	-1.266603	0.567660	6
C	-1.186197	-0.516073	-0.717110	6
C	-0.158747	0.595807	-0.502910	6
N	1.126212	0.037807	-0.134120	7
C	2.163193	0.748717	0.384470	6
N	2.151753	1.925527	0.894360	7
H	-2.281898	-2.019023	0.380260	1
H	-1.880477	-0.583463	1.337420	1
H	-0.628227	-1.781943	0.960850	1
H	-2.109687	-0.073403	-1.108030	1
H	-0.824627	-1.225863	-1.470800	1
H	-0.526608	1.279977	0.271050	1
H	-0.047277	1.170257	-1.429870	1
H	1.392953	-0.789193	-0.661490	1
H	3.113383	0.190787	0.348960	1
H	1.205632	2.306687	0.879300	1
Es	2.432485	2.098402	1.034291	99
Es	2.080330	1.350739	0.943036	99
Es	2.163092	0.748556	0.384391	99
Es	-0.080204	0.987125	-1.134103	99
Es	-2.035153	-1.782248	0.432881	99
Es	-0.158593	0.595711	-0.502855	99
Es	-1.810138	-0.211118	-0.978940	99
Es	-0.927766	-1.006616	-1.237209	99
Es	-1.340986	-0.889095	-0.071408	99
Es	1.156812	0.000134	0.097163	99
Es	1.574048	2.147307	0.873846	99
Es	-1.760766	-0.789571	1.092329	99
Es	-0.912436	-1.612763	0.825858	99
Es	-1.186168	-0.516058	-0.717081	99
Es	-1.509375	-1.266586	0.567626	99
Es	2.801840	0.357093	0.352974	99
Es	0.599684	0.298859	-0.304052	99
Es	1.126396	0.038083	-0.134498	99
Es	1.284323	-0.465804	-0.452651	99
Es	1.571424	0.387621	0.019792	99
Es	2.191862	1.581295	0.431309	99
Es	-0.659896	0.038809	-0.607191	99
Es	-0.400917	1.065784	0.031349	99
Es	2.151358	1.925210	0.894136	99
40
Properties=species:S:1:pos:R:3:Z:I:1 energy=-266.27608543972974 field_type=dipole dipole="0.000000 0.000000 0.000000" charge=0
C	-1.509377	-1.266603	0.567660	6
C	-1.186197	-0.516073	-0.717110	6
C	-0.158747	0.595807	-0.502910	6
N	1.126212	0.037807	-0.134120	7
C	2.163193	0.748717	0.384470	6
N	2.151753	1.925527	0.894360	7
H	-2.281898	-2.019023	0.380260	1
H	-1.880477	-0.583463	1.337420	1
H	-0.628227	-1.781943	0.960850	1
H	-2.109687	-0.073403	-1.108030	1
H	-0.824627	-1.225863	-1.470800	1
H	-0.526608	1.279977	0.271050	1
H	-0.047277	1.170257	-1.429870	1
H	1.392953	-0.789193	-0.661490	1
H	3.113383	0.190787	0.348960	1
H	1.205632	2.306687	0.879300	1
Es	-0.659940	0.038954	-0.607357	99
Es	2.191898	1.582228	0.431610	99
Es	1.574240	2.148346	0.874080	99
Es	-0.400896	1.066074	0.031336	99
Es	0.600891	0.299473	-0.305027	99
Es	-1.186168	-0.516057	-0.717082	99
Es	2.432386	2.097350	1.034090	99
Es	2.151361	1.925225	0.894143	99
Es	2.080047	1.349884	0.942664	99
Es	2.163092	0.748555	0.384392	99
Es	-0.927873	-1.006984	-1.237266	99
Es	2.801845	0.357066	0.352997	99
Es	-1.760639	-0.789310	1.092375	99
Es	-0.158596	0.595713	-0.502855	99
Es	-1.509375	-1.266586	0.567627	99
Es	1.571390	0.387272	0.021642	99
Es	1.155824	0.000552	0.095671	99
Es	1.126522	0.038206	-0.134619	99
Es	-0.080166	0.986826	-1.133819	99
Es	-0.912615	-1.612613	0.825666	99
Es	1.283990	-0.466502	-0.452002	99
Es	-2.035158	-1.782412	0.432712	99
Es	-1.809859	-0.211389	-0.978671	99
Es	-1.340947	-0.889003	-0.071316	99
40
Properties=species:S:1:pos:R:3:Z:I:1 energy=-266.27608543972974 field_type=dipole dipole="0.000000 0.000000 0.000000" charge=0
C	-1.509377	-1.266603	0.567660	6
C	-1.186197	-0.516073	-0.717110	6
C	-0.158747	0.595807	-0.502910	6
N	1.126212	0.037807	-0.134120	7
C	2.163193	0.748717	0.384470	6
N	2.151753	1.925527	0.894360	7
H	-2.281898	-2.019023	0.380260	1
H	-1.880477	-0.583463	1.337420	1
H	-0.628227	-1.781943	0.960850	1
H	-2.109687	-0.073403	-1.108030	1
H	-0.824627	-1.225863	-1.470800	1
H	-0.526608	1.279977	0.271050	1
H	-0.047277	1.170257	-1.429870	1
H	1.392953	-0.789193	-0.661490	1
H	3.113383	0.190787	0.348960	1
H	1.205632	2.306687	0.879300	1
Es	-1.341049	-0.889067	-0.071378	99
Es	-1.809576	-0.211618	-0.978416	99
Es	-0.080099	0.986674	-1.133771	99
Es	2.191851	1.582881	0.431362	99
Es	1.283535	-0.467495	-0.450807	99
Es	-0.158593	0.595712	-0.502855	99
Es	0.601313	0.299885	-0.305679	99
Es	2.151371	1.925215	0.894141	99
Es	1.574300	2.148963	0.874737	99
Es	-0.400793	1.066224	0.031478	99
Es	-1.509376	-1.266586	0.567626	99
Es	1.155629	0.001877	0.091251	99
Es	1.571554	0.386771	0.025373	99
Es	-0.912809	-1.612251	0.825407	99
Es	2.801828	0.356927	0.353014	99
Es	2.080141	1.349473	0.942482	99
Es	-0.927996	-1.007096	-1.237437	99
Es	-1.760567	-0.789159	1.092501	99
Es	-0.659937	0.039096	-0.607399	99
Es	2.432136	2.096611	1.033744	99
Es	-1.186167	-0.516059	-0.717082	99
Es	1.126419	0.038097	-0.134510	99
Es	-2.034952	-1.782763	0.432820	99
Es	2.163093	0.748556	0.384391	99
40
Properties=species:S:1:pos:R:3:Z:I:1 energy=-266.27608543972974 field_type=dipole dipole="0.000000 0.000000 0.000000" charge=0
C	-1.509377	-1.266603	0.567660	6
C	-1.186197	-0.516073	-0.717110	6
C	-0.158747	0.595807	-0.502910	6
N	1.126212	0.037807	-0.134120	7
C	2.163193	0.748717	0.384470	6
N	2.151753	1.925527	0.894360	7
H	-2.281898	-2.019023	0.380260	1
H	-1.880477	-0.583463	1.337420	1
H	-0.628227	-1.781943	0.960850	1
H	-2.109687	-0.073403	-1.108030	1
H	-0.824627	-1.225863	-1.470800	1
H	-0.526608	1.279977	0.271050	1
H	-0.047277	1.170257	-1.429870	1
H	1.392953	-0.789193	-0.661490	1
H	3.113383	0.190787	0.348960	1
H	1.205632	2.306687	0.879300	1
Es	1.154804	0.002052	0.089406	99
Es	2.432032	2.096308	1.033698	99
Es	-0.928025	-1.007343	-1.237426	99
Es	-0.913035	-1.612094	0.825222	99
Es	-0.400678	1.066562	0.031396	99
Es	2.151348	1.925203	0.894128	99
Es	1.283548	-0.467924	-0.450240	99
Es	-1.809410	-0.211742	-0.978309	99
Es	-1.341073	-0.889048	-0.071456	99
Es	1.126828	0.038461	-0.134655	99
Es	2.801797	0.356903	0.353057	99
Es	-1.760552	-0.788959	1.092626	99
Es	2.191857	1.583262	0.431308	99
Es	-0.158593	0.595711	-0.502855	99
Es	-0.660000	0.039152	-0.607348	99
Es	1.574561	2.149317	0.874748	99
Es	2.163093	0.748557	0.384390	99
Es	0.601868	0.300105	-0.306378	99
Es	1.571424	0.386456	0.027437	99
Es	-1.509375	-1.266586	0.567625	99
Es	-1.186167	-0.516058	-0.717082	99
Es	-0.080109	0.986345	-1.133579	99
Es	-2.034769	-1.782907	0.432781	99
Es	2.079883	1.349137	0.942497	99
40
Properties=species:S:1:pos:R:3:Z:I:1 energy=-266.27608543972974 field_type=dipole dipole="0.000000 0.000000 0.000000" charge=0
C	-1.509377	-1.266603	0.567660	6
C	-1.186197	-0.516073	-0.717110	6
C	-0.158747	0.595807	-0.502910	6
N	1.126212	0.037807	-0.134120	7
C	2.163193	0.748717	0.384470	6
N	2.151753	1.925527	0.894360	7
H	-2.281898	-2.019023	0.380260	1
H	-1.880477	-0.583463	1.337420	1
H	-0.628227	-1.781943	0.960850	1
H	-2.109687	-0.073403	-1.108030	1
H	-0.824627	-1.225863	-1.470800	1
H	-0.526608	1.279977	0.271050	1
H	-0.047277	1.170257	-1.429870	1
H	1.392953	-0.789193	-0.661490	1
H	3.113383	0.190787	0.348960	1
H	1.205632	2.306687	0.879300	1
Es	1.283248	-0.468557	-0.449455	99
Es	-2.034734	-1.782979	0.432653	99
Es	2.151359	1.925217	0.894147	99
Es	-0.158593	0.595711	-0.502855	99
Es	2.801773	0.356862	0.353108	99
Es	1.571419	0.386540	0.027715	99
Es	1.126627	0.038299	-0.134647	99
Es	2.191816	1.583403	0.431136	99
Es	-1.760537	-0.788739	1.092596	99
Es	2.079896	1.348983	0.942811	99
Es	1.574702	2.149922	0.875061	99
Es	-1.509375	-1.266586	0.567626	99
Es	-1.341081	-0.889112	-0.071523	99
Es	-0.660027	0.039271	-0.607359	99
Es	-1.186167	-0.516058	-0.717081	99
Es	0.602179	0.300255	-0.306655	99
Es	2.163092	0.748555	0.384395	99
Es	1.154887	0.002740	0.088616	99
Es	-0.928055	-1.007514	-1.237506	99
Es	-1.809173	-0.211971	-0.978126	99
Es	-0.079970	0.986121	-1.133373	99
Es	2.431823	2.095752	1.033192	99
Es	-0.400710	1.066781	0.031356	99
Es	-0.913144	-1.612026	0.825159	99
40
Properties=species:S:1:pos:R:3:Z:I:1 energy=-266.27608543972974 field_type=dipole dipole="0.000000 0.000000 0.000000" charge=0
C	-1.509377	-1.266603	0.567660	6
C	-1.186197	-0.516073	-0.717110	6
C	-0.158747	0.595807	-0.502910	6
N	1.126212	0.037807	-0.134120	7
C	2.163193	0.748717	0.384470	6
N	2.151753	1.925527	0.894360	7
H	-2.281898	-2.019023	0.380260	1
H	-1.880477	-0.583463	1.337420	1
H	-0.628227	-1.781943	0.960850	1
H	-2.109687	-0.073403	-1.108030	1
H	-0.824627	-1.225863	-1.470800	1
H	-0.526608	1.279977	0.271050	1
H	-0.047277	1.170257	-1.429870	1
H	1.392953	-0.789193	-0.661490	1
H	3.113383	0.190787	0.348960	1
H	1.205632	2.306687	0.879300	1
Es	1.154931	0.002765	0.088922	99
Es	1.574792	2.150338	0.874240	99
Es	-1.509375	-1.266586	0.567625	99
Es	2.151337	1.925213	0.894134	99
Es	1.571407	0.386404	0.027499	99
Es	2.192385	1.583522	0.431469	99
Es	1.283188	-0.468501	-0.449747	99
Es	-1.760595	-0.788485	1.092551	99
Es	-1.186167	-0.516059	-0.717082	99
Es	2.431436	2.095549	1.033392	99
Es	-2.034578	-1.783199	0.432531	99
Es	-0.158593	0.595711	-0.502855	99
Es	2.079518	1.348720	0.943088	99
Es	-0.913180	-1.611796	0.825029	99
Es	-0.660124	0.039408	-0.607526	99
Es	-1.809069	-0.212157	-0.977977	99
Es	-0.400662	1.066975	0.031366	99
Es	-0.079963	0.985928	-1.133111	99
Es	2.801700	0.356991	0.353234	99
Es	2.163094	0.748557	0.384390	99
Es	-1.341085	-0.889114	-0.071402	99
Es	0.602560	0.300392	-0.306832	99
Es	1.126374	0.038061	-0.134485	99
Es	-0.928076	-1.007772	-1.237462	99
40
Properties=species:S:1:pos:R:3:Z:I:1 energy=-266.27608543972974 field_type=dipole dipole="0.000000 0.000000 0.000000" charge=0
C	-1.509377	-1.266603	0.567660	6
C	-1.186197	-0.516073	-0.717110	6
C	-0.158747	0.595807	-0.502910	6
N	1.126212	0.037807	-0.134120	7
C	2.163193	0.748717	0.384470	6
N	2.151753	1.925527	0.894360	7
H	-2.281898	-2.019023	0.380260	1
H	-1.880477	-0.583463	1.337420	1
H	-0.628227	-1.781943	0.960850	1
H	-2.109687	-0.073403	-1.108030	1
H	-0.824627	-1.225863	-1.470800	1
H	-0.526608	1.279977	0.271050	1
H	-0.047277	1.170257	-1.429870	1
H	1.392953	-0.789193	-0.661490	1
H	3.113383	0.190787	0.348960	1
H	1.205632	2.306687	0.879300	1
Es	2.801741	0.356851	0.353270	99
Es	-1.186167	-0.516059	-0.717082	99
Es	-2.034448	-1.783559	0.432621	99
Es	0.603007	0.300891	-0.307544	99
Es	1.126393	0.038085	-0.134516	99
Es	2.151363	1.925200	0.894129	99
Es	1.571416	0.386002	0.029298	99
Es	-1.760475	-0.788477	1.092678	99
Es	-0.400568	1.067177	0.031390	99
Es	1.154416	0.003089	0.087444	99
Es	2.163092	0.748555	0.384393	99
Es	-1.341120	-0.889067	-0.071514	99
Es	-1.808911	-0.212295	-0.977814	99
Es	2.079582	1.349557	0.943913	99
Es	-1.509375	-1.266585	0.567626	99
Es	-0.928181	-1.007854	-1.237550	99
Es	1.574917	2.151172	0.874754	99
Es	-0.660109	0.039464	-0.607629	99
Es	-0.913389	-1.611435	0.824812	99
Es	1.283128	-0.468758	-0.449391	99
Es	2.431823	2.095160	1.032033	99
Es	-0.158593	0.595710	-0.502855	99
Es	-0.079947	0.985732	-1.132877	99
Es	2.191661	1.582314	0.431402	99
40
Properties=species:S:1:pos:R:3:Z:I:1 energy=-266.27608543972974 field_type=dipole dipole="0.000000 0.000000 0.000000" charge=0
C	-1.509377	-1.266603	0.567660	6
C	-1.186197	-0.516073	-0.717110	6
C	-0.158747	0.595807	-0.502910	6
N	1.126212	0.037807	-0.134120	7
C	2.163193	0.748717	0.384470	6
N	2.151753	1.925527	0.894360	7
H	-2.281898	-2.019023	0.380260	1
H	-1.880477	-0.583463	1.337420	1
H	-0.628227	-1.781943	0.960850	1
H	-2.109687	-0.073403	-1.108030	1
H	-0.824627	-1.225863	-1.470800	1
H	-0.526608	1.279977	0.271050	1
H	-0.047277	1.170257	-1.429870	1
H	1.392953	-0.789193	-0.661490	1
H	3.113383	0.190787	0.348960	1
H	1.205632	2.306687	0.879300	1
Es	2.801721	0.356732	0.353189	99
Es	-0.158593	0.595711	-0.502855	99
Es	1.153867	0.003618	0.085212	99
Es	1.571425	0.385691	0.031549	99
Es	-1.808645	-0.212432	-0.977652	99
Es	-1.509375	-1.266586	0.567626	99
Es	-0.928266	-1.008017	-1.237634	99
Es	-1.760513	-0.788352	1.092686	99
Es	0.603642	0.301259	-0.308125	99
Es	-0.079899	0.985667	-1.132869	99
Es	1.282860	-0.469309	-0.448652	99
Es	-1.186172	-0.516054	-0.717083	99
Es	2.079775	1.347571	0.942421	99
Es	-0.400583	1.067232	0.031379	99
Es	2.431431	2.094470	1.032535	99
Es	2.163094	0.748558	0.384390	99
Es	-0.660146	0.039519	-0.607645	99
Es	1.126523	0.038211	-0.134597	99
Es	2.151382	1.925253	0.894154	99
Es	1.574875	2.151271	0.875439	99
Es	2.191831	1.584873	0.431678	99
Es	-1.341166	-0.889033	-0.071426	99
Es	-2.034343	-1.783692	0.432531	99
Es	-0.913471	-1.611294	0.824740	99
