39
Properties=species:S:1:pos:R:3:Z:I:1 energy=-233.0545727111277 field_type=dipole dipole="0.000000 0.000000 0.000000" charge=0
C	-2.527990	-1.322309	-0.070224	6
C	-1.571180	-0.503419	-0.526014	6
C	-0.605170	0.236151	0.355346	6
C	0.832280	-0.112329	0.093176	6
C	1.702560	0.782991	-0.752524	6
C	1.928130	0.701861	0.731786	6
H	-3.198080	-1.831239	-0.756214	1
H	-2.664970	-1.505329	0.991446	1
H	-1.471980	-0.348939	-1.598124	1
H	-0.820670	0.028811	1.410776	1
H	-0.769020	1.311581	0.212306	1
H	0.991260	-1.184529	0.039096	1
H	1.281670	1.699801	-1.149614	1
H	2.431970	0.314101	-1.402854	1
H	2.807680	0.174631	1.084576	1
H	1.653510	1.558171	1.337066	1
Es	-2.267717	-0.671120	-0.275782	99
Es	-2.528068	-1.322370	-0.070188	99
Es	1.335286	0.231765	0.586677	99
Es	0.110471	0.070649	0.210416	99
Es	-1.571087	-0.503337	-0.526037	99
Es	0.947808	-0.839048	0.051969	99
Es	-0.605174	0.236128	0.355303	99
Es	2.524871	0.341914	0.968209	99
Es	-1.496212	-0.392983	-1.253880	99
Es	2.199513	0.463274	-1.191796	99
Es	-2.987371	-1.671168	-0.530063	99
Es	1.409061	1.403751	-1.018237	99
Es	1.702517	0.782924	-0.752359	99
Es	1.958343	0.865701	-0.024034	99
Es	-1.085498	-0.140922	-0.090000	99
Es	1.168966	0.282759	-0.496759	99
Es	-0.714577	0.965480	0.250812	99
Es	-1.852749	-1.175966	-0.309023	99
Es	1.734732	1.283488	1.140173	99
Es	-2.624555	-1.449564	0.650762	99
Es	1.928046	0.701817	0.731639	99
Es	0.832387	-0.112186	0.093164	99
Es	-0.756340	0.088080	1.073572	99
39
Properties=species:S:1:pos:R:3:Z:I:1 energy=-233.0545727111277 field_type=dipole dipole="0.000000 0.000000 0.000000" charge=0
C	-2.527990	-1.322309	-0.070224	6
C	-1.571180	-0.503419	-0.526014	6
C	-0.605170	0.236151	0.355346	6
C	0.832280	-0.112329	0.093176	6
C	1.702560	0.782991	-0.752524	6
C	1.928130	0.701861	0.731786	6
H	-3.198080	-1.831239	-0.756214	1
H	-2.664970	-1.505329	0.991446	1
H	-1.471980	-0.348939	-1.598124	1
H	-0.820670	0.028811	1.410776	1
H	-0.769020	1.311581	0.212306	1
H	0.991260	-1.184529	0.039096	1
H	1.281670	1.699801	-1.149614	1
H	2.431970	0.314101	-1.402854	1
H	2.807680	0.174631	1.084576	1
H	1.653510	1.558171	1.337066	1
Es	2.523238	0.344551	0.967649	99
Es	-0.713769	0.964673	0.250715	99
Es	1.962225	0.869485	-0.027080	99
Es	-0.605175	0.236126	0.355304	99
Es	-2.266884	-0.672006	-0.275783	99
Es	-2.528068	-1.322375	-0.070187	99
Es	2.199496	0.465409	-1.190599	99
Es	0.832384	-0.112188	0.093165	99
Es	-1.496848	-0.392803	-1.253983	99
Es	-0.755968	0.088145	1.074542	99
Es	-1.085691	-0.140614	-0.090629	99
Es	-2.623901	-1.449858	0.651155	99
Es	1.702518	0.782926	-0.752364	99
Es	1.166953	0.280885	-0.496913	99
Es	-1.571085	-0.503337	-0.526038	99
Es	1.928040	0.701815	0.731629	99
Es	0.947613	-0.838367	0.052789	99
Es	1.330627	0.227382	0.588498	99
Es	-1.853808	-1.174972	-0.308968	99
Es	-2.987219	-1.671720	-0.530557	99
Es	1.736755	1.281765	1.138920	99
Es	1.411204	1.403251	-1.017508	99
Es	0.110016	0.070895	0.210783	99
39
Properties=species:S:1:pos:R:3:Z:I:1 energy=-233.0545727111277 field_type=dipole dipole="0.000000 0.000000 0.000000" charge=0
C	-2.527990	-1.322309	-0.070224	6
C	-1.571180	-0.503419	-0.526014	6
C	-0.605170	0.236151	0.355346	6
C	0.832280	-0.112329	0.093176	6
C	1.702560	0.782991	-0.752524	6
C	1.928130	0.701861	0.731786	6
H	-3.198080	-1.831239	-0.756214	1
H	-2.664970	-1.505329	0.991446	1
H	-1.471980	-0.348939	-1.598124	1
H	-0.820670	0.028811	1.410776	1
H	-0.769020	1.311581	0.212306	1
H	0.991260	-1.184529	0.039096	1
H	1.281670	1.699801	-1.149614	1
H	2.431970	0.314101	-1.402854	1
H	2.807680	0.174631	1.084576	1
H	1.653510	1.558171	1.337066	1
Es	1.166099	0.280038	-0.496692	99
Es	-0.713198	0.963901	0.250679	99
Es	1.738087	1.280030	1.137769	99
Es	-2.528072	-1.322375	-0.070186	99
Es	-1.085849	-0.140694	-0.091185	99
Es	0.832377	-0.112191	0.093168	99
Es	2.521462	0.346572	0.967193	99
Es	-0.755521	0.088338	1.075239	99
Es	1.702519	0.782928	-0.752368	99
Es	1.928039	0.701814	0.731624	99
Es	-2.266558	-0.672490	-0.275592	99
Es	1.965054	0.872187	-0.029503	99
Es	-2.987121	-1.672059	-0.530879	99
Es	1.412643	1.402863	-1.017046	99
Es	0.109531	0.071251	0.211057	99
Es	-1.854590	-1.173947	-0.308920	99
Es	-1.571088	-0.503332	-0.526039	99
Es	-0.605178	0.236128	0.355304	99
Es	1.327648	0.224314	0.590069	99
Es	-1.497214	-0.392828	-1.254143	99
Es	0.947535	-0.837807	0.053274	99
Es	2.199336	0.466706	-1.189627	99
Es	-2.623289	-1.450280	0.651343	99
39
Properties=species:S:1:pos:R:3:Z:I:1 energy=-233.0545727111277 field_type=dipole dipole="0.000000 0.000000 0.000000" charge=0
C	-2.527990	-1.322309	-0.070224	6
C	-1.571180	-0.503419	-0.526014	6
C	-0.605170	0.236151	0.355346	6
C	0.832280	-0.112329	0.093176	6
C	1.702560	0.782991	-0.752524	6
C	1.928130	0.701861	0.731786	6
H	-3.198080	-1.831239	-0.756214	1
H	-2.664970	-1.505329	0.991446	1
H	-1.471980	-0.348939	-1.598124	1
H	-0.820670	0.028811	1.410776	1
H	-0.769020	1.311581	0.212306	1
H	0.991260	-1.184529	0.039096	1
H	1.281670	1.699801	-1.149614	1
H	2.431970	0.314101	-1.402854	1
H	2.807680	0.174631	1.084576	1
H	1.653510	1.558171	1.337066	1
Es	-0.712832	0.963284	0.250778	99
Es	-2.623126	-1.450251	0.651460	99
Es	1.165743	0.279487	-0.496673	99
Es	0.947540	-0.837186	0.053573	99
Es	2.198968	0.467798	-1.188826	99
Es	0.109155	0.071419	0.211259	99
Es	2.519691	0.348176	0.966472	99
Es	-2.265861	-0.672926	-0.275607	99
Es	-1.855040	-1.173894	-0.308893	99
Es	-2.987184	-1.672172	-0.531124	99
Es	1.928038	0.701815	0.731625	99
Es	0.832378	-0.112188	0.093152	99
Es	1.967380	0.874545	-0.031177	99
Es	-2.528069	-1.322378	-0.070187	99
Es	-1.085943	-0.140409	-0.091658	99
Es	-0.755354	0.088384	1.075631	99
Es	-1.497598	-0.392727	-1.254071	99
Es	1.702519	0.782928	-0.752360	99
Es	1.413706	1.402378	-1.016649	99
Es	1.325488	0.222000	0.591755	99
Es	-1.571084	-0.503336	-0.526040	99
Es	1.739311	1.278194	1.136793	99
Es	-0.605174	0.236127	0.355303	99
39
Properties=species:S:1:pos:R:3:Z:I:1 energy=-233.0545727111277 field_type=dipole dipole="0.000000 0.000000 0.000000" charge=0
C	-2.527990	-1.322309	-0.070224	6
C	-1.571180	-0.503419	-0.526014	6
C	-0.605170	0.236151	0.355346	6
C	0.832280	-0.112329	0.093176	6
C	1.702560	0.782991	-0.752524	6
C	1.928130	0.701861	0.731786	6
H	-3.198080	-1.831239	-0.756214	1
H	-2.664970	-1.505329	0.991446	1
H	-1.471980	-0.348939	-1.598124	1
H	-0.820670	0.028811	1.410776	1
H	-0.769020	1.311581	0.212306	1
H	0.991260	-1.184529	0.039096	1
H	1.281670	1.699801	-1.149614	1
H	2.431970	0.314101	-1.402854	1
H	2.807680	0.174631	1.084576	1
H	1.653510	1.558171	1.337066	1
Es	1.740159	1.276496	1.135909	99
Es	-2.987316	-1.672316	-0.531305	99
Es	-0.605173	0.236126	0.355304	99
Es	1.165644	0.279249	-0.496693	99
Es	1.323847	0.220206	0.592952	99
Es	1.928031	0.701816	0.731622	99
Es	-1.571088	-0.503332	-0.526038	99
Es	-0.755049	0.088673	1.076005	99
Es	-1.497943	-0.392706	-1.254027	99
Es	-2.622739	-1.450340	0.651539	99
Es	0.108634	0.071430	0.211448	99
Es	-1.086028	-0.140413	-0.091965	99
Es	-0.712367	0.962731	0.250718	99
Es	-2.528069	-1.322378	-0.070187	99
Es	2.198675	0.468662	-1.188179	99
Es	1.969500	0.876678	-0.032220	99
Es	1.414465	1.401754	-1.016352	99
Es	2.517916	0.349484	0.965902	99
Es	-2.265361	-0.673258	-0.275511	99
Es	1.702520	0.782930	-0.752365	99
Es	0.832378	-0.112189	0.093168	99
Es	0.947620	-0.836673	0.053785	99
Es	-1.855604	-1.173561	-0.308971	99
39
Properties=species:S:1:pos:R:3:Z:I:1 energy=-233.0545727111277 field_type=dipole dipole="0.000000 0.000000 0.000000" charge=0
C	-2.527990	-1.322309	-0.070224	6
C	-1.571180	-0.503419	-0.526014	6
C	-0.605170	0.236151	0.355346	6
C	0.832280	-0.112329	0.093176	6
C	1.702560	0.782991	-0.752524	6
C	1.928130	0.701861	0.731786	6
H	-3.198080	-1.831239	-0.756214	1
H	-2.664970	-1.505329	0.991446	1
H	-1.471980	-0.348939	-1.598124	1
H	-0.820670	0.028811	1.410776	1
H	-0.769020	1.311581	0.212306	1
H	0.991260	-1.184529	0.039096	1
H	1.281670	1.699801	-1.149614	1
H	2.431970	0.314101	-1.402854	1
H	2.807680	0.174631	1.084576	1
H	1.653510	1.558171	1.337066	1
Es	-1.085998	-0.140309	-0.092324	99
Es	1.740938	1.274913	1.134909	99
Es	-1.498194	-0.392807	-1.253935	99
Es	0.947816	-0.836098	0.053909	99
Es	-2.622478	-1.450288	0.651542	99
Es	0.108241	0.071391	0.211568	99
Es	1.322514	0.218865	0.594259	99
Es	1.971517	0.878304	-0.033047	99
Es	1.165584	0.279202	-0.496668	99
Es	2.198272	0.469265	-1.187589	99
Es	1.415150	1.401337	-1.016136	99
Es	-0.712184	0.962293	0.250814	99
Es	-2.528070	-1.322378	-0.070187	99
Es	1.928036	0.701812	0.731623	99
Es	-2.265120	-0.673565	-0.275483	99
Es	1.702531	0.782937	-0.752371	99
Es	-0.605174	0.236126	0.355304	99
Es	-1.571089	-0.503331	-0.526038	99
Es	-0.754832	0.088743	1.076190	99
Es	-2.987438	-1.672514	-0.531455	99
Es	2.516116	0.350627	0.965390	99
Es	-1.855864	-1.173265	-0.308905	99
Es	0.832380	-0.112193	0.093168	99
39
Properties=species:S:1:pos:R:3:Z:I:1 energy=-233.0545727111277 field_type=dipole dipole="0.000000 0.000000 0.000000" charge=0
C	-2.527990	-1.322309	-0.070224	6
C	-1.571180	-0.503419	-0.526014	6
C	-0.605170	0.236151	0.355346	6
C	0.832280	-0.112329	0.093176	6
C	1.702560	0.782991	-0.752524	6
C	1.928130	0.701861	0.731786	6
H	-3.198080	-1.831239	-0.756214	1
H	-2.664970	-1.505329	0.991446	1
H	-1.471980	-0.348939	-1.598124	1
H	-0.820670	0.028811	1.410776	1
H	-0.769020	1.311581	0.212306	1
H	0.991260	-1.184529	0.039096	1
H	1.281670	1.699801	-1.149614	1
H	2.431970	0.314101	-1.402854	1
H	2.807680	0.174631	1.084576	1
H	1.653510	1.558171	1.337066	1
Es	0.947998	-0.835426	0.053966	99
Es	1.165653	0.279164	-0.496632	99
Es	-1.086012	-0.140185	-0.092583	99
Es	-0.712027	0.961841	0.250872	99
Es	2.514556	0.351646	0.964753	99
Es	-0.754560	0.088874	1.076395	99
Es	-1.856049	-1.172954	-0.308916	99
Es	1.928029	0.701816	0.731617	99
Es	-0.605174	0.236126	0.355304	99
Es	1.973145	0.880070	-0.033758	99
Es	1.702517	0.782933	-0.752365	99
Es	-2.987490	-1.672728	-0.531527	99
Es	-1.498456	-0.392896	-1.253807	99
Es	-2.528069	-1.322378	-0.070186	99
Es	-2.265032	-0.673838	-0.275516	99
Es	0.107782	0.071316	0.211597	99
Es	1.741498	1.273291	1.134170	99
Es	1.415755	1.400839	-1.015962	99
Es	1.321606	0.217575	0.595473	99
Es	2.197880	0.469820	-1.187023	99
Es	-2.622185	-1.450315	0.651540	99
Es	0.832376	-0.112190	0.093164	99
Es	-1.571086	-0.503333	-0.526038	99
39
Properties=species:S:1:pos:R:3:Z:I:1 energy=-233.0545727111277 field_type=dipole dipole="0.000000 0.000000 0.000000" charge=0
C	-2.527990	-1.322309	-0.070224	6
C	-1.571180	-0.503419	-0.526014	6
C	-0.605170	0.236151	0.355346	6
C	0.832280	-0.112329	0.093176	6
C	1.702560	0.782991	-0.752524	6
C	1.928130	0.701861	0.731786	6
H	-3.198080	-1.831239	-0.756214	1
H	-2.664970	-1.505329	0.991446	1
H	-1.471980	-0.348939	-1.598124	1
H	-0.820670	0.028811	1.410776	1
H	-0.769020	1.311581	0.212306	1
H	0.991260	-1.184529	0.039096	1
H	1.281670	1.699801	-1.149614	1
H	2.431970	0.314101	-1.402854	1
H	2.807680	0.174631	1.084576	1
H	1.653510	1.558171	1.337066	1
Es	1.320769	0.216741	0.596354	99
Es	0.832377	-0.112190	0.093171	99
Es	-1.086028	-0.140144	-0.092818	99
Es	-1.498690	-0.392969	-1.253709	99
Es	1.974797	0.881329	-0.034138	99
Es	-2.621911	-1.450314	0.651409	99
Es	2.197473	0.470192	-1.186447	99
Es	-2.987568	-1.673007	-0.531606	99
Es	-2.264920	-0.673875	-0.275407	99
Es	1.165780	0.279269	-0.496717	99
Es	-1.571085	-0.503334	-0.526038	99
Es	1.702523	0.782928	-0.752358	99
Es	0.948455	-0.834670	0.054064	99
Es	1.928033	0.701815	0.731620	99
Es	2.512977	0.352465	0.964358	99
Es	-0.605174	0.236124	0.355303	99
Es	1.741938	1.271959	1.133369	99
Es	-0.711606	0.961603	0.250852	99
Es	1.416265	1.400490	-1.015944	99
Es	-2.528069	-1.322378	-0.070187	99
Es	-1.856306	-1.172706	-0.308862	99
Es	0.106906	0.070726	0.211697	99
Es	-0.754284	0.089014	1.076572	99
39
Properties=species:S:1:pos:R:3:Z:I:1 energy=-233.0545727111277 field_type=dipole dipole="0.000000 0.000000 0.000000" charge=0
C	-2.527990	-1.322309	-0.070224	6
C	-1.571180	-0.503419	-0.526014	6
C	-0.605170	0.236151	0.355346	6
C	0.832280	-0.112329	0.093176	6
C	1.702560	0.782991	-0.752524	6
C	1.928130	0.701861	0.731786	6
H	-3.198080	-1.831239	-0.756214	1
H	-2.664970	-1.505329	0.991446	1
H	-1.471980	-0.348939	-1.598124	1
H	-0.820670	0.028811	1.410776	1
H	-0.769020	1.311581	0.212306	1
H	0.991260	-1.184529	0.039096	1
H	1.281670	1.699801	-1.149614	1
H	2.431970	0.314101	-1.402854	1
H	2.807680	0.174631	1.084576	1
H	1.653510	1.558171	1.337066	1
Es	1.742409	1.270728	1.132895	99
Es	0.832374	-0.112189	0.093170	99
Es	-1.086068	-0.140125	-0.093023	99
Es	-2.621708	-1.450230	0.651355	99
Es	-1.498949	-0.392985	-1.253604	99
Es	1.166086	0.279452	-0.496534	99
Es	2.196843	0.470485	-1.185900	99
Es	-2.987699	-1.673164	-0.531627	99
Es	1.976667	0.882644	-0.034365	99
Es	0.948971	-0.833710	0.053999	99
Es	-1.856906	-1.172765	-0.308873	99
Es	-0.711643	0.961150	0.251055	99
Es	1.702517	0.782925	-0.752360	99
Es	-0.605174	0.236126	0.355302	99
Es	-0.754018	0.089102	1.076600	99
Es	2.511252	0.353206	0.963693	99
Es	-2.528071	-1.322378	-0.070188	99
Es	-1.571085	-0.503333	-0.526038	99
Es	0.106430	0.070239	0.211715	99
Es	1.416623	1.400206	-1.016053	99
Es	-2.264276	-0.673883	-0.275398	99
Es	1.320042	0.215761	0.597098	99
Es	1.928036	0.701805	0.731617	99
39
Properties=species:S:1:pos:R:3:Z:I:1 energy=-233.0545727111277 field_type=dipole dipole="0.000000 0.000000 0.000000" charge=0
C	-2.527990	-1.322309	-0.070224	6
C	-1.571180	-0.503419	-0.526014	6
C	-0.605170	0.236151	0.355346	6
C	0.832280	-0.112329	0.093176	6
C	1.702560	0.782991	-0.752524	6
C	1.928130	0.701861	0.731786	6
H	-3.198080	-1.831239	-0.756214	1
H	-2.664970	-1.505329	0.991446	1
H	-1.471980	-0.348939	-1.598124	1
H	-0.820670	0.028811	1.410776	1
H	-0.769020	1.311581	0.212306	1
H	0.991260	-1.184529	0.039096	1
H	1.281670	1.699801	-1.149614	1
H	2.431970	0.314101	-1.402854	1
H	2.807680	0.174631	1.084576	1
H	1.653510	1.558171	1.337066	1
Es	0.104917	0.068522	0.211998	99
Es	1.978073	0.883782	-0.034383	99
Es	-2.987892	-1.673361	-0.531593	99
Es	1.742892	1.269526	1.132522	99
Es	-0.753747	0.089162	1.076644	99
Es	-0.710999	0.961487	0.250884	99
Es	1.417111	1.400045	-1.016273	99
Es	1.166032	0.279454	-0.496670	99
Es	1.319731	0.215201	0.597846	99
Es	-2.528069	-1.322379	-0.070186	99
Es	-1.086089	-0.140039	-0.093189	99
Es	-1.499125	-0.393107	-1.253457	99
Es	0.832373	-0.112189	0.093168	99
Es	-1.856765	-1.172650	-0.308859	99
Es	-0.605175	0.236126	0.355304	99
Es	0.949700	-0.832213	0.053939	99
Es	-2.264381	-0.674080	-0.275411	99
Es	-2.621456	-1.450087	0.651261	99
Es	-1.571089	-0.503329	-0.526038	99
Es	2.196497	0.470648	-1.185194	99
Es	2.509551	0.353832	0.962971	99
Es	1.702520	0.782924	-0.752359	99
Es	1.928043	0.701794	0.731613	99
39
Properties=species:S:1:pos:R:3:Z:I:1 energy=-233.0545727111277 field_type=dipole dipole="0.000000 0.000000 0.000000" charge=0
C	-2.527990	-1.322309	-0.070224	6
C	-1.571180	-0.503419	-0.526014	6
C	-0.605170	0.236151	0.355346	6
C	0.832280	-0.112329	0.093176	6
C	1.702560	0.782991	-0.752524	6
C	1.928130	0.701861	0.731786	6
H	-3.198080	-1.831239	-0.756214	1
H	-2.664970	-1.505329	0.991446	1
H	-1.471980	-0.348939	-1.598124	1
H	-0.820670	0.028811	1.410776	1
H	-0.769020	1.311581	0.212306	1
H	0.991260	-1.184529	0.039096	1
H	1.281670	1.699801	-1.149614	1
H	2.431970	0.314101	-1.402854	1
H	2.807680	0.174631	1.084576	1
H	1.653510	1.558171	1.337066	1
Es	-0.709629	0.962242	0.250462	99
Es	-1.499178	-0.393177	-1.253271	99
Es	0.950804	-0.829553	0.053828	99
Es	1.319026	0.214545	0.598021	99
Es	2.507839	0.354015	0.961810	99
Es	-2.528069	-1.322379	-0.070187	99
Es	-0.605172	0.236124	0.355305	99
Es	-0.753670	0.089331	1.076645	99
Es	-2.621363	-1.450179	0.651156	99
Es	-1.856627	-1.172524	-0.308880	99
Es	-1.571085	-0.503332	-0.526038	99
Es	2.195994	0.470642	-1.184339	99
Es	1.928029	0.701814	0.731621	99
Es	1.743696	1.268577	1.132915	99
Es	-2.987940	-1.673398	-0.531673	99
Es	-2.264629	-0.674101	-0.275321	99
Es	1.702523	0.782930	-0.752362	99
Es	1.166441	0.279768	-0.496328	99
Es	1.417583	1.400049	-1.016797	99
Es	-1.086089	-0.140049	-0.093413	99
Es	0.832373	-0.112185	0.093166	99
Es	0.102484	0.065001	0.212574	99
Es	1.979313	0.884908	-0.034355	99
39
Properties=species:S:1:pos:R:3:Z:I:1 energy=-233.0545727111277 field_type=dipole dipole="0.000000 0.000000 0.000000" charge=0
C	-2.527990	-1.322309	-0.070224	6
C	-1.571180	-0.503419	-0.526014	6
C	-0.605170	0.236151	0.355346	6
C	0.832280	-0.112329	0.093176	6
C	1.702560	0.782991	-0.752524	6
C	1.928130	0.701861	0.731786	6
H	-3.198080	-1.831239	-0.756214	1
H	-2.664970	-1.505329	0.991446	1
H	-1.471980	-0.348939	-1.598124	1
H	-0.820670	0.028811	1.410776	1
H	-0.769020	1.311581	0.212306	1
H	0.991260	-1.184529	0.039096	1
H	1.281670	1.699801	-1.149614	1
H	2.431970	0.314101	-1.402854	1
H	2.807680	0.174631	1.084576	1
H	1.653510	1.558171	1.337066	1
Es	1.743832	1.267996	1.132388	99
Es	0.100236	0.061390	0.213285	99
Es	0.832375	-0.112186	0.093173	99
Es	1.702513	0.782921	-0.752356	99
Es	-2.988024	-1.673555	-0.531578	99
Es	-1.086119	-0.140009	-0.093471	99
Es	2.195706	0.470832	-1.184150	99
Es	-1.499347	-0.393248	-1.253116	99
Es	1.318856	0.214229	0.598266	99
Es	0.951556	-0.826840	0.053973	99
Es	-2.264428	-0.673983	-0.275361	99
Es	-2.621273	-1.450046	0.651057	99
Es	1.980349	0.885457	-0.034493	99
Es	-2.528067	-1.322381	-0.070187	99
Es	-1.571084	-0.503335	-0.526038	99
Es	-0.605172	0.236122	0.355303	99
Es	1.417772	1.399756	-1.016725	99
Es	2.506920	0.354527	0.961566	99
Es	-1.856781	-1.172707	-0.308869	99
Es	-0.708166	0.963275	0.250027	99
Es	1.166438	0.279693	-0.496289	99
Es	1.928033	0.701809	0.731620	99
Es	-0.753471	0.089353	1.076513	99
39
Properties=species:S:1:pos:R:3:Z:I:1 energy=-233.0545727111277 field_type=dipole dipole="0.000000 0.000000 0.000000" charge=0
C	-2.527990	-1.322309	-0.070224	6
C	-1.571180	-0.503419	-0.526014	6
C	-0.605170	0.236151	0.355346	6
C	0.832280	-0.112329	0.093176	6
C	1.702560	0.782991	-0.752524	6
C	1.928130	0.701861	0.731786	6
H	-3.198080	-1.831239	-0.756214	1
H	-2.664970	-1.505329	0.991446	1
H	-1.471980	-0.348939	-1.598124	1
H	-0.820670	0.028811	1.410776	1
H	-0.769020	1.311581	0.212306	1
H	0.991260	-1.184529	0.039096	1
H	1.281670	1.699801	-1.149614	1
H	2.431970	0.314101	-1.402854	1
H	2.807680	0.174631	1.084576	1
H	1.653510	1.558171	1.337066	1
Es	0.098552	0.057210	0.213756	99
Es	-1.571084	-0.503334	-0.526037	99
Es	-1.857650	-1.172917	-0.308788	99
Es	-0.753410	0.089520	1.076401	99
Es	2.506132	0.354666	0.961066	99
Es	1.418115	1.399999	-1.017010	99
Es	-2.621251	-1.449979	0.650919	99
Es	1.318475	0.213846	0.598139	99
Es	1.928026	0.701810	0.731614	99
Es	1.744157	1.267688	1.132549	99
Es	-2.988069	-1.673665	-0.531491	99
Es	1.166657	0.279967	-0.495933	99
Es	-1.499528	-0.393358	-1.252883	99
Es	-1.086083	-0.139936	-0.093522	99
Es	-0.707007	0.963979	0.249555	99
Es	1.980601	0.885634	-0.034607	99
Es	-2.263478	-0.673854	-0.275439	99
Es	0.832373	-0.112187	0.093168	99
Es	-2.528070	-1.322378	-0.070187	99
Es	-0.605173	0.236123	0.355303	99
Es	1.702518	0.782924	-0.752355	99
Es	2.195686	0.470820	-1.183587	99
Es	0.952164	-0.823508	0.053906	99
39
Properties=species:S:1:pos:R:3:Z:I:1 energy=-233.0545727111277 field_type=dipole dipole="0.000000 0.000000 0.000000" charge=0
C	-2.527990	-1.322309	-0.070224	6
C	-1.571180	-0.503419	-0.526014	6
C	-0.605170	0.236151	0.355346	6
C	0.832280	-0.112329	0.093176	6
C	1.702560	0.782991	-0.752524	6
C	1.928130	0.701861	0.731786	6
H	-3.198080	-1.831239	-0.756214	1
H	-2.664970	-1.505329	0.991446	1
H	-1.471980	-0.348939	-1.598124	1
H	-0.820670	0.028811	1.410776	1
H	-0.769020	1.311581	0.212306	1
H	0.991260	-1.184529	0.039096	1
H	1.281670	1.699801	-1.149614	1
H	2.431970	0.314101	-1.402854	1
H	2.807680	0.174631	1.084576	1
H	1.653510	1.558171	1.337066	1
Es	0.095276	0.052569	0.214839	99
Es	1.980663	0.885691	-0.034711	99
Es	1.166843	0.280167	-0.495734	99
Es	1.318132	0.213636	0.598202	99
Es	-1.086008	-0.140027	-0.093477	99
Es	-2.621121	-1.449924	0.650722	99
Es	-1.499485	-0.393469	-1.252731	99
Es	1.418035	1.399845	-1.016339	99
Es	-1.571083	-0.503336	-0.526038	99
Es	-2.264834	-0.673719	-0.275316	99
Es	-1.856419	-1.172914	-0.308901	99
Es	1.928030	0.701807	0.731614	99
Es	-2.528068	-1.322380	-0.070187	99
Es	-0.605174	0.236124	0.355303	99
Es	-2.988250	-1.673739	-0.531370	99
Es	2.505741	0.354776	0.960839	99
Es	1.744418	1.267388	1.132323	99
Es	2.196044	0.471093	-1.184050	99
Es	0.952369	-0.820327	0.053941	99
Es	1.702527	0.782925	-0.752360	99
Es	-0.703969	0.965566	0.248629	99
Es	-0.753385	0.089502	1.076171	99
Es	0.832372	-0.112186	0.093168	99
