37
Properties=species:S:1:pos:R:3:Z:I:1 energy=-265.0263462242818 field_type=dipole dipole="0.000000 0.000000 0.000000" charge=0
N	-2.793689	-0.376509	-0.223938	7
N	-1.493409	-0.726099	-0.357828	7
C	-0.717889	-0.116119	0.476612	6
C	0.726041	-0.422339	0.419602	6
C	1.550171	0.045381	-0.755138	6
C	1.736521	0.686131	0.588412	6
H	-3.368059	-1.015339	-0.780448	1
H	-2.962049	0.544801	-0.636238	1
H	-1.068999	0.608271	1.233202	1
H	0.984321	-1.389699	0.839042	1
H	1.054391	0.614791	-1.533548	1
H	2.325221	-0.618719	-1.120238	1
H	2.645631	0.462791	1.135332	1
H	1.381801	1.702661	0.715172	1
Es	0.726132	-0.422198	0.419542	99
Es	-1.189100	-0.648886	0.211619	99
Es	-0.717833	-0.116077	0.476597	99
Es	2.077499	-0.405074	-0.997250	99
Es	1.182217	0.149727	0.694293	99
Es	1.736437	0.686015	0.588307	99
Es	0.009371	-0.250305	0.450695	99
Es	-1.394623	-0.989108	-0.605829	99
Es	1.039707	-0.313792	-0.272730	99
Es	-3.131686	-0.756914	-0.575760	99
Es	2.352850	0.532164	0.959258	99
Es	-2.146957	-0.532817	-0.300626	99
Es	-1.493617	-0.725676	-0.357423	99
Es	0.896064	-1.069593	0.704044	99
Es	-2.878813	-0.378965	0.117382	99
Es	1.485567	1.373210	0.674570	99
Es	-2.793462	-0.376517	-0.224529	99
Es	-0.956271	0.380653	0.984064	99
Es	1.212235	0.434884	-1.275779	99
Es	1.778859	0.481402	-0.152979	99
Es	-2.870471	0.173783	-0.481591	99
Es	-1.125534	-0.233375	-0.186526	99
Es	1.550129	0.045396	-0.754949	99
37
Properties=species:S:1:pos:R:3:Z:I:1 energy=-265.0263462242818 field_type=dipole dipole="0.000000 0.000000 0.000000" charge=0
N	-2.793689	-0.376509	-0.223938	7
N	-1.493409	-0.726099	-0.357828	7
C	-0.717889	-0.116119	0.476612	6
C	0.726041	-0.422339	0.419602	6
C	1.550171	0.045381	-0.755138	6
C	1.736521	0.686131	0.588412	6
H	-3.368059	-1.015339	-0.780448	1
H	-2.962049	0.544801	-0.636238	1
H	-1.068999	0.608271	1.233202	1
H	0.984321	-1.389699	0.839042	1
H	1.054391	0.614791	-1.533548	1
H	2.325221	-0.618719	-1.120238	1
H	2.645631	0.462791	1.135332	1
H	1.381801	1.702661	0.715172	1
Es	-3.135520	-0.759454	-0.576472	99
Es	-2.147429	-0.533811	-0.300578	99
Es	2.074653	-0.403915	-0.996786	99
Es	-0.717832	-0.116079	0.476596	99
Es	1.780663	0.484958	-0.149925	99
Es	-1.125621	-0.231687	-0.187212	99
Es	1.212133	0.432785	-1.276269	99
Es	0.009390	-0.251322	0.449183	99
Es	1.736431	0.686014	0.588314	99
Es	-0.956078	0.380380	0.983941	99
Es	-2.793465	-0.376508	-0.224541	99
Es	2.354321	0.532934	0.960230	99
Es	0.726135	-0.422195	0.419546	99
Es	1.485695	1.371233	0.673689	99
Es	-1.393876	-0.988816	-0.604081	99
Es	1.184158	0.152710	0.695760	99
Es	1.038547	-0.318156	-0.273805	99
Es	-1.189472	-0.648654	0.212559	99
Es	-2.867961	0.170166	-0.480915	99
Es	-1.493612	-0.725677	-0.357424	99
Es	1.550124	0.045388	-0.754953	99
Es	0.894826	-1.067729	0.702103	99
Es	-2.877508	-0.374627	0.115441	99
37
Properties=species:S:1:pos:R:3:Z:I:1 energy=-265.0263462242818 field_type=dipole dipole="0.000000 0.000000 0.000000" charge=0
N	-2.793689	-0.376509	-0.223938	7
N	-1.493409	-0.726099	-0.357828	7
C	-0.717889	-0.116119	0.476612	6
C	0.726041	-0.422339	0.419602	6
C	1.550171	0.045381	-0.755138	6
C	1.736521	0.686131	0.588412	6
H	-3.368059	-1.015339	-0.780448	1
H	-2.962049	0.544801	-0.636238	1
H	-1.068999	0.608271	1.233202	1
H	0.984321	-1.389699	0.839042	1
H	1.054391	0.614791	-1.533548	1
H	2.325221	-0.618719	-1.120238	1
H	2.645631	0.462791	1.135332	1
H	1.381801	1.702661	0.715172	1
Es	2.355279	0.533874	0.961178	99
Es	1.736447	0.686022	0.588296	99
Es	0.726131	-0.422198	0.419541	99
Es	-2.877143	-0.371846	0.114457	99
Es	1.038052	-0.321081	-0.274294	99
Es	1.185325	0.154077	0.696698	99
Es	2.072277	-0.402825	-0.996026	99
Es	-0.717831	-0.116078	0.476597	99
Es	-2.866226	0.166901	-0.480323	99
Es	-2.793466	-0.376504	-0.224538	99
Es	-1.189665	-0.648732	0.213337	99
Es	0.893988	-1.065781	0.700531	99
Es	-0.955974	0.380189	0.983941	99
Es	1.212104	0.431325	-1.276810	99
Es	1.782286	0.487148	-0.148262	99
Es	0.009162	-0.252053	0.448443	99
Es	-1.125997	-0.230752	-0.187269	99
Es	-2.147643	-0.534520	-0.300900	99
Es	-3.137653	-0.760332	-0.577338	99
Es	1.485800	1.369366	0.672801	99
Es	-1.393041	-0.987983	-0.603296	99
Es	1.550125	0.045393	-0.754945	99
Es	-1.493635	-0.725673	-0.357420	99
37
Properties=species:S:1:pos:R:3:Z:I:1 energy=-265.0263462242818 field_type=dipole dipole="0.000000 0.000000 0.000000" charge=0
N	-2.793689	-0.376509	-0.223938	7
N	-1.493409	-0.726099	-0.357828	7
C	-0.717889	-0.116119	0.476612	6
C	0.726041	-0.422339	0.419602	6
C	1.550171	0.045381	-0.755138	6
C	1.736521	0.686131	0.588412	6
H	-3.368059	-1.015339	-0.780448	1
H	-2.962049	0.544801	-0.636238	1
H	-1.068999	0.608271	1.233202	1
H	0.984321	-1.389699	0.839042	1
H	1.054391	0.614791	-1.533548	1
H	2.325221	-0.618719	-1.120238	1
H	2.645631	0.462791	1.135332	1
H	1.381801	1.702661	0.715172	1
Es	0.893420	-1.064193	0.699299	99
Es	-2.793486	-0.376482	-0.224524	99
Es	-2.864553	0.163550	-0.480573	99
Es	0.726135	-0.422194	0.419541	99
Es	-1.392157	-0.987600	-0.602840	99
Es	-1.126453	-0.230103	-0.186909	99
Es	2.355909	0.534837	0.961969	99
Es	-1.189961	-0.648551	0.213705	99
Es	1.212116	0.430343	-1.277208	99
Es	2.070293	-0.401919	-0.995324	99
Es	1.736431	0.686013	0.588321	99
Es	1.485698	1.367852	0.672119	99
Es	-2.147807	-0.535309	-0.301074	99
Es	1.783701	0.488368	-0.147387	99
Es	-0.955931	0.380142	0.983821	99
Es	1.037874	-0.322973	-0.274363	99
Es	-1.493617	-0.725666	-0.357415	99
Es	1.550123	0.045391	-0.754946	99
Es	-2.877253	-0.368954	0.114157	99
Es	-3.139142	-0.760748	-0.577788	99
Es	-0.717831	-0.116077	0.476597	99
Es	1.186233	0.154793	0.697378	99
Es	0.008961	-0.252583	0.447844	99
37
Properties=species:S:1:pos:R:3:Z:I:1 energy=-265.0263462242818 field_type=dipole dipole="0.000000 0.000000 0.000000" charge=0
N	-2.793689	-0.376509	-0.223938	7
N	-1.493409	-0.726099	-0.357828	7
C	-0.717889	-0.116119	0.476612	6
C	0.726041	-0.422339	0.419602	6
C	1.550171	0.045381	-0.755138	6
C	1.736521	0.686131	0.588412	6
H	-3.368059	-1.015339	-0.780448	1
H	-2.962049	0.544801	-0.636238	1
H	-1.068999	0.608271	1.233202	1
H	0.984321	-1.389699	0.839042	1
H	1.054391	0.614791	-1.533548	1
H	2.325221	-0.618719	-1.120238	1
H	2.645631	0.462791	1.135332	1
H	1.381801	1.702661	0.715172	1
Es	1.550124	0.045391	-0.754945	99
Es	-2.863537	0.161129	-0.480392	99
Es	1.784833	0.489368	-0.146685	99
Es	-1.493619	-0.725665	-0.357414	99
Es	2.068596	-0.400933	-0.994563	99
Es	-1.391633	-0.987234	-0.602116	99
Es	2.356390	0.535754	0.962527	99
Es	1.037961	-0.324484	-0.274564	99
Es	-1.190189	-0.648287	0.214084	99
Es	1.736439	0.686018	0.588315	99
Es	0.893026	-1.062697	0.698191	99
Es	-0.955821	0.380248	0.983788	99
Es	-2.877304	-0.367321	0.114069	99
Es	1.186804	0.154997	0.698021	99
Es	1.212099	0.429465	-1.277614	99
Es	1.485657	1.366496	0.671599	99
Es	0.008690	-0.253202	0.447391	99
Es	-2.793472	-0.376500	-0.224534	99
Es	-2.148091	-0.535717	-0.301510	99
Es	-0.717830	-0.116076	0.476602	99
Es	-1.126601	-0.229768	-0.186962	99
Es	0.726132	-0.422200	0.419547	99
Es	-3.139949	-0.760845	-0.578436	99
37
Properties=species:S:1:pos:R:3:Z:I:1 energy=-265.0263462242818 field_type=dipole dipole="0.000000 0.000000 0.000000" charge=0
N	-2.793689	-0.376509	-0.223938	7
N	-1.493409	-0.726099	-0.357828	7
C	-0.717889	-0.116119	0.476612	6
C	0.726041	-0.422339	0.419602	6
C	1.550171	0.045381	-0.755138	6
C	1.736521	0.686131	0.588412	6
H	-3.368059	-1.015339	-0.780448	1
H	-2.962049	0.544801	-0.636238	1
H	-1.068999	0.608271	1.233202	1
H	0.984321	-1.389699	0.839042	1
H	1.054391	0.614791	-1.533548	1
H	2.325221	-0.618719	-1.120238	1
H	2.645631	0.462791	1.135332	1
H	1.381801	1.702661	0.715172	1
Es	1.785583	0.489824	-0.145873	99
Es	-3.140663	-0.761046	-0.578637	99
Es	-0.717830	-0.116077	0.476597	99
Es	1.187255	0.155296	0.698430	99
Es	1.736442	0.686023	0.588311	99
Es	1.485718	1.365396	0.671056	99
Es	-2.793452	-0.376511	-0.224570	99
Es	-1.190384	-0.647813	0.214208	99
Es	1.212027	0.428902	-1.277997	99
Es	0.008535	-0.253781	0.446920	99
Es	1.038111	-0.325758	-0.274743	99
Es	0.892636	-1.061490	0.697343	99
Es	-0.955731	0.380268	0.983918	99
Es	-1.126831	-0.229343	-0.186984	99
Es	-2.148120	-0.536186	-0.301696	99
Es	0.726137	-0.422192	0.419543	99
Es	1.550125	0.045394	-0.754946	99
Es	2.356687	0.536508	0.963086	99
Es	-2.862918	0.159181	-0.480212	99
Es	-2.877241	-0.365927	0.113484	99
Es	2.067327	-0.400045	-0.993912	99
Es	-1.391076	-0.987001	-0.601492	99
Es	-1.493637	-0.725683	-0.357435	99
37
Properties=species:S:1:pos:R:3:Z:I:1 energy=-265.0263462242818 field_type=dipole dipole="0.000000 0.000000 0.000000" charge=0
N	-2.793689	-0.376509	-0.223938	7
N	-1.493409	-0.726099	-0.357828	7
C	-0.717889	-0.116119	0.476612	6
C	0.726041	-0.422339	0.419602	6
C	1.550171	0.045381	-0.755138	6
C	1.736521	0.686131	0.588412	6
H	-3.368059	-1.015339	-0.780448	1
H	-2.962049	0.544801	-0.636238	1
H	-1.068999	0.608271	1.233202	1
H	0.984321	-1.389699	0.839042	1
H	1.054391	0.614791	-1.533548	1
H	2.325221	-0.618719	-1.120238	1
H	2.645631	0.462791	1.135332	1
H	1.381801	1.702661	0.715172	1
Es	0.008251	-0.254318	0.446741	99
Es	2.356956	0.537314	0.963576	99
Es	1.786388	0.490250	-0.145606	99
Es	2.066077	-0.399210	-0.993256	99
Es	-1.190610	-0.647542	0.214418	99
Es	-2.877558	-0.364624	0.112906	99
Es	-2.147950	-0.536467	-0.301095	99
Es	0.726140	-0.422192	0.419540	99
Es	1.736439	0.686019	0.588315	99
Es	1.038125	-0.326781	-0.274708	99
Es	-2.862081	0.157410	-0.480114	99
Es	-2.793458	-0.376512	-0.224553	99
Es	-0.955639	0.380430	0.983873	99
Es	-1.127007	-0.229160	-0.186871	99
Es	-0.717829	-0.116074	0.476595	99
Es	-3.141157	-0.760922	-0.579170	99
Es	1.212031	0.428267	-1.278299	99
Es	1.550127	0.045393	-0.754948	99
Es	1.485564	1.364431	0.670653	99
Es	0.892493	-1.060367	0.696601	99
Es	1.187808	0.155421	0.698623	99
Es	-1.390762	-0.987117	-0.601354	99
Es	-1.493645	-0.725710	-0.357468	99
37
Properties=species:S:1:pos:R:3:Z:I:1 energy=-265.0263462242818 field_type=dipole dipole="0.000000 0.000000 0.000000" charge=0
N	-2.793689	-0.376509	-0.223938	7
N	-1.493409	-0.726099	-0.357828	7
C	-0.717889	-0.116119	0.476612	6
C	0.726041	-0.422339	0.419602	6
C	1.550171	0.045381	-0.755138	6
C	1.736521	0.686131	0.588412	6
H	-3.368059	-1.015339	-0.780448	1
H	-2.962049	0.544801	-0.636238	1
H	-1.068999	0.608271	1.233202	1
H	0.984321	-1.389699	0.839042	1
H	1.054391	0.614791	-1.533548	1
H	2.325221	-0.618719	-1.120238	1
H	2.645631	0.462791	1.135332	1
H	1.381801	1.702661	0.715172	1
Es	-1.493632	-0.725662	-0.357416	99
Es	0.008237	-0.254427	0.446251	99
Es	-1.390179	-0.986720	-0.601085	99
Es	1.038199	-0.327506	-0.274758	99
Es	1.188157	0.155388	0.698885	99
Es	2.357176	0.537768	0.963815	99
Es	-1.127287	-0.228975	-0.186366	99
Es	-2.148108	-0.536958	-0.301367	99
Es	1.736440	0.686018	0.588319	99
Es	1.786992	0.490613	-0.145254	99
Es	1.485540	1.363799	0.670430	99
Es	1.212158	0.427761	-1.278608	99
Es	-3.141555	-0.760942	-0.579395	99
Es	-1.190812	-0.647538	0.214530	99
Es	-0.955574	0.380568	0.983834	99
Es	0.892100	-1.059502	0.696126	99
Es	0.726138	-0.422190	0.419549	99
Es	1.550127	0.045396	-0.754943	99
Es	2.065016	-0.398702	-0.992657	99
Es	-2.793481	-0.376490	-0.224535	99
Es	-2.877611	-0.363571	0.112562	99
Es	-0.717830	-0.116074	0.476595	99
Es	-2.861508	0.155885	-0.480110	99
37
Properties=species:S:1:pos:R:3:Z:I:1 energy=-265.0263462242818 field_type=dipole dipole="0.000000 0.000000 0.000000" charge=0
N	-2.793689	-0.376509	-0.223938	7
N	-1.493409	-0.726099	-0.357828	7
C	-0.717889	-0.116119	0.476612	6
C	0.726041	-0.422339	0.419602	6
C	1.550171	0.045381	-0.755138	6
C	1.736521	0.686131	0.588412	6
H	-3.368059	-1.015339	-0.780448	1
H	-2.962049	0.544801	-0.636238	1
H	-1.068999	0.608271	1.233202	1
H	0.984321	-1.389699	0.839042	1
H	1.054391	0.614791	-1.533548	1
H	2.325221	-0.618719	-1.120238	1
H	2.645631	0.462791	1.135332	1
H	1.381801	1.702661	0.715172	1
Es	-0.717830	-0.116076	0.476596	99
Es	-2.861101	0.154441	-0.480107	99
Es	-1.127321	-0.228929	-0.186588	99
Es	0.007920	-0.254834	0.445988	99
Es	-2.793452	-0.376533	-0.224548	99
Es	-1.191013	-0.646990	0.214696	99
Es	0.892003	-1.058776	0.695489	99
Es	2.064112	-0.398049	-0.992178	99
Es	1.188596	0.155292	0.698963	99
Es	-2.877594	-0.362551	0.112663	99
Es	1.550126	0.045391	-0.754939	99
Es	1.736441	0.686020	0.588315	99
Es	1.038348	-0.328071	-0.274577	99
Es	-0.955506	0.380694	0.983882	99
Es	1.212092	0.427333	-1.278818	99
Es	-2.148140	-0.536975	-0.301787	99
Es	1.485402	1.363025	0.670109	99
Es	-1.493639	-0.725688	-0.357442	99
Es	0.726143	-0.422186	0.419544	99
Es	2.357300	0.538513	0.964205	99
Es	-3.141883	-0.760979	-0.579506	99
Es	-1.389904	-0.986951	-0.600626	99
Es	1.787601	0.490818	-0.144936	99
37
Properties=species:S:1:pos:R:3:Z:I:1 energy=-265.0263462242818 field_type=dipole dipole="0.000000 0.000000 0.000000" charge=0
N	-2.793689	-0.376509	-0.223938	7
N	-1.493409	-0.726099	-0.357828	7
C	-0.717889	-0.116119	0.476612	6
C	0.726041	-0.422339	0.419602	6
C	1.550171	0.045381	-0.755138	6
C	1.736521	0.686131	0.588412	6
H	-3.368059	-1.015339	-0.780448	1
H	-2.962049	0.544801	-0.636238	1
H	-1.068999	0.608271	1.233202	1
H	0.984321	-1.389699	0.839042	1
H	1.054391	0.614791	-1.533548	1
H	2.325221	-0.618719	-1.120238	1
H	2.645631	0.462791	1.135332	1
H	1.381801	1.702661	0.715172	1
Es	-1.493617	-0.725659	-0.357408	99
Es	2.063394	-0.397581	-0.991746	99
Es	1.188718	0.155288	0.699099	99
Es	-1.191237	-0.646687	0.214744	99
Es	-0.955428	0.380831	0.983862	99
Es	1.788012	0.491026	-0.144601	99
Es	-1.389803	-0.987197	-0.600514	99
Es	0.891931	-1.057980	0.694991	99
Es	-3.142151	-0.760917	-0.579709	99
Es	-2.860901	0.153749	-0.479799	99
Es	-2.148033	-0.536940	-0.301797	99
Es	0.007735	-0.255331	0.445681	99
Es	1.212099	0.426938	-1.279012	99
Es	2.357404	0.539082	0.964583	99
Es	0.726143	-0.422186	0.419544	99
Es	-1.127375	-0.228832	-0.186543	99
Es	-2.793466	-0.376516	-0.224528	99
Es	1.550128	0.045394	-0.754947	99
Es	-2.877434	-0.362325	0.112340	99
Es	1.736440	0.686019	0.588319	99
Es	1.038582	-0.328487	-0.274548	99
Es	1.485394	1.362322	0.669792	99
Es	-0.717831	-0.116073	0.476597	99
37
Properties=species:S:1:pos:R:3:Z:I:1 energy=-265.0263462242818 field_type=dipole dipole="0.000000 0.000000 0.000000" charge=0
N	-2.793689	-0.376509	-0.223938	7
N	-1.493409	-0.726099	-0.357828	7
C	-0.717889	-0.116119	0.476612	6
C	0.726041	-0.422339	0.419602	6
C	1.550171	0.045381	-0.755138	6
C	1.736521	0.686131	0.588412	6
H	-3.368059	-1.015339	-0.780448	1
H	-2.962049	0.544801	-0.636238	1
H	-1.068999	0.608271	1.233202	1
H	0.984321	-1.389699	0.839042	1
H	1.054391	0.614791	-1.533548	1
H	2.325221	-0.618719	-1.120238	1
H	2.645631	0.462791	1.135332	1
H	1.381801	1.702661	0.715172	1
Es	-3.142397	-0.761019	-0.579637	99
Es	1.038572	-0.329130	-0.274523	99
Es	-0.717830	-0.116077	0.476598	99
Es	1.212193	0.426545	-1.279284	99
Es	1.485291	1.361722	0.669631	99
Es	-2.793461	-0.376508	-0.224562	99
Es	-2.877808	-0.361097	0.111733	99
Es	-1.191314	-0.646374	0.214750	99
Es	1.188971	0.155098	0.698920	99
Es	2.357468	0.539654	0.964830	99
Es	0.726143	-0.422187	0.419543	99
Es	-2.860397	0.152556	-0.480165	99
Es	-1.127486	-0.228814	-0.186510	99
Es	-2.147825	-0.537224	-0.301014	99
Es	-0.955386	0.380937	0.983897	99
Es	1.736438	0.686021	0.588319	99
Es	1.788446	0.491415	-0.144349	99
Es	-1.389583	-0.987364	-0.600434	99
Es	0.007653	-0.255521	0.445517	99
Es	2.062770	-0.397115	-0.991253	99
Es	0.891750	-1.057304	0.694749	99
Es	1.550124	0.045396	-0.754934	99
Es	-1.493630	-0.725670	-0.357421	99
37
Properties=species:S:1:pos:R:3:Z:I:1 energy=-265.0263462242818 field_type=dipole dipole="0.000000 0.000000 0.000000" charge=0
N	-2.793689	-0.376509	-0.223938	7
N	-1.493409	-0.726099	-0.357828	7
C	-0.717889	-0.116119	0.476612	6
C	0.726041	-0.422339	0.419602	6
C	1.550171	0.045381	-0.755138	6
C	1.736521	0.686131	0.588412	6
H	-3.368059	-1.015339	-0.780448	1
H	-2.962049	0.544801	-0.636238	1
H	-1.068999	0.608271	1.233202	1
H	0.984321	-1.389699	0.839042	1
H	1.054391	0.614791	-1.533548	1
H	2.325221	-0.618719	-1.120238	1
H	2.645631	0.462791	1.135332	1
H	1.381801	1.702661	0.715172	1
Es	-2.860143	0.152026	-0.479944	99
Es	-2.877539	-0.360993	0.111841	99
Es	0.007320	-0.255841	0.445172	99
Es	-1.191475	-0.646304	0.214828	99
Es	-0.717830	-0.116076	0.476596	99
Es	-2.148142	-0.537371	-0.301505	99
Es	-1.493631	-0.725664	-0.357418	99
Es	1.038850	-0.329506	-0.274261	99
Es	1.189199	0.155139	0.698855	99
Es	-1.127562	-0.228734	-0.186319	99
Es	0.891700	-1.056607	0.694398	99
Es	-1.389320	-0.987290	-0.600208	99
Es	-3.142562	-0.760902	-0.579886	99
Es	1.485303	1.361262	0.669406	99
Es	1.788867	0.491523	-0.144152	99
Es	2.062205	-0.396800	-0.991029	99
Es	0.726147	-0.422183	0.419542	99
Es	1.736438	0.686019	0.588318	99
Es	1.550125	0.045395	-0.754935	99
Es	2.357488	0.540042	0.965108	99
Es	1.212016	0.426215	-1.279337	99
Es	-0.955298	0.381090	0.983910	99
Es	-2.793456	-0.376502	-0.224581	99
37
Properties=species:S:1:pos:R:3:Z:I:1 energy=-265.0263462242818 field_type=dipole dipole="0.000000 0.000000 0.000000" charge=0
N	-2.793689	-0.376509	-0.223938	7
N	-1.493409	-0.726099	-0.357828	7
C	-0.717889	-0.116119	0.476612	6
C	0.726041	-0.422339	0.419602	6
C	1.550171	0.045381	-0.755138	6
C	1.736521	0.686131	0.588412	6
H	-3.368059	-1.015339	-0.780448	1
H	-2.962049	0.544801	-0.636238	1
H	-1.068999	0.608271	1.233202	1
H	0.984321	-1.389699	0.839042	1
H	1.054391	0.614791	-1.533548	1
H	2.325221	-0.618719	-1.120238	1
H	2.645631	0.462791	1.135332	1
H	1.381801	1.702661	0.715172	1
Es	0.726143	-0.422187	0.419544	99
Es	2.061666	-0.396309	-0.990595	99
Es	0.891627	-1.056292	0.694087	99
Es	-1.493600	-0.725659	-0.357404	99
Es	-1.389265	-0.987493	-0.600258	99
Es	-0.717829	-0.116075	0.476596	99
Es	1.212104	0.425924	-1.279573	99
Es	1.189414	0.155223	0.699130	99
Es	1.788944	0.491344	-0.143916	99
Es	1.736440	0.686020	0.588319	99
Es	-1.127713	-0.228719	-0.186256	99
Es	1.485288	1.360855	0.669111	99
Es	-2.793455	-0.376516	-0.224579	99
Es	-3.142768	-0.760995	-0.579836	99
Es	1.550126	0.045396	-0.754936	99
Es	-2.859707	0.150679	-0.480258	99
Es	-2.877956	-0.359678	0.111378	99
Es	-0.955233	0.381195	0.983930	99
Es	2.357576	0.540550	0.965258	99
Es	-1.191595	-0.646034	0.214915	99
Es	0.007258	-0.256039	0.444849	99
Es	-2.147743	-0.537463	-0.300850	99
Es	1.038979	-0.329788	-0.274255	99
37
Properties=species:S:1:pos:R:3:Z:I:1 energy=-265.0263462242818 field_type=dipole dipole="0.000000 0.000000 0.000000" charge=0
N	-2.793689	-0.376509	-0.223938	7
N	-1.493409	-0.726099	-0.357828	7
C	-0.717889	-0.116119	0.476612	6
C	0.726041	-0.422339	0.419602	6
C	1.550171	0.045381	-0.755138	6
C	1.736521	0.686131	0.588412	6
H	-3.368059	-1.015339	-0.780448	1
H	-2.962049	0.544801	-0.636238	1
H	-1.068999	0.608271	1.233202	1
H	0.984321	-1.389699	0.839042	1
H	1.054391	0.614791	-1.533548	1
H	2.325221	-0.618719	-1.120238	1
H	2.645631	0.462791	1.135332	1
H	1.381801	1.702661	0.715172	1
Es	1.736438	0.686019	0.588319	99
Es	-1.493636	-0.725664	-0.357419	99
Es	1.189585	0.155117	0.699138	99
Es	0.726145	-0.422186	0.419543	99
Es	-2.877787	-0.360294	0.110720	99
Es	-2.793447	-0.376514	-0.224586	99
Es	-1.191747	-0.645670	0.214825	99
Es	1.485235	1.360149	0.669003	99
Es	-1.388911	-0.987606	-0.599981	99
Es	-1.127821	-0.228641	-0.186157	99
Es	1.789241	0.491589	-0.143927	99
Es	-0.955103	0.381308	0.984044	99
Es	-0.717829	-0.116075	0.476596	99
Es	-2.859826	0.150957	-0.479661	99
Es	2.357614	0.541123	0.965521	99
Es	-3.142781	-0.760825	-0.580197	99
Es	0.007064	-0.256337	0.444672	99
Es	1.550126	0.045395	-0.754935	99
Es	2.061217	-0.396019	-0.990340	99
Es	1.212155	0.425694	-1.279648	99
Es	0.891541	-1.055709	0.693839	99
Es	1.039008	-0.330154	-0.274255	99
Es	-2.147778	-0.537719	-0.300715	99
37
Properties=species:S:1:pos:R:3:Z:I:1 energy=-265.0263462242818 field_type=dipole dipole="0.000000 0.000000 0.000000" charge=0
N	-2.793689	-0.376509	-0.223938	7
N	-1.493409	-0.726099	-0.357828	7
C	-0.717889	-0.116119	0.476612	6
C	0.726041	-0.422339	0.419602	6
C	1.550171	0.045381	-0.755138	6
C	1.736521	0.686131	0.588412	6
H	-3.368059	-1.015339	-0.780448	1
H	-2.962049	0.544801	-0.636238	1
H	-1.068999	0.608271	1.233202	1
H	0.984321	-1.389699	0.839042	1
H	1.054391	0.614791	-1.533548	1
H	2.325221	-0.618719	-1.120238	1
H	2.645631	0.462791	1.135332	1
H	1.381801	1.702661	0.715172	1
Es	1.189819	0.154989	0.699173	99
Es	-2.877985	-0.359266	0.110867	99
Es	-0.717829	-0.116075	0.476596	99
Es	1.789568	0.491508	-0.143709	99
Es	0.891399	-1.055418	0.693564	99
Es	-1.388870	-0.987750	-0.600002	99
Es	1.212086	0.425442	-1.279833	99
Es	-1.191878	-0.645609	0.214890	99
Es	0.726145	-0.422186	0.419543	99
Es	1.039215	-0.330396	-0.273958	99
Es	0.006992	-0.256415	0.444244	99
Es	1.736439	0.686019	0.588317	99
Es	-0.955050	0.381451	0.984024	99
Es	-2.859501	0.149644	-0.479923	99
Es	2.060698	-0.395642	-0.990005	99
Es	-1.127879	-0.228617	-0.186018	99
Es	-2.147568	-0.537513	-0.300808	99
Es	-3.142934	-0.760865	-0.580157	99
Es	2.357643	0.541377	0.965625	99
Es	1.550125	0.045397	-0.754937	99
Es	-1.493632	-0.725665	-0.357417	99
Es	-2.793458	-0.376522	-0.224511	99
Es	1.485157	1.360048	0.668834	99
37
Properties=species:S:1:pos:R:3:Z:I:1 energy=-265.0263462242818 field_type=dipole dipole="0.000000 0.000000 0.000000" charge=0
N	-2.793689	-0.376509	-0.223938	7
N	-1.493409	-0.726099	-0.357828	7
C	-0.717889	-0.116119	0.476612	6
C	0.726041	-0.422339	0.419602	6
C	1.550171	0.045381	-0.755138	6
C	1.736521	0.686131	0.588412	6
H	-3.368059	-1.015339	-0.780448	1
H	-2.962049	0.544801	-0.636238	1
H	-1.068999	0.608271	1.233202	1
H	0.984321	-1.389699	0.839042	1
H	1.054391	0.614791	-1.533548	1
H	2.325221	-0.618719	-1.120238	1
H	2.645631	0.462791	1.135332	1
H	1.381801	1.702661	0.715172	1
Es	0.006849	-0.256665	0.444065	99
Es	-2.878284	-0.358584	0.110398	99
Es	1.485162	1.359574	0.668753	99
Es	-0.954947	0.381558	0.984032	99
Es	-3.143044	-0.760779	-0.580297	99
Es	-1.127968	-0.228544	-0.185987	99
Es	2.357674	0.541766	0.965750	99
Es	1.039402	-0.330533	-0.273980	99
Es	2.060479	-0.395432	-0.989813	99
Es	-1.191966	-0.645537	0.214972	99
Es	1.189726	0.154860	0.699028	99
Es	1.212078	0.425160	-1.279900	99
Es	-1.388868	-0.987874	-0.600113	99
Es	-2.793454	-0.376520	-0.224538	99
Es	-0.717828	-0.116073	0.476595	99
Es	1.550126	0.045396	-0.754932	99
Es	-2.859118	0.148964	-0.480049	99
Es	1.789666	0.491874	-0.143434	99
Es	0.891397	-1.055132	0.693465	99
Es	1.736441	0.686021	0.588315	99
Es	0.726148	-0.422183	0.419543	99
Es	-2.147356	-0.537722	-0.300069	99
Es	-1.493613	-0.725655	-0.357404	99
37
Properties=species:S:1:pos:R:3:Z:I:1 energy=-265.0263462242818 field_type=dipole dipole="0.000000 0.000000 0.000000" charge=0
N	-2.793689	-0.376509	-0.223938	7
N	-1.493409	-0.726099	-0.357828	7
C	-0.717889	-0.116119	0.476612	6
C	0.726041	-0.422339	0.419602	6
C	1.550171	0.045381	-0.755138	6
C	1.736521	0.686131	0.588412	6
H	-3.368059	-1.015339	-0.780448	1
H	-2.962049	0.544801	-0.636238	1
H	-1.068999	0.608271	1.233202	1
H	0.984321	-1.389699	0.839042	1
H	1.054391	0.614791	-1.533548	1
H	2.325221	-0.618719	-1.120238	1
H	2.645631	0.462791	1.135332	1
H	1.381801	1.702661	0.715172	1
Es	-2.147380	-0.537775	-0.300245	99
Es	1.212009	0.424968	-1.280028	99
Es	1.550127	0.045397	-0.754933	99
Es	-0.954857	0.381693	0.984079	99
Es	-0.717829	-0.116074	0.476595	99
Es	-1.192072	-0.645256	0.214935	99
Es	-3.143090	-0.760967	-0.580162	99
Es	-1.128006	-0.228633	-0.185900	99
Es	-1.493602	-0.725653	-0.357400	99
Es	2.060171	-0.395214	-0.989598	99
Es	1.736440	0.686020	0.588319	99
Es	-1.388567	-0.987856	-0.599836	99
Es	-2.793465	-0.376514	-0.224511	99
Es	1.789755	0.491817	-0.143283	99
Es	1.039497	-0.330800	-0.273981	99
Es	2.357698	0.542047	0.965868	99
Es	0.726147	-0.422184	0.419542	99
Es	1.485203	1.359314	0.668568	99
Es	-2.859146	0.148533	-0.480050	99
Es	0.891316	-1.054710	0.693306	99
Es	-2.878255	-0.358276	0.110082	99
Es	0.006760	-0.256881	0.443945	99
Es	1.189848	0.154941	0.699088	99
37
Properties=species:S:1:pos:R:3:Z:I:1 energy=-265.0263462242818 field_type=dipole dipole="0.000000 0.000000 0.000000" charge=0
N	-2.793689	-0.376509	-0.223938	7
N	-1.493409	-0.726099	-0.357828	7
C	-0.717889	-0.116119	0.476612	6
C	0.726041	-0.422339	0.419602	6
C	1.550171	0.045381	-0.755138	6
C	1.736521	0.686131	0.588412	6
H	-3.368059	-1.015339	-0.780448	1
H	-2.962049	0.544801	-0.636238	1
H	-1.068999	0.608271	1.233202	1
H	0.984321	-1.389699	0.839042	1
H	1.054391	0.614791	-1.533548	1
H	2.325221	-0.618719	-1.120238	1
H	2.645631	0.462791	1.135332	1
H	1.381801	1.702661	0.715172	1
Es	-2.859052	0.148286	-0.479819	99
Es	1.736439	0.686020	0.588319	99
Es	2.357682	0.542501	0.966064	99
Es	1.211978	0.424816	-1.280041	99
Es	0.726147	-0.422184	0.419543	99
Es	-1.388664	-0.988190	-0.600011	99
Es	1.550126	0.045396	-0.754933	99
Es	1.189988	0.154896	0.699111	99
Es	0.006507	-0.257185	0.443750	99
Es	-0.954769	0.381750	0.984095	99
Es	1.485186	1.358862	0.668413	99
Es	-3.143174	-0.760845	-0.580347	99
Es	-1.128050	-0.228529	-0.185935	99
Es	-0.717829	-0.116074	0.476595	99
Es	-2.793457	-0.376518	-0.224566	99
Es	-1.493614	-0.725654	-0.357402	99
Es	1.789930	0.491826	-0.143234	99
Es	-2.878146	-0.358276	0.109902	99
Es	0.891385	-1.054396	0.692997	99
Es	2.059892	-0.394984	-0.989463	99
Es	-2.147235	-0.537588	-0.299918	99
Es	-1.192187	-0.645125	0.215021	99
Es	1.039620	-0.330868	-0.273744	99
37
Properties=species:S:1:pos:R:3:Z:I:1 energy=-265.0263462242818 field_type=dipole dipole="0.000000 0.000000 0.000000" charge=0
N	-2.793689	-0.376509	-0.223938	7
N	-1.493409	-0.726099	-0.357828	7
C	-0.717889	-0.116119	0.476612	6
C	0.726041	-0.422339	0.419602	6
C	1.550171	0.045381	-0.755138	6
C	1.736521	0.686131	0.588412	6
H	-3.368059	-1.015339	-0.780448	1
H	-2.962049	0.544801	-0.636238	1
H	-1.068999	0.608271	1.233202	1
H	0.984321	-1.389699	0.839042	1
H	1.054391	0.614791	-1.533548	1
H	2.325221	-0.618719	-1.120238	1
H	2.645631	0.462791	1.135332	1
H	1.381801	1.702661	0.715172	1
Es	-1.493619	-0.725649	-0.357399	99
Es	-0.717829	-0.116074	0.476595	99
Es	1.736437	0.686021	0.588320	99
Es	2.059649	-0.394784	-0.989289	99
Es	-2.878266	-0.357909	0.109728	99
Es	2.357640	0.542807	0.966201	99
Es	-2.858846	0.147967	-0.479965	99
Es	1.190076	0.154738	0.698997	99
Es	1.790150	0.491904	-0.143034	99
Es	-1.192254	-0.645131	0.215088	99
Es	1.039739	-0.331154	-0.273509	99
Es	-2.147064	-0.537615	-0.299563	99
Es	0.726148	-0.422183	0.419543	99
Es	-1.388660	-0.988354	-0.600184	99
Es	1.485191	1.358588	0.668286	99
Es	0.006360	-0.257296	0.443463	99
Es	-3.143228	-0.760842	-0.580360	99
Es	-0.954750	0.381791	0.984081	99
Es	-1.128148	-0.228514	-0.185817	99
Es	0.891318	-1.053958	0.692850	99
Es	1.211988	0.424706	-1.280121	99
Es	-2.793454	-0.376514	-0.224579	99
Es	1.550125	0.045396	-0.754933	99
37
Properties=species:S:1:pos:R:3:Z:I:1 energy=-265.0263462242818 field_type=dipole dipole="0.000000 0.000000 0.000000" charge=0
N	-2.793689	-0.376509	-0.223938	7
N	-1.493409	-0.726099	-0.357828	7
C	-0.717889	-0.116119	0.476612	6
C	0.726041	-0.422339	0.419602	6
C	1.550171	0.045381	-0.755138	6
C	1.736521	0.686131	0.588412	6
H	-3.368059	-1.015339	-0.780448	1
H	-2.962049	0.544801	-0.636238	1
H	-1.068999	0.608271	1.233202	1
H	0.984321	-1.389699	0.839042	1
H	1.054391	0.614791	-1.533548	1
H	2.325221	-0.618719	-1.120238	1
H	2.645631	0.462791	1.135332	1
H	1.381801	1.702661	0.715172	1
Es	2.357647	0.542900	0.966321	99
Es	-0.954697	0.381936	0.984049	99
Es	1.190219	0.154815	0.699231	99
Es	2.059357	-0.394557	-0.989055	99
Es	-0.717829	-0.116074	0.476595	99
Es	-2.793456	-0.376515	-0.224563	99
Es	-3.143517	-0.760884	-0.580218	99
Es	-1.493589	-0.725663	-0.357407	99
Es	0.006310	-0.257366	0.443206	99
Es	1.485142	1.358505	0.668222	99
Es	1.736430	0.686013	0.588332	99
Es	0.726148	-0.422183	0.419543	99
Es	1.212088	0.424503	-1.280229	99
Es	1.790145	0.491765	-0.143076	99
Es	0.891275	-1.053872	0.692660	99
Es	1.039861	-0.331113	-0.273517	99
Es	1.550124	0.045396	-0.754931	99
Es	-2.877970	-0.357708	0.109444	99
Es	-1.192294	-0.645142	0.215094	99
Es	-2.858858	0.147400	-0.479713	99
Es	-1.388555	-0.988206	-0.600209	99
Es	-1.128247	-0.228581	-0.185537	99
Es	-2.147033	-0.537432	-0.299841	99
37
Properties=species:S:1:pos:R:3:Z:I:1 energy=-265.0263462242818 field_type=dipole dipole="0.000000 0.000000 0.000000" charge=0
N	-2.793689	-0.376509	-0.223938	7
N	-1.493409	-0.726099	-0.357828	7
C	-0.717889	-0.116119	0.476612	6
C	0.726041	-0.422339	0.419602	6
C	1.550171	0.045381	-0.755138	6
C	1.736521	0.686131	0.588412	6
H	-3.368059	-1.015339	-0.780448	1
H	-2.962049	0.544801	-0.636238	1
H	-1.068999	0.608271	1.233202	1
H	0.984321	-1.389699	0.839042	1
H	1.054391	0.614791	-1.533548	1
H	2.325221	-0.618719	-1.120238	1
H	2.645631	0.462791	1.135332	1
H	1.381801	1.702661	0.715172	1
Es	-2.793449	-0.376518	-0.224581	99
Es	-2.147127	-0.537953	-0.299550	99
Es	0.726147	-0.422184	0.419545	99
Es	0.891206	-1.053541	0.692604	99
Es	1.211928	0.424314	-1.280231	99
Es	1.550126	0.045396	-0.754935	99
Es	-3.143394	-0.760779	-0.580436	99
Es	1.736442	0.686020	0.588321	99
Es	-0.717829	-0.116074	0.476595	99
Es	-1.128151	-0.228448	-0.185824	99
Es	1.190193	0.154828	0.699102	99
Es	-0.954579	0.382013	0.984184	99
Es	-1.493607	-0.725652	-0.357400	99
Es	0.006220	-0.257618	0.443187	99
Es	1.039950	-0.331405	-0.273514	99
Es	-1.192357	-0.644722	0.214920	99
Es	2.059160	-0.394401	-0.988967	99
Es	1.790338	0.491918	-0.142952	99
Es	2.357650	0.543122	0.966419	99
Es	-2.878336	-0.357354	0.109331	99
Es	1.485185	1.358248	0.668114	99
Es	-2.858649	0.147075	-0.479873	99
Es	-1.388364	-0.988349	-0.599659	99
