37
Properties=species:S:1:pos:R:3:Z:I:1 energy=-268.86687785282186 field_type=dipole dipole="0.000000 0.000000 0.000000" charge=0
C	-0.534436	1.533380	-0.699382	6
C	-1.258796	0.226090	-0.798212	6
C	0.247864	0.240490	-0.688692	6
C	0.994174	-0.237370	0.547708	6
C	0.606884	-1.455530	1.350348	6
O	1.658373	-1.504160	0.384298	8
H	-0.475406	2.151990	-1.587452	1
H	-0.620766	2.091780	0.225508	1
H	-1.690826	-0.048380	-1.753742	1
H	-1.839846	-0.094860	0.058238	1
H	0.781724	0.024790	-1.615762	1
H	1.563014	0.527050	1.070638	1
H	-0.316476	-1.966520	1.110318	1
H	0.884524	-1.488750	2.396188	1
Es	1.545305	-1.631611	0.127994	99
Es	-0.501090	0.035207	-0.740906	99
Es	-0.534421	1.533191	-0.699382	99
Es	1.658199	-1.504010	0.384457	99
Es	0.994272	-0.237653	0.547644	99
Es	0.607109	-1.455509	1.350135	99
Es	1.387025	0.284783	0.899814	99
Es	0.615603	-0.713322	1.056478	99
Es	-1.060470	0.973683	-0.759598	99
Es	0.247716	0.240571	-0.688631	99
Es	1.475151	-0.980998	0.378048	99
Es	0.598439	0.003640	-0.057557	99
Es	-1.258639	0.226181	-0.798195	99
Es	0.019803	0.986337	-0.667585	99
Es	-0.492450	1.949609	-1.302828	99
Es	-0.017141	-1.811056	1.186737	99
Es	1.273798	-1.594084	0.777633	99
Es	-0.590486	1.906010	-0.067580	99
Es	-1.646863	0.008540	-0.213059	99
Es	0.800954	-1.485412	2.062708	99
Es	-1.549009	0.042361	-1.447815	99
Es	0.608511	0.095896	-1.310263	99
Es	1.932331	-1.502108	0.527902	99
37
Properties=species:S:1:pos:R:3:Z:I:1 energy=-268.86687785282186 field_type=dipole dipole="0.000000 0.000000 0.000000" charge=0
C	-0.534436	1.533380	-0.699382	6
C	-1.258796	0.226090	-0.798212	6
C	0.247864	0.240490	-0.688692	6
C	0.994174	-0.237370	0.547708	6
C	0.606884	-1.455530	1.350348	6
O	1.658373	-1.504160	0.384298	8
H	-0.475406	2.151990	-1.587452	1
H	-0.620766	2.091780	0.225508	1
H	-1.690826	-0.048380	-1.753742	1
H	-1.839846	-0.094860	0.058238	1
H	0.781724	0.024790	-1.615762	1
H	1.563014	0.527050	1.070638	1
H	-0.316476	-1.966520	1.110318	1
H	0.884524	-1.488750	2.396188	1
Es	-1.647905	0.007028	-0.213479	99
Es	0.994279	-0.237655	0.547641	99
Es	-1.061265	0.976801	-0.760631	99
Es	1.930073	-1.505014	0.526692	99
Es	0.247715	0.240583	-0.688630	99
Es	0.800909	-1.486378	2.060513	99
Es	0.614064	-0.710530	1.057752	99
Es	1.549197	-1.627472	0.133560	99
Es	0.019948	0.988539	-0.665982	99
Es	1.271581	-1.600664	0.775988	99
Es	0.607111	-1.455514	1.350138	99
Es	-0.534430	1.533201	-0.699382	99
Es	0.598027	0.002795	-0.058614	99
Es	-0.590959	1.905024	-0.068642	99
Es	-0.016582	-1.811996	1.187539	99
Es	-1.547000	0.042732	-1.444725	99
Es	1.475903	-0.976493	0.375667	99
Es	1.658181	-1.504014	0.384432	99
Es	-0.492287	1.950563	-1.302938	99
Es	-0.500093	0.032245	-0.742098	99
Es	-1.258641	0.226184	-0.798194	99
Es	0.608653	0.095411	-1.309443	99
Es	1.387166	0.284870	0.898989	99
37
Properties=species:S:1:pos:R:3:Z:I:1 energy=-268.86687785282186 field_type=dipole dipole="0.000000 0.000000 0.000000" charge=0
C	-0.534436	1.533380	-0.699382	6
C	-1.258796	0.226090	-0.798212	6
C	0.247864	0.240490	-0.688692	6
C	0.994174	-0.237370	0.547708	6
C	0.606884	-1.455530	1.350348	6
O	1.658373	-1.504160	0.384298	8
H	-0.475406	2.151990	-1.587452	1
H	-0.620766	2.091780	0.225508	1
H	-1.690826	-0.048380	-1.753742	1
H	-1.839846	-0.094860	0.058238	1
H	0.781724	0.024790	-1.615762	1
H	1.563014	0.527050	1.070638	1
H	-0.316476	-1.966520	1.110318	1
H	0.884524	-1.488750	2.396188	1
Es	1.658079	-1.504008	0.384405	99
Es	-1.061693	0.978993	-0.761510	99
Es	1.270695	-1.604573	0.775122	99
Es	0.608920	0.094982	-1.309035	99
Es	0.800855	-1.486810	2.058790	99
Es	0.247706	0.240573	-0.688635	99
Es	-0.499755	0.030186	-0.743100	99
Es	0.597727	0.002437	-0.059312	99
Es	1.930871	-1.509020	0.523185	99
Es	-0.492116	1.951192	-1.302875	99
Es	-0.534429	1.533191	-0.699375	99
Es	0.020089	0.989561	-0.664938	99
Es	1.548651	-1.622513	0.139611	99
Es	-0.591225	1.904344	-0.069319	99
Es	1.387223	0.284951	0.898507	99
Es	-1.648725	0.005877	-0.213881	99
Es	-1.545454	0.043466	-1.442122	99
Es	0.994274	-0.237654	0.547643	99
Es	0.612911	-0.708840	1.058764	99
Es	0.607110	-1.455507	1.350135	99
Es	-0.016312	-1.812643	1.188148	99
Es	1.476879	-0.974125	0.374139	99
Es	-1.258638	0.226181	-0.798194	99
37
Properties=species:S:1:pos:R:3:Z:I:1 energy=-268.86687785282186 field_type=dipole dipole="0.000000 0.000000 0.000000" charge=0
C	-0.534436	1.533380	-0.699382	6
C	-1.258796	0.226090	-0.798212	6
C	0.247864	0.240490	-0.688692	6
C	0.994174	-0.237370	0.547708	6
C	0.606884	-1.455530	1.350348	6
O	1.658373	-1.504160	0.384298	8
H	-0.475406	2.151990	-1.587452	1
H	-0.620766	2.091780	0.225508	1
H	-1.690826	-0.048380	-1.753742	1
H	-1.839846	-0.094860	0.058238	1
H	0.781724	0.024790	-1.615762	1
H	1.563014	0.527050	1.070638	1
H	-0.316476	-1.966520	1.110318	1
H	0.884524	-1.488750	2.396188	1
Es	0.607110	-1.455513	1.350136	99
Es	1.387262	0.285167	0.898207	99
Es	0.612132	-0.707739	1.059401	99
Es	0.800812	-1.486993	2.057408	99
Es	1.544260	-1.616466	0.145794	99
Es	-0.491879	1.951633	-1.302941	99
Es	0.994281	-0.237658	0.547641	99
Es	-1.062180	0.980574	-0.762412	99
Es	-1.258639	0.226184	-0.798197	99
Es	1.658184	-1.503954	0.384522	99
Es	1.270921	-1.606969	0.775608	99
Es	-0.499313	0.028714	-0.743677	99
Es	1.933775	-1.514590	0.516696	99
Es	-0.016104	-1.813170	1.188671	99
Es	0.597456	0.002235	-0.059824	99
Es	-0.591255	1.903903	-0.069638	99
Es	0.609130	0.094600	-1.308769	99
Es	0.247714	0.240576	-0.688632	99
Es	0.019707	0.990112	-0.664265	99
Es	1.478167	-0.972644	0.373911	99
Es	-1.544150	0.043924	-1.439942	99
Es	-0.534423	1.533204	-0.699382	99
Es	-1.649322	0.005117	-0.214163	99
37
Properties=species:S:1:pos:R:3:Z:I:1 energy=-268.86687785282186 field_type=dipole dipole="0.000000 0.000000 0.000000" charge=0
C	-0.534436	1.533380	-0.699382	6
C	-1.258796	0.226090	-0.798212	6
C	0.247864	0.240490	-0.688692	6
C	0.994174	-0.237370	0.547708	6
C	0.606884	-1.455530	1.350348	6
O	1.658373	-1.504160	0.384298	8
H	-0.475406	2.151990	-1.587452	1
H	-0.620766	2.091780	0.225508	1
H	-1.690826	-0.048380	-1.753742	1
H	-1.839846	-0.094860	0.058238	1
H	0.781724	0.024790	-1.615762	1
H	1.563014	0.527050	1.070638	1
H	-0.316476	-1.966520	1.110318	1
H	0.884524	-1.488750	2.396188	1
Es	1.658025	-1.503981	0.384409	99
Es	0.611631	-0.707056	1.059848	99
Es	-0.591425	1.903413	-0.069936	99
Es	-1.258634	0.226186	-0.798194	99
Es	-1.062351	0.981631	-0.763052	99
Es	1.545786	-1.614542	0.147820	99
Es	0.019582	0.990687	-0.663863	99
Es	1.478466	-0.971569	0.373583	99
Es	1.387298	0.285356	0.897905	99
Es	0.247714	0.240575	-0.688629	99
Es	-1.649979	0.004362	-0.214565	99
Es	1.270329	-1.609653	0.774569	99
Es	-0.534425	1.533201	-0.699381	99
Es	1.932774	-1.515176	0.516241	99
Es	-0.016016	-1.813547	1.189126	99
Es	0.800794	-1.486985	2.056383	99
Es	-0.491902	1.952089	-1.302844	99
Es	-1.542986	0.044666	-1.438050	99
Es	0.607108	-1.455513	1.350135	99
Es	0.609333	0.094324	-1.308463	99
Es	0.994272	-0.237653	0.547642	99
Es	-0.498954	0.027378	-0.744373	99
Es	0.597202	0.002053	-0.060156	99
37
Properties=species:S:1:pos:R:3:Z:I:1 energy=-268.86687785282186 field_type=dipole dipole="0.000000 0.000000 0.000000" charge=0
C	-0.534436	1.533380	-0.699382	6
C	-1.258796	0.226090	-0.798212	6
C	0.247864	0.240490	-0.688692	6
C	0.994174	-0.237370	0.547708	6
C	0.606884	-1.455530	1.350348	6
O	1.658373	-1.504160	0.384298	8
H	-0.475406	2.151990	-1.587452	1
H	-0.620766	2.091780	0.225508	1
H	-1.690826	-0.048380	-1.753742	1
H	-1.839846	-0.094860	0.058238	1
H	0.781724	0.024790	-1.615762	1
H	1.563014	0.527050	1.070638	1
H	-0.316476	-1.966520	1.110318	1
H	0.884524	-1.488750	2.396188	1
Es	0.597026	0.001941	-0.060447	99
Es	0.247714	0.240583	-0.688633	99
Es	-0.015846	-1.813967	1.189566	99
Es	-0.534427	1.533197	-0.699383	99
Es	0.800756	-1.486953	2.055392	99
Es	1.935226	-1.519634	0.510716	99
Es	0.994272	-0.237655	0.547645	99
Es	1.541946	-1.610010	0.152963	99
Es	-1.650242	0.003988	-0.214760	99
Es	1.658167	-1.503990	0.384471	99
Es	-0.491750	1.952338	-1.302956	99
Es	0.611131	-0.706407	1.060176	99
Es	-1.062167	0.982070	-0.763690	99
Es	1.387282	0.285477	0.897750	99
Es	1.479509	-0.970874	0.373268	99
Es	-0.591651	1.903188	-0.069970	99
Es	0.019342	0.991388	-0.663425	99
Es	-1.542256	0.044961	-1.436767	99
Es	-1.258638	0.226188	-0.798194	99
Es	0.609464	0.094028	-1.308334	99
Es	0.607111	-1.455503	1.350131	99
Es	1.270604	-1.610672	0.775320	99
Es	-0.498929	0.026564	-0.744689	99
37
Properties=species:S:1:pos:R:3:Z:I:1 energy=-268.86687785282186 field_type=dipole dipole="0.000000 0.000000 0.000000" charge=0
C	-0.534436	1.533380	-0.699382	6
C	-1.258796	0.226090	-0.798212	6
C	0.247864	0.240490	-0.688692	6
C	0.994174	-0.237370	0.547708	6
C	0.606884	-1.455530	1.350348	6
O	1.658373	-1.504160	0.384298	8
H	-0.475406	2.151990	-1.587452	1
H	-0.620766	2.091780	0.225508	1
H	-1.690826	-0.048380	-1.753742	1
H	-1.839846	-0.094860	0.058238	1
H	0.781724	0.024790	-1.615762	1
H	1.563014	0.527050	1.070638	1
H	-0.316476	-1.966520	1.110318	1
H	0.884524	-1.488750	2.396188	1
Es	-1.650492	0.003554	-0.214950	99
Es	1.542640	-1.608823	0.155028	99
Es	0.596856	0.001914	-0.060784	99
Es	-0.534420	1.533195	-0.699380	99
Es	1.658141	-1.503966	0.384485	99
Es	0.610701	-0.705979	1.060546	99
Es	-0.015737	-1.814170	1.189815	99
Es	-1.541630	0.045452	-1.435507	99
Es	0.019216	0.991569	-0.663129	99
Es	-1.258636	0.226185	-0.798194	99
Es	-1.062316	0.982676	-0.764057	99
Es	0.994270	-0.237655	0.547640	99
Es	0.800726	-1.487027	2.054718	99
Es	1.270002	-1.611670	0.774412	99
Es	1.934952	-1.520500	0.510488	99
Es	1.387300	0.285615	0.897584	99
Es	1.479789	-0.970363	0.372345	99
Es	-0.491676	1.952511	-1.303041	99
Es	0.247715	0.240576	-0.688632	99
Es	0.609627	0.093757	-1.308222	99
Es	-0.591666	1.903028	-0.070049	99
Es	0.607106	-1.455508	1.350135	99
Es	-0.498825	0.025876	-0.745097	99
37
Properties=species:S:1:pos:R:3:Z:I:1 energy=-268.86687785282186 field_type=dipole dipole="0.000000 0.000000 0.000000" charge=0
C	-0.534436	1.533380	-0.699382	6
C	-1.258796	0.226090	-0.798212	6
C	0.247864	0.240490	-0.688692	6
C	0.994174	-0.237370	0.547708	6
C	0.606884	-1.455530	1.350348	6
O	1.658373	-1.504160	0.384298	8
H	-0.475406	2.151990	-1.587452	1
H	-0.620766	2.091780	0.225508	1
H	-1.690826	-0.048380	-1.753742	1
H	-1.839846	-0.094860	0.058238	1
H	0.781724	0.024790	-1.615762	1
H	1.563014	0.527050	1.070638	1
H	-0.316476	-1.966520	1.110318	1
H	0.884524	-1.488750	2.396188	1
Es	0.800711	-1.487055	2.054170	99
Es	-1.062361	0.983084	-0.764594	99
Es	0.018945	0.991778	-0.663024	99
Es	1.539809	-1.603766	0.158540	99
Es	-1.650639	0.003258	-0.214971	99
Es	1.387255	0.285752	0.897491	99
Es	-0.534423	1.533209	-0.699382	99
Es	0.247711	0.240576	-0.688633	99
Es	-1.541107	0.045496	-1.434794	99
Es	-1.258637	0.226188	-0.798193	99
Es	1.936505	-1.524029	0.504929	99
Es	0.610631	-0.705516	1.060652	99
Es	-0.491581	1.952629	-1.303025	99
Es	1.270546	-1.614249	0.774384	99
Es	-0.591729	1.902923	-0.069993	99
Es	1.480427	-0.969647	0.374546	99
Es	1.658189	-1.503964	0.384507	99
Es	0.596769	0.001741	-0.060898	99
Es	0.994278	-0.237655	0.547638	99
Es	-0.498655	0.025703	-0.745247	99
Es	0.609632	0.093572	-1.308124	99
Es	-0.015737	-1.814274	1.190038	99
Es	0.607106	-1.455509	1.350135	99
37
Properties=species:S:1:pos:R:3:Z:I:1 energy=-268.86687785282186 field_type=dipole dipole="0.000000 0.000000 0.000000" charge=0
C	-0.534436	1.533380	-0.699382	6
C	-1.258796	0.226090	-0.798212	6
C	0.247864	0.240490	-0.688692	6
C	0.994174	-0.237370	0.547708	6
C	0.606884	-1.455530	1.350348	6
O	1.658373	-1.504160	0.384298	8
H	-0.475406	2.151990	-1.587452	1
H	-0.620766	2.091780	0.225508	1
H	-1.690826	-0.048380	-1.753742	1
H	-1.839846	-0.094860	0.058238	1
H	0.781724	0.024790	-1.615762	1
H	1.563014	0.527050	1.070638	1
H	-0.316476	-1.966520	1.110318	1
H	0.884524	-1.488750	2.396188	1
Es	0.596620	0.001595	-0.060972	99
Es	-1.258637	0.226185	-0.798194	99
Es	0.994265	-0.237649	0.547647	99
Es	-1.540822	0.045787	-1.434160	99
Es	-0.015539	-1.814505	1.190268	99
Es	0.018586	0.991957	-0.662855	99
Es	-0.591764	1.902864	-0.069960	99
Es	1.270136	-1.614640	0.774012	99
Es	-0.498716	0.025143	-0.745493	99
Es	0.247712	0.240578	-0.688633	99
Es	1.481462	-0.969077	0.374684	99
Es	1.387274	0.285932	0.897356	99
Es	1.937439	-1.526989	0.502177	99
Es	1.658036	-1.503959	0.384448	99
Es	0.607115	-1.455509	1.350130	99
Es	0.609725	0.093429	-1.308077	99
Es	0.800700	-1.486957	2.053847	99
Es	-0.491482	1.952710	-1.303105	99
Es	-1.650727	0.003033	-0.215116	99
Es	1.538428	-1.600957	0.161560	99
Es	-1.062037	0.983500	-0.764724	99
Es	-0.534429	1.533205	-0.699383	99
Es	0.610301	-0.705430	1.060697	99
37
Properties=species:S:1:pos:R:3:Z:I:1 energy=-268.86687785282186 field_type=dipole dipole="0.000000 0.000000 0.000000" charge=0
C	-0.534436	1.533380	-0.699382	6
C	-1.258796	0.226090	-0.798212	6
C	0.247864	0.240490	-0.688692	6
C	0.994174	-0.237370	0.547708	6
C	0.606884	-1.455530	1.350348	6
O	1.658373	-1.504160	0.384298	8
H	-0.475406	2.151990	-1.587452	1
H	-0.620766	2.091780	0.225508	1
H	-1.690826	-0.048380	-1.753742	1
H	-1.839846	-0.094860	0.058238	1
H	0.781724	0.024790	-1.615762	1
H	1.563014	0.527050	1.070638	1
H	-0.316476	-1.966520	1.110318	1
H	0.884524	-1.488750	2.396188	1
Es	-0.491352	1.952814	-1.303170	99
Es	0.607107	-1.455508	1.350135	99
Es	1.536167	-1.598821	0.164796	99
Es	-0.534432	1.533200	-0.699383	99
Es	1.658152	-1.503940	0.384534	99
Es	-0.498620	0.024900	-0.745610	99
Es	0.610269	-0.705236	1.060732	99
Es	0.247713	0.240578	-0.688632	99
Es	0.018359	0.992237	-0.662643	99
Es	1.271235	-1.615064	0.775335	99
Es	-0.591761	1.902779	-0.069949	99
Es	0.800642	-1.486939	2.053483	99
Es	0.609822	0.093297	-1.308039	99
Es	-1.650875	0.002796	-0.215307	99
Es	-1.540466	0.045996	-1.433652	99
Es	1.938031	-1.529267	0.497926	99
Es	-1.258648	0.226178	-0.798197	99
Es	1.481921	-0.968683	0.374377	99
Es	0.994275	-0.237655	0.547641	99
Es	1.387280	0.286067	0.897369	99
Es	-1.062068	0.983603	-0.764874	99
Es	-0.015567	-1.814605	1.190359	99
Es	0.596462	0.001517	-0.061076	99
37
Properties=species:S:1:pos:R:3:Z:I:1 energy=-268.86687785282186 field_type=dipole dipole="0.000000 0.000000 0.000000" charge=0
C	-0.534436	1.533380	-0.699382	6
C	-1.258796	0.226090	-0.798212	6
C	0.247864	0.240490	-0.688692	6
C	0.994174	-0.237370	0.547708	6
C	0.606884	-1.455530	1.350348	6
O	1.658373	-1.504160	0.384298	8
H	-0.475406	2.151990	-1.587452	1
H	-0.620766	2.091780	0.225508	1
H	-1.690826	-0.048380	-1.753742	1
H	-1.839846	-0.094860	0.058238	1
H	0.781724	0.024790	-1.615762	1
H	1.563014	0.527050	1.070638	1
H	-0.316476	-1.966520	1.110318	1
H	0.884524	-1.488750	2.396188	1
Es	-0.491387	1.952935	-1.303164	99
Es	0.609952	-0.704930	1.060769	99
Es	1.535844	-1.598544	0.165097	99
Es	1.271317	-1.615138	0.775393	99
Es	-1.540055	0.046298	-1.432857	99
Es	0.596500	0.001493	-0.061235	99
Es	-1.651054	0.002570	-0.215422	99
Es	0.994274	-0.237655	0.547643	99
Es	-0.534414	1.533201	-0.699377	99
Es	1.387283	0.286171	0.897238	99
Es	-0.591733	1.902662	-0.069987	99
Es	0.607121	-1.455511	1.350138	99
Es	-1.062121	0.983909	-0.765147	99
Es	-0.498698	0.024395	-0.745879	99
Es	1.658195	-1.504010	0.384443	99
Es	0.247715	0.240576	-0.688631	99
Es	0.018365	0.992347	-0.662638	99
Es	0.800703	-1.486919	2.053140	99
Es	0.609850	0.093201	-1.307887	99
Es	1.938130	-1.529540	0.497552	99
Es	-1.258634	0.226186	-0.798194	99
Es	1.481923	-0.968675	0.374533	99
Es	-0.015429	-1.814778	1.190627	99
37
Properties=species:S:1:pos:R:3:Z:I:1 energy=-268.86687785282186 field_type=dipole dipole="0.000000 0.000000 0.000000" charge=0
C	-0.534436	1.533380	-0.699382	6
C	-1.258796	0.226090	-0.798212	6
C	0.247864	0.240490	-0.688692	6
C	0.994174	-0.237370	0.547708	6
C	0.606884	-1.455530	1.350348	6
O	1.658373	-1.504160	0.384298	8
H	-0.475406	2.151990	-1.587452	1
H	-0.620766	2.091780	0.225508	1
H	-1.690826	-0.048380	-1.753742	1
H	-1.839846	-0.094860	0.058238	1
H	0.781724	0.024790	-1.615762	1
H	1.563014	0.527050	1.070638	1
H	-0.316476	-1.966520	1.110318	1
H	0.884524	-1.488750	2.396188	1
Es	-1.258638	0.226180	-0.798196	99
Es	1.271084	-1.616198	0.774817	99
Es	0.596408	0.001347	-0.061297	99
Es	0.800682	-1.486905	2.053016	99
Es	0.609890	-0.704936	1.060796	99
Es	0.609795	0.093159	-1.307877	99
Es	0.247712	0.240579	-0.688632	99
Es	1.939215	-1.533250	0.492897	99
Es	-0.498760	0.024371	-0.745868	99
Es	1.387277	0.286272	0.897241	99
Es	-0.591810	1.902783	-0.069768	99
Es	-1.650903	0.002484	-0.215396	99
Es	-1.061761	0.984024	-0.765214	99
Es	-1.540045	0.046182	-1.432857	99
Es	1.658155	-1.503882	0.384595	99
Es	-0.491338	1.952855	-1.303287	99
Es	0.607112	-1.455511	1.350133	99
Es	1.534210	-1.594385	0.169179	99
Es	-0.015359	-1.814871	1.190664	99
Es	-0.534422	1.533200	-0.699383	99
Es	0.018100	0.992543	-0.662565	99
Es	0.994276	-0.237655	0.547641	99
Es	1.482766	-0.968141	0.375513	99
37
Properties=species:S:1:pos:R:3:Z:I:1 energy=-268.86687785282186 field_type=dipole dipole="0.000000 0.000000 0.000000" charge=0
C	-0.534436	1.533380	-0.699382	6
C	-1.258796	0.226090	-0.798212	6
C	0.247864	0.240490	-0.688692	6
C	0.994174	-0.237370	0.547708	6
C	0.606884	-1.455530	1.350348	6
O	1.658373	-1.504160	0.384298	8
H	-0.475406	2.151990	-1.587452	1
H	-0.620766	2.091780	0.225508	1
H	-1.690826	-0.048380	-1.753742	1
H	-1.839846	-0.094860	0.058238	1
H	0.781724	0.024790	-1.615762	1
H	1.563014	0.527050	1.070638	1
H	-0.316476	-1.966520	1.110318	1
H	0.884524	-1.488750	2.396188	1
Es	1.387318	0.286322	0.897357	99
Es	0.596474	0.001360	-0.061405	99
Es	0.800705	-1.486951	2.053001	99
Es	-0.534429	1.533202	-0.699380	99
Es	-0.491195	1.952735	-1.303370	99
Es	0.609913	-0.704903	1.060669	99
Es	0.017827	0.993006	-0.662718	99
Es	-1.258634	0.226184	-0.798193	99
Es	0.607112	-1.455508	1.350134	99
Es	-0.015335	-1.814939	1.190646	99
Es	1.941108	-1.539085	0.484211	99
Es	1.271975	-1.616545	0.775637	99
Es	0.247711	0.240574	-0.688633	99
Es	1.658380	-1.503735	0.384976	99
Es	0.609637	0.092996	-1.307819	99
Es	0.994276	-0.237657	0.547637	99
Es	-1.650692	0.002447	-0.215300	99
Es	-1.540198	0.045930	-1.433207	99
Es	-1.061342	0.983846	-0.765198	99
Es	-0.591772	1.902942	-0.069511	99
Es	-0.498983	0.024494	-0.745659	99
Es	1.483607	-0.967679	0.376887	99
Es	1.530182	-1.588794	0.175391	99
37
Properties=species:S:1:pos:R:3:Z:I:1 energy=-268.86687785282186 field_type=dipole dipole="0.000000 0.000000 0.000000" charge=0
C	-0.534436	1.533380	-0.699382	6
C	-1.258796	0.226090	-0.798212	6
C	0.247864	0.240490	-0.688692	6
C	0.994174	-0.237370	0.547708	6
C	0.606884	-1.455530	1.350348	6
O	1.658373	-1.504160	0.384298	8
H	-0.475406	2.151990	-1.587452	1
H	-0.620766	2.091780	0.225508	1
H	-1.690826	-0.048380	-1.753742	1
H	-1.839846	-0.094860	0.058238	1
H	0.781724	0.024790	-1.615762	1
H	1.563014	0.527050	1.070638	1
H	-0.316476	-1.966520	1.110318	1
H	0.884524	-1.488750	2.396188	1
Es	1.939043	-1.534434	0.491938	99
Es	1.658187	-1.503953	0.384526	99
Es	0.247714	0.240582	-0.688631	99
Es	-1.651095	0.002156	-0.215568	99
Es	1.387283	0.286433	0.897084	99
Es	-1.061674	0.984297	-0.765442	99
Es	-0.491293	1.953069	-1.303310	99
Es	1.533686	-1.593409	0.170551	99
Es	-0.498647	0.023956	-0.746214	99
Es	-1.258629	0.226181	-0.798193	99
Es	-0.591854	1.902582	-0.069750	99
Es	0.596275	0.001252	-0.061377	99
Es	-0.534428	1.533203	-0.699383	99
Es	0.800672	-1.486789	2.052389	99
Es	0.607101	-1.455510	1.350137	99
Es	1.483589	-0.967849	0.375206	99
Es	0.609863	0.092895	-1.307789	99
Es	0.017876	0.992741	-0.662516	99
Es	0.609703	-0.704583	1.060889	99
Es	-1.539617	0.046628	-1.431994	99
Es	0.994275	-0.237655	0.547639	99
Es	-0.015271	-1.815113	1.191023	99
Es	1.270885	-1.616438	0.774937	99
37
Properties=species:S:1:pos:R:3:Z:I:1 energy=-268.86687785282186 field_type=dipole dipole="0.000000 0.000000 0.000000" charge=0
C	-0.534436	1.533380	-0.699382	6
C	-1.258796	0.226090	-0.798212	6
C	0.247864	0.240490	-0.688692	6
C	0.994174	-0.237370	0.547708	6
C	0.606884	-1.455530	1.350348	6
O	1.658373	-1.504160	0.384298	8
H	-0.475406	2.151990	-1.587452	1
H	-0.620766	2.091780	0.225508	1
H	-1.690826	-0.048380	-1.753742	1
H	-1.839846	-0.094860	0.058238	1
H	0.781724	0.024790	-1.615762	1
H	1.563014	0.527050	1.070638	1
H	-0.316476	-1.966520	1.110318	1
H	0.884524	-1.488750	2.396188	1
Es	0.800686	-1.486865	2.052385	99
Es	0.017747	0.992784	-0.662540	99
Es	1.483348	-0.967280	0.376575	99
Es	1.657898	-1.503992	0.384319	99
Es	1.272102	-1.617491	0.775225	99
Es	1.531915	-1.590246	0.173902	99
Es	-0.591804	1.902629	-0.069701	99
Es	-1.651081	0.002190	-0.215541	99
Es	-1.258630	0.226195	-0.798196	99
Es	-0.015279	-1.815142	1.190975	99
Es	-1.061540	0.984445	-0.765575	99
Es	0.596236	0.001291	-0.061442	99
Es	1.940002	-1.536951	0.487120	99
Es	1.387332	0.286484	0.897112	99
Es	0.607111	-1.455508	1.350134	99
Es	0.247714	0.240580	-0.688632	99
Es	0.609706	-0.704638	1.060916	99
Es	0.994275	-0.237657	0.547635	99
Es	-0.498794	0.023966	-0.746000	99
Es	-1.539566	0.046431	-1.432072	99
Es	0.609861	0.092785	-1.307746	99
Es	-0.534426	1.533205	-0.699381	99
Es	-0.491172	1.953033	-1.303318	99
37
Properties=species:S:1:pos:R:3:Z:I:1 energy=-268.86687785282186 field_type=dipole dipole="0.000000 0.000000 0.000000" charge=0
C	-0.534436	1.533380	-0.699382	6
C	-1.258796	0.226090	-0.798212	6
C	0.247864	0.240490	-0.688692	6
C	0.994174	-0.237370	0.547708	6
C	0.606884	-1.455530	1.350348	6
O	1.658373	-1.504160	0.384298	8
H	-0.475406	2.151990	-1.587452	1
H	-0.620766	2.091780	0.225508	1
H	-1.690826	-0.048380	-1.753742	1
H	-1.839846	-0.094860	0.058238	1
H	0.781724	0.024790	-1.615762	1
H	1.563014	0.527050	1.070638	1
H	-0.316476	-1.966520	1.110318	1
H	0.884524	-1.488750	2.396188	1
Es	0.994274	-0.237655	0.547642	99
Es	0.017451	0.993176	-0.662554	99
Es	-0.534419	1.533203	-0.699381	99
Es	-0.498826	0.023867	-0.746152	99
Es	0.609755	0.092770	-1.307668	99
Es	-0.015242	-1.815244	1.191024	99
Es	1.387319	0.286538	0.897119	99
Es	0.247708	0.240587	-0.688633	99
Es	-0.491031	1.952995	-1.303379	99
Es	1.529992	-1.587744	0.176526	99
Es	1.272136	-1.617109	0.775605	99
Es	-1.061378	0.984324	-0.765605	99
Es	0.607113	-1.455506	1.350131	99
Es	-1.650953	0.002013	-0.215537	99
Es	-0.591864	1.902683	-0.069602	99
Es	0.800728	-1.486851	2.052354	99
Es	-1.258634	0.226187	-0.798194	99
Es	-1.539557	0.046473	-1.432002	99
Es	1.658013	-1.503967	0.384425	99
Es	0.609681	-0.704560	1.060866	99
Es	0.596262	0.001209	-0.061391	99
Es	1.940631	-1.539950	0.483368	99
Es	1.484484	-0.967192	0.377191	99
37
Properties=species:S:1:pos:R:3:Z:I:1 energy=-268.86687785282186 field_type=dipole dipole="0.000000 0.000000 0.000000" charge=0
C	-0.534436	1.533380	-0.699382	6
C	-1.258796	0.226090	-0.798212	6
C	0.247864	0.240490	-0.688692	6
C	0.994174	-0.237370	0.547708	6
C	0.606884	-1.455530	1.350348	6
O	1.658373	-1.504160	0.384298	8
H	-0.475406	2.151990	-1.587452	1
H	-0.620766	2.091780	0.225508	1
H	-1.690826	-0.048380	-1.753742	1
H	-1.839846	-0.094860	0.058238	1
H	0.781724	0.024790	-1.615762	1
H	1.563014	0.527050	1.070638	1
H	-0.316476	-1.966520	1.110318	1
H	0.884524	-1.488750	2.396188	1
Es	-0.015223	-1.815287	1.191047	99
Es	1.658251	-1.503794	0.384793	99
Es	-0.491197	1.952975	-1.303400	99
Es	-0.591891	1.902713	-0.069526	99
Es	0.609713	0.092759	-1.307607	99
Es	0.247711	0.240580	-0.688634	99
Es	0.800698	-1.486850	2.052233	99
Es	0.607113	-1.455509	1.350131	99
Es	-1.061071	0.984251	-0.765563	99
Es	-0.499106	0.023925	-0.746042	99
Es	-1.539531	0.046348	-1.432104	99
Es	1.528788	-1.586279	0.179020	99
Es	0.596219	0.001130	-0.061493	99
Es	0.017694	0.993420	-0.662552	99
Es	-0.534425	1.533204	-0.699382	99
Es	1.484352	-0.966934	0.376997	99
Es	-1.650910	0.001980	-0.215539	99
Es	1.272787	-1.617205	0.776265	99
Es	1.387321	0.286610	0.897161	99
Es	0.994273	-0.237653	0.547641	99
Es	1.941021	-1.541698	0.480093	99
Es	0.609705	-0.704612	1.060820	99
Es	-1.258649	0.226171	-0.798206	99
37
Properties=species:S:1:pos:R:3:Z:I:1 energy=-268.86687785282186 field_type=dipole dipole="0.000000 0.000000 0.000000" charge=0
C	-0.534436	1.533380	-0.699382	6
C	-1.258796	0.226090	-0.798212	6
C	0.247864	0.240490	-0.688692	6
C	0.994174	-0.237370	0.547708	6
C	0.606884	-1.455530	1.350348	6
O	1.658373	-1.504160	0.384298	8
H	-0.475406	2.151990	-1.587452	1
H	-0.620766	2.091780	0.225508	1
H	-1.690826	-0.048380	-1.753742	1
H	-1.839846	-0.094860	0.058238	1
H	0.781724	0.024790	-1.615762	1
H	1.563014	0.527050	1.070638	1
H	-0.316476	-1.966520	1.110318	1
H	0.884524	-1.488750	2.396188	1
Es	1.270717	-1.617659	0.774120	99
Es	0.994274	-0.237652	0.547641	99
Es	0.596141	0.001202	-0.061563	99
Es	1.938633	-1.535812	0.490396	99
Es	-1.061479	0.984988	-0.766029	99
Es	0.800735	-1.486686	2.051719	99
Es	0.017577	0.992810	-0.662305	99
Es	-0.491192	1.953210	-1.303404	99
Es	-0.592008	1.902453	-0.069762	99
Es	-0.534430	1.533205	-0.699382	99
Es	-1.538867	0.047074	-1.430630	99
Es	-1.258631	0.226186	-0.798193	99
Es	0.607113	-1.455507	1.350132	99
Es	-0.498691	0.023185	-0.746634	99
Es	-0.015169	-1.815475	1.191469	99
Es	0.247713	0.240575	-0.688633	99
Es	0.609949	0.092703	-1.307599	99
Es	1.658047	-1.503993	0.384391	99
Es	1.484249	-0.967119	0.375910	99
Es	0.609376	-0.704407	1.061044	99
Es	1.533696	-1.591437	0.172284	99
Es	1.387263	0.286578	0.896979	99
Es	-1.651372	0.001823	-0.215799	99
37
Properties=species:S:1:pos:R:3:Z:I:1 energy=-268.86687785282186 field_type=dipole dipole="0.000000 0.000000 0.000000" charge=0
C	-0.534436	1.533380	-0.699382	6
C	-1.258796	0.226090	-0.798212	6
C	0.247864	0.240490	-0.688692	6
C	0.994174	-0.237370	0.547708	6
C	0.606884	-1.455530	1.350348	6
O	1.658373	-1.504160	0.384298	8
H	-0.475406	2.151990	-1.587452	1
H	-0.620766	2.091780	0.225508	1
H	-1.690826	-0.048380	-1.753742	1
H	-1.839846	-0.094860	0.058238	1
H	0.781724	0.024790	-1.615762	1
H	1.563014	0.527050	1.070638	1
H	-0.316476	-1.966520	1.110318	1
H	0.884524	-1.488750	2.396188	1
Es	-1.651149	0.001895	-0.215718	99
Es	0.247711	0.240582	-0.688633	99
Es	0.017455	0.993271	-0.662310	99
Es	1.531233	-1.588834	0.175655	99
Es	0.609304	-0.704377	1.060903	99
Es	-0.491067	1.953413	-1.303357	99
Es	1.272202	-1.617991	0.775460	99
Es	0.994276	-0.237653	0.547642	99
Es	0.596173	0.001162	-0.061658	99
Es	-0.498714	0.023171	-0.746514	99
Es	-1.539118	0.046918	-1.430950	99
Es	1.939529	-1.538465	0.484483	99
Es	0.800684	-1.486751	2.051749	99
Es	-1.061466	0.984626	-0.765929	99
Es	1.658380	-1.503691	0.385044	99
Es	-0.015061	-1.815477	1.191373	99
Es	-0.534425	1.533205	-0.699382	99
Es	-0.591898	1.902267	-0.069727	99
Es	-1.258633	0.226186	-0.798194	99
Es	0.609882	0.092664	-1.307560	99
Es	1.387273	0.286703	0.897095	99
Es	1.483957	-0.967070	0.376548	99
Es	0.607116	-1.455510	1.350134	99
37
Properties=species:S:1:pos:R:3:Z:I:1 energy=-268.86687785282186 field_type=dipole dipole="0.000000 0.000000 0.000000" charge=0
C	-0.534436	1.533380	-0.699382	6
C	-1.258796	0.226090	-0.798212	6
C	0.247864	0.240490	-0.688692	6
C	0.994174	-0.237370	0.547708	6
C	0.606884	-1.455530	1.350348	6
O	1.658373	-1.504160	0.384298	8
H	-0.475406	2.151990	-1.587452	1
H	-0.620766	2.091780	0.225508	1
H	-1.690826	-0.048380	-1.753742	1
H	-1.839846	-0.094860	0.058238	1
H	0.781724	0.024790	-1.615762	1
H	1.563014	0.527050	1.070638	1
H	-0.316476	-1.966520	1.110318	1
H	0.884524	-1.488750	2.396188	1
Es	-1.061904	0.985088	-0.766339	99
Es	0.610091	0.092696	-1.307594	99
Es	1.658191	-1.504033	0.384368	99
Es	1.535742	-1.593838	0.170379	99
Es	-1.538462	0.047486	-1.429671	99
Es	1.387270	0.286632	0.896865	99
Es	1.482945	-0.967300	0.374799	99
Es	1.271189	-1.618684	0.774260	99
Es	-1.258628	0.226192	-0.798196	99
Es	0.800616	-1.486764	2.051169	99
Es	1.937345	-1.532389	0.493402	99
Es	-0.498357	0.022786	-0.747078	99
Es	0.247709	0.240582	-0.688634	99
Es	-0.015138	-1.815507	1.191565	99
Es	-0.491257	1.953380	-1.303343	99
Es	0.607114	-1.455509	1.350131	99
Es	0.017483	0.992860	-0.662169	99
Es	0.994274	-0.237657	0.547635	99
Es	0.609186	-0.704041	1.061356	99
Es	0.596148	0.001131	-0.061614	99
Es	-0.591959	1.902275	-0.069855	99
Es	-1.651527	0.001656	-0.215900	99
Es	-0.534425	1.533202	-0.699382	99
37
Properties=species:S:1:pos:R:3:Z:I:1 energy=-268.86687785282186 field_type=dipole dipole="0.000000 0.000000 0.000000" charge=0
C	-0.534436	1.533380	-0.699382	6
C	-1.258796	0.226090	-0.798212	6
C	0.247864	0.240490	-0.688692	6
C	0.994174	-0.237370	0.547708	6
C	0.606884	-1.455530	1.350348	6
O	1.658373	-1.504160	0.384298	8
H	-0.475406	2.151990	-1.587452	1
H	-0.620766	2.091780	0.225508	1
H	-1.690826	-0.048380	-1.753742	1
H	-1.839846	-0.094860	0.058238	1
H	0.781724	0.024790	-1.615762	1
H	1.563014	0.527050	1.070638	1
H	-0.316476	-1.966520	1.110318	1
H	0.884524	-1.488750	2.396188	1
Es	1.533284	-1.590812	0.173991	99
Es	1.658208	-1.503992	0.384445	99
Es	-0.015122	-1.815533	1.191575	99
Es	0.595993	0.000882	-0.061482	99
Es	1.483985	-0.967069	0.375116	99
Es	0.247709	0.240590	-0.688634	99
Es	1.938594	-1.536102	0.488900	99
Es	0.800682	-1.486726	2.051348	99
Es	0.607114	-1.455506	1.350129	99
Es	-1.651372	0.001545	-0.215849	99
Es	1.271267	-1.618225	0.774697	99
Es	-0.534426	1.533206	-0.699383	99
Es	0.609283	-0.704137	1.061165	99
Es	0.017569	0.993125	-0.662220	99
Es	0.609954	0.092525	-1.307514	99
Es	-0.498644	0.023102	-0.746971	99
Es	-1.538572	0.047295	-1.429998	99
Es	-1.258630	0.226188	-0.798199	99
Es	-1.061516	0.985049	-0.766355	99
Es	1.387256	0.286829	0.896807	99
Es	0.994272	-0.237658	0.547637	99
Es	-0.592113	1.902377	-0.069692	99
Es	-0.491132	1.953296	-1.303360	99
37
Properties=species:S:1:pos:R:3:Z:I:1 energy=-268.86687785282186 field_type=dipole dipole="0.000000 0.000000 0.000000" charge=0
C	-0.534436	1.533380	-0.699382	6
C	-1.258796	0.226090	-0.798212	6
C	0.247864	0.240490	-0.688692	6
C	0.994174	-0.237370	0.547708	6
C	0.606884	-1.455530	1.350348	6
O	1.658373	-1.504160	0.384298	8
H	-0.475406	2.151990	-1.587452	1
H	-0.620766	2.091780	0.225508	1
H	-1.690826	-0.048380	-1.753742	1
H	-1.839846	-0.094860	0.058238	1
H	0.781724	0.024790	-1.615762	1
H	1.563014	0.527050	1.070638	1
H	-0.316476	-1.966520	1.110318	1
H	0.884524	-1.488750	2.396188	1
Es	-0.491125	1.953150	-1.303442	99
Es	1.658413	-1.503731	0.385002	99
Es	-1.258632	0.226190	-0.798194	99
Es	1.528246	-1.583208	0.182459	99
Es	-1.650926	0.001735	-0.215613	99
Es	0.607111	-1.455507	1.350135	99
Es	0.609399	-0.704184	1.060847	99
Es	1.940790	-1.544182	0.476526	99
Es	0.609724	0.092556	-1.307527	99
Es	1.485137	-0.966585	0.377533	99
Es	-0.499040	0.023483	-0.746325	99
Es	-1.060873	0.984530	-0.765829	99
Es	-0.591887	1.902561	-0.069468	99
Es	0.800740	-1.486867	2.051692	99
Es	0.994273	-0.237652	0.547641	99
Es	-1.539220	0.046593	-1.431387	99
Es	1.387313	0.286791	0.897101	99
Es	0.017286	0.993715	-0.662484	99
Es	-0.534428	1.533206	-0.699383	99
Es	0.596238	0.000998	-0.061625	99
Es	-0.015070	-1.815518	1.191350	99
Es	0.247710	0.240578	-0.688633	99
Es	1.272466	-1.618407	0.775776	99
37
Properties=species:S:1:pos:R:3:Z:I:1 energy=-268.86687785282186 field_type=dipole dipole="0.000000 0.000000 0.000000" charge=0
C	-0.534436	1.533380	-0.699382	6
C	-1.258796	0.226090	-0.798212	6
C	0.247864	0.240490	-0.688692	6
C	0.994174	-0.237370	0.547708	6
C	0.606884	-1.455530	1.350348	6
O	1.658373	-1.504160	0.384298	8
H	-0.475406	2.151990	-1.587452	1
H	-0.620766	2.091780	0.225508	1
H	-1.690826	-0.048380	-1.753742	1
H	-1.839846	-0.094860	0.058238	1
H	0.781724	0.024790	-1.615762	1
H	1.563014	0.527050	1.070638	1
H	-0.316476	-1.966520	1.110318	1
H	0.884524	-1.488750	2.396188	1
Es	1.484760	-0.966665	0.376968	99
Es	-0.491070	1.953217	-1.303439	99
Es	1.658156	-1.503910	0.384586	99
Es	-1.651066	0.001586	-0.215727	99
Es	-1.258635	0.226185	-0.798194	99
Es	1.387336	0.286876	0.896923	99
Es	-0.015080	-1.815516	1.191452	99
Es	-0.534426	1.533205	-0.699382	99
Es	0.247713	0.240579	-0.688632	99
Es	0.800692	-1.486796	2.051513	99
Es	1.940321	-1.541877	0.480205	99
Es	-1.538903	0.046939	-1.430666	99
Es	1.272123	-1.618652	0.775358	99
Es	-0.591887	1.902494	-0.069496	99
Es	0.596077	0.000915	-0.061558	99
Es	0.017164	0.993582	-0.662412	99
Es	0.609819	0.092450	-1.307533	99
Es	0.607114	-1.455507	1.350133	99
Es	1.529751	-1.585128	0.180183	99
Es	-0.498926	0.023206	-0.746643	99
Es	-1.061024	0.984830	-0.766070	99
Es	0.609362	-0.704116	1.060945	99
Es	0.994272	-0.237653	0.547641	99
37
Properties=species:S:1:pos:R:3:Z:I:1 energy=-268.86687785282186 field_type=dipole dipole="0.000000 0.000000 0.000000" charge=0
C	-0.534436	1.533380	-0.699382	6
C	-1.258796	0.226090	-0.798212	6
C	0.247864	0.240490	-0.688692	6
C	0.994174	-0.237370	0.547708	6
C	0.606884	-1.455530	1.350348	6
O	1.658373	-1.504160	0.384298	8
H	-0.475406	2.151990	-1.587452	1
H	-0.620766	2.091780	0.225508	1
H	-1.690826	-0.048380	-1.753742	1
H	-1.839846	-0.094860	0.058238	1
H	0.781724	0.024790	-1.615762	1
H	1.563014	0.527050	1.070638	1
H	-0.316476	-1.966520	1.110318	1
H	0.884524	-1.488750	2.396188	1
Es	1.657862	-1.503995	0.384292	99
Es	1.940921	-1.545800	0.475319	99
Es	0.800719	-1.486823	2.051651	99
Es	-1.650922	0.001528	-0.215685	99
Es	-0.534426	1.533205	-0.699383	99
Es	-1.258636	0.226183	-0.798195	99
Es	0.994275	-0.237654	0.547640	99
Es	1.387302	0.286907	0.897087	99
Es	1.486194	-0.966308	0.377692	99
Es	0.017052	0.993598	-0.662508	99
Es	-0.015078	-1.815540	1.191371	99
Es	-0.591767	1.902562	-0.069400	99
Es	0.596088	0.000889	-0.061578	99
Es	-0.491059	1.953168	-1.303477	99
Es	-1.539089	0.046706	-1.431201	99
Es	-0.499054	0.023454	-0.746496	99
Es	0.609776	0.092515	-1.307470	99
Es	0.609486	-0.704209	1.060726	99
Es	0.607113	-1.455508	1.350133	99
Es	-1.060859	0.984831	-0.765792	99
Es	1.272196	-1.618163	0.775908	99
Es	0.247712	0.240578	-0.688633	99
Es	1.527838	-1.581875	0.184152	99
37
Properties=species:S:1:pos:R:3:Z:I:1 energy=-268.86687785282186 field_type=dipole dipole="0.000000 0.000000 0.000000" charge=0
C	-0.534436	1.533380	-0.699382	6
C	-1.258796	0.226090	-0.798212	6
C	0.247864	0.240490	-0.688692	6
C	0.994174	-0.237370	0.547708	6
C	0.606884	-1.455530	1.350348	6
O	1.658373	-1.504160	0.384298	8
H	-0.475406	2.151990	-1.587452	1
H	-0.620766	2.091780	0.225508	1
H	-1.690826	-0.048380	-1.753742	1
H	-1.839846	-0.094860	0.058238	1
H	0.781724	0.024790	-1.615762	1
H	1.563014	0.527050	1.070638	1
H	-0.316476	-1.966520	1.110318	1
H	0.884524	-1.488750	2.396188	1
Es	1.484761	-0.966511	0.375935	99
Es	-1.651329	0.001416	-0.215910	99
Es	-0.498713	0.022944	-0.746858	99
Es	1.939572	-1.540302	0.482429	99
Es	0.595978	0.000881	-0.061682	99
Es	1.530397	-1.587027	0.178597	99
Es	-1.061296	0.985171	-0.766265	99
Es	0.609863	0.092408	-1.307523	99
Es	1.658163	-1.503952	0.384513	99
Es	-1.258633	0.226186	-0.798194	99
Es	-0.491084	1.953375	-1.303343	99
Es	0.994275	-0.237656	0.547644	99
Es	0.607111	-1.455509	1.350132	99
Es	0.800705	-1.486806	2.051145	99
Es	-0.534431	1.533207	-0.699382	99
Es	0.247709	0.240587	-0.688634	99
Es	0.609266	-0.704099	1.061121	99
Es	-1.538523	0.047299	-1.429991	99
Es	-0.015060	-1.815691	1.191611	99
Es	1.387307	0.286910	0.896909	99
Es	0.017228	0.993355	-0.662286	99
Es	-0.591878	1.902330	-0.069559	99
Es	1.272258	-1.618271	0.775744	99
37
Properties=species:S:1:pos:R:3:Z:I:1 energy=-268.86687785282186 field_type=dipole dipole="0.000000 0.000000 0.000000" charge=0
C	-0.534436	1.533380	-0.699382	6
C	-1.258796	0.226090	-0.798212	6
C	0.247864	0.240490	-0.688692	6
C	0.994174	-0.237370	0.547708	6
C	0.606884	-1.455530	1.350348	6
O	1.658373	-1.504160	0.384298	8
H	-0.475406	2.151990	-1.587452	1
H	-0.620766	2.091780	0.225508	1
H	-1.690826	-0.048380	-1.753742	1
H	-1.839846	-0.094860	0.058238	1
H	0.781724	0.024790	-1.615762	1
H	1.563014	0.527050	1.070638	1
H	-0.316476	-1.966520	1.110318	1
H	0.884524	-1.488750	2.396188	1
Es	0.609887	0.092462	-1.307497	99
Es	-1.060975	0.985029	-0.766226	99
Es	-0.534424	1.533202	-0.699384	99
Es	0.595971	0.000871	-0.061667	99
Es	-0.014991	-1.815529	1.191469	99
Es	0.609336	-0.704076	1.060870	99
Es	1.387280	0.286913	0.897030	99
Es	1.529082	-1.582688	0.182770	99
Es	0.800651	-1.486827	2.051385	99
Es	0.247712	0.240584	-0.688633	99
Es	0.994273	-0.237648	0.547638	99
Es	-1.258635	0.226191	-0.798192	99
Es	1.940415	-1.543364	0.477997	99
Es	0.016906	0.993589	-0.662221	99
Es	0.607116	-1.455519	1.350133	99
Es	1.658277	-1.504277	0.383976	99
Es	1.271918	-1.619575	0.775108	99
Es	-0.490980	1.953197	-1.303510	99
Es	-0.592021	1.902525	-0.069415	99
Es	-1.651090	0.001408	-0.215806	99
Es	-1.538679	0.046740	-1.430695	99
Es	-0.498788	0.023395	-0.746465	99
Es	1.485404	-0.966357	0.377489	99
37
Properties=species:S:1:pos:R:3:Z:I:1 energy=-268.86687785282186 field_type=dipole dipole="0.000000 0.000000 0.000000" charge=0
C	-0.534436	1.533380	-0.699382	6
C	-1.258796	0.226090	-0.798212	6
C	0.247864	0.240490	-0.688692	6
C	0.994174	-0.237370	0.547708	6
C	0.606884	-1.455530	1.350348	6
O	1.658373	-1.504160	0.384298	8
H	-0.475406	2.151990	-1.587452	1
H	-0.620766	2.091780	0.225508	1
H	-1.690826	-0.048380	-1.753742	1
H	-1.839846	-0.094860	0.058238	1
H	0.781724	0.024790	-1.615762	1
H	1.563014	0.527050	1.070638	1
H	-0.316476	-1.966520	1.110318	1
H	0.884524	-1.488750	2.396188	1
Es	-1.651371	0.001388	-0.215984	99
Es	1.658195	-1.503906	0.384611	99
Es	0.609994	0.092518	-1.307413	99
Es	-0.534425	1.533204	-0.699382	99
Es	0.609183	-0.703950	1.061057	99
Es	1.484778	-0.966524	0.376109	99
Es	1.530246	-1.586387	0.179288	99
Es	-0.490929	1.953312	-1.303441	99
Es	-0.498718	0.022617	-0.746999	99
Es	0.994276	-0.237656	0.547639	99
Es	-1.061175	0.985275	-0.766380	99
Es	-0.591920	1.902399	-0.069552	99
Es	1.272312	-1.618680	0.775768	99
Es	0.596027	0.000869	-0.061587	99
Es	0.016799	0.993402	-0.662225	99
Es	-1.538393	0.047347	-1.429770	99
Es	0.800670	-1.486736	2.051010	99
Es	-0.014996	-1.815737	1.191694	99
Es	0.607105	-1.455511	1.350133	99
Es	1.387308	0.286969	0.896867	99
Es	1.939595	-1.540744	0.481549	99
Es	0.247710	0.240582	-0.688633	99
Es	-1.258627	0.226196	-0.798206	99
37
Properties=species:S:1:pos:R:3:Z:I:1 energy=-268.86687785282186 field_type=dipole dipole="0.000000 0.000000 0.000000" charge=0
C	-0.534436	1.533380	-0.699382	6
C	-1.258796	0.226090	-0.798212	6
C	0.247864	0.240490	-0.688692	6
C	0.994174	-0.237370	0.547708	6
C	0.606884	-1.455530	1.350348	6
O	1.658373	-1.504160	0.384298	8
H	-0.475406	2.151990	-1.587452	1
H	-0.620766	2.091780	0.225508	1
H	-1.690826	-0.048380	-1.753742	1
H	-1.839846	-0.094860	0.058238	1
H	0.781724	0.024790	-1.615762	1
H	1.563014	0.527050	1.070638	1
H	-0.316476	-1.966520	1.110318	1
H	0.884524	-1.488750	2.396188	1
Es	-1.538366	0.047459	-1.429595	99
Es	0.609910	0.092338	-1.307533	99
Es	0.994275	-0.237654	0.547640	99
Es	1.939199	-1.539852	0.483239	99
Es	1.271598	-1.619596	0.774609	99
Es	-0.534427	1.533206	-0.699383	99
Es	0.247712	0.240580	-0.688633	99
Es	-0.592052	1.902248	-0.069577	99
Es	1.658225	-1.504037	0.384392	99
Es	0.800674	-1.486628	2.050872	99
Es	-1.061049	0.985363	-0.766448	99
Es	0.607112	-1.455508	1.350133	99
Es	0.609048	-0.703887	1.061014	99
Es	-0.014959	-1.815803	1.191865	99
Es	1.387255	0.286967	0.896883	99
Es	-0.498724	0.022795	-0.747067	99
Es	0.595992	0.000798	-0.061655	99
Es	-1.258630	0.226189	-0.798193	99
Es	-1.651374	0.001361	-0.215915	99
Es	1.531334	-1.586344	0.178552	99
Es	1.484864	-0.966517	0.376541	99
Es	-0.490990	1.953461	-1.303459	99
Es	0.017019	0.993307	-0.662126	99
37
Properties=species:S:1:pos:R:3:Z:I:1 energy=-268.86687785282186 field_type=dipole dipole="0.000000 0.000000 0.000000" charge=0
C	-0.534436	1.533380	-0.699382	6
C	-1.258796	0.226090	-0.798212	6
C	0.247864	0.240490	-0.688692	6
C	0.994174	-0.237370	0.547708	6
C	0.606884	-1.455530	1.350348	6
O	1.658373	-1.504160	0.384298	8
H	-0.475406	2.151990	-1.587452	1
H	-0.620766	2.091780	0.225508	1
H	-1.690826	-0.048380	-1.753742	1
H	-1.839846	-0.094860	0.058238	1
H	0.781724	0.024790	-1.615762	1
H	1.563014	0.527050	1.070638	1
H	-0.316476	-1.966520	1.110318	1
H	0.884524	-1.488750	2.396188	1
Es	0.017044	0.993884	-0.662266	99
Es	1.272569	-1.619266	0.775590	99
Es	-1.538814	0.046989	-1.430544	99
Es	1.387278	0.287008	0.896928	99
Es	-0.490919	1.953230	-1.303507	99
Es	-1.060842	0.984864	-0.766107	99
Es	0.994276	-0.237653	0.547638	99
Es	1.940634	-1.544989	0.475418	99
Es	-0.499001	0.023301	-0.746836	99
Es	0.595926	0.000659	-0.061689	99
Es	-1.650974	0.001307	-0.215741	99
Es	0.609744	0.092385	-1.307419	99
Es	-0.534428	1.533209	-0.699383	99
Es	1.528638	-1.581736	0.184745	99
Es	1.657727	-1.504050	0.384136	99
Es	-0.591917	1.902505	-0.069347	99
Es	0.609267	-0.703933	1.060986	99
Es	-1.258633	0.226189	-0.798194	99
Es	1.485492	-0.966196	0.377469	99
Es	0.607111	-1.455505	1.350132	99
Es	0.247709	0.240580	-0.688633	99
Es	-0.014955	-1.815710	1.191609	99
Es	0.800711	-1.486826	2.051168	99
