36
Properties=species:S:1:pos:R:3:Z:I:1 energy=-231.87925578052108 field_type=dipole dipole="0.000000 0.000000 0.000000" charge=0
C	-0.571107	-2.124362	-0.692650	6
C	-1.064407	-1.077931	-0.016970	6
C	-0.368217	0.191388	0.177780	6
C	-1.128137	1.269379	0.450720	6
C	1.088292	0.284819	0.281100	6
C	1.841233	1.344118	-0.044770	6
H	-1.154367	-3.032601	-0.801600	1
H	0.406193	-2.100711	-1.163460	1
H	-2.062727	-1.165151	0.409510	1
H	-2.213267	1.223559	0.442110	1
H	-0.698287	2.235359	0.692880	1
H	1.588993	-0.614071	0.638780	1
H	1.415293	2.262158	-0.434850	1
H	2.920513	1.304048	0.061420	1
Es	-0.368147	0.191291	0.177752	99
Es	1.425998	0.934075	0.418680	99
Es	-0.936714	-1.476073	-0.621876	99
Es	-0.696137	-0.449424	0.074482	99
Es	-1.064423	-1.077827	-0.016920	99
Es	-1.865921	1.237963	0.446119	99
Es	-1.128193	1.269462	0.450712	99
Es	-0.730790	0.655203	0.616603	99
Es	-0.679794	-1.710863	-0.077506	99
Es	-0.747886	0.788011	-0.006093	99
Es	-1.740707	-1.123847	0.273295	99
Es	1.088191	0.284730	0.281121	99
Es	-0.839800	1.926861	0.611423	99
Es	1.477780	0.706568	-0.183788	99
Es	1.418966	-0.325679	0.524738	99
Es	0.358002	0.228929	0.209603	99
Es	-0.961069	-2.742707	-0.770598	99
Es	1.841282	1.344194	-0.044784	99
Es	2.572045	1.323780	0.028570	99
Es	-0.571064	-2.124444	-0.692696	99
Es	1.557054	1.967576	-0.308817	99
Es	0.091445	-2.112804	-1.009240	99
36
Properties=species:S:1:pos:R:3:Z:I:1 energy=-231.87925578052108 field_type=dipole dipole="0.000000 0.000000 0.000000" charge=0
C	-0.571107	-2.124362	-0.692650	6
C	-1.064407	-1.077931	-0.016970	6
C	-0.368217	0.191388	0.177780	6
C	-1.128137	1.269379	0.450720	6
C	1.088292	0.284819	0.281100	6
C	1.841233	1.344118	-0.044770	6
H	-1.154367	-3.032601	-0.801600	1
H	0.406193	-2.100711	-1.163460	1
H	-2.062727	-1.165151	0.409510	1
H	-2.213267	1.223559	0.442110	1
H	-0.698287	2.235359	0.692880	1
H	1.588993	-0.614071	0.638780	1
H	1.415293	2.262158	-0.434850	1
H	2.920513	1.304048	0.061420	1
Es	2.570772	1.323029	0.028341	99
Es	-0.680855	-1.709946	-0.081148	99
Es	-1.864537	1.236338	0.448733	99
Es	1.088193	0.284728	0.281113	99
Es	-0.368149	0.191294	0.177743	99
Es	-0.571065	-2.124445	-0.692698	99
Es	-0.748922	0.786663	-0.004276	99
Es	1.555575	1.971134	-0.302777	99
Es	0.092947	-2.113093	-1.006497	99
Es	-1.064427	-1.077820	-0.016924	99
Es	-0.960521	-2.744689	-0.767486	99
Es	1.430028	0.931868	0.418353	99
Es	-0.696728	-0.449013	0.070593	99
Es	1.421126	-0.328885	0.518296	99
Es	-1.741618	-1.123941	0.271264	99
Es	1.841283	1.344196	-0.044781	99
Es	0.357836	0.230682	0.206452	99
Es	1.473170	0.707862	-0.182567	99
Es	-1.128196	1.269466	0.450716	99
Es	-0.839452	1.928563	0.612352	99
Es	-0.729899	0.657449	0.615574	99
Es	-0.936440	-1.476462	-0.619596	99
36
Properties=species:S:1:pos:R:3:Z:I:1 energy=-231.87925578052108 field_type=dipole dipole="0.000000 0.000000 0.000000" charge=0
C	-0.571107	-2.124362	-0.692650	6
C	-1.064407	-1.077931	-0.016970	6
C	-0.368217	0.191388	0.177780	6
C	-1.128137	1.269379	0.450720	6
C	1.088292	0.284819	0.281100	6
C	1.841233	1.344118	-0.044770	6
H	-1.154367	-3.032601	-0.801600	1
H	0.406193	-2.100711	-1.163460	1
H	-2.062727	-1.165151	0.409510	1
H	-2.213267	1.223559	0.442110	1
H	-0.698287	2.235359	0.692880	1
H	1.588993	-0.614071	0.638780	1
H	1.415293	2.262158	-0.434850	1
H	2.920513	1.304048	0.061420	1
Es	1.554172	1.973253	-0.297754	99
Es	-0.696913	-0.448804	0.067648	99
Es	-1.128198	1.269468	0.450721	99
Es	-1.742209	-1.124128	0.269939	99
Es	0.357688	0.232459	0.204363	99
Es	-0.728851	0.659122	0.614864	99
Es	1.433539	0.930428	0.417385	99
Es	-0.681425	-1.709445	-0.083858	99
Es	-0.571061	-2.124449	-0.692691	99
Es	-0.936337	-1.476826	-0.617538	99
Es	-0.839760	1.929677	0.613035	99
Es	1.469224	0.708615	-0.180507	99
Es	-1.064425	-1.077820	-0.016924	99
Es	-0.749760	0.785828	-0.002999	99
Es	1.423015	-0.330685	0.512994	99
Es	-0.960058	-2.745764	-0.765177	99
Es	1.088195	0.284731	0.281114	99
Es	-1.863335	1.234755	0.450772	99
Es	2.569584	1.322149	0.027318	99
Es	1.841283	1.344198	-0.044776	99
Es	-0.368146	0.191288	0.177751	99
Es	0.093899	-2.113073	-1.004897	99
36
Properties=species:S:1:pos:R:3:Z:I:1 energy=-231.87925578052108 field_type=dipole dipole="0.000000 0.000000 0.000000" charge=0
C	-0.571107	-2.124362	-0.692650	6
C	-1.064407	-1.077931	-0.016970	6
C	-0.368217	0.191388	0.177780	6
C	-1.128137	1.269379	0.450720	6
C	1.088292	0.284819	0.281100	6
C	1.841233	1.344118	-0.044770	6
H	-1.154367	-3.032601	-0.801600	1
H	0.406193	-2.100711	-1.163460	1
H	-2.062727	-1.165151	0.409510	1
H	-2.213267	1.223559	0.442110	1
H	-0.698287	2.235359	0.692880	1
H	1.588993	-0.614071	0.638780	1
H	1.415293	2.262158	-0.434850	1
H	2.920513	1.304048	0.061420	1
Es	-0.571060	-2.124450	-0.692690	99
Es	-0.840109	1.930535	0.613362	99
Es	-1.064425	-1.077819	-0.016924	99
Es	1.553064	1.974508	-0.293663	99
Es	-0.368146	0.191290	0.177744	99
Es	-0.681785	-1.708951	-0.086005	99
Es	-1.742733	-1.124368	0.269128	99
Es	-0.750509	0.784642	-0.002053	99
Es	1.436309	0.929742	0.416119	99
Es	-0.959746	-2.746395	-0.763462	99
Es	2.568481	1.321297	0.026263	99
Es	-0.936163	-1.477207	-0.615825	99
Es	-1.128202	1.269470	0.450713	99
Es	1.424586	-0.331865	0.508358	99
Es	-0.728138	0.660889	0.614032	99
Es	1.841284	1.344197	-0.044779	99
Es	-0.696865	-0.448884	0.065610	99
Es	0.094627	-2.112944	-1.003850	99
Es	1.088195	0.284728	0.281106	99
Es	0.358010	0.234296	0.203122	99
Es	1.465678	0.708896	-0.178104	99
Es	-1.862233	1.233370	0.452577	99
36
Properties=species:S:1:pos:R:3:Z:I:1 energy=-231.87925578052108 field_type=dipole dipole="0.000000 0.000000 0.000000" charge=0
C	-0.571107	-2.124362	-0.692650	6
C	-1.064407	-1.077931	-0.016970	6
C	-0.368217	0.191388	0.177780	6
C	-1.128137	1.269379	0.450720	6
C	1.088292	0.284819	0.281100	6
C	1.841233	1.344118	-0.044770	6
H	-1.154367	-3.032601	-0.801600	1
H	0.406193	-2.100711	-1.163460	1
H	-2.062727	-1.165151	0.409510	1
H	-2.213267	1.223559	0.442110	1
H	-0.698287	2.235359	0.692880	1
H	1.588993	-0.614071	0.638780	1
H	1.415293	2.262158	-0.434850	1
H	2.920513	1.304048	0.061420	1
Es	1.438899	0.929364	0.414231	99
Es	-1.743052	-1.124605	0.268640	99
Es	0.095115	-2.112772	-1.002969	99
Es	-0.368147	0.191292	0.177741	99
Es	-0.936174	-1.477318	-0.614133	99
Es	-0.681970	-1.708698	-0.088294	99
Es	0.358077	0.236037	0.202309	99
Es	-0.571060	-2.124448	-0.692694	99
Es	1.552012	1.975270	-0.289719	99
Es	-1.128199	1.269470	0.450715	99
Es	1.088198	0.284727	0.281102	99
Es	-0.959444	-2.746971	-0.761814	99
Es	1.425818	-0.332406	0.504373	99
Es	-0.840602	1.931245	0.613702	99
Es	2.567621	1.320305	0.025178	99
Es	-0.696571	-0.449059	0.063969	99
Es	-1.064430	-1.077818	-0.016933	99
Es	-0.750972	0.783311	-0.001044	99
Es	1.462526	0.709024	-0.175789	99
Es	-1.861171	1.232138	0.453900	99
Es	1.841281	1.344201	-0.044766	99
Es	-0.727635	0.662686	0.613074	99
36
Properties=species:S:1:pos:R:3:Z:I:1 energy=-231.87925578052108 field_type=dipole dipole="0.000000 0.000000 0.000000" charge=0
C	-0.571107	-2.124362	-0.692650	6
C	-1.064407	-1.077931	-0.016970	6
C	-0.368217	0.191388	0.177780	6
C	-1.128137	1.269379	0.450720	6
C	1.088292	0.284819	0.281100	6
C	1.841233	1.344118	-0.044770	6
H	-1.154367	-3.032601	-0.801600	1
H	0.406193	-2.100711	-1.163460	1
H	-2.062727	-1.165151	0.409510	1
H	-2.213267	1.223559	0.442110	1
H	-0.698287	2.235359	0.692880	1
H	1.588993	-0.614071	0.638780	1
H	1.415293	2.262158	-0.434850	1
H	2.920513	1.304048	0.061420	1
Es	2.566658	1.319563	0.024192	99
Es	-0.959112	-2.747095	-0.760839	99
Es	-1.860073	1.231459	0.454403	99
Es	1.551466	1.975736	-0.287471	99
Es	1.440568	0.929267	0.413081	99
Es	-0.688426	-1.704363	-0.103760	99
Es	-1.743028	-1.124412	0.268141	99
Es	1.426505	-0.332801	0.501718	99
Es	-0.841340	1.931873	0.613742	99
Es	0.095556	-2.112675	-1.002564	99
Es	-0.751163	0.782485	-0.000317	99
Es	-0.930147	-1.482116	-0.598282	99
Es	-1.128199	1.269467	0.450724	99
Es	-0.368145	0.191290	0.177744	99
Es	1.841283	1.344200	-0.044773	99
Es	-1.064428	-1.077821	-0.016930	99
Es	1.088197	0.284725	0.281100	99
Es	-0.696176	-0.449261	0.062652	99
Es	0.358373	0.237274	0.202359	99
Es	-0.727504	0.663930	0.612408	99
Es	1.460316	0.708701	-0.173862	99
Es	-0.571059	-2.124452	-0.692685	99
36
Properties=species:S:1:pos:R:3:Z:I:1 energy=-231.87925578052108 field_type=dipole dipole="0.000000 0.000000 0.000000" charge=0
C	-0.571107	-2.124362	-0.692650	6
C	-1.064407	-1.077931	-0.016970	6
C	-0.368217	0.191388	0.177780	6
C	-1.128137	1.269379	0.450720	6
C	1.088292	0.284819	0.281100	6
C	1.841233	1.344118	-0.044770	6
H	-1.154367	-3.032601	-0.801600	1
H	0.406193	-2.100711	-1.163460	1
H	-2.062727	-1.165151	0.409510	1
H	-2.213267	1.223559	0.442110	1
H	-0.698287	2.235359	0.692880	1
H	1.588993	-0.614071	0.638780	1
H	1.415293	2.262158	-0.434850	1
H	2.920513	1.304048	0.061420	1
Es	1.458852	0.708264	-0.172336	99
Es	-0.701131	-1.688681	-0.126776	99
Es	-0.842174	1.932500	0.613414	99
Es	1.841284	1.344202	-0.044770	99
Es	1.441597	0.929099	0.412054	99
Es	-0.958387	-2.747341	-0.759058	99
Es	-0.696019	-0.449585	0.062820	99
Es	0.358604	0.237784	0.203245	99
Es	-1.743308	-1.124883	0.267810	99
Es	1.551107	1.976079	-0.286270	99
Es	-0.751197	0.782758	-0.000449	99
Es	1.426873	-0.333113	0.500361	99
Es	2.565850	1.318912	0.023367	99
Es	-1.064428	-1.077820	-0.016932	99
Es	-0.916937	-1.496703	-0.577026	99
Es	1.088198	0.284727	0.281105	99
Es	-1.859130	1.231314	0.453895	99
Es	-0.571058	-2.124451	-0.692684	99
Es	-0.368146	0.191292	0.177743	99
Es	-1.128199	1.269468	0.450722	99
Es	0.095251	-2.113220	-1.001975	99
Es	-0.727381	0.664374	0.612520	99
36
Properties=species:S:1:pos:R:3:Z:I:1 energy=-231.87925578052108 field_type=dipole dipole="0.000000 0.000000 0.000000" charge=0
C	-0.571107	-2.124362	-0.692650	6
C	-1.064407	-1.077931	-0.016970	6
C	-0.368217	0.191388	0.177780	6
C	-1.128137	1.269379	0.450720	6
C	1.088292	0.284819	0.281100	6
C	1.841233	1.344118	-0.044770	6
H	-1.154367	-3.032601	-0.801600	1
H	0.406193	-2.100711	-1.163460	1
H	-2.062727	-1.165151	0.409510	1
H	-2.213267	1.223559	0.442110	1
H	-0.698287	2.235359	0.692880	1
H	1.588993	-0.614071	0.638780	1
H	1.415293	2.262158	-0.434850	1
H	2.920513	1.304048	0.061420	1
Es	-0.842964	1.932918	0.613350	99
Es	0.095620	-2.112816	-1.002102	99
Es	1.441751	0.929130	0.411867	99
Es	-1.064427	-1.077819	-0.016931	99
Es	-1.742465	-1.123980	0.267685	99
Es	-1.128199	1.269470	0.450715	99
Es	-0.906646	-1.502685	-0.546494	99
Es	-0.727936	0.665580	0.610637	99
Es	-0.712423	-1.684281	-0.155076	99
Es	-0.368148	0.191295	0.177733	99
Es	1.457985	0.707771	-0.171904	99
Es	2.565262	1.318649	0.022856	99
Es	-1.858203	1.231297	0.453477	99
Es	1.841280	1.344196	-0.044782	99
Es	1.427048	-0.333289	0.499955	99
Es	1.088198	0.284727	0.281105	99
Es	-0.571058	-2.124450	-0.692686	99
Es	0.358875	0.237837	0.204081	99
Es	-0.750746	0.782168	0.001272	99
Es	-0.695631	-0.449811	0.061595	99
Es	-0.958080	-2.747171	-0.759681	99
Es	1.551027	1.976242	-0.285893	99
36
Properties=species:S:1:pos:R:3:Z:I:1 energy=-231.87925578052108 field_type=dipole dipole="0.000000 0.000000 0.000000" charge=0
C	-0.571107	-2.124362	-0.692650	6
C	-1.064407	-1.077931	-0.016970	6
C	-0.368217	0.191388	0.177780	6
C	-1.128137	1.269379	0.450720	6
C	1.088292	0.284819	0.281100	6
C	1.841233	1.344118	-0.044770	6
H	-1.154367	-3.032601	-0.801600	1
H	0.406193	-2.100711	-1.163460	1
H	-2.062727	-1.165151	0.409510	1
H	-2.213267	1.223559	0.442110	1
H	-0.698287	2.235359	0.692880	1
H	1.588993	-0.614071	0.638780	1
H	1.415293	2.262158	-0.434850	1
H	2.920513	1.304048	0.061420	1
Es	-1.128200	1.269468	0.450721	99
Es	-0.695190	-0.450288	0.062541	99
Es	1.442179	0.928892	0.411209	99
Es	1.426961	-0.333586	0.499856	99
Es	1.457272	0.707298	-0.171355	99
Es	2.564659	1.318307	0.022286	99
Es	-1.742904	-1.124547	0.267758	99
Es	-1.064428	-1.077819	-0.016935	99
Es	1.088191	0.284729	0.281109	99
Es	0.359055	0.238197	0.205078	99
Es	1.841281	1.344200	-0.044772	99
Es	0.095065	-2.113665	-1.001601	99
Es	-0.957302	-2.747284	-0.757532	99
Es	-0.571057	-2.124451	-0.692683	99
Es	-1.857217	1.231300	0.452967	99
Es	-0.894965	-1.517839	-0.532670	99
Es	-0.843770	1.933433	0.612999	99
Es	1.550852	1.976425	-0.285592	99
Es	-0.723448	-1.667493	-0.172039	99
Es	-0.368145	0.191291	0.177747	99
Es	-0.750087	0.780689	0.006176	99
Es	-0.728685	0.667718	0.605514	99
36
Properties=species:S:1:pos:R:3:Z:I:1 energy=-231.87925578052108 field_type=dipole dipole="0.000000 0.000000 0.000000" charge=0
C	-0.571107	-2.124362	-0.692650	6
C	-1.064407	-1.077931	-0.016970	6
C	-0.368217	0.191388	0.177780	6
C	-1.128137	1.269379	0.450720	6
C	1.088292	0.284819	0.281100	6
C	1.841233	1.344118	-0.044770	6
H	-1.154367	-3.032601	-0.801600	1
H	0.406193	-2.100711	-1.163460	1
H	-2.062727	-1.165151	0.409510	1
H	-2.213267	1.223559	0.442110	1
H	-0.698287	2.235359	0.692880	1
H	1.588993	-0.614071	0.638780	1
H	1.415293	2.262158	-0.434850	1
H	2.920513	1.304048	0.061420	1
Es	0.358820	0.238331	0.205650	99
Es	-1.742203	-1.123672	0.267451	99
Es	1.550681	1.976447	-0.285071	99
Es	1.442623	0.928839	0.411112	99
Es	-0.730212	-1.668678	-0.192556	99
Es	-0.694898	-0.450438	0.060917	99
Es	-0.571058	-2.124451	-0.692685	99
Es	0.095488	-2.112965	-1.001856	99
Es	1.427372	-0.333511	0.498897	99
Es	1.841280	1.344201	-0.044766	99
Es	-0.888997	-1.518401	-0.508818	99
Es	-0.957220	-2.747217	-0.758727	99
Es	1.088199	0.284732	0.281112	99
Es	-0.750047	0.781398	0.005096	99
Es	-0.368143	0.191294	0.177746	99
Es	-1.128200	1.269464	0.450729	99
Es	-1.856500	1.231116	0.452742	99
Es	-0.844471	1.933745	0.613028	99
Es	-1.064430	-1.077818	-0.016939	99
Es	2.564377	1.317959	0.021643	99
Es	1.456177	0.707102	-0.170538	99
Es	-0.728517	0.667501	0.606616	99
36
Properties=species:S:1:pos:R:3:Z:I:1 energy=-231.87925578052108 field_type=dipole dipole="0.000000 0.000000 0.000000" charge=0
C	-0.571107	-2.124362	-0.692650	6
C	-1.064407	-1.077931	-0.016970	6
C	-0.368217	0.191388	0.177780	6
C	-1.128137	1.269379	0.450720	6
C	1.088292	0.284819	0.281100	6
C	1.841233	1.344118	-0.044770	6
H	-1.154367	-3.032601	-0.801600	1
H	0.406193	-2.100711	-1.163460	1
H	-2.062727	-1.165151	0.409510	1
H	-2.213267	1.223559	0.442110	1
H	-0.698287	2.235359	0.692880	1
H	1.588993	-0.614071	0.638780	1
H	1.415293	2.262158	-0.434850	1
H	2.920513	1.304048	0.061420	1
Es	-0.368142	0.191293	0.177751	99
Es	-0.571057	-2.124451	-0.692680	99
Es	1.442553	0.928580	0.410980	99
Es	-0.749407	0.781169	0.007745	99
Es	-0.956553	-2.747180	-0.756756	99
Es	-1.742630	-1.124185	0.267574	99
Es	1.841280	1.344200	-0.044772	99
Es	-0.744148	-1.648342	-0.213838	99
Es	2.564175	1.317708	0.021147	99
Es	-0.874538	-1.537190	-0.490882	99
Es	0.358654	0.238277	0.206709	99
Es	-1.064426	-1.077820	-0.016930	99
Es	-0.694305	-0.450917	0.061962	99
Es	-1.855566	1.231266	0.451986	99
Es	1.427390	-0.333666	0.499085	99
Es	1.088199	0.284726	0.281100	99
Es	0.095025	-2.113891	-1.001266	99
Es	-0.845330	1.934158	0.612673	99
Es	1.550498	1.976502	-0.285372	99
Es	-1.128200	1.269467	0.450722	99
Es	1.455705	0.706800	-0.169926	99
Es	-0.729055	0.668473	0.603770	99
36
Properties=species:S:1:pos:R:3:Z:I:1 energy=-231.87925578052108 field_type=dipole dipole="0.000000 0.000000 0.000000" charge=0
C	-0.571107	-2.124362	-0.692650	6
C	-1.064407	-1.077931	-0.016970	6
C	-0.368217	0.191388	0.177780	6
C	-1.128137	1.269379	0.450720	6
C	1.088292	0.284819	0.281100	6
C	1.841233	1.344118	-0.044770	6
H	-1.154367	-3.032601	-0.801600	1
H	0.406193	-2.100711	-1.163460	1
H	-2.062727	-1.165151	0.409510	1
H	-2.213267	1.223559	0.442110	1
H	-0.698287	2.235359	0.692880	1
H	1.588993	-0.614071	0.638780	1
H	1.415293	2.262158	-0.434850	1
H	2.920513	1.304048	0.061420	1
Es	-0.368141	0.191295	0.177746	99
Es	-0.748690	0.778201	0.017161	99
Es	-1.854833	1.230983	0.452452	99
Es	-0.956705	-2.747018	-0.758170	99
Es	1.550558	1.976565	-0.284761	99
Es	1.841279	1.344195	-0.044780	99
Es	-1.128199	1.269468	0.450723	99
Es	-0.729937	0.671502	0.594362	99
Es	1.443181	0.928494	0.411006	99
Es	-1.064429	-1.077818	-0.016935	99
Es	-0.693902	-0.451009	0.060529	99
Es	-0.879071	-1.527315	-0.487905	99
Es	1.454989	0.706686	-0.170335	99
Es	2.563594	1.317470	0.020574	99
Es	-1.741992	-1.123448	0.267524	99
Es	-0.740373	-1.659863	-0.213449	99
Es	-0.845806	1.934324	0.612889	99
Es	-0.571058	-2.124451	-0.692683	99
Es	1.088200	0.284723	0.281089	99
Es	0.095509	-2.113195	-1.001823	99
Es	1.427181	-0.333774	0.498721	99
Es	0.358763	0.238961	0.206847	99
36
Properties=species:S:1:pos:R:3:Z:I:1 energy=-231.87925578052108 field_type=dipole dipole="0.000000 0.000000 0.000000" charge=0
C	-0.571107	-2.124362	-0.692650	6
C	-1.064407	-1.077931	-0.016970	6
C	-0.368217	0.191388	0.177780	6
C	-1.128137	1.269379	0.450720	6
C	1.088292	0.284819	0.281100	6
C	1.841233	1.344118	-0.044770	6
H	-1.154367	-3.032601	-0.801600	1
H	0.406193	-2.100711	-1.163460	1
H	-2.062727	-1.165151	0.409510	1
H	-2.213267	1.223559	0.442110	1
H	-0.698287	2.235359	0.692880	1
H	1.588993	-0.614071	0.638780	1
H	1.415293	2.262158	-0.434850	1
H	2.920513	1.304048	0.061420	1
Es	-1.854214	1.230947	0.452010	99
Es	-0.956450	-2.746916	-0.757756	99
Es	-0.693647	-0.451214	0.060583	99
Es	-1.128199	1.269469	0.450717	99
Es	0.095457	-2.113439	-1.001700	99
Es	0.358604	0.238812	0.207323	99
Es	-0.571057	-2.124451	-0.692682	99
Es	1.841281	1.344198	-0.044777	99
Es	2.563523	1.317191	0.020079	99
Es	1.443123	0.928403	0.411097	99
Es	-0.368148	0.191291	0.177749	99
Es	-1.064430	-1.077819	-0.016938	99
Es	-0.749715	-1.651496	-0.232988	99
Es	-0.869721	-1.535575	-0.468628	99
Es	-0.748379	0.778577	0.017447	99
Es	1.427315	-0.333799	0.498609	99
Es	1.454495	0.706612	-0.169730	99
Es	1.550414	1.976560	-0.284856	99
Es	-0.846497	1.934581	0.612758	99
Es	-1.741865	-1.123403	0.267434	99
Es	1.088191	0.284724	0.281099	99
Es	-0.729960	0.671724	0.593930	99
36
Properties=species:S:1:pos:R:3:Z:I:1 energy=-231.87925578052108 field_type=dipole dipole="0.000000 0.000000 0.000000" charge=0
C	-0.571107	-2.124362	-0.692650	6
C	-1.064407	-1.077931	-0.016970	6
C	-0.368217	0.191388	0.177780	6
C	-1.128137	1.269379	0.450720	6
C	1.088292	0.284819	0.281100	6
C	1.841233	1.344118	-0.044770	6
H	-1.154367	-3.032601	-0.801600	1
H	0.406193	-2.100711	-1.163460	1
H	-2.062727	-1.165151	0.409510	1
H	-2.213267	1.223559	0.442110	1
H	-0.698287	2.235359	0.692880	1
H	1.588993	-0.614071	0.638780	1
H	1.415293	2.262158	-0.434850	1
H	2.920513	1.304048	0.061420	1
Es	-1.854220	1.230281	0.451743	99
Es	-1.741900	-1.123416	0.266981	99
Es	1.453379	0.706638	-0.167886	99
Es	-0.368145	0.191293	0.177746	99
Es	0.095396	-2.113667	-1.001225	99
Es	1.549739	1.976364	-0.283524	99
Es	1.841279	1.344199	-0.044774	99
Es	-0.694283	-0.451410	0.060275	99
Es	0.358112	0.238215	0.208337	99
Es	-0.956103	-2.746935	-0.757235	99
Es	-0.848817	-1.553937	-0.425792	99
Es	-0.847550	1.934759	0.612576	99
Es	-1.128200	1.269469	0.450720	99
Es	-0.571055	-2.124452	-0.692676	99
Es	-0.770434	-1.632906	-0.276129	99
Es	2.563869	1.316763	0.019922	99
Es	1.427899	-0.333612	0.497183	99
Es	-1.064429	-1.077817	-0.016943	99
Es	1.088199	0.284726	0.281100	99
Es	-0.724526	0.662923	0.607995	99
Es	-0.751736	0.788962	0.003018	99
Es	1.443645	0.928537	0.409368	99
36
Properties=species:S:1:pos:R:3:Z:I:1 energy=-231.87925578052108 field_type=dipole dipole="0.000000 0.000000 0.000000" charge=0
C	-0.571107	-2.124362	-0.692650	6
C	-1.064407	-1.077931	-0.016970	6
C	-0.368217	0.191388	0.177780	6
C	-1.128137	1.269379	0.450720	6
C	1.088292	0.284819	0.281100	6
C	1.841233	1.344118	-0.044770	6
H	-1.154367	-3.032601	-0.801600	1
H	0.406193	-2.100711	-1.163460	1
H	-2.062727	-1.165151	0.409510	1
H	-2.213267	1.223559	0.442110	1
H	-0.698287	2.235359	0.692880	1
H	1.588993	-0.614071	0.638780	1
H	1.415293	2.262158	-0.434850	1
H	2.920513	1.304048	0.061420	1
Es	-0.848342	1.934924	0.612677	99
Es	1.841279	1.344201	-0.044765	99
Es	2.563504	1.316402	0.019177	99
Es	1.452848	0.706822	-0.167939	99
Es	1.088199	0.284729	0.281106	99
Es	-1.741802	-1.123320	0.267355	99
Es	-0.368143	0.191293	0.177752	99
Es	-0.723910	0.664136	0.597796	99
Es	-1.853534	1.229824	0.452157	99
Es	-1.064429	-1.077819	-0.016938	99
Es	-0.693658	-0.451798	0.060070	99
Es	-0.956072	-2.746730	-0.757158	99
Es	0.357560	0.238498	0.208553	99
Es	-0.852074	-1.551166	-0.432344	99
Es	0.095435	-2.113731	-1.001615	99
Es	1.427798	-0.333659	0.497002	99
Es	-1.128199	1.269467	0.450724	99
Es	1.549814	1.976398	-0.283312	99
Es	-0.751883	0.788277	0.012955	99
Es	1.444071	0.928462	0.409682	99
Es	-0.571057	-2.124450	-0.692685	99
Es	-0.767283	-1.635784	-0.269467	99
36
Properties=species:S:1:pos:R:3:Z:I:1 energy=-231.87925578052108 field_type=dipole dipole="0.000000 0.000000 0.000000" charge=0
C	-0.571107	-2.124362	-0.692650	6
C	-1.064407	-1.077931	-0.016970	6
C	-0.368217	0.191388	0.177780	6
C	-1.128137	1.269379	0.450720	6
C	1.088292	0.284819	0.281100	6
C	1.841233	1.344118	-0.044770	6
H	-1.154367	-3.032601	-0.801600	1
H	0.406193	-2.100711	-1.163460	1
H	-2.062727	-1.165151	0.409510	1
H	-2.213267	1.223559	0.442110	1
H	-0.698287	2.235359	0.692880	1
H	1.588993	-0.614071	0.638780	1
H	1.415293	2.262158	-0.434850	1
H	2.920513	1.304048	0.061420	1
Es	1.444070	0.928308	0.410375	99
Es	-0.723758	0.665069	0.590820	99
Es	-0.772785	-1.630842	-0.280824	99
Es	2.563257	1.316270	0.018585	99
Es	1.841279	1.344199	-0.044773	99
Es	1.549862	1.976418	-0.283768	99
Es	1.452612	0.706792	-0.167981	99
Es	1.427663	-0.333741	0.497200	99
Es	-1.128199	1.269469	0.450720	99
Es	-0.693135	-0.452081	0.060072	99
Es	-1.741770	-1.123229	0.267557	99
Es	-0.751698	0.787795	0.019906	99
Es	-0.848925	1.935026	0.612742	99
Es	-1.064427	-1.077818	-0.016937	99
Es	-0.571057	-2.124451	-0.692682	99
Es	1.088203	0.284727	0.281099	99
Es	-0.846631	-1.556048	-0.421304	99
Es	-0.955939	-2.746576	-0.756984	99
Es	0.095413	-2.113884	-1.001718	99
Es	0.357216	0.238466	0.208973	99
Es	-0.368144	0.191294	0.177747	99
Es	-1.852987	1.229815	0.451957	99
36
Properties=species:S:1:pos:R:3:Z:I:1 energy=-231.87925578052108 field_type=dipole dipole="0.000000 0.000000 0.000000" charge=0
C	-0.571107	-2.124362	-0.692650	6
C	-1.064407	-1.077931	-0.016970	6
C	-0.368217	0.191388	0.177780	6
C	-1.128137	1.269379	0.450720	6
C	1.088292	0.284819	0.281100	6
C	1.841233	1.344118	-0.044770	6
H	-1.154367	-3.032601	-0.801600	1
H	0.406193	-2.100711	-1.163460	1
H	-2.062727	-1.165151	0.409510	1
H	-2.213267	1.223559	0.442110	1
H	-0.698287	2.235359	0.692880	1
H	1.588993	-0.614071	0.638780	1
H	1.415293	2.262158	-0.434850	1
H	2.920513	1.304048	0.061420	1
Es	-1.851627	1.230524	0.451985	99
Es	1.550404	1.976631	-0.284661	99
Es	-0.746279	0.773151	0.040451	99
Es	-0.691995	-0.452051	0.060131	99
Es	-0.368141	0.191296	0.177748	99
Es	-0.571057	-2.124452	-0.692682	99
Es	1.443801	0.927898	0.411436	99
Es	-1.741713	-1.123179	0.267802	99
Es	1.841279	1.344198	-0.044775	99
Es	-0.731975	0.678049	0.570880	99
Es	-0.848593	1.935333	0.612702	99
Es	2.562807	1.316021	0.018015	99
Es	1.088200	0.284723	0.281098	99
Es	1.452240	0.706712	-0.169114	99
Es	0.095450	-2.113713	-1.001967	99
Es	-0.756445	-1.645390	-0.247068	99
Es	-1.064429	-1.077819	-0.016938	99
Es	0.358360	0.239884	0.208707	99
Es	-1.128199	1.269468	0.450722	99
Es	-0.863002	-1.541684	-0.454584	99
Es	-0.956057	-2.746610	-0.757123	99
Es	1.427090	-0.334014	0.498015	99
36
Properties=species:S:1:pos:R:3:Z:I:1 energy=-231.87925578052108 field_type=dipole dipole="0.000000 0.000000 0.000000" charge=0
C	-0.571107	-2.124362	-0.692650	6
C	-1.064407	-1.077931	-0.016970	6
C	-0.368217	0.191388	0.177780	6
C	-1.128137	1.269379	0.450720	6
C	1.088292	0.284819	0.281100	6
C	1.841233	1.344118	-0.044770	6
H	-1.154367	-3.032601	-0.801600	1
H	0.406193	-2.100711	-1.163460	1
H	-2.062727	-1.165151	0.409510	1
H	-2.213267	1.223559	0.442110	1
H	-0.698287	2.235359	0.692880	1
H	1.588993	-0.614071	0.638780	1
H	1.415293	2.262158	-0.434850	1
H	2.920513	1.304048	0.061420	1
Es	0.095439	-2.113845	-1.002271	99
Es	-1.851132	1.230500	0.451982	99
Es	-0.849024	1.935380	0.612843	99
Es	-1.128200	1.269468	0.450721	99
Es	0.358176	0.240004	0.209079	99
Es	-0.571058	-2.124452	-0.692682	99
Es	1.443870	0.927703	0.412037	99
Es	1.452127	0.706657	-0.169868	99
Es	-0.368135	0.191299	0.177747	99
Es	-0.691484	-0.452262	0.060160	99
Es	1.088201	0.284725	0.281092	99
Es	-1.064429	-1.077818	-0.016938	99
Es	2.562435	1.315987	0.017655	99
Es	-0.956005	-2.746396	-0.757068	99
Es	-0.756168	-1.645656	-0.246357	99
Es	1.841279	1.344201	-0.044768	99
Es	-1.741640	-1.123080	0.268043	99
Es	-0.863360	-1.541473	-0.455283	99
Es	-0.745415	0.771003	0.049992	99
Es	1.426843	-0.334134	0.498458	99
Es	1.550561	1.976678	-0.284946	99
Es	-0.732760	0.680488	0.561154	99
36
Properties=species:S:1:pos:R:3:Z:I:1 energy=-231.87925578052108 field_type=dipole dipole="0.000000 0.000000 0.000000" charge=0
C	-0.571107	-2.124362	-0.692650	6
C	-1.064407	-1.077931	-0.016970	6
C	-0.368217	0.191388	0.177780	6
C	-1.128137	1.269379	0.450720	6
C	1.088292	0.284819	0.281100	6
C	1.841233	1.344118	-0.044770	6
H	-1.154367	-3.032601	-0.801600	1
H	0.406193	-2.100711	-1.163460	1
H	-2.062727	-1.165151	0.409510	1
H	-2.213267	1.223559	0.442110	1
H	-0.698287	2.235359	0.692880	1
H	1.588993	-0.614071	0.638780	1
H	1.415293	2.262158	-0.434850	1
H	2.920513	1.304048	0.061420	1
Es	1.550424	1.976627	-0.284861	99
Es	1.841280	1.344198	-0.044776	99
Es	-1.128199	1.269468	0.450721	99
Es	-1.741627	-1.123226	0.268032	99
Es	1.426935	-0.334114	0.498132	99
Es	-0.758298	-1.643739	-0.250809	99
Es	0.095420	-2.113693	-1.002220	99
Es	-0.745197	0.770478	0.052417	99
Es	-0.368140	0.191296	0.177749	99
Es	2.562556	1.315686	0.017274	99
Es	0.357849	0.240273	0.209044	99
Es	-0.955805	-2.746485	-0.756996	99
Es	-0.861211	-1.543378	-0.450829	99
Es	1.451701	0.706815	-0.169240	99
Es	-0.732967	0.681050	0.558817	99
Es	-0.849634	1.935547	0.612855	99
Es	1.088200	0.284726	0.281098	99
Es	-0.691122	-0.452340	0.060180	99
Es	1.443930	0.927659	0.411947	99
Es	-1.850490	1.230396	0.451871	99
Es	-1.064429	-1.077818	-0.016945	99
Es	-0.571057	-2.124451	-0.692682	99
36
Properties=species:S:1:pos:R:3:Z:I:1 energy=-231.87925578052108 field_type=dipole dipole="0.000000 0.000000 0.000000" charge=0
C	-0.571107	-2.124362	-0.692650	6
C	-1.064407	-1.077931	-0.016970	6
C	-0.368217	0.191388	0.177780	6
C	-1.128137	1.269379	0.450720	6
C	1.088292	0.284819	0.281100	6
C	1.841233	1.344118	-0.044770	6
H	-1.154367	-3.032601	-0.801600	1
H	0.406193	-2.100711	-1.163460	1
H	-2.062727	-1.165151	0.409510	1
H	-2.213267	1.223559	0.442110	1
H	-0.698287	2.235359	0.692880	1
H	1.588993	-0.614071	0.638780	1
H	1.415293	2.262158	-0.434850	1
H	2.920513	1.304048	0.061420	1
Es	-1.741647	-1.123075	0.268057	99
Es	-0.733031	0.681503	0.557144	99
Es	-0.368145	0.191293	0.177747	99
Es	-0.690923	-0.452561	0.060052	99
Es	1.841279	1.344196	-0.044780	99
Es	-0.760801	-1.641473	-0.256088	99
Es	-1.850092	1.230317	0.451848	99
Es	-0.858673	-1.545591	-0.445688	99
Es	-0.571058	-2.124452	-0.692683	99
Es	1.088201	0.284727	0.281102	99
Es	1.451320	0.706857	-0.168908	99
Es	1.426915	-0.334127	0.497848	99
Es	-1.128201	1.269467	0.450723	99
Es	1.550395	1.976650	-0.284765	99
Es	-0.955853	-2.746336	-0.756774	99
Es	0.095474	-2.113927	-1.002208	99
Es	-0.744984	0.770260	0.054096	99
Es	-0.849989	1.935688	0.612722	99
Es	1.444291	0.927515	0.412088	99
Es	2.562319	1.315434	0.016803	99
Es	-1.064428	-1.077819	-0.016937	99
Es	0.357753	0.240431	0.209381	99
36
Properties=species:S:1:pos:R:3:Z:I:1 energy=-231.87925578052108 field_type=dipole dipole="0.000000 0.000000 0.000000" charge=0
C	-0.571107	-2.124362	-0.692650	6
C	-1.064407	-1.077931	-0.016970	6
C	-0.368217	0.191388	0.177780	6
C	-1.128137	1.269379	0.450720	6
C	1.088292	0.284819	0.281100	6
C	1.841233	1.344118	-0.044770	6
H	-1.154367	-3.032601	-0.801600	1
H	0.406193	-2.100711	-1.163460	1
H	-2.062727	-1.165151	0.409510	1
H	-2.213267	1.223559	0.442110	1
H	-0.698287	2.235359	0.692880	1
H	1.588993	-0.614071	0.638780	1
H	1.415293	2.262158	-0.434850	1
H	2.920513	1.304048	0.061420	1
Es	1.550215	1.976588	-0.284632	99
Es	-0.955636	-2.746478	-0.756596	99
Es	-1.849717	1.230302	0.451569	99
Es	-0.745012	0.771295	0.050947	99
Es	-0.690756	-0.452535	0.060141	99
Es	-0.850456	1.935806	0.612635	99
Es	1.088190	0.284728	0.281104	99
Es	1.451019	0.706866	-0.168434	99
Es	0.095389	-2.113862	-1.001981	99
Es	1.444091	0.927461	0.411449	99
Es	1.841279	1.344199	-0.044772	99
Es	-1.064426	-1.077816	-0.016939	99
Es	-0.571058	-2.124452	-0.692681	99
Es	0.357425	0.240323	0.209781	99
Es	2.562605	1.315256	0.016788	99
Es	1.427193	-0.334043	0.497830	99
Es	-1.128199	1.269470	0.450717	99
Es	-0.768424	-1.634733	-0.271817	99
Es	-0.368139	0.191297	0.177750	99
Es	-0.851025	-1.552285	-0.430094	99
Es	-0.732879	0.680731	0.560209	99
Es	-1.741560	-1.123141	0.267809	99
36
Properties=species:S:1:pos:R:3:Z:I:1 energy=-231.87925578052108 field_type=dipole dipole="0.000000 0.000000 0.000000" charge=0
C	-0.571107	-2.124362	-0.692650	6
C	-1.064407	-1.077931	-0.016970	6
C	-0.368217	0.191388	0.177780	6
C	-1.128137	1.269379	0.450720	6
C	1.088292	0.284819	0.281100	6
C	1.841233	1.344118	-0.044770	6
H	-1.154367	-3.032601	-0.801600	1
H	0.406193	-2.100711	-1.163460	1
H	-2.062727	-1.165151	0.409510	1
H	-2.213267	1.223559	0.442110	1
H	-0.698287	2.235359	0.692880	1
H	1.588993	-0.614071	0.638780	1
H	1.415293	2.262158	-0.434850	1
H	2.920513	1.304048	0.061420	1
Es	-0.760040	-1.642171	-0.254399	99
Es	-0.955778	-2.746168	-0.756734	99
Es	-1.128199	1.269468	0.450720	99
Es	1.444262	0.927409	0.412284	99
Es	0.095477	-2.113969	-1.002514	99
Es	2.562164	1.315141	0.016247	99
Es	-0.733887	0.684426	0.545132	99
Es	-0.859478	-1.544959	-0.447275	99
Es	-1.741586	-1.123017	0.268323	99
Es	1.550434	1.976647	-0.284843	99
Es	-1.849242	1.230157	0.452076	99
Es	-1.064430	-1.077819	-0.016938	99
Es	-0.571057	-2.124451	-0.692682	99
Es	-0.690328	-0.452771	0.060006	99
Es	-0.850674	1.935819	0.612818	99
Es	1.450755	0.706930	-0.169259	99
Es	1.841279	1.344199	-0.044775	99
Es	0.357741	0.240642	0.209759	99
Es	-0.368144	0.191295	0.177747	99
Es	1.426703	-0.334232	0.498100	99
Es	1.088199	0.284726	0.281099	99
Es	-0.744052	0.767677	0.065887	99
36
Properties=species:S:1:pos:R:3:Z:I:1 energy=-231.87925578052108 field_type=dipole dipole="0.000000 0.000000 0.000000" charge=0
C	-0.571107	-2.124362	-0.692650	6
C	-1.064407	-1.077931	-0.016970	6
C	-0.368217	0.191388	0.177780	6
C	-1.128137	1.269379	0.450720	6
C	1.088292	0.284819	0.281100	6
C	1.841233	1.344118	-0.044770	6
H	-1.154367	-3.032601	-0.801600	1
H	0.406193	-2.100711	-1.163460	1
H	-2.062727	-1.165151	0.409510	1
H	-2.213267	1.223559	0.442110	1
H	-0.698287	2.235359	0.692880	1
H	1.588993	-0.614071	0.638780	1
H	1.415293	2.262158	-0.434850	1
H	2.920513	1.304048	0.061420	1
Es	-0.851152	1.936004	0.612473	99
Es	-1.741630	-1.123076	0.267732	99
Es	-0.690347	-0.452747	0.060107	99
Es	0.095314	-2.114064	-1.001902	99
Es	-0.571058	-2.124451	-0.692682	99
Es	-0.368142	0.191295	0.177750	99
Es	1.088183	0.284729	0.281108	99
Es	2.562666	1.314941	0.016520	99
Es	-0.732835	0.681011	0.559461	99
Es	1.450548	0.706935	-0.167986	99
Es	-1.128199	1.269469	0.450719	99
Es	-0.778313	-1.625836	-0.292295	99
Es	-0.744695	0.771590	0.051520	99
Es	1.550025	1.976543	-0.284389	99
Es	-0.841105	-1.561060	-0.409928	99
Es	1.841278	1.344196	-0.044779	99
Es	-0.955412	-2.746389	-0.756143	99
Es	-1.064427	-1.077818	-0.016939	99
Es	1.427181	-0.334077	0.497728	99
Es	0.357206	0.240313	0.210485	99
Es	1.444095	0.927265	0.410845	99
Es	-1.849063	1.230204	0.451374	99
36
Properties=species:S:1:pos:R:3:Z:I:1 energy=-231.87925578052108 field_type=dipole dipole="0.000000 0.000000 0.000000" charge=0
C	-0.571107	-2.124362	-0.692650	6
C	-1.064407	-1.077931	-0.016970	6
C	-0.368217	0.191388	0.177780	6
C	-1.128137	1.269379	0.450720	6
C	1.088292	0.284819	0.281100	6
C	1.841233	1.344118	-0.044770	6
H	-1.154367	-3.032601	-0.801600	1
H	0.406193	-2.100711	-1.163460	1
H	-2.062727	-1.165151	0.409510	1
H	-2.213267	1.223559	0.442110	1
H	-0.698287	2.235359	0.692880	1
H	1.588993	-0.614071	0.638780	1
H	1.415293	2.262158	-0.434850	1
H	2.920513	1.304048	0.061420	1
Es	-1.741569	-1.123061	0.267956	99
Es	1.444379	0.927136	0.411131	99
Es	-1.848740	1.230143	0.451599	99
Es	-1.128201	1.269468	0.450720	99
Es	-0.571058	-2.124451	-0.692685	99
Es	1.426989	-0.334149	0.497655	99
Es	-0.689968	-0.452856	0.060018	99
Es	-0.368142	0.191295	0.177748	99
Es	-0.733447	0.682716	0.552305	99
Es	-0.846446	-1.556337	-0.420828	99
Es	-0.851312	1.936026	0.612585	99
Es	-0.744250	0.769803	0.058680	99
Es	1.841277	1.344200	-0.044769	99
Es	0.357111	0.240743	0.210443	99
Es	0.095326	-2.114042	-1.002090	99
Es	1.450275	0.707079	-0.168045	99
Es	1.088204	0.284722	0.281083	99
Es	-1.064429	-1.077818	-0.016940	99
Es	2.562444	1.314738	0.016049	99
Es	-0.772922	-1.630588	-0.281264	99
Es	1.550093	1.976558	-0.284348	99
Es	-0.955495	-2.746346	-0.756223	99
36
Properties=species:S:1:pos:R:3:Z:I:1 energy=-231.87925578052108 field_type=dipole dipole="0.000000 0.000000 0.000000" charge=0
C	-0.571107	-2.124362	-0.692650	6
C	-1.064407	-1.077931	-0.016970	6
C	-0.368217	0.191388	0.177780	6
C	-1.128137	1.269379	0.450720	6
C	1.088292	0.284819	0.281100	6
C	1.841233	1.344118	-0.044770	6
H	-1.154367	-3.032601	-0.801600	1
H	0.406193	-2.100711	-1.163460	1
H	-2.062727	-1.165151	0.409510	1
H	-2.213267	1.223559	0.442110	1
H	-0.698287	2.235359	0.692880	1
H	1.588993	-0.614071	0.638780	1
H	1.415293	2.262158	-0.434850	1
H	2.920513	1.304048	0.061420	1
Es	-0.857535	-1.546719	-0.443306	99
Es	1.841278	1.344198	-0.044775	99
Es	-0.761962	-1.640422	-0.258397	99
Es	1.426678	-0.334244	0.497972	99
Es	-1.848203	1.229955	0.452113	99
Es	-1.064428	-1.077818	-0.016939	99
Es	2.561950	1.314618	0.015532	99
Es	1.550472	1.976659	-0.284789	99
Es	0.095447	-2.114054	-1.002692	99
Es	-0.734463	0.686762	0.535598	99
Es	-0.743287	0.765677	0.075397	99
Es	-1.741550	-1.122939	0.268421	99
Es	0.357058	0.240995	0.210165	99
Es	-0.368141	0.191296	0.177749	99
Es	1.444497	0.927171	0.412379	99
Es	-0.689435	-0.453090	0.059968	99
Es	-0.851642	1.936027	0.612849	99
Es	1.450078	0.707205	-0.169101	99
Es	1.088199	0.284726	0.281098	99
Es	-0.571057	-2.124451	-0.692681	99
Es	-0.955633	-2.746043	-0.756500	99
Es	-1.128199	1.269468	0.450721	99
36
Properties=species:S:1:pos:R:3:Z:I:1 energy=-231.87925578052108 field_type=dipole dipole="0.000000 0.000000 0.000000" charge=0
C	-0.571107	-2.124362	-0.692650	6
C	-1.064407	-1.077931	-0.016970	6
C	-0.368217	0.191388	0.177780	6
C	-1.128137	1.269379	0.450720	6
C	1.088292	0.284819	0.281100	6
C	1.841233	1.344118	-0.044770	6
H	-1.154367	-3.032601	-0.801600	1
H	0.406193	-2.100711	-1.163460	1
H	-2.062727	-1.165151	0.409510	1
H	-2.213267	1.223559	0.442110	1
H	-0.698287	2.235359	0.692880	1
H	1.588993	-0.614071	0.638780	1
H	1.415293	2.262158	-0.434850	1
H	2.920513	1.304048	0.061420	1
Es	-0.902743	-1.508396	-0.536924	99
Es	-0.745716	0.740771	0.284171	99
Es	-1.741075	-1.122498	0.272655	99
Es	-0.571060	-2.124450	-0.692689	99
Es	-0.688026	-0.454681	0.060665	99
Es	-0.956903	-2.743722	-0.758747	99
Es	1.552867	1.976979	-0.288422	99
Es	1.841277	1.344192	-0.044784	99
Es	1.444345	0.928280	0.420841	99
Es	-0.730310	0.712462	0.326422	99
Es	-1.128199	1.269467	0.450725	99
Es	-0.368142	0.191301	0.177739	99
Es	1.088202	0.284727	0.281100	99
Es	1.423501	-0.335197	0.501115	99
Es	2.559484	1.313731	0.012179	99
Es	1.449613	0.708758	-0.175777	99
Es	0.095403	-2.114687	-1.006833	99
Es	0.358554	0.241466	0.208212	99
Es	-0.852905	1.935625	0.614388	99
Es	-0.716779	-1.678999	-0.164561	99
Es	-1.064426	-1.077820	-0.016930	99
Es	-1.846842	1.227667	0.456235	99
36
Properties=species:S:1:pos:R:3:Z:I:1 energy=-231.87925578052108 field_type=dipole dipole="0.000000 0.000000 0.000000" charge=0
C	-0.571107	-2.124362	-0.692650	6
C	-1.064407	-1.077931	-0.016970	6
C	-0.368217	0.191388	0.177780	6
C	-1.128137	1.269379	0.450720	6
C	1.088292	0.284819	0.281100	6
C	1.841233	1.344118	-0.044770	6
H	-1.154367	-3.032601	-0.801600	1
H	0.406193	-2.100711	-1.163460	1
H	-2.062727	-1.165151	0.409510	1
H	-2.213267	1.223559	0.442110	1
H	-0.698287	2.235359	0.692880	1
H	1.588993	-0.614071	0.638780	1
H	1.415293	2.262158	-0.434850	1
H	2.920513	1.304048	0.061420	1
Es	-0.571055	-2.124452	-0.692675	99
Es	0.356904	0.241080	0.210505	99
Es	2.562218	1.314096	0.015210	99
Es	-0.850517	-1.552733	-0.429142	99
Es	1.444363	0.927153	0.411711	99
Es	-0.734361	0.686230	0.537759	99
Es	1.841278	1.344197	-0.044778	99
Es	-1.847708	1.229956	0.451853	99
Es	-0.368145	0.191294	0.177748	99
Es	-0.768864	-1.634295	-0.272667	99
Es	-0.689157	-0.453220	0.059870	99
Es	-0.955494	-2.746087	-0.756334	99
Es	-1.064428	-1.077819	-0.016937	99
Es	1.088196	0.284728	0.281106	99
Es	1.426790	-0.334218	0.497656	99
Es	-0.852155	1.936177	0.612683	99
Es	1.449507	0.707450	-0.168151	99
Es	-0.743237	0.766395	0.073320	99
Es	0.095409	-2.114118	-1.002441	99
Es	-1.128199	1.269468	0.450720	99
Es	1.550337	1.976641	-0.284526	99
Es	-1.741561	-1.122945	0.268292	99
