40
Properties=species:S:1:pos:R:3:Z:I:1 energy=-270.0820224725894 field_type=dipole dipole="0.000000 0.000000 0.000000" charge=0
C	-0.025391	-2.415202	-0.635473	6
C	-0.737621	-1.170662	-0.131493	6
C	0.226068	-0.062322	0.144977	6
O	0.596469	0.709128	-1.006573	8
C	-0.188971	1.378328	-0.010103	6
C	0.526369	2.465648	0.706927	6
H	-0.745201	-3.217912	-0.821893	1
H	0.705109	-2.773022	0.097367	1
H	0.509449	-2.209672	-1.568433	1
H	-1.276151	-1.410462	0.792577	1
H	-1.487921	-0.861012	-0.868853	1
H	0.994299	-0.317422	0.863167	1
H	-1.215151	1.620808	-0.247273	1
H	1.576319	2.215378	0.894147	1
H	0.045829	2.659238	1.671247	1
H	0.496499	3.389158	0.119687	1
Es	0.336132	-2.273699	-1.267438	99
Es	0.521422	0.336086	-0.607854	99
Es	-0.891129	1.541153	-0.180275	99
Es	-0.737583	-1.170675	-0.131484	99
Es	0.291641	1.047161	-0.697611	99
Es	1.233789	2.288759	0.833915	99
Es	0.416844	0.616783	-1.243018	99
Es	0.472720	-2.655490	-0.129414	99
Es	-0.518521	-2.961465	-0.760476	99
Es	-1.098516	-1.331831	0.505807	99
Es	-0.025407	-2.415179	-0.635453	99
Es	-0.256548	-0.612064	0.004685	99
Es	-0.099651	0.649516	0.287884	99
Es	0.192219	2.593126	1.358947	99
Es	-0.375461	-1.789230	-0.380964	99
Es	0.501038	3.088029	0.305839	99
Es	0.526346	2.465640	0.706929	99
Es	0.596314	0.709091	-1.006341	99
Es	0.759514	-0.236265	0.630235	99
Es	0.226133	-0.062141	0.144733	99
Es	-0.188791	1.378183	-0.010297	99
Es	0.175031	1.919968	0.353691	99
Es	0.888657	0.810615	-0.980061	99
Es	-1.245737	-0.952896	-0.632157	99
40
Properties=species:S:1:pos:R:3:Z:I:1 energy=-270.0820224725894 field_type=dipole dipole="0.000000 0.000000 0.000000" charge=0
C	-0.025391	-2.415202	-0.635473	6
C	-0.737621	-1.170662	-0.131493	6
C	0.226068	-0.062322	0.144977	6
O	0.596469	0.709128	-1.006573	8
C	-0.188971	1.378328	-0.010103	6
C	0.526369	2.465648	0.706927	6
H	-0.745201	-3.217912	-0.821893	1
H	0.705109	-2.773022	0.097367	1
H	0.509449	-2.209672	-1.568433	1
H	-1.276151	-1.410462	0.792577	1
H	-1.487921	-0.861012	-0.868853	1
H	0.994299	-0.317422	0.863167	1
H	-1.215151	1.620808	-0.247273	1
H	1.576319	2.215378	0.894147	1
H	0.045829	2.659238	1.671247	1
H	0.496499	3.389158	0.119687	1
Es	-0.188790	1.378184	-0.010296	99
Es	0.472160	-2.656414	-0.129678	99
Es	-0.025408	-2.415179	-0.635453	99
Es	-0.737583	-1.170675	-0.131483	99
Es	-0.890430	1.541772	-0.180582	99
Es	0.883627	0.808736	-0.982233	99
Es	0.501091	3.089256	0.304353	99
Es	-1.098868	-1.330933	0.506470	99
Es	0.759349	-0.236721	0.629663	99
Es	0.336330	-2.274565	-1.268303	99
Es	-0.375600	-1.789312	-0.380844	99
Es	0.192096	2.592029	1.359596	99
Es	-0.256768	-0.612607	0.003981	99
Es	0.291236	1.052140	-0.698479	99
Es	0.526346	2.465640	0.706929	99
Es	0.523487	0.330545	-0.608047	99
Es	-0.100752	0.649167	0.290091	99
Es	0.226138	-0.062144	0.144728	99
Es	-0.517020	-2.960353	-0.759986	99
Es	0.596320	0.709121	-1.006245	99
Es	0.420248	0.619392	-1.239910	99
Es	0.175643	1.920541	0.353673	99
Es	-1.245055	-0.952305	-0.631735	99
Es	1.232657	2.287859	0.833610	99
40
Properties=species:S:1:pos:R:3:Z:I:1 energy=-270.0820224725894 field_type=dipole dipole="0.000000 0.000000 0.000000" charge=0
C	-0.025391	-2.415202	-0.635473	6
C	-0.737621	-1.170662	-0.131493	6
C	0.226068	-0.062322	0.144977	6
O	0.596469	0.709128	-1.006573	8
C	-0.188971	1.378328	-0.010103	6
C	0.526369	2.465648	0.706927	6
H	-0.745201	-3.217912	-0.821893	1
H	0.705109	-2.773022	0.097367	1
H	0.509449	-2.209672	-1.568433	1
H	-1.276151	-1.410462	0.792577	1
H	-1.487921	-0.861012	-0.868853	1
H	0.994299	-0.317422	0.863167	1
H	-1.215151	1.620808	-0.247273	1
H	1.576319	2.215378	0.894147	1
H	0.045829	2.659238	1.671247	1
H	0.496499	3.389158	0.119687	1
Es	-0.516016	-2.959488	-0.759654	99
Es	-0.889864	1.542236	-0.180790	99
Es	-1.244393	-0.951874	-0.631451	99
Es	1.231858	2.287262	0.833513	99
Es	0.526346	2.465640	0.706927	99
Es	0.881026	0.808864	-0.983520	99
Es	-0.025407	-2.415180	-0.635451	99
Es	-0.101629	0.648873	0.291727	99
Es	-0.188791	1.378186	-0.010300	99
Es	0.525221	0.328138	-0.607669	99
Es	0.288928	1.054523	-0.700952	99
Es	-0.256881	-0.612994	0.003565	99
Es	0.336606	-2.275242	-1.268857	99
Es	-0.737585	-1.170674	-0.131482	99
Es	0.176173	1.921011	0.353571	99
Es	-1.099264	-1.330371	0.506940	99
Es	0.501157	3.090092	0.303448	99
Es	0.759236	-0.237060	0.629201	99
Es	0.596382	0.709128	-1.006421	99
Es	0.226135	-0.062143	0.144729	99
Es	-0.375682	-1.789268	-0.380855	99
Es	0.191970	2.591170	1.359878	99
Es	0.423348	0.619386	-1.236433	99
Es	0.471582	-2.657043	-0.129845	99
40
Properties=species:S:1:pos:R:3:Z:I:1 energy=-270.0820224725894 field_type=dipole dipole="0.000000 0.000000 0.000000" charge=0
C	-0.025391	-2.415202	-0.635473	6
C	-0.737621	-1.170662	-0.131493	6
C	0.226068	-0.062322	0.144977	6
O	0.596469	0.709128	-1.006573	8
C	-0.188971	1.378328	-0.010103	6
C	0.526369	2.465648	0.706927	6
H	-0.745201	-3.217912	-0.821893	1
H	0.705109	-2.773022	0.097367	1
H	0.509449	-2.209672	-1.568433	1
H	-1.276151	-1.410462	0.792577	1
H	-1.487921	-0.861012	-0.868853	1
H	0.994299	-0.317422	0.863167	1
H	-1.215151	1.620808	-0.247273	1
H	1.576319	2.215378	0.894147	1
H	0.045829	2.659238	1.671247	1
H	0.496499	3.389158	0.119687	1
Es	-0.025408	-2.415179	-0.635453	99
Es	-0.375876	-1.789324	-0.381023	99
Es	0.423621	0.620986	-1.231580	99
Es	0.176568	1.921217	0.353668	99
Es	-0.188780	1.378187	-0.010313	99
Es	0.879427	0.807854	-0.987363	99
Es	0.596297	0.709113	-1.006254	99
Es	0.759130	-0.237191	0.628846	99
Es	-0.889483	1.542508	-0.180938	99
Es	0.471271	-2.657481	-0.129837	99
Es	1.231154	2.286981	0.833328	99
Es	-1.099404	-1.329867	0.507272	99
Es	0.526345	2.465640	0.706926	99
Es	-1.244008	-0.951366	-0.631255	99
Es	0.289052	1.056883	-0.701290	99
Es	-0.737585	-1.170675	-0.131483	99
Es	-0.102155	0.648822	0.292737	99
Es	0.526528	0.325189	-0.608538	99
Es	-0.256982	-0.613592	0.003341	99
Es	0.226136	-0.062144	0.144728	99
Es	0.192036	2.590506	1.360160	99
Es	-0.515244	-2.958753	-0.759365	99
Es	0.501131	3.090690	0.302773	99
Es	0.336684	-2.275830	-1.269266	99
40
Properties=species:S:1:pos:R:3:Z:I:1 energy=-270.0820224725894 field_type=dipole dipole="0.000000 0.000000 0.000000" charge=0
C	-0.025391	-2.415202	-0.635473	6
C	-0.737621	-1.170662	-0.131493	6
C	0.226068	-0.062322	0.144977	6
O	0.596469	0.709128	-1.006573	8
C	-0.188971	1.378328	-0.010103	6
C	0.526369	2.465648	0.706927	6
H	-0.745201	-3.217912	-0.821893	1
H	0.705109	-2.773022	0.097367	1
H	0.509449	-2.209672	-1.568433	1
H	-1.276151	-1.410462	0.792577	1
H	-1.487921	-0.861012	-0.868853	1
H	0.994299	-0.317422	0.863167	1
H	-1.215151	1.620808	-0.247273	1
H	1.576319	2.215378	0.894147	1
H	0.045829	2.659238	1.671247	1
H	0.496499	3.389158	0.119687	1
Es	0.876213	0.807552	-0.984839	99
Es	-0.102582	0.648613	0.293655	99
Es	0.288133	1.058408	-0.703333	99
Es	-0.514722	-2.958308	-0.759218	99
Es	0.336846	-2.276208	-1.269474	99
Es	0.191931	2.590026	1.360377	99
Es	-0.025407	-2.415179	-0.635453	99
Es	-0.257015	-0.613745	0.003016	99
Es	0.526346	2.465640	0.706929	99
Es	1.230651	2.286495	0.833184	99
Es	0.527159	0.323780	-0.608161	99
Es	-0.889128	1.542701	-0.180991	99
Es	0.176750	1.921646	0.353582	99
Es	-0.375881	-1.789371	-0.380957	99
Es	0.470909	-2.657811	-0.130043	99
Es	0.501293	3.091075	0.302291	99
Es	0.226134	-0.062145	0.144731	99
Es	0.427066	0.621408	-1.232507	99
Es	0.759044	-0.237284	0.628559	99
Es	-0.737584	-1.170675	-0.131484	99
Es	-0.188789	1.378187	-0.010301	99
Es	-1.243643	-0.951306	-0.630940	99
Es	-1.099595	-1.329461	0.507411	99
Es	0.596327	0.709135	-1.006214	99
40
Properties=species:S:1:pos:R:3:Z:I:1 energy=-270.0820224725894 field_type=dipole dipole="0.000000 0.000000 0.000000" charge=0
C	-0.025391	-2.415202	-0.635473	6
C	-0.737621	-1.170662	-0.131493	6
C	0.226068	-0.062322	0.144977	6
O	0.596469	0.709128	-1.006573	8
C	-0.188971	1.378328	-0.010103	6
C	0.526369	2.465648	0.706927	6
H	-0.745201	-3.217912	-0.821893	1
H	0.705109	-2.773022	0.097367	1
H	0.509449	-2.209672	-1.568433	1
H	-1.276151	-1.410462	0.792577	1
H	-1.487921	-0.861012	-0.868853	1
H	0.994299	-0.317422	0.863167	1
H	-1.215151	1.620808	-0.247273	1
H	1.576319	2.215378	0.894147	1
H	0.045829	2.659238	1.671247	1
H	0.496499	3.389158	0.119687	1
Es	-0.888826	1.542829	-0.181103	99
Es	0.470501	-2.658358	-0.130007	99
Es	1.230166	2.286346	0.833045	99
Es	-0.257231	-0.613863	0.002813	99
Es	0.337051	-2.276555	-1.269679	99
Es	0.177027	1.921897	0.353491	99
Es	0.875445	0.805676	-0.986607	99
Es	0.191978	2.589501	1.360544	99
Es	-0.102795	0.648555	0.294395	99
Es	0.289239	1.060707	-0.703745	99
Es	0.758975	-0.237542	0.628355	99
Es	-0.188788	1.378183	-0.010299	99
Es	-0.737583	-1.170675	-0.131483	99
Es	0.226133	-0.062145	0.144735	99
Es	0.596347	0.709137	-1.006271	99
Es	-0.025408	-2.415179	-0.635452	99
Es	0.501265	3.091471	0.301936	99
Es	0.427192	0.622672	-1.229509	99
Es	0.526346	2.465640	0.706928	99
Es	-1.099724	-1.329140	0.507574	99
Es	0.526635	0.322100	-0.608901	99
Es	-0.514306	-2.957602	-0.759196	99
Es	-1.243368	-0.951126	-0.630838	99
Es	-0.375817	-1.789355	-0.380907	99
40
Properties=species:S:1:pos:R:3:Z:I:1 energy=-270.0820224725894 field_type=dipole dipole="0.000000 0.000000 0.000000" charge=0
C	-0.025391	-2.415202	-0.635473	6
C	-0.737621	-1.170662	-0.131493	6
C	0.226068	-0.062322	0.144977	6
O	0.596469	0.709128	-1.006573	8
C	-0.188971	1.378328	-0.010103	6
C	0.526369	2.465648	0.706927	6
H	-0.745201	-3.217912	-0.821893	1
H	0.705109	-2.773022	0.097367	1
H	0.509449	-2.209672	-1.568433	1
H	-1.276151	-1.410462	0.792577	1
H	-1.487921	-0.861012	-0.868853	1
H	0.994299	-0.317422	0.863167	1
H	-1.215151	1.620808	-0.247273	1
H	1.576319	2.215378	0.894147	1
H	0.045829	2.659238	1.671247	1
H	0.496499	3.389158	0.119687	1
Es	-0.737584	-1.170675	-0.131483	99
Es	-0.103087	0.648322	0.295003	99
Es	0.470417	-2.658298	-0.130249	99
Es	1.229799	2.286050	0.832966	99
Es	-0.375954	-1.789347	-0.380909	99
Es	0.428924	0.622888	-1.228900	99
Es	0.758896	-0.237672	0.628125	99
Es	-0.025407	-2.415179	-0.635451	99
Es	-0.257233	-0.614083	0.002768	99
Es	-1.099965	-1.329005	0.507690	99
Es	0.191981	2.589154	1.360619	99
Es	0.873416	0.805616	-0.985920	99
Es	0.226139	-0.062145	0.144725	99
Es	0.596408	0.709132	-1.006408	99
Es	0.177180	1.922122	0.353421	99
Es	0.501385	3.091774	0.301714	99
Es	0.527679	0.321200	-0.609089	99
Es	0.288367	1.061619	-0.704663	99
Es	-0.888565	1.543065	-0.181218	99
Es	-0.188782	1.378184	-0.010298	99
Es	-1.243007	-0.950882	-0.630734	99
Es	0.526346	2.465638	0.706927	99
Es	-0.513919	-2.957536	-0.758945	99
Es	0.337020	-2.276767	-1.269869	99
40
Properties=species:S:1:pos:R:3:Z:I:1 energy=-270.0820224725894 field_type=dipole dipole="0.000000 0.000000 0.000000" charge=0
C	-0.025391	-2.415202	-0.635473	6
C	-0.737621	-1.170662	-0.131493	6
C	0.226068	-0.062322	0.144977	6
O	0.596469	0.709128	-1.006573	8
C	-0.188971	1.378328	-0.010103	6
C	0.526369	2.465648	0.706927	6
H	-0.745201	-3.217912	-0.821893	1
H	0.705109	-2.773022	0.097367	1
H	0.509449	-2.209672	-1.568433	1
H	-1.276151	-1.410462	0.792577	1
H	-1.487921	-0.861012	-0.868853	1
H	0.994299	-0.317422	0.863167	1
H	-1.215151	1.620808	-0.247273	1
H	1.576319	2.215378	0.894147	1
H	0.045829	2.659238	1.671247	1
H	0.496499	3.389158	0.119687	1
Es	-0.188785	1.378185	-0.010306	99
Es	0.526346	2.465640	0.706928	99
Es	0.527011	0.319730	-0.609938	99
Es	-0.257286	-0.614356	0.002686	99
Es	0.192106	2.588843	1.360792	99
Es	-0.103414	0.648252	0.295323	99
Es	-0.888287	1.543120	-0.181250	99
Es	-1.100035	-1.328806	0.507770	99
Es	1.229374	2.285961	0.832804	99
Es	0.470230	-2.658712	-0.130186	99
Es	0.429475	0.624126	-1.226567	99
Es	0.873046	0.804472	-0.987009	99
Es	-0.737584	-1.170674	-0.131483	99
Es	-0.375918	-1.789335	-0.380954	99
Es	-1.242819	-0.950604	-0.630688	99
Es	0.337032	-2.277069	-1.270058	99
Es	0.177328	1.922249	0.353512	99
Es	0.226134	-0.062146	0.144733	99
Es	0.758881	-0.237774	0.628043	99
Es	0.289012	1.063105	-0.705198	99
Es	0.596226	0.709078	-1.006288	99
Es	-0.025408	-2.415179	-0.635453	99
Es	0.501424	3.092023	0.301475	99
Es	-0.513634	-2.956956	-0.758869	99
40
Properties=species:S:1:pos:R:3:Z:I:1 energy=-270.0820224725894 field_type=dipole dipole="0.000000 0.000000 0.000000" charge=0
C	-0.025391	-2.415202	-0.635473	6
C	-0.737621	-1.170662	-0.131493	6
C	0.226068	-0.062322	0.144977	6
O	0.596469	0.709128	-1.006573	8
C	-0.188971	1.378328	-0.010103	6
C	0.526369	2.465648	0.706927	6
H	-0.745201	-3.217912	-0.821893	1
H	0.705109	-2.773022	0.097367	1
H	0.509449	-2.209672	-1.568433	1
H	-1.276151	-1.410462	0.792577	1
H	-1.487921	-0.861012	-0.868853	1
H	0.994299	-0.317422	0.863167	1
H	-1.215151	1.620808	-0.247273	1
H	1.576319	2.215378	0.894147	1
H	0.045829	2.659238	1.671247	1
H	0.496499	3.389158	0.119687	1
Es	-0.737584	-1.170675	-0.131483	99
Es	0.192145	2.588618	1.360914	99
Es	0.177446	1.922333	0.353330	99
Es	0.501579	3.092220	0.301350	99
Es	0.337130	-2.277159	-1.270123	99
Es	-1.100039	-1.328617	0.507873	99
Es	1.228994	2.285887	0.832733	99
Es	-0.103575	0.648168	0.295779	99
Es	-0.376040	-1.789416	-0.380920	99
Es	0.758795	-0.237776	0.627825	99
Es	-0.257322	-0.614591	0.002559	99
Es	0.470004	-2.659127	-0.130195	99
Es	-0.025408	-2.415178	-0.635452	99
Es	0.526346	2.465641	0.706928	99
Es	0.428559	0.623460	-1.223628	99
Es	-0.188791	1.378184	-0.010312	99
Es	0.872562	0.804489	-0.989870	99
Es	-1.242692	-0.950487	-0.630522	99
Es	0.528454	0.319661	-0.609131	99
Es	0.288793	1.063818	-0.705999	99
Es	-0.513299	-2.956494	-0.758970	99
Es	0.226132	-0.062143	0.144729	99
Es	-0.888065	1.543235	-0.181328	99
Es	0.596330	0.709121	-1.006267	99
40
Properties=species:S:1:pos:R:3:Z:I:1 energy=-270.0820224725894 field_type=dipole dipole="0.000000 0.000000 0.000000" charge=0
C	-0.025391	-2.415202	-0.635473	6
C	-0.737621	-1.170662	-0.131493	6
C	0.226068	-0.062322	0.144977	6
O	0.596469	0.709128	-1.006573	8
C	-0.188971	1.378328	-0.010103	6
C	0.526369	2.465648	0.706927	6
H	-0.745201	-3.217912	-0.821893	1
H	0.705109	-2.773022	0.097367	1
H	0.509449	-2.209672	-1.568433	1
H	-1.276151	-1.410462	0.792577	1
H	-1.487921	-0.861012	-0.868853	1
H	0.994299	-0.317422	0.863167	1
H	-1.215151	1.620808	-0.247273	1
H	1.576319	2.215378	0.894147	1
H	0.045829	2.659238	1.671247	1
H	0.496499	3.389158	0.119687	1
Es	0.288939	1.064875	-0.706743	99
Es	0.596323	0.709122	-1.006245	99
Es	0.192116	2.588322	1.360909	99
Es	-0.257359	-0.614878	0.002502	99
Es	0.758697	-0.237751	0.627698	99
Es	1.228634	2.286019	0.832820	99
Es	-1.242534	-0.950341	-0.630551	99
Es	-1.100125	-1.328426	0.507914	99
Es	-0.025407	-2.415179	-0.635452	99
Es	0.526346	2.465641	0.706929	99
Es	-0.737584	-1.170675	-0.131483	99
Es	-0.375979	-1.789385	-0.380910	99
Es	0.428631	0.623530	-1.221524	99
Es	0.177611	1.922416	0.353323	99
Es	0.469749	-2.659452	-0.130104	99
Es	-0.887838	1.543093	-0.181417	99
Es	-0.513109	-2.956074	-0.759008	99
Es	0.226136	-0.062145	0.144727	99
Es	0.501593	3.092429	0.301156	99
Es	0.528971	0.319175	-0.609078	99
Es	-0.103746	0.648112	0.296113	99
Es	0.337270	-2.277378	-1.270160	99
Es	0.871903	0.803938	-0.991290	99
Es	-0.188784	1.378188	-0.010305	99
40
Properties=species:S:1:pos:R:3:Z:I:1 energy=-270.0820224725894 field_type=dipole dipole="0.000000 0.000000 0.000000" charge=0
C	-0.025391	-2.415202	-0.635473	6
C	-0.737621	-1.170662	-0.131493	6
C	0.226068	-0.062322	0.144977	6
O	0.596469	0.709128	-1.006573	8
C	-0.188971	1.378328	-0.010103	6
C	0.526369	2.465648	0.706927	6
H	-0.745201	-3.217912	-0.821893	1
H	0.705109	-2.773022	0.097367	1
H	0.509449	-2.209672	-1.568433	1
H	-1.276151	-1.410462	0.792577	1
H	-1.487921	-0.861012	-0.868853	1
H	0.994299	-0.317422	0.863167	1
H	-1.215151	1.620808	-0.247273	1
H	1.576319	2.215378	0.894147	1
H	0.045829	2.659238	1.671247	1
H	0.496499	3.389158	0.119687	1
Es	0.870867	0.803644	-0.989015	99
Es	0.192190	2.588152	1.361029	99
Es	0.469408	-2.659775	-0.130115	99
Es	0.177654	1.922677	0.353319	99
Es	-0.025408	-2.415179	-0.635452	99
Es	0.337507	-2.277455	-1.270184	99
Es	0.501662	3.092557	0.301000	99
Es	0.288878	1.065184	-0.706644	99
Es	0.758714	-0.237864	0.627681	99
Es	-1.100248	-1.328342	0.507922	99
Es	1.228424	2.285741	0.832643	99
Es	0.430458	0.625109	-1.222390	99
Es	-0.103840	0.648026	0.296345	99
Es	-1.242328	-0.950180	-0.630439	99
Es	0.226135	-0.062147	0.144732	99
Es	-0.375968	-1.789410	-0.380910	99
Es	-0.257470	-0.614930	0.002506	99
Es	-0.887701	1.543190	-0.181393	99
Es	-0.737584	-1.170675	-0.131483	99
Es	-0.512926	-2.955726	-0.759112	99
Es	-0.188784	1.378179	-0.010306	99
Es	0.526346	2.465640	0.706928	99
Es	0.528193	0.317663	-0.610544	99
Es	0.596274	0.709095	-1.006300	99
40
Properties=species:S:1:pos:R:3:Z:I:1 energy=-270.0820224725894 field_type=dipole dipole="0.000000 0.000000 0.000000" charge=0
C	-0.025391	-2.415202	-0.635473	6
C	-0.737621	-1.170662	-0.131493	6
C	0.226068	-0.062322	0.144977	6
O	0.596469	0.709128	-1.006573	8
C	-0.188971	1.378328	-0.010103	6
C	0.526369	2.465648	0.706927	6
H	-0.745201	-3.217912	-0.821893	1
H	0.705109	-2.773022	0.097367	1
H	0.509449	-2.209672	-1.568433	1
H	-1.276151	-1.410462	0.792577	1
H	-1.487921	-0.861012	-0.868853	1
H	0.994299	-0.317422	0.863167	1
H	-1.215151	1.620808	-0.247273	1
H	1.576319	2.215378	0.894147	1
H	0.045829	2.659238	1.671247	1
H	0.496499	3.389158	0.119687	1
Es	1.228204	2.285602	0.832566	99
Es	0.526346	2.465641	0.706928	99
Es	0.758683	-0.237885	0.627461	99
Es	-0.887506	1.543324	-0.181434	99
Es	0.431065	0.624858	-1.221635	99
Es	-0.257503	-0.614976	0.002320	99
Es	0.870068	0.803132	-0.989198	99
Es	-0.376025	-1.789377	-0.380950	99
Es	0.596350	0.709138	-1.006197	99
Es	0.528288	0.317593	-0.610132	99
Es	0.226134	-0.062146	0.144727	99
Es	-0.104030	0.647930	0.296645	99
Es	0.337350	-2.277730	-1.270306	99
Es	0.469484	-2.659658	-0.130221	99
Es	0.288852	1.066079	-0.707742	99
Es	-0.512724	-2.955691	-0.758854	99
Es	-1.100264	-1.328130	0.508043	99
Es	0.177756	1.922775	0.353363	99
Es	0.501690	3.092767	0.300939	99
Es	-0.025408	-2.415179	-0.635453	99
Es	-0.737584	-1.170675	-0.131484	99
Es	0.192241	2.587880	1.361059	99
Es	-1.242226	-0.950283	-0.630321	99
Es	-0.188785	1.378183	-0.010305	99
40
Properties=species:S:1:pos:R:3:Z:I:1 energy=-270.0820224725894 field_type=dipole dipole="0.000000 0.000000 0.000000" charge=0
C	-0.025391	-2.415202	-0.635473	6
C	-0.737621	-1.170662	-0.131493	6
C	0.226068	-0.062322	0.144977	6
O	0.596469	0.709128	-1.006573	8
C	-0.188971	1.378328	-0.010103	6
C	0.526369	2.465648	0.706927	6
H	-0.745201	-3.217912	-0.821893	1
H	0.705109	-2.773022	0.097367	1
H	0.509449	-2.209672	-1.568433	1
H	-1.276151	-1.410462	0.792577	1
H	-1.487921	-0.861012	-0.868853	1
H	0.994299	-0.317422	0.863167	1
H	-1.215151	1.620808	-0.247273	1
H	1.576319	2.215378	0.894147	1
H	0.045829	2.659238	1.671247	1
H	0.496499	3.389158	0.119687	1
Es	0.469502	-2.660299	-0.130037	99
Es	0.192507	2.587913	1.361232	99
Es	-0.257439	-0.615533	0.002353	99
Es	-0.104335	0.647854	0.296793	99
Es	0.501812	3.092832	0.300857	99
Es	0.226137	-0.062146	0.144729	99
Es	-1.242238	-0.949677	-0.630528	99
Es	1.227655	2.286174	0.832584	99
Es	0.871673	0.801792	-1.000558	99
Es	-0.887251	1.543212	-0.181536	99
Es	0.177870	1.922321	0.353255	99
Es	0.291042	1.067587	-0.706965	99
Es	-0.512585	-2.954997	-0.758959	99
Es	0.530347	0.318129	-0.609259	99
Es	-0.376009	-1.789360	-0.380952	99
Es	0.758682	-0.237992	0.627493	99
Es	-1.100136	-1.328010	0.508107	99
Es	-0.737584	-1.170675	-0.131484	99
Es	0.337153	-2.277870	-1.270381	99
Es	0.596345	0.709134	-1.006218	99
Es	-0.025408	-2.415179	-0.635453	99
Es	-0.188785	1.378184	-0.010305	99
Es	0.526346	2.465640	0.706928	99
Es	0.425153	0.624138	-1.211877	99
40
Properties=species:S:1:pos:R:3:Z:I:1 energy=-270.0820224725894 field_type=dipole dipole="0.000000 0.000000 0.000000" charge=0
C	-0.025391	-2.415202	-0.635473	6
C	-0.737621	-1.170662	-0.131493	6
C	0.226068	-0.062322	0.144977	6
O	0.596469	0.709128	-1.006573	8
C	-0.188971	1.378328	-0.010103	6
C	0.526369	2.465648	0.706927	6
H	-0.745201	-3.217912	-0.821893	1
H	0.705109	-2.773022	0.097367	1
H	0.509449	-2.209672	-1.568433	1
H	-1.276151	-1.410462	0.792577	1
H	-1.487921	-0.861012	-0.868853	1
H	0.994299	-0.317422	0.863167	1
H	-1.215151	1.620808	-0.247273	1
H	1.576319	2.215378	0.894147	1
H	0.045829	2.659238	1.671247	1
H	0.496499	3.389158	0.119687	1
Es	-0.104330	0.647819	0.296945	99
Es	-0.376068	-1.789428	-0.380962	99
Es	-1.242068	-0.949950	-0.630244	99
Es	0.337293	-2.277940	-1.270453	99
Es	0.192370	2.587590	1.361195	99
Es	-0.512430	-2.954936	-0.758899	99
Es	0.869767	0.802873	-0.993804	99
Es	-0.188785	1.378185	-0.010306	99
Es	0.595990	0.708995	-1.006340	99
Es	0.429760	0.624880	-1.216542	99
Es	-0.025408	-2.415179	-0.635453	99
Es	-0.887168	1.543270	-0.181507	99
Es	0.226136	-0.062144	0.144729	99
Es	0.758568	-0.237793	0.627344	99
Es	-0.737583	-1.170675	-0.131484	99
Es	0.469307	-2.660300	-0.130142	99
Es	-0.257475	-0.615481	0.002250	99
Es	1.227599	2.285764	0.832526	99
Es	0.501835	3.093009	0.300739	99
Es	0.177982	1.922810	0.353312	99
Es	0.526343	2.465639	0.706927	99
Es	0.530091	0.317014	-0.610082	99
Es	0.288981	1.067040	-0.708093	99
Es	-1.100254	-1.327889	0.508162	99
40
Properties=species:S:1:pos:R:3:Z:I:1 energy=-270.0820224725894 field_type=dipole dipole="0.000000 0.000000 0.000000" charge=0
C	-0.025391	-2.415202	-0.635473	6
C	-0.737621	-1.170662	-0.131493	6
C	0.226068	-0.062322	0.144977	6
O	0.596469	0.709128	-1.006573	8
C	-0.188971	1.378328	-0.010103	6
C	0.526369	2.465648	0.706927	6
H	-0.745201	-3.217912	-0.821893	1
H	0.705109	-2.773022	0.097367	1
H	0.509449	-2.209672	-1.568433	1
H	-1.276151	-1.410462	0.792577	1
H	-1.487921	-0.861012	-0.868853	1
H	0.994299	-0.317422	0.863167	1
H	-1.215151	1.620808	-0.247273	1
H	1.576319	2.215378	0.894147	1
H	0.045829	2.659238	1.671247	1
H	0.496499	3.389158	0.119687	1
Es	0.758566	-0.237819	0.627316	99
Es	0.337305	-2.278059	-1.270520	99
Es	1.227394	2.285682	0.832382	99
Es	0.192504	2.587465	1.361298	99
Es	0.596158	0.709060	-1.006277	99
Es	0.469225	-2.660374	-0.130155	99
Es	-1.241955	-0.949850	-0.630206	99
Es	-0.104425	0.647792	0.297116	99
Es	-0.737584	-1.170675	-0.131483	99
Es	0.501879	3.093121	0.300695	99
Es	0.526346	2.465640	0.706928	99
Es	-0.887078	1.543302	-0.181520	99
Es	-0.025408	-2.415179	-0.635452	99
Es	0.429699	0.625125	-1.215653	99
Es	-1.100312	-1.327832	0.508199	99
Es	-0.257457	-0.615584	0.002219	99
Es	0.226138	-0.062146	0.144730	99
Es	0.289341	1.067685	-0.708356	99
Es	-0.188784	1.378183	-0.010306	99
Es	-0.376120	-1.789421	-0.380998	99
Es	-0.512273	-2.954779	-0.758837	99
Es	0.529956	0.316635	-0.610287	99
Es	0.869369	0.802322	-0.994283	99
Es	0.177969	1.922881	0.353270	99
