36
Properties=species:S:1:pos:R:3:Z:I:1 energy=-231.86440576467606 field_type=dipole dipole="0.000000 0.000000 0.000000" charge=0
C	-1.700639	-1.184447	-0.001104	6
C	-0.217019	-1.001627	-0.001824	6
C	0.429411	0.179623	-0.000824	6
C	-0.265399	1.515473	0.002146	6
C	1.835411	0.179623	-0.000824	6
C	3.025571	0.179623	-0.000824	6
H	-1.943189	-2.251137	-0.012414	1
H	-2.153399	-0.733317	-0.889924	1
H	-2.149079	-0.752847	0.900076	1
H	0.363241	-1.922787	-0.002854	1
H	-1.355509	1.432843	-0.000744	1
H	0.022171	2.093613	-0.882734	1
H	0.017931	2.087143	0.892686	1
H	4.090501	0.178223	-0.000834	1
Es	-0.069840	1.891509	0.602286	99
Es	-1.861421	-1.909168	-0.008762	99
Es	0.089033	0.839432	0.000360	99
Es	0.172360	-1.627470	-0.002525	99
Es	-0.217100	-1.001699	-0.001831	99
Es	2.439615	-0.178255	0.023196	99
Es	1.835167	0.179631	-0.000824	99
Es	-1.002835	1.447249	0.000159	99
Es	-0.066982	1.895948	-0.594250	99
Es	0.142326	-0.390822	-0.325839	99
Es	2.431220	0.379197	0.294363	99
Es	-0.960460	-1.083461	-0.001643	99
Es	1.155567	0.189464	-0.000833	99
Es	0.429537	0.179751	-0.000827	99
Es	-1.993952	-0.886260	0.604484	99
Es	0.142441	-0.391510	0.323102	99
Es	-1.997100	-0.872985	-0.598320	99
Es	-1.700592	-1.184441	-0.001104	99
Es	-0.265371	1.515415	0.002145	99
Es	3.721922	0.178571	-0.000803	99
Es	2.429506	0.336167	-0.320076	99
Es	3.025843	0.179621	-0.000832	99
36
Properties=species:S:1:pos:R:3:Z:I:1 energy=-231.86440576467606 field_type=dipole dipole="0.000000 0.000000 0.000000" charge=0
C	-1.700639	-1.184447	-0.001104	6
C	-0.217019	-1.001627	-0.001824	6
C	0.429411	0.179623	-0.000824	6
C	-0.265399	1.515473	0.002146	6
C	1.835411	0.179623	-0.000824	6
C	3.025571	0.179623	-0.000824	6
H	-1.943189	-2.251137	-0.012414	1
H	-2.153399	-0.733317	-0.889924	1
H	-2.149079	-0.752847	0.900076	1
H	0.363241	-1.922787	-0.002854	1
H	-1.355509	1.432843	-0.000744	1
H	0.022171	2.093613	-0.882734	1
H	0.017931	2.087143	0.892686	1
H	4.090501	0.178223	-0.000834	1
Es	2.438082	0.523056	-0.111235	99
Es	-1.994263	-0.887423	0.598647	99
Es	3.723710	0.183843	-0.000201	99
Es	0.429538	0.179752	-0.000815	99
Es	-1.865733	-1.909937	-0.008718	99
Es	0.141807	-0.390229	-0.322116	99
Es	-0.217104	-1.001703	-0.001826	99
Es	-0.958356	-1.081288	-0.001405	99
Es	-0.265373	1.515415	0.002146	99
Es	1.835153	0.179618	-0.000819	99
Es	2.435245	-0.097790	-0.220615	99
Es	0.172515	-1.624796	-0.002505	99
Es	2.426863	0.110491	0.328636	99
Es	3.025844	0.179628	-0.000823	99
Es	-1.008561	1.446990	0.000147	99
Es	0.090702	0.839383	0.000455	99
Es	-0.064926	1.894581	-0.590773	99
Es	-0.067784	1.890121	0.598802	99
Es	0.141733	-0.391052	0.319148	99
Es	-1.997539	-0.873966	-0.592752	99
Es	1.157922	0.185628	-0.000648	99
Es	-1.700591	-1.184439	-0.001104	99
36
Properties=species:S:1:pos:R:3:Z:I:1 energy=-231.86440576467606 field_type=dipole dipole="0.000000 0.000000 0.000000" charge=0
C	-1.700639	-1.184447	-0.001104	6
C	-0.217019	-1.001627	-0.001824	6
C	0.429411	0.179623	-0.000824	6
C	-0.265399	1.515473	0.002146	6
C	1.835411	0.179623	-0.000824	6
C	3.025571	0.179623	-0.000824	6
H	-1.943189	-2.251137	-0.012414	1
H	-2.153399	-0.733317	-0.889924	1
H	-2.149079	-0.752847	0.900076	1
H	0.363241	-1.922787	-0.002854	1
H	-1.355509	1.432843	-0.000744	1
H	0.022171	2.093613	-0.882734	1
H	0.017931	2.087143	0.892686	1
H	4.090501	0.178223	-0.000834	1
Es	-0.265372	1.515415	0.002146	99
Es	0.091817	0.839252	0.000718	99
Es	-1.868924	-1.910296	-0.009072	99
Es	0.141776	-0.390846	0.317597	99
Es	3.025851	0.179630	-0.000825	99
Es	1.835150	0.179612	-0.000825	99
Es	-0.957589	-1.080152	-0.001797	99
Es	-1.996542	-0.875142	-0.588233	99
Es	3.724182	0.186600	-0.001453	99
Es	-0.066846	1.889215	0.596689	99
Es	-0.217106	-1.001702	-0.001822	99
Es	1.159201	0.183866	-0.000956	99
Es	0.172117	-1.622696	-0.002674	99
Es	2.436081	-0.115400	0.199165	99
Es	-1.010973	1.446538	0.000251	99
Es	2.437582	0.524836	0.109426	99
Es	-1.700592	-1.184438	-0.001108	99
Es	0.429542	0.179755	-0.000823	99
Es	2.426395	0.126027	-0.310281	99
Es	0.141274	-0.390114	-0.320596	99
Es	-0.064053	1.893660	-0.588774	99
Es	-1.994088	-0.887737	0.594871	99
36
Properties=species:S:1:pos:R:3:Z:I:1 energy=-231.86440576467606 field_type=dipole dipole="0.000000 0.000000 0.000000" charge=0
C	-1.700639	-1.184447	-0.001104	6
C	-0.217019	-1.001627	-0.001824	6
C	0.429411	0.179623	-0.000824	6
C	-0.265399	1.515473	0.002146	6
C	1.835411	0.179623	-0.000824	6
C	3.025571	0.179623	-0.000824	6
H	-1.943189	-2.251137	-0.012414	1
H	-2.153399	-0.733317	-0.889924	1
H	-2.149079	-0.752847	0.900076	1
H	0.363241	-1.922787	-0.002854	1
H	-1.355509	1.432843	-0.000744	1
H	0.022171	2.093613	-0.882734	1
H	0.017931	2.087143	0.892686	1
H	4.090501	0.178223	-0.000834	1
Es	2.425780	0.155607	0.289770	99
Es	-0.265374	1.515416	0.002145	99
Es	-0.066524	1.888107	0.595286	99
Es	-0.063276	1.893400	-0.587467	99
Es	3.724272	0.188484	-0.000130	99
Es	0.429540	0.179756	-0.000821	99
Es	1.835151	0.179611	-0.000823	99
Es	-1.700591	-1.184440	-0.001103	99
Es	-1.992348	-0.888822	0.590792	99
Es	-1.996337	-0.875068	-0.585386	99
Es	-0.217107	-1.001704	-0.001825	99
Es	3.025852	0.179635	-0.000821	99
Es	-0.957258	-1.079519	-0.001293	99
Es	2.437194	0.519098	-0.126347	99
Es	-1.871883	-1.910414	-0.008364	99
Es	1.159949	0.183274	-0.000687	99
Es	0.092980	0.838979	0.000225	99
Es	0.141399	-0.390660	0.317397	99
Es	2.437117	-0.139859	-0.166742	99
Es	0.141328	-0.390100	-0.320074	99
Es	0.171243	-1.620846	-0.002400	99
Es	-1.012223	1.445946	0.000294	99
36
Properties=species:S:1:pos:R:3:Z:I:1 energy=-231.86440576467606 field_type=dipole dipole="0.000000 0.000000 0.000000" charge=0
C	-1.700639	-1.184447	-0.001104	6
C	-0.217019	-1.001627	-0.001824	6
C	0.429411	0.179623	-0.000824	6
C	-0.265399	1.515473	0.002146	6
C	1.835411	0.179623	-0.000824	6
C	3.025571	0.179623	-0.000824	6
H	-1.943189	-2.251137	-0.012414	1
H	-2.153399	-0.733317	-0.889924	1
H	-2.149079	-0.752847	0.900076	1
H	0.363241	-1.922787	-0.002854	1
H	-1.355509	1.432843	-0.000744	1
H	0.022171	2.093613	-0.882734	1
H	0.017931	2.087143	0.892686	1
H	4.090501	0.178223	-0.000834	1
Es	-1.874333	-1.909969	-0.009619	99
Es	0.169989	-1.619123	-0.002832	99
Es	-1.700592	-1.184437	-0.001105	99
Es	0.094100	0.838255	0.000775	99
Es	-1.992755	-0.888179	0.589265	99
Es	-1.994126	-0.876426	-0.581970	99
Es	2.425587	0.156407	-0.265193	99
Es	3.724333	0.189322	-0.001389	99
Es	1.160429	0.183365	-0.000898	99
Es	2.437050	-0.147115	0.153755	99
Es	-1.012968	1.445460	0.000265	99
Es	-0.063320	1.892184	-0.586291	99
Es	1.835153	0.179608	-0.000835	99
Es	2.437449	0.525438	0.109578	99
Es	-0.217107	-1.001703	-0.001827	99
Es	0.429542	0.179754	-0.000815	99
Es	0.140851	-0.389706	-0.320817	99
Es	0.141635	-0.390831	0.317631	99
Es	-0.265373	1.515415	0.002146	99
Es	-0.956998	-1.079560	-0.001921	99
Es	-0.065517	1.888089	0.594547	99
Es	3.025854	0.179637	-0.000825	99
36
Properties=species:S:1:pos:R:3:Z:I:1 energy=-231.86440576467606 field_type=dipole dipole="0.000000 0.000000 0.000000" charge=0
C	-1.700639	-1.184447	-0.001104	6
C	-0.217019	-1.001627	-0.001824	6
C	0.429411	0.179623	-0.000824	6
C	-0.265399	1.515473	0.002146	6
C	1.835411	0.179623	-0.000824	6
C	3.025571	0.179623	-0.000824	6
H	-1.943189	-2.251137	-0.012414	1
H	-2.153399	-0.733317	-0.889924	1
H	-2.149079	-0.752847	0.900076	1
H	0.363241	-1.922787	-0.002854	1
H	-1.355509	1.432843	-0.000744	1
H	0.022171	2.093613	-0.882734	1
H	0.017931	2.087143	0.892686	1
H	4.090501	0.178223	-0.000834	1
Es	0.141445	-0.389705	-0.321848	99
Es	2.437346	-0.161503	0.124454	99
Es	-0.062353	1.892170	-0.585945	99
Es	2.437459	0.524006	0.112752	99
Es	-0.265373	1.515414	0.002145	99
Es	-0.956846	-1.079670	-0.001773	99
Es	3.025854	0.179645	-0.000826	99
Es	0.168391	-1.617227	-0.002488	99
Es	-1.993697	-0.876722	-0.580435	99
Es	-0.217108	-1.001703	-0.001823	99
Es	1.160674	0.183681	-0.000871	99
Es	0.140936	-0.390770	0.318685	99
Es	1.835148	0.179608	-0.000825	99
Es	2.425318	0.171974	-0.239188	99
Es	-0.065533	1.887035	0.593793	99
Es	-1.013381	1.445069	0.000301	99
Es	-1.991815	-0.888551	0.587093	99
Es	-1.876124	-1.909400	-0.009071	99
Es	3.724360	0.189837	-0.001276	99
Es	0.429542	0.179759	-0.000824	99
Es	-1.700601	-1.184428	-0.001118	99
Es	0.095239	0.837364	0.000713	99
36
Properties=species:S:1:pos:R:3:Z:I:1 energy=-231.86440576467606 field_type=dipole dipole="0.000000 0.000000 0.000000" charge=0
C	-1.700639	-1.184447	-0.001104	6
C	-0.217019	-1.001627	-0.001824	6
C	0.429411	0.179623	-0.000824	6
C	-0.265399	1.515473	0.002146	6
C	1.835411	0.179623	-0.000824	6
C	3.025571	0.179623	-0.000824	6
H	-1.943189	-2.251137	-0.012414	1
H	-2.153399	-0.733317	-0.889924	1
H	-2.149079	-0.752847	0.900076	1
H	0.363241	-1.922787	-0.002854	1
H	-1.355509	1.432843	-0.000744	1
H	0.022171	2.093613	-0.882734	1
H	0.017931	2.087143	0.892686	1
H	4.090501	0.178223	-0.000834	1
Es	3.025853	0.179648	-0.000820	99
Es	-0.265372	1.515416	0.002146	99
Es	-0.066171	1.885265	0.592981	99
Es	0.166773	-1.615471	-0.002177	99
Es	-0.061117	1.893085	-0.585431	99
Es	1.835148	0.179606	-0.000831	99
Es	0.429543	0.179753	-0.000818	99
Es	0.141328	-0.390200	0.320089	99
Es	0.140825	-0.390095	-0.322846	99
Es	-1.878335	-1.908804	-0.007468	99
Es	-1.700591	-1.184440	-0.001104	99
Es	3.724417	0.189906	-0.000556	99
Es	-1.013651	1.444804	0.000256	99
Es	-0.217108	-1.001703	-0.001824	99
Es	-1.988640	-0.890557	0.584026	99
Es	2.425238	0.165000	0.214422	99
Es	-0.956734	-1.079849	-0.001210	99
Es	0.096743	0.836240	0.000388	99
Es	2.437087	-0.161805	-0.125065	99
Es	1.160816	0.183977	-0.000960	99
Es	-1.994985	-0.875074	-0.579537	99
Es	2.437814	0.531182	-0.092036	99
36
Properties=species:S:1:pos:R:3:Z:I:1 energy=-231.86440576467606 field_type=dipole dipole="0.000000 0.000000 0.000000" charge=0
C	-1.700639	-1.184447	-0.001104	6
C	-0.217019	-1.001627	-0.001824	6
C	0.429411	0.179623	-0.000824	6
C	-0.265399	1.515473	0.002146	6
C	1.835411	0.179623	-0.000824	6
C	3.025571	0.179623	-0.000824	6
H	-1.943189	-2.251137	-0.012414	1
H	-2.153399	-0.733317	-0.889924	1
H	-2.149079	-0.752847	0.900076	1
H	0.363241	-1.922787	-0.002854	1
H	-1.355509	1.432843	-0.000744	1
H	0.022171	2.093613	-0.882734	1
H	0.017931	2.087143	0.892686	1
H	4.090501	0.178223	-0.000834	1
Es	-1.990754	-0.888376	0.583828	99
Es	3.025854	0.179647	-0.000825	99
Es	2.437914	0.532428	0.085104	99
Es	3.724482	0.189793	-0.001084	99
Es	0.164907	-1.613428	-0.002788	99
Es	2.425095	0.171227	-0.189814	99
Es	0.141587	-0.390774	0.321500	99
Es	1.835147	0.179608	-0.000820	99
Es	2.437128	-0.169280	0.102382	99
Es	-1.013838	1.444716	0.000319	99
Es	0.140634	-0.389640	-0.324425	99
Es	-1.991276	-0.877642	-0.576805	99
Es	-1.880176	-1.908079	-0.009551	99
Es	0.098159	0.834839	0.000646	99
Es	-0.217105	-1.001703	-0.001824	99
Es	1.160877	0.184351	-0.000803	99
Es	-0.064510	1.886714	0.592900	99
Es	-1.700596	-1.184432	-0.001115	99
Es	0.429543	0.179756	-0.000830	99
Es	-0.265373	1.515414	0.002145	99
Es	-0.956643	-1.080090	-0.001667	99
Es	-0.062172	1.890834	-0.584846	99
36
Properties=species:S:1:pos:R:3:Z:I:1 energy=-231.86440576467606 field_type=dipole dipole="0.000000 0.000000 0.000000" charge=0
C	-1.700639	-1.184447	-0.001104	6
C	-0.217019	-1.001627	-0.001824	6
C	0.429411	0.179623	-0.000824	6
C	-0.265399	1.515473	0.002146	6
C	1.835411	0.179623	-0.000824	6
C	3.025571	0.179623	-0.000824	6
H	-1.943189	-2.251137	-0.012414	1
H	-2.153399	-0.733317	-0.889924	1
H	-2.149079	-0.752847	0.900076	1
H	0.363241	-1.922787	-0.002854	1
H	-1.355509	1.432843	-0.000744	1
H	0.022171	2.093613	-0.882734	1
H	0.017931	2.087143	0.892686	1
H	4.090501	0.178223	-0.000834	1
Es	-0.064816	1.886010	0.592291	99
Es	-1.013978	1.444777	0.000261	99
Es	3.025855	0.179642	-0.000825	99
Es	1.160892	0.184660	-0.000846	99
Es	2.438040	0.533787	0.078537	99
Es	1.835148	0.179604	-0.000825	99
Es	0.100079	0.833041	0.000733	99
Es	-0.956573	-1.080268	-0.001746	99
Es	-0.061750	1.891056	-0.584329	99
Es	0.140840	-0.389499	-0.325935	99
Es	-0.265373	1.515415	0.002146	99
Es	2.437096	-0.173420	0.087636	99
Es	0.429544	0.179754	-0.000825	99
Es	-1.882459	-1.907280	-0.008906	99
Es	2.425014	0.173930	-0.168493	99
Es	0.163247	-1.611548	-0.002705	99
Es	-1.989404	-0.888648	0.581739	99
Es	-0.217107	-1.001708	-0.001826	99
Es	-1.990542	-0.877794	-0.575295	99
Es	-1.700591	-1.184440	-0.001105	99
Es	0.141172	-0.390774	0.322980	99
Es	3.724549	0.189585	-0.001039	99
36
Properties=species:S:1:pos:R:3:Z:I:1 energy=-231.86440576467606 field_type=dipole dipole="0.000000 0.000000 0.000000" charge=0
C	-1.700639	-1.184447	-0.001104	6
C	-0.217019	-1.001627	-0.001824	6
C	0.429411	0.179623	-0.000824	6
C	-0.265399	1.515473	0.002146	6
C	1.835411	0.179623	-0.000824	6
C	3.025571	0.179623	-0.000824	6
H	-1.943189	-2.251137	-0.012414	1
H	-2.153399	-0.733317	-0.889924	1
H	-2.149079	-0.752847	0.900076	1
H	0.363241	-1.922787	-0.002854	1
H	-1.355509	1.432843	-0.000744	1
H	0.022171	2.093613	-0.882734	1
H	0.017931	2.087143	0.892686	1
H	4.090501	0.178223	-0.000834	1
Es	3.724625	0.189266	-0.000889	99
Es	-0.217109	-1.001702	-0.001823	99
Es	2.438136	0.537351	0.062445	99
Es	-1.883487	-1.906562	-0.009516	99
Es	-0.061093	1.891584	-0.584031	99
Es	-1.988981	-0.888946	0.581232	99
Es	0.140908	-0.389603	-0.327937	99
Es	-0.065365	1.885067	0.591652	99
Es	2.437082	-0.177655	0.067942	99
Es	-1.990120	-0.877670	-0.574373	99
Es	-1.014066	1.444845	0.000282	99
Es	2.424911	0.174726	-0.132750	99
Es	0.102234	0.830736	0.000966	99
Es	0.161022	-1.608952	-0.002740	99
Es	3.025855	0.179639	-0.000834	99
Es	0.141188	-0.390858	0.325093	99
Es	1.160912	0.184854	-0.000856	99
Es	1.835148	0.179603	-0.000822	99
Es	-1.700591	-1.184443	-0.001104	99
Es	-0.956497	-1.080568	-0.001632	99
Es	-0.265373	1.515415	0.002148	99
Es	0.429544	0.179756	-0.000827	99
36
Properties=species:S:1:pos:R:3:Z:I:1 energy=-231.86440576467606 field_type=dipole dipole="0.000000 0.000000 0.000000" charge=0
C	-1.700639	-1.184447	-0.001104	6
C	-0.217019	-1.001627	-0.001824	6
C	0.429411	0.179623	-0.000824	6
C	-0.265399	1.515473	0.002146	6
C	1.835411	0.179623	-0.000824	6
C	3.025571	0.179623	-0.000824	6
H	-1.943189	-2.251137	-0.012414	1
H	-2.153399	-0.733317	-0.889924	1
H	-2.149079	-0.752847	0.900076	1
H	0.363241	-1.922787	-0.002854	1
H	-1.355509	1.432843	-0.000744	1
H	0.022171	2.093613	-0.882734	1
H	0.017931	2.087143	0.892686	1
H	4.090501	0.178223	-0.000834	1
Es	0.429543	0.179752	-0.000818	99
Es	-1.985490	-0.891274	0.578518	99
Es	-1.014145	1.444987	0.000258	99
Es	2.437033	-0.178729	-0.062959	99
Es	-0.956463	-1.080665	-0.001456	99
Es	-1.991464	-0.875881	-0.573442	99
Es	2.424862	0.173014	0.107017	99
Es	2.438246	0.540086	-0.046619	99
Es	-1.700591	-1.184439	-0.001104	99
Es	0.140559	-0.390103	-0.329412	99
Es	3.025855	0.179644	-0.000824	99
Es	-0.217110	-1.001702	-0.001824	99
Es	-1.885748	-1.905684	-0.007809	99
Es	1.160920	0.184917	-0.000814	99
Es	-0.265374	1.515418	0.002150	99
Es	-0.066193	1.884296	0.590729	99
Es	-0.060798	1.892280	-0.583356	99
Es	0.141662	-0.390608	0.326554	99
Es	0.104450	0.828745	0.000942	99
Es	0.159305	-1.606806	-0.002553	99
Es	1.835148	0.179604	-0.000819	99
Es	3.724674	0.189030	-0.000734	99
36
Properties=species:S:1:pos:R:3:Z:I:1 energy=-231.86440576467606 field_type=dipole dipole="0.000000 0.000000 0.000000" charge=0
C	-1.700639	-1.184447	-0.001104	6
C	-0.217019	-1.001627	-0.001824	6
C	0.429411	0.179623	-0.000824	6
C	-0.265399	1.515473	0.002146	6
C	1.835411	0.179623	-0.000824	6
C	3.025571	0.179623	-0.000824	6
H	-1.943189	-2.251137	-0.012414	1
H	-2.153399	-0.733317	-0.889924	1
H	-2.149079	-0.752847	0.900076	1
H	0.363241	-1.922787	-0.002854	1
H	-1.355509	1.432843	-0.000744	1
H	0.022171	2.093613	-0.882734	1
H	0.017931	2.087143	0.892686	1
H	4.090501	0.178223	-0.000834	1
Es	-1.014187	1.445077	0.000232	99
Es	-1.886666	-1.905046	-0.007238	99
Es	-0.060643	1.893055	-0.582662	99
Es	0.141630	-0.390796	0.328261	99
Es	-0.217108	-1.001705	-0.001822	99
Es	-1.990634	-0.876527	-0.573174	99
Es	0.106572	0.826449	0.000695	99
Es	3.025856	0.179640	-0.000824	99
Es	-0.066651	1.883428	0.590364	99
Es	-0.265374	1.515414	0.002146	99
Es	3.724730	0.188764	-0.000705	99
Es	1.160924	0.184989	-0.000868	99
Es	0.140690	-0.390201	-0.331164	99
Es	-1.700592	-1.184439	-0.001106	99
Es	1.835147	0.179608	-0.000824	99
Es	-1.985519	-0.890819	0.577636	99
Es	0.157455	-1.604311	-0.002499	99
Es	2.424785	0.173972	0.056022	99
Es	2.436972	-0.181963	-0.037543	99
Es	-0.956423	-1.080857	-0.001450	99
Es	2.438374	0.542397	-0.021034	99
Es	0.429544	0.179758	-0.000818	99
36
Properties=species:S:1:pos:R:3:Z:I:1 energy=-231.86440576467606 field_type=dipole dipole="0.000000 0.000000 0.000000" charge=0
C	-1.700639	-1.184447	-0.001104	6
C	-0.217019	-1.001627	-0.001824	6
C	0.429411	0.179623	-0.000824	6
C	-0.265399	1.515473	0.002146	6
C	1.835411	0.179623	-0.000824	6
C	3.025571	0.179623	-0.000824	6
H	-1.943189	-2.251137	-0.012414	1
H	-2.153399	-0.733317	-0.889924	1
H	-2.149079	-0.752847	0.900076	1
H	0.363241	-1.922787	-0.002854	1
H	-1.355509	1.432843	-0.000744	1
H	0.022171	2.093613	-0.882734	1
H	0.017931	2.087143	0.892686	1
H	4.090501	0.178223	-0.000834	1
Es	1.160925	0.185097	-0.000733	99
Es	-1.988158	-0.877794	-0.569540	99
Es	-1.014267	1.445359	0.000181	99
Es	-0.066410	1.884878	0.589465	99
Es	-1.889546	-1.903731	-0.009640	99
Es	2.437010	-0.183122	0.020985	99
Es	2.424771	0.175114	-0.042899	99
Es	-0.265374	1.515415	0.002147	99
Es	3.724768	0.188553	-0.000791	99
Es	-0.956432	-1.080704	-0.001670	99
Es	-0.062310	1.891829	-0.581284	99
Es	-1.700594	-1.184443	-0.001102	99
Es	-1.985153	-0.890806	0.576544	99
Es	0.140020	-0.391317	0.328618	99
Es	0.429545	0.179752	-0.000822	99
Es	3.025856	0.179639	-0.000829	99
Es	-0.217109	-1.001702	-0.001824	99
Es	1.835147	0.179605	-0.000824	99
Es	0.156461	-1.602932	-0.002392	99
Es	0.142149	-0.389556	-0.332162	99
Es	0.109232	0.824334	0.000657	99
Es	2.438350	0.542414	0.019538	99
