34
Properties=species:S:1:pos:R:3:Z:I:1 energy=-267.7253157491752 field_type=dipole dipole="0.000000 0.000000 0.000000" charge=0
C	-1.417097	-0.698716	-0.325993	6
C	0.019183	-0.809746	-0.772173	6
O	0.428623	-1.827106	-1.335223	8
C	0.916283	0.392874	-0.565213	6
C	0.935033	0.853124	0.830187	6
C	0.953883	1.236374	1.968357	6
H	-1.855997	0.221284	-0.720313	1
H	-1.472657	-0.709226	0.764887	1
H	-1.986707	-1.547666	-0.715073	1
H	0.570813	1.189854	-1.231773	1
H	1.931323	0.121954	-0.876443	1
H	0.977313	1.576994	2.978776	1
Es	0.019202	-0.809701	-0.772160	99
Es	0.842460	1.371876	1.300886	99
Es	-1.795693	-1.264754	-0.587011	99
Es	0.968015	1.457439	2.625738	99
Es	0.428459	-1.826845	-1.335064	99
Es	0.734423	-1.807513	-1.413580	99
Es	0.205187	-2.046662	-1.367994	99
Es	0.916225	0.392903	-0.565074	99
Es	-1.417039	-0.698690	-0.326003	99
Es	1.585267	0.220684	-0.754905	99
Es	-1.695368	-0.074406	-0.590882	99
Es	0.472160	-0.189280	-0.637052	99
Es	0.953881	1.236438	1.968588	99
Es	0.694102	0.800223	1.485503	99
Es	-1.437606	-0.700516	0.394582	99
Es	1.289755	0.962596	1.427179	99
Es	0.935029	0.853029	0.829903	99
Es	0.219457	-1.359654	-1.355469	99
Es	0.911227	0.625362	0.155461	99
Es	0.346447	-1.555316	-0.907547	99
Es	-0.699955	-0.739756	-0.540738	99
Es	0.671740	0.915540	-0.990843	99
34
Properties=species:S:1:pos:R:3:Z:I:1 energy=-267.7253157491752 field_type=dipole dipole="0.000000 0.000000 0.000000" charge=0
C	-1.417097	-0.698716	-0.325993	6
C	0.019183	-0.809746	-0.772173	6
O	0.428623	-1.827106	-1.335223	8
C	0.916283	0.392874	-0.565213	6
C	0.935033	0.853124	0.830187	6
C	0.953883	1.236374	1.968357	6
H	-1.855997	0.221284	-0.720313	1
H	-1.472657	-0.709226	0.764887	1
H	-1.986707	-1.547666	-0.715073	1
H	0.570813	1.189854	-1.231773	1
H	1.931323	0.121954	-0.876443	1
H	0.977313	1.576994	2.978776	1
Es	-1.437662	-0.699162	0.399111	99
Es	0.726681	-1.804631	-1.418967	99
Es	0.206219	-2.043007	-1.377058	99
Es	0.966159	1.461629	2.626149	99
Es	1.583028	0.220529	-0.756476	99
Es	-0.701988	-0.739314	-0.539627	99
Es	0.019206	-0.809704	-0.772139	99
Es	0.428528	-1.826828	-1.335076	99
Es	0.222179	-1.362432	-1.355605	99
Es	0.996184	0.706236	1.517897	99
Es	-1.417039	-0.698690	-0.326003	99
Es	0.616127	1.182270	1.368387	99
Es	0.349106	-1.557460	-0.897133	99
Es	0.953884	1.236452	1.968589	99
Es	0.672884	0.911356	-0.991395	99
Es	0.935028	0.853029	0.829895	99
Es	1.214303	1.244914	1.327418	99
Es	0.473551	-0.188613	-0.636926	99
Es	0.912404	0.625068	0.159231	99
Es	-1.692633	-0.077163	-0.592115	99
Es	0.916228	0.392904	-0.565075	99
Es	-1.795003	-1.264385	-0.589562	99
34
Properties=species:S:1:pos:R:3:Z:I:1 energy=-267.7253157491752 field_type=dipole dipole="0.000000 0.000000 0.000000" charge=0
C	-1.417097	-0.698716	-0.325993	6
C	0.019183	-0.809746	-0.772173	6
O	0.428623	-1.827106	-1.335223	8
C	0.916283	0.392874	-0.565213	6
C	0.935033	0.853124	0.830187	6
C	0.953883	1.236374	1.968357	6
H	-1.855997	0.221284	-0.720313	1
H	-1.472657	-0.709226	0.764887	1
H	-1.986707	-1.547666	-0.715073	1
H	0.570813	1.189854	-1.231773	1
H	1.931323	0.121954	-0.876443	1
H	0.977313	1.576994	2.978776	1
Es	0.964455	1.463941	2.625887	99
Es	0.428471	-1.826811	-1.335053	99
Es	-1.438265	-0.697328	0.401567	99
Es	0.221319	-1.365883	-1.353297	99
Es	0.913289	0.625151	0.161010	99
Es	0.218048	-2.055728	-1.393576	99
Es	0.019208	-0.809706	-0.772133	99
Es	0.953883	1.236455	1.968591	99
Es	0.673215	0.908268	-0.991035	99
Es	0.716554	-1.784546	-1.411150	99
Es	0.935033	0.853015	0.829888	99
Es	0.988141	0.703948	1.518540	99
Es	-1.794286	-1.264428	-0.591310	99
Es	0.916226	0.392903	-0.565075	99
Es	-1.417041	-0.698690	-0.326003	99
Es	1.582298	0.219971	-0.757857	99
Es	1.211709	1.222492	1.335354	99
Es	0.626931	1.206260	1.360063	99
Es	-1.690591	-0.079955	-0.592790	99
Es	0.347568	-1.560112	-0.893178	99
Es	-0.703254	-0.738878	-0.538548	99
Es	0.474462	-0.187340	-0.636374	99
34
Properties=species:S:1:pos:R:3:Z:I:1 energy=-267.7253157491752 field_type=dipole dipole="0.000000 0.000000 0.000000" charge=0
C	-1.417097	-0.698716	-0.325993	6
C	0.019183	-0.809746	-0.772173	6
O	0.428623	-1.827106	-1.335223	8
C	0.916283	0.392874	-0.565213	6
C	0.935033	0.853124	0.830187	6
C	0.953883	1.236374	1.968357	6
H	-1.855997	0.221284	-0.720313	1
H	-1.472657	-0.709226	0.764887	1
H	-1.986707	-1.547666	-0.715073	1
H	0.570813	1.189854	-1.231773	1
H	1.931323	0.121954	-0.876443	1
H	0.977313	1.576994	2.978776	1
Es	-1.440201	-0.695460	0.402747	99
Es	0.289682	-2.091630	-1.443398	99
Es	0.935034	0.853011	0.829887	99
Es	1.583392	0.219034	-0.759799	99
Es	0.428466	-1.826808	-1.335045	99
Es	0.913244	0.625771	0.161649	99
Es	0.338286	-1.565162	-0.890492	99
Es	0.916225	0.392905	-0.565073	99
Es	0.474798	-0.185950	-0.636055	99
Es	1.249859	0.866741	1.462383	99
Es	-1.794688	-1.263320	-0.591924	99
Es	0.961627	1.463862	2.625997	99
Es	0.953874	1.236456	1.968589	99
Es	-1.417038	-0.698690	-0.326003	99
Es	0.656798	-1.737388	-1.367627	99
Es	0.218569	-1.371000	-1.351131	99
Es	0.019207	-0.809707	-0.772134	99
Es	0.673296	0.905399	-0.989314	99
Es	-1.689012	-0.083234	-0.592378	99
Es	0.913703	1.380311	1.293253	99
Es	0.664718	0.886472	1.458038	99
Es	-0.702466	-0.738613	-0.538650	99
34
Properties=species:S:1:pos:R:3:Z:I:1 energy=-267.7253157491752 field_type=dipole dipole="0.000000 0.000000 0.000000" charge=0
C	-1.417097	-0.698716	-0.325993	6
C	0.019183	-0.809746	-0.772173	6
O	0.428623	-1.827106	-1.335223	8
C	0.916283	0.392874	-0.565213	6
C	0.935033	0.853124	0.830187	6
C	0.953883	1.236374	1.968357	6
H	-1.855997	0.221284	-0.720313	1
H	-1.472657	-0.709226	0.764887	1
H	-1.986707	-1.547666	-0.715073	1
H	0.570813	1.189854	-1.231773	1
H	1.931323	0.121954	-0.876443	1
H	0.977313	1.576994	2.978776	1
Es	0.624661	1.203641	1.360610	99
Es	1.217859	1.219229	1.336488	99
Es	0.962609	1.464386	2.625928	99
Es	0.913159	0.626478	0.161684	99
Es	0.364035	-2.094607	-1.476184	99
Es	0.217359	-1.373363	-1.348699	99
Es	-1.441073	-0.693756	0.403069	99
Es	0.984657	0.710333	1.516604	99
Es	0.474330	-0.186446	-0.636394	99
Es	-1.687836	-0.085706	-0.591520	99
Es	0.935038	0.853005	0.829888	99
Es	0.338445	-1.568059	-0.888570	99
Es	0.953874	1.236457	1.968591	99
Es	1.583698	0.219715	-0.760760	99
Es	0.019211	-0.809711	-0.772126	99
Es	-1.795319	-1.263366	-0.592590	99
Es	0.583387	-1.728429	-1.340121	99
Es	-0.702068	-0.738095	-0.538740	99
Es	0.673937	0.903940	-0.987554	99
Es	0.428222	-1.826866	-1.335005	99
Es	0.916226	0.392903	-0.565075	99
Es	-1.417038	-0.698686	-0.326003	99
34
Properties=species:S:1:pos:R:3:Z:I:1 energy=-267.7253157491752 field_type=dipole dipole="0.000000 0.000000 0.000000" charge=0
C	-1.417097	-0.698716	-0.325993	6
C	0.019183	-0.809746	-0.772173	6
O	0.428623	-1.827106	-1.335223	8
C	0.916283	0.392874	-0.565213	6
C	0.935033	0.853124	0.830187	6
C	0.953883	1.236374	1.968357	6
H	-1.855997	0.221284	-0.720313	1
H	-1.472657	-0.709226	0.764887	1
H	-1.986707	-1.547666	-0.715073	1
H	0.570813	1.189854	-1.231773	1
H	1.931323	0.121954	-0.876443	1
H	0.977313	1.576994	2.978776	1
Es	0.426342	-2.083986	-1.494760	99
Es	0.993751	0.712299	1.516095	99
Es	-1.417040	-0.698689	-0.326004	99
Es	1.213769	1.233785	1.331346	99
Es	0.619651	1.187175	1.366233	99
Es	0.912776	0.626999	0.161681	99
Es	1.583568	0.220830	-0.761237	99
Es	0.473323	-0.187267	-0.637171	99
Es	0.427849	-1.826367	-1.334685	99
Es	-0.702084	-0.737951	-0.538762	99
Es	-1.686469	-0.087576	-0.590679	99
Es	0.963154	1.464826	2.625809	99
Es	-1.796158	-1.263566	-0.593443	99
Es	0.217300	-1.374387	-1.347818	99
Es	0.344820	-1.566338	-0.887465	99
Es	-1.441335	-0.692276	0.403268	99
Es	0.019209	-0.809709	-0.772134	99
Es	0.953877	1.236458	1.968590	99
Es	0.916227	0.392902	-0.565075	99
Es	0.514738	-1.739866	-1.324395	99
Es	0.935033	0.853008	0.829886	99
Es	0.675072	0.902695	-0.985760	99
34
Properties=species:S:1:pos:R:3:Z:I:1 energy=-267.7253157491752 field_type=dipole dipole="0.000000 0.000000 0.000000" charge=0
C	-1.417097	-0.698716	-0.325993	6
C	0.019183	-0.809746	-0.772173	6
O	0.428623	-1.827106	-1.335223	8
C	0.916283	0.392874	-0.565213	6
C	0.935033	0.853124	0.830187	6
C	0.953883	1.236374	1.968357	6
H	-1.855997	0.221284	-0.720313	1
H	-1.472657	-0.709226	0.764887	1
H	-1.986707	-1.547666	-0.715073	1
H	0.570813	1.189854	-1.231773	1
H	1.931323	0.121954	-0.876443	1
H	0.977313	1.576994	2.978776	1
Es	0.628117	1.202307	1.361422	99
Es	0.349310	-1.562824	-0.887458	99
Es	-1.685451	-0.089027	-0.590364	99
Es	-0.702610	-0.737582	-0.538300	99
Es	0.973390	0.711347	1.516278	99
Es	0.953879	1.236456	1.968591	99
Es	0.019209	-0.809708	-0.772130	99
Es	0.466612	-1.755739	-1.315696	99
Es	1.583134	0.221515	-0.761338	99
Es	-1.417040	-0.698690	-0.326003	99
Es	0.916226	0.392902	-0.565076	99
Es	0.912504	0.627377	0.161791	99
Es	0.935029	0.853014	0.829887	99
Es	0.465112	-2.071337	-1.504683	99
Es	0.963506	1.465343	2.625655	99
Es	0.675804	0.901733	-0.984934	99
Es	1.225713	1.219548	1.335990	99
Es	-1.796212	-1.264125	-0.594279	99
Es	-1.441441	-0.690944	0.403503	99
Es	0.222184	-1.374333	-1.347268	99
Es	0.472997	-0.187870	-0.637515	99
Es	0.427399	-1.826366	-1.334553	99
34
Properties=species:S:1:pos:R:3:Z:I:1 energy=-267.7253157491752 field_type=dipole dipole="0.000000 0.000000 0.000000" charge=0
C	-1.417097	-0.698716	-0.325993	6
C	0.019183	-0.809746	-0.772173	6
O	0.428623	-1.827106	-1.335223	8
C	0.916283	0.392874	-0.565213	6
C	0.935033	0.853124	0.830187	6
C	0.953883	1.236374	1.968357	6
H	-1.855997	0.221284	-0.720313	1
H	-1.472657	-0.709226	0.764887	1
H	-1.986707	-1.547666	-0.715073	1
H	0.570813	1.189854	-1.231773	1
H	1.931323	0.121954	-0.876443	1
H	0.977313	1.576994	2.978776	1
Es	0.351715	-1.561387	-0.887655	99
Es	1.271296	1.128925	1.367607	99
Es	-1.441655	-0.690143	0.403851	99
Es	0.953878	1.236454	1.968592	99
Es	0.428265	-1.826865	-1.335013	99
Es	0.687492	1.281473	1.334630	99
Es	0.477529	-2.065754	-1.508260	99
Es	0.449559	-1.761140	-1.312932	99
Es	0.868432	0.722874	1.511422	99
Es	0.916228	0.392901	-0.565074	99
Es	0.676089	0.901217	-0.984813	99
Es	-1.684663	-0.089913	-0.590416	99
Es	-1.417045	-0.698687	-0.326006	99
Es	0.473041	-0.187581	-0.637532	99
Es	1.582784	0.221253	-0.761440	99
Es	0.935033	0.852994	0.829891	99
Es	-1.795839	-1.264339	-0.595007	99
Es	0.963367	1.465551	2.625626	99
Es	0.223406	-1.375188	-1.346182	99
Es	0.019210	-0.809711	-0.772129	99
Es	0.912600	0.627461	0.162008	99
Es	-0.703349	-0.737399	-0.537648	99
34
Properties=species:S:1:pos:R:3:Z:I:1 energy=-267.7253157491752 field_type=dipole dipole="0.000000 0.000000 0.000000" charge=0
C	-1.417097	-0.698716	-0.325993	6
C	0.019183	-0.809746	-0.772173	6
O	0.428623	-1.827106	-1.335223	8
C	0.916283	0.392874	-0.565213	6
C	0.935033	0.853124	0.830187	6
C	0.953883	1.236374	1.968357	6
H	-1.855997	0.221284	-0.720313	1
H	-1.472657	-0.709226	0.764887	1
H	-1.986707	-1.547666	-0.715073	1
H	0.570813	1.189854	-1.231773	1
H	1.931323	0.121954	-0.876443	1
H	0.977313	1.576994	2.978776	1
Es	0.351689	-1.558904	-0.888231	99
Es	-1.442206	-0.688959	0.404052	99
Es	0.953874	1.236453	1.968594	99
Es	0.916226	0.392903	-0.565075	99
Es	1.179066	0.789364	1.489904	99
Es	-1.417035	-0.698689	-0.326002	99
Es	0.912599	0.627909	0.162082	99
Es	0.472871	-0.187669	-0.637819	99
Es	0.427412	-1.826738	-1.334719	99
Es	-0.703669	-0.737064	-0.537210	99
Es	0.935034	0.853002	0.829888	99
Es	0.485215	-2.062032	-1.510525	99
Es	1.582756	0.221684	-0.761803	99
Es	0.609433	0.987681	1.428052	99
Es	0.439245	-1.765867	-1.311627	99
Es	0.676603	0.899975	-0.983829	99
Es	0.226618	-1.376504	-1.345384	99
Es	-1.795534	-1.264575	-0.595742	99
Es	0.019211	-0.809709	-0.772129	99
Es	0.962595	1.466489	2.625175	99
Es	-1.683804	-0.091425	-0.590132	99
Es	1.039175	1.355672	1.296000	99
34
Properties=species:S:1:pos:R:3:Z:I:1 energy=-267.7253157491752 field_type=dipole dipole="0.000000 0.000000 0.000000" charge=0
C	-1.417097	-0.698716	-0.325993	6
C	0.019183	-0.809746	-0.772173	6
O	0.428623	-1.827106	-1.335223	8
C	0.916283	0.392874	-0.565213	6
C	0.935033	0.853124	0.830187	6
C	0.953883	1.236374	1.968357	6
H	-1.855997	0.221284	-0.720313	1
H	-1.472657	-0.709226	0.764887	1
H	-1.986707	-1.547666	-0.715073	1
H	0.570813	1.189854	-1.231773	1
H	1.931323	0.121954	-0.876443	1
H	0.977313	1.576994	2.978776	1
Es	0.912417	0.628026	0.162190	99
Es	0.963180	1.466355	2.625342	99
Es	-1.795429	-1.264647	-0.596527	99
Es	0.437454	-1.766706	-1.311590	99
Es	1.582678	0.221546	-0.762299	99
Es	0.916227	0.392902	-0.565074	99
Es	0.353100	-1.559116	-0.888087	99
Es	0.647250	1.233997	1.350924	99
Es	0.953879	1.236459	1.968592	99
Es	0.426944	-1.826679	-1.334564	99
Es	0.226537	-1.377494	-1.343914	99
Es	-1.417038	-0.698687	-0.326002	99
Es	0.472727	-0.187298	-0.637666	99
Es	0.019213	-0.809712	-0.772124	99
Es	0.486067	-2.059737	-1.512683	99
Es	0.935032	0.852999	0.829887	99
Es	1.235875	1.189516	1.346432	99
Es	0.676770	0.899356	-0.983277	99
Es	-0.704245	-0.736823	-0.536972	99
Es	-1.683069	-0.092440	-0.589747	99
Es	-1.442322	-0.688283	0.404254	99
Es	0.944127	0.709462	1.516425	99
34
Properties=species:S:1:pos:R:3:Z:I:1 energy=-267.7253157491752 field_type=dipole dipole="0.000000 0.000000 0.000000" charge=0
C	-1.417097	-0.698716	-0.325993	6
C	0.019183	-0.809746	-0.772173	6
O	0.428623	-1.827106	-1.335223	8
C	0.916283	0.392874	-0.565213	6
C	0.935033	0.853124	0.830187	6
C	0.953883	1.236374	1.968357	6
H	-1.855997	0.221284	-0.720313	1
H	-1.472657	-0.709226	0.764887	1
H	-1.986707	-1.547666	-0.715073	1
H	0.570813	1.189854	-1.231773	1
H	1.931323	0.121954	-0.876443	1
H	0.977313	1.576994	2.978776	1
Es	0.953873	1.236464	1.968590	99
Es	-1.795385	-1.264716	-0.596912	99
Es	0.429254	-1.826099	-1.334966	99
Es	-0.704628	-0.736590	-0.536714	99
Es	0.490462	-2.057079	-1.514365	99
Es	-1.682402	-0.093559	-0.589526	99
Es	1.582417	0.221753	-0.762315	99
Es	0.936066	0.709332	1.516318	99
Es	0.352541	-1.556910	-0.888568	99
Es	0.912422	0.628083	0.162294	99
Es	0.677123	0.898931	-0.982910	99
Es	0.653991	1.245118	1.347094	99
Es	1.237331	1.178674	1.350314	99
Es	0.916225	0.392904	-0.565073	99
Es	0.019212	-0.809717	-0.772123	99
Es	0.228208	-1.379785	-1.342841	99
Es	0.963065	1.466441	2.625319	99
Es	0.935036	0.852991	0.829890	99
Es	-1.417039	-0.698690	-0.326002	99
Es	0.429438	-1.769601	-1.310427	99
Es	0.472702	-0.187611	-0.637940	99
Es	-1.442538	-0.687337	0.404382	99
34
Properties=species:S:1:pos:R:3:Z:I:1 energy=-267.7253157491752 field_type=dipole dipole="0.000000 0.000000 0.000000" charge=0
C	-1.417097	-0.698716	-0.325993	6
C	0.019183	-0.809746	-0.772173	6
O	0.428623	-1.827106	-1.335223	8
C	0.916283	0.392874	-0.565213	6
C	0.935033	0.853124	0.830187	6
C	0.953883	1.236374	1.968357	6
H	-1.855997	0.221284	-0.720313	1
H	-1.472657	-0.709226	0.764887	1
H	-1.986707	-1.547666	-0.715073	1
H	0.570813	1.189854	-1.231773	1
H	1.931323	0.121954	-0.876443	1
H	0.977313	1.576994	2.978776	1
Es	1.582282	0.222170	-0.762371	99
Es	0.230133	-1.379156	-1.342488	99
Es	0.426596	-1.771843	-1.310400	99
Es	-1.442926	-0.686560	0.404524	99
Es	0.961838	1.466659	2.625145	99
Es	0.916226	0.392904	-0.565075	99
Es	1.259000	0.895650	1.452029	99
Es	-0.705276	-0.736345	-0.536070	99
Es	0.472848	-0.187614	-0.638170	99
Es	0.681668	0.860992	1.465974	99
Es	-1.794411	-1.265177	-0.597369	99
Es	0.019210	-0.809710	-0.772124	99
Es	0.887050	1.376329	1.295827	99
Es	-1.682072	-0.094365	-0.589685	99
Es	0.913093	0.628326	0.162365	99
Es	-1.417037	-0.698689	-0.326002	99
Es	0.677197	0.898396	-0.982668	99
Es	0.491376	-2.055993	-1.515256	99
Es	0.351996	-1.557403	-0.888536	99
Es	0.935041	0.853003	0.829886	99
Es	0.429667	-1.825034	-1.334610	99
Es	0.953873	1.236458	1.968593	99
34
Properties=species:S:1:pos:R:3:Z:I:1 energy=-267.7253157491752 field_type=dipole dipole="0.000000 0.000000 0.000000" charge=0
C	-1.417097	-0.698716	-0.325993	6
C	0.019183	-0.809746	-0.772173	6
O	0.428623	-1.827106	-1.335223	8
C	0.916283	0.392874	-0.565213	6
C	0.935033	0.853124	0.830187	6
C	0.953883	1.236374	1.968357	6
H	-1.855997	0.221284	-0.720313	1
H	-1.472657	-0.709226	0.764887	1
H	-1.986707	-1.547666	-0.715073	1
H	0.570813	1.189854	-1.231773	1
H	1.931323	0.121954	-0.876443	1
H	0.977313	1.576994	2.978776	1
Es	0.654789	0.907071	1.451978	99
Es	0.497732	-2.053038	-1.516448	99
Es	0.472593	-0.187366	-0.638239	99
Es	-0.705612	-0.736184	-0.535677	99
Es	0.418831	-1.776850	-1.310372	99
Es	0.019214	-0.809717	-0.772121	99
Es	0.916226	0.392902	-0.565074	99
Es	0.677506	0.897716	-0.981974	99
Es	1.582366	0.222120	-0.762743	99
Es	0.935034	0.853003	0.829886	99
Es	-1.681336	-0.095333	-0.589310	99
Es	0.961961	1.467018	2.625004	99
Es	-1.417040	-0.698688	-0.326005	99
Es	0.430132	-1.822958	-1.333834	99
Es	0.953874	1.236465	1.968590	99
Es	-1.794285	-1.265188	-0.598084	99
Es	-1.443314	-0.685861	0.404554	99
Es	1.233227	0.848154	1.468798	99
Es	0.939806	1.377561	1.293142	99
Es	0.230642	-1.381183	-1.341819	99
Es	0.352314	-1.555178	-0.889086	99
Es	0.912714	0.628531	0.162352	99
34
Properties=species:S:1:pos:R:3:Z:I:1 energy=-267.7253157491752 field_type=dipole dipole="0.000000 0.000000 0.000000" charge=0
C	-1.417097	-0.698716	-0.325993	6
C	0.019183	-0.809746	-0.772173	6
O	0.428623	-1.827106	-1.335223	8
C	0.916283	0.392874	-0.565213	6
C	0.935033	0.853124	0.830187	6
C	0.953883	1.236374	1.968357	6
H	-1.855997	0.221284	-0.720313	1
H	-1.472657	-0.709226	0.764887	1
H	-1.986707	-1.547666	-0.715073	1
H	0.570813	1.189854	-1.231773	1
H	1.931323	0.121954	-0.876443	1
H	0.977313	1.576994	2.978776	1
Es	0.935029	0.853001	0.829887	99
Es	0.632262	1.208883	1.359298	99
Es	0.916227	0.392901	-0.565073	99
Es	-1.417039	-0.698690	-0.326003	99
Es	1.204939	1.216262	1.337619	99
Es	-1.443213	-0.685466	0.404664	99
Es	-1.680981	-0.095973	-0.589014	99
Es	0.019211	-0.809713	-0.772126	99
Es	1.582281	0.222018	-0.763084	99
Es	0.428412	-1.826831	-1.335047	99
Es	0.912571	0.628638	0.162389	99
Es	-1.794003	-1.265314	-0.598633	99
Es	0.677550	0.897381	-0.981655	99
Es	0.489331	-2.055334	-1.516539	99
Es	0.230281	-1.383141	-1.340734	99
Es	0.351574	-1.554541	-0.889262	99
Es	0.962428	1.467058	2.625042	99
Es	0.990325	0.707568	1.517013	99
Es	0.953881	1.236458	1.968593	99
Es	0.429902	-1.769078	-1.310297	99
Es	-0.706277	-0.735852	-0.535433	99
Es	0.472681	-0.187237	-0.638085	99
34
Properties=species:S:1:pos:R:3:Z:I:1 energy=-267.7253157491752 field_type=dipole dipole="0.000000 0.000000 0.000000" charge=0
C	-1.417097	-0.698716	-0.325993	6
C	0.019183	-0.809746	-0.772173	6
O	0.428623	-1.827106	-1.335223	8
C	0.916283	0.392874	-0.565213	6
C	0.935033	0.853124	0.830187	6
C	0.953883	1.236374	1.968357	6
H	-1.855997	0.221284	-0.720313	1
H	-1.472657	-0.709226	0.764887	1
H	-1.986707	-1.547666	-0.715073	1
H	0.570813	1.189854	-1.231773	1
H	1.931323	0.121954	-0.876443	1
H	0.977313	1.576994	2.978776	1
Es	1.581969	0.222110	-0.762776	99
Es	0.916227	0.392902	-0.565073	99
Es	0.351844	-1.554534	-0.889261	99
Es	0.935041	0.853005	0.829885	99
Es	0.019217	-0.809720	-0.772119	99
Es	-0.707594	-0.735550	-0.534471	99
Es	1.269674	0.927493	1.440616	99
Es	0.677542	0.897226	-0.982036	99
Es	0.913287	0.628603	0.162584	99
Es	0.472888	-0.187164	-0.638110	99
Es	0.496626	-2.052618	-1.517255	99
Es	0.416899	-1.795761	-1.318086	99
Es	0.961465	1.466940	2.625046	99
Es	0.431335	-1.804420	-1.326015	99
Es	0.232734	-1.381710	-1.341204	99
Es	0.709549	0.834071	1.474239	99
Es	0.953873	1.236463	1.968591	99
Es	-1.443230	-0.685242	0.404825	99
Es	0.848408	1.371532	1.298890	99
Es	-1.417038	-0.698690	-0.326002	99
Es	-1.792326	-1.266020	-0.599206	99
Es	-1.681015	-0.095920	-0.589541	99
34
Properties=species:S:1:pos:R:3:Z:I:1 energy=-267.7253157491752 field_type=dipole dipole="0.000000 0.000000 0.000000" charge=0
C	-1.417097	-0.698716	-0.325993	6
C	0.019183	-0.809746	-0.772173	6
O	0.428623	-1.827106	-1.335223	8
C	0.916283	0.392874	-0.565213	6
C	0.935033	0.853124	0.830187	6
C	0.953883	1.236374	1.968357	6
H	-1.855997	0.221284	-0.720313	1
H	-1.472657	-0.709226	0.764887	1
H	-1.986707	-1.547666	-0.715073	1
H	0.570813	1.189854	-1.231773	1
H	1.931323	0.121954	-0.876443	1
H	0.977313	1.576994	2.978776	1
Es	-1.793134	-1.265679	-0.599511	99
Es	0.912561	0.628937	0.162424	99
Es	0.989364	0.706741	1.517194	99
Es	-1.417038	-0.698690	-0.326002	99
Es	0.916227	0.392901	-0.565073	99
Es	0.472437	-0.187048	-0.638258	99
Es	1.582091	0.221996	-0.763292	99
Es	-0.707319	-0.735496	-0.534732	99
Es	-1.680168	-0.097324	-0.588795	99
Es	0.962306	1.467387	2.624890	99
Es	0.430928	-1.819583	-1.332579	99
Es	0.935035	0.852997	0.829888	99
Es	1.203416	1.212458	1.338989	99
Es	0.417887	-1.780311	-1.311620	99
Es	0.495302	-2.051676	-1.518526	99
Es	0.953880	1.236463	1.968591	99
Es	-1.443636	-0.684260	0.404716	99
Es	0.634776	1.213366	1.357829	99
Es	0.019214	-0.809716	-0.772121	99
Es	0.352632	-1.553428	-0.889585	99
Es	0.678024	0.896626	-0.981029	99
Es	0.232588	-1.383664	-1.339878	99
34
Properties=species:S:1:pos:R:3:Z:I:1 energy=-267.7253157491752 field_type=dipole dipole="0.000000 0.000000 0.000000" charge=0
C	-1.417097	-0.698716	-0.325993	6
C	0.019183	-0.809746	-0.772173	6
O	0.428623	-1.827106	-1.335223	8
C	0.916283	0.392874	-0.565213	6
C	0.935033	0.853124	0.830187	6
C	0.953883	1.236374	1.968357	6
H	-1.855997	0.221284	-0.720313	1
H	-1.472657	-0.709226	0.764887	1
H	-1.986707	-1.547666	-0.715073	1
H	0.570813	1.189854	-1.231773	1
H	1.931323	0.121954	-0.876443	1
H	0.977313	1.576994	2.978776	1
Es	0.684908	0.874873	1.461487	99
Es	0.913233	0.628817	0.162562	99
Es	-1.417039	-0.698690	-0.326002	99
Es	0.953874	1.236463	1.968591	99
Es	1.582253	0.222017	-0.763617	99
Es	-1.680176	-0.097691	-0.588859	99
Es	0.961198	1.467089	2.624963	99
Es	-1.792511	-1.265778	-0.599585	99
Es	0.935038	0.853001	0.829887	99
Es	-0.707477	-0.735393	-0.534464	99
Es	0.490413	-2.053384	-1.518250	99
Es	0.428442	-1.770439	-1.310244	99
Es	0.349922	-1.553822	-0.889580	99
Es	0.427207	-1.826735	-1.334661	99
Es	0.916225	0.392899	-0.565073	99
Es	0.019214	-0.809716	-0.772122	99
Es	0.233297	-1.384235	-1.339530	99
Es	0.472726	-0.186738	-0.638108	99
Es	0.677703	0.896400	-0.981003	99
Es	-1.443942	-0.684042	0.404796	99
Es	1.251740	0.879617	1.457514	99
Es	0.891122	1.378486	1.294818	99
34
Properties=species:S:1:pos:R:3:Z:I:1 energy=-267.7253157491752 field_type=dipole dipole="0.000000 0.000000 0.000000" charge=0
C	-1.417097	-0.698716	-0.325993	6
C	0.019183	-0.809746	-0.772173	6
O	0.428623	-1.827106	-1.335223	8
C	0.916283	0.392874	-0.565213	6
C	0.935033	0.853124	0.830187	6
C	0.953883	1.236374	1.968357	6
H	-1.855997	0.221284	-0.720313	1
H	-1.472657	-0.709226	0.764887	1
H	-1.986707	-1.547666	-0.715073	1
H	0.570813	1.189854	-1.231773	1
H	1.931323	0.121954	-0.876443	1
H	0.977313	1.576994	2.978776	1
Es	0.997006	0.706448	1.517142	99
Es	1.582169	0.221843	-0.763840	99
Es	0.962077	1.467462	2.624862	99
Es	0.472435	-0.186650	-0.638178	99
Es	-1.792788	-1.265720	-0.600093	99
Es	-0.707888	-0.735240	-0.534382	99
Es	0.351638	-1.553296	-0.889675	99
Es	0.233476	-1.384971	-1.338709	99
Es	1.196501	1.214835	1.338309	99
Es	0.935036	0.852996	0.829888	99
Es	-1.443977	-0.683365	0.404728	99
Es	-1.417039	-0.698690	-0.326002	99
Es	0.953880	1.236459	1.968591	99
Es	-1.679496	-0.098510	-0.588413	99
Es	0.019215	-0.809717	-0.772121	99
Es	0.678082	0.896044	-0.980472	99
Es	0.429670	-1.825253	-1.334723	99
Es	0.422341	-1.773354	-1.309828	99
Es	0.492077	-2.051602	-1.519486	99
Es	0.916226	0.392902	-0.565074	99
Es	0.912645	0.629075	0.162442	99
Es	0.634089	1.211302	1.358553	99
34
Properties=species:S:1:pos:R:3:Z:I:1 energy=-267.7253157491752 field_type=dipole dipole="0.000000 0.000000 0.000000" charge=0
C	-1.417097	-0.698716	-0.325993	6
C	0.019183	-0.809746	-0.772173	6
O	0.428623	-1.827106	-1.335223	8
C	0.916283	0.392874	-0.565213	6
C	0.935033	0.853124	0.830187	6
C	0.953883	1.236374	1.968357	6
H	-1.855997	0.221284	-0.720313	1
H	-1.472657	-0.709226	0.764887	1
H	-1.986707	-1.547666	-0.715073	1
H	0.570813	1.189854	-1.231773	1
H	1.931323	0.121954	-0.876443	1
H	0.977313	1.576994	2.978776	1
Es	-1.790447	-1.266575	-0.601240	99
Es	0.019212	-0.809714	-0.772125	99
Es	0.912352	0.629042	0.162580	99
Es	0.614472	1.038830	1.413004	99
Es	0.499756	-2.050081	-1.518914	99
Es	0.678048	0.895781	-0.980957	99
Es	0.428177	-1.796897	-1.321885	99
Es	0.916226	0.392903	-0.565073	99
Es	-1.679421	-0.098218	-0.588972	99
Es	-1.417038	-0.698690	-0.326002	99
Es	1.582172	0.220113	-0.763980	99
Es	0.352547	-1.552066	-0.890039	99
Es	0.231536	-1.385411	-1.339391	99
Es	0.961474	1.468373	2.624347	99
Es	-0.710383	-0.734692	-0.533168	99
Es	0.417473	-1.804227	-1.321998	99
Es	0.472495	-0.184923	-0.637341	99
Es	1.143736	0.756846	1.499990	99
Es	1.069885	1.336352	1.301349	99
Es	-1.443807	-0.683212	0.404857	99
Es	0.953872	1.236464	1.968591	99
Es	0.935037	0.852997	0.829887	99
34
Properties=species:S:1:pos:R:3:Z:I:1 energy=-267.7253157491752 field_type=dipole dipole="0.000000 0.000000 0.000000" charge=0
C	-1.417097	-0.698716	-0.325993	6
C	0.019183	-0.809746	-0.772173	6
O	0.428623	-1.827106	-1.335223	8
C	0.916283	0.392874	-0.565213	6
C	0.935033	0.853124	0.830187	6
C	0.953883	1.236374	1.968357	6
H	-1.855997	0.221284	-0.720313	1
H	-1.472657	-0.709226	0.764887	1
H	-1.986707	-1.547666	-0.715073	1
H	0.570813	1.189854	-1.231773	1
H	1.931323	0.121954	-0.876443	1
H	0.977313	1.576994	2.978776	1
Es	1.582181	0.221960	-0.764160	99
Es	0.351947	-1.552057	-0.889996	99
Es	0.912482	0.629322	0.162398	99
Es	0.019211	-0.809716	-0.772124	99
Es	-1.792543	-1.265672	-0.600613	99
Es	0.494622	-2.049609	-1.520673	99
Es	0.962107	1.467439	2.624893	99
Es	0.968384	0.704913	1.517531	99
Es	0.420217	-1.774109	-1.309657	99
Es	-1.678905	-0.099551	-0.588043	99
Es	0.472304	-0.186650	-0.638193	99
Es	-1.417039	-0.698691	-0.326002	99
Es	-0.708245	-0.735037	-0.534178	99
Es	0.678296	0.895419	-0.979881	99
Es	0.935036	0.853000	0.829886	99
Es	-1.444398	-0.682632	0.404715	99
Es	0.429998	-1.825089	-1.334741	99
Es	1.209826	1.188278	1.347455	99
Es	0.649394	1.239464	1.348977	99
Es	0.953876	1.236464	1.968591	99
Es	0.916222	0.392910	-0.565074	99
Es	0.232400	-1.387357	-1.337592	99
34
Properties=species:S:1:pos:R:3:Z:I:1 energy=-267.7253157491752 field_type=dipole dipole="0.000000 0.000000 0.000000" charge=0
C	-1.417097	-0.698716	-0.325993	6
C	0.019183	-0.809746	-0.772173	6
O	0.428623	-1.827106	-1.335223	8
C	0.916283	0.392874	-0.565213	6
C	0.935033	0.853124	0.830187	6
C	0.953883	1.236374	1.968357	6
H	-1.855997	0.221284	-0.720313	1
H	-1.472657	-0.709226	0.764887	1
H	-1.986707	-1.547666	-0.715073	1
H	0.570813	1.189854	-1.231773	1
H	1.931323	0.121954	-0.876443	1
H	0.977313	1.576994	2.978776	1
Es	0.351508	-1.552050	-0.890017	99
Es	-1.792388	-1.265723	-0.600754	99
Es	0.935038	0.852999	0.829887	99
Es	0.916226	0.392903	-0.565073	99
Es	0.019213	-0.809715	-0.772123	99
Es	0.678386	0.895291	-0.979689	99
Es	0.472208	-0.186199	-0.638091	99
Es	0.423412	-1.771732	-1.309562	99
Es	0.652307	1.244114	1.347361	99
Es	0.964454	0.704763	1.517533	99
Es	0.493656	-2.049467	-1.521060	99
Es	-1.417038	-0.698690	-0.326002	99
Es	-0.708460	-0.734921	-0.534207	99
Es	0.232411	-1.387989	-1.337147	99
Es	0.428164	-1.826874	-1.334992	99
Es	0.912470	0.629226	0.162462	99
Es	-1.444490	-0.682206	0.404706	99
Es	1.582273	0.221594	-0.764344	99
Es	1.210762	1.183860	1.349024	99
Es	0.953879	1.236467	1.968591	99
Es	0.962083	1.467445	2.624890	99
Es	-1.678703	-0.100097	-0.587873	99
34
Properties=species:S:1:pos:R:3:Z:I:1 energy=-267.7253157491752 field_type=dipole dipole="0.000000 0.000000 0.000000" charge=0
C	-1.417097	-0.698716	-0.325993	6
C	0.019183	-0.809746	-0.772173	6
O	0.428623	-1.827106	-1.335223	8
C	0.916283	0.392874	-0.565213	6
C	0.935033	0.853124	0.830187	6
C	0.953883	1.236374	1.968357	6
H	-1.855997	0.221284	-0.720313	1
H	-1.472657	-0.709226	0.764887	1
H	-1.986707	-1.547666	-0.715073	1
H	0.570813	1.189854	-1.231773	1
H	1.931323	0.121954	-0.876443	1
H	0.977313	1.576994	2.978776	1
Es	0.233265	-1.388909	-1.336777	99
Es	-1.444611	-0.682228	0.404733	99
Es	0.971530	0.704542	1.517583	99
Es	0.648834	1.237923	1.349536	99
Es	1.582095	0.221909	-0.764205	99
Es	0.912495	0.629439	0.162425	99
Es	0.916227	0.392901	-0.565075	99
Es	0.472353	-0.186601	-0.638270	99
Es	0.428436	-1.826820	-1.335052	99
Es	0.962115	1.467487	2.624883	99
Es	-0.709165	-0.734694	-0.533494	99
Es	0.352083	-1.550518	-0.890487	99
Es	0.953877	1.236465	1.968591	99
Es	-1.678561	-0.100051	-0.587935	99
Es	1.207090	1.190227	1.346810	99
Es	0.678485	0.895077	-0.979650	99
Es	-1.417039	-0.698691	-0.326001	99
Es	0.497812	-2.047629	-1.521672	99
Es	-1.791638	-1.265911	-0.601332	99
Es	0.019214	-0.809717	-0.772121	99
Es	0.417437	-1.774207	-1.308855	99
Es	0.935038	0.853001	0.829885	99
34
Properties=species:S:1:pos:R:3:Z:I:1 energy=-267.7253157491752 field_type=dipole dipole="0.000000 0.000000 0.000000" charge=0
C	-1.417097	-0.698716	-0.325993	6
C	0.019183	-0.809746	-0.772173	6
O	0.428623	-1.827106	-1.335223	8
C	0.916283	0.392874	-0.565213	6
C	0.935033	0.853124	0.830187	6
C	0.953883	1.236374	1.968357	6
H	-1.855997	0.221284	-0.720313	1
H	-1.472657	-0.709226	0.764887	1
H	-1.986707	-1.547666	-0.715073	1
H	0.570813	1.189854	-1.231773	1
H	1.931323	0.121954	-0.876443	1
H	0.977313	1.576994	2.978776	1
Es	0.912905	0.629451	0.162480	99
Es	-1.678463	-0.100691	-0.587853	99
Es	0.916226	0.392902	-0.565073	99
Es	0.349979	-1.551217	-0.890439	99
Es	-1.791486	-1.266040	-0.601143	99
Es	-1.417038	-0.698690	-0.326003	99
Es	0.678302	0.894565	-0.979164	99
Es	0.019214	-0.809715	-0.772122	99
Es	0.421358	-1.772715	-1.309268	99
Es	0.234209	-1.388398	-1.336907	99
Es	1.582321	0.222245	-0.764753	99
Es	1.230926	0.841990	1.470442	99
Es	0.428160	-1.826874	-1.334995	99
Es	-1.444986	-0.681657	0.404644	99
Es	0.472438	-0.186362	-0.638248	99
Es	0.674637	0.910575	1.450536	99
Es	-0.708860	-0.734793	-0.533467	99
Es	0.922385	1.380275	1.292916	99
Es	0.961011	1.467471	2.624801	99
Es	0.935038	0.852998	0.829888	99
Es	0.953872	1.236464	1.968591	99
Es	0.495225	-2.048786	-1.521344	99
34
Properties=species:S:1:pos:R:3:Z:I:1 energy=-267.7253157491752 field_type=dipole dipole="0.000000 0.000000 0.000000" charge=0
C	-1.417097	-0.698716	-0.325993	6
C	0.019183	-0.809746	-0.772173	6
O	0.428623	-1.827106	-1.335223	8
C	0.916283	0.392874	-0.565213	6
C	0.935033	0.853124	0.830187	6
C	0.953883	1.236374	1.968357	6
H	-1.855997	0.221284	-0.720313	1
H	-1.472657	-0.709226	0.764887	1
H	-1.986707	-1.547666	-0.715073	1
H	0.570813	1.189854	-1.231773	1
H	1.931323	0.121954	-0.876443	1
H	0.977313	1.576994	2.978776	1
Es	0.652748	1.244771	1.347143	99
Es	0.428638	-1.826720	-1.335063	99
Es	0.953877	1.236463	1.968592	99
Es	0.019216	-0.809718	-0.772120	99
Es	1.582306	0.221577	-0.764824	99
Es	0.494224	-2.048057	-1.522209	99
Es	-1.444879	-0.681491	0.404676	99
Es	0.912410	0.629437	0.162436	99
Es	-1.678116	-0.101202	-0.587396	99
Es	0.351629	-1.551168	-0.890291	99
Es	-1.791854	-1.265760	-0.601474	99
Es	0.916227	0.392902	-0.565073	99
Es	0.969021	0.704236	1.517616	99
Es	0.420712	-1.772877	-1.309228	99
Es	-0.708996	-0.734651	-0.533827	99
Es	0.233807	-1.389111	-1.336199	99
Es	0.678607	0.894649	-0.978997	99
Es	0.472004	-0.185828	-0.638152	99
Es	-1.417038	-0.698690	-0.326002	99
Es	1.205939	1.183710	1.349172	99
Es	0.935039	0.852995	0.829889	99
Es	0.961852	1.467530	2.624852	99
34
Properties=species:S:1:pos:R:3:Z:I:1 energy=-267.7253157491752 field_type=dipole dipole="0.000000 0.000000 0.000000" charge=0
C	-1.417097	-0.698716	-0.325993	6
C	0.019183	-0.809746	-0.772173	6
O	0.428623	-1.827106	-1.335223	8
C	0.916283	0.392874	-0.565213	6
C	0.935033	0.853124	0.830187	6
C	0.953883	1.236374	1.968357	6
H	-1.855997	0.221284	-0.720313	1
H	-1.472657	-0.709226	0.764887	1
H	-1.986707	-1.547666	-0.715073	1
H	0.570813	1.189854	-1.231773	1
H	1.931323	0.121954	-0.876443	1
H	0.977313	1.576994	2.978776	1
Es	1.240647	0.858929	1.464613	99
Es	0.429756	-1.824522	-1.334406	99
Es	-1.417038	-0.698690	-0.326003	99
Es	0.953876	1.236465	1.968591	99
Es	0.960899	1.467464	2.624796	99
Es	1.582237	0.222538	-0.764950	99
Es	0.472326	-0.186332	-0.638389	99
Es	0.495522	-2.047907	-1.522077	99
Es	0.687836	0.893025	1.455717	99
Es	0.349543	-1.551080	-0.890501	99
Es	0.935034	0.852997	0.829887	99
Es	0.236552	-1.388335	-1.336492	99
Es	0.678360	0.894245	-0.978837	99
Es	0.417462	-1.776098	-1.309555	99
Es	0.913243	0.629577	0.162494	99
Es	-0.709536	-0.734727	-0.533022	99
Es	-1.678139	-0.101221	-0.587726	99
Es	0.019215	-0.809719	-0.772120	99
Es	-1.445110	-0.681220	0.404660	99
Es	-1.790817	-1.266203	-0.601630	99
Es	0.899280	1.380904	1.293543	99
Es	0.916224	0.392906	-0.565073	99
