40
Properties=species:S:1:pos:R:3:Z:I:1 energy=-270.08744731439276 field_type=dipole dipole="0.000000 0.000000 0.000000" charge=0
C	-2.439431	-1.243653	0.045302	6
C	-0.924341	-1.291323	0.033612	6
O	-0.434891	0.030337	-0.171138	8
C	0.988939	0.065597	-0.189148	6
C	1.398399	1.486097	-0.407768	6
C	2.207859	2.182027	0.401212	6
H	-2.860671	-2.241523	0.198982	1
H	-2.820561	-0.840803	-0.899428	1
H	-2.798651	-0.582203	0.841212	1
H	-0.579221	-1.943803	-0.775308	1
H	-0.558131	-1.679073	0.989992	1
H	1.363120	-0.550113	-1.014248	1
H	1.382949	-0.323993	0.756652	1
H	0.987869	1.971027	-1.291258	1
H	2.632149	1.745317	1.300062	1
H	2.454609	3.216087	0.181272	1
Es	2.498870	1.888484	1.012210	99
Es	0.988729	0.065632	-0.189160	99
Es	-0.924294	-1.291112	0.033577	99
Es	2.381778	2.882490	0.257879	99
Es	-0.518734	0.189226	0.077321	99
Es	-0.680507	-1.745785	-0.524126	99
Es	1.398343	1.486017	-0.407818	99
Es	1.200190	0.779100	-0.294130	99
Es	-0.586012	-0.482567	-0.093105	99
Es	2.071353	1.729767	-0.171071	99
Es	1.118567	1.805093	-1.008943	99
Es	0.110945	0.011660	-0.173978	99
Es	-2.694175	-0.976436	-0.599137	99
Es	1.249567	-0.356742	-0.754885	99
Es	1.556988	1.934803	0.176069	99
Es	2.207935	2.182075	0.401270	99
Es	-2.439405	-1.243671	0.045304	99
Es	-0.434681	0.030044	-0.171105	99
Es	-0.523421	0.109862	-0.454341	99
Es	1.264570	-0.203468	0.461639	99
Es	-0.665885	-1.562990	0.694060	99
Es	-2.679342	-0.799978	0.589833	99
Es	-2.718300	-1.927653	0.150408	99
Es	-1.684401	-1.269649	0.039710	99
40
Properties=species:S:1:pos:R:3:Z:I:1 energy=-270.08744731439276 field_type=dipole dipole="0.000000 0.000000 0.000000" charge=0
C	-2.439431	-1.243653	0.045302	6
C	-0.924341	-1.291323	0.033612	6
O	-0.434891	0.030337	-0.171138	8
C	0.988939	0.065597	-0.189148	6
C	1.398399	1.486097	-0.407768	6
C	2.207859	2.182027	0.401212	6
H	-2.860671	-2.241523	0.198982	1
H	-2.820561	-0.840803	-0.899428	1
H	-2.798651	-0.582203	0.841212	1
H	-0.579221	-1.943803	-0.775308	1
H	-0.558131	-1.679073	0.989992	1
H	1.363120	-0.550113	-1.014248	1
H	1.382949	-0.323993	0.756652	1
H	0.987869	1.971027	-1.291258	1
H	2.632149	1.745317	1.300062	1
H	2.454609	3.216087	0.181272	1
Es	1.200236	0.779251	-0.294411	99
Es	-0.680632	-1.745644	-0.524081	99
Es	2.207937	2.182074	0.401267	99
Es	-0.586952	-0.483668	-0.096968	99
Es	-0.434673	0.030026	-0.171124	99
Es	1.398338	1.486015	-0.407824	99
Es	2.499174	1.888555	1.011821	99
Es	-0.924295	-1.291111	0.033579	99
Es	-2.679351	-0.799828	0.589616	99
Es	-2.718520	-1.928157	0.150296	99
Es	-1.684446	-1.269361	0.039493	99
Es	1.264399	-0.203374	0.461486	99
Es	1.118476	1.804860	-1.008395	99
Es	1.556469	1.934835	0.176670	99
Es	-2.693897	-0.976421	-0.598737	99
Es	-2.439402	-1.243672	0.045302	99
Es	0.111400	0.012934	-0.168964	99
Es	-0.522585	0.188990	0.075299	99
Es	1.249621	-0.356806	-0.754616	99
Es	-0.665917	-1.563201	0.693986	99
Es	2.381667	2.882527	0.258056	99
Es	-0.518950	0.109826	-0.453487	99
Es	2.071858	1.729920	-0.171628	99
Es	0.988724	0.065633	-0.189158	99
40
Properties=species:S:1:pos:R:3:Z:I:1 energy=-270.08744731439276 field_type=dipole dipole="0.000000 0.000000 0.000000" charge=0
C	-2.439431	-1.243653	0.045302	6
C	-0.924341	-1.291323	0.033612	6
O	-0.434891	0.030337	-0.171138	8
C	0.988939	0.065597	-0.189148	6
C	1.398399	1.486097	-0.407768	6
C	2.207859	2.182027	0.401212	6
H	-2.860671	-2.241523	0.198982	1
H	-2.820561	-0.840803	-0.899428	1
H	-2.798651	-0.582203	0.841212	1
H	-0.579221	-1.943803	-0.775308	1
H	-0.558131	-1.679073	0.989992	1
H	1.363120	-0.550113	-1.014248	1
H	1.382949	-0.323993	0.756652	1
H	0.987869	1.971027	-1.291258	1
H	2.632149	1.745317	1.300062	1
H	2.454609	3.216087	0.181272	1
Es	-2.693769	-0.976389	-0.598546	99
Es	2.207937	2.182075	0.401268	99
Es	1.264224	-0.203086	0.461387	99
Es	1.249801	-0.356968	-0.754542	99
Es	-2.718636	-1.928494	0.150312	99
Es	-0.523856	0.182515	0.074782	99
Es	1.118626	1.804756	-1.008040	99
Es	-1.684471	-1.269154	0.039314	99
Es	-0.680763	-1.745507	-0.524062	99
Es	1.200013	0.779260	-0.294606	99
Es	-0.924296	-1.291114	0.033580	99
Es	-2.439402	-1.243672	0.045302	99
Es	-0.665949	-1.563385	0.693971	99
Es	2.381668	2.882500	0.258141	99
Es	-2.679278	-0.799763	0.589439	99
Es	1.398338	1.486012	-0.407828	99
Es	0.112032	0.014660	-0.163047	99
Es	0.988728	0.065634	-0.189157	99
Es	-0.517155	0.115819	-0.451299	99
Es	-0.587981	-0.485028	-0.104552	99
Es	2.499129	1.888644	1.011772	99
Es	2.072201	1.729823	-0.171914	99
Es	1.556220	1.935010	0.176922	99
Es	-0.434679	0.030055	-0.171116	99
40
Properties=species:S:1:pos:R:3:Z:I:1 energy=-270.08744731439276 field_type=dipole dipole="0.000000 0.000000 0.000000" charge=0
C	-2.439431	-1.243653	0.045302	6
C	-0.924341	-1.291323	0.033612	6
O	-0.434891	0.030337	-0.171138	8
C	0.988939	0.065597	-0.189148	6
C	1.398399	1.486097	-0.407768	6
C	2.207859	2.182027	0.401212	6
H	-2.860671	-2.241523	0.198982	1
H	-2.820561	-0.840803	-0.899428	1
H	-2.798651	-0.582203	0.841212	1
H	-0.579221	-1.943803	-0.775308	1
H	-0.558131	-1.679073	0.989992	1
H	1.363120	-0.550113	-1.014248	1
H	1.382949	-0.323993	0.756652	1
H	0.987869	1.971027	-1.291258	1
H	2.632149	1.745317	1.300062	1
H	2.454609	3.216087	0.181272	1
Es	-2.718729	-1.928706	0.150099	99
Es	1.398338	1.486012	-0.407825	99
Es	1.249925	-0.357048	-0.754345	99
Es	2.381554	2.882400	0.258401	99
Es	-0.665924	-1.563566	0.693984	99
Es	2.207936	2.182076	0.401272	99
Es	1.118740	1.804635	-1.007923	99
Es	1.264034	-0.202938	0.461311	99
Es	2.072673	1.729735	-0.172251	99
Es	-0.513426	0.116665	-0.449069	99
Es	-0.924296	-1.291112	0.033580	99
Es	0.112699	0.017250	-0.156821	99
Es	-0.589144	-0.486056	-0.109391	99
Es	0.988728	0.065632	-0.189160	99
Es	-0.680982	-1.745414	-0.524157	99
Es	-2.439403	-1.243671	0.045303	99
Es	-2.693558	-0.976340	-0.598336	99
Es	-1.684297	-1.268912	0.039391	99
Es	1.555847	1.935112	0.177213	99
Es	2.499044	1.888775	1.011739	99
Es	-0.527039	0.180046	0.071050	99
Es	-0.434687	0.030037	-0.171112	99
Es	1.200081	0.779392	-0.294802	99
Es	-2.679433	-0.799802	0.589329	99
40
Properties=species:S:1:pos:R:3:Z:I:1 energy=-270.08744731439276 field_type=dipole dipole="0.000000 0.000000 0.000000" charge=0
C	-2.439431	-1.243653	0.045302	6
C	-0.924341	-1.291323	0.033612	6
O	-0.434891	0.030337	-0.171138	8
C	0.988939	0.065597	-0.189148	6
C	1.398399	1.486097	-0.407768	6
C	2.207859	2.182027	0.401212	6
H	-2.860671	-2.241523	0.198982	1
H	-2.820561	-0.840803	-0.899428	1
H	-2.798651	-0.582203	0.841212	1
H	-0.579221	-1.943803	-0.775308	1
H	-0.558131	-1.679073	0.989992	1
H	1.363120	-0.550113	-1.014248	1
H	1.382949	-0.323993	0.756652	1
H	0.987869	1.971027	-1.291258	1
H	2.632149	1.745317	1.300062	1
H	2.454609	3.216087	0.181272	1
Es	2.499068	1.888841	1.011902	99
Es	1.118946	1.804615	-1.007840	99
Es	-1.684396	-1.269039	0.039061	99
Es	-0.434691	0.030057	-0.171109	99
Es	-2.718825	-1.928815	0.150002	99
Es	2.072729	1.729755	-0.172387	99
Es	1.263968	-0.202881	0.461300	99
Es	1.200017	0.779314	-0.294924	99
Es	-0.924295	-1.291112	0.033579	99
Es	1.398337	1.486011	-0.407825	99
Es	2.381462	2.882194	0.258456	99
Es	-0.591582	-0.486839	-0.115441	99
Es	1.250021	-0.356969	-0.754370	99
Es	-2.679314	-0.799671	0.589428	99
Es	-0.680959	-1.745304	-0.524125	99
Es	-2.439403	-1.243671	0.045302	99
Es	0.112663	0.018778	-0.150277	99
Es	-2.693360	-0.976265	-0.598328	99
Es	0.988728	0.065634	-0.189157	99
Es	1.555648	1.935298	0.177364	99
Es	-0.529557	0.178277	0.067342	99
Es	-0.508375	0.117610	-0.445869	99
Es	2.207934	2.182077	0.401272	99
Es	-0.666086	-1.563692	0.694124	99
40
Properties=species:S:1:pos:R:3:Z:I:1 energy=-270.08744731439276 field_type=dipole dipole="0.000000 0.000000 0.000000" charge=0
C	-2.439431	-1.243653	0.045302	6
C	-0.924341	-1.291323	0.033612	6
O	-0.434891	0.030337	-0.171138	8
C	0.988939	0.065597	-0.189148	6
C	1.398399	1.486097	-0.407768	6
C	2.207859	2.182027	0.401212	6
H	-2.860671	-2.241523	0.198982	1
H	-2.820561	-0.840803	-0.899428	1
H	-2.798651	-0.582203	0.841212	1
H	-0.579221	-1.943803	-0.775308	1
H	-0.558131	-1.679073	0.989992	1
H	1.363120	-0.550113	-1.014248	1
H	1.382949	-0.323993	0.756652	1
H	0.987869	1.971027	-1.291258	1
H	2.632149	1.745317	1.300062	1
H	2.454609	3.216087	0.181272	1
Es	1.398338	1.486013	-0.407827	99
Es	2.072979	1.729692	-0.172589	99
Es	2.499050	1.888976	1.012026	99
Es	-2.718865	-1.928964	0.149878	99
Es	-2.679424	-0.799637	0.589359	99
Es	1.250128	-0.356982	-0.754285	99
Es	1.199946	0.779297	-0.295125	99
Es	-1.684201	-1.268848	0.039064	99
Es	1.555512	1.935361	0.177505	99
Es	0.112764	0.021203	-0.145733	99
Es	-0.666167	-1.563826	0.694219	99
Es	-0.591727	-0.487214	-0.120322	99
Es	-0.434702	0.029983	-0.171205	99
Es	-2.693173	-0.976279	-0.598227	99
Es	1.263938	-0.202656	0.461365	99
Es	0.988730	0.065632	-0.189159	99
Es	-0.681152	-1.745273	-0.524221	99
Es	1.119018	1.804528	-1.007795	99
Es	-2.439404	-1.243671	0.045303	99
Es	2.381275	2.882079	0.258542	99
Es	2.207938	2.182075	0.401268	99
Es	-0.507023	0.119346	-0.443224	99
Es	-0.924296	-1.291110	0.033579	99
Es	-0.530805	0.174479	0.065086	99
40
Properties=species:S:1:pos:R:3:Z:I:1 energy=-270.08744731439276 field_type=dipole dipole="0.000000 0.000000 0.000000" charge=0
C	-2.439431	-1.243653	0.045302	6
C	-0.924341	-1.291323	0.033612	6
O	-0.434891	0.030337	-0.171138	8
C	0.988939	0.065597	-0.189148	6
C	1.398399	1.486097	-0.407768	6
C	2.207859	2.182027	0.401212	6
H	-2.860671	-2.241523	0.198982	1
H	-2.820561	-0.840803	-0.899428	1
H	-2.798651	-0.582203	0.841212	1
H	-0.579221	-1.943803	-0.775308	1
H	-0.558131	-1.679073	0.989992	1
H	1.363120	-0.550113	-1.014248	1
H	1.382949	-0.323993	0.756652	1
H	0.987869	1.971027	-1.291258	1
H	2.632149	1.745317	1.300062	1
H	2.454609	3.216087	0.181272	1
Es	1.398338	1.486012	-0.407826	99
Es	-0.666120	-1.563916	0.694314	99
Es	1.263912	-0.202599	0.461391	99
Es	-2.679302	-0.799484	0.589435	99
Es	2.207935	2.182078	0.401271	99
Es	-1.684341	-1.268951	0.038999	99
Es	1.555320	1.935491	0.177612	99
Es	-0.681250	-1.745174	-0.524277	99
Es	-0.532908	0.171962	0.060585	99
Es	-0.593208	-0.487545	-0.126347	99
Es	-0.502982	0.119282	-0.439613	99
Es	0.988729	0.065633	-0.189159	99
Es	2.073114	1.729563	-0.172620	99
Es	-2.693063	-0.976298	-0.598375	99
Es	0.112299	0.024055	-0.138910	99
Es	1.199879	0.779326	-0.295228	99
Es	2.381172	2.881904	0.258576	99
Es	-0.434667	0.030020	-0.171125	99
Es	1.250128	-0.356995	-0.754330	99
Es	-2.439403	-1.243671	0.045301	99
Es	1.119227	1.804488	-1.007879	99
Es	2.499033	1.889106	1.012171	99
Es	-0.924297	-1.291110	0.033580	99
Es	-2.718864	-1.928975	0.149933	99
40
Properties=species:S:1:pos:R:3:Z:I:1 energy=-270.08744731439276 field_type=dipole dipole="0.000000 0.000000 0.000000" charge=0
C	-2.439431	-1.243653	0.045302	6
C	-0.924341	-1.291323	0.033612	6
O	-0.434891	0.030337	-0.171138	8
C	0.988939	0.065597	-0.189148	6
C	1.398399	1.486097	-0.407768	6
C	2.207859	2.182027	0.401212	6
H	-2.860671	-2.241523	0.198982	1
H	-2.820561	-0.840803	-0.899428	1
H	-2.798651	-0.582203	0.841212	1
H	-0.579221	-1.943803	-0.775308	1
H	-0.558131	-1.679073	0.989992	1
H	1.363120	-0.550113	-1.014248	1
H	1.382949	-0.323993	0.756652	1
H	0.987869	1.971027	-1.291258	1
H	2.632149	1.745317	1.300062	1
H	2.454609	3.216087	0.181272	1
Es	-0.501875	0.121324	-0.435780	99
Es	0.111949	0.026536	-0.133860	99
Es	1.250261	-0.356953	-0.754389	99
Es	0.988728	0.065634	-0.189159	99
Es	-0.924296	-1.291114	0.033580	99
Es	1.263862	-0.202475	0.461427	99
Es	-2.439401	-1.243671	0.045302	99
Es	1.199856	0.779258	-0.295249	99
Es	-2.718874	-1.929083	0.149760	99
Es	2.207929	2.182081	0.401274	99
Es	-2.679343	-0.799307	0.589560	99
Es	1.398337	1.486012	-0.407825	99
Es	-0.666165	-1.563981	0.694344	99
Es	1.119363	1.804349	-1.007888	99
Es	-0.532298	0.167318	0.057035	99
Es	-0.434685	0.029994	-0.171175	99
Es	-2.692847	-0.976351	-0.598278	99
Es	-0.594522	-0.487467	-0.131655	99
Es	2.380968	2.881671	0.258565	99
Es	2.073302	1.729515	-0.172781	99
Es	-0.681457	-1.745225	-0.524500	99
Es	2.499016	1.889304	1.012444	99
Es	-1.684281	-1.268829	0.039046	99
Es	1.555151	1.935663	0.177682	99
40
Properties=species:S:1:pos:R:3:Z:I:1 energy=-270.08744731439276 field_type=dipole dipole="0.000000 0.000000 0.000000" charge=0
C	-2.439431	-1.243653	0.045302	6
C	-0.924341	-1.291323	0.033612	6
O	-0.434891	0.030337	-0.171138	8
C	0.988939	0.065597	-0.189148	6
C	1.398399	1.486097	-0.407768	6
C	2.207859	2.182027	0.401212	6
H	-2.860671	-2.241523	0.198982	1
H	-2.820561	-0.840803	-0.899428	1
H	-2.798651	-0.582203	0.841212	1
H	-0.579221	-1.943803	-0.775308	1
H	-0.558131	-1.679073	0.989992	1
H	1.363120	-0.550113	-1.014248	1
H	1.382949	-0.323993	0.756652	1
H	0.987869	1.971027	-1.291258	1
H	2.632149	1.745317	1.300062	1
H	2.454609	3.216087	0.181272	1
Es	-0.681521	-1.745269	-0.524623	99
Es	1.555096	1.935668	0.177650	99
Es	1.263871	-0.202214	0.461536	99
Es	-0.532876	0.165146	0.052328	99
Es	1.119439	1.804316	-1.007915	99
Es	1.398336	1.486013	-0.407824	99
Es	-2.718777	-1.929044	0.149708	99
Es	2.073547	1.729446	-0.172850	99
Es	2.380842	2.881580	0.258628	99
Es	-0.498707	0.120568	-0.432355	99
Es	-0.434712	0.030085	-0.171117	99
Es	2.498932	1.889398	1.012589	99
Es	1.250302	-0.357062	-0.754406	99
Es	-0.596118	-0.487149	-0.136337	99
Es	-1.684182	-1.268851	0.038948	99
Es	-2.439403	-1.243671	0.045302	99
Es	2.207939	2.182077	0.401269	99
Es	-2.679262	-0.799353	0.589739	99
Es	-0.924295	-1.291111	0.033578	99
Es	1.199677	0.779213	-0.295402	99
Es	-0.666255	-1.563995	0.694447	99
Es	0.988729	0.065633	-0.189159	99
Es	-2.692910	-0.976293	-0.598344	99
Es	0.110990	0.029073	-0.127912	99
40
Properties=species:S:1:pos:R:3:Z:I:1 energy=-270.08744731439276 field_type=dipole dipole="0.000000 0.000000 0.000000" charge=0
C	-2.439431	-1.243653	0.045302	6
C	-0.924341	-1.291323	0.033612	6
O	-0.434891	0.030337	-0.171138	8
C	0.988939	0.065597	-0.189148	6
C	1.398399	1.486097	-0.407768	6
C	2.207859	2.182027	0.401212	6
H	-2.860671	-2.241523	0.198982	1
H	-2.820561	-0.840803	-0.899428	1
H	-2.798651	-0.582203	0.841212	1
H	-0.579221	-1.943803	-0.775308	1
H	-0.558131	-1.679073	0.989992	1
H	1.363120	-0.550113	-1.014248	1
H	1.382949	-0.323993	0.756652	1
H	0.987869	1.971027	-1.291258	1
H	2.632149	1.745317	1.300062	1
H	2.454609	3.216087	0.181272	1
Es	-0.596803	-0.486640	-0.141948	99
Es	2.380733	2.881438	0.258582	99
Es	-0.681682	-1.745371	-0.524780	99
Es	-2.718816	-1.929063	0.149568	99
Es	-1.684186	-1.268851	0.039092	99
Es	-2.679195	-0.799320	0.589888	99
Es	2.207933	2.182078	0.401273	99
Es	-0.531614	0.160509	0.050160	99
Es	-2.692763	-0.976184	-0.598381	99
Es	2.498918	1.889569	1.012739	99
Es	-0.666319	-1.563999	0.694448	99
Es	-2.439403	-1.243671	0.045302	99
Es	-0.434666	0.030138	-0.171081	99
Es	0.110273	0.031163	-0.124328	99
Es	-0.924296	-1.291112	0.033580	99
Es	1.250313	-0.357010	-0.754406	99
Es	-0.498567	0.122517	-0.428203	99
Es	1.263893	-0.202163	0.461572	99
Es	1.398338	1.486011	-0.407826	99
Es	1.119669	1.804278	-1.007975	99
Es	1.554998	1.935810	0.177706	99
Es	1.199590	0.779149	-0.295506	99
Es	2.073601	1.729293	-0.172837	99
Es	0.988731	0.065633	-0.189159	99
40
Properties=species:S:1:pos:R:3:Z:I:1 energy=-270.08744731439276 field_type=dipole dipole="0.000000 0.000000 0.000000" charge=0
C	-2.439431	-1.243653	0.045302	6
C	-0.924341	-1.291323	0.033612	6
O	-0.434891	0.030337	-0.171138	8
C	0.988939	0.065597	-0.189148	6
C	1.398399	1.486097	-0.407768	6
C	2.207859	2.182027	0.401212	6
H	-2.860671	-2.241523	0.198982	1
H	-2.820561	-0.840803	-0.899428	1
H	-2.798651	-0.582203	0.841212	1
H	-0.579221	-1.943803	-0.775308	1
H	-0.558131	-1.679073	0.989992	1
H	1.363120	-0.550113	-1.014248	1
H	1.382949	-0.323993	0.756652	1
H	0.987869	1.971027	-1.291258	1
H	2.632149	1.745317	1.300062	1
H	2.454609	3.216087	0.181272	1
Es	2.207934	2.182078	0.401273	99
Es	-2.718609	-1.929162	0.149624	99
Es	2.498938	1.889773	1.013013	99
Es	0.109312	0.032901	-0.120086	99
Es	2.380506	2.881256	0.258489	99
Es	1.199435	0.779038	-0.295703	99
Es	-0.666376	-1.564064	0.694514	99
Es	1.263988	-0.201925	0.461793	99
Es	1.555003	1.935826	0.177610	99
Es	-2.692828	-0.976291	-0.598410	99
Es	-1.684092	-1.268607	0.039020	99
Es	2.073821	1.729264	-0.172926	99
Es	-0.434738	0.030127	-0.171124	99
Es	-0.924296	-1.291113	0.033580	99
Es	-2.679257	-0.799311	0.589897	99
Es	-0.681801	-1.745363	-0.524863	99
Es	1.119662	1.804199	-1.007979	99
Es	-0.598111	-0.485979	-0.145569	99
Es	-0.531915	0.159606	0.046469	99
Es	-0.495891	0.121004	-0.425113	99
Es	0.988729	0.065633	-0.189160	99
Es	-2.439403	-1.243671	0.045303	99
Es	1.250331	-0.357028	-0.754346	99
Es	1.398337	1.486012	-0.407825	99
40
Properties=species:S:1:pos:R:3:Z:I:1 energy=-270.08744731439276 field_type=dipole dipole="0.000000 0.000000 0.000000" charge=0
C	-2.439431	-1.243653	0.045302	6
C	-0.924341	-1.291323	0.033612	6
O	-0.434891	0.030337	-0.171138	8
C	0.988939	0.065597	-0.189148	6
C	1.398399	1.486097	-0.407768	6
C	2.207859	2.182027	0.401212	6
H	-2.860671	-2.241523	0.198982	1
H	-2.820561	-0.840803	-0.899428	1
H	-2.798651	-0.582203	0.841212	1
H	-0.579221	-1.943803	-0.775308	1
H	-0.558131	-1.679073	0.989992	1
H	1.363120	-0.550113	-1.014248	1
H	1.382949	-0.323993	0.756652	1
H	0.987869	1.971027	-1.291258	1
H	2.632149	1.745317	1.300062	1
H	2.454609	3.216087	0.181272	1
Es	-2.692654	-0.976224	-0.598278	99
Es	-0.434703	0.030001	-0.171177	99
Es	-0.681831	-1.745407	-0.524962	99
Es	-2.679253	-0.799234	0.590087	99
Es	1.263937	-0.201920	0.461719	99
Es	-2.718750	-1.929105	0.149356	99
Es	-0.493902	0.119980	-0.423688	99
Es	2.207932	2.182079	0.401273	99
Es	0.107515	0.035630	-0.114416	99
Es	2.380565	2.881062	0.258538	99
Es	2.498858	1.889897	1.013062	99
Es	-1.684047	-1.268736	0.038983	99
Es	2.074068	1.729123	-0.173041	99
Es	-0.598874	-0.485817	-0.147293	99
Es	1.199319	0.779040	-0.295637	99
Es	-2.439404	-1.243672	0.045302	99
Es	1.554682	1.936009	0.177773	99
Es	1.250434	-0.357003	-0.754576	99
Es	-0.924296	-1.291113	0.033580	99
Es	1.119801	1.804148	-1.007920	99
Es	-0.531359	0.157852	0.041232	99
Es	1.398339	1.486012	-0.407827	99
Es	-0.666429	-1.564032	0.694547	99
Es	0.988730	0.065633	-0.189159	99
40
Properties=species:S:1:pos:R:3:Z:I:1 energy=-270.08744731439276 field_type=dipole dipole="0.000000 0.000000 0.000000" charge=0
C	-2.439431	-1.243653	0.045302	6
C	-0.924341	-1.291323	0.033612	6
O	-0.434891	0.030337	-0.171138	8
C	0.988939	0.065597	-0.189148	6
C	1.398399	1.486097	-0.407768	6
C	2.207859	2.182027	0.401212	6
H	-2.860671	-2.241523	0.198982	1
H	-2.820561	-0.840803	-0.899428	1
H	-2.798651	-0.582203	0.841212	1
H	-0.579221	-1.943803	-0.775308	1
H	-0.558131	-1.679073	0.989992	1
H	1.363120	-0.550113	-1.014248	1
H	1.382949	-0.323993	0.756652	1
H	0.987869	1.971027	-1.291258	1
H	2.632149	1.745317	1.300062	1
H	2.454609	3.216087	0.181272	1
Es	-0.434708	0.030033	-0.171153	99
Es	-0.494769	0.121632	-0.418322	99
Es	2.380503	2.881045	0.258447	99
Es	2.207930	2.182079	0.401274	99
Es	-2.679060	-0.799129	0.590083	99
Es	-0.529387	0.153841	0.041129	99
Es	1.119946	1.804158	-1.008024	99
Es	1.199286	0.778922	-0.295875	99
Es	0.988731	0.065633	-0.189160	99
Es	2.498918	1.889920	1.013145	99
Es	-0.681956	-1.745409	-0.525033	99
Es	1.264042	-0.201811	0.461862	99
Es	-0.924296	-1.291111	0.033580	99
Es	-2.439404	-1.243672	0.045303	99
Es	-2.718633	-1.929167	0.149609	99
Es	1.554767	1.936073	0.177812	99
Es	-1.684079	-1.268679	0.038878	99
Es	-2.692759	-0.976297	-0.598433	99
Es	-0.600029	-0.484636	-0.153348	99
Es	1.250357	-0.356981	-0.754509	99
Es	1.398340	1.486010	-0.407827	99
Es	0.107521	0.036725	-0.113752	99
Es	-0.666387	-1.564053	0.694711	99
Es	2.073805	1.729076	-0.172918	99
40
Properties=species:S:1:pos:R:3:Z:I:1 energy=-270.08744731439276 field_type=dipole dipole="0.000000 0.000000 0.000000" charge=0
C	-2.439431	-1.243653	0.045302	6
C	-0.924341	-1.291323	0.033612	6
O	-0.434891	0.030337	-0.171138	8
C	0.988939	0.065597	-0.189148	6
C	1.398399	1.486097	-0.407768	6
C	2.207859	2.182027	0.401212	6
H	-2.860671	-2.241523	0.198982	1
H	-2.820561	-0.840803	-0.899428	1
H	-2.798651	-0.582203	0.841212	1
H	-0.579221	-1.943803	-0.775308	1
H	-0.558131	-1.679073	0.989992	1
H	1.363120	-0.550113	-1.014248	1
H	1.382949	-0.323993	0.756652	1
H	0.987869	1.971027	-1.291258	1
H	2.632149	1.745317	1.300062	1
H	2.454609	3.216087	0.181272	1
Es	0.988730	0.065633	-0.189159	99
Es	1.250366	-0.357013	-0.754664	99
Es	-2.679079	-0.799104	0.590219	99
Es	-0.666397	-1.564064	0.694567	99
Es	1.398339	1.486011	-0.407826	99
Es	1.199173	0.778962	-0.295803	99
Es	-2.692710	-0.976298	-0.598438	99
Es	-0.434756	0.030124	-0.171121	99
Es	0.105628	0.039078	-0.108755	99
Es	2.498908	1.889965	1.013231	99
Es	-0.682035	-1.745439	-0.525150	99
Es	2.380465	2.880912	0.258487	99
Es	2.207933	2.182080	0.401272	99
Es	-0.529387	0.153756	0.036230	99
Es	-2.439403	-1.243672	0.045303	99
Es	-0.600828	-0.484338	-0.154489	99
Es	2.074028	1.728984	-0.173010	99
Es	-2.718640	-1.929071	0.149494	99
Es	-1.684083	-1.268742	0.039007	99
Es	-0.491935	0.119056	-0.417134	99
Es	1.264081	-0.201734	0.461903	99
Es	1.554632	1.936173	0.177826	99
Es	1.119943	1.804056	-1.008091	99
Es	-0.924295	-1.291112	0.033579	99
