38
Properties=species:S:1:pos:R:3:Z:I:1 energy=-305.89857259116775 field_type=dipole dipole="0.000000 0.000000 0.000000" charge=0
C	-0.632712	-2.163288	-0.520139	6
O	-1.000012	-0.877938	-0.039049	8
C	0.141528	-0.083718	0.346331	6
C	0.587938	0.940922	-0.656229	6
C	-0.139152	1.376022	0.579721	6
O	0.673288	2.019352	1.573771	8
H	-1.540432	-2.693698	-0.819889	1
H	-0.134982	-2.734758	0.269111	1
H	0.025138	-2.070898	-1.389719	1
H	0.889878	-0.536478	0.990031	1
H	0.057068	0.995232	-1.599499	1
H	1.649388	1.144042	-0.726599	1
H	-1.170732	1.698402	0.480491	1
H	0.593798	2.986802	1.511671	1
Es	0.141321	-0.083676	0.346196	99
Es	0.587858	0.940882	-0.656078	99
Es	-0.086243	0.604121	0.631692	99
Es	-0.823040	-1.356018	-0.219073	99
Es	-0.540523	-0.602415	0.101758	99
Es	0.351938	1.802821	1.187370	99
Es	-1.121020	-0.725692	-0.276329	99
Es	0.554401	1.944800	1.844001	99
Es	-0.175252	-2.103553	-1.116081	99
Es	-0.283427	-2.557141	0.019829	99
Es	-0.999658	-0.878041	-0.039115	99
Es	-1.157595	-0.929248	0.218571	99
Es	0.452590	0.295478	-0.270584	99
Es	0.959638	1.948607	1.497281	99
Es	0.613451	2.534091	1.513985	99
Es	0.646161	-0.399894	0.773982	99
Es	1.301978	1.082534	-0.696634	99
Es	-1.250051	-2.523547	-0.723916	99
Es	0.226161	0.971155	-1.289544	99
Es	0.235448	1.334572	-0.112722	99
Es	0.672993	2.019523	1.573564	99
Es	-0.832979	1.602095	0.513032	99
Es	-0.138910	1.376004	0.579814	99
Es	-0.632764	-2.163084	-0.520062	99
38
Properties=species:S:1:pos:R:3:Z:I:1 energy=-305.89857259116775 field_type=dipole dipole="0.000000 0.000000 0.000000" charge=0
C	-0.632712	-2.163288	-0.520139	6
O	-1.000012	-0.877938	-0.039049	8
C	0.141528	-0.083718	0.346331	6
C	0.587938	0.940922	-0.656229	6
C	-0.139152	1.376022	0.579721	6
O	0.673288	2.019352	1.573771	8
H	-1.540432	-2.693698	-0.819889	1
H	-0.134982	-2.734758	0.269111	1
H	0.025138	-2.070898	-1.389719	1
H	0.889878	-0.536478	0.990031	1
H	0.057068	0.995232	-1.599499	1
H	1.649388	1.144042	-0.726599	1
H	-1.170732	1.698402	0.480491	1
H	0.593798	2.986802	1.511671	1
Es	-0.540981	-0.600518	0.100133	99
Es	-0.283590	-2.557171	0.019526	99
Es	0.227216	0.971153	-1.288748	99
Es	-0.175281	-2.103832	-1.116034	99
Es	0.234389	1.336902	-0.112358	99
Es	-1.121286	-0.727242	-0.273729	99
Es	-0.138912	1.376000	0.579819	99
Es	1.300941	1.082762	-0.696990	99
Es	0.354411	1.801412	1.185916	99
Es	-1.156245	-0.926803	0.217117	99
Es	-0.632766	-2.163082	-0.520061	99
Es	0.141319	-0.083663	0.346201	99
Es	-0.823497	-1.358669	-0.218562	99
Es	0.587869	0.940874	-0.656101	99
Es	-1.249838	-2.523649	-0.723823	99
Es	0.614071	2.537282	1.514751	99
Es	0.452681	0.292916	-0.269950	99
Es	-0.832236	1.602466	0.512627	99
Es	0.673099	2.019514	1.573544	99
Es	-0.086268	0.603661	0.631813	99
Es	-0.999628	-0.878059	-0.039120	99
Es	0.555154	1.942980	1.842358	99
Es	0.955634	1.949031	1.499375	99
Es	0.646219	-0.399890	0.773232	99
38
Properties=species:S:1:pos:R:3:Z:I:1 energy=-305.89857259116775 field_type=dipole dipole="0.000000 0.000000 0.000000" charge=0
C	-0.632712	-2.163288	-0.520139	6
O	-1.000012	-0.877938	-0.039049	8
C	0.141528	-0.083718	0.346331	6
C	0.587938	0.940922	-0.656229	6
C	-0.139152	1.376022	0.579721	6
O	0.673288	2.019352	1.573771	8
H	-1.540432	-2.693698	-0.819889	1
H	-0.134982	-2.734758	0.269111	1
H	0.025138	-2.070898	-1.389719	1
H	0.889878	-0.536478	0.990031	1
H	0.057068	0.995232	-1.599499	1
H	1.649388	1.144042	-0.726599	1
H	-1.170732	1.698402	0.480491	1
H	0.593798	2.986802	1.511671	1
Es	-0.086285	0.603303	0.632004	99
Es	-0.632766	-2.163079	-0.520060	99
Es	0.452956	0.291086	-0.269857	99
Es	0.355032	1.800166	1.186032	99
Es	-0.831668	1.602589	0.512425	99
Es	-1.154144	-0.926242	0.216346	99
Es	1.300061	1.082926	-0.697265	99
Es	0.953421	1.950132	1.499206	99
Es	-0.175207	-2.104096	-1.116027	99
Es	0.233838	1.338397	-0.112070	99
Es	-0.823923	-1.359888	-0.219278	99
Es	-0.541242	-0.599054	0.098961	99
Es	0.613143	2.539110	1.515941	99
Es	0.646140	-0.399892	0.772710	99
Es	-0.283849	-2.557192	0.019398	99
Es	0.673104	2.019549	1.573513	99
Es	0.227858	0.971443	-1.288112	99
Es	0.141325	-0.083682	0.346187	99
Es	-1.249619	-2.523654	-0.723740	99
Es	-1.122573	-0.727883	-0.271134	99
Es	0.587859	0.940867	-0.656089	99
Es	-0.138903	1.376028	0.579800	99
Es	-0.999668	-0.878055	-0.039076	99
Es	0.557585	1.941495	1.841123	99
38
Properties=species:S:1:pos:R:3:Z:I:1 energy=-305.89857259116775 field_type=dipole dipole="0.000000 0.000000 0.000000" charge=0
C	-0.632712	-2.163288	-0.520139	6
O	-1.000012	-0.877938	-0.039049	8
C	0.141528	-0.083718	0.346331	6
C	0.587938	0.940922	-0.656229	6
C	-0.139152	1.376022	0.579721	6
O	0.673288	2.019352	1.573771	8
H	-1.540432	-2.693698	-0.819889	1
H	-0.134982	-2.734758	0.269111	1
H	0.025138	-2.070898	-1.389719	1
H	0.889878	-0.536478	0.990031	1
H	0.057068	0.995232	-1.599499	1
H	1.649388	1.144042	-0.726599	1
H	-1.170732	1.698402	0.480491	1
H	0.593798	2.986802	1.511671	1
Es	-0.086581	0.603226	0.632327	99
Es	0.615113	2.540263	1.515199	99
Es	-1.154333	-0.924987	0.215999	99
Es	0.356282	1.799992	1.185157	99
Es	-0.175238	-2.104195	-1.116070	99
Es	0.587864	0.940873	-0.656092	99
Es	-0.999637	-0.878055	-0.039073	99
Es	0.228313	0.971386	-1.287619	99
Es	-0.824126	-1.360901	-0.219035	99
Es	1.299482	1.082972	-0.697528	99
Es	-1.249481	-2.523718	-0.723629	99
Es	0.233561	1.339370	-0.111976	99
Es	-0.283897	-2.557172	0.019248	99
Es	-1.121890	-0.729331	-0.269748	99
Es	0.646062	-0.399832	0.772321	99
Es	-0.632765	-2.163075	-0.520058	99
Es	0.141320	-0.083683	0.346195	99
Es	0.556025	1.941952	1.840188	99
Es	-0.138909	1.376010	0.579808	99
Es	0.673105	2.019505	1.573580	99
Es	-0.541513	-0.597845	0.097722	99
Es	0.453196	0.289940	-0.269740	99
Es	-0.831150	1.602810	0.512167	99
Es	0.951673	1.948869	1.501595	99
38
Properties=species:S:1:pos:R:3:Z:I:1 energy=-305.89857259116775 field_type=dipole dipole="0.000000 0.000000 0.000000" charge=0
C	-0.632712	-2.163288	-0.520139	6
O	-1.000012	-0.877938	-0.039049	8
C	0.141528	-0.083718	0.346331	6
C	0.587938	0.940922	-0.656229	6
C	-0.139152	1.376022	0.579721	6
O	0.673288	2.019352	1.573771	8
H	-1.540432	-2.693698	-0.819889	1
H	-0.134982	-2.734758	0.269111	1
H	0.025138	-2.070898	-1.389719	1
H	0.889878	-0.536478	0.990031	1
H	0.057068	0.995232	-1.599499	1
H	1.649388	1.144042	-0.726599	1
H	-1.170732	1.698402	0.480491	1
H	0.593798	2.986802	1.511671	1
Es	-1.155812	-0.923189	0.215344	99
Es	0.141319	-0.083683	0.346195	99
Es	-0.541712	-0.597232	0.097131	99
Es	0.228687	0.971356	-1.287204	99
Es	-0.138910	1.376005	0.579808	99
Es	-0.999648	-0.878063	-0.039075	99
Es	0.560056	1.939548	1.841878	99
Es	-0.284060	-2.557147	0.019173	99
Es	0.233089	1.340328	-0.111657	99
Es	-0.175151	-2.104324	-1.116081	99
Es	-1.249378	-2.523733	-0.723564	99
Es	-0.632766	-2.163079	-0.520060	99
Es	0.587864	0.940877	-0.656093	99
Es	-0.830957	1.602917	0.512010	99
Es	0.453354	0.288926	-0.269497	99
Es	-0.086409	0.603088	0.632078	99
Es	1.298985	1.083063	-0.697696	99
Es	-0.824438	-1.361932	-0.218313	99
Es	0.673084	2.019538	1.573530	99
Es	0.646043	-0.399821	0.772081	99
Es	0.949026	1.951039	1.498254	99
Es	0.614193	2.541067	1.515731	99
Es	0.355833	1.799504	1.186259	99
Es	-1.119818	-0.730680	-0.269296	99
38
Properties=species:S:1:pos:R:3:Z:I:1 energy=-305.89857259116775 field_type=dipole dipole="0.000000 0.000000 0.000000" charge=0
C	-0.632712	-2.163288	-0.520139	6
O	-1.000012	-0.877938	-0.039049	8
C	0.141528	-0.083718	0.346331	6
C	0.587938	0.940922	-0.656229	6
C	-0.139152	1.376022	0.579721	6
O	0.673288	2.019352	1.573771	8
H	-1.540432	-2.693698	-0.819889	1
H	-0.134982	-2.734758	0.269111	1
H	0.025138	-2.070898	-1.389719	1
H	0.889878	-0.536478	0.990031	1
H	0.057068	0.995232	-1.599499	1
H	1.649388	1.144042	-0.726599	1
H	-1.170732	1.698402	0.480491	1
H	0.593798	2.986802	1.511671	1
Es	1.298706	1.082963	-0.697708	99
Es	0.614491	2.541970	1.516555	99
Es	-0.632766	-2.163080	-0.520060	99
Es	0.229108	0.971351	-1.286922	99
Es	-1.249258	-2.523625	-0.723518	99
Es	-0.284212	-2.557230	0.019180	99
Es	-0.824482	-1.362736	-0.217254	99
Es	0.561061	1.938761	1.841151	99
Es	0.232780	1.341153	-0.111702	99
Es	-0.830676	1.602925	0.511945	99
Es	0.453244	0.288276	-0.269414	99
Es	-1.157774	-0.921427	0.214879	99
Es	-0.086476	0.602969	0.632016	99
Es	0.947038	1.951701	1.498743	99
Es	-0.541897	-0.597048	0.096854	99
Es	0.673072	2.019512	1.573558	99
Es	-0.999655	-0.878055	-0.039092	99
Es	-0.138905	1.376020	0.579800	99
Es	-1.117491	-0.731825	-0.269589	99
Es	0.587863	0.940874	-0.656091	99
Es	0.356463	1.798830	1.185620	99
Es	-0.175122	-2.104427	-1.116142	99
Es	0.646046	-0.399789	0.771933	99
Es	0.141316	-0.083690	0.346195	99
38
Properties=species:S:1:pos:R:3:Z:I:1 energy=-305.89857259116775 field_type=dipole dipole="0.000000 0.000000 0.000000" charge=0
C	-0.632712	-2.163288	-0.520139	6
O	-1.000012	-0.877938	-0.039049	8
C	0.141528	-0.083718	0.346331	6
C	0.587938	0.940922	-0.656229	6
C	-0.139152	1.376022	0.579721	6
O	0.673288	2.019352	1.573771	8
H	-1.540432	-2.693698	-0.819889	1
H	-0.134982	-2.734758	0.269111	1
H	0.025138	-2.070898	-1.389719	1
H	0.889878	-0.536478	0.990031	1
H	0.057068	0.995232	-1.599499	1
H	1.649388	1.144042	-0.726599	1
H	-1.170732	1.698402	0.480491	1
H	0.593798	2.986802	1.511671	1
Es	0.453395	0.287690	-0.269568	99
Es	0.673088	2.019560	1.573519	99
Es	-1.249186	-2.523667	-0.723358	99
Es	0.141319	-0.083683	0.346196	99
Es	0.357890	1.798288	1.184697	99
Es	-0.999668	-0.878041	-0.039091	99
Es	-0.138909	1.376006	0.579806	99
Es	-0.632765	-2.163081	-0.520061	99
Es	0.559960	1.939017	1.840815	99
Es	0.587862	0.940873	-0.656087	99
Es	-0.175329	-2.104495	-1.116227	99
Es	0.232597	1.341696	-0.111660	99
Es	0.946846	1.951939	1.500316	99
Es	1.298268	1.083074	-0.697866	99
Es	0.614323	2.542060	1.516157	99
Es	-0.830501	1.602952	0.511918	99
Es	-0.824627	-1.363170	-0.217016	99
Es	0.229390	0.971495	-1.286491	99
Es	-0.284074	-2.557215	0.019085	99
Es	-0.086444	0.602700	0.632324	99
Es	-1.118287	-0.732430	-0.268724	99
Es	0.646021	-0.399749	0.771609	99
Es	-0.542025	-0.596320	0.095658	99
Es	-1.156669	-0.921125	0.214985	99
38
Properties=species:S:1:pos:R:3:Z:I:1 energy=-305.89857259116775 field_type=dipole dipole="0.000000 0.000000 0.000000" charge=0
C	-0.632712	-2.163288	-0.520139	6
O	-1.000012	-0.877938	-0.039049	8
C	0.141528	-0.083718	0.346331	6
C	0.587938	0.940922	-0.656229	6
C	-0.139152	1.376022	0.579721	6
O	0.673288	2.019352	1.573771	8
H	-1.540432	-2.693698	-0.819889	1
H	-0.134982	-2.734758	0.269111	1
H	0.025138	-2.070898	-1.389719	1
H	0.889878	-0.536478	0.990031	1
H	0.057068	0.995232	-1.599499	1
H	1.649388	1.144042	-0.726599	1
H	-1.170732	1.698402	0.480491	1
H	0.593798	2.986802	1.511671	1
Es	-1.249073	-2.523604	-0.723326	99
Es	-0.086323	0.602833	0.632056	99
Es	0.646067	-0.399771	0.771499	99
Es	0.358265	1.798441	1.184608	99
Es	-0.830396	1.602984	0.511856	99
Es	0.560367	1.938319	1.841572	99
Es	0.229622	0.971402	-1.286139	99
Es	0.945291	1.952174	1.499927	99
Es	-1.119748	-0.732814	-0.266872	99
Es	0.615088	2.542451	1.515799	99
Es	-0.138908	1.376013	0.579808	99
Es	-1.154961	-0.921443	0.214951	99
Es	0.232284	1.342199	-0.111564	99
Es	-0.824883	-1.363419	-0.217796	99
Es	0.587865	0.940870	-0.656095	99
Es	-0.284224	-2.557250	0.019109	99
Es	1.298063	1.083153	-0.698003	99
Es	0.453419	0.286995	-0.269463	99
Es	0.141319	-0.083683	0.346196	99
Es	-0.175241	-2.104552	-1.116286	99
Es	0.673069	2.019542	1.573570	99
Es	-0.632770	-2.163078	-0.520060	99
Es	-0.999618	-0.878082	-0.039059	99
Es	-0.542101	-0.595307	0.094646	99
38
Properties=species:S:1:pos:R:3:Z:I:1 energy=-305.89857259116775 field_type=dipole dipole="0.000000 0.000000 0.000000" charge=0
C	-0.632712	-2.163288	-0.520139	6
O	-1.000012	-0.877938	-0.039049	8
C	0.141528	-0.083718	0.346331	6
C	0.587938	0.940922	-0.656229	6
C	-0.139152	1.376022	0.579721	6
O	0.673288	2.019352	1.573771	8
H	-1.540432	-2.693698	-0.819889	1
H	-0.134982	-2.734758	0.269111	1
H	0.025138	-2.070898	-1.389719	1
H	0.889878	-0.536478	0.990031	1
H	0.057068	0.995232	-1.599499	1
H	1.649388	1.144042	-0.726599	1
H	-1.170732	1.698402	0.480491	1
H	0.593798	2.986802	1.511671	1
Es	-0.175183	-2.104612	-1.116287	99
Es	0.645995	-0.399728	0.771542	99
Es	-0.830209	1.603116	0.511667	99
Es	0.673130	2.019515	1.573569	99
Es	0.944467	1.952058	1.500200	99
Es	1.297854	1.082844	-0.697987	99
Es	-0.542241	-0.595185	0.094773	99
Es	-0.999762	-0.878021	-0.039100	99
Es	-1.116874	-0.733996	-0.267533	99
Es	-0.138909	1.376011	0.579806	99
Es	-0.284371	-2.557347	0.019127	99
Es	0.141318	-0.083684	0.346196	99
Es	-1.157384	-0.919853	0.214417	99
Es	-0.824977	-1.363993	-0.216698	99
Es	-0.632765	-2.163079	-0.520058	99
Es	0.587862	0.940874	-0.656089	99
Es	-0.086441	0.602847	0.631931	99
Es	0.232374	1.342525	-0.111250	99
Es	0.615385	2.543003	1.516009	99
Es	-1.248991	-2.523496	-0.723360	99
Es	0.358327	1.798191	1.184703	99
Es	0.453375	0.286555	-0.269537	99
Es	0.560717	1.938207	1.840981	99
Es	0.229777	0.971621	-1.286084	99
38
Properties=species:S:1:pos:R:3:Z:I:1 energy=-305.89857259116775 field_type=dipole dipole="0.000000 0.000000 0.000000" charge=0
C	-0.632712	-2.163288	-0.520139	6
O	-1.000012	-0.877938	-0.039049	8
C	0.141528	-0.083718	0.346331	6
C	0.587938	0.940922	-0.656229	6
C	-0.139152	1.376022	0.579721	6
O	0.673288	2.019352	1.573771	8
H	-1.540432	-2.693698	-0.819889	1
H	-0.134982	-2.734758	0.269111	1
H	0.025138	-2.070898	-1.389719	1
H	0.889878	-0.536478	0.990031	1
H	0.057068	0.995232	-1.599499	1
H	1.649388	1.144042	-0.726599	1
H	-1.170732	1.698402	0.480491	1
H	0.593798	2.986802	1.511671	1
Es	0.943758	1.952988	1.499506	99
Es	0.358451	1.797898	1.184689	99
Es	0.673098	2.019520	1.573574	99
Es	-0.284308	-2.557296	0.019092	99
Es	1.297598	1.083116	-0.698054	99
Es	-0.999660	-0.878068	-0.039049	99
Es	-0.175215	-2.104601	-1.116242	99
Es	0.614863	2.543098	1.516363	99
Es	-1.155154	-0.920799	0.215070	99
Es	-0.632765	-2.163082	-0.520061	99
Es	-0.830079	1.603028	0.511717	99
Es	0.230042	0.971413	-1.285794	99
Es	-0.138910	1.376010	0.579804	99
Es	0.453518	0.286208	-0.269434	99
Es	0.232078	1.342911	-0.111574	99
Es	-0.542337	-0.594452	0.093567	99
Es	-1.119127	-0.733886	-0.265949	99
Es	-0.824959	-1.363858	-0.217755	99
Es	-0.086473	0.602822	0.632071	99
Es	0.587861	0.940876	-0.656090	99
Es	-1.248990	-2.523573	-0.723366	99
Es	0.646034	-0.399743	0.771334	99
Es	0.141318	-0.083684	0.346197	99
Es	0.561833	1.937525	1.841321	99
38
Properties=species:S:1:pos:R:3:Z:I:1 energy=-305.89857259116775 field_type=dipole dipole="0.000000 0.000000 0.000000" charge=0
C	-0.632712	-2.163288	-0.520139	6
O	-1.000012	-0.877938	-0.039049	8
C	0.141528	-0.083718	0.346331	6
C	0.587938	0.940922	-0.656229	6
C	-0.139152	1.376022	0.579721	6
O	0.673288	2.019352	1.573771	8
H	-1.540432	-2.693698	-0.819889	1
H	-0.134982	-2.734758	0.269111	1
H	0.025138	-2.070898	-1.389719	1
H	0.889878	-0.536478	0.990031	1
H	0.057068	0.995232	-1.599499	1
H	1.649388	1.144042	-0.726599	1
H	-1.170732	1.698402	0.480491	1
H	0.593798	2.986802	1.511671	1
Es	0.587861	0.940875	-0.656085	99
Es	-1.118370	-0.734930	-0.265942	99
Es	0.562555	1.936838	1.841169	99
Es	-0.086450	0.602761	0.631925	99
Es	-0.999654	-0.878070	-0.039075	99
Es	-1.248909	-2.523481	-0.723266	99
Es	-0.284436	-2.557343	0.019088	99
Es	0.453521	0.285837	-0.269535	99
Es	0.673145	2.019500	1.573599	99
Es	1.297457	1.083006	-0.698156	99
Es	0.614050	2.543264	1.516984	99
Es	-0.542502	-0.593829	0.092895	99
Es	0.943300	1.953881	1.499253	99
Es	0.645967	-0.399696	0.771360	99
Es	0.358946	1.797560	1.184436	99
Es	-0.829959	1.603060	0.511676	99
Es	-0.632766	-2.163079	-0.520059	99
Es	0.141319	-0.083684	0.346196	99
Es	0.232107	1.343187	-0.111385	99
Es	-1.155816	-0.920002	0.214892	99
Es	-0.824869	-1.364207	-0.216901	99
Es	-0.175196	-2.104706	-1.116341	99
Es	0.230082	0.971618	-1.285599	99
Es	-0.138908	1.376013	0.579806	99
38
Properties=species:S:1:pos:R:3:Z:I:1 energy=-305.89857259116775 field_type=dipole dipole="0.000000 0.000000 0.000000" charge=0
C	-0.632712	-2.163288	-0.520139	6
O	-1.000012	-0.877938	-0.039049	8
C	0.141528	-0.083718	0.346331	6
C	0.587938	0.940922	-0.656229	6
C	-0.139152	1.376022	0.579721	6
O	0.673288	2.019352	1.573771	8
H	-1.540432	-2.693698	-0.819889	1
H	-0.134982	-2.734758	0.269111	1
H	0.025138	-2.070898	-1.389719	1
H	0.889878	-0.536478	0.990031	1
H	0.057068	0.995232	-1.599499	1
H	1.649388	1.144042	-0.726599	1
H	-1.170732	1.698402	0.480491	1
H	0.593798	2.986802	1.511671	1
Es	0.565077	1.935168	1.842307	99
Es	-1.158677	-0.918450	0.214261	99
Es	-0.138908	1.376015	0.579807	99
Es	0.231925	1.343516	-0.111348	99
Es	-0.999589	-0.878055	-0.039149	99
Es	-0.829895	1.603064	0.511641	99
Es	-0.086339	0.602773	0.631916	99
Es	-0.542447	-0.594063	0.093384	99
Es	-0.175311	-2.104710	-1.116289	99
Es	0.230200	0.971470	-1.285590	99
Es	-0.825145	-1.364600	-0.216379	99
Es	-0.632765	-2.163078	-0.520057	99
Es	0.141318	-0.083687	0.346195	99
Es	-1.115311	-0.735865	-0.266245	99
Es	-1.248889	-2.523477	-0.723305	99
Es	0.358008	1.798020	1.185178	99
Es	0.587862	0.940872	-0.656088	99
Es	0.941818	1.954775	1.496918	99
Es	0.646079	-0.399726	0.771151	99
Es	0.673161	2.019554	1.573400	99
Es	-0.284360	-2.557395	0.019051	99
Es	0.453623	0.285580	-0.269273	99
Es	1.297178	1.083118	-0.698137	99
Es	0.613860	2.543556	1.517587	99
38
Properties=species:S:1:pos:R:3:Z:I:1 energy=-305.89857259116775 field_type=dipole dipole="0.000000 0.000000 0.000000" charge=0
C	-0.632712	-2.163288	-0.520139	6
O	-1.000012	-0.877938	-0.039049	8
C	0.141528	-0.083718	0.346331	6
C	0.587938	0.940922	-0.656229	6
C	-0.139152	1.376022	0.579721	6
O	0.673288	2.019352	1.573771	8
H	-1.540432	-2.693698	-0.819889	1
H	-0.134982	-2.734758	0.269111	1
H	0.025138	-2.070898	-1.389719	1
H	0.889878	-0.536478	0.990031	1
H	0.057068	0.995232	-1.599499	1
H	1.649388	1.144042	-0.726599	1
H	-1.170732	1.698402	0.480491	1
H	0.593798	2.986802	1.511671	1
Es	-0.284380	-2.557339	0.019061	99
Es	-1.113561	-0.735956	-0.267446	99
Es	0.559241	1.938211	1.839943	99
Es	-0.829736	1.603086	0.511600	99
Es	-1.160201	-0.917338	0.213105	99
Es	0.231993	1.343725	-0.111397	99
Es	-0.175320	-2.104779	-1.116404	99
Es	-0.086514	0.602704	0.631831	99
Es	-0.999680	-0.878085	-0.039044	99
Es	-1.248835	-2.523484	-0.723149	99
Es	0.360791	1.797475	1.183249	99
Es	0.587862	0.940874	-0.656087	99
Es	-0.825062	-1.365138	-0.215256	99
Es	0.141319	-0.083689	0.346192	99
Es	1.297084	1.082926	-0.698174	99
Es	-0.632769	-2.163080	-0.520061	99
Es	-0.542643	-0.594539	0.094515	99
Es	0.646033	-0.399651	0.771270	99
Es	-0.138908	1.376012	0.579805	99
Es	0.230333	0.971626	-1.285420	99
Es	0.673075	2.019520	1.573567	99
Es	0.453490	0.285363	-0.269397	99
Es	0.942941	1.952199	1.502834	99
Es	0.615923	2.543732	1.515799	99
38
Properties=species:S:1:pos:R:3:Z:I:1 energy=-305.89857259116775 field_type=dipole dipole="0.000000 0.000000 0.000000" charge=0
C	-0.632712	-2.163288	-0.520139	6
O	-1.000012	-0.877938	-0.039049	8
C	0.141528	-0.083718	0.346331	6
C	0.587938	0.940922	-0.656229	6
C	-0.139152	1.376022	0.579721	6
O	0.673288	2.019352	1.573771	8
H	-1.540432	-2.693698	-0.819889	1
H	-0.134982	-2.734758	0.269111	1
H	0.025138	-2.070898	-1.389719	1
H	0.889878	-0.536478	0.990031	1
H	0.057068	0.995232	-1.599499	1
H	1.649388	1.144042	-0.726599	1
H	-1.170732	1.698402	0.480491	1
H	0.593798	2.986802	1.511671	1
Es	0.453700	0.285167	-0.269421	99
Es	0.615350	2.543810	1.516512	99
Es	0.230422	0.971444	-1.285108	99
Es	-0.086518	0.602700	0.632093	99
Es	-0.999660	-0.878079	-0.039052	99
Es	-1.115675	-0.735908	-0.266123	99
Es	-0.542722	-0.593659	0.093545	99
Es	-1.248715	-2.523430	-0.723215	99
Es	0.942106	1.953242	1.500426	99
Es	-0.175289	-2.104796	-1.116373	99
Es	0.359733	1.797770	1.183925	99
Es	-0.632767	-2.163080	-0.520060	99
Es	0.141319	-0.083686	0.346195	99
Es	0.673107	2.019510	1.573534	99
Es	-1.157984	-0.918330	0.213540	99
Es	-0.829692	1.603072	0.511569	99
Es	0.587863	0.940873	-0.656089	99
Es	0.231846	1.343870	-0.111530	99
Es	0.561626	1.936852	1.840946	99
Es	0.645977	-0.399693	0.771134	99
Es	-0.825158	-1.364996	-0.216016	99
Es	-0.284470	-2.557418	0.019051	99
Es	-0.138906	1.376015	0.579804	99
Es	1.296981	1.083124	-0.698349	99
38
Properties=species:S:1:pos:R:3:Z:I:1 energy=-305.89857259116775 field_type=dipole dipole="0.000000 0.000000 0.000000" charge=0
C	-0.632712	-2.163288	-0.520139	6
O	-1.000012	-0.877938	-0.039049	8
C	0.141528	-0.083718	0.346331	6
C	0.587938	0.940922	-0.656229	6
C	-0.139152	1.376022	0.579721	6
O	0.673288	2.019352	1.573771	8
H	-1.540432	-2.693698	-0.819889	1
H	-0.134982	-2.734758	0.269111	1
H	0.025138	-2.070898	-1.389719	1
H	0.889878	-0.536478	0.990031	1
H	0.057068	0.995232	-1.599499	1
H	1.649388	1.144042	-0.726599	1
H	-1.170732	1.698402	0.480491	1
H	0.593798	2.986802	1.511671	1
Es	-0.284541	-2.557406	0.019063	99
Es	-0.175208	-2.104810	-1.116338	99
Es	-0.999746	-0.878061	-0.039047	99
Es	0.141323	-0.083681	0.346191	99
Es	0.359140	1.797419	1.184503	99
Es	1.296915	1.082963	-0.698206	99
Es	-1.248740	-2.523425	-0.723253	99
Es	-0.632765	-2.163079	-0.520061	99
Es	0.453481	0.284966	-0.269388	99
Es	0.673125	2.019511	1.573597	99
Es	0.614460	2.543889	1.517038	99
Es	-0.138909	1.376013	0.579808	99
Es	-1.115811	-0.736548	-0.265424	99
Es	0.646042	-0.399716	0.771083	99
Es	-1.157843	-0.918476	0.214304	99
Es	-0.829719	1.603106	0.511536	99
Es	0.564411	1.935477	1.842054	99
Es	0.230609	0.971598	-1.285119	99
Es	-0.086355	0.602625	0.631859	99
Es	0.587862	0.940872	-0.656088	99
Es	0.231712	1.344154	-0.111283	99
Es	-0.542762	-0.593128	0.092373	99
Es	0.940765	1.954904	1.498110	99
Es	-0.824972	-1.364793	-0.216375	99
38
Properties=species:S:1:pos:R:3:Z:I:1 energy=-305.89857259116775 field_type=dipole dipole="0.000000 0.000000 0.000000" charge=0
C	-0.632712	-2.163288	-0.520139	6
O	-1.000012	-0.877938	-0.039049	8
C	0.141528	-0.083718	0.346331	6
C	0.587938	0.940922	-0.656229	6
C	-0.139152	1.376022	0.579721	6
O	0.673288	2.019352	1.573771	8
H	-1.540432	-2.693698	-0.819889	1
H	-0.134982	-2.734758	0.269111	1
H	0.025138	-2.070898	-1.389719	1
H	0.889878	-0.536478	0.990031	1
H	0.057068	0.995232	-1.599499	1
H	1.649388	1.144042	-0.726599	1
H	-1.170732	1.698402	0.480491	1
H	0.593798	2.986802	1.511671	1
Es	-0.632767	-2.163080	-0.520059	99
Es	-1.153736	-0.920040	0.215570	99
Es	0.673122	2.019506	1.573588	99
Es	0.587860	0.940872	-0.656085	99
Es	0.231732	1.344306	-0.111327	99
Es	-1.248732	-2.523453	-0.723121	99
Es	-0.284536	-2.557347	0.019040	99
Es	-1.119986	-0.736133	-0.263505	99
Es	-0.542838	-0.592332	0.090369	99
Es	-0.824959	-1.364579	-0.217351	99
Es	0.564132	1.935487	1.841686	99
Es	-0.829631	1.603114	0.511559	99
Es	0.141318	-0.083684	0.346196	99
Es	0.614372	2.544015	1.517169	99
Es	-0.086431	0.602646	0.632030	99
Es	0.359581	1.797249	1.184232	99
Es	-0.138908	1.376014	0.579807	99
Es	0.230612	0.971559	-1.284965	99
Es	-0.999599	-0.878011	-0.039223	99
Es	0.940694	1.954921	1.498628	99
Es	0.453654	0.284819	-0.269488	99
Es	0.645890	-0.399576	0.770960	99
Es	1.296846	1.082943	-0.698339	99
Es	-0.175215	-2.104842	-1.116434	99
38
Properties=species:S:1:pos:R:3:Z:I:1 energy=-305.89857259116775 field_type=dipole dipole="0.000000 0.000000 0.000000" charge=0
C	-0.632712	-2.163288	-0.520139	6
O	-1.000012	-0.877938	-0.039049	8
C	0.141528	-0.083718	0.346331	6
C	0.587938	0.940922	-0.656229	6
C	-0.139152	1.376022	0.579721	6
O	0.673288	2.019352	1.573771	8
H	-1.540432	-2.693698	-0.819889	1
H	-0.134982	-2.734758	0.269111	1
H	0.025138	-2.070898	-1.389719	1
H	0.889878	-0.536478	0.990031	1
H	0.057068	0.995232	-1.599499	1
H	1.649388	1.144042	-0.726599	1
H	-1.170732	1.698402	0.480491	1
H	0.593798	2.986802	1.511671	1
Es	1.296797	1.083013	-0.698402	99
Es	0.230664	0.971618	-1.284779	99
Es	-0.086444	0.602577	0.632019	99
Es	0.453616	0.284659	-0.269558	99
Es	-0.138908	1.376016	0.579804	99
Es	-1.115719	-0.736748	-0.265546	99
Es	0.614993	2.544150	1.516630	99
Es	0.645955	-0.399639	0.770950	99
Es	-0.999663	-0.878051	-0.039056	99
Es	0.673083	2.019530	1.573548	99
Es	-0.829558	1.603190	0.511474	99
Es	0.231633	1.344330	-0.111239	99
Es	-1.157883	-0.918157	0.213577	99
Es	0.141317	-0.083683	0.346199	99
Es	0.587864	0.940872	-0.656092	99
Es	0.360256	1.797200	1.183827	99
Es	0.940535	1.954406	1.499827	99
Es	-1.248671	-2.523405	-0.723090	99
Es	-0.632767	-2.163078	-0.520058	99
Es	0.563042	1.935916	1.841443	99
Es	-0.542890	-0.592933	0.092729	99
Es	-0.175218	-2.104890	-1.116467	99
Es	-0.284593	-2.557386	0.019032	99
Es	-0.824962	-1.365135	-0.215834	99
38
Properties=species:S:1:pos:R:3:Z:I:1 energy=-305.89857259116775 field_type=dipole dipole="0.000000 0.000000 0.000000" charge=0
C	-0.632712	-2.163288	-0.520139	6
O	-1.000012	-0.877938	-0.039049	8
C	0.141528	-0.083718	0.346331	6
C	0.587938	0.940922	-0.656229	6
C	-0.139152	1.376022	0.579721	6
O	0.673288	2.019352	1.573771	8
H	-1.540432	-2.693698	-0.819889	1
H	-0.134982	-2.734758	0.269111	1
H	0.025138	-2.070898	-1.389719	1
H	0.889878	-0.536478	0.990031	1
H	0.057068	0.995232	-1.599499	1
H	1.649388	1.144042	-0.726599	1
H	-1.170732	1.698402	0.480491	1
H	0.593798	2.986802	1.511671	1
Es	-1.248653	-2.523459	-0.722908	99
Es	-0.284493	-2.557315	0.018962	99
Es	0.587861	0.940871	-0.656088	99
Es	0.141321	-0.083684	0.346196	99
Es	0.230780	0.971602	-1.284767	99
Es	-0.999642	-0.878088	-0.039079	99
Es	-0.138907	1.376019	0.579808	99
Es	0.615254	2.544128	1.516635	99
Es	-0.542773	-0.593051	0.092327	99
Es	0.231538	1.344591	-0.111322	99
Es	0.562353	1.936031	1.841274	99
Es	-0.829491	1.603082	0.511536	99
Es	-0.086400	0.602705	0.631820	99
Es	0.673087	2.019531	1.573541	99
Es	-1.157936	-0.917766	0.213756	99
Es	-1.115514	-0.736818	-0.265421	99
Es	0.360473	1.797482	1.183525	99
Es	0.453672	0.284312	-0.269376	99
Es	0.645967	-0.399639	0.770964	99
Es	-0.825233	-1.365304	-0.215704	99
Es	0.940723	1.954100	1.500276	99
Es	1.296591	1.083043	-0.698361	99
Es	-0.175335	-2.104917	-1.116596	99
Es	-0.632767	-2.163082	-0.520061	99
38
Properties=species:S:1:pos:R:3:Z:I:1 energy=-305.89857259116775 field_type=dipole dipole="0.000000 0.000000 0.000000" charge=0
C	-0.632712	-2.163288	-0.520139	6
O	-1.000012	-0.877938	-0.039049	8
C	0.141528	-0.083718	0.346331	6
C	0.587938	0.940922	-0.656229	6
C	-0.139152	1.376022	0.579721	6
O	0.673288	2.019352	1.573771	8
H	-1.540432	-2.693698	-0.819889	1
H	-0.134982	-2.734758	0.269111	1
H	0.025138	-2.070898	-1.389719	1
H	0.889878	-0.536478	0.990031	1
H	0.057068	0.995232	-1.599499	1
H	1.649388	1.144042	-0.726599	1
H	-1.170732	1.698402	0.480491	1
H	0.593798	2.986802	1.511671	1
Es	-0.825232	-1.365257	-0.216058	99
Es	-0.284723	-2.557444	0.019002	99
Es	0.939329	1.955230	1.498792	99
Es	-1.116758	-0.736730	-0.264698	99
Es	0.231601	1.344460	-0.111131	99
Es	0.614752	2.544408	1.516880	99
Es	0.141320	-0.083685	0.346195	99
Es	-0.086454	0.602688	0.632091	99
Es	-1.156697	-0.918430	0.213781	99
Es	0.673014	2.019558	1.573544	99
Es	1.296705	1.083020	-0.698506	99
Es	-0.632767	-2.163080	-0.520060	99
Es	-0.999612	-0.878032	-0.039155	99
Es	-0.542825	-0.592602	0.092128	99
Es	-1.248568	-2.523325	-0.723061	99
Es	0.230715	0.971676	-1.284582	99
Es	0.587860	0.940873	-0.656085	99
Es	-0.829526	1.603215	0.511465	99
Es	0.453618	0.284340	-0.269615	99
Es	-0.175142	-2.104890	-1.116563	99
Es	0.645979	-0.399654	0.770758	99
Es	0.360159	1.797003	1.184081	99
Es	-0.138909	1.376011	0.579808	99
Es	0.564637	1.935022	1.841926	99
38
Properties=species:S:1:pos:R:3:Z:I:1 energy=-305.89857259116775 field_type=dipole dipole="0.000000 0.000000 0.000000" charge=0
C	-0.632712	-2.163288	-0.520139	6
O	-1.000012	-0.877938	-0.039049	8
C	0.141528	-0.083718	0.346331	6
C	0.587938	0.940922	-0.656229	6
C	-0.139152	1.376022	0.579721	6
O	0.673288	2.019352	1.573771	8
H	-1.540432	-2.693698	-0.819889	1
H	-0.134982	-2.734758	0.269111	1
H	0.025138	-2.070898	-1.389719	1
H	0.889878	-0.536478	0.990031	1
H	0.057068	0.995232	-1.599499	1
H	1.649388	1.144042	-0.726599	1
H	-1.170732	1.698402	0.480491	1
H	0.593798	2.986802	1.511671	1
Es	0.360639	1.797128	1.183597	99
Es	-0.825328	-1.365570	-0.215631	99
Es	-1.158500	-0.917189	0.213762	99
Es	-1.248652	-2.523408	-0.723095	99
Es	0.230815	0.971714	-1.284567	99
Es	0.939265	1.955703	1.498778	99
Es	-0.284622	-2.557390	0.018991	99
Es	0.564493	1.934567	1.842156	99
Es	0.231594	1.344769	-0.111194	99
Es	0.673065	2.019548	1.573518	99
Es	0.587862	0.940875	-0.656090	99
Es	-0.175221	-2.104915	-1.116442	99
Es	1.296606	1.082938	-0.698452	99
Es	0.614433	2.544293	1.517179	99
Es	-0.999827	-0.878009	-0.039078	99
Es	0.453433	0.284193	-0.269329	99
Es	-0.542932	-0.592798	0.091899	99
Es	0.141319	-0.083686	0.346195	99
Es	-0.632764	-2.163079	-0.520055	99
Es	-0.829557	1.603178	0.511471	99
Es	-0.086275	0.602626	0.631801	99
Es	-0.138908	1.376013	0.579808	99
Es	-1.114492	-0.737452	-0.265083	99
Es	0.646029	-0.399674	0.770798	99
38
Properties=species:S:1:pos:R:3:Z:I:1 energy=-305.89857259116775 field_type=dipole dipole="0.000000 0.000000 0.000000" charge=0
C	-0.632712	-2.163288	-0.520139	6
O	-1.000012	-0.877938	-0.039049	8
C	0.141528	-0.083718	0.346331	6
C	0.587938	0.940922	-0.656229	6
C	-0.139152	1.376022	0.579721	6
O	0.673288	2.019352	1.573771	8
H	-1.540432	-2.693698	-0.819889	1
H	-0.134982	-2.734758	0.269111	1
H	0.025138	-2.070898	-1.389719	1
H	0.889878	-0.536478	0.990031	1
H	0.057068	0.995232	-1.599499	1
H	1.649388	1.144042	-0.726599	1
H	-1.170732	1.698402	0.480491	1
H	0.593798	2.986802	1.511671	1
Es	0.564610	1.935170	1.842014	99
Es	-0.543232	-0.592162	0.090970	99
Es	0.939446	1.954910	1.498572	99
Es	-1.156152	-0.918106	0.214159	99
Es	-1.248583	-2.523303	-0.723019	99
Es	-0.138908	1.376015	0.579807	99
Es	0.673144	2.019546	1.573459	99
Es	0.359636	1.797230	1.184432	99
Es	-0.175195	-2.104968	-1.116558	99
Es	-0.632767	-2.163079	-0.520059	99
Es	-1.116939	-0.737149	-0.264005	99
Es	-0.086453	0.602651	0.632004	99
Es	0.231500	1.344870	-0.111203	99
Es	0.141320	-0.083688	0.346193	99
Es	0.615021	2.544397	1.516776	99
Es	0.587859	0.940871	-0.656085	99
Es	-0.825087	-1.365537	-0.216157	99
Es	-0.829362	1.603130	0.511487	99
Es	-0.999672	-0.878060	-0.039073	99
Es	1.296480	1.082941	-0.698492	99
Es	0.453710	0.284183	-0.269573	99
Es	-0.284733	-2.557445	0.019012	99
Es	0.230877	0.971606	-1.284518	99
Es	0.645956	-0.399648	0.770793	99
38
Properties=species:S:1:pos:R:3:Z:I:1 energy=-305.89857259116775 field_type=dipole dipole="0.000000 0.000000 0.000000" charge=0
C	-0.632712	-2.163288	-0.520139	6
O	-1.000012	-0.877938	-0.039049	8
C	0.141528	-0.083718	0.346331	6
C	0.587938	0.940922	-0.656229	6
C	-0.139152	1.376022	0.579721	6
O	0.673288	2.019352	1.573771	8
H	-1.540432	-2.693698	-0.819889	1
H	-0.134982	-2.734758	0.269111	1
H	0.025138	-2.070898	-1.389719	1
H	0.889878	-0.536478	0.990031	1
H	0.057068	0.995232	-1.599499	1
H	1.649388	1.144042	-0.726599	1
H	-1.170732	1.698402	0.480491	1
H	0.593798	2.986802	1.511671	1
Es	-0.175273	-2.104893	-1.116464	99
Es	-0.632765	-2.163079	-0.520061	99
Es	-0.138908	1.376015	0.579810	99
Es	0.587860	0.940873	-0.656086	99
Es	0.614843	2.544513	1.516634	99
Es	-1.115826	-0.738156	-0.264462	99
Es	-0.284602	-2.557501	0.019098	99
Es	-0.542969	-0.591801	0.090650	99
Es	0.362019	1.796895	1.182946	99
Es	0.453684	0.283905	-0.269457	99
Es	-0.999688	-0.878047	-0.039057	99
Es	1.296445	1.083026	-0.698475	99
Es	0.939368	1.955057	1.500876	99
Es	0.562517	1.935323	1.841279	99
Es	-1.157351	-0.917368	0.213923	99
Es	0.673117	2.019503	1.573536	99
Es	-0.086369	0.602773	0.631767	99
Es	0.231476	1.344827	-0.111209	99
Es	0.230930	0.971657	-1.284441	99
Es	-1.248602	-2.523299	-0.723150	99
Es	0.141318	-0.083687	0.346196	99
Es	0.645948	-0.399603	0.770860	99
Es	-0.825231	-1.365699	-0.215211	99
Es	-0.829466	1.603140	0.511435	99
38
Properties=species:S:1:pos:R:3:Z:I:1 energy=-305.89857259116775 field_type=dipole dipole="0.000000 0.000000 0.000000" charge=0
C	-0.632712	-2.163288	-0.520139	6
O	-1.000012	-0.877938	-0.039049	8
C	0.141528	-0.083718	0.346331	6
C	0.587938	0.940922	-0.656229	6
C	-0.139152	1.376022	0.579721	6
O	0.673288	2.019352	1.573771	8
H	-1.540432	-2.693698	-0.819889	1
H	-0.134982	-2.734758	0.269111	1
H	0.025138	-2.070898	-1.389719	1
H	0.889878	-0.536478	0.990031	1
H	0.057068	0.995232	-1.599499	1
H	1.649388	1.144042	-0.726599	1
H	-1.170732	1.698402	0.480491	1
H	0.593798	2.986802	1.511671	1
Es	0.615624	2.544478	1.516086	99
Es	0.231533	1.345086	-0.111142	99
Es	1.296210	1.082897	-0.698475	99
Es	0.562593	1.936166	1.841265	99
Es	0.587860	0.940873	-0.656085	99
Es	0.453808	0.283948	-0.269570	99
Es	-1.248527	-2.523277	-0.723104	99
Es	0.645930	-0.399581	0.770850	99
Es	-0.632767	-2.163079	-0.520058	99
Es	0.673141	2.019506	1.573542	99
Es	-0.999691	-0.878075	-0.039057	99
Es	-0.284708	-2.557509	0.019050	99
Es	-0.825574	-1.365818	-0.215502	99
Es	-0.175220	-2.104940	-1.116504	99
Es	-0.138908	1.376012	0.579806	99
Es	-0.829370	1.603238	0.511407	99
Es	0.360933	1.796784	1.183568	99
Es	-0.542850	-0.592249	0.091008	99
Es	-0.086515	0.602588	0.631911	99
Es	-1.157527	-0.917130	0.213777	99
Es	0.141317	-0.083686	0.346198	99
Es	0.939557	1.954302	1.500758	99
Es	0.231017	0.971632	-1.284460	99
Es	-1.115390	-0.737792	-0.264335	99
