33
Properties=species:S:1:pos:R:3:Z:I:1 energy=-283.7728829343788 field_type=dipole dipole="0.000000 0.000000 0.000000" charge=0
C	-1.680288	-0.087359	-0.007366	6
C	-0.205028	-0.042419	-0.000706	6
C	0.638402	1.045151	0.000074	6
O	1.921302	0.587781	0.007064	8
C	1.782122	-0.766019	0.010174	6
N	0.541522	-1.198749	0.005724	7
H	-2.109588	0.919291	0.002444	1
H	-2.048428	-0.623849	0.872454	1
H	-2.040818	-0.603599	-0.902316	1
H	0.507612	2.116921	-0.003456	1
H	2.693191	-1.347149	0.015914	1
Es	0.541737	-1.198244	0.005722	99
Es	1.443494	0.763436	0.035690	99
Es	0.206075	-0.692671	0.003420	99
Es	1.032730	-0.990104	-0.269798	99
Es	0.228439	0.515874	-0.331434	99
Es	2.164986	0.742392	0.109958	99
Es	0.225085	0.519607	0.329262	99
Es	0.549319	1.762766	-0.001952	99
Es	-1.963062	0.598843	-0.000849	99
Es	2.393867	-1.150629	0.014608	99
Es	-1.912125	-0.432628	-0.609547	99
Es	1.867459	0.468583	-0.222950	99
Es	1.864481	0.100462	0.106139	99
Es	0.413977	-1.541573	0.005508	99
Es	0.638710	1.045133	0.000087	99
Es	1.031350	-0.990079	0.283713	99
Es	1.782162	-0.765758	0.010171	99
Es	-0.937747	-0.059508	-0.003817	99
Es	1.920906	0.587460	0.007179	99
Es	-0.205022	-0.042529	-0.000702	99
Es	-1.680228	-0.087342	-0.007366	99
Es	-1.917396	-0.446143	0.584692	99
33
Properties=species:S:1:pos:R:3:Z:I:1 energy=-283.7728829343788 field_type=dipole dipole="0.000000 0.000000 0.000000" charge=0
C	-1.680288	-0.087359	-0.007366	6
C	-0.205028	-0.042419	-0.000706	6
C	0.638402	1.045151	0.000074	6
O	1.921302	0.587781	0.007064	8
C	1.782122	-0.766019	0.010174	6
N	0.541522	-1.198749	0.005724	7
H	-2.109588	0.919291	0.002444	1
H	-2.048428	-0.623849	0.872454	1
H	-2.040818	-0.603599	-0.902316	1
H	0.507612	2.116921	-0.003456	1
H	2.693191	-1.347149	0.015914	1
Es	-1.965316	0.599555	-0.000925	99
Es	1.920887	0.587516	0.006913	99
Es	-1.917679	-0.446223	0.582012	99
Es	2.394235	-1.151086	0.014001	99
Es	1.032294	-0.988734	-0.263602	99
Es	0.638720	1.045139	0.000087	99
Es	0.541742	-1.198221	0.005724	99
Es	1.835431	0.483285	-0.036731	99
Es	-1.680228	-0.087341	-0.007366	99
Es	0.548433	1.763508	-0.002298	99
Es	-0.936452	-0.060068	-0.003959	99
Es	0.207734	-0.690752	0.002804	99
Es	-1.912063	-0.432190	-0.606678	99
Es	2.196975	0.757618	0.024062	99
Es	1.871093	0.070201	0.026760	99
Es	0.228687	0.515048	-0.327279	99
Es	1.029680	-0.987341	0.278272	99
Es	-0.205023	-0.042534	-0.000705	99
Es	0.225881	0.517107	0.326487	99
Es	0.414846	-1.547408	0.006141	99
Es	1.437155	0.766030	0.013852	99
Es	1.782164	-0.765754	0.010162	99
33
Properties=species:S:1:pos:R:3:Z:I:1 energy=-283.7728829343788 field_type=dipole dipole="0.000000 0.000000 0.000000" charge=0
C	-1.680288	-0.087359	-0.007366	6
C	-0.205028	-0.042419	-0.000706	6
C	0.638402	1.045151	0.000074	6
O	1.921302	0.587781	0.007064	8
C	1.782122	-0.766019	0.010174	6
N	0.541522	-1.198749	0.005724	7
H	-2.109588	0.919291	0.002444	1
H	-2.048428	-0.623849	0.872454	1
H	-2.040818	-0.603599	-0.902316	1
H	0.507612	2.116921	-0.003456	1
H	2.693191	-1.347149	0.015914	1
Es	1.782166	-0.765752	0.010174	99
Es	1.835585	0.484522	0.007357	99
Es	0.541749	-1.198216	0.005725	99
Es	1.870050	0.069873	0.007679	99
Es	1.030137	-0.986930	-0.259396	99
Es	-0.205021	-0.042529	-0.000709	99
Es	-1.911887	-0.431881	-0.604366	99
Es	0.209559	-0.689348	0.003258	99
Es	1.028933	-0.986404	0.274365	99
Es	0.547796	1.763943	-0.002323	99
Es	0.229072	0.514529	-0.324744	99
Es	2.394303	-1.151451	0.014128	99
Es	0.638718	1.045139	0.000076	99
Es	-1.917591	-0.446067	0.579795	99
Es	-0.935448	-0.060506	-0.004044	99
Es	1.437085	0.765165	0.004716	99
Es	-1.680230	-0.087343	-0.007365	99
Es	1.920917	0.587525	0.006979	99
Es	-1.967281	0.599782	-0.000955	99
Es	0.415146	-1.550941	0.005326	99
Es	2.198884	0.758142	0.007778	99
Es	0.226556	0.516102	0.324280	99
33
Properties=species:S:1:pos:R:3:Z:I:1 energy=-283.7728829343788 field_type=dipole dipole="0.000000 0.000000 0.000000" charge=0
C	-1.680288	-0.087359	-0.007366	6
C	-0.205028	-0.042419	-0.000706	6
C	0.638402	1.045151	0.000074	6
O	1.921302	0.587781	0.007064	8
C	1.782122	-0.766019	0.010174	6
N	0.541522	-1.198749	0.005724	7
H	-2.109588	0.919291	0.002444	1
H	-2.048428	-0.623849	0.872454	1
H	-2.040818	-0.603599	-0.902316	1
H	0.507612	2.116921	-0.003456	1
H	2.693191	-1.347149	0.015914	1
Es	-1.680229	-0.087342	-0.007366	99
Es	1.869189	0.070488	0.009043	99
Es	-1.968715	0.599889	-0.000974	99
Es	-1.911584	-0.431386	-0.602547	99
Es	0.210829	-0.688225	0.002331	99
Es	2.394325	-1.151689	0.014007	99
Es	0.547269	1.764188	-0.002217	99
Es	-1.917613	-0.445982	0.577973	99
Es	-0.205026	-0.042538	-0.000709	99
Es	0.415627	-1.553376	0.005953	99
Es	1.836248	0.485021	0.005911	99
Es	1.437297	0.764040	0.004032	99
Es	1.031466	-0.986926	-0.256123	99
Es	0.227097	0.515548	0.322514	99
Es	2.199672	0.758590	0.008623	99
Es	1.782168	-0.765750	0.010171	99
Es	0.541749	-1.198214	0.005724	99
Es	0.638719	1.045139	0.000071	99
Es	1.920901	0.587509	0.006951	99
Es	1.025160	-0.984606	0.271322	99
Es	-0.934807	-0.060943	-0.004121	99
Es	0.229456	0.513916	-0.322834	99
33
Properties=species:S:1:pos:R:3:Z:I:1 energy=-283.7728829343788 field_type=dipole dipole="0.000000 0.000000 0.000000" charge=0
C	-1.680288	-0.087359	-0.007366	6
C	-0.205028	-0.042419	-0.000706	6
C	0.638402	1.045151	0.000074	6
O	1.921302	0.587781	0.007064	8
C	1.782122	-0.766019	0.010174	6
N	0.541522	-1.198749	0.005724	7
H	-2.109588	0.919291	0.002444	1
H	-2.048428	-0.623849	0.872454	1
H	-2.040818	-0.603599	-0.902316	1
H	0.507612	2.116921	-0.003456	1
H	2.693191	-1.347149	0.015914	1
Es	1.868444	0.070943	0.007464	99
Es	-1.917348	-0.445827	0.576352	99
Es	1.920741	0.587336	0.007441	99
Es	1.024848	-0.984056	0.268563	99
Es	2.394317	-1.151891	0.014097	99
Es	-1.911234	-0.431021	-0.600708	99
Es	-0.934217	-0.061084	-0.004262	99
Es	0.541751	-1.198210	0.005716	99
Es	2.200346	0.758777	0.008460	99
Es	1.836876	0.485651	0.007775	99
Es	1.029571	-0.985973	-0.253764	99
Es	-1.680231	-0.087343	-0.007366	99
Es	0.638723	1.045140	0.000067	99
Es	0.227424	0.515054	0.320965	99
Es	0.229898	0.513402	-0.321362	99
Es	0.212001	-0.687290	0.002681	99
Es	0.546855	1.764360	-0.002250	99
Es	-0.205025	-0.042535	-0.000708	99
Es	1.437535	0.763304	0.003432	99
Es	0.416057	-1.555371	0.006000	99
Es	1.782167	-0.765750	0.010182	99
Es	-1.970299	0.599737	-0.001039	99
33
Properties=species:S:1:pos:R:3:Z:I:1 energy=-283.7728829343788 field_type=dipole dipole="0.000000 0.000000 0.000000" charge=0
C	-1.680288	-0.087359	-0.007366	6
C	-0.205028	-0.042419	-0.000706	6
C	0.638402	1.045151	0.000074	6
O	1.921302	0.587781	0.007064	8
C	1.782122	-0.766019	0.010174	6
N	0.541522	-1.198749	0.005724	7
H	-2.109588	0.919291	0.002444	1
H	-2.048428	-0.623849	0.872454	1
H	-2.040818	-0.603599	-0.902316	1
H	0.507612	2.116921	-0.003456	1
H	2.693191	-1.347149	0.015914	1
Es	-0.933849	-0.061565	-0.004113	99
Es	0.546486	1.764512	-0.002047	99
Es	-1.680229	-0.087343	-0.007366	99
Es	0.638725	1.045141	0.000076	99
Es	2.200781	0.759105	0.009124	99
Es	-1.971522	0.599693	-0.001095	99
Es	2.394321	-1.152039	0.013983	99
Es	1.025139	-0.983949	0.266808	99
Es	1.867981	0.071407	0.006790	99
Es	0.227601	0.514392	-0.319538	99
Es	0.541746	-1.198217	0.005723	99
Es	1.782167	-0.765750	0.010174	99
Es	0.415982	-1.556686	0.005697	99
Es	1.920901	0.587495	0.006948	99
Es	0.213369	-0.686405	0.002525	99
Es	-1.918242	-0.447084	0.574602	99
Es	-0.205026	-0.042536	-0.000706	99
Es	1.027591	-0.985206	-0.251758	99
Es	0.230345	0.513244	0.319253	99
Es	1.437580	0.762490	0.005644	99
Es	1.837156	0.485817	0.006117	99
Es	-1.909804	-0.429162	-0.599108	99
33
Properties=species:S:1:pos:R:3:Z:I:1 energy=-283.7728829343788 field_type=dipole dipole="0.000000 0.000000 0.000000" charge=0
C	-1.680288	-0.087359	-0.007366	6
C	-0.205028	-0.042419	-0.000706	6
C	0.638402	1.045151	0.000074	6
O	1.921302	0.587781	0.007064	8
C	1.782122	-0.766019	0.010174	6
N	0.541522	-1.198749	0.005724	7
H	-2.109588	0.919291	0.002444	1
H	-2.048428	-0.623849	0.872454	1
H	-2.040818	-0.603599	-0.902316	1
H	0.507612	2.116921	-0.003456	1
H	2.693191	-1.347149	0.015914	1
Es	-1.680228	-0.087344	-0.007363	99
Es	2.394312	-1.152091	0.013385	99
Es	2.201009	0.759476	0.006621	99
Es	0.224452	0.516330	0.318092	99
Es	0.415847	-1.557122	0.006223	99
Es	1.920931	0.587544	0.007045	99
Es	1.782167	-0.765750	0.010179	99
Es	-0.205025	-0.042536	-0.000704	99
Es	-0.933645	-0.061737	-0.004133	99
Es	0.995334	-0.978882	-0.236398	99
Es	1.867734	0.071688	0.004130	99
Es	-1.919330	-0.448910	0.573786	99
Es	0.234473	0.511226	-0.319184	99
Es	1.837493	0.485850	0.007728	99
Es	0.213918	-0.686166	0.004751	99
Es	1.055780	-0.989987	0.249470	99
Es	0.638723	1.045140	0.000077	99
Es	0.546386	1.764495	-0.001720	99
Es	0.541742	-1.198213	0.005728	99
Es	1.437693	0.761856	0.008981	99
Es	-1.908539	-0.427034	-0.597941	99
Es	-1.972028	0.599519	-0.001017	99
33
Properties=species:S:1:pos:R:3:Z:I:1 energy=-283.7728829343788 field_type=dipole dipole="0.000000 0.000000 0.000000" charge=0
C	-1.680288	-0.087359	-0.007366	6
C	-0.205028	-0.042419	-0.000706	6
C	0.638402	1.045151	0.000074	6
O	1.921302	0.587781	0.007064	8
C	1.782122	-0.766019	0.010174	6
N	0.541522	-1.198749	0.005724	7
H	-2.109588	0.919291	0.002444	1
H	-2.048428	-0.623849	0.872454	1
H	-2.040818	-0.603599	-0.902316	1
H	0.507612	2.116921	-0.003456	1
H	2.693191	-1.347149	0.015914	1
Es	0.214560	-0.686000	0.005997	99
Es	2.201415	0.759090	0.005897	99
Es	-0.933644	-0.061572	-0.004033	99
Es	0.224293	0.516591	0.317988	99
Es	1.073976	-0.993766	0.221972	99
Es	2.394296	-1.152075	0.012856	99
Es	0.975662	-0.975147	-0.209782	99
Es	-1.680230	-0.087345	-0.007369	99
Es	-0.205026	-0.042535	-0.000704	99
Es	1.782167	-0.765749	0.010179	99
Es	1.920928	0.587541	0.007068	99
Es	-1.908011	-0.426120	-0.597745	99
Es	0.235669	0.511292	-0.319242	99
Es	0.546471	1.764419	-0.001506	99
Es	1.837922	0.485628	0.008683	99
Es	1.867380	0.072050	0.002612	99
Es	-1.971891	0.599283	-0.001118	99
Es	0.541744	-1.198212	0.005724	99
Es	0.415177	-1.557244	0.006173	99
Es	0.638724	1.045140	0.000077	99
Es	-1.920034	-0.449871	0.573904	99
Es	1.437652	0.761953	0.010104	99
33
Properties=species:S:1:pos:R:3:Z:I:1 energy=-283.7728829343788 field_type=dipole dipole="0.000000 0.000000 0.000000" charge=0
C	-1.680288	-0.087359	-0.007366	6
C	-0.205028	-0.042419	-0.000706	6
C	0.638402	1.045151	0.000074	6
O	1.921302	0.587781	0.007064	8
C	1.782122	-0.766019	0.010174	6
N	0.541522	-1.198749	0.005724	7
H	-2.109588	0.919291	0.002444	1
H	-2.048428	-0.623849	0.872454	1
H	-2.040818	-0.603599	-0.902316	1
H	0.507612	2.116921	-0.003456	1
H	2.693191	-1.347149	0.015914	1
Es	-1.912261	-0.432856	-0.599584	99
Es	0.214807	-0.685938	-0.001595	99
Es	1.089308	-0.997691	-0.174087	99
Es	2.201253	0.759649	0.013332	99
Es	0.541747	-1.198211	0.005723	99
Es	-1.680227	-0.087342	-0.007366	99
Es	1.437691	0.761117	-0.004529	99
Es	-1.971434	0.599002	-0.001373	99
Es	1.782169	-0.765749	0.010179	99
Es	0.638724	1.045140	0.000084	99
Es	2.394269	-1.152058	0.015462	99
Es	-0.933622	-0.061359	-0.004304	99
Es	1.838247	0.485608	0.005537	99
Es	0.232414	0.514127	0.319847	99
Es	1.867552	0.072247	0.013224	99
Es	0.228524	0.514309	-0.319461	99
Es	-1.916223	-0.443175	0.574621	99
Es	0.414621	-1.556844	0.004779	99
Es	0.959183	-0.971887	0.193141	99
Es	-0.205026	-0.042535	-0.000710	99
Es	0.546619	1.764331	-0.002531	99
Es	1.920864	0.587468	0.007348	99
33
Properties=species:S:1:pos:R:3:Z:I:1 energy=-283.7728829343788 field_type=dipole dipole="0.000000 0.000000 0.000000" charge=0
C	-1.680288	-0.087359	-0.007366	6
C	-0.205028	-0.042419	-0.000706	6
C	0.638402	1.045151	0.000074	6
O	1.921302	0.587781	0.007064	8
C	1.782122	-0.766019	0.010174	6
N	0.541522	-1.198749	0.005724	7
H	-2.109588	0.919291	0.002444	1
H	-2.048428	-0.623849	0.872454	1
H	-2.040818	-0.603599	-0.902316	1
H	0.507612	2.116921	-0.003456	1
H	2.693191	-1.347149	0.015914	1
Es	0.215125	-0.685771	0.007418	99
Es	1.782167	-0.765750	0.010171	99
Es	1.437642	0.761451	0.012589	99
Es	-0.205024	-0.042535	-0.000700	99
Es	2.201484	0.759381	0.003398	99
Es	1.920908	0.587551	0.007111	99
Es	-0.933681	-0.061199	-0.003987	99
Es	0.414004	-1.556571	0.006512	99
Es	0.546755	1.764211	-0.001745	99
Es	-1.971157	0.598811	-0.001195	99
Es	1.095084	-0.998438	0.165819	99
Es	0.541750	-1.198207	0.005727	99
Es	-1.918782	-0.447625	0.575423	99
Es	0.638724	1.045140	0.000071	99
Es	0.236692	0.511935	-0.320123	99
Es	1.838512	0.485272	0.007242	99
Es	-1.909951	-0.428489	-0.599004	99
Es	1.867425	0.072264	0.004013	99
Es	0.952481	-0.971591	-0.155040	99
Es	2.394278	-1.152070	0.012777	99
Es	0.224991	0.516927	0.318625	99
Es	-1.680228	-0.087344	-0.007367	99
33
Properties=species:S:1:pos:R:3:Z:I:1 energy=-283.7728829343788 field_type=dipole dipole="0.000000 0.000000 0.000000" charge=0
C	-1.680288	-0.087359	-0.007366	6
C	-0.205028	-0.042419	-0.000706	6
C	0.638402	1.045151	0.000074	6
O	1.921302	0.587781	0.007064	8
C	1.782122	-0.766019	0.010174	6
N	0.541522	-1.198749	0.005724	7
H	-2.109588	0.919291	0.002444	1
H	-2.048428	-0.623849	0.872454	1
H	-2.040818	-0.603599	-0.902316	1
H	0.507612	2.116921	-0.003456	1
H	2.693191	-1.347149	0.015914	1
Es	-0.933593	-0.061172	-0.004509	99
Es	0.232975	0.514497	0.320325	99
Es	1.838860	0.485214	0.003108	99
Es	0.546762	1.764182	-0.002498	99
Es	1.782167	-0.765750	0.010177	99
Es	2.394282	-1.152054	0.015387	99
Es	-1.916752	-0.443879	0.575147	99
Es	-0.205026	-0.042536	-0.000701	99
Es	-1.971085	0.598638	-0.001278	99
Es	0.229315	0.514552	-0.319931	99
Es	0.413809	-1.556550	0.004816	99
Es	0.945486	-0.970157	0.148675	99
Es	-1.912113	-0.432196	-0.599964	99
Es	1.866999	0.072566	0.013464	99
Es	-1.680229	-0.087342	-0.007366	99
Es	1.437742	0.761302	-0.003709	99
Es	2.201674	0.759291	0.015151	99
Es	0.215305	-0.685711	-0.001670	99
Es	0.638723	1.045140	0.000075	99
Es	0.541747	-1.198207	0.005725	99
Es	1.101265	-0.999996	-0.129609	99
Es	1.920885	0.587519	0.006919	99
33
Properties=species:S:1:pos:R:3:Z:I:1 energy=-283.7728829343788 field_type=dipole dipole="0.000000 0.000000 0.000000" charge=0
C	-1.680288	-0.087359	-0.007366	6
C	-0.205028	-0.042419	-0.000706	6
C	0.638402	1.045151	0.000074	6
O	1.921302	0.587781	0.007064	8
C	1.782122	-0.766019	0.010174	6
N	0.541522	-1.198749	0.005724	7
H	-2.109588	0.919291	0.002444	1
H	-2.048428	-0.623849	0.872454	1
H	-2.040818	-0.603599	-0.902316	1
H	0.507612	2.116921	-0.003456	1
H	2.693191	-1.347149	0.015914	1
Es	-1.918979	-0.447610	0.575501	99
Es	-1.680230	-0.087342	-0.007366	99
Es	0.546787	1.764143	-0.001743	99
Es	1.782167	-0.765750	0.010171	99
Es	2.201927	0.759263	0.004732	99
Es	2.394298	-1.152043	0.012949	99
Es	-1.970951	0.598494	-0.001132	99
Es	1.437608	0.761295	0.011376	99
Es	1.102546	-0.999913	0.133416	99
Es	0.638723	1.045140	0.000074	99
Es	0.224781	0.517472	0.318340	99
Es	-1.910068	-0.428421	-0.599280	99
Es	-0.933596	-0.061042	-0.003920	99
Es	-0.205026	-0.042535	-0.000704	99
Es	1.866983	0.072638	0.003592	99
Es	1.920928	0.587543	0.007049	99
Es	0.943690	-0.970594	-0.122660	99
Es	0.238114	0.511711	-0.319898	99
Es	0.541742	-1.198212	0.005725	99
Es	1.838932	0.485045	0.007678	99
Es	0.413456	-1.556359	0.006839	99
Es	0.215364	-0.685572	0.006996	99
33
Properties=species:S:1:pos:R:3:Z:I:1 energy=-283.7728829343788 field_type=dipole dipole="0.000000 0.000000 0.000000" charge=0
C	-1.680288	-0.087359	-0.007366	6
C	-0.205028	-0.042419	-0.000706	6
C	0.638402	1.045151	0.000074	6
O	1.921302	0.587781	0.007064	8
C	1.782122	-0.766019	0.010174	6
N	0.541522	-1.198749	0.005724	7
H	-2.109588	0.919291	0.002444	1
H	-2.048428	-0.623849	0.872454	1
H	-2.040818	-0.603599	-0.902316	1
H	0.507612	2.116921	-0.003456	1
H	2.693191	-1.347149	0.015914	1
Es	1.866600	0.072819	0.001729	99
Es	0.546767	1.764146	-0.001773	99
Es	0.215569	-0.685599	0.006234	99
Es	0.638723	1.045140	0.000077	99
Es	-1.909638	-0.427922	-0.598928	99
Es	0.941267	-0.970296	-0.110368	99
Es	-1.919158	-0.448095	0.575109	99
Es	-0.205026	-0.042535	-0.000704	99
Es	1.782167	-0.765750	0.010173	99
Es	0.236992	0.512279	-0.320339	99
Es	-0.933522	-0.060929	-0.004040	99
Es	1.104693	-1.000269	0.122448	99
Es	0.226262	0.516835	0.319051	99
Es	0.413116	-1.556298	0.006247	99
Es	1.437797	0.760961	0.011680	99
Es	2.394293	-1.152020	0.012935	99
Es	-1.680231	-0.087348	-0.007379	99
Es	-1.971312	0.598402	-0.001078	99
Es	1.920907	0.587534	0.006977	99
Es	2.202118	0.759435	0.003897	99
Es	1.839068	0.485073	0.010065	99
Es	0.541744	-1.198211	0.005724	99
33
Properties=species:S:1:pos:R:3:Z:I:1 energy=-283.7728829343788 field_type=dipole dipole="0.000000 0.000000 0.000000" charge=0
C	-1.680288	-0.087359	-0.007366	6
C	-0.205028	-0.042419	-0.000706	6
C	0.638402	1.045151	0.000074	6
O	1.921302	0.587781	0.007064	8
C	1.782122	-0.766019	0.010174	6
N	0.541522	-1.198749	0.005724	7
H	-2.109588	0.919291	0.002444	1
H	-2.048428	-0.623849	0.872454	1
H	-2.040818	-0.603599	-0.902316	1
H	0.507612	2.116921	-0.003456	1
H	2.693191	-1.347149	0.015914	1
Es	0.232676	0.514628	-0.322300	99
Es	-0.933869	-0.060539	-0.004078	99
Es	1.782167	-0.765750	0.010173	99
Es	0.930763	-0.968869	0.001885	99
Es	1.437496	0.761365	0.004448	99
Es	0.231125	0.515775	0.321976	99
Es	-1.918341	-0.446040	0.576867	99
Es	-1.969691	0.598047	-0.001020	99
Es	2.394329	-1.152096	0.013997	99
Es	0.215052	-0.685101	0.002293	99
Es	1.839519	0.484252	0.010979	99
Es	0.547247	1.763829	-0.002155	99
Es	0.541728	-1.198231	0.005726	99
Es	1.920900	0.587500	0.006947	99
Es	2.202185	0.759207	0.006779	99
Es	0.413036	-1.556050	0.005933	99
Es	0.638725	1.045141	0.000058	99
Es	1.866696	0.072866	0.005451	99
Es	-0.205025	-0.042535	-0.000710	99
Es	-1.911532	-0.430361	-0.601400	99
Es	-1.680228	-0.087342	-0.007366	99
Es	1.114240	-1.002343	0.013252	99
33
Properties=species:S:1:pos:R:3:Z:I:1 energy=-283.7728829343788 field_type=dipole dipole="0.000000 0.000000 0.000000" charge=0
C	-1.680288	-0.087359	-0.007366	6
C	-0.205028	-0.042419	-0.000706	6
C	0.638402	1.045151	0.000074	6
O	1.921302	0.587781	0.007064	8
C	1.782122	-0.766019	0.010174	6
N	0.541522	-1.198749	0.005724	7
H	-2.109588	0.919291	0.002444	1
H	-2.048428	-0.623849	0.872454	1
H	-2.040818	-0.603599	-0.902316	1
H	0.507612	2.116921	-0.003456	1
H	2.693191	-1.347149	0.015914	1
Es	1.866647	0.072995	0.010483	99
Es	0.231432	0.514517	-0.321027	99
Es	0.412790	-1.556322	0.005259	99
Es	0.215790	-0.685329	0.000019	99
Es	1.920873	0.587477	0.007249	99
Es	0.541734	-1.198218	0.005722	99
Es	0.932815	-0.968912	0.069890	99
Es	-1.970618	0.598158	-0.001026	99
Es	1.437617	0.760837	-0.000197	99
Es	2.394293	-1.152038	0.014795	99
Es	1.782167	-0.765750	0.010170	99
Es	0.638724	1.045140	0.000081	99
Es	-0.933627	-0.060839	-0.004357	99
Es	-1.911796	-0.431083	-0.600481	99
Es	2.202207	0.759475	0.012040	99
Es	1.112026	-1.001776	-0.052459	99
Es	0.232481	0.515209	0.320965	99
Es	0.546949	1.763989	-0.002286	99
Es	-1.680228	-0.087342	-0.007366	99
Es	-1.917559	-0.445027	0.575726	99
Es	1.839505	0.484727	0.005243	99
Es	-0.205025	-0.042535	-0.000707	99
33
Properties=species:S:1:pos:R:3:Z:I:1 energy=-283.7728829343788 field_type=dipole dipole="0.000000 0.000000 0.000000" charge=0
C	-1.680288	-0.087359	-0.007366	6
C	-0.205028	-0.042419	-0.000706	6
C	0.638402	1.045151	0.000074	6
O	1.921302	0.587781	0.007064	8
C	1.782122	-0.766019	0.010174	6
N	0.541522	-1.198749	0.005724	7
H	-2.109588	0.919291	0.002444	1
H	-2.048428	-0.623849	0.872454	1
H	-2.040818	-0.603599	-0.902316	1
H	0.507612	2.116921	-0.003456	1
H	2.693191	-1.347149	0.015914	1
Es	0.638724	1.045139	0.000056	99
Es	0.215691	-0.685446	0.004021	99
Es	0.541744	-1.198204	0.005724	99
Es	0.231126	0.515466	0.320962	99
Es	1.782167	-0.765750	0.010173	99
Es	-0.205027	-0.042536	-0.000707	99
Es	-1.680228	-0.087342	-0.007366	99
Es	1.437578	0.760868	0.007072	99
Es	-1.970607	0.598071	-0.001047	99
Es	-0.933666	-0.060654	-0.004229	99
Es	0.233180	0.514426	-0.321534	99
Es	-1.911032	-0.429779	-0.600221	99
Es	1.113663	-1.001896	0.037864	99
Es	0.412499	-1.556005	0.005849	99
Es	0.930964	-0.968987	-0.024119	99
Es	1.839587	0.484551	0.007154	99
Es	2.394293	-1.152083	0.013681	99
Es	0.546980	1.763951	-0.002001	99
Es	-1.918293	-0.446443	0.576076	99
Es	1.866739	0.072934	0.006348	99
Es	1.920918	0.587525	0.006981	99
Es	2.202197	0.759546	0.006998	99
33
Properties=species:S:1:pos:R:3:Z:I:1 energy=-283.7728829343788 field_type=dipole dipole="0.000000 0.000000 0.000000" charge=0
C	-1.680288	-0.087359	-0.007366	6
C	-0.205028	-0.042419	-0.000706	6
C	0.638402	1.045151	0.000074	6
O	1.921302	0.587781	0.007064	8
C	1.782122	-0.766019	0.010174	6
N	0.541522	-1.198749	0.005724	7
H	-2.109588	0.919291	0.002444	1
H	-2.048428	-0.623849	0.872454	1
H	-2.040818	-0.603599	-0.902316	1
H	0.507612	2.116921	-0.003456	1
H	2.693191	-1.347149	0.015914	1
Es	-1.970773	0.597990	-0.001208	99
Es	0.638723	1.045140	0.000076	99
Es	-1.680228	-0.087343	-0.007367	99
Es	0.230891	0.515723	0.320883	99
Es	0.233559	0.514163	-0.321362	99
Es	0.541747	-1.198215	0.005723	99
Es	2.394290	-1.152020	0.013953	99
Es	1.437621	0.760945	0.005869	99
Es	1.866549	0.072980	0.006832	99
Es	1.114198	-1.002122	0.021494	99
Es	2.202311	0.759389	0.007874	99
Es	-0.933572	-0.060798	-0.004096	99
Es	-1.918174	-0.445953	0.575792	99
Es	0.216066	-0.685270	0.003109	99
Es	1.782167	-0.765749	0.010170	99
Es	-1.911125	-0.430144	-0.600106	99
Es	0.412228	-1.556001	0.005943	99
Es	0.546984	1.763965	-0.002040	99
Es	0.930162	-0.968913	-0.007044	99
Es	1.920946	0.587562	0.007050	99
Es	-0.205025	-0.042535	-0.000702	99
Es	1.839653	0.484559	0.006892	99
33
Properties=species:S:1:pos:R:3:Z:I:1 energy=-283.7728829343788 field_type=dipole dipole="0.000000 0.000000 0.000000" charge=0
C	-1.680288	-0.087359	-0.007366	6
C	-0.205028	-0.042419	-0.000706	6
C	0.638402	1.045151	0.000074	6
O	1.921302	0.587781	0.007064	8
C	1.782122	-0.766019	0.010174	6
N	0.541522	-1.198749	0.005724	7
H	-2.109588	0.919291	0.002444	1
H	-2.048428	-0.623849	0.872454	1
H	-2.040818	-0.603599	-0.902316	1
H	0.507612	2.116921	-0.003456	1
H	2.693191	-1.347149	0.015914	1
Es	0.411986	-1.555856	0.005430	99
Es	1.782167	-0.765750	0.010172	99
Es	0.541734	-1.198211	0.005724	99
Es	-1.970945	0.598015	-0.001107	99
Es	1.866583	0.073143	0.006490	99
Es	-1.918455	-0.446343	0.575356	99
Es	-0.205025	-0.042535	-0.000712	99
Es	-1.680228	-0.087343	-0.007368	99
Es	1.920918	0.587527	0.006976	99
Es	0.546851	1.764012	-0.002081	99
Es	0.216181	-0.685427	0.002377	99
Es	2.394273	-1.152005	0.014177	99
Es	0.232072	0.514679	-0.320811	99
Es	1.114486	-1.002184	-0.003767	99
Es	0.929767	-0.968927	0.019158	99
Es	2.202412	0.759360	0.009829	99
Es	-1.910788	-0.429610	-0.599888	99
Es	0.232805	0.514969	0.320551	99
Es	0.638724	1.045141	0.000066	99
Es	1.437560	0.760834	0.002944	99
Es	-0.933521	-0.060868	-0.004144	99
Es	1.839644	0.484732	0.008362	99
33
Properties=species:S:1:pos:R:3:Z:I:1 energy=-283.7728829343788 field_type=dipole dipole="0.000000 0.000000 0.000000" charge=0
C	-1.680288	-0.087359	-0.007366	6
C	-0.205028	-0.042419	-0.000706	6
C	0.638402	1.045151	0.000074	6
O	1.921302	0.587781	0.007064	8
C	1.782122	-0.766019	0.010174	6
N	0.541522	-1.198749	0.005724	7
H	-2.109588	0.919291	0.002444	1
H	-2.048428	-0.623849	0.872454	1
H	-2.040818	-0.603599	-0.902316	1
H	0.507612	2.116921	-0.003456	1
H	2.693191	-1.347149	0.015914	1
Es	-1.971292	0.598021	-0.001097	99
Es	0.541761	-1.198234	0.005722	99
Es	0.233149	0.514817	0.320167	99
Es	-0.205026	-0.042535	-0.000707	99
Es	-0.933412	-0.060940	-0.004220	99
Es	0.231815	0.514717	-0.320557	99
Es	0.411709	-1.555928	0.005479	99
Es	1.114416	-1.002130	-0.004269	99
Es	0.638723	1.045140	0.000075	99
Es	1.437643	0.760464	0.003805	99
Es	1.839706	0.484793	0.006782	99
Es	-1.918335	-0.446318	0.574996	99
Es	0.216599	-0.685413	0.002084	99
Es	1.782167	-0.765750	0.010170	99
Es	-1.680232	-0.087348	-0.007369	99
Es	0.929585	-0.968891	0.019909	99
Es	2.202547	0.759568	0.009738	99
Es	-1.910685	-0.429539	-0.599495	99
Es	0.546769	1.764024	-0.001973	99
Es	2.394265	-1.152003	0.014139	99
Es	1.920929	0.587548	0.007063	99
Es	1.866398	0.073290	0.007291	99
33
Properties=species:S:1:pos:R:3:Z:I:1 energy=-283.7728829343788 field_type=dipole dipole="0.000000 0.000000 0.000000" charge=0
C	-1.680288	-0.087359	-0.007366	6
C	-0.205028	-0.042419	-0.000706	6
C	0.638402	1.045151	0.000074	6
O	1.921302	0.587781	0.007064	8
C	1.782122	-0.766019	0.010174	6
N	0.541522	-1.198749	0.005724	7
H	-2.109588	0.919291	0.002444	1
H	-2.048428	-0.623849	0.872454	1
H	-2.040818	-0.603599	-0.902316	1
H	0.507612	2.116921	-0.003456	1
H	2.693191	-1.347149	0.015914	1
Es	0.638725	1.045140	0.000081	99
Es	-1.918439	-0.446531	0.574694	99
Es	0.411739	-1.555945	0.005283	99
Es	1.114453	-1.001927	0.011366	99
Es	1.866130	0.073284	0.008266	99
Es	0.541755	-1.198211	0.005719	99
Es	0.229842	0.516340	0.319959	99
Es	1.437797	0.760411	0.003786	99
Es	0.546744	1.764069	-0.001876	99
Es	-1.910427	-0.429245	-0.599171	99
Es	2.202656	0.759588	0.008741	99
Es	2.394264	-1.151966	0.014101	99
Es	1.920891	0.587491	0.006906	99
Es	0.216584	-0.685535	0.002203	99
Es	-1.971557	0.597996	-0.001112	99
Es	-0.933379	-0.061005	-0.004216	99
Es	1.839771	0.484885	0.007030	99
Es	1.782167	-0.765750	0.010171	99
Es	0.929413	-0.968934	0.004311	99
Es	0.235322	0.513075	-0.320436	99
Es	-0.205026	-0.042535	-0.000707	99
Es	-1.680228	-0.087343	-0.007366	99
33
Properties=species:S:1:pos:R:3:Z:I:1 energy=-283.7728829343788 field_type=dipole dipole="0.000000 0.000000 0.000000" charge=0
C	-1.680288	-0.087359	-0.007366	6
C	-0.205028	-0.042419	-0.000706	6
C	0.638402	1.045151	0.000074	6
O	1.921302	0.587781	0.007064	8
C	1.782122	-0.766019	0.010174	6
N	0.541522	-1.198749	0.005724	7
H	-2.109588	0.919291	0.002444	1
H	-2.048428	-0.623849	0.872454	1
H	-2.040818	-0.603599	-0.902316	1
H	0.507612	2.116921	-0.003456	1
H	2.693191	-1.347149	0.015914	1
Es	0.233138	0.514828	0.319855	99
Es	2.202470	0.759827	0.010455	99
Es	1.437529	0.760068	0.003718	99
Es	1.839784	0.484914	0.007551	99
Es	-1.909287	-0.427525	-0.598829	99
Es	1.920931	0.587527	0.007141	99
Es	2.394238	-1.151982	0.014063	99
Es	1.114503	-1.001958	0.004134	99
Es	-1.919443	-0.448189	0.574003	99
Es	1.782167	-0.765751	0.010177	99
Es	0.929067	-0.968960	0.011478	99
Es	-0.205025	-0.042535	-0.000707	99
Es	0.638724	1.045140	0.000080	99
Es	0.216764	-0.685509	0.002552	99
Es	-1.971785	0.597940	-0.000856	99
Es	0.232264	0.514563	-0.320261	99
Es	1.866655	0.073411	0.005852	99
Es	-1.680228	-0.087343	-0.007366	99
Es	0.541747	-1.198212	0.005723	99
Es	-0.933308	-0.061042	-0.004184	99
Es	0.546685	1.764047	-0.001739	99
Es	0.411608	-1.555908	0.004891	99
33
Properties=species:S:1:pos:R:3:Z:I:1 energy=-283.7728829343788 field_type=dipole dipole="0.000000 0.000000 0.000000" charge=0
C	-1.680288	-0.087359	-0.007366	6
C	-0.205028	-0.042419	-0.000706	6
C	0.638402	1.045151	0.000074	6
O	1.921302	0.587781	0.007064	8
C	1.782122	-0.766019	0.010174	6
N	0.541522	-1.198749	0.005724	7
H	-2.109588	0.919291	0.002444	1
H	-2.048428	-0.623849	0.872454	1
H	-2.040818	-0.603599	-0.902316	1
H	0.507612	2.116921	-0.003456	1
H	2.693191	-1.347149	0.015914	1
Es	0.411268	-1.555928	0.004696	99
Es	2.202605	0.759707	0.011280	99
Es	1.920885	0.587500	0.007231	99
Es	-1.919157	-0.447642	0.573790	99
Es	-0.205026	-0.042535	-0.000708	99
Es	1.839865	0.485036	0.004526	99
Es	0.541745	-1.198213	0.005725	99
Es	1.782167	-0.765750	0.010178	99
Es	0.230122	0.516340	0.319472	99
Es	-1.680230	-0.087344	-0.007368	99
Es	-0.933242	-0.061142	-0.004232	99
Es	-1.909475	-0.427911	-0.598581	99
Es	0.235483	0.512872	-0.320050	99
Es	0.638724	1.045140	0.000077	99
Es	1.866321	0.073389	0.008670	99
Es	1.114503	-1.001857	0.000529	99
Es	2.394259	-1.151943	0.014366	99
Es	0.546604	1.764110	-0.001768	99
Es	1.437693	0.760131	0.003126	99
Es	0.928957	-0.968955	0.015447	99
Es	0.217116	-0.685614	0.002308	99
Es	-1.971992	0.597959	-0.000980	99
33
Properties=species:S:1:pos:R:3:Z:I:1 energy=-283.7728829343788 field_type=dipole dipole="0.000000 0.000000 0.000000" charge=0
C	-1.680288	-0.087359	-0.007366	6
C	-0.205028	-0.042419	-0.000706	6
C	0.638402	1.045151	0.000074	6
O	1.921302	0.587781	0.007064	8
C	1.782122	-0.766019	0.010174	6
N	0.541522	-1.198749	0.005724	7
H	-2.109588	0.919291	0.002444	1
H	-2.048428	-0.623849	0.872454	1
H	-2.040818	-0.603599	-0.902316	1
H	0.507612	2.116921	-0.003456	1
H	2.693191	-1.347149	0.015914	1
Es	1.839870	0.484950	0.006671	99
Es	0.546559	1.764101	-0.001302	99
Es	-0.205026	-0.042535	-0.000707	99
Es	0.232867	0.515011	0.319577	99
Es	-1.920966	-0.450334	0.572832	99
Es	2.394259	-1.151948	0.014017	99
Es	-1.680228	-0.087343	-0.007366	99
Es	1.920927	0.587536	0.007016	99
Es	1.437632	0.759747	0.004795	99
Es	-1.972089	0.597934	-0.000850	99
Es	-1.907608	-0.425189	-0.597861	99
Es	0.411032	-1.555948	0.004418	99
Es	0.232710	0.514163	-0.320052	99
Es	1.114502	-1.001838	0.009020	99
Es	0.638724	1.045140	0.000087	99
Es	0.928917	-0.968898	0.007599	99
Es	0.541743	-1.198211	0.005724	99
Es	2.202575	0.760003	0.011532	99
Es	1.866441	0.073522	0.004849	99
Es	1.782167	-0.765750	0.010175	99
Es	-0.933211	-0.061207	-0.004080	99
Es	0.217400	-0.685553	0.001641	99
