42
Properties=species:S:1:pos:R:3:Z:I:1 energy=-287.2775227340165 field_type=dipole dipole="0.000000 0.000000 0.000000" charge=0
C	-2.280843	-0.670896	0.442111	6
C	-0.759444	-0.690006	0.417131	6
N	-0.250423	0.674263	0.259031	7
C	1.219126	0.736214	0.368141	6
C	1.923557	0.142684	-0.859339	6
O	1.362087	0.697464	-2.047239	8
H	-2.668933	-1.690386	0.536751	1
H	-2.687583	-0.239486	-0.479029	1
H	-2.656843	-0.087956	1.289941	1
H	-0.433113	-1.322096	-0.414979	1
H	-0.394233	-1.133776	1.350281	1
H	-0.649624	1.260224	0.994591	1
H	1.575186	0.264744	1.291351	1
H	1.483696	1.798814	0.424711	1
H	1.810457	-0.944876	-0.900919	1
H	2.991357	0.375394	-0.840279	1
H	0.415576	0.829683	-1.832259	1
Es	0.387013	0.677607	0.328200	99
Es	2.653971	0.302665	-0.835475	99
Es	0.866096	0.754736	-1.925656	99
Es	1.923435	0.142791	-0.859481	99
Es	-2.553553	-0.377526	-0.183687	99
Es	1.218989	0.736186	0.368112	99
Es	-0.250225	0.674030	0.259549	99
Es	1.466565	0.400053	1.003356	99
Es	1.482611	0.977466	-2.070989	99
Es	1.559206	0.484353	-1.584476	99
Es	-2.280820	-0.670902	0.442123	99
Es	-1.523772	-0.675989	0.431360	99
Es	1.386957	0.483982	-2.266953	99
Es	1.843297	-0.611066	-0.873872	99
Es	1.400341	1.461630	0.409281	99
Es	1.562355	0.428077	-0.235354	99
Es	-0.759435	-0.689868	0.417114	99
Es	-0.482424	1.014159	0.719255	99
Es	-2.530359	-0.268410	1.024017	99
Es	-0.503218	-0.998994	1.064572	99
Es	-2.541049	-1.366814	0.509087	99
Es	1.361884	0.697402	-2.046981	99
Es	-0.453260	0.078670	0.351004	99
Es	-0.529512	-1.118382	-0.152516	99
Es	-0.345733	0.800289	-0.069256	99
42
Properties=species:S:1:pos:R:3:Z:I:1 energy=-287.2775227340165 field_type=dipole dipole="0.000000 0.000000 0.000000" charge=0
C	-2.280843	-0.670896	0.442111	6
C	-0.759444	-0.690006	0.417131	6
N	-0.250423	0.674263	0.259031	7
C	1.219126	0.736214	0.368141	6
C	1.923557	0.142684	-0.859339	6
O	1.362087	0.697464	-2.047239	8
H	-2.668933	-1.690386	0.536751	1
H	-2.687583	-0.239486	-0.479029	1
H	-2.656843	-0.087956	1.289941	1
H	-0.433113	-1.322096	-0.414979	1
H	-0.394233	-1.133776	1.350281	1
H	-0.649624	1.260224	0.994591	1
H	1.575186	0.264744	1.291351	1
H	1.483696	1.798814	0.424711	1
H	1.810457	-0.944876	-0.900919	1
H	2.991357	0.375394	-0.840279	1
H	0.415576	0.829683	-1.832259	1
Es	1.361916	0.697353	-2.046949	99
Es	0.865057	0.755228	-1.925380	99
Es	-0.759435	-0.689867	0.417115	99
Es	-0.529407	-1.118266	-0.152537	99
Es	-0.503025	-0.998942	1.064460	99
Es	1.923438	0.142793	-0.859478	99
Es	-2.553658	-0.377694	-0.183813	99
Es	1.466657	0.400095	1.003362	99
Es	1.481194	0.975469	-2.070022	99
Es	1.843346	-0.610935	-0.873879	99
Es	1.561048	0.483706	-1.584765	99
Es	-0.452686	0.079430	0.352317	99
Es	-0.250241	0.674054	0.259518	99
Es	2.654026	0.302630	-0.835480	99
Es	1.562311	0.428097	-0.235350	99
Es	-2.541020	-1.366377	0.509097	99
Es	0.387044	0.677463	0.328456	99
Es	-2.530521	-0.268420	1.024092	99
Es	1.387528	0.486127	-2.267968	99
Es	-0.345872	0.798714	-0.070250	99
Es	1.218990	0.736186	0.368112	99
Es	-0.483116	1.015043	0.718777	99
Es	-1.523784	-0.676233	0.431495	99
Es	1.400388	1.461393	0.409279	99
Es	-2.280818	-0.670901	0.442123	99
42
Properties=species:S:1:pos:R:3:Z:I:1 energy=-287.2775227340165 field_type=dipole dipole="0.000000 0.000000 0.000000" charge=0
C	-2.280843	-0.670896	0.442111	6
C	-0.759444	-0.690006	0.417131	6
N	-0.250423	0.674263	0.259031	7
C	1.219126	0.736214	0.368141	6
C	1.923557	0.142684	-0.859339	6
O	1.362087	0.697464	-2.047239	8
H	-2.668933	-1.690386	0.536751	1
H	-2.687583	-0.239486	-0.479029	1
H	-2.656843	-0.087956	1.289941	1
H	-0.433113	-1.322096	-0.414979	1
H	-0.394233	-1.133776	1.350281	1
H	-0.649624	1.260224	0.994591	1
H	1.575186	0.264744	1.291351	1
H	1.483696	1.798814	0.424711	1
H	1.810457	-0.944876	-0.900919	1
H	2.991357	0.375394	-0.840279	1
H	0.415576	0.829683	-1.832259	1
Es	1.400385	1.461308	0.409207	99
Es	-0.502889	-0.998949	1.064452	99
Es	-0.483274	1.014924	0.718641	99
Es	-2.553862	-0.377821	-0.183889	99
Es	1.562298	0.428142	-0.235341	99
Es	-2.530554	-0.268465	1.023996	99
Es	1.481504	0.973422	-2.069964	99
Es	1.361935	0.697377	-2.046973	99
Es	2.653957	0.302682	-0.835491	99
Es	-1.523756	-0.676244	0.431476	99
Es	-0.453171	0.079279	0.351681	99
Es	0.387429	0.677544	0.328403	99
Es	-0.345671	0.798904	-0.069493	99
Es	1.387251	0.486192	-2.268234	99
Es	1.843427	-0.610982	-0.873878	99
Es	-0.250240	0.674040	0.259527	99
Es	0.864619	0.757237	-1.925107	99
Es	-0.529358	-1.118139	-0.152500	99
Es	-2.280818	-0.670902	0.442123	99
Es	1.923439	0.142792	-0.859475	99
Es	1.561424	0.483628	-1.584803	99
Es	1.218988	0.736185	0.368112	99
Es	-2.540951	-1.366206	0.509271	99
Es	1.466685	0.400064	1.003481	99
Es	-0.759435	-0.689865	0.417111	99
42
Properties=species:S:1:pos:R:3:Z:I:1 energy=-287.2775227340165 field_type=dipole dipole="0.000000 0.000000 0.000000" charge=0
C	-2.280843	-0.670896	0.442111	6
C	-0.759444	-0.690006	0.417131	6
N	-0.250423	0.674263	0.259031	7
C	1.219126	0.736214	0.368141	6
C	1.923557	0.142684	-0.859339	6
O	1.362087	0.697464	-2.047239	8
H	-2.668933	-1.690386	0.536751	1
H	-2.687583	-0.239486	-0.479029	1
H	-2.656843	-0.087956	1.289941	1
H	-0.433113	-1.322096	-0.414979	1
H	-0.394233	-1.133776	1.350281	1
H	-0.649624	1.260224	0.994591	1
H	1.575186	0.264744	1.291351	1
H	1.483696	1.798814	0.424711	1
H	1.810457	-0.944876	-0.900919	1
H	2.991357	0.375394	-0.840279	1
H	0.415576	0.829683	-1.832259	1
Es	0.864672	0.757950	-1.924721	99
Es	-2.540983	-1.365959	0.509057	99
Es	1.466725	0.400079	1.003489	99
Es	1.361911	0.697298	-2.046963	99
Es	1.482885	0.973306	-2.073453	99
Es	-0.250229	0.674041	0.259521	99
Es	0.387468	0.677554	0.328319	99
Es	1.843418	-0.610866	-0.873970	99
Es	-0.759435	-0.689867	0.417113	99
Es	1.218988	0.736184	0.368112	99
Es	-0.529282	-1.118016	-0.152472	99
Es	1.923437	0.142793	-0.859479	99
Es	-2.280819	-0.670902	0.442123	99
Es	-0.483469	1.015092	0.718600	99
Es	1.385288	0.484850	-2.265408	99
Es	-0.452830	0.079545	0.352161	99
Es	-0.345965	0.798380	-0.069818	99
Es	2.653998	0.302560	-0.835513	99
Es	1.400409	1.461190	0.409202	99
Es	-0.502768	-0.998955	1.064382	99
Es	-2.553859	-0.377753	-0.183858	99
Es	1.561963	0.484536	-1.584516	99
Es	1.562317	0.428104	-0.235235	99
Es	-2.530665	-0.268587	1.024153	99
Es	-1.523815	-0.676411	0.431508	99
42
Properties=species:S:1:pos:R:3:Z:I:1 energy=-287.2775227340165 field_type=dipole dipole="0.000000 0.000000 0.000000" charge=0
C	-2.280843	-0.670896	0.442111	6
C	-0.759444	-0.690006	0.417131	6
N	-0.250423	0.674263	0.259031	7
C	1.219126	0.736214	0.368141	6
C	1.923557	0.142684	-0.859339	6
O	1.362087	0.697464	-2.047239	8
H	-2.668933	-1.690386	0.536751	1
H	-2.687583	-0.239486	-0.479029	1
H	-2.656843	-0.087956	1.289941	1
H	-0.433113	-1.322096	-0.414979	1
H	-0.394233	-1.133776	1.350281	1
H	-0.649624	1.260224	0.994591	1
H	1.575186	0.264744	1.291351	1
H	1.483696	1.798814	0.424711	1
H	1.810457	-0.944876	-0.900919	1
H	2.991357	0.375394	-0.840279	1
H	0.415576	0.829683	-1.832259	1
Es	0.387506	0.677407	0.328736	99
Es	-2.280819	-0.670902	0.442123	99
Es	-0.759435	-0.689868	0.417114	99
Es	-0.484164	1.015865	0.718053	99
Es	-0.453137	0.079557	0.351916	99
Es	-1.523808	-0.676448	0.431605	99
Es	-2.553930	-0.377730	-0.183959	99
Es	1.562311	0.428106	-0.235309	99
Es	1.387182	0.488884	-2.268467	99
Es	0.864021	0.757769	-1.925318	99
Es	1.923437	0.142792	-0.859479	99
Es	2.654035	0.302603	-0.835490	99
Es	1.361888	0.697259	-2.046944	99
Es	-0.502672	-0.998949	1.064406	99
Es	-0.529264	-1.117941	-0.152427	99
Es	-2.540959	-1.365822	0.509095	99
Es	-2.530717	-0.268705	1.024093	99
Es	-0.345027	0.797763	-0.069550	99
Es	-0.250245	0.674024	0.259552	99
Es	1.561435	0.480979	-1.585745	99
Es	1.843428	-0.610857	-0.873939	99
Es	1.400409	1.461091	0.409179	99
Es	1.482130	0.973055	-2.068591	99
Es	1.466768	0.400026	1.003567	99
Es	1.218986	0.736185	0.368112	99
42
Properties=species:S:1:pos:R:3:Z:I:1 energy=-287.2775227340165 field_type=dipole dipole="0.000000 0.000000 0.000000" charge=0
C	-2.280843	-0.670896	0.442111	6
C	-0.759444	-0.690006	0.417131	6
N	-0.250423	0.674263	0.259031	7
C	1.219126	0.736214	0.368141	6
C	1.923557	0.142684	-0.859339	6
O	1.362087	0.697464	-2.047239	8
H	-2.668933	-1.690386	0.536751	1
H	-2.687583	-0.239486	-0.479029	1
H	-2.656843	-0.087956	1.289941	1
H	-0.433113	-1.322096	-0.414979	1
H	-0.394233	-1.133776	1.350281	1
H	-0.649624	1.260224	0.994591	1
H	1.575186	0.264744	1.291351	1
H	1.483696	1.798814	0.424711	1
H	1.810457	-0.944876	-0.900919	1
H	2.991357	0.375394	-0.840279	1
H	0.415576	0.829683	-1.832259	1
Es	1.482592	0.971005	-2.070188	99
Es	1.562126	0.481720	-1.585265	99
Es	-0.502695	-0.998870	1.064383	99
Es	-0.345207	0.797245	-0.069704	99
Es	0.863992	0.759922	-1.924952	99
Es	-0.529227	-1.117994	-0.152319	99
Es	1.923439	0.142791	-0.859476	99
Es	1.400407	1.461105	0.409197	99
Es	-2.530580	-0.268724	1.023987	99
Es	-2.541014	-1.365852	0.509242	99
Es	1.843452	-0.610871	-0.873971	99
Es	2.653969	0.302556	-0.835528	99
Es	1.218986	0.736184	0.368111	99
Es	-0.452724	0.079515	0.352363	99
Es	-2.554090	-0.377724	-0.183893	99
Es	1.466788	0.399945	1.003568	99
Es	-2.280819	-0.670901	0.442124	99
Es	0.387576	0.677744	0.328689	99
Es	1.562268	0.428227	-0.235259	99
Es	-1.523820	-0.676385	0.431480	99
Es	-0.759436	-0.689869	0.417115	99
Es	1.361936	0.697465	-2.046912	99
Es	1.386068	0.487826	-2.267736	99
Es	-0.484408	1.016069	0.717695	99
Es	-0.250220	0.674016	0.259584	99
42
Properties=species:S:1:pos:R:3:Z:I:1 energy=-287.2775227340165 field_type=dipole dipole="0.000000 0.000000 0.000000" charge=0
C	-2.280843	-0.670896	0.442111	6
C	-0.759444	-0.690006	0.417131	6
N	-0.250423	0.674263	0.259031	7
C	1.219126	0.736214	0.368141	6
C	1.923557	0.142684	-0.859339	6
O	1.362087	0.697464	-2.047239	8
H	-2.668933	-1.690386	0.536751	1
H	-2.687583	-0.239486	-0.479029	1
H	-2.656843	-0.087956	1.289941	1
H	-0.433113	-1.322096	-0.414979	1
H	-0.394233	-1.133776	1.350281	1
H	-0.649624	1.260224	0.994591	1
H	1.575186	0.264744	1.291351	1
H	1.483696	1.798814	0.424711	1
H	1.810457	-0.944876	-0.900919	1
H	2.991357	0.375394	-0.840279	1
H	0.415576	0.829683	-1.832259	1
Es	-0.759436	-0.689868	0.417114	99
Es	1.385850	0.487827	-2.266687	99
Es	2.653927	0.302604	-0.835529	99
Es	-2.280819	-0.670902	0.442123	99
Es	1.218988	0.736184	0.368111	99
Es	1.562456	0.481951	-1.585309	99
Es	-0.502667	-0.998855	1.064379	99
Es	-1.523785	-0.676570	0.431589	99
Es	-0.250224	0.674028	0.259568	99
Es	1.482828	0.971014	-2.070966	99
Es	1.843499	-0.610922	-0.873971	99
Es	1.400473	1.461067	0.409150	99
Es	1.562281	0.428163	-0.235244	99
Es	1.466791	0.399949	1.003574	99
Es	-2.553991	-0.377736	-0.183948	99
Es	0.863626	0.759735	-1.925019	99
Es	0.387511	0.677688	0.328638	99
Es	-2.541140	-1.365687	0.509222	99
Es	1.923438	0.142795	-0.859479	99
Es	-0.484602	1.016549	0.717562	99
Es	-0.452672	0.079652	0.352799	99
Es	1.361908	0.697432	-2.047051	99
Es	-2.530632	-0.268679	1.023954	99
Es	-0.345116	0.796675	-0.069859	99
Es	-0.529131	-1.117948	-0.152389	99
42
Properties=species:S:1:pos:R:3:Z:I:1 energy=-287.2775227340165 field_type=dipole dipole="0.000000 0.000000 0.000000" charge=0
C	-2.280843	-0.670896	0.442111	6
C	-0.759444	-0.690006	0.417131	6
N	-0.250423	0.674263	0.259031	7
C	1.219126	0.736214	0.368141	6
C	1.923557	0.142684	-0.859339	6
O	1.362087	0.697464	-2.047239	8
H	-2.668933	-1.690386	0.536751	1
H	-2.687583	-0.239486	-0.479029	1
H	-2.656843	-0.087956	1.289941	1
H	-0.433113	-1.322096	-0.414979	1
H	-0.394233	-1.133776	1.350281	1
H	-0.649624	1.260224	0.994591	1
H	1.575186	0.264744	1.291351	1
H	1.483696	1.798814	0.424711	1
H	1.810457	-0.944876	-0.900919	1
H	2.991357	0.375394	-0.840279	1
H	0.415576	0.829683	-1.832259	1
Es	1.843667	-0.611014	-0.873972	99
Es	1.923435	0.142795	-0.859481	99
Es	0.863350	0.760461	-1.925099	99
Es	1.562037	0.480038	-1.586096	99
Es	1.218990	0.736186	0.368111	99
Es	1.466856	0.399919	1.003620	99
Es	0.387747	0.677700	0.328370	99
Es	-2.541092	-1.365522	0.509312	99
Es	1.400466	1.461050	0.409087	99
Es	-0.759437	-0.689870	0.417116	99
Es	-1.523755	-0.676637	0.431498	99
Es	1.482838	0.970435	-2.068631	99
Es	-0.250242	0.674040	0.259522	99
Es	2.653773	0.302707	-0.835504	99
Es	-0.484670	1.016679	0.717514	99
Es	-2.554151	-0.377750	-0.184030	99
Es	1.361922	0.697358	-2.046954	99
Es	-0.345036	0.796571	-0.069231	99
Es	-0.502630	-0.998912	1.064417	99
Es	1.562239	0.428189	-0.235217	99
Es	-0.452898	0.079568	0.352538	99
Es	1.386489	0.489663	-2.268291	99
Es	-2.530596	-0.268756	1.023957	99
Es	-0.529127	-1.117855	-0.152346	99
Es	-2.280818	-0.670900	0.442124	99
42
Properties=species:S:1:pos:R:3:Z:I:1 energy=-287.2775227340165 field_type=dipole dipole="0.000000 0.000000 0.000000" charge=0
C	-2.280843	-0.670896	0.442111	6
C	-0.759444	-0.690006	0.417131	6
N	-0.250423	0.674263	0.259031	7
C	1.219126	0.736214	0.368141	6
C	1.923557	0.142684	-0.859339	6
O	1.362087	0.697464	-2.047239	8
H	-2.668933	-1.690386	0.536751	1
H	-2.687583	-0.239486	-0.479029	1
H	-2.656843	-0.087956	1.289941	1
H	-0.433113	-1.322096	-0.414979	1
H	-0.394233	-1.133776	1.350281	1
H	-0.649624	1.260224	0.994591	1
H	1.575186	0.264744	1.291351	1
H	1.483696	1.798814	0.424711	1
H	1.810457	-0.944876	-0.900919	1
H	2.991357	0.375394	-0.840279	1
H	0.415576	0.829683	-1.832259	1
Es	1.218989	0.736185	0.368112	99
Es	-0.452685	0.079795	0.352725	99
Es	1.923438	0.142793	-0.859479	99
Es	1.361890	0.697307	-2.046933	99
Es	-0.485109	1.016996	0.717307	99
Es	1.484716	0.969296	-2.072421	99
Es	-2.530645	-0.268795	1.024033	99
Es	-0.502586	-0.998928	1.064315	99
Es	-0.344806	0.796093	-0.069395	99
Es	-1.523813	-0.676641	0.431584	99
Es	-2.280818	-0.670902	0.442122	99
Es	1.466818	0.399904	1.003597	99
Es	1.383738	0.487763	-2.265679	99
Es	2.653865	0.302601	-0.835565	99
Es	1.400492	1.461058	0.409122	99
Es	1.843556	-0.610943	-0.873983	99
Es	-2.541012	-1.365526	0.509242	99
Es	-0.759435	-0.689867	0.417115	99
Es	0.387745	0.677705	0.328557	99
Es	-2.554156	-0.377737	-0.184038	99
Es	1.562475	0.480774	-1.585562	99
Es	0.863810	0.762840	-1.924429	99
Es	-0.529142	-1.117839	-0.152356	99
Es	-0.250243	0.674024	0.259540	99
Es	1.562278	0.428191	-0.235196	99
42
Properties=species:S:1:pos:R:3:Z:I:1 energy=-287.2775227340165 field_type=dipole dipole="0.000000 0.000000 0.000000" charge=0
C	-2.280843	-0.670896	0.442111	6
C	-0.759444	-0.690006	0.417131	6
N	-0.250423	0.674263	0.259031	7
C	1.219126	0.736214	0.368141	6
C	1.923557	0.142684	-0.859339	6
O	1.362087	0.697464	-2.047239	8
H	-2.668933	-1.690386	0.536751	1
H	-2.687583	-0.239486	-0.479029	1
H	-2.656843	-0.087956	1.289941	1
H	-0.433113	-1.322096	-0.414979	1
H	-0.394233	-1.133776	1.350281	1
H	-0.649624	1.260224	0.994591	1
H	1.575186	0.264744	1.291351	1
H	1.483696	1.798814	0.424711	1
H	1.810457	-0.944876	-0.900919	1
H	2.991357	0.375394	-0.840279	1
H	0.415576	0.829683	-1.832259	1
Es	1.361900	0.697333	-2.046942	99
Es	1.400479	1.461018	0.409008	99
Es	1.466884	0.399892	1.003700	99
Es	-0.759436	-0.689868	0.417114	99
Es	-2.541138	-1.365628	0.509256	99
Es	-1.523859	-0.676616	0.431486	99
Es	2.653885	0.302668	-0.835443	99
Es	1.923444	0.142797	-0.859480	99
Es	-2.530520	-0.268815	1.023969	99
Es	1.562335	0.478734	-1.586484	99
Es	0.863352	0.761685	-1.924872	99
Es	-0.485449	1.017489	0.716915	99
Es	-0.529165	-1.117740	-0.152324	99
Es	-2.554152	-0.377620	-0.183945	99
Es	-0.452717	0.079748	0.352866	99
Es	-0.250234	0.674036	0.259533	99
Es	1.386149	0.490850	-2.268974	99
Es	-0.502487	-0.998966	1.064386	99
Es	1.843570	-0.610966	-0.874046	99
Es	0.387811	0.677762	0.328570	99
Es	1.562141	0.428125	-0.235211	99
Es	-2.280822	-0.670903	0.442122	99
Es	-0.344544	0.795525	-0.069236	99
Es	1.482947	0.969421	-2.067743	99
Es	1.218988	0.736184	0.368110	99
42
Properties=species:S:1:pos:R:3:Z:I:1 energy=-287.2775227340165 field_type=dipole dipole="0.000000 0.000000 0.000000" charge=0
C	-2.280843	-0.670896	0.442111	6
C	-0.759444	-0.690006	0.417131	6
N	-0.250423	0.674263	0.259031	7
C	1.219126	0.736214	0.368141	6
C	1.923557	0.142684	-0.859339	6
O	1.362087	0.697464	-2.047239	8
H	-2.668933	-1.690386	0.536751	1
H	-2.687583	-0.239486	-0.479029	1
H	-2.656843	-0.087956	1.289941	1
H	-0.433113	-1.322096	-0.414979	1
H	-0.394233	-1.133776	1.350281	1
H	-0.649624	1.260224	0.994591	1
H	1.575186	0.264744	1.291351	1
H	1.483696	1.798814	0.424711	1
H	1.810457	-0.944876	-0.900919	1
H	2.991357	0.375394	-0.840279	1
H	0.415576	0.829683	-1.832259	1
Es	1.483327	0.969642	-2.068721	99
Es	1.562339	0.428170	-0.235226	99
Es	2.653758	0.302667	-0.835507	99
Es	1.400512	1.461004	0.409117	99
Es	0.387721	0.677667	0.328910	99
Es	-0.250230	0.674033	0.259556	99
Es	-0.485818	1.017967	0.716533	99
Es	-1.523771	-0.676630	0.431715	99
Es	-0.502530	-0.998893	1.064334	99
Es	-0.452771	0.079833	0.353077	99
Es	-2.530709	-0.268883	1.023970	99
Es	1.361929	0.697438	-2.046904	99
Es	-0.529088	-1.117812	-0.152410	99
Es	0.863205	0.761461	-1.925033	99
Es	-0.759436	-0.689868	0.417115	99
Es	-2.280820	-0.670902	0.442123	99
Es	1.218990	0.736185	0.368112	99
Es	1.466758	0.399929	1.003640	99
Es	-2.541056	-1.365461	0.509205	99
Es	1.385579	0.491173	-2.267841	99
Es	1.562634	0.478278	-1.586540	99
Es	1.843622	-0.611050	-0.873981	99
Es	-0.344087	0.795086	-0.069380	99
Es	1.923436	0.142793	-0.859479	99
Es	-2.554135	-0.377683	-0.184054	99
42
Properties=species:S:1:pos:R:3:Z:I:1 energy=-287.2775227340165 field_type=dipole dipole="0.000000 0.000000 0.000000" charge=0
C	-2.280843	-0.670896	0.442111	6
C	-0.759444	-0.690006	0.417131	6
N	-0.250423	0.674263	0.259031	7
C	1.219126	0.736214	0.368141	6
C	1.923557	0.142684	-0.859339	6
O	1.362087	0.697464	-2.047239	8
H	-2.668933	-1.690386	0.536751	1
H	-2.687583	-0.239486	-0.479029	1
H	-2.656843	-0.087956	1.289941	1
H	-0.433113	-1.322096	-0.414979	1
H	-0.394233	-1.133776	1.350281	1
H	-0.649624	1.260224	0.994591	1
H	1.575186	0.264744	1.291351	1
H	1.483696	1.798814	0.424711	1
H	1.810457	-0.944876	-0.900919	1
H	2.991357	0.375394	-0.840279	1
H	0.415576	0.829683	-1.832259	1
Es	2.653778	0.302680	-0.835500	99
Es	-0.250227	0.674029	0.259546	99
Es	0.863117	0.763100	-1.925008	99
Es	-0.759436	-0.689868	0.417115	99
Es	1.218988	0.736184	0.368111	99
Es	0.387631	0.677674	0.328965	99
Es	-0.344131	0.795567	-0.069334	99
Es	-2.530580	-0.268931	1.024020	99
Es	-1.523764	-0.676620	0.431608	99
Es	-0.485611	1.017642	0.716734	99
Es	1.562226	0.428272	-0.235194	99
Es	-2.554216	-0.377583	-0.183922	99
Es	1.361918	0.697409	-2.046942	99
Es	-0.502510	-0.998886	1.064313	99
Es	1.466914	0.399798	1.003669	99
Es	-2.541107	-1.365525	0.509172	99
Es	1.385488	0.491203	-2.268199	99
Es	-0.529083	-1.117807	-0.152455	99
Es	1.484076	0.968556	-2.068116	99
Es	1.562040	0.477754	-1.586754	99
Es	1.923438	0.142797	-0.859479	99
Es	-0.452935	0.079701	0.352804	99
Es	1.400539	1.460940	0.409059	99
Es	1.843627	-0.611039	-0.874003	99
Es	-2.280819	-0.670901	0.442123	99
42
Properties=species:S:1:pos:R:3:Z:I:1 energy=-287.2775227340165 field_type=dipole dipole="0.000000 0.000000 0.000000" charge=0
C	-2.280843	-0.670896	0.442111	6
C	-0.759444	-0.690006	0.417131	6
N	-0.250423	0.674263	0.259031	7
C	1.219126	0.736214	0.368141	6
C	1.923557	0.142684	-0.859339	6
O	1.362087	0.697464	-2.047239	8
H	-2.668933	-1.690386	0.536751	1
H	-2.687583	-0.239486	-0.479029	1
H	-2.656843	-0.087956	1.289941	1
H	-0.433113	-1.322096	-0.414979	1
H	-0.394233	-1.133776	1.350281	1
H	-0.649624	1.260224	0.994591	1
H	1.575186	0.264744	1.291351	1
H	1.483696	1.798814	0.424711	1
H	1.810457	-0.944876	-0.900919	1
H	2.991357	0.375394	-0.840279	1
H	0.415576	0.829683	-1.832259	1
Es	-0.759436	-0.689869	0.417116	99
Es	-0.529068	-1.117763	-0.152324	99
Es	1.400650	1.461069	0.409000	99
Es	1.466822	0.399827	1.003623	99
Es	-0.485964	1.018031	0.716534	99
Es	2.653757	0.302654	-0.835530	99
Es	1.843628	-0.611047	-0.874020	99
Es	-2.530565	-0.268920	1.023915	99
Es	-1.523738	-0.676768	0.431591	99
Es	-0.344042	0.794975	-0.069337	99
Es	-0.502501	-0.998897	1.064328	99
Es	0.387755	0.677686	0.328960	99
Es	1.384642	0.490758	-2.267761	99
Es	1.562442	0.478006	-1.586450	99
Es	-0.250226	0.674026	0.259550	99
Es	-2.280819	-0.670901	0.442123	99
Es	1.923437	0.142792	-0.859479	99
Es	-0.452715	0.079939	0.352987	99
Es	-2.554237	-0.377609	-0.183984	99
Es	1.562177	0.428105	-0.235102	99
Es	-2.541189	-1.365407	0.509270	99
Es	1.484226	0.968150	-2.069104	99
Es	0.863431	0.763768	-1.924735	99
Es	1.218989	0.736184	0.368113	99
Es	1.361904	0.697358	-2.046948	99
42
Properties=species:S:1:pos:R:3:Z:I:1 energy=-287.2775227340165 field_type=dipole dipole="0.000000 0.000000 0.000000" charge=0
C	-2.280843	-0.670896	0.442111	6
C	-0.759444	-0.690006	0.417131	6
N	-0.250423	0.674263	0.259031	7
C	1.219126	0.736214	0.368141	6
C	1.923557	0.142684	-0.859339	6
O	1.362087	0.697464	-2.047239	8
H	-2.668933	-1.690386	0.536751	1
H	-2.687583	-0.239486	-0.479029	1
H	-2.656843	-0.087956	1.289941	1
H	-0.433113	-1.322096	-0.414979	1
H	-0.394233	-1.133776	1.350281	1
H	-0.649624	1.260224	0.994591	1
H	1.575186	0.264744	1.291351	1
H	1.483696	1.798814	0.424711	1
H	1.810457	-0.944876	-0.900919	1
H	2.991357	0.375394	-0.840279	1
H	0.415576	0.829683	-1.832259	1
Es	-0.250232	0.674035	0.259533	99
Es	1.466914	0.399778	1.003611	99
Es	1.562526	0.478810	-1.586377	99
Es	1.218988	0.736184	0.368111	99
Es	1.400581	1.461001	0.409061	99
Es	1.485634	0.967584	-2.071506	99
Es	-2.540988	-1.365391	0.509291	99
Es	-2.554320	-0.377719	-0.184051	99
Es	1.923437	0.142793	-0.859481	99
Es	0.863342	0.764962	-1.924387	99
Es	1.383264	0.489311	-2.265755	99
Es	-0.485987	1.018299	0.716371	99
Es	1.843653	-0.611137	-0.873992	99
Es	-2.280819	-0.670901	0.442123	99
Es	-0.343963	0.794725	-0.069452	99
Es	-0.759436	-0.689869	0.417116	99
Es	-1.523791	-0.676611	0.431558	99
Es	1.562255	0.428323	-0.235164	99
Es	-0.529079	-1.117742	-0.152373	99
Es	1.361897	0.697378	-2.046989	99
Es	-0.502479	-0.998911	1.064344	99
Es	0.387673	0.677554	0.329003	99
Es	-2.530635	-0.268915	1.024005	99
Es	-0.452732	0.079942	0.353264	99
Es	2.653660	0.302665	-0.835530	99
42
Properties=species:S:1:pos:R:3:Z:I:1 energy=-287.2775227340165 field_type=dipole dipole="0.000000 0.000000 0.000000" charge=0
C	-2.280843	-0.670896	0.442111	6
C	-0.759444	-0.690006	0.417131	6
N	-0.250423	0.674263	0.259031	7
C	1.219126	0.736214	0.368141	6
C	1.923557	0.142684	-0.859339	6
O	1.362087	0.697464	-2.047239	8
H	-2.668933	-1.690386	0.536751	1
H	-2.687583	-0.239486	-0.479029	1
H	-2.656843	-0.087956	1.289941	1
H	-0.433113	-1.322096	-0.414979	1
H	-0.394233	-1.133776	1.350281	1
H	-0.649624	1.260224	0.994591	1
H	1.575186	0.264744	1.291351	1
H	1.483696	1.798814	0.424711	1
H	1.810457	-0.944876	-0.900919	1
H	2.991357	0.375394	-0.840279	1
H	0.415576	0.829683	-1.832259	1
Es	-0.529082	-1.117652	-0.152379	99
Es	1.923437	0.142793	-0.859478	99
Es	-0.250235	0.674036	0.259533	99
Es	-1.523765	-0.676656	0.431585	99
Es	-2.280818	-0.670901	0.442123	99
Es	-0.759435	-0.689867	0.417114	99
Es	1.484336	0.967803	-2.068914	99
Es	0.863227	0.764050	-1.924779	99
Es	0.387820	0.677692	0.328866	99
Es	1.400582	1.461125	0.409128	99
Es	-2.530674	-0.268989	1.024004	99
Es	1.562295	0.428284	-0.235167	99
Es	1.562569	0.477366	-1.586698	99
Es	1.843634	-0.611162	-0.873991	99
Es	-0.486149	1.018345	0.716294	99
Es	-2.554286	-0.377645	-0.184002	99
Es	1.384564	0.491447	-2.267673	99
Es	-2.541064	-1.365327	0.509195	99
Es	-0.502410	-0.998962	1.064355	99
Es	1.218988	0.736184	0.368112	99
Es	1.361949	0.697392	-2.046922	99
Es	-0.343950	0.794571	-0.069215	99
Es	2.653666	0.302682	-0.835546	99
Es	1.466838	0.399734	1.003555	99
Es	-0.452678	0.079801	0.353235	99
42
Properties=species:S:1:pos:R:3:Z:I:1 energy=-287.2775227340165 field_type=dipole dipole="0.000000 0.000000 0.000000" charge=0
C	-2.280843	-0.670896	0.442111	6
C	-0.759444	-0.690006	0.417131	6
N	-0.250423	0.674263	0.259031	7
C	1.219126	0.736214	0.368141	6
C	1.923557	0.142684	-0.859339	6
O	1.362087	0.697464	-2.047239	8
H	-2.668933	-1.690386	0.536751	1
H	-2.687583	-0.239486	-0.479029	1
H	-2.656843	-0.087956	1.289941	1
H	-0.433113	-1.322096	-0.414979	1
H	-0.394233	-1.133776	1.350281	1
H	-0.649624	1.260224	0.994591	1
H	1.575186	0.264744	1.291351	1
H	1.483696	1.798814	0.424711	1
H	1.810457	-0.944876	-0.900919	1
H	2.991357	0.375394	-0.840279	1
H	0.415576	0.829683	-1.832259	1
Es	1.361913	0.697342	-2.046952	99
Es	-0.486103	1.018145	0.716406	99
Es	1.562175	0.428310	-0.235102	99
Es	-2.530601	-0.269213	1.023941	99
Es	-0.343917	0.794879	-0.069139	99
Es	1.466857	0.399653	1.003574	99
Es	-2.541242	-1.365310	0.509075	99
Es	-2.280819	-0.670902	0.442124	99
Es	1.843621	-0.611149	-0.873983	99
Es	-0.529017	-1.117810	-0.152299	99
Es	1.400738	1.461050	0.409057	99
Es	0.863305	0.764996	-1.924268	99
Es	1.484392	0.967147	-2.067810	99
Es	2.653651	0.302622	-0.835616	99
Es	-2.554252	-0.377345	-0.183960	99
Es	1.218989	0.736185	0.368112	99
Es	-0.250218	0.674019	0.259553	99
Es	-1.523687	-0.676796	0.431736	99
Es	-0.502533	-0.998839	1.064305	99
Es	1.384328	0.492383	-2.268586	99
Es	1.562712	0.476169	-1.587362	99
Es	1.923438	0.142794	-0.859480	99
Es	-0.452703	0.079804	0.352907	99
Es	-0.759436	-0.689867	0.417115	99
Es	0.387770	0.677878	0.328986	99
42
Properties=species:S:1:pos:R:3:Z:I:1 energy=-287.2775227340165 field_type=dipole dipole="0.000000 0.000000 0.000000" charge=0
C	-2.280843	-0.670896	0.442111	6
C	-0.759444	-0.690006	0.417131	6
N	-0.250423	0.674263	0.259031	7
C	1.219126	0.736214	0.368141	6
C	1.923557	0.142684	-0.859339	6
O	1.362087	0.697464	-2.047239	8
H	-2.668933	-1.690386	0.536751	1
H	-2.687583	-0.239486	-0.479029	1
H	-2.656843	-0.087956	1.289941	1
H	-0.433113	-1.322096	-0.414979	1
H	-0.394233	-1.133776	1.350281	1
H	-0.649624	1.260224	0.994591	1
H	1.575186	0.264744	1.291351	1
H	1.483696	1.798814	0.424711	1
H	1.810457	-0.944876	-0.900919	1
H	2.991357	0.375394	-0.840279	1
H	0.415576	0.829683	-1.832259	1
Es	1.361896	0.697327	-2.046926	99
Es	-0.343460	0.793589	-0.069325	99
Es	-0.502314	-0.998960	1.064275	99
Es	-0.452482	0.079995	0.353641	99
Es	-0.759436	-0.689868	0.417115	99
Es	1.218989	0.736185	0.368112	99
Es	1.563191	0.477453	-1.586884	99
Es	1.923435	0.142791	-0.859481	99
Es	1.562226	0.428299	-0.235084	99
Es	-2.541012	-1.365396	0.509152	99
Es	-0.529134	-1.117635	-0.152359	99
Es	1.843705	-0.611167	-0.874028	99
Es	1.484145	0.967653	-2.069247	99
Es	-2.530610	-0.269097	1.024060	99
Es	-1.523882	-0.676664	0.431694	99
Es	0.862907	0.763833	-1.924700	99
Es	2.653578	0.302647	-0.835558	99
Es	0.387749	0.677734	0.329088	99
Es	-2.554318	-0.377506	-0.184028	99
Es	-0.486777	1.019203	0.715703	99
Es	-2.280819	-0.670902	0.442123	99
Es	1.384548	0.491802	-2.267248	99
Es	1.466860	0.399720	1.003632	99
Es	-0.250224	0.674030	0.259553	99
Es	1.400601	1.461079	0.409053	99
42
Properties=species:S:1:pos:R:3:Z:I:1 energy=-287.2775227340165 field_type=dipole dipole="0.000000 0.000000 0.000000" charge=0
C	-2.280843	-0.670896	0.442111	6
C	-0.759444	-0.690006	0.417131	6
N	-0.250423	0.674263	0.259031	7
C	1.219126	0.736214	0.368141	6
C	1.923557	0.142684	-0.859339	6
O	1.362087	0.697464	-2.047239	8
H	-2.668933	-1.690386	0.536751	1
H	-2.687583	-0.239486	-0.479029	1
H	-2.656843	-0.087956	1.289941	1
H	-0.433113	-1.322096	-0.414979	1
H	-0.394233	-1.133776	1.350281	1
H	-0.649624	1.260224	0.994591	1
H	1.575186	0.264744	1.291351	1
H	1.483696	1.798814	0.424711	1
H	1.810457	-0.944876	-0.900919	1
H	2.991357	0.375394	-0.840279	1
H	0.415576	0.829683	-1.832259	1
Es	1.383980	0.492318	-2.267781	99
Es	1.361921	0.697372	-2.046933	99
Es	-0.529114	-1.117642	-0.152331	99
Es	2.653503	0.302765	-0.835549	99
Es	1.562808	0.476156	-1.587285	99
Es	1.923437	0.142792	-0.859479	99
Es	1.484913	0.966429	-2.068477	99
Es	1.466825	0.399839	1.003619	99
Es	-2.530656	-0.269149	1.023922	99
Es	-0.344027	0.794413	-0.069059	99
Es	-0.250238	0.674040	0.259531	99
Es	1.843759	-0.611306	-0.874065	99
Es	-2.280819	-0.670902	0.442123	99
Es	-0.759436	-0.689868	0.417115	99
Es	-2.541026	-1.365400	0.509213	99
Es	-0.502372	-0.998967	1.064331	99
Es	0.387918	0.677718	0.328709	99
Es	0.863055	0.765822	-1.924465	99
Es	1.400682	1.461119	0.408944	99
Es	-1.523739	-0.676572	0.431661	99
Es	1.218989	0.736184	0.368112	99
Es	-0.486213	1.018428	0.716409	99
Es	1.562222	0.428107	-0.235068	99
Es	-0.452638	0.079989	0.353133	99
Es	-2.554373	-0.377542	-0.183997	99
42
Properties=species:S:1:pos:R:3:Z:I:1 energy=-287.2775227340165 field_type=dipole dipole="0.000000 0.000000 0.000000" charge=0
C	-2.280843	-0.670896	0.442111	6
C	-0.759444	-0.690006	0.417131	6
N	-0.250423	0.674263	0.259031	7
C	1.219126	0.736214	0.368141	6
C	1.923557	0.142684	-0.859339	6
O	1.362087	0.697464	-2.047239	8
H	-2.668933	-1.690386	0.536751	1
H	-2.687583	-0.239486	-0.479029	1
H	-2.656843	-0.087956	1.289941	1
H	-0.433113	-1.322096	-0.414979	1
H	-0.394233	-1.133776	1.350281	1
H	-0.649624	1.260224	0.994591	1
H	1.575186	0.264744	1.291351	1
H	1.483696	1.798814	0.424711	1
H	1.810457	-0.944876	-0.900919	1
H	2.991357	0.375394	-0.840279	1
H	0.415576	0.829683	-1.832259	1
Es	1.923438	0.142793	-0.859478	99
Es	1.484443	0.967016	-2.066603	99
Es	1.466850	0.399616	1.003649	99
Es	-0.343397	0.794271	-0.069334	99
Es	-2.541132	-1.365294	0.509320	99
Es	-0.529075	-1.117588	-0.152315	99
Es	-0.452818	0.079967	0.353164	99
Es	-2.280818	-0.670901	0.442124	99
Es	-2.530542	-0.269148	1.023860	99
Es	-0.759436	-0.689868	0.417115	99
Es	1.218989	0.736184	0.368112	99
Es	-2.554435	-0.377505	-0.184042	99
Es	1.361892	0.697352	-2.046896	99
Es	1.400664	1.461113	0.409022	99
Es	0.862723	0.764849	-1.924773	99
Es	1.562200	0.428320	-0.235148	99
Es	2.653522	0.302723	-0.835531	99
Es	0.387778	0.677521	0.329281	99
Es	-0.486501	1.018796	0.716010	99
Es	1.385389	0.493041	-2.268971	99
Es	-0.502300	-0.998954	1.064280	99
Es	-0.250233	0.674034	0.259535	99
Es	-1.523775	-0.676734	0.431688	99
Es	1.562224	0.475832	-1.587734	99
Es	1.843711	-0.611290	-0.874002	99
42
Properties=species:S:1:pos:R:3:Z:I:1 energy=-287.2775227340165 field_type=dipole dipole="0.000000 0.000000 0.000000" charge=0
C	-2.280843	-0.670896	0.442111	6
C	-0.759444	-0.690006	0.417131	6
N	-0.250423	0.674263	0.259031	7
C	1.219126	0.736214	0.368141	6
C	1.923557	0.142684	-0.859339	6
O	1.362087	0.697464	-2.047239	8
H	-2.668933	-1.690386	0.536751	1
H	-2.687583	-0.239486	-0.479029	1
H	-2.656843	-0.087956	1.289941	1
H	-0.433113	-1.322096	-0.414979	1
H	-0.394233	-1.133776	1.350281	1
H	-0.649624	1.260224	0.994591	1
H	1.575186	0.264744	1.291351	1
H	1.483696	1.798814	0.424711	1
H	1.810457	-0.944876	-0.900919	1
H	2.991357	0.375394	-0.840279	1
H	0.415576	0.829683	-1.832259	1
Es	-1.523772	-0.676855	0.431698	99
Es	1.562283	0.428231	-0.235116	99
Es	1.385805	0.493678	-2.268619	99
Es	-0.502363	-0.998926	1.064281	99
Es	0.387670	0.677705	0.329232	99
Es	-2.554219	-0.377478	-0.183957	99
Es	1.563063	0.476180	-1.587154	99
Es	1.218988	0.736184	0.368111	99
Es	1.361920	0.697393	-2.046930	99
Es	1.400717	1.461127	0.409111	99
Es	-0.250221	0.674023	0.259567	99
Es	0.862481	0.763950	-1.925309	99
Es	-0.529088	-1.117671	-0.152325	99
Es	-0.759436	-0.689868	0.417115	99
Es	-0.452467	0.080068	0.353586	99
Es	-0.343307	0.793598	-0.069447	99
Es	-2.280819	-0.670901	0.442123	99
Es	-0.486872	1.019249	0.715682	99
Es	1.843761	-0.611329	-0.874036	99
Es	2.653479	0.302762	-0.835525	99
Es	-2.530524	-0.268995	1.023887	99
Es	1.923438	0.142793	-0.859479	99
Es	-2.541313	-1.365347	0.509222	99
Es	1.483396	0.966909	-2.066942	99
Es	1.466758	0.399665	1.003557	99
42
Properties=species:S:1:pos:R:3:Z:I:1 energy=-287.2775227340165 field_type=dipole dipole="0.000000 0.000000 0.000000" charge=0
C	-2.280843	-0.670896	0.442111	6
C	-0.759444	-0.690006	0.417131	6
N	-0.250423	0.674263	0.259031	7
C	1.219126	0.736214	0.368141	6
C	1.923557	0.142684	-0.859339	6
O	1.362087	0.697464	-2.047239	8
H	-2.668933	-1.690386	0.536751	1
H	-2.687583	-0.239486	-0.479029	1
H	-2.656843	-0.087956	1.289941	1
H	-0.433113	-1.322096	-0.414979	1
H	-0.394233	-1.133776	1.350281	1
H	-0.649624	1.260224	0.994591	1
H	1.575186	0.264744	1.291351	1
H	1.483696	1.798814	0.424711	1
H	1.810457	-0.944876	-0.900919	1
H	2.991357	0.375394	-0.840279	1
H	0.415576	0.829683	-1.832259	1
Es	1.923437	0.142793	-0.859479	99
Es	-2.530626	-0.269081	1.023877	99
Es	1.484223	0.966072	-2.067153	99
Es	1.218988	0.736184	0.368111	99
Es	-2.280819	-0.670901	0.442123	99
Es	-0.529029	-1.117646	-0.152400	99
Es	-0.486823	1.019141	0.715755	99
Es	-0.343295	0.793768	-0.069095	99
Es	2.653451	0.302773	-0.835508	99
Es	1.466782	0.399650	1.003566	99
Es	-0.502451	-0.998979	1.064322	99
Es	1.385278	0.493866	-2.268190	99
Es	-2.541197	-1.365277	0.509227	99
Es	-0.452583	0.079846	0.353474	99
Es	1.843804	-0.611322	-0.874059	99
Es	0.387731	0.677874	0.329102	99
Es	1.361904	0.697289	-2.046960	99
Es	0.862456	0.765315	-1.925342	99
Es	-2.554326	-0.377547	-0.183967	99
Es	1.562250	0.428179	-0.235126	99
Es	1.400697	1.461151	0.409093	99
Es	-0.250232	0.674031	0.259537	99
Es	1.562778	0.475605	-1.587326	99
Es	-1.523603	-0.676769	0.431637	99
Es	-0.759436	-0.689869	0.417114	99
42
Properties=species:S:1:pos:R:3:Z:I:1 energy=-287.2775227340165 field_type=dipole dipole="0.000000 0.000000 0.000000" charge=0
C	-2.280843	-0.670896	0.442111	6
C	-0.759444	-0.690006	0.417131	6
N	-0.250423	0.674263	0.259031	7
C	1.219126	0.736214	0.368141	6
C	1.923557	0.142684	-0.859339	6
O	1.362087	0.697464	-2.047239	8
H	-2.668933	-1.690386	0.536751	1
H	-2.687583	-0.239486	-0.479029	1
H	-2.656843	-0.087956	1.289941	1
H	-0.433113	-1.322096	-0.414979	1
H	-0.394233	-1.133776	1.350281	1
H	-0.649624	1.260224	0.994591	1
H	1.575186	0.264744	1.291351	1
H	1.483696	1.798814	0.424711	1
H	1.810457	-0.944876	-0.900919	1
H	2.991357	0.375394	-0.840279	1
H	0.415576	0.829683	-1.832259	1
Es	-0.502283	-0.998921	1.064252	99
Es	1.923437	0.142792	-0.859479	99
Es	1.484395	0.966688	-2.067855	99
Es	1.361897	0.697492	-2.046923	99
Es	-2.541195	-1.365227	0.509263	99
Es	-2.280818	-0.670900	0.442123	99
Es	2.653439	0.302787	-0.835493	99
Es	-0.250249	0.674047	0.259495	99
Es	0.387704	0.677526	0.329432	99
Es	1.466920	0.399586	1.003619	99
Es	1.384481	0.493388	-2.267980	99
Es	-0.759436	-0.689869	0.417115	99
Es	-0.529075	-1.117619	-0.152322	99
Es	-0.487110	1.019623	0.715430	99
Es	-0.452628	0.080079	0.353570	99
Es	1.218988	0.736184	0.368111	99
Es	1.843842	-0.611313	-0.874056	99
Es	-1.523838	-0.676887	0.431708	99
Es	1.400655	1.461091	0.409036	99
Es	-2.530562	-0.268995	1.023954	99
Es	-0.342933	0.793290	-0.069267	99
Es	0.862822	0.764988	-1.924586	99
Es	-2.554305	-0.377564	-0.184049	99
Es	1.562133	0.428327	-0.235117	99
Es	1.563079	0.475553	-1.587644	99
