39
Properties=species:S:1:pos:R:3:Z:I:1 energy=-286.0629367450184 field_type=dipole dipole="0.000000 0.000000 0.000000" charge=0
C	-0.616235	-2.274364	-0.579593	6
O	-1.007205	-1.027314	-0.021803	8
C	0.109395	-0.143764	0.203117	6
C	0.408025	0.837196	-0.895093	6
C	-0.250645	1.312646	0.365217	6
N	0.497015	2.170536	1.286977	7
H	-1.512525	-2.880604	-0.735483	1
H	0.051975	-2.803124	0.106807	1
H	-0.121455	-2.122334	-1.543623	1
H	0.941755	-0.518094	0.790617	1
H	-0.198675	0.801406	-1.792363	1
H	1.442575	1.102536	-1.073153	1
H	-1.307215	1.562576	0.287717	1
H	1.466625	1.871716	1.377277	1
H	0.096585	2.110986	2.223387	1
Es	-0.616291	-2.274165	-0.579501	99
Es	-0.822930	-1.490596	-0.236981	99
Es	-0.270059	-2.173583	-1.241508	99
Es	1.111715	1.018830	-1.005425	99
Es	-0.002169	0.806672	-1.495533	99
Es	1.074876	1.961324	1.339908	99
Es	-1.174252	-0.883947	-0.235109	99
Es	-1.118527	-1.093328	0.256418	99
Es	-0.961320	1.477591	0.317227	99
Es	0.109210	-0.143781	0.202978	99
Es	0.678298	-0.405681	0.601865	99
Es	0.407976	0.837160	-0.894941	99
Es	0.347295	0.208864	-0.461087	99
Es	-0.138827	0.529937	0.460356	99
Es	-0.555299	-0.719812	0.050773	99
Es	-1.225877	-2.687359	-0.685509	99
Es	0.085330	1.243666	-0.339083	99
Es	-0.149371	-2.638885	-0.110497	99
Es	0.187086	1.765392	0.900740	99
Es	0.497025	2.169960	1.287155	99
Es	0.255286	2.108211	1.849476	99
Es	0.487554	2.497961	1.175323	99
Es	-1.006883	-1.027377	-0.021908	99
Es	-0.250456	1.312613	0.365227	99
39
Properties=species:S:1:pos:R:3:Z:I:1 energy=-286.0629367450184 field_type=dipole dipole="0.000000 0.000000 0.000000" charge=0
C	-0.616235	-2.274364	-0.579593	6
O	-1.007205	-1.027314	-0.021803	8
C	0.109395	-0.143764	0.203117	6
C	0.408025	0.837196	-0.895093	6
C	-0.250645	1.312646	0.365217	6
N	0.497015	2.170536	1.286977	7
H	-1.512525	-2.880604	-0.735483	1
H	0.051975	-2.803124	0.106807	1
H	-0.121455	-2.122334	-1.543623	1
H	0.941755	-0.518094	0.790617	1
H	-0.198675	0.801406	-1.792363	1
H	1.442575	1.102536	-1.073153	1
H	-1.307215	1.562576	0.287717	1
H	1.466625	1.871716	1.377277	1
H	0.096585	2.110986	2.223387	1
Es	1.073756	1.960848	1.340165	99
Es	0.407977	0.837154	-0.894939	99
Es	-0.822928	-1.491477	-0.237561	99
Es	-0.960942	1.477613	0.317188	99
Es	-1.006883	-1.027405	-0.021891	99
Es	-0.269934	-2.173753	-1.241906	99
Es	0.347750	0.208039	-0.461507	99
Es	-0.616288	-2.274166	-0.579504	99
Es	-0.001609	0.806588	-1.495358	99
Es	-0.139113	0.530058	0.461245	99
Es	0.254976	2.108708	1.850019	99
Es	0.187563	1.764608	0.901632	99
Es	0.488140	2.498682	1.173676	99
Es	0.497028	2.169958	1.287158	99
Es	-1.121643	-1.091551	0.257534	99
Es	0.085089	1.244837	-0.338930	99
Es	-1.225436	-2.687195	-0.685276	99
Es	0.678062	-0.405796	0.601209	99
Es	-0.555988	-0.719499	0.049867	99
Es	1.111210	1.018595	-1.005531	99
Es	-0.250458	1.312600	0.365230	99
Es	0.109214	-0.143779	0.202972	99
Es	-0.149760	-2.639034	-0.110557	99
Es	-1.170396	-0.884963	-0.234568	99
39
Properties=species:S:1:pos:R:3:Z:I:1 energy=-286.0629367450184 field_type=dipole dipole="0.000000 0.000000 0.000000" charge=0
C	-0.616235	-2.274364	-0.579593	6
O	-1.007205	-1.027314	-0.021803	8
C	0.109395	-0.143764	0.203117	6
C	0.408025	0.837196	-0.895093	6
C	-0.250645	1.312646	0.365217	6
N	0.497015	2.170536	1.286977	7
H	-1.512525	-2.880604	-0.735483	1
H	0.051975	-2.803124	0.106807	1
H	-0.121455	-2.122334	-1.543623	1
H	0.941755	-0.518094	0.790617	1
H	-0.198675	0.801406	-1.792363	1
H	1.442575	1.102536	-1.073153	1
H	-1.307215	1.562576	0.287717	1
H	1.466625	1.871716	1.377277	1
H	0.096585	2.110986	2.223387	1
Es	-0.556330	-0.720217	0.050785	99
Es	-0.150023	-2.639085	-0.110556	99
Es	1.110913	1.018357	-1.005828	99
Es	-0.616291	-2.274166	-0.579502	99
Es	-0.139227	0.530419	0.461632	99
Es	-1.125348	-1.090072	0.257601	99
Es	0.677874	-0.405752	0.600907	99
Es	-0.822630	-1.491981	-0.237353	99
Es	0.084842	1.245613	-0.338769	99
Es	-0.250451	1.312609	0.365215	99
Es	0.255057	2.108418	1.850186	99
Es	-0.269862	-2.173905	-1.242229	99
Es	1.072729	1.959839	1.340241	99
Es	-0.001229	0.806441	-1.494996	99
Es	0.348097	0.207286	-0.461803	99
Es	0.497023	2.169978	1.287135	99
Es	-0.960803	1.477525	0.317189	99
Es	-1.006814	-1.027430	-0.021844	99
Es	-1.225126	-2.687082	-0.685042	99
Es	-1.166671	-0.885152	-0.235701	99
Es	0.109213	-0.143780	0.202975	99
Es	0.488770	2.500036	1.172793	99
Es	0.407977	0.837161	-0.894934	99
Es	0.187698	1.764609	0.902267	99
39
Properties=species:S:1:pos:R:3:Z:I:1 energy=-286.0629367450184 field_type=dipole dipole="0.000000 0.000000 0.000000" charge=0
C	-0.616235	-2.274364	-0.579593	6
O	-1.007205	-1.027314	-0.021803	8
C	0.109395	-0.143764	0.203117	6
C	0.408025	0.837196	-0.895093	6
C	-0.250645	1.312646	0.365217	6
N	0.497015	2.170536	1.286977	7
H	-1.512525	-2.880604	-0.735483	1
H	0.051975	-2.803124	0.106807	1
H	-0.121455	-2.122334	-1.543623	1
H	0.941755	-0.518094	0.790617	1
H	-0.198675	0.801406	-1.792363	1
H	1.442575	1.102536	-1.073153	1
H	-1.307215	1.562576	0.287717	1
H	1.466625	1.871716	1.377277	1
H	0.096585	2.110986	2.223387	1
Es	0.254617	2.109385	1.850268	99
Es	-0.822831	-1.492863	-0.237083	99
Es	0.489647	2.500292	1.171542	99
Es	0.348154	0.207051	-0.461882	99
Es	0.187996	1.764113	0.902821	99
Es	-0.000951	0.806423	-1.495023	99
Es	-0.250456	1.312607	0.365228	99
Es	-0.150247	-2.639294	-0.110432	99
Es	-1.006820	-1.027359	-0.022029	99
Es	-0.139298	0.530348	0.461807	99
Es	-0.269768	-2.173979	-1.242352	99
Es	-1.128026	-1.088063	0.258487	99
Es	1.071894	1.959156	1.340898	99
Es	0.109211	-0.143778	0.202978	99
Es	-1.163460	-0.886395	-0.235521	99
Es	0.677892	-0.405817	0.600673	99
Es	-0.556648	-0.720123	0.049660	99
Es	1.110625	1.018211	-1.005766	99
Es	-0.616290	-2.274169	-0.579503	99
Es	0.407975	0.837163	-0.894936	99
Es	-0.960667	1.477534	0.317113	99
Es	-1.224899	-2.686848	-0.685086	99
Es	0.497031	2.169960	1.287156	99
Es	0.084707	1.246115	-0.338650	99
39
Properties=species:S:1:pos:R:3:Z:I:1 energy=-286.0629367450184 field_type=dipole dipole="0.000000 0.000000 0.000000" charge=0
C	-0.616235	-2.274364	-0.579593	6
O	-1.007205	-1.027314	-0.021803	8
C	0.109395	-0.143764	0.203117	6
C	0.408025	0.837196	-0.895093	6
C	-0.250645	1.312646	0.365217	6
N	0.497015	2.170536	1.286977	7
H	-1.512525	-2.880604	-0.735483	1
H	0.051975	-2.803124	0.106807	1
H	-0.121455	-2.122334	-1.543623	1
H	0.941755	-0.518094	0.790617	1
H	-0.198675	0.801406	-1.792363	1
H	1.442575	1.102536	-1.073153	1
H	-1.307215	1.562576	0.287717	1
H	1.466625	1.871716	1.377277	1
H	0.096585	2.110986	2.223387	1
Es	1.071622	1.959095	1.340529	99
Es	-1.006846	-1.027433	-0.021835	99
Es	1.110395	1.018071	-1.005819	99
Es	0.348394	0.206690	-0.462114	99
Es	-0.000653	0.806352	-1.494896	99
Es	-0.139382	0.530532	0.462048	99
Es	0.497029	2.169970	1.287151	99
Es	-0.150309	-2.639217	-0.110545	99
Es	-0.269829	-2.174134	-1.242559	99
Es	0.188149	1.764135	0.903086	99
Es	-1.165678	-0.885903	-0.233893	99
Es	-1.125531	-1.089474	0.258545	99
Es	-0.557347	-0.719531	0.049364	99
Es	0.489455	2.500955	1.171426	99
Es	0.084428	1.246600	-0.338538	99
Es	0.407975	0.837168	-0.894939	99
Es	0.254907	2.108719	1.850469	99
Es	0.677774	-0.405822	0.600422	99
Es	-0.822301	-1.492397	-0.238673	99
Es	-0.960586	1.477506	0.317255	99
Es	-0.616289	-2.274168	-0.579505	99
Es	-0.250454	1.312606	0.365224	99
Es	-1.224749	-2.686876	-0.684811	99
Es	0.109214	-0.143773	0.202976	99
39
Properties=species:S:1:pos:R:3:Z:I:1 energy=-286.0629367450184 field_type=dipole dipole="0.000000 0.000000 0.000000" charge=0
C	-0.616235	-2.274364	-0.579593	6
O	-1.007205	-1.027314	-0.021803	8
C	0.109395	-0.143764	0.203117	6
C	0.408025	0.837196	-0.895093	6
C	-0.250645	1.312646	0.365217	6
N	0.497015	2.170536	1.286977	7
H	-1.512525	-2.880604	-0.735483	1
H	0.051975	-2.803124	0.106807	1
H	-0.121455	-2.122334	-1.543623	1
H	0.941755	-0.518094	0.790617	1
H	-0.198675	0.801406	-1.792363	1
H	1.442575	1.102536	-1.073153	1
H	-1.307215	1.562576	0.287717	1
H	1.466625	1.871716	1.377277	1
H	0.096585	2.110986	2.223387	1
Es	0.084468	1.246761	-0.338491	99
Es	0.254620	2.109248	1.850718	99
Es	0.497029	2.169971	1.287162	99
Es	-0.000598	0.806456	-1.494734	99
Es	-1.006843	-1.027385	-0.021891	99
Es	-0.616290	-2.274168	-0.579502	99
Es	0.489798	2.500870	1.170650	99
Es	-0.250455	1.312601	0.365226	99
Es	0.109211	-0.143776	0.202978	99
Es	-0.960450	1.477457	0.317271	99
Es	0.348571	0.206169	-0.462254	99
Es	-0.269823	-2.174178	-1.242676	99
Es	0.677680	-0.405772	0.600377	99
Es	0.188422	1.763830	0.903379	99
Es	1.110271	1.017973	-1.005952	99
Es	-1.124174	-1.089105	0.259449	99
Es	1.071200	1.959003	1.340746	99
Es	0.407977	0.837160	-0.894940	99
Es	-0.150406	-2.639255	-0.110581	99
Es	-1.166481	-0.885683	-0.233274	99
Es	-1.224612	-2.686827	-0.684733	99
Es	-0.822691	-1.492732	-0.238732	99
Es	-0.557460	-0.719826	0.048022	99
Es	-0.139577	0.530876	0.462152	99
39
Properties=species:S:1:pos:R:3:Z:I:1 energy=-286.0629367450184 field_type=dipole dipole="0.000000 0.000000 0.000000" charge=0
C	-0.616235	-2.274364	-0.579593	6
O	-1.007205	-1.027314	-0.021803	8
C	0.109395	-0.143764	0.203117	6
C	0.408025	0.837196	-0.895093	6
C	-0.250645	1.312646	0.365217	6
N	0.497015	2.170536	1.286977	7
H	-1.512525	-2.880604	-0.735483	1
H	0.051975	-2.803124	0.106807	1
H	-0.121455	-2.122334	-1.543623	1
H	0.941755	-0.518094	0.790617	1
H	-0.198675	0.801406	-1.792363	1
H	1.442575	1.102536	-1.073153	1
H	-1.307215	1.562576	0.287717	1
H	1.466625	1.871716	1.377277	1
H	0.096585	2.110986	2.223387	1
Es	-1.127171	-1.087456	0.259480	99
Es	-0.150469	-2.639415	-0.110475	99
Es	0.677560	-0.405769	0.600403	99
Es	-0.269845	-2.174209	-1.242744	99
Es	-0.250455	1.312604	0.365224	99
Es	1.110016	1.018030	-1.005989	99
Es	0.348998	0.205770	-0.462391	99
Es	0.109213	-0.143773	0.202975	99
Es	0.084224	1.247039	-0.338236	99
Es	-1.006881	-1.027418	-0.021927	99
Es	0.188497	1.763752	0.903509	99
Es	0.497028	2.169980	1.287145	99
Es	-0.822053	-1.493266	-0.237013	99
Es	1.070854	1.958692	1.340976	99
Es	-1.224481	-2.686649	-0.684772	99
Es	-0.960455	1.477445	0.317225	99
Es	-0.139586	0.531075	0.461985	99
Es	0.490131	2.501193	1.170440	99
Es	0.254550	2.109313	1.850651	99
Es	0.407976	0.837161	-0.894938	99
Es	-1.163731	-0.887171	-0.234880	99
Es	-0.000435	0.806264	-1.494689	99
Es	-0.557808	-0.719352	0.047914	99
Es	-0.616290	-2.274170	-0.579504	99
39
Properties=species:S:1:pos:R:3:Z:I:1 energy=-286.0629367450184 field_type=dipole dipole="0.000000 0.000000 0.000000" charge=0
C	-0.616235	-2.274364	-0.579593	6
O	-1.007205	-1.027314	-0.021803	8
C	0.109395	-0.143764	0.203117	6
C	0.408025	0.837196	-0.895093	6
C	-0.250645	1.312646	0.365217	6
N	0.497015	2.170536	1.286977	7
H	-1.512525	-2.880604	-0.735483	1
H	0.051975	-2.803124	0.106807	1
H	-0.121455	-2.122334	-1.543623	1
H	0.941755	-0.518094	0.790617	1
H	-0.198675	0.801406	-1.792363	1
H	1.442575	1.102536	-1.073153	1
H	-1.307215	1.562576	0.287717	1
H	1.466625	1.871716	1.377277	1
H	0.096585	2.110986	2.223387	1
Es	-0.269735	-2.174258	-1.242835	99
Es	0.348983	0.205767	-0.462405	99
Es	-0.139600	0.530928	0.462317	99
Es	1.109898	1.017906	-1.006049	99
Es	-0.150612	-2.639352	-0.110516	99
Es	-0.000248	0.806161	-1.494591	99
Es	-1.006915	-1.027447	-0.021858	99
Es	-0.250452	1.312613	0.365219	99
Es	-1.120173	-1.090804	0.260736	99
Es	0.254463	2.109465	1.850777	99
Es	0.497026	2.169949	1.287161	99
Es	-0.558243	-0.718557	0.045854	99
Es	0.490121	2.501282	1.169947	99
Es	-0.960406	1.477457	0.317268	99
Es	0.188630	1.763632	0.903813	99
Es	-0.822738	-1.492027	-0.241190	99
Es	-1.169566	-0.885822	-0.229928	99
Es	0.407976	0.837161	-0.894938	99
Es	0.084162	1.247442	-0.338364	99
Es	1.070744	1.958583	1.340948	99
Es	0.677529	-0.405783	0.600216	99
Es	-0.616290	-2.274168	-0.579503	99
Es	-1.224380	-2.686684	-0.684687	99
Es	0.109212	-0.143777	0.202976	99
39
Properties=species:S:1:pos:R:3:Z:I:1 energy=-286.0629367450184 field_type=dipole dipole="0.000000 0.000000 0.000000" charge=0
C	-0.616235	-2.274364	-0.579593	6
O	-1.007205	-1.027314	-0.021803	8
C	0.109395	-0.143764	0.203117	6
C	0.408025	0.837196	-0.895093	6
C	-0.250645	1.312646	0.365217	6
N	0.497015	2.170536	1.286977	7
H	-1.512525	-2.880604	-0.735483	1
H	0.051975	-2.803124	0.106807	1
H	-0.121455	-2.122334	-1.543623	1
H	0.941755	-0.518094	0.790617	1
H	-0.198675	0.801406	-1.792363	1
H	1.442575	1.102536	-1.073153	1
H	-1.307215	1.562576	0.287717	1
H	1.466625	1.871716	1.377277	1
H	0.096585	2.110986	2.223387	1
Es	-1.006902	-1.027405	-0.021851	99
Es	-0.250454	1.312606	0.365221	99
Es	-1.129357	-1.086890	0.259109	99
Es	0.407975	0.837165	-0.894935	99
Es	1.109736	1.017887	-1.005956	99
Es	-0.822079	-1.493446	-0.237605	99
Es	-0.139574	0.531027	0.462158	99
Es	-0.269861	-2.174294	-1.242912	99
Es	0.109217	-0.143775	0.202972	99
Es	-0.150574	-2.639504	-0.110438	99
Es	1.070412	1.958427	1.341060	99
Es	-0.960367	1.477389	0.317310	99
Es	0.254557	2.109354	1.850733	99
Es	0.188719	1.763475	0.903992	99
Es	0.497032	2.169978	1.287151	99
Es	-1.161443	-0.887102	-0.234934	99
Es	0.490248	2.501708	1.169735	99
Es	-0.000190	0.806260	-1.494677	99
Es	-1.224262	-2.686519	-0.684681	99
Es	-0.616288	-2.274166	-0.579502	99
Es	0.677504	-0.405764	0.600223	99
Es	-0.557835	-0.719812	0.048870	99
Es	0.083986	1.247548	-0.338037	99
Es	0.349188	0.205522	-0.462636	99
39
Properties=species:S:1:pos:R:3:Z:I:1 energy=-286.0629367450184 field_type=dipole dipole="0.000000 0.000000 0.000000" charge=0
C	-0.616235	-2.274364	-0.579593	6
O	-1.007205	-1.027314	-0.021803	8
C	0.109395	-0.143764	0.203117	6
C	0.408025	0.837196	-0.895093	6
C	-0.250645	1.312646	0.365217	6
N	0.497015	2.170536	1.286977	7
H	-1.512525	-2.880604	-0.735483	1
H	0.051975	-2.803124	0.106807	1
H	-0.121455	-2.122334	-1.543623	1
H	0.941755	-0.518094	0.790617	1
H	-0.198675	0.801406	-1.792363	1
H	1.442575	1.102536	-1.073153	1
H	-1.307215	1.562576	0.287717	1
H	1.466625	1.871716	1.377277	1
H	0.096585	2.110986	2.223387	1
Es	1.109652	1.017737	-1.006035	99
Es	-0.960303	1.477423	0.317204	99
Es	-0.150732	-2.639513	-0.110376	99
Es	0.349173	0.205288	-0.462495	99
Es	0.084115	1.247738	-0.338109	99
Es	0.407977	0.837168	-0.894939	99
Es	1.070354	1.958192	1.341099	99
Es	-1.164280	-0.886739	-0.232197	99
Es	-0.139684	0.531173	0.462208	99
Es	-0.250454	1.312606	0.365226	99
Es	-1.125670	-1.088187	0.260402	99
Es	0.497041	2.169962	1.287141	99
Es	0.109213	-0.143779	0.202973	99
Es	-1.006902	-1.027397	-0.021924	99
Es	-0.616290	-2.274167	-0.579502	99
Es	0.254479	2.109575	1.850752	99
Es	0.677497	-0.405786	0.600197	99
Es	-0.000120	0.806236	-1.494590	99
Es	0.188690	1.763520	0.904214	99
Es	-0.269750	-2.174366	-1.242974	99
Es	-0.558057	-0.719285	0.046950	99
Es	-1.224197	-2.686462	-0.684652	99
Es	-0.822708	-1.492997	-0.239683	99
Es	0.490344	2.501729	1.169477	99
39
Properties=species:S:1:pos:R:3:Z:I:1 energy=-286.0629367450184 field_type=dipole dipole="0.000000 0.000000 0.000000" charge=0
C	-0.616235	-2.274364	-0.579593	6
O	-1.007205	-1.027314	-0.021803	8
C	0.109395	-0.143764	0.203117	6
C	0.408025	0.837196	-0.895093	6
C	-0.250645	1.312646	0.365217	6
N	0.497015	2.170536	1.286977	7
H	-1.512525	-2.880604	-0.735483	1
H	0.051975	-2.803124	0.106807	1
H	-0.121455	-2.122334	-1.543623	1
H	0.941755	-0.518094	0.790617	1
H	-0.198675	0.801406	-1.792363	1
H	1.442575	1.102536	-1.073153	1
H	-1.307215	1.562576	0.287717	1
H	1.466625	1.871716	1.377277	1
H	0.096585	2.110986	2.223387	1
Es	-0.150686	-2.639503	-0.110437	99
Es	-0.139658	0.531104	0.462434	99
Es	-0.269845	-2.174390	-1.243056	99
Es	1.109602	1.017534	-1.006092	99
Es	0.677383	-0.405786	0.600019	99
Es	0.497021	2.169956	1.287151	99
Es	0.084143	1.248129	-0.338293	99
Es	0.109210	-0.143781	0.202977	99
Es	-0.558376	-0.719003	0.047506	99
Es	-0.822036	-1.492774	-0.239690	99
Es	0.254420	2.109568	1.850792	99
Es	-1.164853	-0.886781	-0.232049	99
Es	-1.224131	-2.686464	-0.684552	99
Es	0.490394	2.501852	1.169245	99
Es	-1.006838	-1.027316	-0.022138	99
Es	0.407975	0.837160	-0.894934	99
Es	-0.000015	0.806211	-1.494514	99
Es	-1.125487	-1.088706	0.259974	99
Es	0.188856	1.763363	0.904345	99
Es	0.349104	0.205256	-0.462485	99
Es	-0.616290	-2.274168	-0.579503	99
Es	-0.250453	1.312605	0.365225	99
Es	-0.960277	1.477416	0.317293	99
Es	1.070225	1.958187	1.341151	99
39
Properties=species:S:1:pos:R:3:Z:I:1 energy=-286.0629367450184 field_type=dipole dipole="0.000000 0.000000 0.000000" charge=0
C	-0.616235	-2.274364	-0.579593	6
O	-1.007205	-1.027314	-0.021803	8
C	0.109395	-0.143764	0.203117	6
C	0.408025	0.837196	-0.895093	6
C	-0.250645	1.312646	0.365217	6
N	0.497015	2.170536	1.286977	7
H	-1.512525	-2.880604	-0.735483	1
H	0.051975	-2.803124	0.106807	1
H	-0.121455	-2.122334	-1.543623	1
H	0.941755	-0.518094	0.790617	1
H	-0.198675	0.801406	-1.792363	1
H	1.442575	1.102536	-1.073153	1
H	-1.307215	1.562576	0.287717	1
H	1.466625	1.871716	1.377277	1
H	0.096585	2.110986	2.223387	1
Es	-0.558081	-0.720256	0.048737	99
Es	-0.616290	-2.274168	-0.579502	99
Es	-0.822071	-1.493926	-0.237346	99
Es	-1.006925	-1.027396	-0.021862	99
Es	1.069800	1.957678	1.341302	99
Es	-1.131008	-1.085692	0.259416	99
Es	-0.139736	0.531261	0.462272	99
Es	0.109211	-0.143772	0.202978	99
Es	-0.250455	1.312606	0.365229	99
Es	0.349212	0.205083	-0.462611	99
Es	-0.960292	1.477453	0.317250	99
Es	0.084049	1.247967	-0.337919	99
Es	-0.269763	-2.174352	-1.242949	99
Es	0.188844	1.763611	0.904211	99
Es	-1.224152	-2.686420	-0.684713	99
Es	0.490967	2.502132	1.169167	99
Es	0.497011	2.169988	1.287134	99
Es	-0.150765	-2.639602	-0.110441	99
Es	0.000009	0.806297	-1.494661	99
Es	1.109447	1.017551	-1.005962	99
Es	0.677508	-0.405790	0.600088	99
Es	0.407977	0.837160	-0.894940	99
Es	-1.159438	-0.887317	-0.235310	99
Es	0.254331	2.109573	1.850803	99
39
Properties=species:S:1:pos:R:3:Z:I:1 energy=-286.0629367450184 field_type=dipole dipole="0.000000 0.000000 0.000000" charge=0
C	-0.616235	-2.274364	-0.579593	6
O	-1.007205	-1.027314	-0.021803	8
C	0.109395	-0.143764	0.203117	6
C	0.408025	0.837196	-0.895093	6
C	-0.250645	1.312646	0.365217	6
N	0.497015	2.170536	1.286977	7
H	-1.512525	-2.880604	-0.735483	1
H	0.051975	-2.803124	0.106807	1
H	-0.121455	-2.122334	-1.543623	1
H	0.941755	-0.518094	0.790617	1
H	-0.198675	0.801406	-1.792363	1
H	1.442575	1.102536	-1.073153	1
H	-1.307215	1.562576	0.287717	1
H	1.466625	1.871716	1.377277	1
H	0.096585	2.110986	2.223387	1
Es	0.083907	1.248120	-0.338032	99
Es	-1.223972	-2.686356	-0.684592	99
Es	-1.125410	-1.088220	0.260585	99
Es	-0.822489	-1.493047	-0.239923	99
Es	1.109441	1.017674	-1.006104	99
Es	-1.006911	-1.027397	-0.021885	99
Es	-0.558460	-0.719041	0.046654	99
Es	-0.616290	-2.274169	-0.579503	99
Es	0.497023	2.169974	1.287145	99
Es	-0.269923	-2.174371	-1.243104	99
Es	0.188905	1.763459	0.904404	99
Es	0.407976	0.837163	-0.894939	99
Es	0.349369	0.205033	-0.462645	99
Es	0.254357	2.109549	1.850852	99
Es	1.069837	1.957826	1.341245	99
Es	0.490750	2.502159	1.169001	99
Es	-0.250455	1.312606	0.365227	99
Es	-0.150676	-2.639632	-0.110413	99
Es	0.000099	0.806095	-1.494469	99
Es	0.677417	-0.405797	0.599885	99
Es	-1.164361	-0.886902	-0.231782	99
Es	-0.139669	0.531339	0.462490	99
Es	-0.960289	1.477382	0.317294	99
Es	0.109212	-0.143778	0.202975	99
39
Properties=species:S:1:pos:R:3:Z:I:1 energy=-286.0629367450184 field_type=dipole dipole="0.000000 0.000000 0.000000" charge=0
C	-0.616235	-2.274364	-0.579593	6
O	-1.007205	-1.027314	-0.021803	8
C	0.109395	-0.143764	0.203117	6
C	0.408025	0.837196	-0.895093	6
C	-0.250645	1.312646	0.365217	6
N	0.497015	2.170536	1.286977	7
H	-1.512525	-2.880604	-0.735483	1
H	0.051975	-2.803124	0.106807	1
H	-0.121455	-2.122334	-1.543623	1
H	0.941755	-0.518094	0.790617	1
H	-0.198675	0.801406	-1.792363	1
H	1.442575	1.102536	-1.073153	1
H	-1.307215	1.562576	0.287717	1
H	1.466625	1.871716	1.377277	1
H	0.096585	2.110986	2.223387	1
Es	0.000193	0.806131	-1.494597	99
Es	0.254311	2.109709	1.850893	99
Es	-1.223974	-2.686324	-0.684538	99
Es	0.109210	-0.143774	0.202980	99
Es	-0.269892	-2.174493	-1.243115	99
Es	0.407976	0.837160	-0.894938	99
Es	-0.250454	1.312597	0.365224	99
Es	0.188809	1.763415	0.904362	99
Es	0.349350	0.204989	-0.462617	99
Es	1.109337	1.017540	-1.005978	99
Es	-1.128082	-1.086837	0.259795	99
Es	1.069721	1.957750	1.341302	99
Es	0.084054	1.248228	-0.338053	99
Es	-1.162123	-0.887535	-0.233293	99
Es	0.497018	2.169966	1.287140	99
Es	-0.558421	-0.719114	0.047439	99
Es	-0.822034	-1.493608	-0.238535	99
Es	0.490951	2.502096	1.168952	99
Es	-1.006880	-1.027391	-0.021861	99
Es	-0.960224	1.477461	0.317197	99
Es	0.677410	-0.405836	0.599898	99
Es	-0.150758	-2.639627	-0.110395	99
Es	-0.616289	-2.274167	-0.579503	99
Es	-0.139821	0.531334	0.462608	99
39
Properties=species:S:1:pos:R:3:Z:I:1 energy=-286.0629367450184 field_type=dipole dipole="0.000000 0.000000 0.000000" charge=0
C	-0.616235	-2.274364	-0.579593	6
O	-1.007205	-1.027314	-0.021803	8
C	0.109395	-0.143764	0.203117	6
C	0.408025	0.837196	-0.895093	6
C	-0.250645	1.312646	0.365217	6
N	0.497015	2.170536	1.286977	7
H	-1.512525	-2.880604	-0.735483	1
H	0.051975	-2.803124	0.106807	1
H	-0.121455	-2.122334	-1.543623	1
H	0.941755	-0.518094	0.790617	1
H	-0.198675	0.801406	-1.792363	1
H	1.442575	1.102536	-1.073153	1
H	-1.307215	1.562576	0.287717	1
H	1.466625	1.871716	1.377277	1
H	0.096585	2.110986	2.223387	1
Es	-0.250455	1.312603	0.365229	99
Es	1.109289	1.017550	-1.005965	99
Es	-0.558631	-0.719281	0.046505	99
Es	-0.616290	-2.274167	-0.579502	99
Es	-0.822168	-1.493632	-0.238689	99
Es	0.254322	2.109794	1.850912	99
Es	-1.223944	-2.686329	-0.684635	99
Es	0.407976	0.837160	-0.894938	99
Es	1.069760	1.957894	1.341304	99
Es	0.497022	2.169996	1.287133	99
Es	-1.126788	-1.086933	0.260535	99
Es	-0.269712	-2.174456	-1.243083	99
Es	-1.163128	-0.887322	-0.232846	99
Es	-0.960285	1.477400	0.317178	99
Es	0.084006	1.248214	-0.338020	99
Es	0.188892	1.763315	0.904478	99
Es	0.490828	2.501997	1.168864	99
Es	0.000252	0.806169	-1.494578	99
Es	0.109212	-0.143776	0.202976	99
Es	0.349399	0.204881	-0.462634	99
Es	-1.006865	-1.027381	-0.021916	99
Es	-0.150904	-2.639635	-0.110378	99
Es	0.677350	-0.405790	0.599828	99
Es	-0.139751	0.531397	0.462611	99
39
Properties=species:S:1:pos:R:3:Z:I:1 energy=-286.0629367450184 field_type=dipole dipole="0.000000 0.000000 0.000000" charge=0
C	-0.616235	-2.274364	-0.579593	6
O	-1.007205	-1.027314	-0.021803	8
C	0.109395	-0.143764	0.203117	6
C	0.408025	0.837196	-0.895093	6
C	-0.250645	1.312646	0.365217	6
N	0.497015	2.170536	1.286977	7
H	-1.512525	-2.880604	-0.735483	1
H	0.051975	-2.803124	0.106807	1
H	-0.121455	-2.122334	-1.543623	1
H	0.941755	-0.518094	0.790617	1
H	-0.198675	0.801406	-1.792363	1
H	1.442575	1.102536	-1.073153	1
H	-1.307215	1.562576	0.287717	1
H	1.466625	1.871716	1.377277	1
H	0.096585	2.110986	2.223387	1
Es	0.497028	2.169970	1.287147	99
Es	1.109268	1.017520	-1.006017	99
Es	-0.558511	-0.720117	0.048533	99
Es	0.349260	0.204840	-0.462531	99
Es	0.109214	-0.143781	0.202972	99
Es	-1.006819	-1.027457	-0.021846	99
Es	-1.131846	-1.084870	0.259340	99
Es	1.069620	1.957748	1.341310	99
Es	0.490997	2.502179	1.168976	99
Es	-0.616290	-2.274167	-0.579502	99
Es	-1.158499	-0.887737	-0.234941	99
Es	0.000226	0.806147	-1.494540	99
Es	0.084010	1.248318	-0.337999	99
Es	-0.821874	-1.494344	-0.237426	99
Es	0.677479	-0.405806	0.599863	99
Es	-0.139819	0.531303	0.462501	99
Es	-0.250456	1.312607	0.365230	99
Es	0.407976	0.837163	-0.894938	99
Es	-1.223833	-2.686234	-0.684525	99
Es	-0.960195	1.477456	0.317070	99
Es	-0.150763	-2.639715	-0.110372	99
Es	0.188782	1.763463	0.904370	99
Es	0.254388	2.109676	1.850891	99
Es	-0.269955	-2.174493	-1.243196	99
39
Properties=species:S:1:pos:R:3:Z:I:1 energy=-286.0629367450184 field_type=dipole dipole="0.000000 0.000000 0.000000" charge=0
C	-0.616235	-2.274364	-0.579593	6
O	-1.007205	-1.027314	-0.021803	8
C	0.109395	-0.143764	0.203117	6
C	0.408025	0.837196	-0.895093	6
C	-0.250645	1.312646	0.365217	6
N	0.497015	2.170536	1.286977	7
H	-1.512525	-2.880604	-0.735483	1
H	0.051975	-2.803124	0.106807	1
H	-0.121455	-2.122334	-1.543623	1
H	0.941755	-0.518094	0.790617	1
H	-0.198675	0.801406	-1.792363	1
H	1.442575	1.102536	-1.073153	1
H	-1.307215	1.562576	0.287717	1
H	1.466625	1.871716	1.377277	1
H	0.096585	2.110986	2.223387	1
Es	0.497021	2.170033	1.287122	99
Es	-0.960179	1.477372	0.317239	99
Es	-0.250455	1.312606	0.365227	99
Es	0.109212	-0.143777	0.202976	99
Es	0.188938	1.763362	0.904544	99
Es	-0.269777	-2.174471	-1.243143	99
Es	0.083898	1.248452	-0.338030	99
Es	-0.150887	-2.639658	-0.110395	99
Es	-0.822218	-1.493504	-0.239394	99
Es	0.407976	0.837163	-0.894938	99
Es	1.109241	1.017512	-1.006111	99
Es	0.349443	0.204721	-0.462726	99
Es	0.254342	2.109574	1.850948	99
Es	0.000310	0.806084	-1.494395	99
Es	-1.163490	-0.887034	-0.232260	99
Es	0.490868	2.502237	1.168797	99
Es	-0.139781	0.531480	0.462661	99
Es	-0.616290	-2.274168	-0.579503	99
Es	-0.558729	-0.719207	0.046720	99
Es	-1.223891	-2.686299	-0.684578	99
Es	0.677380	-0.405819	0.599763	99
Es	1.069589	1.957784	1.341264	99
Es	-1.126272	-1.087350	0.260425	99
Es	-1.006860	-1.027424	-0.021849	99
39
Properties=species:S:1:pos:R:3:Z:I:1 energy=-286.0629367450184 field_type=dipole dipole="0.000000 0.000000 0.000000" charge=0
C	-0.616235	-2.274364	-0.579593	6
O	-1.007205	-1.027314	-0.021803	8
C	0.109395	-0.143764	0.203117	6
C	0.408025	0.837196	-0.895093	6
C	-0.250645	1.312646	0.365217	6
N	0.497015	2.170536	1.286977	7
H	-1.512525	-2.880604	-0.735483	1
H	0.051975	-2.803124	0.106807	1
H	-0.121455	-2.122334	-1.543623	1
H	0.941755	-0.518094	0.790617	1
H	-0.198675	0.801406	-1.792363	1
H	1.442575	1.102536	-1.073153	1
H	-1.307215	1.562576	0.287717	1
H	1.466625	1.871716	1.377277	1
H	0.096585	2.110986	2.223387	1
Es	0.349429	0.204885	-0.462776	99
Es	-1.223836	-2.686288	-0.684564	99
Es	1.069325	1.957487	1.341439	99
Es	0.497037	2.169976	1.287144	99
Es	0.000327	0.806099	-1.494376	99
Es	-0.250455	1.312608	0.365226	99
Es	0.407976	0.837162	-0.894939	99
Es	-1.006810	-1.027420	-0.021837	99
Es	0.254226	2.110142	1.851026	99
Es	-1.162213	-0.887306	-0.232982	99
Es	0.083880	1.248385	-0.337895	99
Es	0.677417	-0.405833	0.599689	99
Es	-0.822037	-1.493850	-0.238739	99
Es	1.109175	1.017543	-1.006118	99
Es	-1.127639	-1.086432	0.260490	99
Es	-0.269836	-2.174468	-1.243168	99
Es	-0.960179	1.477476	0.317120	99
Es	0.188986	1.763236	0.904749	99
Es	-0.150840	-2.639672	-0.110397	99
Es	-0.558901	-0.719547	0.046689	99
Es	-0.139846	0.531279	0.462747	99
Es	0.491281	2.502152	1.168363	99
Es	-0.616290	-2.274168	-0.579503	99
Es	0.109211	-0.143777	0.202977	99
39
Properties=species:S:1:pos:R:3:Z:I:1 energy=-286.0629367450184 field_type=dipole dipole="0.000000 0.000000 0.000000" charge=0
C	-0.616235	-2.274364	-0.579593	6
O	-1.007205	-1.027314	-0.021803	8
C	0.109395	-0.143764	0.203117	6
C	0.408025	0.837196	-0.895093	6
C	-0.250645	1.312646	0.365217	6
N	0.497015	2.170536	1.286977	7
H	-1.512525	-2.880604	-0.735483	1
H	0.051975	-2.803124	0.106807	1
H	-0.121455	-2.122334	-1.543623	1
H	0.941755	-0.518094	0.790617	1
H	-0.198675	0.801406	-1.792363	1
H	1.442575	1.102536	-1.073153	1
H	-1.307215	1.562576	0.287717	1
H	1.466625	1.871716	1.377277	1
H	0.096585	2.110986	2.223387	1
Es	1.109186	1.017498	-1.006085	99
Es	0.407976	0.837161	-0.894938	99
Es	0.677290	-0.405806	0.599770	99
Es	-0.150847	-2.639703	-0.110413	99
Es	0.189071	1.763144	0.904620	99
Es	0.349557	0.204661	-0.462798	99
Es	1.069442	1.957720	1.341439	99
Es	-0.269936	-2.174576	-1.243255	99
Es	-1.223819	-2.686216	-0.684442	99
Es	0.497016	2.170024	1.287126	99
Es	0.000298	0.806123	-1.494439	99
Es	-1.127303	-1.086423	0.260361	99
Es	0.254207	2.109788	1.850952	99
Es	-1.006846	-1.027373	-0.021990	99
Es	0.491040	2.502235	1.168548	99
Es	-0.616290	-2.274167	-0.579502	99
Es	-0.250455	1.312605	0.365227	99
Es	-0.558702	-0.719248	0.046554	99
Es	-0.139909	0.531455	0.462679	99
Es	0.109213	-0.143774	0.202975	99
Es	-1.162459	-0.887485	-0.232644	99
Es	-0.960191	1.477460	0.317221	99
Es	-0.822100	-1.493921	-0.238702	99
Es	0.083948	1.248485	-0.337897	99
39
Properties=species:S:1:pos:R:3:Z:I:1 energy=-286.0629367450184 field_type=dipole dipole="0.000000 0.000000 0.000000" charge=0
C	-0.616235	-2.274364	-0.579593	6
O	-1.007205	-1.027314	-0.021803	8
C	0.109395	-0.143764	0.203117	6
C	0.408025	0.837196	-0.895093	6
C	-0.250645	1.312646	0.365217	6
N	0.497015	2.170536	1.286977	7
H	-1.512525	-2.880604	-0.735483	1
H	0.051975	-2.803124	0.106807	1
H	-0.121455	-2.122334	-1.543623	1
H	0.941755	-0.518094	0.790617	1
H	-0.198675	0.801406	-1.792363	1
H	1.442575	1.102536	-1.073153	1
H	-1.307215	1.562576	0.287717	1
H	1.466625	1.871716	1.377277	1
H	0.096585	2.110986	2.223387	1
Es	-1.223800	-2.686326	-0.684456	99
Es	0.109213	-0.143774	0.202976	99
Es	-1.006862	-1.027409	-0.021905	99
Es	-1.161552	-0.886475	-0.232567	99
Es	-1.128141	-1.087311	0.260627	99
Es	-0.269931	-2.174542	-1.243206	99
Es	1.069325	1.957618	1.341456	99
Es	-0.822256	-1.493133	-0.240249	99
Es	0.497020	2.169978	1.287153	99
Es	1.109110	1.017442	-1.006110	99
Es	0.349436	0.204692	-0.462632	99
Es	-0.139651	0.531348	0.462606	99
Es	0.254280	2.109755	1.850925	99
Es	-0.250454	1.312607	0.365228	99
Es	0.083835	1.248755	-0.337904	99
Es	0.189242	1.763024	0.905070	99
Es	-0.960228	1.477356	0.317234	99
Es	0.677406	-0.405869	0.599648	99
Es	0.407976	0.837161	-0.894939	99
Es	0.000351	0.806062	-1.494414	99
Es	0.490894	2.502627	1.168068	99
Es	-0.616290	-2.274168	-0.579503	99
Es	-0.558745	-0.720126	0.047725	99
Es	-0.150791	-2.639623	-0.110465	99
