39
Properties=species:S:1:pos:R:3:Z:I:1 energy=-286.0578555592229 field_type=dipole dipole="0.000000 0.000000 0.000000" charge=0
C	-0.640772	-1.865687	-1.158042	6
O	-0.411952	-1.321837	0.133218	8
C	0.373028	-0.108257	0.169728	6
C	-0.317392	1.205373	-0.259932	6
N	0.353438	1.900723	0.863548	7
C	0.492628	0.589453	1.542628	6
H	-1.226682	-2.782247	-1.051332	1
H	0.311448	-2.107327	-1.639032	1
H	-1.201482	-1.156417	-1.773422	1
H	1.352738	-0.256957	-0.305142	1
H	-1.410602	1.195303	-0.177562	1
H	-0.044592	1.577533	-1.251792	1
H	1.249728	2.314503	0.605098	1
H	1.444618	0.446663	2.062198	1
H	-0.324152	0.369183	2.239838	1
Es	-0.005366	0.505981	-0.135416	99
Es	-0.067999	0.442155	2.005469	99
Es	-0.687818	-1.237720	0.238313	99
Es	-0.129488	1.465260	-0.943748	99
Es	1.148951	0.494077	1.899691	99
Es	0.015670	-2.027656	-1.496188	99
Es	-0.640730	-1.865592	-1.157843	99
Es	0.450469	1.353276	1.195646	99
Es	1.047360	-0.204114	-0.162413	99
Es	-0.317304	1.205428	-0.259828	99
Es	0.159493	2.144219	1.033568	99
Es	0.452749	0.147604	0.894441	99
Es	0.904597	2.111467	0.688779	99
Es	-0.476221	-1.496113	-0.376574	99
Es	0.353729	1.900312	0.863275	99
Es	-1.058853	1.191222	-0.194725	99
Es	-0.411772	-1.321715	0.132921	99
Es	0.492632	0.589564	1.542526	99
Es	-1.022530	-1.375951	-1.588099	99
Es	0.372885	-0.108430	0.169732	99
Es	0.066609	1.645301	0.341136	99
Es	-1.038761	-2.488019	-1.086318	99
Es	-0.242234	-1.530447	0.280222	99
Es	-0.112629	-0.871574	0.099533	99
39
Properties=species:S:1:pos:R:3:Z:I:1 energy=-286.0578555592229 field_type=dipole dipole="0.000000 0.000000 0.000000" charge=0
C	-0.640772	-1.865687	-1.158042	6
O	-0.411952	-1.321837	0.133218	8
C	0.373028	-0.108257	0.169728	6
C	-0.317392	1.205373	-0.259932	6
N	0.353438	1.900723	0.863548	7
C	0.492628	0.589453	1.542628	6
H	-1.226682	-2.782247	-1.051332	1
H	0.311448	-2.107327	-1.639032	1
H	-1.201482	-1.156417	-1.773422	1
H	1.352738	-0.256957	-0.305142	1
H	-1.410602	1.195303	-0.177562	1
H	-0.044592	1.577533	-1.251792	1
H	1.249728	2.314503	0.605098	1
H	1.444618	0.446663	2.062198	1
H	-0.324152	0.369183	2.239838	1
Es	-0.411798	-1.321666	0.132875	99
Es	-0.005380	0.506392	-0.135360	99
Es	0.064815	1.645916	0.340867	99
Es	-0.687624	-1.238937	0.240584	99
Es	-1.058910	1.190907	-0.194745	99
Es	-0.477177	-1.496071	-0.376664	99
Es	1.047092	-0.204009	-0.162477	99
Es	-0.243767	-1.529259	0.276998	99
Es	1.148965	0.494038	1.899844	99
Es	0.449711	1.353775	1.196915	99
Es	0.353774	1.900278	0.863247	99
Es	-0.129347	1.464967	-0.943990	99
Es	-0.640732	-1.865595	-1.157844	99
Es	0.453029	0.147789	0.894609	99
Es	0.492631	0.589567	1.542522	99
Es	-0.068206	0.442178	2.005329	99
Es	0.161503	2.140104	1.031665	99
Es	-1.039216	-2.488509	-1.086472	99
Es	-1.021995	-1.376019	-1.587861	99
Es	-0.110319	-0.871607	0.100499	99
Es	0.015443	-2.027238	-1.496208	99
Es	-0.317304	1.205427	-0.259831	99
Es	0.372886	-0.108425	0.169732	99
Es	0.905363	2.114534	0.689868	99
39
Properties=species:S:1:pos:R:3:Z:I:1 energy=-286.0578555592229 field_type=dipole dipole="0.000000 0.000000 0.000000" charge=0
C	-0.640772	-1.865687	-1.158042	6
O	-0.411952	-1.321837	0.133218	8
C	0.373028	-0.108257	0.169728	6
C	-0.317392	1.205373	-0.259932	6
N	0.353438	1.900723	0.863548	7
C	0.492628	0.589453	1.542628	6
H	-1.226682	-2.782247	-1.051332	1
H	0.311448	-2.107327	-1.639032	1
H	-1.201482	-1.156417	-1.773422	1
H	1.352738	-0.256957	-0.305142	1
H	-1.410602	1.195303	-0.177562	1
H	-0.044592	1.577533	-1.251792	1
H	1.249728	2.314503	0.605098	1
H	1.444618	0.446663	2.062198	1
H	-0.324152	0.369183	2.239838	1
Es	-0.480991	-1.494446	-0.377151	99
Es	-0.068312	0.442244	2.005329	99
Es	0.449148	1.354071	1.197133	99
Es	-0.109860	-0.870938	0.101203	99
Es	0.453087	0.147922	0.894728	99
Es	0.353755	1.900294	0.863262	99
Es	-0.411744	-1.321711	0.132903	99
Es	-0.243262	-1.529754	0.274213	99
Es	-0.129298	1.464728	-0.944081	99
Es	-1.039564	-2.488967	-1.086688	99
Es	-0.317304	1.205426	-0.259830	99
Es	0.015271	-2.026763	-1.496239	99
Es	-1.021543	-1.376098	-1.587601	99
Es	-0.640731	-1.865593	-1.157843	99
Es	0.492631	0.589566	1.542524	99
Es	1.149056	0.494018	1.899857	99
Es	-0.005287	0.506699	-0.135288	99
Es	-0.684902	-1.240671	0.243069	99
Es	0.906120	2.115950	0.690221	99
Es	0.063405	1.646523	0.340975	99
Es	1.046960	-0.203936	-0.162611	99
Es	0.162989	2.137745	1.030977	99
Es	0.372886	-0.108429	0.169732	99
Es	-1.059069	1.190654	-0.194692	99
39
Properties=species:S:1:pos:R:3:Z:I:1 energy=-286.0578555592229 field_type=dipole dipole="0.000000 0.000000 0.000000" charge=0
C	-0.640772	-1.865687	-1.158042	6
O	-0.411952	-1.321837	0.133218	8
C	0.373028	-0.108257	0.169728	6
C	-0.317392	1.205373	-0.259932	6
N	0.353438	1.900723	0.863548	7
C	0.492628	0.589453	1.542628	6
H	-1.226682	-2.782247	-1.051332	1
H	0.311448	-2.107327	-1.639032	1
H	-1.201482	-1.156417	-1.773422	1
H	1.352738	-0.256957	-0.305142	1
H	-1.410602	1.195303	-0.177562	1
H	-0.044592	1.577533	-1.251792	1
H	1.249728	2.314503	0.605098	1
H	1.444618	0.446663	2.062198	1
H	-0.324152	0.369183	2.239838	1
Es	-0.244934	-1.528707	0.274002	99
Es	-0.684575	-1.240557	0.242878	99
Es	0.448859	1.354319	1.197898	99
Es	-1.039755	-2.489181	-1.086760	99
Es	0.015162	-2.026566	-1.496249	99
Es	-1.059193	1.190409	-0.194699	99
Es	-0.480895	-1.495638	-0.377009	99
Es	-0.640731	-1.865594	-1.157847	99
Es	0.062362	1.646733	0.340863	99
Es	-0.108501	-0.871001	0.101363	99
Es	0.164201	2.134920	1.029673	99
Es	1.046863	-0.203883	-0.162520	99
Es	1.149191	0.494025	1.899887	99
Es	-0.068366	0.442289	2.005300	99
Es	-0.411844	-1.321648	0.132922	99
Es	-0.005158	0.506975	-0.135442	99
Es	-1.021308	-1.376136	-1.587483	99
Es	0.372883	-0.108429	0.169728	99
Es	-0.129201	1.464640	-0.944127	99
Es	-0.317305	1.205427	-0.259834	99
Es	0.353777	1.900273	0.863241	99
Es	0.453011	0.148089	0.894789	99
Es	0.492631	0.589567	1.542523	99
Es	0.906263	2.118209	0.691005	99
39
Properties=species:S:1:pos:R:3:Z:I:1 energy=-286.0578555592229 field_type=dipole dipole="0.000000 0.000000 0.000000" charge=0
C	-0.640772	-1.865687	-1.158042	6
O	-0.411952	-1.321837	0.133218	8
C	0.373028	-0.108257	0.169728	6
C	-0.317392	1.205373	-0.259932	6
N	0.353438	1.900723	0.863548	7
C	0.492628	0.589453	1.542628	6
H	-1.226682	-2.782247	-1.051332	1
H	0.311448	-2.107327	-1.639032	1
H	-1.201482	-1.156417	-1.773422	1
H	1.352738	-0.256957	-0.305142	1
H	-1.410602	1.195303	-0.177562	1
H	-0.044592	1.577533	-1.251792	1
H	1.249728	2.314503	0.605098	1
H	1.444618	0.446663	2.062198	1
H	-0.324152	0.369183	2.239838	1
Es	-0.411833	-1.321653	0.132869	99
Es	-0.248269	-1.529232	0.276420	99
Es	-0.005203	0.507122	-0.135311	99
Es	-1.021071	-1.376194	-1.587296	99
Es	0.062392	1.646767	0.340758	99
Es	0.492631	0.589565	1.542525	99
Es	-0.640732	-1.865595	-1.157846	99
Es	0.353781	1.900268	0.863246	99
Es	-1.059300	1.190361	-0.194721	99
Es	1.046795	-0.203855	-0.162660	99
Es	0.906494	2.119647	0.691673	99
Es	0.164734	2.133224	1.028207	99
Es	0.448238	1.354536	1.198805	99
Es	0.372885	-0.108421	0.169727	99
Es	-0.480017	-1.496424	-0.377102	99
Es	0.453083	0.148164	0.894790	99
Es	-0.106623	-0.871838	0.102142	99
Es	-0.068422	0.442307	2.005352	99
Es	-1.040001	-2.489303	-1.086870	99
Es	1.149278	0.494016	1.899828	99
Es	-0.317304	1.205426	-0.259831	99
Es	-0.684076	-1.238392	0.239839	99
Es	-0.129152	1.464442	-0.944124	99
Es	0.015127	-2.026402	-1.496318	99
39
Properties=species:S:1:pos:R:3:Z:I:1 energy=-286.0578555592229 field_type=dipole dipole="0.000000 0.000000 0.000000" charge=0
C	-0.640772	-1.865687	-1.158042	6
O	-0.411952	-1.321837	0.133218	8
C	0.373028	-0.108257	0.169728	6
C	-0.317392	1.205373	-0.259932	6
N	0.353438	1.900723	0.863548	7
C	0.492628	0.589453	1.542628	6
H	-1.226682	-2.782247	-1.051332	1
H	0.311448	-2.107327	-1.639032	1
H	-1.201482	-1.156417	-1.773422	1
H	1.352738	-0.256957	-0.305142	1
H	-1.410602	1.195303	-0.177562	1
H	-0.044592	1.577533	-1.251792	1
H	1.249728	2.314503	0.605098	1
H	1.444618	0.446663	2.062198	1
H	-0.324152	0.369183	2.239838	1
Es	0.015061	-2.026267	-1.496299	99
Es	1.046687	-0.203839	-0.162712	99
Es	-0.248455	-1.528947	0.275407	99
Es	-0.411948	-1.321576	0.132854	99
Es	0.372885	-0.108428	0.169732	99
Es	0.906774	2.120387	0.691960	99
Es	-1.059396	1.190266	-0.194733	99
Es	-0.317302	1.205426	-0.259829	99
Es	-0.129001	1.464343	-0.944202	99
Es	-0.640732	-1.865591	-1.157839	99
Es	-0.683426	-1.238975	0.240693	99
Es	-1.040090	-2.489454	-1.086908	99
Es	0.453174	0.148285	0.894924	99
Es	1.149377	0.494036	1.899932	99
Es	0.062044	1.646817	0.340852	99
Es	0.165000	2.132224	1.028064	99
Es	-0.106158	-0.871821	0.102501	99
Es	-1.020945	-1.376200	-1.587240	99
Es	0.353809	1.900256	0.863221	99
Es	-0.068457	0.442263	2.005223	99
Es	-0.005246	0.507301	-0.135311	99
Es	0.492631	0.589563	1.542525	99
Es	-0.480828	-1.496217	-0.377314	99
Es	0.447980	1.354681	1.198600	99
39
Properties=species:S:1:pos:R:3:Z:I:1 energy=-286.0578555592229 field_type=dipole dipole="0.000000 0.000000 0.000000" charge=0
C	-0.640772	-1.865687	-1.158042	6
O	-0.411952	-1.321837	0.133218	8
C	0.373028	-0.108257	0.169728	6
C	-0.317392	1.205373	-0.259932	6
N	0.353438	1.900723	0.863548	7
C	0.492628	0.589453	1.542628	6
H	-1.226682	-2.782247	-1.051332	1
H	0.311448	-2.107327	-1.639032	1
H	-1.201482	-1.156417	-1.773422	1
H	1.352738	-0.256957	-0.305142	1
H	-1.410602	1.195303	-0.177562	1
H	-0.044592	1.577533	-1.251792	1
H	1.249728	2.314503	0.605098	1
H	1.444618	0.446663	2.062198	1
H	-0.324152	0.369183	2.239838	1
Es	0.166047	2.131236	1.027204	99
Es	1.046588	-0.203787	-0.162776	99
Es	-0.105332	-0.872100	0.102480	99
Es	-0.480645	-1.496798	-0.377158	99
Es	0.453258	0.148252	0.894950	99
Es	-0.317304	1.205427	-0.259830	99
Es	0.447605	1.354844	1.199296	99
Es	0.372885	-0.108428	0.169731	99
Es	-0.249266	-1.528317	0.275134	99
Es	0.061387	1.647173	0.340941	99
Es	-0.129056	1.464270	-0.944238	99
Es	-1.040208	-2.489538	-1.086931	99
Es	0.492631	0.589567	1.542526	99
Es	-0.683715	-1.238628	0.240720	99
Es	-0.068449	0.442289	2.005254	99
Es	-0.005191	0.507486	-0.135300	99
Es	0.014982	-2.026204	-1.496310	99
Es	0.906913	2.120905	0.692060	99
Es	-0.411833	-1.321673	0.132904	99
Es	0.353772	1.900273	0.863241	99
Es	1.149346	0.494026	1.899907	99
Es	-0.640728	-1.865592	-1.157841	99
Es	-1.059438	1.190074	-0.194676	99
Es	-1.020811	-1.376222	-1.587187	99
39
Properties=species:S:1:pos:R:3:Z:I:1 energy=-286.0578555592229 field_type=dipole dipole="0.000000 0.000000 0.000000" charge=0
C	-0.640772	-1.865687	-1.158042	6
O	-0.411952	-1.321837	0.133218	8
C	0.373028	-0.108257	0.169728	6
C	-0.317392	1.205373	-0.259932	6
N	0.353438	1.900723	0.863548	7
C	0.492628	0.589453	1.542628	6
H	-1.226682	-2.782247	-1.051332	1
H	0.311448	-2.107327	-1.639032	1
H	-1.201482	-1.156417	-1.773422	1
H	1.352738	-0.256957	-0.305142	1
H	-1.410602	1.195303	-0.177562	1
H	-0.044592	1.577533	-1.251792	1
H	1.249728	2.314503	0.605098	1
H	1.444618	0.446663	2.062198	1
H	-0.324152	0.369183	2.239838	1
Es	1.149333	0.494069	1.899937	99
Es	0.447352	1.354930	1.199610	99
Es	0.353790	1.900275	0.863234	99
Es	0.014982	-2.026169	-1.496322	99
Es	-0.005162	0.507522	-0.135285	99
Es	-1.040310	-2.489542	-1.087014	99
Es	-0.129036	1.464213	-0.944239	99
Es	-0.104305	-0.872312	0.103308	99
Es	0.372886	-0.108428	0.169735	99
Es	-1.059505	1.190039	-0.194649	99
Es	-0.411828	-1.321628	0.132837	99
Es	0.061259	1.647241	0.340811	99
Es	-0.068486	0.442289	2.005245	99
Es	-0.640731	-1.865592	-1.157841	99
Es	0.492631	0.589566	1.542524	99
Es	-0.250919	-1.528991	0.275882	99
Es	0.907004	2.121593	0.692429	99
Es	0.453247	0.148304	0.894859	99
Es	-0.480577	-1.496537	-0.377143	99
Es	-0.317303	1.205428	-0.259830	99
Es	-0.683208	-1.238001	0.239264	99
Es	1.046640	-0.203781	-0.162794	99
Es	0.166369	2.130344	1.026673	99
Es	-1.020688	-1.376296	-1.587132	99
39
Properties=species:S:1:pos:R:3:Z:I:1 energy=-286.0578555592229 field_type=dipole dipole="0.000000 0.000000 0.000000" charge=0
C	-0.640772	-1.865687	-1.158042	6
O	-0.411952	-1.321837	0.133218	8
C	0.373028	-0.108257	0.169728	6
C	-0.317392	1.205373	-0.259932	6
N	0.353438	1.900723	0.863548	7
C	0.492628	0.589453	1.542628	6
H	-1.226682	-2.782247	-1.051332	1
H	0.311448	-2.107327	-1.639032	1
H	-1.201482	-1.156417	-1.773422	1
H	1.352738	-0.256957	-0.305142	1
H	-1.410602	1.195303	-0.177562	1
H	-0.044592	1.577533	-1.251792	1
H	1.249728	2.314503	0.605098	1
H	1.444618	0.446663	2.062198	1
H	-0.324152	0.369183	2.239838	1
Es	0.492631	0.589566	1.542524	99
Es	-1.040412	-2.489669	-1.087035	99
Es	0.014994	-2.026002	-1.496370	99
Es	0.447500	1.354947	1.199457	99
Es	0.906954	2.122331	0.692640	99
Es	-0.411839	-1.321676	0.132890	99
Es	-0.682534	-1.238227	0.241079	99
Es	0.061066	1.647281	0.340883	99
Es	-0.129032	1.464188	-0.944265	99
Es	-0.250170	-1.529039	0.274423	99
Es	-1.059504	1.189943	-0.194656	99
Es	0.453172	0.148341	0.894896	99
Es	-0.068493	0.442286	2.005264	99
Es	-0.482381	-1.495796	-0.377363	99
Es	1.046638	-0.203808	-0.162638	99
Es	-0.103978	-0.872735	0.102985	99
Es	0.372884	-0.108430	0.169730	99
Es	0.166473	2.129591	1.026595	99
Es	-0.640732	-1.865594	-1.157842	99
Es	-0.317303	1.205427	-0.259830	99
Es	1.149346	0.494075	1.899913	99
Es	0.353804	1.900247	0.863220	99
Es	-1.020598	-1.376346	-1.587001	99
Es	-0.005049	0.507634	-0.135400	99
39
Properties=species:S:1:pos:R:3:Z:I:1 energy=-286.0578555592229 field_type=dipole dipole="0.000000 0.000000 0.000000" charge=0
C	-0.640772	-1.865687	-1.158042	6
O	-0.411952	-1.321837	0.133218	8
C	0.373028	-0.108257	0.169728	6
C	-0.317392	1.205373	-0.259932	6
N	0.353438	1.900723	0.863548	7
C	0.492628	0.589453	1.542628	6
H	-1.226682	-2.782247	-1.051332	1
H	0.311448	-2.107327	-1.639032	1
H	-1.201482	-1.156417	-1.773422	1
H	1.352738	-0.256957	-0.305142	1
H	-1.410602	1.195303	-0.177562	1
H	-0.044592	1.577533	-1.251792	1
H	1.249728	2.314503	0.605098	1
H	1.444618	0.446663	2.062198	1
H	-0.324152	0.369183	2.239838	1
Es	0.372885	-0.108428	0.169733	99
Es	0.453186	0.148448	0.894929	99
Es	0.447157	1.355193	1.199927	99
Es	0.907106	2.122314	0.692645	99
Es	-0.250481	-1.528652	0.274965	99
Es	0.492635	0.589566	1.542525	99
Es	-0.317301	1.205427	-0.259830	99
Es	0.014938	-2.025980	-1.496361	99
Es	-0.640729	-1.865593	-1.157843	99
Es	-0.104437	-0.872093	0.103000	99
Es	-0.005006	0.507711	-0.135300	99
Es	-1.059591	1.189828	-0.194613	99
Es	0.167152	2.129237	1.026066	99
Es	-1.020437	-1.376389	-1.586964	99
Es	-0.481912	-1.496335	-0.377210	99
Es	-0.129011	1.464157	-0.944271	99
Es	1.046579	-0.203756	-0.162809	99
Es	-0.411698	-1.321749	0.132915	99
Es	0.060646	1.647309	0.340863	99
Es	-0.068509	0.442296	2.005295	99
Es	-1.040550	-2.489716	-1.087069	99
Es	1.149448	0.494035	1.899857	99
Es	0.353741	1.900300	0.863266	99
Es	-0.682375	-1.238594	0.240385	99
39
Properties=species:S:1:pos:R:3:Z:I:1 energy=-286.0578555592229 field_type=dipole dipole="0.000000 0.000000 0.000000" charge=0
C	-0.640772	-1.865687	-1.158042	6
O	-0.411952	-1.321837	0.133218	8
C	0.373028	-0.108257	0.169728	6
C	-0.317392	1.205373	-0.259932	6
N	0.353438	1.900723	0.863548	7
C	0.492628	0.589453	1.542628	6
H	-1.226682	-2.782247	-1.051332	1
H	0.311448	-2.107327	-1.639032	1
H	-1.201482	-1.156417	-1.773422	1
H	1.352738	-0.256957	-0.305142	1
H	-1.410602	1.195303	-0.177562	1
H	-0.044592	1.577533	-1.251792	1
H	1.249728	2.314503	0.605098	1
H	1.444618	0.446663	2.062198	1
H	-0.324152	0.369183	2.239838	1
Es	-0.128996	1.464096	-0.944186	99
Es	-0.682198	-1.240057	0.242556	99
Es	-0.068506	0.442296	2.005191	99
Es	-1.020422	-1.376371	-1.586904	99
Es	0.372886	-0.108427	0.169732	99
Es	0.014915	-2.025895	-1.496385	99
Es	0.167482	2.128588	1.025810	99
Es	0.907120	2.122791	0.692853	99
Es	-1.040563	-2.489774	-1.087105	99
Es	-0.640731	-1.865593	-1.157842	99
Es	0.060428	1.647704	0.340903	99
Es	-0.104222	-0.871975	0.103410	99
Es	0.447026	1.355088	1.200020	99
Es	-0.482926	-1.495436	-0.377361	99
Es	1.149367	0.494053	1.899985	99
Es	-0.411926	-1.321584	0.132864	99
Es	-0.249603	-1.528429	0.272537	99
Es	0.353790	1.900268	0.863235	99
Es	0.453250	0.148351	0.894903	99
Es	1.046595	-0.203715	-0.162821	99
Es	0.492631	0.589566	1.542524	99
Es	-0.317303	1.205426	-0.259830	99
Es	-0.005067	0.507684	-0.135265	99
Es	-1.059590	1.189882	-0.194723	99
39
Properties=species:S:1:pos:R:3:Z:I:1 energy=-286.0578555592229 field_type=dipole dipole="0.000000 0.000000 0.000000" charge=0
C	-0.640772	-1.865687	-1.158042	6
O	-0.411952	-1.321837	0.133218	8
C	0.373028	-0.108257	0.169728	6
C	-0.317392	1.205373	-0.259932	6
N	0.353438	1.900723	0.863548	7
C	0.492628	0.589453	1.542628	6
H	-1.226682	-2.782247	-1.051332	1
H	0.311448	-2.107327	-1.639032	1
H	-1.201482	-1.156417	-1.773422	1
H	1.352738	-0.256957	-0.305142	1
H	-1.410602	1.195303	-0.177562	1
H	-0.044592	1.577533	-1.251792	1
H	1.249728	2.314503	0.605098	1
H	1.444618	0.446663	2.062198	1
H	-0.324152	0.369183	2.239838	1
Es	-0.068668	0.442332	2.005126	99
Es	0.492631	0.589566	1.542524	99
Es	-0.103892	-0.872209	0.103315	99
Es	1.149482	0.494027	1.900038	99
Es	0.907178	2.123199	0.693020	99
Es	-0.682209	-1.239520	0.242274	99
Es	-0.411788	-1.321663	0.132882	99
Es	-1.020304	-1.376393	-1.586917	99
Es	-1.040626	-2.489837	-1.087147	99
Es	1.046520	-0.203783	-0.162711	99
Es	0.453316	0.148474	0.894985	99
Es	0.060575	1.647420	0.340935	99
Es	-1.059609	1.189861	-0.194735	99
Es	0.372884	-0.108430	0.169729	99
Es	-0.640731	-1.865592	-1.157843	99
Es	0.353793	1.900263	0.863231	99
Es	0.014824	-2.025863	-1.496352	99
Es	-0.128967	1.464048	-0.944195	99
Es	-0.250123	-1.528079	0.272904	99
Es	0.446949	1.355225	1.200129	99
Es	-0.005078	0.507807	-0.135413	99
Es	-0.482862	-1.495960	-0.377297	99
Es	-0.317304	1.205428	-0.259828	99
Es	0.167444	2.128216	1.025447	99
39
Properties=species:S:1:pos:R:3:Z:I:1 energy=-286.0578555592229 field_type=dipole dipole="0.000000 0.000000 0.000000" charge=0
C	-0.640772	-1.865687	-1.158042	6
O	-0.411952	-1.321837	0.133218	8
C	0.373028	-0.108257	0.169728	6
C	-0.317392	1.205373	-0.259932	6
N	0.353438	1.900723	0.863548	7
C	0.492628	0.589453	1.542628	6
H	-1.226682	-2.782247	-1.051332	1
H	0.311448	-2.107327	-1.639032	1
H	-1.201482	-1.156417	-1.773422	1
H	1.352738	-0.256957	-0.305142	1
H	-1.410602	1.195303	-0.177562	1
H	-0.044592	1.577533	-1.251792	1
H	1.249728	2.314503	0.605098	1
H	1.444618	0.446663	2.062198	1
H	-0.324152	0.369183	2.239838	1
Es	-0.005042	0.507844	-0.135370	99
Es	-0.317303	1.205427	-0.259831	99
Es	-1.020472	-1.376414	-1.586849	99
Es	0.372887	-0.108425	0.169734	99
Es	0.492630	0.589566	1.542523	99
Es	0.907223	2.123116	0.693107	99
Es	-0.068568	0.442280	2.005210	99
Es	0.060420	1.647710	0.340851	99
Es	-0.640731	-1.865594	-1.157847	99
Es	0.167741	2.128117	1.025360	99
Es	-0.249925	-1.527711	0.271581	99
Es	1.149471	0.494053	1.899946	99
Es	-0.103669	-0.872049	0.103501	99
Es	-0.412088	-1.321446	0.132790	99
Es	1.046545	-0.203738	-0.162752	99
Es	0.014844	-2.025722	-1.496423	99
Es	-0.681408	-1.240610	0.243514	99
Es	-0.483763	-1.495653	-0.377404	99
Es	-1.059645	1.189793	-0.194690	99
Es	-1.040492	-2.489926	-1.087091	99
Es	-0.128996	1.464057	-0.944190	99
Es	0.353794	1.900259	0.863229	99
Es	0.446718	1.355173	1.200232	99
Es	0.453266	0.148430	0.894969	99
39
Properties=species:S:1:pos:R:3:Z:I:1 energy=-286.0578555592229 field_type=dipole dipole="0.000000 0.000000 0.000000" charge=0
C	-0.640772	-1.865687	-1.158042	6
O	-0.411952	-1.321837	0.133218	8
C	0.373028	-0.108257	0.169728	6
C	-0.317392	1.205373	-0.259932	6
N	0.353438	1.900723	0.863548	7
C	0.492628	0.589453	1.542628	6
H	-1.226682	-2.782247	-1.051332	1
H	0.311448	-2.107327	-1.639032	1
H	-1.201482	-1.156417	-1.773422	1
H	1.352738	-0.256957	-0.305142	1
H	-1.410602	1.195303	-0.177562	1
H	-0.044592	1.577533	-1.251792	1
H	1.249728	2.314503	0.605098	1
H	1.444618	0.446663	2.062198	1
H	-0.324152	0.369183	2.239838	1
Es	0.492630	0.589566	1.542524	99
Es	-0.640732	-1.865594	-1.157848	99
Es	0.014873	-2.025787	-1.496440	99
Es	-1.059733	1.189773	-0.194690	99
Es	-0.411815	-1.321691	0.132920	99
Es	-0.068643	0.442323	2.005200	99
Es	-0.250250	-1.528009	0.273033	99
Es	-0.005041	0.507941	-0.135305	99
Es	0.060476	1.647275	0.340837	99
Es	-1.020311	-1.376422	-1.586791	99
Es	-0.681628	-1.239548	0.242153	99
Es	0.907088	2.124286	0.693429	99
Es	1.046500	-0.203752	-0.162816	99
Es	1.149496	0.494069	1.899972	99
Es	-0.128871	1.463989	-0.944234	99
Es	0.353774	1.900272	0.863239	99
Es	-0.483309	-1.496173	-0.377318	99
Es	-0.103888	-0.872020	0.103210	99
Es	-0.317302	1.205426	-0.259830	99
Es	0.447015	1.355322	1.200210	99
Es	-1.040692	-2.489863	-1.087119	99
Es	0.453334	0.148495	0.894976	99
Es	0.372883	-0.108433	0.169732	99
Es	0.167583	2.127090	1.025057	99
39
Properties=species:S:1:pos:R:3:Z:I:1 energy=-286.0578555592229 field_type=dipole dipole="0.000000 0.000000 0.000000" charge=0
C	-0.640772	-1.865687	-1.158042	6
O	-0.411952	-1.321837	0.133218	8
C	0.373028	-0.108257	0.169728	6
C	-0.317392	1.205373	-0.259932	6
N	0.353438	1.900723	0.863548	7
C	0.492628	0.589453	1.542628	6
H	-1.226682	-2.782247	-1.051332	1
H	0.311448	-2.107327	-1.639032	1
H	-1.201482	-1.156417	-1.773422	1
H	1.352738	-0.256957	-0.305142	1
H	-1.410602	1.195303	-0.177562	1
H	-0.044592	1.577533	-1.251792	1
H	1.249728	2.314503	0.605098	1
H	1.444618	0.446663	2.062198	1
H	-0.324152	0.369183	2.239838	1
Es	0.353793	1.900260	0.863229	99
Es	0.372885	-0.108429	0.169733	99
Es	0.453298	0.148443	0.894968	99
Es	-0.005006	0.507954	-0.135355	99
Es	-0.482199	-1.496076	-0.377386	99
Es	-1.020272	-1.376427	-1.586865	99
Es	-1.059706	1.189743	-0.194662	99
Es	1.149478	0.494039	1.899988	99
Es	-0.103404	-0.872156	0.104039	99
Es	-1.040673	-2.489881	-1.087138	99
Es	0.492631	0.589566	1.542524	99
Es	0.907255	2.124204	0.693504	99
Es	-0.640731	-1.865592	-1.157843	99
Es	-0.128926	1.463990	-0.944247	99
Es	1.046453	-0.203741	-0.162772	99
Es	-0.682464	-1.239718	0.241816	99
Es	0.446570	1.355308	1.200521	99
Es	-0.317303	1.205427	-0.259830	99
Es	-0.250939	-1.527707	0.272533	99
Es	0.168182	2.126819	1.024681	99
Es	-0.411880	-1.321760	0.133006	99
Es	-0.068558	0.442348	2.005183	99
Es	0.014801	-2.025816	-1.496372	99
Es	0.060153	1.647737	0.340846	99
39
Properties=species:S:1:pos:R:3:Z:I:1 energy=-286.0578555592229 field_type=dipole dipole="0.000000 0.000000 0.000000" charge=0
C	-0.640772	-1.865687	-1.158042	6
O	-0.411952	-1.321837	0.133218	8
C	0.373028	-0.108257	0.169728	6
C	-0.317392	1.205373	-0.259932	6
N	0.353438	1.900723	0.863548	7
C	0.492628	0.589453	1.542628	6
H	-1.226682	-2.782247	-1.051332	1
H	0.311448	-2.107327	-1.639032	1
H	-1.201482	-1.156417	-1.773422	1
H	1.352738	-0.256957	-0.305142	1
H	-1.410602	1.195303	-0.177562	1
H	-0.044592	1.577533	-1.251792	1
H	1.249728	2.314503	0.605098	1
H	1.444618	0.446663	2.062198	1
H	-0.324152	0.369183	2.239838	1
Es	0.492631	0.589566	1.542524	99
Es	-0.411724	-1.321698	0.132875	99
Es	0.907209	2.124811	0.693675	99
Es	-1.059749	1.189678	-0.194677	99
Es	-0.317303	1.205427	-0.259830	99
Es	-0.128861	1.463958	-0.944277	99
Es	0.014874	-2.025827	-1.496399	99
Es	0.372885	-0.108428	0.169731	99
Es	-0.640731	-1.865592	-1.157843	99
Es	-0.483822	-1.495629	-0.377411	99
Es	-0.068625	0.442297	2.005184	99
Es	1.046519	-0.203696	-0.162871	99
Es	-0.251112	-1.528577	0.273109	99
Es	-1.040937	-2.489828	-1.087239	99
Es	-0.681174	-1.239123	0.241770	99
Es	-0.103091	-0.872458	0.103690	99
Es	1.149526	0.494020	1.899961	99
Es	0.453280	0.148558	0.894988	99
Es	-1.020045	-1.376408	-1.586739	99
Es	-0.005020	0.507988	-0.135225	99
Es	0.446900	1.355404	1.200069	99
Es	0.060501	1.647293	0.340885	99
Es	0.353786	1.900263	0.863232	99
Es	0.167520	2.126538	1.024919	99
39
Properties=species:S:1:pos:R:3:Z:I:1 energy=-286.0578555592229 field_type=dipole dipole="0.000000 0.000000 0.000000" charge=0
C	-0.640772	-1.865687	-1.158042	6
O	-0.411952	-1.321837	0.133218	8
C	0.373028	-0.108257	0.169728	6
C	-0.317392	1.205373	-0.259932	6
N	0.353438	1.900723	0.863548	7
C	0.492628	0.589453	1.542628	6
H	-1.226682	-2.782247	-1.051332	1
H	0.311448	-2.107327	-1.639032	1
H	-1.201482	-1.156417	-1.773422	1
H	1.352738	-0.256957	-0.305142	1
H	-1.410602	1.195303	-0.177562	1
H	-0.044592	1.577533	-1.251792	1
H	1.249728	2.314503	0.605098	1
H	1.444618	0.446663	2.062198	1
H	-0.324152	0.369183	2.239838	1
Es	0.014805	-2.025689	-1.496434	99
Es	0.353814	1.900242	0.863207	99
Es	-0.317304	1.205426	-0.259833	99
Es	0.453372	0.148502	0.895042	99
Es	-0.250771	-1.527560	0.272499	99
Es	-0.411803	-1.321666	0.132878	99
Es	-0.128916	1.463961	-0.944230	99
Es	0.372885	-0.108428	0.169731	99
Es	1.149476	0.493943	1.900035	99
Es	-1.059741	1.189642	-0.194676	99
Es	-0.640732	-1.865592	-1.157847	99
Es	-0.482788	-1.496246	-0.377362	99
Es	-0.068612	0.442351	2.005108	99
Es	-0.004996	0.508092	-0.135446	99
Es	-0.103460	-0.872180	0.103694	99
Es	-1.040786	-2.489947	-1.087198	99
Es	0.492631	0.589565	1.542523	99
Es	1.046378	-0.203753	-0.162773	99
Es	0.907301	2.124436	0.693491	99
Es	0.168497	2.126410	1.024764	99
Es	-1.020168	-1.376482	-1.586737	99
Es	0.446695	1.355473	1.200337	99
Es	0.059748	1.647813	0.341007	99
Es	-0.682089	-1.239780	0.242319	99
39
Properties=species:S:1:pos:R:3:Z:I:1 energy=-286.0578555592229 field_type=dipole dipole="0.000000 0.000000 0.000000" charge=0
C	-0.640772	-1.865687	-1.158042	6
O	-0.411952	-1.321837	0.133218	8
C	0.373028	-0.108257	0.169728	6
C	-0.317392	1.205373	-0.259932	6
N	0.353438	1.900723	0.863548	7
C	0.492628	0.589453	1.542628	6
H	-1.226682	-2.782247	-1.051332	1
H	0.311448	-2.107327	-1.639032	1
H	-1.201482	-1.156417	-1.773422	1
H	1.352738	-0.256957	-0.305142	1
H	-1.410602	1.195303	-0.177562	1
H	-0.044592	1.577533	-1.251792	1
H	1.249728	2.314503	0.605098	1
H	1.444618	0.446663	2.062198	1
H	-0.324152	0.369183	2.239838	1
Es	0.907315	2.124334	0.693425	99
Es	0.014751	-2.025686	-1.496413	99
Es	-0.103801	-0.871932	0.103035	99
Es	1.149513	0.494048	1.900123	99
Es	-1.040819	-2.489985	-1.087203	99
Es	-0.250222	-1.526378	0.271890	99
Es	-1.020117	-1.376451	-1.586739	99
Es	-0.682405	-1.240311	0.243358	99
Es	-0.317303	1.205427	-0.259829	99
Es	-0.640731	-1.865590	-1.157841	99
Es	-0.482652	-1.497144	-0.377159	99
Es	0.453422	0.148477	0.894972	99
Es	0.492630	0.589566	1.542524	99
Es	-1.059746	1.189607	-0.194682	99
Es	-0.411799	-1.321679	0.132878	99
Es	0.446387	1.355223	1.200628	99
Es	-0.128955	1.463934	-0.944207	99
Es	-0.004986	0.508119	-0.135456	99
Es	0.353804	1.900249	0.863219	99
Es	0.059232	1.648416	0.341038	99
Es	0.372885	-0.108429	0.169732	99
Es	-0.068564	0.442310	2.005027	99
Es	0.169217	2.126147	1.024554	99
Es	1.046381	-0.203737	-0.162773	99
39
Properties=species:S:1:pos:R:3:Z:I:1 energy=-286.0578555592229 field_type=dipole dipole="0.000000 0.000000 0.000000" charge=0
C	-0.640772	-1.865687	-1.158042	6
O	-0.411952	-1.321837	0.133218	8
C	0.373028	-0.108257	0.169728	6
C	-0.317392	1.205373	-0.259932	6
N	0.353438	1.900723	0.863548	7
C	0.492628	0.589453	1.542628	6
H	-1.226682	-2.782247	-1.051332	1
H	0.311448	-2.107327	-1.639032	1
H	-1.201482	-1.156417	-1.773422	1
H	1.352738	-0.256957	-0.305142	1
H	-1.410602	1.195303	-0.177562	1
H	-0.044592	1.577533	-1.251792	1
H	1.249728	2.314503	0.605098	1
H	1.444618	0.446663	2.062198	1
H	-0.324152	0.369183	2.239838	1
Es	-1.020119	-1.376495	-1.586676	99
Es	-0.483633	-1.496215	-0.377130	99
Es	0.059777	1.647685	0.340943	99
Es	-0.068566	0.442286	2.005174	99
Es	-0.128864	1.463897	-0.944205	99
Es	-0.251120	-1.527604	0.272194	99
Es	0.168608	2.126249	1.024461	99
Es	0.446602	1.355559	1.200664	99
Es	-0.640731	-1.865593	-1.157843	99
Es	0.453346	0.148477	0.895069	99
Es	0.014784	-2.025607	-1.496453	99
Es	-0.681449	-1.239709	0.242523	99
Es	0.353801	1.900251	0.863224	99
Es	0.492631	0.589565	1.542525	99
Es	-1.059872	1.189657	-0.194638	99
Es	-1.040821	-2.490007	-1.087244	99
Es	-0.102781	-0.872257	0.103446	99
Es	0.372886	-0.108428	0.169732	99
Es	0.907253	2.124603	0.693470	99
Es	-0.004963	0.508118	-0.135363	99
Es	-0.317303	1.205427	-0.259830	99
Es	-0.411901	-1.321642	0.132899	99
Es	1.149476	0.494020	1.899968	99
Es	1.046398	-0.203703	-0.162809	99
39
Properties=species:S:1:pos:R:3:Z:I:1 energy=-286.0578555592229 field_type=dipole dipole="0.000000 0.000000 0.000000" charge=0
C	-0.640772	-1.865687	-1.158042	6
O	-0.411952	-1.321837	0.133218	8
C	0.373028	-0.108257	0.169728	6
C	-0.317392	1.205373	-0.259932	6
N	0.353438	1.900723	0.863548	7
C	0.492628	0.589453	1.542628	6
H	-1.226682	-2.782247	-1.051332	1
H	0.311448	-2.107327	-1.639032	1
H	-1.201482	-1.156417	-1.773422	1
H	1.352738	-0.256957	-0.305142	1
H	-1.410602	1.195303	-0.177562	1
H	-0.044592	1.577533	-1.251792	1
H	1.249728	2.314503	0.605098	1
H	1.444618	0.446663	2.062198	1
H	-0.324152	0.369183	2.239838	1
Es	0.492631	0.589565	1.542524	99
Es	0.907236	2.124684	0.693339	99
Es	0.059847	1.647702	0.341156	99
Es	-0.004947	0.508157	-0.135443	99
Es	-0.317303	1.205427	-0.259830	99
Es	-0.128918	1.463911	-0.944242	99
Es	-0.483883	-1.496159	-0.377274	99
Es	-1.059799	1.189548	-0.194639	99
Es	-0.068621	0.442345	2.005182	99
Es	-0.681072	-1.238852	0.241733	99
Es	-0.102439	-0.872647	0.103610	99
Es	-1.019952	-1.376512	-1.586608	99
Es	1.149578	0.494068	1.899977	99
Es	0.446704	1.355359	1.200441	99
Es	0.353779	1.900309	0.863231	99
Es	-1.040982	-2.490047	-1.087287	99
Es	1.046442	-0.203751	-0.162813	99
Es	0.372885	-0.108428	0.169732	99
Es	0.453278	0.148552	0.895073	99
Es	-0.251736	-1.528034	0.272946	99
Es	-0.411797	-1.321702	0.132975	99
Es	-0.640731	-1.865592	-1.157842	99
Es	0.168471	2.126205	1.024611	99
Es	0.014769	-2.025572	-1.496451	99
39
Properties=species:S:1:pos:R:3:Z:I:1 energy=-286.0578555592229 field_type=dipole dipole="0.000000 0.000000 0.000000" charge=0
C	-0.640772	-1.865687	-1.158042	6
O	-0.411952	-1.321837	0.133218	8
C	0.373028	-0.108257	0.169728	6
C	-0.317392	1.205373	-0.259932	6
N	0.353438	1.900723	0.863548	7
C	0.492628	0.589453	1.542628	6
H	-1.226682	-2.782247	-1.051332	1
H	0.311448	-2.107327	-1.639032	1
H	-1.201482	-1.156417	-1.773422	1
H	1.352738	-0.256957	-0.305142	1
H	-1.410602	1.195303	-0.177562	1
H	-0.044592	1.577533	-1.251792	1
H	1.249728	2.314503	0.605098	1
H	1.444618	0.446663	2.062198	1
H	-0.324152	0.369183	2.239838	1
Es	1.046360	-0.203711	-0.162718	99
Es	-0.681668	-1.244157	0.248046	99
Es	-1.020194	-1.376545	-1.586700	99
Es	0.446450	1.355411	1.200811	99
Es	0.014733	-2.025541	-1.496453	99
Es	-0.005007	0.508012	-0.135419	99
Es	-0.317303	1.205430	-0.259828	99
Es	-0.247398	-1.526333	0.266730	99
Es	-0.412238	-1.321372	0.132811	99
Es	-0.128939	1.463875	-0.944177	99
Es	1.149593	0.493990	1.900091	99
Es	0.059428	1.648137	0.340964	99
Es	0.169076	2.125641	1.024163	99
Es	0.492631	0.589566	1.542524	99
Es	-0.485116	-1.494365	-0.377424	99
Es	-1.059685	1.189694	-0.194788	99
Es	0.907197	2.124969	0.693689	99
Es	-1.040728	-2.490092	-1.087180	99
Es	-0.640731	-1.865593	-1.157844	99
Es	0.353805	1.900261	0.863217	99
Es	0.453308	0.148520	0.895030	99
Es	0.372885	-0.108428	0.169731	99
Es	-0.068576	0.442356	2.005044	99
Es	-0.104445	-0.871187	0.103780	99
