39
Properties=species:S:1:pos:R:3:Z:I:1 energy=-286.07115621872634 field_type=dipole dipole="0.000000 0.000000 0.000000" charge=0
N	-0.046578	-2.175333	-0.474333	7
C	-0.687318	-1.080793	0.238807	6
C	0.254582	0.078157	0.262367	6
C	0.407992	0.968997	-0.944663	6
C	-0.287898	1.482907	0.284577	6
O	0.440592	2.419327	1.088697	8
H	-0.674958	-2.976393	-0.488413	1
H	0.780352	-2.475183	0.039077	1
H	-0.928618	-1.388993	1.262407	1
H	-1.627298	-0.823753	-0.263673	1
H	1.135221	-0.127573	0.858567	1
H	-0.197588	0.754147	-1.818683	1
H	1.399231	1.333207	-1.181833	1
H	-1.363788	1.617077	0.225977	1
H	1.396072	2.394197	0.911117	1
Es	0.419053	0.386703	-0.435635	99
Es	-0.221967	-0.488676	0.241396	99
Es	-0.046726	-2.175492	-0.473793	99
Es	0.442967	-2.355695	-0.141752	99
Es	-0.687244	-1.080883	0.238733	99
Es	0.040404	-2.081215	-0.802721	99
Es	0.354115	2.693030	0.991601	99
Es	0.254554	0.078283	0.262265	99
Es	-0.430065	-2.661171	-0.461330	99
Es	0.407945	0.968957	-0.944499	99
Es	-0.005484	0.821455	-1.531161	99
Es	-0.854732	-1.286041	0.950530	99
Es	0.859523	-0.053322	0.664950	99
Es	0.034338	1.389687	-0.432811	99
Es	-1.331202	-0.900040	-0.108199	99
Es	0.401984	2.332670	1.380545	99
Es	-1.013367	1.578354	0.254139	99
Es	0.947289	2.374652	0.971271	99
Es	-0.085208	0.735019	0.452106	99
Es	1.080981	1.224495	-1.091581	99
Es	0.440725	2.419129	1.088450	99
Es	-0.287662	1.482955	0.284628	99
Es	-0.328523	-1.718070	-0.143693	99
Es	0.193702	2.053378	0.768734	99
39
Properties=species:S:1:pos:R:3:Z:I:1 energy=-286.07115621872634 field_type=dipole dipole="0.000000 0.000000 0.000000" charge=0
N	-0.046578	-2.175333	-0.474333	7
C	-0.687318	-1.080793	0.238807	6
C	0.254582	0.078157	0.262367	6
C	0.407992	0.968997	-0.944663	6
C	-0.287898	1.482907	0.284577	6
O	0.440592	2.419327	1.088697	8
H	-0.674958	-2.976393	-0.488413	1
H	0.780352	-2.475183	0.039077	1
H	-0.928618	-1.388993	1.262407	1
H	-1.627298	-0.823753	-0.263673	1
H	1.135221	-0.127573	0.858567	1
H	-0.197588	0.754147	-1.818683	1
H	1.399231	1.333207	-1.181833	1
H	-1.363788	1.617077	0.225977	1
H	1.396072	2.394197	0.911117	1
Es	0.039362	-2.081923	-0.804621	99
Es	-0.687243	-1.080884	0.238731	99
Es	-0.046717	-2.175485	-0.473816	99
Es	0.859748	-0.053584	0.664942	99
Es	0.443453	-2.355777	-0.141769	99
Es	1.081251	1.224522	-1.091904	99
Es	-0.085110	0.734887	0.452308	99
Es	-0.854574	-1.285888	0.950840	99
Es	-1.331279	-0.899764	-0.108397	99
Es	0.407949	0.968960	-0.944510	99
Es	0.194583	2.055381	0.768352	99
Es	0.254556	0.078276	0.262261	99
Es	0.350097	2.696583	0.996572	99
Es	0.440742	2.419129	1.088432	99
Es	-0.222118	-0.488717	0.241485	99
Es	-0.287665	1.482956	0.284639	99
Es	-0.328329	-1.718192	-0.143757	99
Es	-0.429483	-2.660231	-0.459321	99
Es	-1.013685	1.578586	0.254072	99
Es	0.404551	2.326082	1.377855	99
Es	0.947673	2.375427	0.969170	99
Es	-0.005273	0.821923	-1.530572	99
Es	0.418473	0.386074	-0.435977	99
Es	0.034434	1.389819	-0.432843	99
39
Properties=species:S:1:pos:R:3:Z:I:1 energy=-286.07115621872634 field_type=dipole dipole="0.000000 0.000000 0.000000" charge=0
N	-0.046578	-2.175333	-0.474333	7
C	-0.687318	-1.080793	0.238807	6
C	0.254582	0.078157	0.262367	6
C	0.407992	0.968997	-0.944663	6
C	-0.287898	1.482907	0.284577	6
O	0.440592	2.419327	1.088697	8
H	-0.674958	-2.976393	-0.488413	1
H	0.780352	-2.475183	0.039077	1
H	-0.928618	-1.388993	1.262407	1
H	-1.627298	-0.823753	-0.263673	1
H	1.135221	-0.127573	0.858567	1
H	-0.197588	0.754147	-1.818683	1
H	1.399231	1.333207	-1.181833	1
H	-1.363788	1.617077	0.225977	1
H	1.396072	2.394197	0.911117	1
Es	-0.428789	-2.659261	-0.457836	99
Es	-0.046725	-2.175506	-0.473768	99
Es	0.444370	-2.356012	-0.142281	99
Es	0.348458	2.697811	0.997623	99
Es	-0.328323	-1.717821	-0.143664	99
Es	0.037937	-2.082907	-0.805665	99
Es	0.195434	2.056598	0.768573	99
Es	-1.013883	1.578661	0.254193	99
Es	0.407948	0.968959	-0.944508	99
Es	1.081531	1.224536	-1.092301	99
Es	-0.222191	-0.488697	0.241616	99
Es	-0.687243	-1.080884	0.238731	99
Es	-0.854597	-1.285875	0.950968	99
Es	0.254552	0.078289	0.262260	99
Es	-1.331287	-0.899634	-0.108618	99
Es	-0.084957	0.734876	0.452485	99
Es	0.404646	2.323709	1.376968	99
Es	-0.005050	0.822234	-1.529910	99
Es	0.418107	0.385554	-0.436225	99
Es	0.948248	2.375170	0.968546	99
Es	0.034311	1.390023	-0.433019	99
Es	0.859823	-0.053769	0.664921	99
Es	-0.287663	1.482951	0.284630	99
Es	0.440739	2.419152	1.088453	99
39
Properties=species:S:1:pos:R:3:Z:I:1 energy=-286.07115621872634 field_type=dipole dipole="0.000000 0.000000 0.000000" charge=0
N	-0.046578	-2.175333	-0.474333	7
C	-0.687318	-1.080793	0.238807	6
C	0.254582	0.078157	0.262367	6
C	0.407992	0.968997	-0.944663	6
C	-0.287898	1.482907	0.284577	6
O	0.440592	2.419327	1.088697	8
H	-0.674958	-2.976393	-0.488413	1
H	0.780352	-2.475183	0.039077	1
H	-0.928618	-1.388993	1.262407	1
H	-1.627298	-0.823753	-0.263673	1
H	1.135221	-0.127573	0.858567	1
H	-0.197588	0.754147	-1.818683	1
H	1.399231	1.333207	-1.181833	1
H	-1.363788	1.617077	0.225977	1
H	1.396072	2.394197	0.911117	1
Es	0.196655	2.055814	0.770133	99
Es	-0.328357	-1.717850	-0.143929	99
Es	0.347642	2.697742	0.995182	99
Es	0.444219	-2.355744	-0.141909	99
Es	-0.084835	0.734743	0.452489	99
Es	1.081721	1.224598	-1.092680	99
Es	-0.004925	0.822407	-1.529349	99
Es	0.417748	0.385241	-0.436318	99
Es	-1.331383	-0.899499	-0.108782	99
Es	0.034347	1.390199	-0.433206	99
Es	0.407945	0.968958	-0.944502	99
Es	-0.287663	1.482950	0.284629	99
Es	-0.046725	-2.175514	-0.473786	99
Es	0.403299	2.325095	1.376838	99
Es	-1.014101	1.578756	0.254228	99
Es	0.859965	-0.053968	0.665033	99
Es	-0.854495	-1.285844	0.951095	99
Es	0.949080	2.374481	0.969398	99
Es	0.440739	2.419119	1.088474	99
Es	0.254552	0.078287	0.262265	99
Es	0.037846	-2.083319	-0.806807	99
Es	-0.428443	-2.658992	-0.456715	99
Es	-0.222189	-0.488617	0.241655	99
Es	-0.687244	-1.080883	0.238734	99
39
Properties=species:S:1:pos:R:3:Z:I:1 energy=-286.07115621872634 field_type=dipole dipole="0.000000 0.000000 0.000000" charge=0
N	-0.046578	-2.175333	-0.474333	7
C	-0.687318	-1.080793	0.238807	6
C	0.254582	0.078157	0.262367	6
C	0.407992	0.968997	-0.944663	6
C	-0.287898	1.482907	0.284577	6
O	0.440592	2.419327	1.088697	8
H	-0.674958	-2.976393	-0.488413	1
H	0.780352	-2.475183	0.039077	1
H	-0.928618	-1.388993	1.262407	1
H	-1.627298	-0.823753	-0.263673	1
H	1.135221	-0.127573	0.858567	1
H	-0.197588	0.754147	-1.818683	1
H	1.399231	1.333207	-1.181833	1
H	-1.363788	1.617077	0.225977	1
H	1.396072	2.394197	0.911117	1
Es	-1.331397	-0.899411	-0.108878	99
Es	1.081962	1.224500	-1.092920	99
Es	0.403212	2.324782	1.377746	99
Es	-0.084785	0.734788	0.452781	99
Es	-0.287664	1.482955	0.284631	99
Es	-0.328193	-1.717881	-0.143846	99
Es	0.417369	0.385088	-0.436543	99
Es	0.034372	1.390240	-0.433239	99
Es	0.440765	2.419042	1.088488	99
Es	-0.046735	-2.175504	-0.473795	99
Es	0.254551	0.078283	0.262273	99
Es	-0.222220	-0.488583	0.241746	99
Es	-0.004740	0.822589	-1.528908	99
Es	0.444651	-2.356088	-0.142005	99
Es	0.347312	2.697994	0.994302	99
Es	0.197131	2.056412	0.770898	99
Es	-1.014296	1.578900	0.254256	99
Es	-0.428396	-2.658471	-0.456490	99
Es	0.407949	0.968960	-0.944505	99
Es	-0.854494	-1.285832	0.951131	99
Es	0.860040	-0.054139	0.664921	99
Es	0.948930	2.373855	0.968389	99
Es	-0.687246	-1.080881	0.238734	99
Es	0.037319	-2.083443	-0.806994	99
39
Properties=species:S:1:pos:R:3:Z:I:1 energy=-286.07115621872634 field_type=dipole dipole="0.000000 0.000000 0.000000" charge=0
N	-0.046578	-2.175333	-0.474333	7
C	-0.687318	-1.080793	0.238807	6
C	0.254582	0.078157	0.262367	6
C	0.407992	0.968997	-0.944663	6
C	-0.287898	1.482907	0.284577	6
O	0.440592	2.419327	1.088697	8
H	-0.674958	-2.976393	-0.488413	1
H	0.780352	-2.475183	0.039077	1
H	-0.928618	-1.388993	1.262407	1
H	-1.627298	-0.823753	-0.263673	1
H	1.135221	-0.127573	0.858567	1
H	-0.197588	0.754147	-1.818683	1
H	1.399231	1.333207	-1.181833	1
H	-1.363788	1.617077	0.225977	1
H	1.396072	2.394197	0.911117	1
Es	0.254552	0.078285	0.262269	99
Es	0.198303	2.058931	0.769438	99
Es	-1.014346	1.579003	0.254217	99
Es	-0.046727	-2.175502	-0.473786	99
Es	0.034482	1.390094	-0.433200	99
Es	0.417175	0.384817	-0.436696	99
Es	-0.854485	-1.285888	0.951168	99
Es	0.949468	2.374517	0.967873	99
Es	-0.287663	1.482952	0.284629	99
Es	-0.222297	-0.488504	0.241828	99
Es	0.860096	-0.054217	0.664874	99
Es	-0.084732	0.734831	0.452933	99
Es	0.407947	0.968959	-0.944506	99
Es	0.445144	-2.355785	-0.142414	99
Es	0.345072	2.699747	0.998070	99
Es	0.403640	2.319732	1.375809	99
Es	-0.687245	-1.080881	0.238734	99
Es	-0.004764	0.822845	-1.528621	99
Es	-0.328100	-1.718140	-0.143739	99
Es	-1.331390	-0.899385	-0.108874	99
Es	1.082129	1.224567	-1.093094	99
Es	0.036460	-2.083537	-0.807690	99
Es	-0.428097	-2.658366	-0.455545	99
Es	0.440775	2.419083	1.088495	99
39
Properties=species:S:1:pos:R:3:Z:I:1 energy=-286.07115621872634 field_type=dipole dipole="0.000000 0.000000 0.000000" charge=0
N	-0.046578	-2.175333	-0.474333	7
C	-0.687318	-1.080793	0.238807	6
C	0.254582	0.078157	0.262367	6
C	0.407992	0.968997	-0.944663	6
C	-0.287898	1.482907	0.284577	6
O	0.440592	2.419327	1.088697	8
H	-0.674958	-2.976393	-0.488413	1
H	0.780352	-2.475183	0.039077	1
H	-0.928618	-1.388993	1.262407	1
H	-1.627298	-0.823753	-0.263673	1
H	1.135221	-0.127573	0.858567	1
H	-0.197588	0.754147	-1.818683	1
H	1.399231	1.333207	-1.181833	1
H	-1.363788	1.617077	0.225977	1
H	1.396072	2.394197	0.911117	1
Es	-0.687245	-1.080882	0.238733	99
Es	0.034419	1.390206	-0.433532	99
Es	0.254552	0.078284	0.262270	99
Es	0.860235	-0.054214	0.664853	99
Es	-0.427854	-2.657970	-0.455468	99
Es	1.082239	1.224692	-1.093264	99
Es	0.445278	-2.356022	-0.142326	99
Es	-0.084621	0.734645	0.452969	99
Es	0.403221	2.322759	1.376919	99
Es	-0.287664	1.482953	0.284631	99
Es	0.198905	2.056967	0.772040	99
Es	0.440682	2.419187	1.088541	99
Es	-0.222284	-0.488581	0.241854	99
Es	-1.014503	1.578976	0.254376	99
Es	0.407947	0.968959	-0.944503	99
Es	0.344604	2.698459	0.994439	99
Es	0.949762	2.374495	0.967664	99
Es	-1.331468	-0.899352	-0.108971	99
Es	-0.854416	-1.285817	0.951214	99
Es	-0.328198	-1.717984	-0.143703	99
Es	-0.004600	0.822822	-1.528318	99
Es	0.416844	0.384908	-0.436644	99
Es	0.036288	-2.083824	-0.807809	99
Es	-0.046729	-2.175505	-0.473792	99
39
Properties=species:S:1:pos:R:3:Z:I:1 energy=-286.07115621872634 field_type=dipole dipole="0.000000 0.000000 0.000000" charge=0
N	-0.046578	-2.175333	-0.474333	7
C	-0.687318	-1.080793	0.238807	6
C	0.254582	0.078157	0.262367	6
C	0.407992	0.968997	-0.944663	6
C	-0.287898	1.482907	0.284577	6
O	0.440592	2.419327	1.088697	8
H	-0.674958	-2.976393	-0.488413	1
H	0.780352	-2.475183	0.039077	1
H	-0.928618	-1.388993	1.262407	1
H	-1.627298	-0.823753	-0.263673	1
H	1.135221	-0.127573	0.858567	1
H	-0.197588	0.754147	-1.818683	1
H	1.399231	1.333207	-1.181833	1
H	-1.363788	1.617077	0.225977	1
H	1.396072	2.394197	0.911117	1
Es	0.198265	2.058481	0.771362	99
Es	-0.287663	1.482954	0.284631	99
Es	-0.084543	0.734497	0.453153	99
Es	0.860216	-0.054433	0.664892	99
Es	0.445591	-2.355977	-0.142312	99
Es	-0.046722	-2.175496	-0.473793	99
Es	-1.014529	1.579044	0.254415	99
Es	0.034248	1.390530	-0.433926	99
Es	-0.427787	-2.657765	-0.455092	99
Es	-0.687245	-1.080882	0.238733	99
Es	0.440765	2.419170	1.088408	99
Es	0.416626	0.384805	-0.436544	99
Es	-0.328210	-1.717779	-0.144024	99
Es	-0.222229	-0.488315	0.241861	99
Es	0.254551	0.078288	0.262267	99
Es	0.407946	0.968963	-0.944503	99
Es	1.082360	1.224678	-1.093470	99
Es	-0.854547	-1.285922	0.951227	99
Es	0.035916	-2.084219	-0.807898	99
Es	0.344654	2.699158	0.996513	99
Es	0.403597	2.321039	1.376409	99
Es	-0.004325	0.822788	-1.527924	99
Es	-1.331364	-0.899352	-0.109021	99
Es	0.949827	2.373903	0.966808	99
39
Properties=species:S:1:pos:R:3:Z:I:1 energy=-286.07115621872634 field_type=dipole dipole="0.000000 0.000000 0.000000" charge=0
N	-0.046578	-2.175333	-0.474333	7
C	-0.687318	-1.080793	0.238807	6
C	0.254582	0.078157	0.262367	6
C	0.407992	0.968997	-0.944663	6
C	-0.287898	1.482907	0.284577	6
O	0.440592	2.419327	1.088697	8
H	-0.674958	-2.976393	-0.488413	1
H	0.780352	-2.475183	0.039077	1
H	-0.928618	-1.388993	1.262407	1
H	-1.627298	-0.823753	-0.263673	1
H	1.135221	-0.127573	0.858567	1
H	-0.197588	0.754147	-1.818683	1
H	1.399231	1.333207	-1.181833	1
H	-1.363788	1.617077	0.225977	1
H	1.396072	2.394197	0.911117	1
Es	-0.046731	-2.175492	-0.473809	99
Es	-0.222430	-0.488495	0.241850	99
Es	0.860235	-0.054388	0.664916	99
Es	0.404111	2.321014	1.376191	99
Es	0.342866	2.699176	0.995862	99
Es	-0.427745	-2.657638	-0.455125	99
Es	-0.687244	-1.080883	0.238733	99
Es	0.254552	0.078286	0.262266	99
Es	-1.014659	1.579061	0.254483	99
Es	0.445663	-2.356087	-0.142315	99
Es	0.949975	2.374846	0.966418	99
Es	1.082462	1.224699	-1.093548	99
Es	0.440735	2.419064	1.088470	99
Es	-0.084385	0.734585	0.452947	99
Es	-1.331481	-0.899297	-0.109060	99
Es	-0.287664	1.482953	0.284631	99
Es	0.199386	2.057542	0.772500	99
Es	0.034289	1.390473	-0.433698	99
Es	0.035793	-2.083860	-0.808115	99
Es	0.416588	0.384614	-0.436718	99
Es	-0.004385	0.822990	-1.527797	99
Es	-0.328102	-1.718152	-0.143723	99
Es	-0.854380	-1.285813	0.951319	99
Es	0.407949	0.968959	-0.944508	99
39
Properties=species:S:1:pos:R:3:Z:I:1 energy=-286.07115621872634 field_type=dipole dipole="0.000000 0.000000 0.000000" charge=0
N	-0.046578	-2.175333	-0.474333	7
C	-0.687318	-1.080793	0.238807	6
C	0.254582	0.078157	0.262367	6
C	0.407992	0.968997	-0.944663	6
C	-0.287898	1.482907	0.284577	6
O	0.440592	2.419327	1.088697	8
H	-0.674958	-2.976393	-0.488413	1
H	0.780352	-2.475183	0.039077	1
H	-0.928618	-1.388993	1.262407	1
H	-1.627298	-0.823753	-0.263673	1
H	1.135221	-0.127573	0.858567	1
H	-0.197588	0.754147	-1.818683	1
H	1.399231	1.333207	-1.181833	1
H	-1.363788	1.617077	0.225977	1
H	1.396072	2.394197	0.911117	1
Es	-0.687244	-1.080882	0.238733	99
Es	0.407943	0.968960	-0.944497	99
Es	-1.014708	1.579078	0.254476	99
Es	0.034375	1.390366	-0.433703	99
Es	0.035436	-2.084428	-0.808487	99
Es	0.440745	2.419157	1.088405	99
Es	0.860328	-0.054355	0.664877	99
Es	0.344286	2.699168	0.992863	99
Es	1.082586	1.224701	-1.093739	99
Es	-0.046730	-2.175507	-0.473800	99
Es	-0.222406	-0.488483	0.241980	99
Es	-1.331492	-0.899307	-0.109099	99
Es	-0.004382	0.823050	-1.527536	99
Es	-0.287663	1.482952	0.284631	99
Es	-0.084363	0.734644	0.452974	99
Es	0.445804	-2.356086	-0.142454	99
Es	-0.427543	-2.657346	-0.454463	99
Es	0.416404	0.384578	-0.436824	99
Es	0.199685	2.057570	0.773299	99
Es	-0.328125	-1.717855	-0.143816	99
Es	0.254551	0.078287	0.262269	99
Es	0.950057	2.372721	0.967738	99
Es	-0.854418	-1.285825	0.951270	99
Es	0.402270	2.323004	1.377074	99
39
Properties=species:S:1:pos:R:3:Z:I:1 energy=-286.07115621872634 field_type=dipole dipole="0.000000 0.000000 0.000000" charge=0
N	-0.046578	-2.175333	-0.474333	7
C	-0.687318	-1.080793	0.238807	6
C	0.254582	0.078157	0.262367	6
C	0.407992	0.968997	-0.944663	6
C	-0.287898	1.482907	0.284577	6
O	0.440592	2.419327	1.088697	8
H	-0.674958	-2.976393	-0.488413	1
H	0.780352	-2.475183	0.039077	1
H	-0.928618	-1.388993	1.262407	1
H	-1.627298	-0.823753	-0.263673	1
H	1.135221	-0.127573	0.858567	1
H	-0.197588	0.754147	-1.818683	1
H	1.399231	1.333207	-1.181833	1
H	-1.363788	1.617077	0.225977	1
H	1.396072	2.394197	0.911117	1
Es	0.254551	0.078286	0.262263	99
Es	-0.046720	-2.175487	-0.473818	99
Es	-0.004339	0.823221	-1.527367	99
Es	0.034329	1.390359	-0.433658	99
Es	-0.854347	-1.285849	0.951259	99
Es	0.401702	2.324159	1.378285	99
Es	-0.687244	-1.080883	0.238733	99
Es	0.446173	-2.355996	-0.142624	99
Es	0.860378	-0.054434	0.664838	99
Es	-0.222427	-0.488478	0.242002	99
Es	0.199904	2.057538	0.774181	99
Es	-0.328077	-1.717619	-0.144078	99
Es	-0.427576	-2.657377	-0.454393	99
Es	-0.287663	1.482948	0.284630	99
Es	0.950218	2.372819	0.967117	99
Es	0.407944	0.968960	-0.944500	99
Es	-1.331557	-0.899257	-0.109092	99
Es	0.416331	0.384354	-0.436861	99
Es	-1.014714	1.579201	0.254459	99
Es	0.035104	-2.084711	-0.808148	99
Es	1.082600	1.224792	-1.093822	99
Es	0.344391	2.697950	0.991239	99
Es	-0.084360	0.734589	0.453051	99
Es	0.440797	2.419074	1.088477	99
39
Properties=species:S:1:pos:R:3:Z:I:1 energy=-286.07115621872634 field_type=dipole dipole="0.000000 0.000000 0.000000" charge=0
N	-0.046578	-2.175333	-0.474333	7
C	-0.687318	-1.080793	0.238807	6
C	0.254582	0.078157	0.262367	6
C	0.407992	0.968997	-0.944663	6
C	-0.287898	1.482907	0.284577	6
O	0.440592	2.419327	1.088697	8
H	-0.674958	-2.976393	-0.488413	1
H	0.780352	-2.475183	0.039077	1
H	-0.928618	-1.388993	1.262407	1
H	-1.627298	-0.823753	-0.263673	1
H	1.135221	-0.127573	0.858567	1
H	-0.197588	0.754147	-1.818683	1
H	1.399231	1.333207	-1.181833	1
H	-1.363788	1.617077	0.225977	1
H	1.396072	2.394197	0.911117	1
Es	-0.687245	-1.080882	0.238733	99
Es	-0.287663	1.482950	0.284627	99
Es	0.402600	2.320797	1.376828	99
Es	-0.046727	-2.175496	-0.473813	99
Es	0.034229	1.390783	-0.434140	99
Es	0.415888	0.384700	-0.436430	99
Es	-0.222449	-0.488562	0.242053	99
Es	0.200523	2.058722	0.773257	99
Es	0.950361	2.373576	0.966593	99
Es	-0.084030	0.734488	0.452889	99
Es	-0.427369	-2.657203	-0.454286	99
Es	1.082793	1.224583	-1.093913	99
Es	0.035094	-2.084498	-0.808599	99
Es	0.342759	2.699285	0.994120	99
Es	0.254553	0.078281	0.262260	99
Es	0.446088	-2.356051	-0.142493	99
Es	0.860485	-0.054394	0.664808	99
Es	-1.014838	1.579057	0.254660	99
Es	0.440716	2.419102	1.088460	99
Es	-0.328215	-1.717963	-0.143854	99
Es	-0.004178	0.822988	-1.527207	99
Es	-1.331500	-0.899212	-0.109127	99
Es	0.407946	0.968961	-0.944503	99
Es	-0.854424	-1.285853	0.951252	99
39
Properties=species:S:1:pos:R:3:Z:I:1 energy=-286.07115621872634 field_type=dipole dipole="0.000000 0.000000 0.000000" charge=0
N	-0.046578	-2.175333	-0.474333	7
C	-0.687318	-1.080793	0.238807	6
C	0.254582	0.078157	0.262367	6
C	0.407992	0.968997	-0.944663	6
C	-0.287898	1.482907	0.284577	6
O	0.440592	2.419327	1.088697	8
H	-0.674958	-2.976393	-0.488413	1
H	0.780352	-2.475183	0.039077	1
H	-0.928618	-1.388993	1.262407	1
H	-1.627298	-0.823753	-0.263673	1
H	1.135221	-0.127573	0.858567	1
H	-0.197588	0.754147	-1.818683	1
H	1.399231	1.333207	-1.181833	1
H	-1.363788	1.617077	0.225977	1
H	1.396072	2.394197	0.911117	1
Es	0.860408	-0.054539	0.664818	99
Es	-1.014781	1.579157	0.254561	99
Es	0.416117	0.384464	-0.436719	99
Es	0.199581	2.059387	0.772435	99
Es	-0.427120	-2.657076	-0.453272	99
Es	-0.046731	-2.175501	-0.473795	99
Es	-0.687243	-1.080884	0.238731	99
Es	-0.084033	0.734487	0.453068	99
Es	-0.222497	-0.488371	0.242073	99
Es	0.407945	0.968973	-0.944507	99
Es	0.254551	0.078289	0.262270	99
Es	0.440725	2.419104	1.088490	99
Es	-0.287663	1.482954	0.284629	99
Es	0.403748	2.319116	1.375434	99
Es	0.034121	1.390716	-0.434033	99
Es	-0.854360	-1.285834	0.951305	99
Es	0.034106	-2.084602	-0.809265	99
Es	0.342473	2.700221	0.996780	99
Es	1.082755	1.224772	-1.094113	99
Es	0.446633	-2.355790	-0.143135	99
Es	-0.328021	-1.718183	-0.143491	99
Es	0.950360	2.373611	0.966054	99
Es	-0.004118	0.822957	-1.526964	99
Es	-1.331559	-0.899270	-0.109180	99
39
Properties=species:S:1:pos:R:3:Z:I:1 energy=-286.07115621872634 field_type=dipole dipole="0.000000 0.000000 0.000000" charge=0
N	-0.046578	-2.175333	-0.474333	7
C	-0.687318	-1.080793	0.238807	6
C	0.254582	0.078157	0.262367	6
C	0.407992	0.968997	-0.944663	6
C	-0.287898	1.482907	0.284577	6
O	0.440592	2.419327	1.088697	8
H	-0.674958	-2.976393	-0.488413	1
H	0.780352	-2.475183	0.039077	1
H	-0.928618	-1.388993	1.262407	1
H	-1.627298	-0.823753	-0.263673	1
H	1.135221	-0.127573	0.858567	1
H	-0.197588	0.754147	-1.818683	1
H	1.399231	1.333207	-1.181833	1
H	-1.363788	1.617077	0.225977	1
H	1.396072	2.394197	0.911117	1
Es	-1.014871	1.579226	0.254469	99
Es	0.034103	1.390471	-0.433912	99
Es	-0.046729	-2.175501	-0.473798	99
Es	-0.427418	-2.657326	-0.454232	99
Es	0.416089	0.384233	-0.436872	99
Es	-0.854366	-1.285853	0.951269	99
Es	0.034705	-2.084554	-0.808300	99
Es	0.440725	2.419141	1.088457	99
Es	0.860386	-0.054477	0.664829	99
Es	0.200817	2.060811	0.771854	99
Es	0.401615	2.318740	1.376637	99
Es	-0.328168	-1.717877	-0.143877	99
Es	-1.331562	-0.899222	-0.109159	99
Es	0.343127	2.699675	0.995378	99
Es	-0.222554	-0.488439	0.242179	99
Es	0.407946	0.968960	-0.944502	99
Es	-0.084023	0.734608	0.453059	99
Es	0.446495	-2.355905	-0.142795	99
Es	0.254551	0.078290	0.262268	99
Es	0.950616	2.373086	0.966797	99
Es	-0.287663	1.482950	0.284627	99
Es	-0.687244	-1.080883	0.238733	99
Es	1.082794	1.224867	-1.094042	99
Es	-0.003973	0.823136	-1.526893	99
39
Properties=species:S:1:pos:R:3:Z:I:1 energy=-286.07115621872634 field_type=dipole dipole="0.000000 0.000000 0.000000" charge=0
N	-0.046578	-2.175333	-0.474333	7
C	-0.687318	-1.080793	0.238807	6
C	0.254582	0.078157	0.262367	6
C	0.407992	0.968997	-0.944663	6
C	-0.287898	1.482907	0.284577	6
O	0.440592	2.419327	1.088697	8
H	-0.674958	-2.976393	-0.488413	1
H	0.780352	-2.475183	0.039077	1
H	-0.928618	-1.388993	1.262407	1
H	-1.627298	-0.823753	-0.263673	1
H	1.135221	-0.127573	0.858567	1
H	-0.197588	0.754147	-1.818683	1
H	1.399231	1.333207	-1.181833	1
H	-1.363788	1.617077	0.225977	1
H	1.396072	2.394197	0.911117	1
Es	-0.046741	-2.175510	-0.473796	99
Es	1.082952	1.224644	-1.094111	99
Es	0.341946	2.698721	0.992852	99
Es	0.254551	0.078287	0.262268	99
Es	-0.687244	-1.080882	0.238733	99
Es	-1.014917	1.579191	0.254576	99
Es	0.415691	0.384176	-0.436767	99
Es	-0.287663	1.482950	0.284629	99
Es	0.860480	-0.054473	0.664820	99
Es	0.950703	2.373566	0.966079	99
Es	-0.222696	-0.488554	0.242195	99
Es	-1.331519	-0.899170	-0.109265	99
Es	-0.083987	0.734525	0.452909	99
Es	0.034426	1.390666	-0.434002	99
Es	0.446577	-2.356003	-0.142810	99
Es	0.034442	-2.084557	-0.808768	99
Es	0.407946	0.968959	-0.944501	99
Es	-0.854402	-1.285839	0.951362	99
Es	-0.327924	-1.718012	-0.143769	99
Es	0.200772	2.057855	0.774872	99
Es	-0.427250	-2.657023	-0.453880	99
Es	0.440747	2.419046	1.088490	99
Es	-0.004180	0.823455	-1.526828	99
Es	0.402685	2.322141	1.376884	99
39
Properties=species:S:1:pos:R:3:Z:I:1 energy=-286.07115621872634 field_type=dipole dipole="0.000000 0.000000 0.000000" charge=0
N	-0.046578	-2.175333	-0.474333	7
C	-0.687318	-1.080793	0.238807	6
C	0.254582	0.078157	0.262367	6
C	0.407992	0.968997	-0.944663	6
C	-0.287898	1.482907	0.284577	6
O	0.440592	2.419327	1.088697	8
H	-0.674958	-2.976393	-0.488413	1
H	0.780352	-2.475183	0.039077	1
H	-0.928618	-1.388993	1.262407	1
H	-1.627298	-0.823753	-0.263673	1
H	1.135221	-0.127573	0.858567	1
H	-0.197588	0.754147	-1.818683	1
H	1.399231	1.333207	-1.181833	1
H	-1.363788	1.617077	0.225977	1
H	1.396072	2.394197	0.911117	1
Es	-0.854372	-1.285871	0.951316	99
Es	0.254552	0.078285	0.262267	99
Es	1.082970	1.224770	-1.094294	99
Es	-0.222582	-0.488393	0.242185	99
Es	0.407946	0.968961	-0.944503	99
Es	0.950839	2.373419	0.966526	99
Es	0.446435	-2.355864	-0.142787	99
Es	0.341773	2.699720	0.995061	99
Es	0.440731	2.419190	1.088345	99
Es	-0.687245	-1.080883	0.238733	99
Es	-0.004042	0.823340	-1.526567	99
Es	0.415725	0.384206	-0.436911	99
Es	-0.287663	1.482952	0.284630	99
Es	-1.014957	1.579213	0.254551	99
Es	-0.427275	-2.657079	-0.453509	99
Es	-0.046727	-2.175500	-0.473806	99
Es	-0.327906	-1.718009	-0.143770	99
Es	0.860512	-0.054576	0.664842	99
Es	-0.083976	0.734537	0.453037	99
Es	-1.331572	-0.899195	-0.109262	99
Es	0.402384	2.319434	1.375918	99
Es	0.201120	2.059576	0.773250	99
Es	0.034467	-2.084636	-0.809106	99
Es	0.034263	1.390560	-0.433976	99
39
Properties=species:S:1:pos:R:3:Z:I:1 energy=-286.07115621872634 field_type=dipole dipole="0.000000 0.000000 0.000000" charge=0
N	-0.046578	-2.175333	-0.474333	7
C	-0.687318	-1.080793	0.238807	6
C	0.254582	0.078157	0.262367	6
C	0.407992	0.968997	-0.944663	6
C	-0.287898	1.482907	0.284577	6
O	0.440592	2.419327	1.088697	8
H	-0.674958	-2.976393	-0.488413	1
H	0.780352	-2.475183	0.039077	1
H	-0.928618	-1.388993	1.262407	1
H	-1.627298	-0.823753	-0.263673	1
H	1.135221	-0.127573	0.858567	1
H	-0.197588	0.754147	-1.818683	1
H	1.399231	1.333207	-1.181833	1
H	-1.363788	1.617077	0.225977	1
H	1.396072	2.394197	0.911117	1
Es	0.860543	-0.054680	0.664828	99
Es	0.254551	0.078285	0.262271	99
Es	-0.854397	-1.285946	0.951294	99
Es	-0.687244	-1.080884	0.238732	99
Es	1.082963	1.224713	-1.094297	99
Es	0.342073	2.699518	0.993896	99
Es	0.034179	-2.084465	-0.808730	99
Es	-0.222548	-0.488231	0.242194	99
Es	0.034290	1.390651	-0.434047	99
Es	0.446781	-2.355941	-0.143065	99
Es	-0.328004	-1.718056	-0.143671	99
Es	-0.287664	1.482951	0.284630	99
Es	-0.003960	0.823394	-1.526513	99
Es	-1.331538	-0.899203	-0.109199	99
Es	-0.427269	-2.657080	-0.453785	99
Es	0.201210	2.059378	0.773686	99
Es	-1.015044	1.579246	0.254600	99
Es	-0.046739	-2.175520	-0.473779	99
Es	0.950857	2.373025	0.966606	99
Es	-0.083883	0.734413	0.453111	99
Es	0.401950	2.320240	1.376445	99
Es	0.407946	0.968959	-0.944501	99
Es	0.415591	0.384289	-0.436965	99
Es	0.440752	2.419102	1.088431	99
39
Properties=species:S:1:pos:R:3:Z:I:1 energy=-286.07115621872634 field_type=dipole dipole="0.000000 0.000000 0.000000" charge=0
N	-0.046578	-2.175333	-0.474333	7
C	-0.687318	-1.080793	0.238807	6
C	0.254582	0.078157	0.262367	6
C	0.407992	0.968997	-0.944663	6
C	-0.287898	1.482907	0.284577	6
O	0.440592	2.419327	1.088697	8
H	-0.674958	-2.976393	-0.488413	1
H	0.780352	-2.475183	0.039077	1
H	-0.928618	-1.388993	1.262407	1
H	-1.627298	-0.823753	-0.263673	1
H	1.135221	-0.127573	0.858567	1
H	-0.197588	0.754147	-1.818683	1
H	1.399231	1.333207	-1.181833	1
H	-1.363788	1.617077	0.225977	1
H	1.396072	2.394197	0.911117	1
Es	0.034112	-2.085001	-0.808659	99
Es	0.343020	2.697640	0.988957	99
Es	0.202133	2.058065	0.775425	99
Es	-0.427133	-2.657020	-0.453587	99
Es	-0.083826	0.734396	0.453013	99
Es	0.034277	1.390725	-0.434226	99
Es	0.446853	-2.355854	-0.142998	99
Es	-1.331564	-0.899160	-0.109183	99
Es	1.083038	1.224755	-1.094378	99
Es	0.860594	-0.054579	0.664798	99
Es	0.254546	0.078291	0.262273	99
Es	0.407946	0.968958	-0.944503	99
Es	0.399619	2.324229	1.378268	99
Es	-0.046727	-2.175508	-0.473791	99
Es	0.951263	2.372215	0.967930	99
Es	0.415482	0.384273	-0.436629	99
Es	-1.015012	1.579264	0.254570	99
Es	-0.222603	-0.488385	0.242243	99
Es	-0.687246	-1.080881	0.238735	99
Es	-0.328117	-1.717794	-0.143988	99
Es	0.440753	2.419118	1.088447	99
Es	-0.854381	-1.285842	0.951242	99
Es	-0.287663	1.482952	0.284632	99
Es	-0.003967	0.823298	-1.526418	99
