36
Properties=species:S:1:pos:R:3:Z:I:1 energy=-284.89250650849164 field_type=dipole dipole="0.000000 0.000000 0.000000" charge=0
O	-2.800726	0.483862	1.047089	8
C	-1.681046	0.936992	0.813879	6
C	-0.804036	0.451362	-0.316291	6
N	0.570974	0.346832	0.188959	7
C	1.003954	-1.026698	0.437019	6
C	1.480494	-0.269268	-0.773941	6
H	-1.298686	1.803282	1.380739	1
H	-0.848896	1.205441	-1.109161	1
H	-1.213816	-0.488668	-0.704981	1
H	0.299114	-1.837838	0.297699	1
H	1.700264	-1.162868	1.256229	1
H	2.496024	0.108592	-0.770281	1
H	1.096384	-0.551018	-1.746961	1
Es	1.003914	-1.026469	0.436915	99
Es	0.687386	0.608700	0.399560	99
Es	0.570792	0.346324	0.188571	99
Es	-0.803923	0.451392	-0.316201	99
Es	0.517008	-1.568964	0.340963	99
Es	-1.072457	-0.190757	-0.580200	99
Es	2.167536	-0.010856	-0.775920	99
Es	1.472290	-1.119472	0.994556	99
Es	1.209833	-0.455335	-1.433869	99
Es	-2.947325	0.631725	1.281994	99
Es	-1.406907	1.524125	1.195265	99
Es	0.655531	-0.262678	0.409176	99
Es	0.950389	0.191822	-0.320195	99
Es	-2.492225	0.808159	0.797585	99
Es	-1.681055	0.936967	0.813863	99
Es	-2.874133	0.245872	0.857472	99
Es	1.480326	-0.269221	-0.773747	99
Es	-2.288335	0.483844	1.127277	99
Es	1.364091	-0.821308	-0.231902	99
Es	-0.840700	0.966350	-0.838489	99
Es	-0.029227	0.360850	-0.047368	99
Es	-1.235582	0.685467	0.254928	99
Es	-2.800431	0.483985	1.047029	99
36
Properties=species:S:1:pos:R:3:Z:I:1 energy=-284.89250650849164 field_type=dipole dipole="0.000000 0.000000 0.000000" charge=0
O	-2.800726	0.483862	1.047089	8
C	-1.681046	0.936992	0.813879	6
C	-0.804036	0.451362	-0.316291	6
N	0.570974	0.346832	0.188959	7
C	1.003954	-1.026698	0.437019	6
C	1.480494	-0.269268	-0.773941	6
H	-1.298686	1.803282	1.380739	1
H	-0.848896	1.205441	-1.109161	1
H	-1.213816	-0.488668	-0.704981	1
H	0.299114	-1.837838	0.297699	1
H	1.700264	-1.162868	1.256229	1
H	2.496024	0.108592	-0.770281	1
H	1.096384	-0.551018	-1.746961	1
Es	-1.407431	1.524292	1.194512	99
Es	0.516124	-1.569467	0.342327	99
Es	-1.681048	0.936964	0.813866	99
Es	1.209611	-0.454359	-1.431782	99
Es	-0.030173	0.362105	-0.046186	99
Es	-1.235638	0.685856	0.254774	99
Es	1.003914	-1.026469	0.436913	99
Es	-2.492703	0.810853	0.795239	99
Es	-2.289294	0.483008	1.126719	99
Es	0.683884	0.602809	0.396808	99
Es	-0.840837	0.966136	-0.839286	99
Es	2.168949	-0.010160	-0.776987	99
Es	-2.800447	0.483969	1.047032	99
Es	-2.953202	0.625880	1.284753	99
Es	-2.866400	0.249222	0.858677	99
Es	0.656748	-0.263288	0.412643	99
Es	1.364388	-0.821707	-0.233092	99
Es	1.470982	-1.118500	0.993712	99
Es	0.570790	0.346308	0.188560	99
Es	-1.072221	-0.190334	-0.579340	99
Es	0.954390	0.195232	-0.322641	99
Es	1.480332	-0.269221	-0.773756	99
Es	-0.803924	0.451392	-0.316201	99
36
Properties=species:S:1:pos:R:3:Z:I:1 energy=-284.89250650849164 field_type=dipole dipole="0.000000 0.000000 0.000000" charge=0
O	-2.800726	0.483862	1.047089	8
C	-1.681046	0.936992	0.813879	6
C	-0.804036	0.451362	-0.316291	6
N	0.570974	0.346832	0.188959	7
C	1.003954	-1.026698	0.437019	6
C	1.480494	-0.269268	-0.773941	6
H	-1.298686	1.803282	1.380739	1
H	-0.848896	1.205441	-1.109161	1
H	-1.213816	-0.488668	-0.704981	1
H	0.299114	-1.837838	0.297699	1
H	1.700264	-1.162868	1.256229	1
H	2.496024	0.108592	-0.770281	1
H	1.096384	-0.551018	-1.746961	1
Es	-1.681051	0.936968	0.813863	99
Es	0.657743	-0.263771	0.414471	99
Es	0.570818	0.346338	0.188587	99
Es	-2.290235	0.484604	1.127297	99
Es	1.364387	-0.821861	-0.233878	99
Es	-1.235771	0.685706	0.254851	99
Es	0.681833	0.598640	0.395204	99
Es	1.209602	-0.453513	-1.429958	99
Es	-1.071849	-0.190079	-0.579123	99
Es	-0.803921	0.451392	-0.316199	99
Es	-2.961991	0.618751	1.285832	99
Es	0.956946	0.197489	-0.323780	99
Es	-0.841174	0.966081	-0.839455	99
Es	-0.030798	0.363266	-0.045647	99
Es	0.515308	-1.569943	0.343316	99
Es	-2.493249	0.812873	0.795054	99
Es	1.003913	-1.026470	0.436915	99
Es	-1.407734	1.524414	1.194094	99
Es	1.480326	-0.269225	-0.773751	99
Es	2.169882	-0.009590	-0.777878	99
Es	-2.800468	0.483953	1.047023	99
Es	-2.855879	0.252369	0.857685	99
Es	1.470159	-1.117871	0.992740	99
36
Properties=species:S:1:pos:R:3:Z:I:1 energy=-284.89250650849164 field_type=dipole dipole="0.000000 0.000000 0.000000" charge=0
O	-2.800726	0.483862	1.047089	8
C	-1.681046	0.936992	0.813879	6
C	-0.804036	0.451362	-0.316291	6
N	0.570974	0.346832	0.188959	7
C	1.003954	-1.026698	0.437019	6
C	1.480494	-0.269268	-0.773941	6
H	-1.298686	1.803282	1.380739	1
H	-0.848896	1.205441	-1.109161	1
H	-1.213816	-0.488668	-0.704981	1
H	0.299114	-1.837838	0.297699	1
H	1.700264	-1.162868	1.256229	1
H	2.496024	0.108592	-0.770281	1
H	1.096384	-0.551018	-1.746961	1
Es	0.570784	0.346308	0.188555	99
Es	1.003909	-1.026459	0.436919	99
Es	-2.289559	0.485055	1.126998	99
Es	1.469284	-1.117215	0.991910	99
Es	2.170547	-0.009248	-0.778708	99
Es	-2.851388	0.254535	0.859186	99
Es	1.364488	-0.822071	-0.234160	99
Es	-1.407894	1.524533	1.193825	99
Es	1.480333	-0.269222	-0.773755	99
Es	1.209686	-0.452891	-1.428296	99
Es	-0.803924	0.451392	-0.316202	99
Es	-1.235629	0.686004	0.254760	99
Es	0.514611	-1.570432	0.344130	99
Es	-1.072004	-0.190203	-0.578896	99
Es	-1.681051	0.936968	0.813862	99
Es	-2.494604	0.812703	0.793378	99
Es	0.959383	0.199994	-0.324590	99
Es	-0.841259	0.965927	-0.839430	99
Es	-0.031178	0.363571	-0.045352	99
Es	-2.800532	0.483933	1.047012	99
Es	0.679697	0.595206	0.394310	99
Es	0.658702	-0.263938	0.415243	99
Es	-2.965605	0.616075	1.286564	99
36
Properties=species:S:1:pos:R:3:Z:I:1 energy=-284.89250650849164 field_type=dipole dipole="0.000000 0.000000 0.000000" charge=0
O	-2.800726	0.483862	1.047089	8
C	-1.681046	0.936992	0.813879	6
C	-0.804036	0.451362	-0.316291	6
N	0.570974	0.346832	0.188959	7
C	1.003954	-1.026698	0.437019	6
C	1.480494	-0.269268	-0.773941	6
H	-1.298686	1.803282	1.380739	1
H	-0.848896	1.205441	-1.109161	1
H	-1.213816	-0.488668	-0.704981	1
H	0.299114	-1.837838	0.297699	1
H	1.700264	-1.162868	1.256229	1
H	2.496024	0.108592	-0.770281	1
H	1.096384	-0.551018	-1.746961	1
Es	-0.803922	0.451391	-0.316200	99
Es	1.003909	-1.026468	0.436924	99
Es	2.170959	-0.008939	-0.779265	99
Es	0.570796	0.346315	0.188565	99
Es	1.468451	-1.116717	0.991201	99
Es	1.480331	-0.269222	-0.773753	99
Es	-2.841124	0.259312	0.857707	99
Es	-0.031370	0.363700	-0.045090	99
Es	-1.072167	-0.190420	-0.578786	99
Es	1.364717	-0.822083	-0.234173	99
Es	-1.681050	0.936968	0.813863	99
Es	-2.800456	0.483988	1.047042	99
Es	1.209740	-0.452467	-1.427176	99
Es	-2.975220	0.608292	1.285541	99
Es	0.659687	-0.264607	0.415098	99
Es	-1.235479	0.686221	0.254593	99
Es	-1.407968	1.524647	1.193699	99
Es	-2.494057	0.814496	0.794411	99
Es	0.678353	0.592953	0.394151	99
Es	-0.841449	0.965886	-0.839249	99
Es	0.960627	0.202210	-0.325034	99
Es	-2.290707	0.485940	1.128576	99
Es	0.514195	-1.570874	0.344616	99
36
Properties=species:S:1:pos:R:3:Z:I:1 energy=-284.89250650849164 field_type=dipole dipole="0.000000 0.000000 0.000000" charge=0
O	-2.800726	0.483862	1.047089	8
C	-1.681046	0.936992	0.813879	6
C	-0.804036	0.451362	-0.316291	6
N	0.570974	0.346832	0.188959	7
C	1.003954	-1.026698	0.437019	6
C	1.480494	-0.269268	-0.773941	6
H	-1.298686	1.803282	1.380739	1
H	-0.848896	1.205441	-1.109161	1
H	-1.213816	-0.488668	-0.704981	1
H	0.299114	-1.837838	0.297699	1
H	1.700264	-1.162868	1.256229	1
H	2.496024	0.108592	-0.770281	1
H	1.096384	-0.551018	-1.746961	1
Es	0.513874	-1.571229	0.345206	99
Es	-0.031346	0.364004	-0.045124	99
Es	1.467992	-1.116258	0.990568	99
Es	-2.492757	0.815012	0.795015	99
Es	1.209947	-0.452147	-1.426016	99
Es	1.364503	-0.822087	-0.234234	99
Es	-2.981069	0.604124	1.284123	99
Es	0.660075	-0.265052	0.414989	99
Es	0.677182	0.590951	0.394062	99
Es	-1.235391	0.686525	0.254444	99
Es	0.961970	0.203941	-0.325497	99
Es	1.003907	-1.026464	0.436919	99
Es	-1.408158	1.524839	1.193542	99
Es	-1.681050	0.936968	0.813861	99
Es	-2.292205	0.486932	1.130071	99
Es	0.570810	0.346323	0.188573	99
Es	-0.803924	0.451392	-0.316202	99
Es	-1.072302	-0.190594	-0.578689	99
Es	-0.841569	0.965664	-0.839095	99
Es	-2.800426	0.484032	1.047069	99
Es	-2.834927	0.261620	0.857180	99
Es	1.480332	-0.269223	-0.773753	99
Es	2.171328	-0.008751	-0.779747	99
36
Properties=species:S:1:pos:R:3:Z:I:1 energy=-284.89250650849164 field_type=dipole dipole="0.000000 0.000000 0.000000" charge=0
O	-2.800726	0.483862	1.047089	8
C	-1.681046	0.936992	0.813879	6
C	-0.804036	0.451362	-0.316291	6
N	0.570974	0.346832	0.188959	7
C	1.003954	-1.026698	0.437019	6
C	1.480494	-0.269268	-0.773941	6
H	-1.298686	1.803282	1.380739	1
H	-0.848896	1.205441	-1.109161	1
H	-1.213816	-0.488668	-0.704981	1
H	0.299114	-1.837838	0.297699	1
H	1.700264	-1.162868	1.256229	1
H	2.496024	0.108592	-0.770281	1
H	1.096384	-0.551018	-1.746961	1
Es	1.467420	-1.115985	0.990098	99
Es	0.513559	-1.571445	0.345484	99
Es	2.171533	-0.008559	-0.780183	99
Es	-2.800399	0.484002	1.047028	99
Es	1.003916	-1.026463	0.436920	99
Es	-0.031540	0.363992	-0.045144	99
Es	0.963169	0.205555	-0.325335	99
Es	1.480329	-0.269226	-0.773753	99
Es	-1.072436	-0.190791	-0.578817	99
Es	1.364780	-0.822115	-0.234409	99
Es	0.676020	0.589089	0.393832	99
Es	-2.831752	0.263395	0.857146	99
Es	-1.235255	0.686535	0.254383	99
Es	1.210018	-0.451772	-1.425174	99
Es	-0.841743	0.965685	-0.838722	99
Es	0.570809	0.346321	0.188572	99
Es	-1.681051	0.936969	0.813861	99
Es	-1.408181	1.524912	1.193472	99
Es	-2.292623	0.487360	1.129884	99
Es	-0.803923	0.451393	-0.316202	99
Es	-2.983531	0.600855	1.284197	99
Es	0.660718	-0.265180	0.414892	99
Es	-2.493040	0.815995	0.795234	99
36
Properties=species:S:1:pos:R:3:Z:I:1 energy=-284.89250650849164 field_type=dipole dipole="0.000000 0.000000 0.000000" charge=0
O	-2.800726	0.483862	1.047089	8
C	-1.681046	0.936992	0.813879	6
C	-0.804036	0.451362	-0.316291	6
N	0.570974	0.346832	0.188959	7
C	1.003954	-1.026698	0.437019	6
C	1.480494	-0.269268	-0.773941	6
H	-1.298686	1.803282	1.380739	1
H	-0.848896	1.205441	-1.109161	1
H	-1.213816	-0.488668	-0.704981	1
H	0.299114	-1.837838	0.297699	1
H	1.700264	-1.162868	1.256229	1
H	2.496024	0.108592	-0.770281	1
H	1.096384	-0.551018	-1.746961	1
Es	0.963155	0.205326	-0.325696	99
Es	2.171659	-0.008401	-0.780336	99
Es	-1.235049	0.686752	0.254215	99
Es	-0.803924	0.451392	-0.316201	99
Es	-1.072704	-0.191145	-0.578886	99
Es	-0.841770	0.965655	-0.838375	99
Es	1.364919	-0.822044	-0.234366	99
Es	-2.292226	0.488578	1.130268	99
Es	1.466919	-1.115752	0.989535	99
Es	1.210158	-0.451545	-1.424639	99
Es	-2.992488	0.591058	1.282581	99
Es	-0.031341	0.363596	-0.045362	99
Es	-1.408155	1.524958	1.193474	99
Es	0.661058	-0.265367	0.414905	99
Es	0.675926	0.589658	0.394238	99
Es	1.003911	-1.026469	0.436916	99
Es	1.480332	-0.269221	-0.773755	99
Es	-2.821795	0.269978	0.856286	99
Es	-1.681051	0.936968	0.813861	99
Es	-2.800392	0.484107	1.047124	99
Es	0.570789	0.346321	0.188564	99
Es	-2.494442	0.817813	0.797180	99
Es	0.513306	-1.571693	0.345734	99
36
Properties=species:S:1:pos:R:3:Z:I:1 energy=-284.89250650849164 field_type=dipole dipole="0.000000 0.000000 0.000000" charge=0
O	-2.800726	0.483862	1.047089	8
C	-1.681046	0.936992	0.813879	6
C	-0.804036	0.451362	-0.316291	6
N	0.570974	0.346832	0.188959	7
C	1.003954	-1.026698	0.437019	6
C	1.480494	-0.269268	-0.773941	6
H	-1.298686	1.803282	1.380739	1
H	-0.848896	1.205441	-1.109161	1
H	-1.213816	-0.488668	-0.704981	1
H	0.299114	-1.837838	0.297699	1
H	1.700264	-1.162868	1.256229	1
H	2.496024	0.108592	-0.770281	1
H	1.096384	-0.551018	-1.746961	1
Es	0.570791	0.346313	0.188561	99
Es	-1.072833	-0.191202	-0.578711	99
Es	-2.800395	0.484078	1.047100	99
Es	1.466501	-1.115531	0.989061	99
Es	1.210281	-0.451179	-1.423881	99
Es	-2.293625	0.488354	1.130464	99
Es	-0.803924	0.451392	-0.316201	99
Es	-0.841859	0.965558	-0.838382	99
Es	-2.492919	0.817610	0.796582	99
Es	1.480338	-0.269228	-0.773758	99
Es	-2.991296	0.592765	1.282704	99
Es	-0.031745	0.363694	-0.045226	99
Es	1.364860	-0.822099	-0.234447	99
Es	0.674926	0.587465	0.394097	99
Es	0.964498	0.207047	-0.325663	99
Es	0.661563	-0.265440	0.414544	99
Es	0.513095	-1.571832	0.346057	99
Es	-1.234924	0.686903	0.254161	99
Es	1.003916	-1.026467	0.436910	99
Es	-1.681051	0.936970	0.813860	99
Es	-2.823043	0.268592	0.856623	99
Es	2.171863	-0.008279	-0.780619	99
Es	-1.408221	1.525039	1.193430	99
36
Properties=species:S:1:pos:R:3:Z:I:1 energy=-284.89250650849164 field_type=dipole dipole="0.000000 0.000000 0.000000" charge=0
O	-2.800726	0.483862	1.047089	8
C	-1.681046	0.936992	0.813879	6
C	-0.804036	0.451362	-0.316291	6
N	0.570974	0.346832	0.188959	7
C	1.003954	-1.026698	0.437019	6
C	1.480494	-0.269268	-0.773941	6
H	-1.298686	1.803282	1.380739	1
H	-0.848896	1.205441	-1.109161	1
H	-1.213816	-0.488668	-0.704981	1
H	0.299114	-1.837838	0.297699	1
H	1.700264	-1.162868	1.256229	1
H	2.496024	0.108592	-0.770281	1
H	1.096384	-0.551018	-1.746961	1
Es	1.466134	-1.115300	0.988795	99
Es	1.480333	-0.269221	-0.773755	99
Es	-1.072990	-0.191488	-0.578789	99
Es	-1.681052	0.936971	0.813858	99
Es	-1.408141	1.525133	1.193420	99
Es	0.513026	-1.572102	0.346122	99
Es	-0.841857	0.965431	-0.838102	99
Es	1.210375	-0.451153	-1.423478	99
Es	-2.815162	0.273906	0.856810	99
Es	1.364993	-0.822057	-0.234183	99
Es	0.674834	0.588011	0.394663	99
Es	0.661551	-0.265621	0.414186	99
Es	-2.293865	0.489375	1.131443	99
Es	-0.031368	0.363465	-0.045471	99
Es	0.570791	0.346345	0.188587	99
Es	-0.803924	0.451392	-0.316199	99
Es	-2.800388	0.484076	1.047087	99
Es	-1.234945	0.687090	0.253990	99
Es	1.003908	-1.026468	0.436916	99
Es	2.171919	-0.008147	-0.780810	99
Es	0.964448	0.206920	-0.325977	99
Es	-2.998574	0.585336	1.280363	99
Es	-2.493250	0.818627	0.797785	99
36
Properties=species:S:1:pos:R:3:Z:I:1 energy=-284.89250650849164 field_type=dipole dipole="0.000000 0.000000 0.000000" charge=0
O	-2.800726	0.483862	1.047089	8
C	-1.681046	0.936992	0.813879	6
C	-0.804036	0.451362	-0.316291	6
N	0.570974	0.346832	0.188959	7
C	1.003954	-1.026698	0.437019	6
C	1.480494	-0.269268	-0.773941	6
H	-1.298686	1.803282	1.380739	1
H	-0.848896	1.205441	-1.109161	1
H	-1.213816	-0.488668	-0.704981	1
H	0.299114	-1.837838	0.297699	1
H	1.700264	-1.162868	1.256229	1
H	2.496024	0.108592	-0.770281	1
H	1.096384	-0.551018	-1.746961	1
Es	2.172022	-0.008071	-0.780873	99
Es	-0.803925	0.451392	-0.316202	99
Es	-1.073097	-0.191611	-0.578820	99
Es	-2.800402	0.484064	1.047089	99
Es	1.003911	-1.026471	0.436916	99
Es	-2.492672	0.819018	0.798592	99
Es	0.965029	0.207688	-0.326045	99
Es	-1.408188	1.525233	1.193374	99
Es	-1.234904	0.687235	0.253911	99
Es	-0.031364	0.363229	-0.045579	99
Es	0.570776	0.346325	0.188562	99
Es	-1.681051	0.936970	0.813859	99
Es	-2.294387	0.489387	1.131910	99
Es	0.661761	-0.265820	0.413989	99
Es	-3.000917	0.583081	1.279417	99
Es	0.512900	-1.572172	0.346353	99
Es	1.480334	-0.269223	-0.773753	99
Es	1.365013	-0.822055	-0.234310	99
Es	1.210522	-0.450913	-1.423050	99
Es	1.465794	-1.115180	0.988380	99
Es	-2.812777	0.275595	0.856521	99
Es	-0.841858	0.965403	-0.837944	99
Es	0.674275	0.587415	0.394967	99
36
Properties=species:S:1:pos:R:3:Z:I:1 energy=-284.89250650849164 field_type=dipole dipole="0.000000 0.000000 0.000000" charge=0
O	-2.800726	0.483862	1.047089	8
C	-1.681046	0.936992	0.813879	6
C	-0.804036	0.451362	-0.316291	6
N	0.570974	0.346832	0.188959	7
C	1.003954	-1.026698	0.437019	6
C	1.480494	-0.269268	-0.773941	6
H	-1.298686	1.803282	1.380739	1
H	-0.848896	1.205441	-1.109161	1
H	-1.213816	-0.488668	-0.704981	1
H	0.299114	-1.837838	0.297699	1
H	1.700264	-1.162868	1.256229	1
H	2.496024	0.108592	-0.770281	1
H	1.096384	-0.551018	-1.746961	1
Es	1.003911	-1.026470	0.436917	99
Es	-2.810716	0.276996	0.856728	99
Es	1.480335	-0.269224	-0.773756	99
Es	-1.234678	0.687343	0.253687	99
Es	0.965347	0.208614	-0.325867	99
Es	-1.408196	1.525276	1.193356	99
Es	-0.842003	0.965344	-0.837692	99
Es	0.570795	0.346321	0.188568	99
Es	-0.803927	0.451392	-0.316203	99
Es	2.172037	-0.007960	-0.780991	99
Es	-2.800395	0.484090	1.047109	99
Es	0.512803	-1.572264	0.346427	99
Es	-1.681049	0.936969	0.813861	99
Es	1.365449	-0.822001	-0.234108	99
Es	-1.073331	-0.191844	-0.578762	99
Es	-0.031355	0.363253	-0.045592	99
Es	-2.295387	0.489589	1.131734	99
Es	1.210516	-0.450974	-1.422901	99
Es	-2.491893	0.819278	0.798884	99
Es	-3.002753	0.581151	1.279058	99
Es	0.662152	-0.265998	0.413654	99
Es	0.673801	0.586661	0.394971	99
Es	1.465333	-1.115020	0.988181	99
36
Properties=species:S:1:pos:R:3:Z:I:1 energy=-284.89250650849164 field_type=dipole dipole="0.000000 0.000000 0.000000" charge=0
O	-2.800726	0.483862	1.047089	8
C	-1.681046	0.936992	0.813879	6
C	-0.804036	0.451362	-0.316291	6
N	0.570974	0.346832	0.188959	7
C	1.003954	-1.026698	0.437019	6
C	1.480494	-0.269268	-0.773941	6
H	-1.298686	1.803282	1.380739	1
H	-0.848896	1.205441	-1.109161	1
H	-1.213816	-0.488668	-0.704981	1
H	0.299114	-1.837838	0.297699	1
H	1.700264	-1.162868	1.256229	1
H	2.496024	0.108592	-0.770281	1
H	1.096384	-0.551018	-1.746961	1
Es	1.003909	-1.026469	0.436916	99
Es	0.512828	-1.572418	0.346428	99
Es	-0.841985	0.965355	-0.837469	99
Es	-1.681051	0.936969	0.813860	99
Es	-2.492831	0.820982	0.800456	99
Es	0.964094	0.205923	-0.326405	99
Es	1.365482	-0.821972	-0.234234	99
Es	-2.800376	0.484084	1.047112	99
Es	-1.073450	-0.191994	-0.578893	99
Es	0.661967	-0.265486	0.413968	99
Es	-2.295909	0.491637	1.133147	99
Es	1.480332	-0.269222	-0.773753	99
Es	-0.803928	0.451393	-0.316204	99
Es	-3.011864	0.569788	1.274811	99
Es	-0.031122	0.362591	-0.045831	99
Es	0.570785	0.346326	0.188566	99
Es	0.674963	0.589516	0.395589	99
Es	-2.800111	0.284530	0.858010	99
Es	2.172058	-0.007915	-0.781019	99
Es	1.210570	-0.450893	-1.422756	99
Es	-1.408106	1.525396	1.193348	99
Es	-1.234699	0.687380	0.253671	99
Es	1.465240	-1.114977	0.987946	99
36
Properties=species:S:1:pos:R:3:Z:I:1 energy=-284.89250650849164 field_type=dipole dipole="0.000000 0.000000 0.000000" charge=0
O	-2.800726	0.483862	1.047089	8
C	-1.681046	0.936992	0.813879	6
C	-0.804036	0.451362	-0.316291	6
N	0.570974	0.346832	0.188959	7
C	1.003954	-1.026698	0.437019	6
C	1.480494	-0.269268	-0.773941	6
H	-1.298686	1.803282	1.380739	1
H	-0.848896	1.205441	-1.109161	1
H	-1.213816	-0.488668	-0.704981	1
H	0.299114	-1.837838	0.297699	1
H	1.700264	-1.162868	1.256229	1
H	2.496024	0.108592	-0.770281	1
H	1.096384	-0.551018	-1.746961	1
Es	1.365555	-0.822013	-0.234174	99
Es	-1.073503	-0.192043	-0.578939	99
Es	-1.681050	0.936969	0.813861	99
Es	-0.031077	0.362339	-0.045960	99
Es	1.480332	-0.269224	-0.773752	99
Es	-2.491803	0.821371	0.801112	99
Es	1.003907	-1.026465	0.436914	99
Es	0.570801	0.346337	0.188597	99
Es	0.512698	-1.572518	0.346618	99
Es	1.210647	-0.450776	-1.422414	99
Es	-3.010911	0.570477	1.275601	99
Es	1.464961	-1.114794	0.987706	99
Es	-2.800388	0.484077	1.047109	99
Es	2.172119	-0.007864	-0.781156	99
Es	-1.408091	1.525427	1.193346	99
Es	-2.801623	0.284914	0.857410	99
Es	0.964880	0.207464	-0.326217	99
Es	-1.234700	0.687403	0.253609	99
Es	-0.803924	0.451392	-0.316202	99
Es	0.674044	0.588345	0.395842	99
Es	-2.296346	0.490123	1.132300	99
Es	-0.842051	0.965328	-0.837319	99
Es	0.662319	-0.265748	0.413371	99
36
Properties=species:S:1:pos:R:3:Z:I:1 energy=-284.89250650849164 field_type=dipole dipole="0.000000 0.000000 0.000000" charge=0
O	-2.800726	0.483862	1.047089	8
C	-1.681046	0.936992	0.813879	6
C	-0.804036	0.451362	-0.316291	6
N	0.570974	0.346832	0.188959	7
C	1.003954	-1.026698	0.437019	6
C	1.480494	-0.269268	-0.773941	6
H	-1.298686	1.803282	1.380739	1
H	-0.848896	1.205441	-1.109161	1
H	-1.213816	-0.488668	-0.704981	1
H	0.299114	-1.837838	0.297699	1
H	1.700264	-1.162868	1.256229	1
H	2.496024	0.108592	-0.770281	1
H	1.096384	-0.551018	-1.746961	1
Es	1.210692	-0.450721	-1.422206	99
Es	-2.797647	0.287497	0.858262	99
Es	1.003912	-1.026473	0.436917	99
Es	-1.681051	0.936971	0.813859	99
Es	0.512670	-1.572554	0.346638	99
Es	0.674259	0.588702	0.396582	99
Es	0.662348	-0.266024	0.412780	99
Es	1.365748	-0.822007	-0.234037	99
Es	-1.234600	0.687486	0.253608	99
Es	2.172122	-0.007787	-0.781256	99
Es	0.964679	0.207383	-0.326556	99
Es	-0.031072	0.362212	-0.045816	99
Es	0.570796	0.346309	0.188564	99
Es	-3.014406	0.566655	1.273656	99
Es	-2.800382	0.484030	1.047056	99
Es	-2.492001	0.821614	0.801421	99
Es	-1.408094	1.525437	1.193376	99
Es	-0.803925	0.451392	-0.316202	99
Es	-0.841951	0.965357	-0.837192	99
Es	-2.296654	0.491158	1.133064	99
Es	1.464629	-1.114722	0.987530	99
Es	-1.073610	-0.192168	-0.579030	99
Es	1.480333	-0.269224	-0.773753	99
36
Properties=species:S:1:pos:R:3:Z:I:1 energy=-284.89250650849164 field_type=dipole dipole="0.000000 0.000000 0.000000" charge=0
O	-2.800726	0.483862	1.047089	8
C	-1.681046	0.936992	0.813879	6
C	-0.804036	0.451362	-0.316291	6
N	0.570974	0.346832	0.188959	7
C	1.003954	-1.026698	0.437019	6
C	1.480494	-0.269268	-0.773941	6
H	-1.298686	1.803282	1.380739	1
H	-0.848896	1.205441	-1.109161	1
H	-1.213816	-0.488668	-0.704981	1
H	0.299114	-1.837838	0.297699	1
H	1.700264	-1.162868	1.256229	1
H	2.496024	0.108592	-0.770281	1
H	1.096384	-0.551018	-1.746961	1
Es	-3.017506	0.561356	1.272237	99
Es	0.674373	0.589522	0.397166	99
Es	1.480326	-0.269216	-0.773750	99
Es	-1.073699	-0.192312	-0.579061	99
Es	-1.681051	0.936970	0.813859	99
Es	-0.030626	0.362109	-0.046264	99
Es	0.512703	-1.572646	0.346616	99
Es	0.964400	0.206987	-0.326613	99
Es	2.172175	-0.007809	-0.781301	99
Es	1.210717	-0.450798	-1.422114	99
Es	1.464586	-1.114697	0.987418	99
Es	0.662203	-0.266037	0.412549	99
Es	-2.296623	0.491470	1.132935	99
Es	-1.408122	1.525527	1.193345	99
Es	-0.803925	0.451392	-0.316201	99
Es	-2.492646	0.822539	0.802045	99
Es	-1.234586	0.687626	0.253512	99
Es	1.003912	-1.026475	0.436917	99
Es	-2.800390	0.484002	1.047022	99
Es	1.365734	-0.821925	-0.234002	99
Es	0.570796	0.346320	0.188569	99
Es	-2.793853	0.291496	0.859293	99
Es	-0.842101	0.965123	-0.836911	99
36
Properties=species:S:1:pos:R:3:Z:I:1 energy=-284.89250650849164 field_type=dipole dipole="0.000000 0.000000 0.000000" charge=0
O	-2.800726	0.483862	1.047089	8
C	-1.681046	0.936992	0.813879	6
C	-0.804036	0.451362	-0.316291	6
N	0.570974	0.346832	0.188959	7
C	1.003954	-1.026698	0.437019	6
C	1.480494	-0.269268	-0.773941	6
H	-1.298686	1.803282	1.380739	1
H	-0.848896	1.205441	-1.109161	1
H	-1.213816	-0.488668	-0.704981	1
H	0.299114	-1.837838	0.297699	1
H	1.700264	-1.162868	1.256229	1
H	2.496024	0.108592	-0.770281	1
H	1.096384	-0.551018	-1.746961	1
Es	0.512613	-1.572661	0.346791	99
Es	-3.015809	0.565057	1.272943	99
Es	-2.796077	0.288577	0.858539	99
Es	-1.408069	1.525552	1.193315	99
Es	-2.297561	0.491343	1.133103	99
Es	-0.842188	0.965055	-0.837043	99
Es	1.003911	-1.026472	0.436917	99
Es	-2.800385	0.484127	1.047145	99
Es	1.480334	-0.269223	-0.773753	99
Es	-0.803924	0.451391	-0.316201	99
Es	1.464275	-1.114563	0.987219	99
Es	-1.234510	0.687692	0.253368	99
Es	-1.073806	-0.192376	-0.578761	99
Es	-0.030786	0.362231	-0.046288	99
Es	0.662356	-0.266063	0.412709	99
Es	0.965325	0.207842	-0.326553	99
Es	2.172220	-0.007712	-0.781457	99
Es	-2.491191	0.821740	0.801789	99
Es	-1.681051	0.936970	0.813859	99
Es	0.570809	0.346323	0.188574	99
Es	1.365794	-0.821948	-0.233996	99
Es	0.673714	0.588242	0.396751	99
Es	1.210803	-0.450603	-1.421708	99
36
Properties=species:S:1:pos:R:3:Z:I:1 energy=-284.89250650849164 field_type=dipole dipole="0.000000 0.000000 0.000000" charge=0
O	-2.800726	0.483862	1.047089	8
C	-1.681046	0.936992	0.813879	6
C	-0.804036	0.451362	-0.316291	6
N	0.570974	0.346832	0.188959	7
C	1.003954	-1.026698	0.437019	6
C	1.480494	-0.269268	-0.773941	6
H	-1.298686	1.803282	1.380739	1
H	-0.848896	1.205441	-1.109161	1
H	-1.213816	-0.488668	-0.704981	1
H	0.299114	-1.837838	0.297699	1
H	1.700264	-1.162868	1.256229	1
H	2.496024	0.108592	-0.770281	1
H	1.096384	-0.551018	-1.746961	1
Es	0.964591	0.207002	-0.326560	99
Es	1.464164	-1.114614	0.987024	99
Es	-3.020630	0.557771	1.270172	99
Es	-1.681051	0.936970	0.813859	99
Es	-2.800387	0.484068	1.047084	99
Es	0.674278	0.589445	0.397568	99
Es	-2.297341	0.492497	1.133653	99
Es	-1.073962	-0.192492	-0.578978	99
Es	-2.790226	0.293797	0.860289	99
Es	0.570794	0.346319	0.188567	99
Es	1.480332	-0.269216	-0.773757	99
Es	1.210791	-0.450642	-1.421908	99
Es	-0.030750	0.361874	-0.046356	99
Es	1.366049	-0.821938	-0.234079	99
Es	0.512629	-1.572719	0.346710	99
Es	-2.492356	0.822616	0.802409	99
Es	2.172194	-0.007724	-0.781319	99
Es	0.662269	-0.265974	0.412348	99
Es	-0.842019	0.965107	-0.836817	99
Es	-0.803925	0.451392	-0.316202	99
Es	-1.234491	0.687820	0.253331	99
Es	1.003911	-1.026473	0.436916	99
Es	-1.408066	1.525639	1.193309	99
36
Properties=species:S:1:pos:R:3:Z:I:1 energy=-284.89250650849164 field_type=dipole dipole="0.000000 0.000000 0.000000" charge=0
O	-2.800726	0.483862	1.047089	8
C	-1.681046	0.936992	0.813879	6
C	-0.804036	0.451362	-0.316291	6
N	0.570974	0.346832	0.188959	7
C	1.003954	-1.026698	0.437019	6
C	1.480494	-0.269268	-0.773941	6
H	-1.298686	1.803282	1.380739	1
H	-0.848896	1.205441	-1.109161	1
H	-1.213816	-0.488668	-0.704981	1
H	0.299114	-1.837838	0.297699	1
H	1.700264	-1.162868	1.256229	1
H	2.496024	0.108592	-0.770281	1
H	1.096384	-0.551018	-1.746961	1
Es	1.480323	-0.269222	-0.773754	99
Es	0.674006	0.589128	0.397371	99
Es	-2.297811	0.491647	1.133403	99
Es	0.964942	0.207134	-0.326748	99
Es	-1.408078	1.525626	1.193319	99
Es	1.463891	-1.114494	0.986896	99
Es	-1.073991	-0.192579	-0.578987	99
Es	2.172227	-0.007637	-0.781385	99
Es	0.662320	-0.265885	0.412510	99
Es	-0.842027	0.965084	-0.836740	99
Es	-0.803927	0.451392	-0.316203	99
Es	0.512641	-1.572837	0.346710	99
Es	1.366146	-0.821836	-0.233954	99
Es	0.570798	0.346319	0.188569	99
Es	1.003912	-1.026471	0.436915	99
Es	1.210856	-0.450589	-1.421688	99
Es	-1.234441	0.687868	0.253282	99
Es	-0.030792	0.361804	-0.046260	99
Es	-2.491560	0.822949	0.802875	99
Es	-1.681053	0.936971	0.813858	99
Es	-3.020506	0.557909	1.270274	99
Es	-2.790746	0.294360	0.860109	99
Es	-2.800335	0.483882	1.046892	99
36
Properties=species:S:1:pos:R:3:Z:I:1 energy=-284.89250650849164 field_type=dipole dipole="0.000000 0.000000 0.000000" charge=0
O	-2.800726	0.483862	1.047089	8
C	-1.681046	0.936992	0.813879	6
C	-0.804036	0.451362	-0.316291	6
N	0.570974	0.346832	0.188959	7
C	1.003954	-1.026698	0.437019	6
C	1.480494	-0.269268	-0.773941	6
H	-1.298686	1.803282	1.380739	1
H	-0.848896	1.205441	-1.109161	1
H	-1.213816	-0.488668	-0.704981	1
H	0.299114	-1.837838	0.297699	1
H	1.700264	-1.162868	1.256229	1
H	2.496024	0.108592	-0.770281	1
H	1.096384	-0.551018	-1.746961	1
Es	-0.841964	0.965066	-0.836599	99
Es	-1.681051	0.936970	0.813859	99
Es	0.674421	0.589736	0.398269	99
Es	1.210820	-0.450611	-1.421772	99
Es	-1.408105	1.525665	1.193329	99
Es	-1.073902	-0.192596	-0.579214	99
Es	-2.492162	0.823320	0.803385	99
Es	-1.234565	0.687873	0.253359	99
Es	-2.297804	0.492540	1.133658	99
Es	2.172256	-0.007668	-0.781331	99
Es	-0.030669	0.361811	-0.046246	99
Es	-3.023649	0.553161	1.268258	99
Es	-2.800318	0.484117	1.047079	99
Es	0.662240	-0.266036	0.411614	99
Es	0.964509	0.206876	-0.326942	99
Es	1.366237	-0.821979	-0.233722	99
Es	1.463694	-1.114392	0.986792	99
Es	0.512668	-1.572906	0.346769	99
Es	-0.803925	0.451392	-0.316202	99
Es	-2.786988	0.297548	0.861184	99
Es	0.570810	0.346330	0.188574	99
Es	1.480335	-0.269225	-0.773755	99
Es	1.003910	-1.026471	0.436917	99
36
Properties=species:S:1:pos:R:3:Z:I:1 energy=-284.89250650849164 field_type=dipole dipole="0.000000 0.000000 0.000000" charge=0
O	-2.800726	0.483862	1.047089	8
C	-1.681046	0.936992	0.813879	6
C	-0.804036	0.451362	-0.316291	6
N	0.570974	0.346832	0.188959	7
C	1.003954	-1.026698	0.437019	6
C	1.480494	-0.269268	-0.773941	6
H	-1.298686	1.803282	1.380739	1
H	-0.848896	1.205441	-1.109161	1
H	-1.213816	-0.488668	-0.704981	1
H	0.299114	-1.837838	0.297699	1
H	1.700264	-1.162868	1.256229	1
H	2.496024	0.108592	-0.770281	1
H	1.096384	-0.551018	-1.746961	1
Es	-2.298827	0.492027	1.133397	99
Es	0.662474	-0.266060	0.412369	99
Es	1.463654	-1.114417	0.986752	99
Es	-0.803925	0.451391	-0.316201	99
Es	0.512566	-1.572889	0.346723	99
Es	-1.074000	-0.192600	-0.578990	99
Es	-2.789001	0.295324	0.860506	99
Es	0.570805	0.346328	0.188574	99
Es	-1.681052	0.936972	0.813858	99
Es	2.172264	-0.007559	-0.781460	99
Es	-2.490698	0.822912	0.803103	99
Es	1.210958	-0.450426	-1.421348	99
Es	-0.030682	0.361769	-0.046508	99
Es	1.003908	-1.026469	0.436918	99
Es	-1.234574	0.687902	0.253299	99
Es	-2.800376	0.484131	1.047137	99
Es	-3.022022	0.556271	1.269409	99
Es	0.965020	0.207256	-0.326758	99
Es	-1.408003	1.525718	1.193284	99
Es	0.673897	0.589099	0.397549	99
Es	-0.842134	0.964910	-0.836601	99
Es	1.366211	-0.821847	-0.233995	99
Es	1.480333	-0.269224	-0.773752	99
36
Properties=species:S:1:pos:R:3:Z:I:1 energy=-284.89250650849164 field_type=dipole dipole="0.000000 0.000000 0.000000" charge=0
O	-2.800726	0.483862	1.047089	8
C	-1.681046	0.936992	0.813879	6
C	-0.804036	0.451362	-0.316291	6
N	0.570974	0.346832	0.188959	7
C	1.003954	-1.026698	0.437019	6
C	1.480494	-0.269268	-0.773941	6
H	-1.298686	1.803282	1.380739	1
H	-0.848896	1.205441	-1.109161	1
H	-1.213816	-0.488668	-0.704981	1
H	0.299114	-1.837838	0.297699	1
H	1.700264	-1.162868	1.256229	1
H	2.496024	0.108592	-0.770281	1
H	1.096384	-0.551018	-1.746961	1
Es	0.512584	-1.572926	0.346892	99
Es	-0.030550	0.361502	-0.046523	99
Es	1.003912	-1.026469	0.436917	99
Es	-0.842093	0.964926	-0.836465	99
Es	-2.800406	0.484019	1.047048	99
Es	-1.074058	-0.192775	-0.579059	99
Es	-2.491598	0.823476	0.803767	99
Es	-1.681052	0.936970	0.813860	99
Es	0.674334	0.590235	0.398221	99
Es	1.210861	-0.450435	-1.421531	99
Es	-2.298555	0.492832	1.133699	99
Es	-3.025475	0.550881	1.267214	99
Es	2.172237	-0.007612	-0.781457	99
Es	0.570805	0.346320	0.188570	99
Es	0.662464	-0.265900	0.411894	99
Es	-2.784867	0.299435	0.861837	99
Es	1.366446	-0.822069	-0.233986	99
Es	-1.408076	1.525705	1.193345	99
Es	0.964360	0.206565	-0.326821	99
Es	1.463542	-1.114333	0.986584	99
Es	-0.803926	0.451392	-0.316202	99
Es	-1.234427	0.688005	0.253218	99
Es	1.480333	-0.269224	-0.773754	99
36
Properties=species:S:1:pos:R:3:Z:I:1 energy=-284.89250650849164 field_type=dipole dipole="0.000000 0.000000 0.000000" charge=0
O	-2.800726	0.483862	1.047089	8
C	-1.681046	0.936992	0.813879	6
C	-0.804036	0.451362	-0.316291	6
N	0.570974	0.346832	0.188959	7
C	1.003954	-1.026698	0.437019	6
C	1.480494	-0.269268	-0.773941	6
H	-1.298686	1.803282	1.380739	1
H	-0.848896	1.205441	-1.109161	1
H	-1.213816	-0.488668	-0.704981	1
H	0.299114	-1.837838	0.297699	1
H	1.700264	-1.162868	1.256229	1
H	2.496024	0.108592	-0.770281	1
H	1.096384	-0.551018	-1.746961	1
Es	-0.842043	0.964934	-0.836494	99
Es	-0.803926	0.451392	-0.316202	99
Es	0.512593	-1.572946	0.346876	99
Es	0.964140	0.206220	-0.326855	99
Es	-2.298276	0.493895	1.133890	99
Es	2.172225	-0.007606	-0.781499	99
Es	-1.074010	-0.192776	-0.579100	99
Es	-1.407979	1.525740	1.193321	99
Es	0.570783	0.346319	0.188554	99
Es	-2.800390	0.484067	1.047086	99
Es	1.463348	-1.114325	0.986436	99
Es	1.003909	-1.026471	0.436919	99
Es	0.674528	0.590753	0.398759	99
Es	-2.781839	0.301990	0.862669	99
Es	1.366719	-0.822080	-0.233858	99
Es	1.480334	-0.269224	-0.773754	99
Es	0.662326	-0.265720	0.411558	99
Es	1.210865	-0.450609	-1.421547	99
Es	-0.030503	0.361322	-0.046581	99
Es	-2.492726	0.824032	0.804219	99
Es	-1.234558	0.687965	0.253297	99
Es	-1.681051	0.936970	0.813859	99
Es	-3.027671	0.546681	1.265712	99
36
Properties=species:S:1:pos:R:3:Z:I:1 energy=-284.89250650849164 field_type=dipole dipole="0.000000 0.000000 0.000000" charge=0
O	-2.800726	0.483862	1.047089	8
C	-1.681046	0.936992	0.813879	6
C	-0.804036	0.451362	-0.316291	6
N	0.570974	0.346832	0.188959	7
C	1.003954	-1.026698	0.437019	6
C	1.480494	-0.269268	-0.773941	6
H	-1.298686	1.803282	1.380739	1
H	-0.848896	1.205441	-1.109161	1
H	-1.213816	-0.488668	-0.704981	1
H	0.299114	-1.837838	0.297699	1
H	1.700264	-1.162868	1.256229	1
H	2.496024	0.108592	-0.770281	1
H	1.096384	-0.551018	-1.746961	1
Es	-2.787154	0.297184	0.860659	99
Es	-1.408007	1.525749	1.193281	99
Es	-0.030719	0.361630	-0.046476	99
Es	1.366438	-0.821924	-0.233726	99
Es	0.512487	-1.572970	0.347005	99
Es	-1.681051	0.936970	0.813859	99
Es	0.570789	0.346332	0.188579	99
Es	0.662782	-0.265989	0.411967	99
Es	1.463225	-1.114243	0.986283	99
Es	1.210994	-0.450441	-1.421206	99
Es	2.172283	-0.007483	-0.781515	99
Es	-2.298819	0.492398	1.133053	99
Es	-2.800391	0.484096	1.047114	99
Es	-3.023476	0.553679	1.268887	99
Es	1.003910	-1.026469	0.436916	99
Es	-0.803926	0.451392	-0.316202	99
Es	1.480335	-0.269225	-0.773755	99
Es	-1.234310	0.688127	0.253001	99
Es	-2.491052	0.823254	0.803869	99
Es	0.965474	0.208034	-0.326867	99
Es	-0.842180	0.964831	-0.836349	99
Es	-1.074298	-0.192886	-0.578889	99
Es	0.673463	0.588476	0.397774	99
