44
Properties=species:S:1:pos:R:3:Z:I:1 energy=-304.0889470442223 field_type=dipole dipole="0.000000 0.000000 0.000000" charge=0
C	-1.525855	-0.616874	0.669223	6
C	-0.029655	-0.588624	0.370873	6
C	0.411645	-1.294064	-0.889277	6
C	-0.361475	-1.737344	-1.889767	6
C	0.415585	0.852846	0.239803	6
N	1.333885	1.338906	1.015223	7
N	1.605265	2.639106	0.757353	7
H	-1.734825	-0.112584	1.619813	1
H	-1.893705	-1.645684	0.748443	1
H	-2.108235	-0.099404	-0.101767	1
H	0.497705	-1.047264	1.216353	1
H	1.488605	-1.450624	-0.971477	1
H	-1.439835	-1.619884	-1.894537	1
H	0.083125	-2.233384	-2.748437	1
H	-0.076675	1.460956	-0.543917	1
H	2.457315	2.909016	1.256513	1
H	0.877135	3.244906	1.145583	1
Es	-0.361535	-1.737365	-1.889841	99
Es	-1.916355	-0.263310	0.138200	99
Es	0.073376	1.261840	-0.287821	99
Es	1.117525	1.053712	0.476514	99
Es	0.415537	0.852809	0.239825	99
Es	0.326111	-0.900046	0.933035	99
Es	0.727692	1.216255	0.875839	99
Es	1.142545	-1.394316	-0.936504	99
Es	-0.066428	-2.073308	-2.473781	99
Es	-0.029679	-0.588580	0.370804	99
Es	1.632577	2.684785	0.409521	99
Es	1.160224	2.981140	1.003536	99
Es	1.605188	2.638959	0.757988	99
Es	-1.525817	-0.616867	0.669209	99
Es	-1.771263	-1.315301	0.720290	99
Es	0.192765	0.132304	0.300696	99
Es	-0.778119	-0.599793	0.501818	99
Es	1.333579	1.339237	1.014795	99
Es	0.042660	-1.226141	-1.546621	99
Es	1.453754	2.000606	0.895607	99
Es	2.111412	2.796882	1.075667	99
Es	0.411690	-1.294013	-0.889178	99
Es	-1.093344	-1.659786	-1.895271	99
Es	0.170443	-0.939058	-0.268002	99
Es	1.531911	1.152203	1.274485	99
Es	-0.018023	-1.804250	-1.244524	99
Es	-1.660417	-0.271962	1.314415	99
44
Properties=species:S:1:pos:R:3:Z:I:1 energy=-304.0889470442223 field_type=dipole dipole="0.000000 0.000000 0.000000" charge=0
C	-1.525855	-0.616874	0.669223	6
C	-0.029655	-0.588624	0.370873	6
C	0.411645	-1.294064	-0.889277	6
C	-0.361475	-1.737344	-1.889767	6
C	0.415585	0.852846	0.239803	6
N	1.333885	1.338906	1.015223	7
N	1.605265	2.639106	0.757353	7
H	-1.734825	-0.112584	1.619813	1
H	-1.893705	-1.645684	0.748443	1
H	-2.108235	-0.099404	-0.101767	1
H	0.497705	-1.047264	1.216353	1
H	1.488605	-1.450624	-0.971477	1
H	-1.439835	-1.619884	-1.894537	1
H	0.083125	-2.233384	-2.748437	1
H	-0.076675	1.460956	-0.543917	1
H	2.457315	2.909016	1.256513	1
H	0.877135	3.244906	1.145583	1
Es	-0.361538	-1.737373	-1.889839	99
Es	0.411693	-1.294000	-0.889172	99
Es	-1.660061	-0.270990	1.315449	99
Es	0.043318	-1.223856	-1.547924	99
Es	-0.018408	-1.805781	-1.244178	99
Es	0.074387	1.261394	-0.288265	99
Es	1.629637	2.686779	0.414784	99
Es	0.325884	-0.899950	0.933296	99
Es	-0.067287	-2.075133	-2.471625	99
Es	1.605190	2.638959	0.757960	99
Es	-1.093522	-1.662028	-1.894894	99
Es	1.333581	1.339245	1.014794	99
Es	1.141997	-1.392433	-0.937149	99
Es	-1.525817	-0.616868	0.669208	99
Es	1.527976	1.151019	1.276904	99
Es	-1.915490	-0.263557	0.137657	99
Es	-0.029677	-0.588581	0.370801	99
Es	0.193009	0.132339	0.299965	99
Es	0.415532	0.852806	0.239822	99
Es	2.114640	2.800439	1.079635	99
Es	-0.778570	-0.599939	0.501660	99
Es	0.728070	1.218324	0.873160	99
Es	-1.770768	-1.315895	0.719759	99
Es	1.162338	2.976088	0.999633	99
Es	0.170905	-0.938001	-0.269480	99
Es	1.117254	1.054078	0.475038	99
Es	1.453737	1.999548	0.893699	99
44
Properties=species:S:1:pos:R:3:Z:I:1 energy=-304.0889470442223 field_type=dipole dipole="0.000000 0.000000 0.000000" charge=0
C	-1.525855	-0.616874	0.669223	6
C	-0.029655	-0.588624	0.370873	6
C	0.411645	-1.294064	-0.889277	6
C	-0.361475	-1.737344	-1.889767	6
C	0.415585	0.852846	0.239803	6
N	1.333885	1.338906	1.015223	7
N	1.605265	2.639106	0.757353	7
H	-1.734825	-0.112584	1.619813	1
H	-1.893705	-1.645684	0.748443	1
H	-2.108235	-0.099404	-0.101767	1
H	0.497705	-1.047264	1.216353	1
H	1.488605	-1.450624	-0.971477	1
H	-1.439835	-1.619884	-1.894537	1
H	0.083125	-2.233384	-2.748437	1
H	-0.076675	1.460956	-0.543917	1
H	2.457315	2.909016	1.256513	1
H	0.877135	3.244906	1.145583	1
Es	0.415533	0.852805	0.239820	99
Es	1.455270	1.997999	0.889920	99
Es	-1.770415	-1.316131	0.719210	99
Es	0.192783	0.132053	0.299063	99
Es	0.728134	1.219626	0.872074	99
Es	0.171021	-0.937489	-0.270480	99
Es	-1.525818	-0.616867	0.669208	99
Es	1.525686	1.149561	1.276930	99
Es	-0.067480	-2.075849	-2.469829	99
Es	0.326080	-0.899602	0.933798	99
Es	1.605189	2.638959	0.758020	99
Es	1.141728	-1.391613	-0.937655	99
Es	-0.029677	-0.588582	0.370802	99
Es	0.043752	-1.223060	-1.548581	99
Es	0.074911	1.261236	-0.288310	99
Es	-0.779228	-0.600105	0.501384	99
Es	-1.659262	-0.270393	1.316513	99
Es	1.333571	1.339255	1.014790	99
Es	1.116218	1.055165	0.473947	99
Es	-0.361549	-1.737375	-1.889840	99
Es	-1.094052	-1.663224	-1.895146	99
Es	2.115482	2.803429	1.082676	99
Es	0.411691	-1.294002	-0.889170	99
Es	-0.018744	-1.806291	-1.243999	99
Es	-1.914955	-0.263518	0.137345	99
Es	1.625636	2.691158	0.419248	99
Es	1.166504	2.969493	0.998960	99
44
Properties=species:S:1:pos:R:3:Z:I:1 energy=-304.0889470442223 field_type=dipole dipole="0.000000 0.000000 0.000000" charge=0
C	-1.525855	-0.616874	0.669223	6
C	-0.029655	-0.588624	0.370873	6
C	0.411645	-1.294064	-0.889277	6
C	-0.361475	-1.737344	-1.889767	6
C	0.415585	0.852846	0.239803	6
N	1.333885	1.338906	1.015223	7
N	1.605265	2.639106	0.757353	7
H	-1.734825	-0.112584	1.619813	1
H	-1.893705	-1.645684	0.748443	1
H	-2.108235	-0.099404	-0.101767	1
H	0.497705	-1.047264	1.216353	1
H	1.488605	-1.450624	-0.971477	1
H	-1.439835	-1.619884	-1.894537	1
H	0.083125	-2.233384	-2.748437	1
H	-0.076675	1.460956	-0.543917	1
H	2.457315	2.909016	1.256513	1
H	0.877135	3.244906	1.145583	1
Es	-0.019000	-1.806342	-1.244033	99
Es	0.170987	-0.937247	-0.271340	99
Es	0.727965	1.220969	0.870368	99
Es	0.075279	1.261173	-0.288227	99
Es	0.415535	0.852804	0.239817	99
Es	-0.067210	-2.075881	-2.467838	99
Es	1.171586	2.963320	0.998103	99
Es	-1.769822	-1.315960	0.719078	99
Es	0.044026	-1.222677	-1.548952	99
Es	-0.780427	-0.600395	0.500843	99
Es	-1.914904	-0.263735	0.136841	99
Es	1.456790	1.996104	0.883956	99
Es	-1.094912	-1.664400	-1.895990	99
Es	1.622071	2.695520	0.425725	99
Es	-1.525818	-0.616867	0.669208	99
Es	1.605191	2.638958	0.758041	99
Es	1.523449	1.148328	1.277092	99
Es	-1.657957	-0.269702	1.317620	99
Es	1.116033	1.056088	0.473328	99
Es	0.326270	-0.899250	0.934205	99
Es	0.411690	-1.294007	-0.889167	99
Es	0.192489	0.131586	0.298446	99
Es	-0.029676	-0.588580	0.370800	99
Es	1.141698	-1.391141	-0.937925	99
Es	-0.361540	-1.737379	-1.889840	99
Es	2.114633	2.806094	1.085750	99
Es	1.333580	1.339258	1.014790	99
44
Properties=species:S:1:pos:R:3:Z:I:1 energy=-304.0889470442223 field_type=dipole dipole="0.000000 0.000000 0.000000" charge=0
C	-1.525855	-0.616874	0.669223	6
C	-0.029655	-0.588624	0.370873	6
C	0.411645	-1.294064	-0.889277	6
C	-0.361475	-1.737344	-1.889767	6
C	0.415585	0.852846	0.239803	6
N	1.333885	1.338906	1.015223	7
N	1.605265	2.639106	0.757353	7
H	-1.734825	-0.112584	1.619813	1
H	-1.893705	-1.645684	0.748443	1
H	-2.108235	-0.099404	-0.101767	1
H	0.497705	-1.047264	1.216353	1
H	1.488605	-1.450624	-0.971477	1
H	-1.439835	-1.619884	-1.894537	1
H	0.083125	-2.233384	-2.748437	1
H	-0.076675	1.460956	-0.543917	1
H	2.457315	2.909016	1.256513	1
H	0.877135	3.244906	1.145583	1
Es	1.177979	2.956492	0.998861	99
Es	-1.095745	-1.665692	-1.897496	99
Es	0.191783	0.130714	0.297391	99
Es	1.522146	1.147579	1.276400	99
Es	0.075537	1.261156	-0.288164	99
Es	2.113428	2.808088	1.088026	99
Es	1.114977	1.056974	0.472669	99
Es	-0.019192	-1.806391	-1.244061	99
Es	-0.066773	-2.075237	-2.465633	99
Es	1.141785	-1.390832	-0.938057	99
Es	0.415534	0.852804	0.239818	99
Es	1.458656	1.994780	0.874382	99
Es	1.616911	2.700522	0.434594	99
Es	-0.781861	-0.600789	0.500387	99
Es	-1.769219	-1.315649	0.719062	99
Es	-1.915092	-0.263946	0.136414	99
Es	0.728110	1.221934	0.869937	99
Es	1.605187	2.638956	0.758008	99
Es	-0.029676	-0.588581	0.370802	99
Es	-0.361541	-1.737381	-1.889837	99
Es	1.333563	1.339245	1.014778	99
Es	0.044106	-1.222412	-1.549123	99
Es	-1.656311	-0.269147	1.318585	99
Es	0.411691	-1.293999	-0.889172	99
Es	0.170762	-0.937250	-0.271980	99
Es	-1.525818	-0.616867	0.669206	99
Es	0.327080	-0.898431	0.934904	99
44
Properties=species:S:1:pos:R:3:Z:I:1 energy=-304.0889470442223 field_type=dipole dipole="0.000000 0.000000 0.000000" charge=0
C	-1.525855	-0.616874	0.669223	6
C	-0.029655	-0.588624	0.370873	6
C	0.411645	-1.294064	-0.889277	6
C	-0.361475	-1.737344	-1.889767	6
C	0.415585	0.852846	0.239803	6
N	1.333885	1.338906	1.015223	7
N	1.605265	2.639106	0.757353	7
H	-1.734825	-0.112584	1.619813	1
H	-1.893705	-1.645684	0.748443	1
H	-2.108235	-0.099404	-0.101767	1
H	0.497705	-1.047264	1.216353	1
H	1.488605	-1.450624	-0.971477	1
H	-1.439835	-1.619884	-1.894537	1
H	0.083125	-2.233384	-2.748437	1
H	-0.076675	1.460956	-0.543917	1
H	2.457315	2.909016	1.256513	1
H	0.877135	3.244906	1.145583	1
Es	2.112075	2.809632	1.089778	99
Es	-1.096454	-1.667131	-1.899529	99
Es	0.328061	-0.897441	0.935848	99
Es	-0.066467	-2.074004	-2.463146	99
Es	1.114786	1.057576	0.472143	99
Es	1.611341	2.703742	0.446178	99
Es	-1.768419	-1.315111	0.719397	99
Es	-1.915552	-0.264430	0.135770	99
Es	1.184534	2.950131	0.999719	99
Es	1.142027	-1.390399	-0.937897	99
Es	0.075803	1.261187	-0.287868	99
Es	0.415536	0.852803	0.239816	99
Es	0.411691	-1.294002	-0.889171	99
Es	-0.783928	-0.601412	0.499736	99
Es	0.727907	1.222593	0.869530	99
Es	0.170341	-0.937326	-0.272773	99
Es	1.521493	1.147221	1.275897	99
Es	1.460120	1.995222	0.861819	99
Es	-0.361541	-1.737378	-1.889840	99
Es	0.044168	-1.222300	-1.549056	99
Es	-0.019264	-1.806676	-1.244163	99
Es	1.333566	1.339265	1.014770	99
Es	0.190455	0.129645	0.296293	99
Es	-1.653926	-0.268368	1.319479	99
Es	-1.525818	-0.616867	0.669207	99
Es	1.605146	2.639049	0.757961	99
Es	-0.029674	-0.588580	0.370801	99
44
Properties=species:S:1:pos:R:3:Z:I:1 energy=-304.0889470442223 field_type=dipole dipole="0.000000 0.000000 0.000000" charge=0
C	-1.525855	-0.616874	0.669223	6
C	-0.029655	-0.588624	0.370873	6
C	0.411645	-1.294064	-0.889277	6
C	-0.361475	-1.737344	-1.889767	6
C	0.415585	0.852846	0.239803	6
N	1.333885	1.338906	1.015223	7
N	1.605265	2.639106	0.757353	7
H	-1.734825	-0.112584	1.619813	1
H	-1.893705	-1.645684	0.748443	1
H	-2.108235	-0.099404	-0.101767	1
H	0.497705	-1.047264	1.216353	1
H	1.488605	-1.450624	-0.971477	1
H	-1.439835	-1.619884	-1.894537	1
H	0.083125	-2.233384	-2.748437	1
H	-0.076675	1.460956	-0.543917	1
H	2.457315	2.909016	1.256513	1
H	0.877135	3.244906	1.145583	1
Es	1.142278	-1.390078	-0.937670	99
Es	1.333556	1.339252	1.014769	99
Es	2.110817	2.810837	1.091136	99
Es	-1.915717	-0.264507	0.135554	99
Es	1.461730	1.998061	0.847552	99
Es	1.604311	2.705881	0.459310	99
Es	-0.019274	-1.806792	-1.244235	99
Es	1.114312	1.058074	0.471824	99
Es	0.076230	1.261277	-0.287553	99
Es	-1.768101	-1.314857	0.719383	99
Es	-0.066344	-2.072529	-2.460444	99
Es	1.520838	1.146874	1.275289	99
Es	1.192114	2.943200	1.000849	99
Es	-1.096851	-1.668732	-1.901921	99
Es	-0.029675	-0.588581	0.370802	99
Es	-1.525820	-0.616868	0.669207	99
Es	0.169976	-0.937538	-0.273201	99
Es	0.411691	-1.294001	-0.889172	99
Es	0.188908	0.128177	0.294954	99
Es	1.605186	2.638942	0.758065	99
Es	0.329287	-0.896025	0.936744	99
Es	-0.786489	-0.602022	0.499341	99
Es	-1.651249	-0.267849	1.320126	99
Es	0.728135	1.223198	0.869080	99
Es	0.415535	0.852803	0.239817	99
Es	0.044163	-1.222181	-1.549069	99
Es	-0.361541	-1.737380	-1.889839	99
44
Properties=species:S:1:pos:R:3:Z:I:1 energy=-304.0889470442223 field_type=dipole dipole="0.000000 0.000000 0.000000" charge=0
C	-1.525855	-0.616874	0.669223	6
C	-0.029655	-0.588624	0.370873	6
C	0.411645	-1.294064	-0.889277	6
C	-0.361475	-1.737344	-1.889767	6
C	0.415585	0.852846	0.239803	6
N	1.333885	1.338906	1.015223	7
N	1.605265	2.639106	0.757353	7
H	-1.734825	-0.112584	1.619813	1
H	-1.893705	-1.645684	0.748443	1
H	-2.108235	-0.099404	-0.101767	1
H	0.497705	-1.047264	1.216353	1
H	1.488605	-1.450624	-0.971477	1
H	-1.439835	-1.619884	-1.894537	1
H	0.083125	-2.233384	-2.748437	1
H	-0.076675	1.460956	-0.543917	1
H	2.457315	2.909016	1.256513	1
H	0.877135	3.244906	1.145583	1
Es	0.415536	0.852803	0.239818	99
Es	1.520085	1.146789	1.273970	99
Es	-1.916264	-0.264832	0.135073	99
Es	-1.767434	-1.314478	0.719791	99
Es	-0.019350	-1.806898	-1.244174	99
Es	-0.788797	-0.602378	0.498980	99
Es	0.411689	-1.293995	-0.889176	99
Es	2.109868	2.811745	1.092006	99
Es	-1.648813	-0.267432	1.320368	99
Es	1.142479	-1.389882	-0.937548	99
Es	1.463082	2.002538	0.835417	99
Es	1.605182	2.638959	0.758032	99
Es	-0.361540	-1.737374	-1.889842	99
Es	1.199370	2.936869	1.001676	99
Es	-0.029676	-0.588581	0.370802	99
Es	1.597719	2.706332	0.471337	99
Es	0.330206	-0.894855	0.937560	99
Es	0.044142	-1.222019	-1.549171	99
Es	0.728325	1.223314	0.869104	99
Es	-1.525818	-0.616867	0.669207	99
Es	1.333549	1.339253	1.014761	99
Es	0.187880	0.126919	0.294160	99
Es	0.076306	1.261284	-0.287473	99
Es	-0.066529	-2.071138	-2.457930	99
Es	0.169853	-0.937615	-0.273509	99
Es	1.113853	1.058433	0.471614	99
Es	-1.096894	-1.670257	-1.904157	99
44
Properties=species:S:1:pos:R:3:Z:I:1 energy=-304.0889470442223 field_type=dipole dipole="0.000000 0.000000 0.000000" charge=0
C	-1.525855	-0.616874	0.669223	6
C	-0.029655	-0.588624	0.370873	6
C	0.411645	-1.294064	-0.889277	6
C	-0.361475	-1.737344	-1.889767	6
C	0.415585	0.852846	0.239803	6
N	1.333885	1.338906	1.015223	7
N	1.605265	2.639106	0.757353	7
H	-1.734825	-0.112584	1.619813	1
H	-1.893705	-1.645684	0.748443	1
H	-2.108235	-0.099404	-0.101767	1
H	0.497705	-1.047264	1.216353	1
H	1.488605	-1.450624	-0.971477	1
H	-1.439835	-1.619884	-1.894537	1
H	0.083125	-2.233384	-2.748437	1
H	-0.076675	1.460956	-0.543917	1
H	2.457315	2.909016	1.256513	1
H	0.877135	3.244906	1.145583	1
Es	1.333553	1.339257	1.014764	99
Es	1.463901	2.007443	0.824198	99
Es	1.592610	2.705085	0.482213	99
Es	-0.361542	-1.737381	-1.889839	99
Es	0.728362	1.223658	0.868818	99
Es	-1.645908	-0.266847	1.320503	99
Es	0.330958	-0.893840	0.938047	99
Es	0.411688	-1.294003	-0.889170	99
Es	0.044066	-1.221885	-1.549125	99
Es	0.169778	-0.937710	-0.273641	99
Es	1.605179	2.638979	0.757966	99
Es	-0.019350	-1.806917	-1.244284	99
Es	0.076889	1.261313	-0.287087	99
Es	1.142653	-1.389608	-0.937387	99
Es	-1.767101	-1.314108	0.720070	99
Es	1.113805	1.058475	0.471576	99
Es	1.519699	1.146798	1.273775	99
Es	-1.916531	-0.265220	0.134784	99
Es	-1.096637	-1.672064	-1.906865	99
Es	1.204527	2.932342	1.002187	99
Es	0.186677	0.125799	0.293200	99
Es	-0.791763	-0.603023	0.498730	99
Es	0.415536	0.852802	0.239818	99
Es	2.109356	2.812227	1.092463	99
Es	-0.066902	-2.069483	-2.455026	99
Es	-0.029674	-0.588580	0.370804	99
Es	-1.525819	-0.616868	0.669208	99
44
Properties=species:S:1:pos:R:3:Z:I:1 energy=-304.0889470442223 field_type=dipole dipole="0.000000 0.000000 0.000000" charge=0
C	-1.525855	-0.616874	0.669223	6
C	-0.029655	-0.588624	0.370873	6
C	0.411645	-1.294064	-0.889277	6
C	-0.361475	-1.737344	-1.889767	6
C	0.415585	0.852846	0.239803	6
N	1.333885	1.338906	1.015223	7
N	1.605265	2.639106	0.757353	7
H	-1.734825	-0.112584	1.619813	1
H	-1.893705	-1.645684	0.748443	1
H	-2.108235	-0.099404	-0.101767	1
H	0.497705	-1.047264	1.216353	1
H	1.488605	-1.450624	-0.971477	1
H	-1.439835	-1.619884	-1.894537	1
H	0.083125	-2.233384	-2.748437	1
H	-0.076675	1.460956	-0.543917	1
H	2.457315	2.909016	1.256513	1
H	0.877135	3.244906	1.145583	1
Es	2.108934	2.812788	1.092712	99
Es	0.169817	-0.937718	-0.273833	99
Es	-1.766929	-1.314134	0.720082	99
Es	-0.361541	-1.737384	-1.889836	99
Es	-1.525816	-0.616869	0.669205	99
Es	0.331932	-0.892222	0.938761	99
Es	1.465524	2.011379	0.816845	99
Es	1.209271	2.928133	1.002513	99
Es	1.518624	1.146821	1.272563	99
Es	-0.019388	-1.806956	-1.244285	99
Es	0.415536	0.852802	0.239818	99
Es	-0.794667	-0.603604	0.498506	99
Es	1.333555	1.339246	1.014770	99
Es	0.077113	1.261300	-0.286899	99
Es	-1.916573	-0.265251	0.134708	99
Es	1.142947	-1.389355	-0.936943	99
Es	0.044090	-1.221787	-1.549185	99
Es	0.185457	0.124331	0.292228	99
Es	0.728629	1.223934	0.868692	99
Es	-0.067334	-2.068367	-2.453053	99
Es	-1.096262	-1.673330	-1.908698	99
Es	0.411688	-1.293999	-0.889170	99
Es	-1.643321	-0.266519	1.320472	99
Es	1.605179	2.638940	0.758075	99
Es	-0.029675	-0.588580	0.370804	99
Es	1.587911	2.704323	0.490328	99
Es	1.113307	1.058713	0.471518	99
44
Properties=species:S:1:pos:R:3:Z:I:1 energy=-304.0889470442223 field_type=dipole dipole="0.000000 0.000000 0.000000" charge=0
C	-1.525855	-0.616874	0.669223	6
C	-0.029655	-0.588624	0.370873	6
C	0.411645	-1.294064	-0.889277	6
C	-0.361475	-1.737344	-1.889767	6
C	0.415585	0.852846	0.239803	6
N	1.333885	1.338906	1.015223	7
N	1.605265	2.639106	0.757353	7
H	-1.734825	-0.112584	1.619813	1
H	-1.893705	-1.645684	0.748443	1
H	-2.108235	-0.099404	-0.101767	1
H	0.497705	-1.047264	1.216353	1
H	1.488605	-1.450624	-0.971477	1
H	-1.439835	-1.619884	-1.894537	1
H	0.083125	-2.233384	-2.748437	1
H	-0.076675	1.460956	-0.543917	1
H	2.457315	2.909016	1.256513	1
H	0.877135	3.244906	1.145583	1
Es	2.108532	2.813104	1.093043	99
Es	-1.917123	-0.265777	0.134385	99
Es	-1.525817	-0.616868	0.669204	99
Es	0.170249	-0.937510	-0.273483	99
Es	1.142863	-1.389294	-0.937176	99
Es	1.333559	1.339271	1.014766	99
Es	1.518459	1.147052	1.272004	99
Es	1.113283	1.058694	0.471445	99
Es	1.585187	2.701868	0.498115	99
Es	0.332232	-0.891694	0.938863	99
Es	-0.797547	-0.604016	0.498400	99
Es	-1.640761	-0.266211	1.320332	99
Es	0.077380	1.261283	-0.286698	99
Es	1.465874	2.015748	0.809417	99
Es	0.043967	-1.221712	-1.549094	99
Es	0.411687	-1.293999	-0.889171	99
Es	0.415534	0.852801	0.239821	99
Es	-1.095656	-1.675001	-1.911010	99
Es	-1.766359	-1.313655	0.720467	99
Es	1.605156	2.638882	0.758212	99
Es	-0.029675	-0.588579	0.370804	99
Es	0.728629	1.223860	0.868828	99
Es	-0.068004	-2.066829	-2.450605	99
Es	-0.019328	-1.806961	-1.244410	99
Es	1.212270	2.925802	1.002176	99
Es	-0.361541	-1.737384	-1.889836	99
Es	0.184954	0.123761	0.291900	99
44
Properties=species:S:1:pos:R:3:Z:I:1 energy=-304.0889470442223 field_type=dipole dipole="0.000000 0.000000 0.000000" charge=0
C	-1.525855	-0.616874	0.669223	6
C	-0.029655	-0.588624	0.370873	6
C	0.411645	-1.294064	-0.889277	6
C	-0.361475	-1.737344	-1.889767	6
C	0.415585	0.852846	0.239803	6
N	1.333885	1.338906	1.015223	7
N	1.605265	2.639106	0.757353	7
H	-1.734825	-0.112584	1.619813	1
H	-1.893705	-1.645684	0.748443	1
H	-2.108235	-0.099404	-0.101767	1
H	0.497705	-1.047264	1.216353	1
H	1.488605	-1.450624	-0.971477	1
H	-1.439835	-1.619884	-1.894537	1
H	0.083125	-2.233384	-2.748437	1
H	-0.076675	1.460956	-0.543917	1
H	2.457315	2.909016	1.256513	1
H	0.877135	3.244906	1.145583	1
Es	1.214893	2.923754	1.002006	99
Es	0.169625	-0.937876	-0.274247	99
Es	-1.525818	-0.616868	0.669207	99
Es	-1.766204	-1.313566	0.720558	99
Es	1.113382	1.058756	0.471381	99
Es	-0.068595	-2.065806	-2.448829	99
Es	-0.029674	-0.588580	0.370804	99
Es	1.583160	2.699694	0.504136	99
Es	-0.361543	-1.737380	-1.889837	99
Es	0.728621	1.223984	0.868648	99
Es	0.043969	-1.221707	-1.549094	99
Es	1.466533	2.019393	0.804263	99
Es	1.143157	-1.388958	-0.936771	99
Es	-0.019373	-1.807085	-1.244333	99
Es	0.332808	-0.890810	0.939170	99
Es	2.108126	2.813340	1.093411	99
Es	-1.638897	-0.266049	1.320135	99
Es	0.184043	0.122857	0.291283	99
Es	0.077675	1.261315	-0.286351	99
Es	-1.095134	-1.676032	-1.912717	99
Es	1.517593	1.147063	1.271345	99
Es	1.333553	1.339252	1.014765	99
Es	0.411686	-1.293998	-0.889170	99
Es	0.415535	0.852803	0.239818	99
Es	-0.799021	-0.603968	0.498780	99
Es	-1.917247	-0.265871	0.134308	99
Es	1.605157	2.638984	0.758028	99
44
Properties=species:S:1:pos:R:3:Z:I:1 energy=-304.0889470442223 field_type=dipole dipole="0.000000 0.000000 0.000000" charge=0
C	-1.525855	-0.616874	0.669223	6
C	-0.029655	-0.588624	0.370873	6
C	0.411645	-1.294064	-0.889277	6
C	-0.361475	-1.737344	-1.889767	6
C	0.415585	0.852846	0.239803	6
N	1.333885	1.338906	1.015223	7
N	1.605265	2.639106	0.757353	7
H	-1.734825	-0.112584	1.619813	1
H	-1.893705	-1.645684	0.748443	1
H	-2.108235	-0.099404	-0.101767	1
H	0.497705	-1.047264	1.216353	1
H	1.488605	-1.450624	-0.971477	1
H	-1.439835	-1.619884	-1.894537	1
H	0.083125	-2.233384	-2.748437	1
H	-0.076675	1.460956	-0.543917	1
H	2.457315	2.909016	1.256513	1
H	0.877135	3.244906	1.145583	1
Es	0.078183	1.261293	-0.285865	99
Es	-0.069088	-2.064864	-2.447496	99
Es	1.467406	2.022212	0.799617	99
Es	-1.766667	-1.313947	0.720124	99
Es	-0.361541	-1.737382	-1.889837	99
Es	-1.094687	-1.676832	-1.914100	99
Es	0.170314	-0.937377	-0.273739	99
Es	1.517409	1.147221	1.270701	99
Es	1.217483	2.921146	1.002453	99
Es	-0.019391	-1.807044	-1.244411	99
Es	-0.801983	-0.604527	0.498650	99
Es	2.108111	2.813464	1.093380	99
Es	0.333364	-0.889791	0.939498	99
Es	1.580019	2.699095	0.508997	99
Es	-1.916730	-0.265401	0.134638	99
Es	0.415535	0.852801	0.239820	99
Es	-1.525817	-0.616868	0.669205	99
Es	0.411690	-1.294001	-0.889172	99
Es	-1.636581	-0.265946	1.319888	99
Es	0.043964	-1.221837	-1.548953	99
Es	1.333545	1.339258	1.014757	99
Es	1.143118	-1.389066	-0.936859	99
Es	-0.029675	-0.588579	0.370805	99
Es	0.728726	1.224004	0.868730	99
Es	0.183011	0.121800	0.290479	99
Es	1.113111	1.058868	0.471353	99
Es	1.605181	2.638938	0.758036	99
44
Properties=species:S:1:pos:R:3:Z:I:1 energy=-304.0889470442223 field_type=dipole dipole="0.000000 0.000000 0.000000" charge=0
C	-1.525855	-0.616874	0.669223	6
C	-0.029655	-0.588624	0.370873	6
C	0.411645	-1.294064	-0.889277	6
C	-0.361475	-1.737344	-1.889767	6
C	0.415585	0.852846	0.239803	6
N	1.333885	1.338906	1.015223	7
N	1.605265	2.639106	0.757353	7
H	-1.734825	-0.112584	1.619813	1
H	-1.893705	-1.645684	0.748443	1
H	-2.108235	-0.099404	-0.101767	1
H	0.497705	-1.047264	1.216353	1
H	1.488605	-1.450624	-0.971477	1
H	-1.439835	-1.619884	-1.894537	1
H	0.083125	-2.233384	-2.748437	1
H	-0.076675	1.460956	-0.543917	1
H	2.457315	2.909016	1.256513	1
H	0.877135	3.244906	1.145583	1
Es	1.143043	-1.389029	-0.937031	99
Es	-1.094281	-1.677598	-1.915107	99
Es	0.078121	1.261302	-0.285917	99
Es	-0.069550	-2.064243	-2.446344	99
Es	0.411688	-1.294002	-0.889171	99
Es	1.605158	2.638881	0.758202	99
Es	1.112837	1.058888	0.471388	99
Es	1.517442	1.147341	1.270565	99
Es	-1.766289	-1.313670	0.720399	99
Es	0.043951	-1.221826	-1.548915	99
Es	1.220352	2.919046	1.001919	99
Es	-0.029676	-0.588579	0.370806	99
Es	0.333467	-0.889593	0.939534	99
Es	1.467105	2.025915	0.794337	99
Es	-1.635562	-0.265844	1.319718	99
Es	-1.525818	-0.616868	0.669206	99
Es	0.415534	0.852800	0.239822	99
Es	0.182969	0.121670	0.290441	99
Es	1.333548	1.339248	1.014763	99
Es	2.107796	2.813833	1.093545	99
Es	0.729034	1.223980	0.868661	99
Es	-0.019403	-1.807024	-1.244475	99
Es	0.170489	-0.937262	-0.273511	99
Es	-0.803043	-0.604682	0.498643	99
Es	1.577741	2.697080	0.514616	99
Es	-0.361540	-1.737381	-1.889840	99
Es	-1.917107	-0.265745	0.134444	99
44
Properties=species:S:1:pos:R:3:Z:I:1 energy=-304.0889470442223 field_type=dipole dipole="0.000000 0.000000 0.000000" charge=0
C	-1.525855	-0.616874	0.669223	6
C	-0.029655	-0.588624	0.370873	6
C	0.411645	-1.294064	-0.889277	6
C	-0.361475	-1.737344	-1.889767	6
C	0.415585	0.852846	0.239803	6
N	1.333885	1.338906	1.015223	7
N	1.605265	2.639106	0.757353	7
H	-1.734825	-0.112584	1.619813	1
H	-1.893705	-1.645684	0.748443	1
H	-2.108235	-0.099404	-0.101767	1
H	0.497705	-1.047264	1.216353	1
H	1.488605	-1.450624	-0.971477	1
H	-1.439835	-1.619884	-1.894537	1
H	0.083125	-2.233384	-2.748437	1
H	-0.076675	1.460956	-0.543917	1
H	2.457315	2.909016	1.256513	1
H	0.877135	3.244906	1.145583	1
Es	2.107358	2.814061	1.093930	99
Es	-0.070119	-2.063427	-2.445009	99
Es	1.112476	1.059113	0.471345	99
Es	-0.019410	-1.807039	-1.244469	99
Es	1.143098	-1.388987	-0.936961	99
Es	0.170562	-0.937282	-0.273501	99
Es	-0.361541	-1.737381	-1.889838	99
Es	-1.917393	-0.265986	0.134227	99
Es	-0.029673	-0.588579	0.370803	99
Es	-1.525816	-0.616869	0.669204	99
Es	1.468263	2.027661	0.792449	99
Es	0.182480	0.120905	0.290108	99
Es	1.605183	2.638941	0.758052	99
Es	-1.766060	-1.313439	0.720653	99
Es	1.577562	2.694965	0.517870	99
Es	-1.633619	-0.265709	1.319369	99
Es	1.221008	2.918682	1.001545	99
Es	0.333881	-0.888796	0.939707	99
Es	0.729228	1.224063	0.868641	99
Es	-1.093766	-1.678438	-1.916377	99
Es	0.043979	-1.221744	-1.548961	99
Es	1.333547	1.339253	1.014761	99
Es	0.078198	1.261280	-0.285763	99
Es	1.516418	1.147480	1.269369	99
Es	-0.805060	-0.604895	0.498901	99
Es	0.415535	0.852802	0.239819	99
Es	0.411687	-1.294000	-0.889172	99
44
Properties=species:S:1:pos:R:3:Z:I:1 energy=-304.0889470442223 field_type=dipole dipole="0.000000 0.000000 0.000000" charge=0
C	-1.525855	-0.616874	0.669223	6
C	-0.029655	-0.588624	0.370873	6
C	0.411645	-1.294064	-0.889277	6
C	-0.361475	-1.737344	-1.889767	6
C	0.415585	0.852846	0.239803	6
N	1.333885	1.338906	1.015223	7
N	1.605265	2.639106	0.757353	7
H	-1.734825	-0.112584	1.619813	1
H	-1.893705	-1.645684	0.748443	1
H	-2.108235	-0.099404	-0.101767	1
H	0.497705	-1.047264	1.216353	1
H	1.488605	-1.450624	-0.971477	1
H	-1.439835	-1.619884	-1.894537	1
H	0.083125	-2.233384	-2.748437	1
H	-0.076675	1.460956	-0.543917	1
H	2.457315	2.909016	1.256513	1
H	0.877135	3.244906	1.145583	1
Es	-0.361542	-1.737380	-1.889838	99
Es	-1.525817	-0.616869	0.669205	99
Es	-1.632296	-0.265689	1.319170	99
Es	2.107441	2.813956	1.093893	99
Es	1.333548	1.339249	1.014763	99
Es	0.170476	-0.937316	-0.273790	99
Es	-0.806682	-0.605127	0.498974	99
Es	0.334066	-0.888362	0.939877	99
Es	0.729055	1.224136	0.868491	99
Es	0.415533	0.852803	0.239820	99
Es	-0.029676	-0.588579	0.370805	99
Es	1.469886	2.030009	0.789370	99
Es	-1.917357	-0.266015	0.134118	99
Es	1.575803	2.693932	0.521305	99
Es	0.043939	-1.221784	-1.548878	99
Es	1.222035	2.917441	1.001972	99
Es	0.181845	0.120515	0.289597	99
Es	-1.765936	-1.313404	0.720632	99
Es	1.605171	2.638939	0.758073	99
Es	-0.019351	-1.807097	-1.244547	99
Es	0.078585	1.261264	-0.285376	99
Es	0.411687	-1.293999	-0.889171	99
Es	1.112842	1.059037	0.471292	99
Es	-0.070613	-2.062608	-2.443862	99
Es	1.143351	-1.388734	-0.936414	99
Es	-1.093219	-1.679170	-1.917634	99
Es	1.515236	1.147491	1.268853	99
44
Properties=species:S:1:pos:R:3:Z:I:1 energy=-304.0889470442223 field_type=dipole dipole="0.000000 0.000000 0.000000" charge=0
C	-1.525855	-0.616874	0.669223	6
C	-0.029655	-0.588624	0.370873	6
C	0.411645	-1.294064	-0.889277	6
C	-0.361475	-1.737344	-1.889767	6
C	0.415585	0.852846	0.239803	6
N	1.333885	1.338906	1.015223	7
N	1.605265	2.639106	0.757353	7
H	-1.734825	-0.112584	1.619813	1
H	-1.893705	-1.645684	0.748443	1
H	-2.108235	-0.099404	-0.101767	1
H	0.497705	-1.047264	1.216353	1
H	1.488605	-1.450624	-0.971477	1
H	-1.439835	-1.619884	-1.894537	1
H	0.083125	-2.233384	-2.748437	1
H	-0.076675	1.460956	-0.543917	1
H	2.457315	2.909016	1.256513	1
H	0.877135	3.244906	1.145583	1
Es	1.515311	1.147731	1.268355	99
Es	0.334354	-0.887932	0.939954	99
Es	1.143199	-1.388861	-0.936876	99
Es	-0.029675	-0.588579	0.370804	99
Es	-1.765644	-1.313196	0.720885	99
Es	-1.525818	-0.616868	0.669206	99
Es	0.415537	0.852802	0.239818	99
Es	-1.630477	-0.265570	1.318730	99
Es	-0.361537	-1.737382	-1.889844	99
Es	-0.808755	-0.605371	0.499042	99
Es	-0.070673	-2.062699	-2.443844	99
Es	0.078407	1.261265	-0.285541	99
Es	0.411687	-1.294000	-0.889171	99
Es	-1.917653	-0.266265	0.133954	99
Es	1.605074	2.639071	0.757989	99
Es	-0.019433	-1.807124	-1.244385	99
Es	2.107414	2.814163	1.093821	99
Es	0.043915	-1.221684	-1.549024	99
Es	0.170998	-0.936881	-0.273197	99
Es	1.112718	1.059041	0.471312	99
Es	1.333548	1.339256	1.014761	99
Es	-1.093286	-1.679252	-1.917417	99
Es	1.469119	2.032408	0.786927	99
Es	0.729107	1.224031	0.868614	99
Es	0.181806	0.120039	0.289640	99
Es	1.574702	2.692419	0.524598	99
Es	1.224062	2.916079	1.001590	99
