41
Properties=species:S:1:pos:R:3:Z:I:1 energy=-302.89448984821007 field_type=dipole dipole="0.000000 0.000000 0.000000" charge=0
C	-3.313820	0.097270	-0.006686	6
C	-1.869820	0.097270	-0.006686	6
C	-0.679660	0.097270	-0.006686	6
C	0.759660	0.029620	-0.044756	6
C	1.434540	-1.305370	-0.074626	6
N	1.299650	1.209110	-0.056996	7
N	2.654760	1.232940	-0.097406	7
H	-3.707870	1.118120	0.004984	1
H	-3.707850	-0.423290	0.871564	1
H	-3.707840	-0.403060	-0.896616	1
H	0.699380	-2.115100	-0.076916	1
H	2.073210	-1.414260	0.806404	1
H	2.049440	-1.387890	-0.975286	1
H	2.965660	2.196230	-0.249186	1
H	3.050560	0.971140	0.808894	1
Es	-2.569930	0.098837	-0.006282	99
Es	0.935906	-1.844238	-0.073663	99
Es	1.049850	0.660988	-0.329669	99
Es	1.300007	1.208583	-0.056980	99
Es	-3.559228	-0.238015	-0.601957	99
Es	-1.248666	0.316229	-0.286101	99
Es	2.832239	1.818190	-0.171987	99
Es	1.090109	-0.630975	-0.053867	99
Es	1.861321	-1.365761	0.519481	99
Es	2.754061	1.014506	-0.350059	99
Es	-3.561862	0.779789	0.001090	99
Es	-1.870093	0.097280	-0.006670	99
Es	-3.559345	-0.251560	0.581209	99
Es	0.013810	0.050365	-0.020429	99
Es	2.866579	1.074759	0.455518	99
Es	-3.313708	0.097267	-0.006685	99
Es	0.759545	0.029585	-0.044708	99
Es	1.434511	-1.305295	-0.074611	99
Es	-1.280941	-0.264169	-0.052595	99
Es	-0.679387	0.097262	-0.006684	99
Es	1.070611	0.683402	0.244166	99
Es	2.654458	1.233304	-0.096960	99
Es	-1.238452	0.232751	0.323735	99
Es	1.839368	-1.349133	-0.673482	99
Es	1.987841	1.211502	-0.054220	99
Es	1.113017	1.534214	-0.071842	99
41
Properties=species:S:1:pos:R:3:Z:I:1 energy=-302.89448984821007 field_type=dipole dipole="0.000000 0.000000 0.000000" charge=0
C	-3.313820	0.097270	-0.006686	6
C	-1.869820	0.097270	-0.006686	6
C	-0.679660	0.097270	-0.006686	6
C	0.759660	0.029620	-0.044756	6
C	1.434540	-1.305370	-0.074626	6
N	1.299650	1.209110	-0.056996	7
N	2.654760	1.232940	-0.097406	7
H	-3.707870	1.118120	0.004984	1
H	-3.707850	-0.423290	0.871564	1
H	-3.707840	-0.403060	-0.896616	1
H	0.699380	-2.115100	-0.076916	1
H	2.073210	-1.414260	0.806404	1
H	2.049440	-1.387890	-0.975286	1
H	2.965660	2.196230	-0.249186	1
H	3.050560	0.971140	0.808894	1
Es	1.113634	1.526944	-0.070450	99
Es	2.870122	1.069416	0.449004	99
Es	0.759544	0.029579	-0.044710	99
Es	1.300036	1.208607	-0.056981	99
Es	0.012926	0.054529	-0.020241	99
Es	-0.679379	0.097271	-0.006681	99
Es	1.838855	-1.346587	-0.670643	99
Es	1.861899	-1.363479	0.517448	99
Es	1.434510	-1.305294	-0.074610	99
Es	1.985911	1.210123	-0.058505	99
Es	-1.870114	0.097279	-0.006678	99
Es	2.749075	1.024041	-0.333739	99
Es	0.931774	-1.847565	-0.074093	99
Es	-1.246371	0.290947	-0.290578	99
Es	-3.313709	0.097267	-0.006686	99
Es	2.654475	1.233267	-0.097002	99
Es	-3.561478	-0.236245	-0.599379	99
Es	-3.563697	0.775030	0.001325	99
Es	-1.241729	0.262224	0.297583	99
Es	-2.565508	0.095386	-0.006135	99
Es	-3.561416	-0.249509	0.578003	99
Es	1.094251	-0.629521	-0.054712	99
Es	1.048662	0.661836	-0.327735	99
Es	1.070024	0.683919	0.241982	99
Es	2.839531	1.819255	-0.177461	99
Es	-1.280209	-0.269050	-0.022578	99
41
Properties=species:S:1:pos:R:3:Z:I:1 energy=-302.89448984821007 field_type=dipole dipole="0.000000 0.000000 0.000000" charge=0
C	-3.313820	0.097270	-0.006686	6
C	-1.869820	0.097270	-0.006686	6
C	-0.679660	0.097270	-0.006686	6
C	0.759660	0.029620	-0.044756	6
C	1.434540	-1.305370	-0.074626	6
N	1.299650	1.209110	-0.056996	7
N	2.654760	1.232940	-0.097406	7
H	-3.707870	1.118120	0.004984	1
H	-3.707850	-0.423290	0.871564	1
H	-3.707840	-0.403060	-0.896616	1
H	0.699380	-2.115100	-0.076916	1
H	2.073210	-1.414260	0.806404	1
H	2.049440	-1.387890	-0.975286	1
H	2.965660	2.196230	-0.249186	1
H	3.050560	0.971140	0.808894	1
Es	-2.563489	0.094857	-0.006191	99
Es	-3.561679	-0.247758	0.576149	99
Es	1.097140	-0.629439	-0.055306	99
Es	1.047563	0.662483	-0.327272	99
Es	-1.280132	-0.271940	-0.008652	99
Es	2.845363	1.819549	-0.179092	99
Es	1.115631	1.522495	-0.069727	99
Es	1.862915	-1.362352	0.516420	99
Es	1.985421	1.208572	-0.060223	99
Es	-1.244773	0.285620	0.280244	99
Es	-3.562898	-0.235772	-0.597556	99
Es	0.929025	-1.848116	-0.074227	99
Es	2.740602	1.035552	-0.322520	99
Es	0.759544	0.029577	-0.044708	99
Es	-1.870111	0.097256	-0.006683	99
Es	-0.679369	0.097281	-0.006687	99
Es	2.654398	1.233352	-0.096894	99
Es	1.300052	1.208578	-0.056974	99
Es	-3.313707	0.097266	-0.006686	99
Es	2.874758	1.060430	0.441152	99
Es	1.068787	0.684894	0.241338	99
Es	0.012287	0.056277	-0.020527	99
Es	-1.243436	0.269808	-0.287116	99
Es	1.837701	-1.345148	-0.669265	99
Es	-3.564486	0.771641	0.001363	99
Es	1.434510	-1.305294	-0.074611	99
41
Properties=species:S:1:pos:R:3:Z:I:1 energy=-302.89448984821007 field_type=dipole dipole="0.000000 0.000000 0.000000" charge=0
C	-3.313820	0.097270	-0.006686	6
C	-1.869820	0.097270	-0.006686	6
C	-0.679660	0.097270	-0.006686	6
C	0.759660	0.029620	-0.044756	6
C	1.434540	-1.305370	-0.074626	6
N	1.299650	1.209110	-0.056996	7
N	2.654760	1.232940	-0.097406	7
H	-3.707870	1.118120	0.004984	1
H	-3.707850	-0.423290	0.871564	1
H	-3.707840	-0.403060	-0.896616	1
H	0.699380	-2.115100	-0.076916	1
H	2.073210	-1.414260	0.806404	1
H	2.049440	-1.387890	-0.975286	1
H	2.965660	2.196230	-0.249186	1
H	3.050560	0.971140	0.808894	1
Es	2.728695	1.050836	-0.308502	99
Es	-3.562377	-0.246443	0.575545	99
Es	1.099220	-0.630361	-0.055801	99
Es	0.011960	0.056590	-0.020591	99
Es	-1.279235	-0.269872	0.040061	99
Es	-1.870117	0.097269	-0.006681	99
Es	2.654321	1.233363	-0.096814	99
Es	-1.232142	0.185111	-0.280664	99
Es	1.434510	-1.305295	-0.074611	99
Es	-3.313706	0.097265	-0.006686	99
Es	-3.564122	-0.234907	-0.597012	99
Es	1.300053	1.208543	-0.056976	99
Es	1.864032	-1.361559	0.516437	99
Es	1.985300	1.207939	-0.061659	99
Es	-1.257004	0.368451	0.225210	99
Es	0.926363	-1.846921	-0.074322	99
Es	1.045878	0.663754	-0.328925	99
Es	-3.563696	0.768119	0.001390	99
Es	2.850925	1.818290	-0.182059	99
Es	2.881975	1.047932	0.431398	99
Es	0.759543	0.029578	-0.044715	99
Es	-2.562457	0.095007	-0.006432	99
Es	-0.679369	0.097285	-0.006682	99
Es	1.836740	-1.344099	-0.668912	99
Es	1.119228	1.517686	-0.069636	99
Es	1.067097	0.686106	0.243385	99
41
Properties=species:S:1:pos:R:3:Z:I:1 energy=-302.89448984821007 field_type=dipole dipole="0.000000 0.000000 0.000000" charge=0
C	-3.313820	0.097270	-0.006686	6
C	-1.869820	0.097270	-0.006686	6
C	-0.679660	0.097270	-0.006686	6
C	0.759660	0.029620	-0.044756	6
C	1.434540	-1.305370	-0.074626	6
N	1.299650	1.209110	-0.056996	7
N	2.654760	1.232940	-0.097406	7
H	-3.707870	1.118120	0.004984	1
H	-3.707850	-0.423290	0.871564	1
H	-3.707840	-0.403060	-0.896616	1
H	0.699380	-2.115100	-0.076916	1
H	2.073210	-1.414260	0.806404	1
H	2.049440	-1.387890	-0.975286	1
H	2.965660	2.196230	-0.249186	1
H	3.050560	0.971140	0.808894	1
Es	0.011754	0.056514	-0.021610	99
Es	2.654387	1.233377	-0.096841	99
Es	-3.313706	0.097270	-0.006684	99
Es	1.101456	-0.632843	-0.058110	99
Es	-2.561997	0.096007	-0.005177	99
Es	-1.222345	0.100728	0.233608	99
Es	0.923252	-1.844296	-0.073573	99
Es	-1.870118	0.097268	-0.006677	99
Es	-3.561937	-0.243267	0.575724	99
Es	1.042156	0.666907	-0.332414	99
Es	-1.268281	0.437255	-0.127119	99
Es	0.759543	0.029577	-0.044707	99
Es	1.065212	0.687630	0.247408	99
Es	1.300068	1.208523	-0.056972	99
Es	1.841339	-1.343742	-0.670201	99
Es	-3.567071	-0.235595	-0.597068	99
Es	2.729400	1.048718	-0.307860	99
Es	1.859862	-1.359604	0.516852	99
Es	2.876559	1.050471	0.426258	99
Es	-0.679368	0.097287	-0.006685	99
Es	-3.561698	0.764120	0.001342	99
Es	2.856114	1.817047	-0.178716	99
Es	1.125070	1.510703	-0.067571	99
Es	-1.277765	-0.254214	-0.122234	99
Es	1.985221	1.209121	-0.060612	99
Es	1.434510	-1.305294	-0.074612	99
41
Properties=species:S:1:pos:R:3:Z:I:1 energy=-302.89448984821007 field_type=dipole dipole="0.000000 0.000000 0.000000" charge=0
C	-3.313820	0.097270	-0.006686	6
C	-1.869820	0.097270	-0.006686	6
C	-0.679660	0.097270	-0.006686	6
C	0.759660	0.029620	-0.044756	6
C	1.434540	-1.305370	-0.074626	6
N	1.299650	1.209110	-0.056996	7
N	2.654760	1.232940	-0.097406	7
H	-3.707870	1.118120	0.004984	1
H	-3.707850	-0.423290	0.871564	1
H	-3.707840	-0.403060	-0.896616	1
H	0.699380	-2.115100	-0.076916	1
H	2.073210	-1.414260	0.806404	1
H	2.049440	-1.387890	-0.975286	1
H	2.965660	2.196230	-0.249186	1
H	3.050560	0.971140	0.808894	1
Es	0.759543	0.029576	-0.044704	99
Es	-1.870118	0.097266	-0.006680	99
Es	-1.263807	0.413050	0.174132	99
Es	2.654319	1.233391	-0.096735	99
Es	-3.566648	-0.233940	-0.597085	99
Es	-3.313708	0.097266	-0.006686	99
Es	2.860265	1.813916	-0.185328	99
Es	-3.560851	0.762374	0.001171	99
Es	1.434511	-1.305293	-0.074612	99
Es	-1.224681	0.143190	-0.214701	99
Es	0.011707	0.056289	-0.020952	99
Es	1.102823	-0.634637	-0.057051	99
Es	1.985318	1.207722	-0.062333	99
Es	1.062717	0.689847	0.249705	99
Es	1.300060	1.208582	-0.056977	99
Es	1.866110	-1.360080	0.516791	99
Es	-3.563421	-0.243672	0.575906	99
Es	-2.561805	0.096308	-0.006033	99
Es	-1.279945	-0.272190	0.025080	99
Es	2.711023	1.075388	-0.281672	99
Es	1.835287	-1.342134	-0.669551	99
Es	0.921407	-1.842486	-0.073914	99
Es	2.891006	1.027988	0.408345	99
Es	1.041312	0.667916	-0.334265	99
Es	1.128562	1.506751	-0.069437	99
Es	-0.679368	0.097280	-0.006665	99
41
Properties=species:S:1:pos:R:3:Z:I:1 energy=-302.89448984821007 field_type=dipole dipole="0.000000 0.000000 0.000000" charge=0
C	-3.313820	0.097270	-0.006686	6
C	-1.869820	0.097270	-0.006686	6
C	-0.679660	0.097270	-0.006686	6
C	0.759660	0.029620	-0.044756	6
C	1.434540	-1.305370	-0.074626	6
N	1.299650	1.209110	-0.056996	7
N	2.654760	1.232940	-0.097406	7
H	-3.707870	1.118120	0.004984	1
H	-3.707850	-0.423290	0.871564	1
H	-3.707840	-0.403060	-0.896616	1
H	0.699380	-2.115100	-0.076916	1
H	2.073210	-1.414260	0.806404	1
H	2.049440	-1.387890	-0.975286	1
H	2.965660	2.196230	-0.249186	1
H	3.050560	0.971140	0.808894	1
Es	1.132321	1.501941	-0.070468	99
Es	-1.280274	-0.273215	0.012868	99
Es	1.985327	1.207712	-0.062335	99
Es	0.011661	0.056176	-0.021219	99
Es	-1.870118	0.097263	-0.006680	99
Es	0.919604	-1.840392	-0.073707	99
Es	-0.679367	0.097290	-0.006683	99
Es	2.894954	1.018470	0.394411	99
Es	-3.568630	-0.234288	-0.597199	99
Es	1.434510	-1.305292	-0.074611	99
Es	1.835792	-1.341627	-0.669880	99
Es	1.104278	-0.636531	-0.058038	99
Es	-1.223234	0.136922	-0.189621	99
Es	2.654411	1.233356	-0.096886	99
Es	1.865850	-1.359410	0.516951	99
Es	1.300077	1.208544	-0.056968	99
Es	-3.559235	0.760134	0.001083	99
Es	2.703702	1.087178	-0.266650	99
Es	0.759544	0.029576	-0.044719	99
Es	-3.313707	0.097265	-0.006686	99
Es	-3.563182	-0.241464	0.576166	99
Es	2.863700	1.811621	-0.186182	99
Es	-2.561689	0.096550	-0.005992	99
Es	1.060117	0.692374	0.253027	99
Es	1.040139	0.669150	-0.335638	99
Es	-1.264932	0.420366	0.161405	99
41
Properties=species:S:1:pos:R:3:Z:I:1 energy=-302.89448984821007 field_type=dipole dipole="0.000000 0.000000 0.000000" charge=0
C	-3.313820	0.097270	-0.006686	6
C	-1.869820	0.097270	-0.006686	6
C	-0.679660	0.097270	-0.006686	6
C	0.759660	0.029620	-0.044756	6
C	1.434540	-1.305370	-0.074626	6
N	1.299650	1.209110	-0.056996	7
N	2.654760	1.232940	-0.097406	7
H	-3.707870	1.118120	0.004984	1
H	-3.707850	-0.423290	0.871564	1
H	-3.707840	-0.403060	-0.896616	1
H	0.699380	-2.115100	-0.076916	1
H	2.073210	-1.414260	0.806404	1
H	2.049440	-1.387890	-0.975286	1
H	2.965660	2.196230	-0.249186	1
H	3.050560	0.971140	0.808894	1
Es	0.759543	0.029577	-0.044712	99
Es	2.699521	1.094801	-0.255870	99
Es	-1.280485	-0.273672	0.001939	99
Es	0.917998	-1.838208	-0.073586	99
Es	1.105500	-0.638686	-0.058370	99
Es	2.654325	1.233385	-0.096803	99
Es	-3.557649	0.757886	0.001502	99
Es	-0.679367	0.097289	-0.006683	99
Es	1.836872	-1.341239	-0.670337	99
Es	-3.313708	0.097266	-0.006685	99
Es	-3.562286	-0.239269	0.576056	99
Es	1.434511	-1.305292	-0.074611	99
Es	1.300081	1.208516	-0.056972	99
Es	-1.870119	0.097264	-0.006681	99
Es	2.865358	1.810319	-0.186631	99
Es	-1.221496	0.127400	-0.158929	99
Es	1.985348	1.207730	-0.062423	99
Es	0.011643	0.056034	-0.021339	99
Es	2.897647	1.012148	0.383948	99
Es	-3.571175	-0.234653	-0.597368	99
Es	-2.561638	0.096946	-0.005894	99
Es	1.038503	0.671330	-0.337916	99
Es	-1.266474	0.430422	0.141536	99
Es	1.865016	-1.358663	0.517393	99
Es	1.136455	1.496120	-0.070740	99
Es	1.057692	0.694918	0.255924	99
41
Properties=species:S:1:pos:R:3:Z:I:1 energy=-302.89448984821007 field_type=dipole dipole="0.000000 0.000000 0.000000" charge=0
C	-3.313820	0.097270	-0.006686	6
C	-1.869820	0.097270	-0.006686	6
C	-0.679660	0.097270	-0.006686	6
C	0.759660	0.029620	-0.044756	6
C	1.434540	-1.305370	-0.074626	6
N	1.299650	1.209110	-0.056996	7
N	2.654760	1.232940	-0.097406	7
H	-3.707870	1.118120	0.004984	1
H	-3.707850	-0.423290	0.871564	1
H	-3.707840	-0.403060	-0.896616	1
H	0.699380	-2.115100	-0.076916	1
H	2.073210	-1.414260	0.806404	1
H	2.049440	-1.387890	-0.975286	1
H	2.965660	2.196230	-0.249186	1
H	3.050560	0.971140	0.808894	1
Es	-0.679366	0.097287	-0.006678	99
Es	0.011624	0.056016	-0.021259	99
Es	-3.556791	0.756625	0.000870	99
Es	1.985354	1.207756	-0.062383	99
Es	2.654385	1.233384	-0.096800	99
Es	-3.570878	-0.234037	-0.597448	99
Es	-2.561607	0.097119	-0.005785	99
Es	0.916771	-1.836399	-0.073591	99
Es	2.897669	1.008228	0.373164	99
Es	1.434512	-1.305294	-0.074609	99
Es	-1.280623	-0.273581	-0.008822	99
Es	1.865620	-1.358299	0.517525	99
Es	-1.267514	0.437118	0.125967	99
Es	-1.870118	0.097258	-0.006679	99
Es	1.036443	0.673390	-0.339779	99
Es	1.300081	1.208518	-0.056967	99
Es	1.057088	0.696248	0.257703	99
Es	-3.563475	-0.238827	0.576656	99
Es	1.139281	1.491923	-0.070349	99
Es	0.759543	0.029578	-0.044726	99
Es	1.106307	-0.640263	-0.058885	99
Es	2.696156	1.100944	-0.245994	99
Es	1.836449	-1.340768	-0.670355	99
Es	-3.313710	0.097267	-0.006685	99
Es	2.868745	1.807820	-0.185671	99
Es	-1.220327	0.120657	-0.132670	99
41
Properties=species:S:1:pos:R:3:Z:I:1 energy=-302.89448984821007 field_type=dipole dipole="0.000000 0.000000 0.000000" charge=0
C	-3.313820	0.097270	-0.006686	6
C	-1.869820	0.097270	-0.006686	6
C	-0.679660	0.097270	-0.006686	6
C	0.759660	0.029620	-0.044756	6
C	1.434540	-1.305370	-0.074626	6
N	1.299650	1.209110	-0.056996	7
N	2.654760	1.232940	-0.097406	7
H	-3.707870	1.118120	0.004984	1
H	-3.707850	-0.423290	0.871564	1
H	-3.707840	-0.403060	-0.896616	1
H	0.699380	-2.115100	-0.076916	1
H	2.073210	-1.414260	0.806404	1
H	2.049440	-1.387890	-0.975286	1
H	2.965660	2.196230	-0.249186	1
H	3.050560	0.971140	0.808894	1
Es	-1.267493	0.437000	0.126044	99
Es	1.054818	0.699197	0.260342	99
Es	1.434510	-1.305295	-0.074612	99
Es	1.106787	-0.641238	-0.058772	99
Es	-3.563518	-0.238013	0.576754	99
Es	1.036366	0.673736	-0.340704	99
Es	0.011619	0.055937	-0.021372	99
Es	1.141779	1.488115	-0.072216	99
Es	2.654221	1.233133	-0.096636	99
Es	2.871215	1.805542	-0.185839	99
Es	-3.571555	-0.233973	-0.597459	99
Es	2.899294	1.002034	0.359034	99
Es	-0.679368	0.097292	-0.006698	99
Es	-2.561595	0.097290	-0.005782	99
Es	0.916036	-1.835307	-0.073467	99
Es	2.692255	1.109750	-0.231481	99
Es	-1.870119	0.097262	-0.006679	99
Es	-1.220291	0.120538	-0.122666	99
Es	1.866919	-1.358198	0.517258	99
Es	-3.313706	0.097263	-0.006686	99
Es	1.300086	1.208500	-0.056967	99
Es	1.835231	-1.340382	-0.670150	99
Es	0.759543	0.029576	-0.044716	99
Es	-1.280669	-0.273404	-0.018844	99
Es	-3.556101	0.755636	0.000807	99
Es	1.985351	1.207679	-0.062746	99
41
Properties=species:S:1:pos:R:3:Z:I:1 energy=-302.89448984821007 field_type=dipole dipole="0.000000 0.000000 0.000000" charge=0
C	-3.313820	0.097270	-0.006686	6
C	-1.869820	0.097270	-0.006686	6
C	-0.679660	0.097270	-0.006686	6
C	0.759660	0.029620	-0.044756	6
C	1.434540	-1.305370	-0.074626	6
N	1.299650	1.209110	-0.056996	7
N	2.654760	1.232940	-0.097406	7
H	-3.707870	1.118120	0.004984	1
H	-3.707850	-0.423290	0.871564	1
H	-3.707840	-0.403060	-0.896616	1
H	0.699380	-2.115100	-0.076916	1
H	2.073210	-1.414260	0.806404	1
H	2.049440	-1.387890	-0.975286	1
H	2.965660	2.196230	-0.249186	1
H	3.050560	0.971140	0.808894	1
Es	1.035056	0.675637	-0.342083	99
Es	2.899764	0.998491	0.348582	99
Es	-2.561583	0.097477	-0.005875	99
Es	1.434510	-1.305294	-0.074610	99
Es	0.915295	-1.834116	-0.073527	99
Es	2.689824	1.114772	-0.221508	99
Es	1.107296	-0.642210	-0.059498	99
Es	1.865107	-1.357607	0.517738	99
Es	-1.267926	0.439786	0.118401	99
Es	1.985370	1.207658	-0.062825	99
Es	1.054553	0.699435	0.261156	99
Es	2.873147	1.803758	-0.185508	99
Es	0.011606	0.055916	-0.021345	99
Es	1.143448	1.485185	-0.070946	99
Es	0.759543	0.029576	-0.044711	99
Es	-1.280669	-0.273429	-0.012252	99
Es	-1.870119	0.097262	-0.006677	99
Es	-3.560945	-0.234308	0.575629	99
Es	-3.313706	0.097265	-0.006681	99
Es	-0.679367	0.097290	-0.006687	99
Es	-3.574675	-0.236996	-0.596120	99
Es	1.300073	1.208480	-0.056969	99
Es	1.837166	-1.340357	-0.670487	99
Es	-1.219869	0.117826	-0.121609	99
Es	-3.555560	0.754701	0.000619	99
Es	2.654279	1.233471	-0.096457	99
41
Properties=species:S:1:pos:R:3:Z:I:1 energy=-302.89448984821007 field_type=dipole dipole="0.000000 0.000000 0.000000" charge=0
C	-3.313820	0.097270	-0.006686	6
C	-1.869820	0.097270	-0.006686	6
C	-0.679660	0.097270	-0.006686	6
C	0.759660	0.029620	-0.044756	6
C	1.434540	-1.305370	-0.074626	6
N	1.299650	1.209110	-0.056996	7
N	2.654760	1.232940	-0.097406	7
H	-3.707870	1.118120	0.004984	1
H	-3.707850	-0.423290	0.871564	1
H	-3.707840	-0.403060	-0.896616	1
H	0.699380	-2.115100	-0.076916	1
H	2.073210	-1.414260	0.806404	1
H	2.049440	-1.387890	-0.975286	1
H	2.965660	2.196230	-0.249186	1
H	3.050560	0.971140	0.808894	1
Es	2.875314	1.801715	-0.184015	99
Es	1.300091	1.208473	-0.056965	99
Es	1.870216	-1.358191	0.516414	99
Es	1.034540	0.676158	-0.342384	99
Es	-3.564746	-0.237064	0.577513	99
Es	-1.219518	0.115075	-0.100242	99
Es	1.107795	-0.643053	-0.059563	99
Es	0.011606	0.055864	-0.021407	99
Es	0.759543	0.029576	-0.044712	99
Es	-3.571915	-0.232940	-0.597727	99
Es	1.145014	1.482683	-0.071862	99
Es	2.899189	0.996643	0.339410	99
Es	-1.870118	0.097260	-0.006674	99
Es	-1.280695	-0.272757	-0.027910	99
Es	2.688206	1.119806	-0.212961	99
Es	-3.313707	0.097264	-0.006682	99
Es	0.914834	-1.833350	-0.073284	99
Es	-0.679367	0.097289	-0.006682	99
Es	2.654314	1.232436	-0.097196	99
Es	-1.268249	0.441848	0.112622	99
Es	-3.554548	0.753521	0.000404	99
Es	1.832110	-1.339410	-0.669452	99
Es	1.053351	0.701381	0.262416	99
Es	1.985407	1.207344	-0.062972	99
Es	-2.561561	0.097391	-0.005731	99
Es	1.434509	-1.305292	-0.074611	99
41
Properties=species:S:1:pos:R:3:Z:I:1 energy=-302.89448984821007 field_type=dipole dipole="0.000000 0.000000 0.000000" charge=0
C	-3.313820	0.097270	-0.006686	6
C	-1.869820	0.097270	-0.006686	6
C	-0.679660	0.097270	-0.006686	6
C	0.759660	0.029620	-0.044756	6
C	1.434540	-1.305370	-0.074626	6
N	1.299650	1.209110	-0.056996	7
N	2.654760	1.232940	-0.097406	7
H	-3.707870	1.118120	0.004984	1
H	-3.707850	-0.423290	0.871564	1
H	-3.707840	-0.403060	-0.896616	1
H	0.699380	-2.115100	-0.076916	1
H	2.073210	-1.414260	0.806404	1
H	2.049440	-1.387890	-0.975286	1
H	2.965660	2.196230	-0.249186	1
H	3.050560	0.971140	0.808894	1
Es	-1.870119	0.097261	-0.006679	99
Es	-0.679366	0.097282	-0.006675	99
Es	-1.219466	0.114786	-0.099779	99
Es	1.434509	-1.305293	-0.074611	99
Es	1.835042	-1.339507	-0.670227	99
Es	-1.268286	0.442080	0.111356	99
Es	0.914262	-1.832416	-0.073390	99
Es	-3.575938	-0.236246	-0.596288	99
Es	-1.280705	-0.272737	-0.027076	99
Es	1.052306	0.702924	0.263532	99
Es	1.146611	1.479682	-0.072249	99
Es	2.901512	0.991396	0.330205	99
Es	1.108262	-0.644055	-0.059486	99
Es	1.300083	1.208471	-0.056964	99
Es	2.654254	1.233397	-0.096655	99
Es	-2.561547	0.097472	-0.005891	99
Es	1.034055	0.676929	-0.343172	99
Es	0.759544	0.029576	-0.044715	99
Es	-3.561254	-0.233073	0.575895	99
Es	0.011585	0.055929	-0.021305	99
Es	1.985387	1.207516	-0.063334	99
Es	-3.554018	0.752629	0.000666	99
Es	2.875242	1.801279	-0.186789	99
Es	2.686019	1.124645	-0.201243	99
Es	-3.313706	0.097264	-0.006686	99
Es	1.867350	-1.357522	0.517308	99
41
Properties=species:S:1:pos:R:3:Z:I:1 energy=-302.89448984821007 field_type=dipole dipole="0.000000 0.000000 0.000000" charge=0
C	-3.313820	0.097270	-0.006686	6
C	-1.869820	0.097270	-0.006686	6
C	-0.679660	0.097270	-0.006686	6
C	0.759660	0.029620	-0.044756	6
C	1.434540	-1.305370	-0.074626	6
N	1.299650	1.209110	-0.056996	7
N	2.654760	1.232940	-0.097406	7
H	-3.707870	1.118120	0.004984	1
H	-3.707850	-0.423290	0.871564	1
H	-3.707840	-0.403060	-0.896616	1
H	0.699380	-2.115100	-0.076916	1
H	2.073210	-1.414260	0.806404	1
H	2.049440	-1.387890	-0.975286	1
H	2.965660	2.196230	-0.249186	1
H	3.050560	0.971140	0.808894	1
Es	0.759543	0.029576	-0.044714	99
Es	-1.268688	0.444693	0.103772	99
Es	-1.280704	-0.272550	-0.029592	99
Es	-3.562307	-0.233431	0.576537	99
Es	0.011592	0.055850	-0.021501	99
Es	1.108614	-0.644914	-0.059656	99
Es	-2.561546	0.097559	-0.005752	99
Es	1.870490	-1.357842	0.516386	99
Es	1.051453	0.704359	0.264719	99
Es	2.654233	1.233407	-0.096454	99
Es	2.685524	1.126227	-0.197671	99
Es	1.147675	1.477872	-0.073087	99
Es	1.985421	1.207312	-0.063177	99
Es	-1.870118	0.097256	-0.006677	99
Es	1.033996	0.677111	-0.343444	99
Es	-0.679366	0.097289	-0.006681	99
Es	-3.575045	-0.235644	-0.596529	99
Es	-3.553864	0.752344	0.000263	99
Es	1.434511	-1.305294	-0.074612	99
Es	-1.219071	0.112044	-0.089622	99
Es	1.831930	-1.339023	-0.669407	99
Es	-3.313708	0.097281	-0.006685	99
Es	1.300086	1.208514	-0.056971	99
Es	2.899914	0.991729	0.323907	99
Es	0.913678	-1.831366	-0.073193	99
Es	2.877377	1.799311	-0.184409	99
