42
Properties=species:S:1:pos:R:3:Z:I:1 energy=-286.88369180740904 field_type=dipole dipole="0.000000 0.000000 0.000000" charge=0
C	-3.369610	-0.676500	-0.341437	6
C	-1.925610	-0.676500	-0.341437	6
C	-0.735450	-0.676500	-0.341437	6
C	0.708550	-0.676500	-0.341437	6
N	1.226610	0.696780	-0.385397	7
C	1.536891	1.255550	0.928013	6
C	2.631500	0.798390	-0.002557	6
H	-3.763580	0.344390	-0.329537	1
H	-3.763660	-1.197180	0.536723	1
H	-3.763690	-1.176600	-1.231467	1
H	1.070460	-1.205450	-1.231437	1
H	1.078960	-1.244400	0.522533	1
H	1.320080	0.666290	1.810093	1
H	1.369210	2.320260	1.033692	1
H	3.205570	1.555900	-0.522627	1
H	3.173770	-0.107930	0.237723	1
Es	-0.735183	-0.676508	-0.341433	99
Es	0.953332	-1.054997	0.253982	99
Es	1.883150	0.659272	-0.334041	99
Es	1.386996	0.847453	1.523198	99
Es	1.226885	0.696450	-0.384922	99
Es	-0.037791	-0.673448	-0.336770	99
Es	1.105459	0.910969	-0.637118	99
Es	-3.618048	-1.011963	-0.937633	99
Es	-1.331639	-0.519679	-0.665214	99
Es	-1.327556	-0.477698	-0.036928	99
Es	2.631251	0.798389	-0.002548	99
Es	2.994085	0.175102	0.158654	99
Es	2.239563	1.088221	0.612100	99
Es	-3.616917	0.006840	-0.333179	99
Es	0.708481	-0.676370	-0.341433	99
Es	-1.925893	-0.676501	-0.341432	99
Es	1.218735	0.935841	0.226633	99
Es	1.012239	0.088193	-0.331980	99
Es	3.024447	1.308395	-0.357516	99
Es	-3.618076	-1.025856	0.247591	99
Es	0.940811	-1.032548	-0.940479	99
Es	1.421741	1.977449	1.003552	99
Es	-2.626726	-0.676991	-0.341464	99
Es	1.536912	1.255439	0.927788	99
Es	-3.369504	-0.676501	-0.341436	99
Es	-1.316373	-1.042239	-0.315253	99
42
Properties=species:S:1:pos:R:3:Z:I:1 energy=-286.88369180740904 field_type=dipole dipole="0.000000 0.000000 0.000000" charge=0
C	-3.369610	-0.676500	-0.341437	6
C	-1.925610	-0.676500	-0.341437	6
C	-0.735450	-0.676500	-0.341437	6
C	0.708550	-0.676500	-0.341437	6
N	1.226610	0.696780	-0.385397	7
C	1.536891	1.255550	0.928013	6
C	2.631500	0.798390	-0.002557	6
H	-3.763580	0.344390	-0.329537	1
H	-3.763660	-1.197180	0.536723	1
H	-3.763690	-1.176600	-1.231467	1
H	1.070460	-1.205450	-1.231437	1
H	1.078960	-1.244400	0.522533	1
H	1.320080	0.666290	1.810093	1
H	1.369210	2.320260	1.033692	1
H	3.205570	1.555900	-0.522627	1
H	3.173770	-0.107930	0.237723	1
Es	-1.925900	-0.676502	-0.341435	99
Es	-0.040207	-0.674800	-0.336951	99
Es	2.248921	1.087124	0.611540	99
Es	-1.331556	-0.519404	-0.657162	99
Es	1.536916	1.255437	0.927785	99
Es	1.106419	0.906935	-0.628138	99
Es	-3.618037	0.002904	-0.332389	99
Es	1.210343	0.936245	0.224714	99
Es	1.889336	0.660806	-0.336020	99
Es	0.943492	-1.032101	-0.938563	99
Es	-3.620915	-1.010881	-0.936110	99
Es	3.024619	1.308356	-0.356730	99
Es	0.708481	-0.676370	-0.341432	99
Es	-2.623289	-0.676450	-0.340749	99
Es	1.226883	0.696441	-0.384909	99
Es	-3.369501	-0.676502	-0.341436	99
Es	1.008684	0.089447	-0.334128	99
Es	-1.328029	-0.486330	-0.030087	99
Es	-1.316072	-1.033099	-0.329612	99
Es	-0.735175	-0.676506	-0.341432	99
Es	1.419786	1.973865	1.003777	99
Es	1.384853	0.850274	1.519960	99
Es	2.994246	0.175582	0.158993	99
Es	0.954120	-1.052765	0.251036	99
Es	2.631256	0.798387	-0.002553	99
Es	-3.619294	-1.023380	0.244752	99
42
Properties=species:S:1:pos:R:3:Z:I:1 energy=-286.88369180740904 field_type=dipole dipole="0.000000 0.000000 0.000000" charge=0
C	-3.369610	-0.676500	-0.341437	6
C	-1.925610	-0.676500	-0.341437	6
C	-0.735450	-0.676500	-0.341437	6
C	0.708550	-0.676500	-0.341437	6
N	1.226610	0.696780	-0.385397	7
C	1.536891	1.255550	0.928013	6
C	2.631500	0.798390	-0.002557	6
H	-3.763580	0.344390	-0.329537	1
H	-3.763660	-1.197180	0.536723	1
H	-3.763690	-1.176600	-1.231467	1
H	1.070460	-1.205450	-1.231437	1
H	1.078960	-1.244400	0.522533	1
H	1.320080	0.666290	1.810093	1
H	1.369210	2.320260	1.033692	1
H	3.205570	1.555900	-0.522627	1
H	3.173770	-0.107930	0.237723	1
Es	-3.619475	-1.021506	0.242830	99
Es	0.954065	-1.051105	0.249098	99
Es	1.891028	0.662171	-0.335566	99
Es	1.418868	1.970953	1.003743	99
Es	2.631259	0.798385	-0.002558	99
Es	-1.332407	-0.542664	-0.666401	99
Es	1.205318	0.936469	0.222811	99
Es	1.226917	0.696419	-0.384867	99
Es	2.254281	1.087069	0.611436	99
Es	-3.622501	-1.010616	-0.934853	99
Es	-3.369501	-0.676501	-0.341435	99
Es	-1.315897	-1.022206	-0.313511	99
Es	2.994170	0.175672	0.159562	99
Es	-1.925909	-0.676505	-0.341434	99
Es	-3.618535	0.000647	-0.332131	99
Es	1.109219	0.904317	-0.622009	99
Es	-1.327399	-0.473419	-0.036986	99
Es	-0.735166	-0.676527	-0.341448	99
Es	0.708480	-0.676374	-0.341433	99
Es	1.005442	0.090018	-0.336606	99
Es	-0.041358	-0.675736	-0.336701	99
Es	1.384047	0.852086	1.517565	99
Es	3.024907	1.308227	-0.356482	99
Es	1.536922	1.255437	0.927783	99
Es	0.945233	-1.031952	-0.937708	99
Es	-2.621627	-0.676042	-0.339980	99
42
Properties=species:S:1:pos:R:3:Z:I:1 energy=-286.88369180740904 field_type=dipole dipole="0.000000 0.000000 0.000000" charge=0
C	-3.369610	-0.676500	-0.341437	6
C	-1.925610	-0.676500	-0.341437	6
C	-0.735450	-0.676500	-0.341437	6
C	0.708550	-0.676500	-0.341437	6
N	1.226610	0.696780	-0.385397	7
C	1.536891	1.255550	0.928013	6
C	2.631500	0.798390	-0.002557	6
H	-3.763580	0.344390	-0.329537	1
H	-3.763660	-1.197180	0.536723	1
H	-3.763690	-1.176600	-1.231467	1
H	1.070460	-1.205450	-1.231437	1
H	1.078960	-1.244400	0.522533	1
H	1.320080	0.666290	1.810093	1
H	1.369210	2.320260	1.033692	1
H	3.205570	1.555900	-0.522627	1
H	3.173770	-0.107930	0.237723	1
Es	3.024788	1.308260	-0.356175	99
Es	-3.619615	-1.020656	0.241452	99
Es	-3.618685	-0.000761	-0.331727	99
Es	-1.332673	-0.551486	-0.670676	99
Es	1.201717	0.936444	0.221579	99
Es	2.258100	1.086582	0.611132	99
Es	2.631263	0.798387	-0.002550	99
Es	-0.042073	-0.676406	-0.336601	99
Es	-0.735165	-0.676510	-0.341440	99
Es	1.383833	0.853650	1.515301	99
Es	0.953487	-1.049447	0.247571	99
Es	-3.623422	-1.009860	-0.933894	99
Es	1.002274	0.090426	-0.339544	99
Es	-2.620696	-0.675912	-0.339785	99
Es	1.891230	0.663425	-0.334483	99
Es	-1.327522	-0.474343	-0.035279	99
Es	1.226915	0.696405	-0.384861	99
Es	-1.315528	-1.012118	-0.310780	99
Es	0.708480	-0.676370	-0.341433	99
Es	1.536919	1.255436	0.927782	99
Es	2.994471	0.175613	0.159948	99
Es	-1.925913	-0.676511	-0.341436	99
Es	1.112344	0.902417	-0.616675	99
Es	1.418525	1.968808	1.003736	99
Es	0.946826	-1.032259	-0.937007	99
Es	-3.369502	-0.676501	-0.341435	99
42
Properties=species:S:1:pos:R:3:Z:I:1 energy=-286.88369180740904 field_type=dipole dipole="0.000000 0.000000 0.000000" charge=0
C	-3.369610	-0.676500	-0.341437	6
C	-1.925610	-0.676500	-0.341437	6
C	-0.735450	-0.676500	-0.341437	6
C	0.708550	-0.676500	-0.341437	6
N	1.226610	0.696780	-0.385397	7
C	1.536891	1.255550	0.928013	6
C	2.631500	0.798390	-0.002557	6
H	-3.763580	0.344390	-0.329537	1
H	-3.763660	-1.197180	0.536723	1
H	-3.763690	-1.176600	-1.231467	1
H	1.070460	-1.205450	-1.231437	1
H	1.078960	-1.244400	0.522533	1
H	1.320080	0.666290	1.810093	1
H	1.369210	2.320260	1.033692	1
H	3.205570	1.555900	-0.522627	1
H	3.173770	-0.107930	0.237723	1
Es	-1.316160	-0.988021	-0.266025	99
Es	-3.623591	-1.009305	-0.932496	99
Es	2.994887	0.175333	0.160346	99
Es	0.708481	-0.676374	-0.341434	99
Es	0.953350	-1.048460	0.246578	99
Es	-1.325814	-0.443598	-0.059269	99
Es	-2.620133	-0.675998	-0.339658	99
Es	1.418227	1.967235	1.003634	99
Es	1.890929	0.664125	-0.332720	99
Es	1.383938	0.854764	1.513610	99
Es	1.536923	1.255439	0.927766	99
Es	-0.735164	-0.676505	-0.341442	99
Es	1.199636	0.936832	0.220155	99
Es	-0.042547	-0.677068	-0.336532	99
Es	1.226919	0.696405	-0.384857	99
Es	0.998830	0.091110	-0.341609	99
Es	2.631264	0.798388	-0.002551	99
Es	-3.619139	-0.001260	-0.331810	99
Es	-1.333760	-0.606094	-0.691826	99
Es	2.260751	1.085778	0.610000	99
Es	-1.925912	-0.676502	-0.341432	99
Es	1.115307	0.900694	-0.612547	99
Es	3.024637	1.308717	-0.355912	99
Es	0.947730	-1.032143	-0.936376	99
Es	-3.619707	-1.020273	0.240566	99
Es	-3.369503	-0.676502	-0.341438	99
42
Properties=species:S:1:pos:R:3:Z:I:1 energy=-286.88369180740904 field_type=dipole dipole="0.000000 0.000000 0.000000" charge=0
C	-3.369610	-0.676500	-0.341437	6
C	-1.925610	-0.676500	-0.341437	6
C	-0.735450	-0.676500	-0.341437	6
C	0.708550	-0.676500	-0.341437	6
N	1.226610	0.696780	-0.385397	7
C	1.536891	1.255550	0.928013	6
C	2.631500	0.798390	-0.002557	6
H	-3.763580	0.344390	-0.329537	1
H	-3.763660	-1.197180	0.536723	1
H	-3.763690	-1.176600	-1.231467	1
H	1.070460	-1.205450	-1.231437	1
H	1.078960	-1.244400	0.522533	1
H	1.320080	0.666290	1.810093	1
H	1.369210	2.320260	1.033692	1
H	3.205570	1.555900	-0.522627	1
H	3.173770	-0.107930	0.237723	1
Es	-3.619550	-1.020089	0.239522	99
Es	1.384087	0.855614	1.511996	99
Es	1.226925	0.696398	-0.384848	99
Es	-1.326342	-0.450905	-0.052333	99
Es	1.117771	0.899143	-0.608467	99
Es	-3.619641	-0.001745	-0.331491	99
Es	-2.619728	-0.675912	-0.339537	99
Es	0.995668	0.091590	-0.343817	99
Es	-0.042864	-0.677498	-0.336558	99
Es	1.418152	1.965715	1.003694	99
Es	-0.735161	-0.676512	-0.341439	99
Es	-1.925912	-0.676500	-0.341433	99
Es	1.198046	0.936961	0.219354	99
Es	1.890066	0.665167	-0.331418	99
Es	2.263273	1.085218	0.609095	99
Es	0.708480	-0.676373	-0.341432	99
Es	-1.315675	-0.982533	-0.273713	99
Es	2.995058	0.175259	0.160631	99
Es	3.024587	1.308806	-0.355763	99
Es	0.952928	-1.047353	0.245692	99
Es	-1.333725	-0.604145	-0.691147	99
Es	-3.623739	-1.008807	-0.931593	99
Es	-3.369502	-0.676501	-0.341436	99
Es	2.631262	0.798387	-0.002556	99
Es	0.948994	-1.032102	-0.936061	99
Es	1.536923	1.255433	0.927775	99
42
Properties=species:S:1:pos:R:3:Z:I:1 energy=-286.88369180740904 field_type=dipole dipole="0.000000 0.000000 0.000000" charge=0
C	-3.369610	-0.676500	-0.341437	6
C	-1.925610	-0.676500	-0.341437	6
C	-0.735450	-0.676500	-0.341437	6
C	0.708550	-0.676500	-0.341437	6
N	1.226610	0.696780	-0.385397	7
C	1.536891	1.255550	0.928013	6
C	2.631500	0.798390	-0.002557	6
H	-3.763580	0.344390	-0.329537	1
H	-3.763660	-1.197180	0.536723	1
H	-3.763690	-1.176600	-1.231467	1
H	1.070460	-1.205450	-1.231437	1
H	1.078960	-1.244400	0.522533	1
H	1.320080	0.666290	1.810093	1
H	1.369210	2.320260	1.033692	1
H	3.205570	1.555900	-0.522627	1
H	3.173770	-0.107930	0.237723	1
Es	-3.620040	-0.001884	-0.332023	99
Es	-0.043065	-0.677795	-0.336491	99
Es	-1.316662	-0.964784	-0.247442	99
Es	2.265537	1.084500	0.607287	99
Es	0.708481	-0.676375	-0.341433	99
Es	-1.333931	-0.641431	-0.699276	99
Es	1.197190	0.936465	0.218660	99
Es	1.119194	0.898652	-0.605725	99
Es	0.993214	0.092283	-0.345943	99
Es	1.536926	1.255431	0.927771	99
Es	-3.369502	-0.676501	-0.341437	99
Es	-2.619455	-0.675875	-0.339494	99
Es	-0.735161	-0.676528	-0.341444	99
Es	2.995339	0.175059	0.161058	99
Es	-3.620179	-1.020358	0.239238	99
Es	1.418544	1.964115	1.003157	99
Es	0.949690	-1.031777	-0.935907	99
Es	2.631269	0.798390	-0.002549	99
Es	-3.623021	-1.008029	-0.930358	99
Es	0.953029	-1.046703	0.245390	99
Es	-1.325162	-0.431376	-0.070869	99
Es	1.888863	0.666040	-0.329030	99
Es	1.226939	0.696368	-0.384819	99
Es	1.383794	0.856327	1.511519	99
Es	-1.925913	-0.676502	-0.341431	99
Es	3.024462	1.309000	-0.355692	99
42
Properties=species:S:1:pos:R:3:Z:I:1 energy=-286.88369180740904 field_type=dipole dipole="0.000000 0.000000 0.000000" charge=0
C	-3.369610	-0.676500	-0.341437	6
C	-1.925610	-0.676500	-0.341437	6
C	-0.735450	-0.676500	-0.341437	6
C	0.708550	-0.676500	-0.341437	6
N	1.226610	0.696780	-0.385397	7
C	1.536891	1.255550	0.928013	6
C	2.631500	0.798390	-0.002557	6
H	-3.763580	0.344390	-0.329537	1
H	-3.763660	-1.197180	0.536723	1
H	-3.763690	-1.176600	-1.231467	1
H	1.070460	-1.205450	-1.231437	1
H	1.078960	-1.244400	0.522533	1
H	1.320080	0.666290	1.810093	1
H	1.369210	2.320260	1.033692	1
H	3.205570	1.555900	-0.522627	1
H	3.173770	-0.107930	0.237723	1
Es	-0.043170	-0.677182	-0.336937	99
Es	2.267170	1.084824	0.606079	99
Es	-2.619270	-0.674957	-0.340451	99
Es	-3.623252	-1.007210	-0.930293	99
Es	3.023876	1.308923	-0.355437	99
Es	0.708480	-0.676370	-0.341434	99
Es	1.118928	0.900508	-0.604514	99
Es	0.990094	0.091902	-0.347835	99
Es	-3.369501	-0.676500	-0.341436	99
Es	-1.321232	-0.979432	-0.530529	99
Es	-1.321746	-0.437381	-0.509167	99
Es	-1.332790	-0.621708	0.023082	99
Es	1.887951	0.665566	-0.326804	99
Es	2.996018	0.174996	0.161393	99
Es	1.419867	1.961297	1.001938	99
Es	1.383307	0.857219	1.512143	99
Es	0.954375	-1.046300	0.246476	99
Es	-3.621537	-1.019754	0.240093	99
Es	-3.618664	-0.003349	-0.332833	99
Es	1.536933	1.255426	0.927760	99
Es	-1.925913	-0.676494	-0.341441	99
Es	-0.735161	-0.676512	-0.341440	99
Es	2.631265	0.798388	-0.002548	99
Es	1.226924	0.696411	-0.384856	99
Es	0.950209	-1.030274	-0.936379	99
Es	1.197218	0.934676	0.218089	99
42
Properties=species:S:1:pos:R:3:Z:I:1 energy=-286.88369180740904 field_type=dipole dipole="0.000000 0.000000 0.000000" charge=0
C	-3.369610	-0.676500	-0.341437	6
C	-1.925610	-0.676500	-0.341437	6
C	-0.735450	-0.676500	-0.341437	6
C	0.708550	-0.676500	-0.341437	6
N	1.226610	0.696780	-0.385397	7
C	1.536891	1.255550	0.928013	6
C	2.631500	0.798390	-0.002557	6
H	-3.763580	0.344390	-0.329537	1
H	-3.763660	-1.197180	0.536723	1
H	-3.763690	-1.176600	-1.231467	1
H	1.070460	-1.205450	-1.231437	1
H	1.078960	-1.244400	0.522533	1
H	1.320080	0.666290	1.810093	1
H	1.369210	2.320260	1.033692	1
H	3.205570	1.555900	-0.522627	1
H	3.173770	-0.107930	0.237723	1
Es	-3.622367	-1.007836	-0.928355	99
Es	-0.735160	-0.676518	-0.341436	99
Es	1.536930	1.255428	0.927767	99
Es	-1.327586	-0.471250	-0.036107	99
Es	-3.622098	-0.001274	-0.331499	99
Es	0.952042	-1.045038	0.244254	99
Es	1.886971	0.667892	-0.325102	99
Es	1.385041	0.857419	1.508934	99
Es	-3.369501	-0.676499	-0.341436	99
Es	1.193774	0.937984	0.217348	99
Es	-3.619115	-1.020640	0.237289	99
Es	2.268687	1.082692	0.604392	99
Es	0.984089	0.096365	-0.355111	99
Es	2.996448	0.174750	0.161122	99
Es	-1.333586	-0.598643	-0.690760	99
Es	-2.619161	-0.675916	-0.339954	99
Es	1.418531	1.962706	1.003623	99
Es	0.708480	-0.676371	-0.341433	99
Es	1.128412	0.891676	-0.594274	99
Es	3.023534	1.309390	-0.355129	99
Es	1.226929	0.696411	-0.384855	99
Es	2.631266	0.798389	-0.002548	99
Es	-0.043311	-0.678106	-0.336701	99
Es	0.951614	-1.032020	-0.935521	99
Es	-1.925914	-0.676504	-0.341428	99
Es	-1.314568	-0.967773	-0.290361	99
42
Properties=species:S:1:pos:R:3:Z:I:1 energy=-286.88369180740904 field_type=dipole dipole="0.000000 0.000000 0.000000" charge=0
C	-3.369610	-0.676500	-0.341437	6
C	-1.925610	-0.676500	-0.341437	6
C	-0.735450	-0.676500	-0.341437	6
C	0.708550	-0.676500	-0.341437	6
N	1.226610	0.696780	-0.385397	7
C	1.536891	1.255550	0.928013	6
C	2.631500	0.798390	-0.002557	6
H	-3.763580	0.344390	-0.329537	1
H	-3.763660	-1.197180	0.536723	1
H	-3.763690	-1.176600	-1.231467	1
H	1.070460	-1.205450	-1.231437	1
H	1.078960	-1.244400	0.522533	1
H	1.320080	0.666290	1.810093	1
H	1.369210	2.320260	1.033692	1
H	3.205570	1.555900	-0.522627	1
H	3.173770	-0.107930	0.237723	1
Es	-3.621465	-1.007199	-0.927494	99
Es	0.708480	-0.676370	-0.341433	99
Es	2.269902	1.081890	0.602986	99
Es	1.536931	1.255427	0.927761	99
Es	3.023205	1.309484	-0.354984	99
Es	2.631267	0.798392	-0.002549	99
Es	0.952483	-1.031755	-0.935496	99
Es	2.996844	0.174608	0.161228	99
Es	0.979293	0.098122	-0.358445	99
Es	-0.043402	-0.678392	-0.336697	99
Es	-3.619461	-1.021235	0.236866	99
Es	-0.735162	-0.676513	-0.341437	99
Es	-3.622753	-0.001108	-0.331741	99
Es	0.952233	-1.044115	0.244406	99
Es	1.418820	1.961985	1.003356	99
Es	1.226948	0.696346	-0.384804	99
Es	-1.925914	-0.676499	-0.341428	99
Es	1.194108	0.938473	0.216126	99
Es	-1.327460	-0.468845	-0.038214	99
Es	-3.369501	-0.676501	-0.341435	99
Es	1.384899	0.857815	1.508583	99
Es	-1.333645	-0.604435	-0.692538	99
Es	1.131352	0.888929	-0.589953	99
Es	1.886075	0.668407	-0.323392	99
Es	-1.314635	-0.964242	-0.286616	99
Es	-2.619063	-0.675954	-0.339937	99
42
Properties=species:S:1:pos:R:3:Z:I:1 energy=-286.88369180740904 field_type=dipole dipole="0.000000 0.000000 0.000000" charge=0
C	-3.369610	-0.676500	-0.341437	6
C	-1.925610	-0.676500	-0.341437	6
C	-0.735450	-0.676500	-0.341437	6
C	0.708550	-0.676500	-0.341437	6
N	1.226610	0.696780	-0.385397	7
C	1.536891	1.255550	0.928013	6
C	2.631500	0.798390	-0.002557	6
H	-3.763580	0.344390	-0.329537	1
H	-3.763660	-1.197180	0.536723	1
H	-3.763690	-1.176600	-1.231467	1
H	1.070460	-1.205450	-1.231437	1
H	1.078960	-1.244400	0.522533	1
H	1.320080	0.666290	1.810093	1
H	1.369210	2.320260	1.033692	1
H	3.205570	1.555900	-0.522627	1
H	3.173770	-0.107930	0.237723	1
Es	0.708480	-0.676368	-0.341432	99
Es	-1.925914	-0.676497	-0.341430	99
Es	-3.623303	-0.000822	-0.332307	99
Es	1.536932	1.255429	0.927758	99
Es	-1.333769	-0.621142	-0.696965	99
Es	0.952292	-1.043641	0.244418	99
Es	-3.620430	-1.006507	-0.926410	99
Es	-0.043467	-0.678522	-0.336764	99
Es	-3.369501	-0.676499	-0.341438	99
Es	-0.735160	-0.676517	-0.341442	99
Es	2.631266	0.798386	-0.002549	99
Es	3.022707	1.309633	-0.354786	99
Es	0.976199	0.099884	-0.361213	99
Es	2.997427	0.174535	0.161348	99
Es	1.133325	0.886864	-0.586547	99
Es	-2.618999	-0.676044	-0.340099	99
Es	1.194114	0.938538	0.215527	99
Es	-1.315089	-0.957568	-0.273988	99
Es	2.271155	1.081142	0.600925	99
Es	-3.619997	-1.021883	0.236766	99
Es	1.419247	1.960987	1.002936	99
Es	1.885059	0.669174	-0.321390	99
Es	1.226941	0.696372	-0.384826	99
Es	-1.326892	-0.458854	-0.046602	99
Es	0.953072	-1.031411	-0.935483	99
Es	1.384685	0.858047	1.508715	99
42
Properties=species:S:1:pos:R:3:Z:I:1 energy=-286.88369180740904 field_type=dipole dipole="0.000000 0.000000 0.000000" charge=0
C	-3.369610	-0.676500	-0.341437	6
C	-1.925610	-0.676500	-0.341437	6
C	-0.735450	-0.676500	-0.341437	6
C	0.708550	-0.676500	-0.341437	6
N	1.226610	0.696780	-0.385397	7
C	1.536891	1.255550	0.928013	6
C	2.631500	0.798390	-0.002557	6
H	-3.763580	0.344390	-0.329537	1
H	-3.763660	-1.197180	0.536723	1
H	-3.763690	-1.176600	-1.231467	1
H	1.070460	-1.205450	-1.231437	1
H	1.078960	-1.244400	0.522533	1
H	1.320080	0.666290	1.810093	1
H	1.369210	2.320260	1.033692	1
H	3.205570	1.555900	-0.522627	1
H	3.173770	-0.107930	0.237723	1
Es	-2.618954	-0.676037	-0.340192	99
Es	0.708480	-0.676369	-0.341431	99
Es	-3.624513	-0.000400	-0.332865	99
Es	1.136482	0.883055	-0.582205	99
Es	2.997730	0.174491	0.161339	99
Es	2.271813	1.080253	0.599953	99
Es	-3.369500	-0.676498	-0.341435	99
Es	-0.735159	-0.676516	-0.341435	99
Es	0.953709	-1.031368	-0.935421	99
Es	-1.333684	-0.611797	-0.694909	99
Es	-3.619662	-1.006858	-0.925216	99
Es	-0.043508	-0.678642	-0.336735	99
Es	-1.327412	-0.467890	-0.039453	99
Es	1.884571	0.669649	-0.320081	99
Es	3.022470	1.309811	-0.354540	99
Es	1.226928	0.696370	-0.384830	99
Es	2.631267	0.798390	-0.002552	99
Es	1.194273	0.939185	0.214202	99
Es	1.384654	0.858248	1.508254	99
Es	-3.619608	-1.021838	0.236206	99
Es	-1.925914	-0.676499	-0.341429	99
Es	-1.314647	-0.957903	-0.283081	99
Es	0.972129	0.102498	-0.364421	99
Es	1.536936	1.255424	0.927754	99
Es	0.952220	-1.042889	0.244303	99
Es	1.419280	1.960845	1.002941	99
42
Properties=species:S:1:pos:R:3:Z:I:1 energy=-286.88369180740904 field_type=dipole dipole="0.000000 0.000000 0.000000" charge=0
C	-3.369610	-0.676500	-0.341437	6
C	-1.925610	-0.676500	-0.341437	6
C	-0.735450	-0.676500	-0.341437	6
C	0.708550	-0.676500	-0.341437	6
N	1.226610	0.696780	-0.385397	7
C	1.536891	1.255550	0.928013	6
C	2.631500	0.798390	-0.002557	6
H	-3.763580	0.344390	-0.329537	1
H	-3.763660	-1.197180	0.536723	1
H	-3.763690	-1.176600	-1.231467	1
H	1.070460	-1.205450	-1.231437	1
H	1.078960	-1.244400	0.522533	1
H	1.320080	0.666290	1.810093	1
H	1.369210	2.320260	1.033692	1
H	3.205570	1.555900	-0.522627	1
H	3.173770	-0.107930	0.237723	1
Es	-3.369501	-0.676498	-0.341436	99
Es	2.272750	1.079736	0.598597	99
Es	1.226940	0.696383	-0.384821	99
Es	0.968781	0.105339	-0.367924	99
Es	-1.333637	-0.606235	-0.693368	99
Es	3.021888	1.309661	-0.354429	99
Es	1.883780	0.670257	-0.318458	99
Es	0.954279	-1.030982	-0.935497	99
Es	-1.327543	-0.470640	-0.037707	99
Es	1.384911	0.858476	1.507896	99
Es	-3.620009	-1.022492	0.235983	99
Es	-3.619242	-1.006025	-0.925005	99
Es	2.631262	0.798386	-0.002561	99
Es	-2.618914	-0.676058	-0.340277	99
Es	-0.735160	-0.676519	-0.341441	99
Es	1.139483	0.878961	-0.577942	99
Es	1.536937	1.255432	0.927732	99
Es	2.998295	0.174426	0.161209	99
Es	0.708482	-0.676361	-0.341435	99
Es	0.952153	-1.042591	0.244304	99
Es	-1.314560	-0.960625	-0.286375	99
Es	-0.043540	-0.678704	-0.336901	99
Es	1.419437	1.960391	1.002945	99
Es	-3.624567	-0.000480	-0.332656	99
Es	1.193586	0.939976	0.213713	99
Es	-1.925914	-0.676498	-0.341428	99
42
Properties=species:S:1:pos:R:3:Z:I:1 energy=-286.88369180740904 field_type=dipole dipole="0.000000 0.000000 0.000000" charge=0
C	-3.369610	-0.676500	-0.341437	6
C	-1.925610	-0.676500	-0.341437	6
C	-0.735450	-0.676500	-0.341437	6
C	0.708550	-0.676500	-0.341437	6
N	1.226610	0.696780	-0.385397	7
C	1.536891	1.255550	0.928013	6
C	2.631500	0.798390	-0.002557	6
H	-3.763580	0.344390	-0.329537	1
H	-3.763660	-1.197180	0.536723	1
H	-3.763690	-1.176600	-1.231467	1
H	1.070460	-1.205450	-1.231437	1
H	1.078960	-1.244400	0.522533	1
H	1.320080	0.666290	1.810093	1
H	1.369210	2.320260	1.033692	1
H	3.205570	1.555900	-0.522627	1
H	3.173770	-0.107930	0.237723	1
Es	0.954849	-1.031358	-0.935233	99
Es	2.998371	0.174414	0.161238	99
Es	0.951604	-1.042032	0.243719	99
Es	-3.619000	-1.006474	-0.924308	99
Es	1.883304	0.670937	-0.317583	99
Es	-2.618913	-0.676143	-0.340443	99
Es	-1.333393	-0.588759	-0.688879	99
Es	1.141748	0.875431	-0.574964	99
Es	1.192238	0.941148	0.213287	99
Es	-1.313891	-0.960682	-0.302961	99
Es	2.273300	1.079061	0.597545	99
Es	1.385570	0.858667	1.507020	99
Es	-3.369501	-0.676500	-0.341434	99
Es	0.967099	0.107439	-0.369890	99
Es	-1.328449	-0.488100	-0.025490	99
Es	1.419419	1.960223	1.003298	99
Es	1.536933	1.255425	0.927757	99
Es	-0.043561	-0.678692	-0.336755	99
Es	2.631268	0.798391	-0.002551	99
Es	-0.735160	-0.676520	-0.341442	99
Es	0.708480	-0.676370	-0.341434	99
Es	-3.626076	0.000045	-0.332027	99
Es	3.021861	1.309823	-0.354301	99
Es	1.226950	0.696334	-0.384787	99
Es	-3.618755	-1.022495	0.234766	99
Es	-1.925914	-0.676497	-0.341428	99
42
Properties=species:S:1:pos:R:3:Z:I:1 energy=-286.88369180740904 field_type=dipole dipole="0.000000 0.000000 0.000000" charge=0
C	-3.369610	-0.676500	-0.341437	6
C	-1.925610	-0.676500	-0.341437	6
C	-0.735450	-0.676500	-0.341437	6
C	0.708550	-0.676500	-0.341437	6
N	1.226610	0.696780	-0.385397	7
C	1.536891	1.255550	0.928013	6
C	2.631500	0.798390	-0.002557	6
H	-3.763580	0.344390	-0.329537	1
H	-3.763660	-1.197180	0.536723	1
H	-3.763690	-1.176600	-1.231467	1
H	1.070460	-1.205450	-1.231437	1
H	1.078960	-1.244400	0.522533	1
H	1.320080	0.666290	1.810093	1
H	1.369210	2.320260	1.033692	1
H	3.205570	1.555900	-0.522627	1
H	3.173770	-0.107930	0.237723	1
Es	0.708479	-0.676375	-0.341433	99
Es	0.955019	-1.041439	0.246669	99
Es	-0.043543	-0.678376	-0.337484	99
Es	1.145121	0.868543	-0.564465	99
Es	1.421608	1.957205	1.001159	99
Es	-2.618890	-0.675447	-0.340950	99
Es	0.958086	0.114949	-0.382859	99
Es	2.631271	0.798402	-0.002537	99
Es	-1.332364	-0.602502	0.019414	99
Es	-3.621596	-1.021879	0.237659	99
Es	-0.735160	-0.676510	-0.341436	99
Es	-3.622745	-0.001379	-0.334011	99
Es	1.536935	1.255422	0.927752	99
Es	1.194829	0.939129	0.214206	99
Es	1.883756	0.668550	-0.319025	99
Es	1.383380	0.858809	1.510400	99
Es	-1.325225	-0.444766	-0.559788	99
Es	2.272731	1.081042	0.598588	99
Es	-1.925914	-0.676496	-0.341433	99
Es	-1.318126	-0.990494	-0.476270	99
Es	-3.369501	-0.676499	-0.341431	99
Es	2.999754	0.174576	0.160871	99
Es	3.020391	1.309100	-0.353916	99
Es	-3.619494	-1.005714	-0.925245	99
Es	0.954643	-1.027431	-0.936925	99
Es	1.226934	0.696294	-0.384791	99
