42
Properties=species:S:1:pos:R:3:Z:I:1 energy=-286.9068548627308 field_type=dipole dipole="0.000000 0.000000 0.000000" charge=0
C	-1.554925	-1.511261	-0.321117	6
C	-0.083015	-1.250360	-0.311857	6
C	0.542745	-0.060271	-0.203447	6
C	-0.168335	1.273240	-0.137897	6
N	-0.298555	1.750040	1.236153	7
C	1.948745	-0.060271	-0.203447	6
C	3.138905	-0.060271	-0.203447	6
H	-1.793785	-2.280251	0.421423	1
H	-1.861215	-1.882020	-1.304417	1
H	-2.156075	-0.631341	-0.080647	1
H	0.525515	-2.152340	-0.382657	1
H	-1.159315	1.222879	-0.600507	1
H	0.390315	2.016539	-0.719917	1
H	-0.836655	1.069739	1.769643	1
H	-0.837985	2.612619	1.239012	1
H	4.203635	-0.056671	-0.196867	1
Es	-1.703351	-2.029007	0.179244	99
Es	-0.642898	1.338137	1.540639	99
Es	-1.748357	-1.758325	-0.983020	99
Es	0.322970	-1.863369	-0.360479	99
Es	0.214817	1.772968	-0.532436	99
Es	0.255371	-0.651039	0.071275	99
Es	2.539509	-0.123243	-0.556116	99
Es	-0.299120	1.749941	1.235874	99
Es	-0.851529	1.222631	-0.460501	99
Es	1.948490	-0.060280	-0.203444	99
Es	0.542856	-0.060173	-0.203440	99
Es	-0.641217	2.262737	1.222267	99
Es	-0.168315	1.273213	-0.137758	99
Es	-1.956424	-0.909360	-0.158453	99
Es	-0.083103	-1.250439	-0.311857	99
Es	2.552339	0.272877	-0.079212	99
Es	0.263591	-0.600982	-0.578907	99
Es	3.835464	-0.058858	-0.200360	99
Es	-0.262683	1.534268	0.635108	99
Es	0.198495	0.592269	-0.164799	99
Es	2.547469	-0.342354	0.014770	99
Es	-1.554876	-1.511251	-0.321117	99
Es	0.013522	1.798217	1.385478	99
Es	-0.822919	-1.360479	-0.316662	99
Es	1.267256	-0.049709	-0.199681	99
Es	3.139171	-0.060274	-0.203453	99
42
Properties=species:S:1:pos:R:3:Z:I:1 energy=-286.9068548627308 field_type=dipole dipole="0.000000 0.000000 0.000000" charge=0
C	-1.554925	-1.511261	-0.321117	6
C	-0.083015	-1.250360	-0.311857	6
C	0.542745	-0.060271	-0.203447	6
C	-0.168335	1.273240	-0.137897	6
N	-0.298555	1.750040	1.236153	7
C	1.948745	-0.060271	-0.203447	6
C	3.138905	-0.060271	-0.203447	6
H	-1.793785	-2.280251	0.421423	1
H	-1.861215	-1.882020	-1.304417	1
H	-2.156075	-0.631341	-0.080647	1
H	0.525515	-2.152340	-0.382657	1
H	-1.159315	1.222879	-0.600507	1
H	0.390315	2.016539	-0.719917	1
H	-0.836655	1.069739	1.769643	1
H	-0.837985	2.612619	1.239012	1
H	4.203635	-0.056671	-0.196867	1
Es	-0.168314	1.273212	-0.137755	99
Es	0.263323	-0.600726	-0.574652	99
Es	-1.554876	-1.511252	-0.321116	99
Es	-0.083102	-1.250439	-0.311860	99
Es	-1.749085	-1.757378	-0.978350	99
Es	0.542860	-0.060166	-0.203431	99
Es	-0.642494	2.255538	1.216432	99
Es	0.254939	-0.650988	0.067052	99
Es	1.948483	-0.060276	-0.203451	99
Es	0.323132	-1.860936	-0.360302	99
Es	2.539093	-0.104671	-0.538221	99
Es	-0.651116	1.338855	1.533054	99
Es	2.549373	-0.359899	-0.011031	99
Es	-1.705774	-2.028505	0.176309	99
Es	-0.854324	1.221193	-0.460405	99
Es	0.030659	1.800386	1.390465	99
Es	0.197857	0.591727	-0.162771	99
Es	-0.820569	-1.360051	-0.316882	99
Es	-1.958551	-0.911785	-0.159645	99
Es	0.217056	1.774079	-0.531796	99
Es	2.550567	0.271667	-0.070242	99
Es	3.139178	-0.060292	-0.203439	99
Es	-0.269430	1.536906	0.640706	99
Es	-0.299071	1.749944	1.235908	99
Es	1.269563	-0.054296	-0.200473	99
Es	3.837151	-0.053732	-0.201142	99
42
Properties=species:S:1:pos:R:3:Z:I:1 energy=-286.9068548627308 field_type=dipole dipole="0.000000 0.000000 0.000000" charge=0
C	-1.554925	-1.511261	-0.321117	6
C	-0.083015	-1.250360	-0.311857	6
C	0.542745	-0.060271	-0.203447	6
C	-0.168335	1.273240	-0.137897	6
N	-0.298555	1.750040	1.236153	7
C	1.948745	-0.060271	-0.203447	6
C	3.138905	-0.060271	-0.203447	6
H	-1.793785	-2.280251	0.421423	1
H	-1.861215	-1.882020	-1.304417	1
H	-2.156075	-0.631341	-0.080647	1
H	0.525515	-2.152340	-0.382657	1
H	-1.159315	1.222879	-0.600507	1
H	0.390315	2.016539	-0.719917	1
H	-0.836655	1.069739	1.769643	1
H	-0.837985	2.612619	1.239012	1
H	4.203635	-0.056671	-0.196867	1
Es	3.837519	-0.051159	-0.200639	99
Es	-0.083103	-1.250439	-0.311859	99
Es	3.139177	-0.060280	-0.203449	99
Es	-0.655508	1.337747	1.528430	99
Es	0.041923	1.803247	1.388655	99
Es	1.270662	-0.056041	-0.200148	99
Es	0.218936	1.774929	-0.531004	99
Es	-0.643143	2.249079	1.212826	99
Es	0.263002	-0.600535	-0.572860	99
Es	0.322929	-1.859381	-0.360396	99
Es	-1.959693	-0.913106	-0.160386	99
Es	2.547277	-0.333553	-0.440698	99
Es	0.542859	-0.060163	-0.203442	99
Es	0.255014	-0.651005	0.065563	99
Es	-0.168316	1.273212	-0.137758	99
Es	2.540908	-0.154521	0.092525	99
Es	-0.275060	1.540037	0.647980	99
Es	-0.856023	1.220310	-0.459880	99
Es	-1.554877	-1.511252	-0.321116	99
Es	2.550804	0.294899	-0.272407	99
Es	-1.706949	-2.028656	0.174543	99
Es	-0.819664	-1.360081	-0.317257	99
Es	-1.748763	-1.756347	-0.975343	99
Es	0.197206	0.591501	-0.161402	99
Es	-0.299067	1.749954	1.235931	99
Es	1.948479	-0.060282	-0.203447	99
42
Properties=species:S:1:pos:R:3:Z:I:1 energy=-286.9068548627308 field_type=dipole dipole="0.000000 0.000000 0.000000" charge=0
C	-1.554925	-1.511261	-0.321117	6
C	-0.083015	-1.250360	-0.311857	6
C	0.542745	-0.060271	-0.203447	6
C	-0.168335	1.273240	-0.137897	6
N	-0.298555	1.750040	1.236153	7
C	1.948745	-0.060271	-0.203447	6
C	3.138905	-0.060271	-0.203447	6
H	-1.793785	-2.280251	0.421423	1
H	-1.861215	-1.882020	-1.304417	1
H	-2.156075	-0.631341	-0.080647	1
H	0.525515	-2.152340	-0.382657	1
H	-1.159315	1.222879	-0.600507	1
H	0.390315	2.016539	-0.719917	1
H	-0.836655	1.069739	1.769643	1
H	-0.837985	2.612619	1.239012	1
H	4.203635	-0.056671	-0.196867	1
Es	-0.279146	1.542501	0.655074	99
Es	-0.819252	-1.360299	-0.317391	99
Es	-0.856999	1.219529	-0.459425	99
Es	0.322401	-1.858120	-0.360478	99
Es	-1.960235	-0.913972	-0.160692	99
Es	2.548329	-0.360846	-0.413787	99
Es	-1.554877	-1.511252	-0.321116	99
Es	1.271259	-0.056382	-0.199883	99
Es	0.262910	-0.600326	-0.572306	99
Es	3.139177	-0.060276	-0.203437	99
Es	0.542862	-0.060161	-0.203440	99
Es	0.255068	-0.651162	0.065032	99
Es	-1.748659	-1.755830	-0.973734	99
Es	-0.641423	2.243605	1.210395	99
Es	3.837595	-0.049537	-0.201176	99
Es	2.540118	-0.127040	0.071379	99
Es	0.049248	1.804957	1.385567	99
Es	-1.707505	-2.028449	0.173388	99
Es	-0.168315	1.273212	-0.137758	99
Es	1.948479	-0.060291	-0.203445	99
Es	-0.083105	-1.250440	-0.311860	99
Es	2.550589	0.294025	-0.278099	99
Es	0.220384	1.775177	-0.530517	99
Es	0.196744	0.591552	-0.160413	99
Es	-0.299047	1.749945	1.235940	99
Es	-0.660070	1.337994	1.525143	99
42
Properties=species:S:1:pos:R:3:Z:I:1 energy=-286.9068548627308 field_type=dipole dipole="0.000000 0.000000 0.000000" charge=0
C	-1.554925	-1.511261	-0.321117	6
C	-0.083015	-1.250360	-0.311857	6
C	0.542745	-0.060271	-0.203447	6
C	-0.168335	1.273240	-0.137897	6
N	-0.298555	1.750040	1.236153	7
C	1.948745	-0.060271	-0.203447	6
C	3.138905	-0.060271	-0.203447	6
H	-1.793785	-2.280251	0.421423	1
H	-1.861215	-1.882020	-1.304417	1
H	-2.156075	-0.631341	-0.080647	1
H	0.525515	-2.152340	-0.382657	1
H	-1.159315	1.222879	-0.600507	1
H	0.390315	2.016539	-0.719917	1
H	-0.836655	1.069739	1.769643	1
H	-0.837985	2.612619	1.239012	1
H	4.203635	-0.056671	-0.196867	1
Es	-0.299050	1.749950	1.235922	99
Es	-1.960850	-0.914636	-0.160408	99
Es	-0.281651	1.544719	0.660145	99
Es	-1.707073	-2.027399	0.172404	99
Es	-0.083105	-1.250439	-0.311858	99
Es	2.538189	-0.039414	-0.468411	99
Es	0.542862	-0.060162	-0.203452	99
Es	-1.554879	-1.511252	-0.321117	99
Es	3.139186	-0.060268	-0.203456	99
Es	-0.818970	-1.360534	-0.317275	99
Es	-1.749086	-1.756287	-0.972973	99
Es	1.271731	-0.056824	-0.200161	99
Es	0.196253	0.591670	-0.158830	99
Es	0.321883	-1.857042	-0.361319	99
Es	0.053511	1.806682	1.382961	99
Es	1.948477	-0.060286	-0.203437	99
Es	0.255481	-0.651726	0.064800	99
Es	3.837590	-0.048638	-0.203243	99
Es	0.262429	-0.599648	-0.572093	99
Es	2.549141	0.260087	-0.038553	99
Es	-0.639028	2.238621	1.209563	99
Es	-0.168316	1.273212	-0.137759	99
Es	0.221652	1.774897	-0.530434	99
Es	2.551666	-0.414363	-0.111599	99
Es	-0.857638	1.218745	-0.459030	99
Es	-0.663876	1.338449	1.522573	99
42
Properties=species:S:1:pos:R:3:Z:I:1 energy=-286.9068548627308 field_type=dipole dipole="0.000000 0.000000 0.000000" charge=0
C	-1.554925	-1.511261	-0.321117	6
C	-0.083015	-1.250360	-0.311857	6
C	0.542745	-0.060271	-0.203447	6
C	-0.168335	1.273240	-0.137897	6
N	-0.298555	1.750040	1.236153	7
C	1.948745	-0.060271	-0.203447	6
C	3.138905	-0.060271	-0.203447	6
H	-1.793785	-2.280251	0.421423	1
H	-1.861215	-1.882020	-1.304417	1
H	-2.156075	-0.631341	-0.080647	1
H	0.525515	-2.152340	-0.382657	1
H	-1.159315	1.222879	-0.600507	1
H	0.390315	2.016539	-0.719917	1
H	-0.836655	1.069739	1.769643	1
H	-0.837985	2.612619	1.239012	1
H	4.203635	-0.056671	-0.196867	1
Es	2.548380	-0.370368	-0.402748	99
Es	-1.554877	-1.511254	-0.321117	99
Es	0.542863	-0.060160	-0.203443	99
Es	0.057793	1.806745	1.378689	99
Es	-0.168317	1.273215	-0.137764	99
Es	3.139185	-0.060258	-0.203451	99
Es	-0.083103	-1.250441	-0.311858	99
Es	0.195999	0.591855	-0.158575	99
Es	0.262863	-0.599446	-0.571998	99
Es	-1.708162	-2.028454	0.171812	99
Es	0.222605	1.775127	-0.529841	99
Es	-1.961005	-0.915054	-0.161091	99
Es	3.837636	-0.048149	-0.201896	99
Es	1.948477	-0.060287	-0.203450	99
Es	0.321457	-1.856498	-0.360945	99
Es	0.255011	-0.651798	0.064455	99
Es	-1.748187	-1.754948	-0.971556	99
Es	-0.858154	1.218357	-0.458522	99
Es	2.539877	-0.122000	0.038704	99
Es	-0.299046	1.749953	1.235941	99
Es	-0.637828	2.235525	1.208284	99
Es	-0.818850	-1.360435	-0.317290	99
Es	-0.284274	1.546624	0.666806	99
Es	-0.666534	1.338753	1.519767	99
Es	1.271941	-0.056630	-0.199645	99
Es	2.550781	0.298142	-0.256307	99
42
Properties=species:S:1:pos:R:3:Z:I:1 energy=-286.9068548627308 field_type=dipole dipole="0.000000 0.000000 0.000000" charge=0
C	-1.554925	-1.511261	-0.321117	6
C	-0.083015	-1.250360	-0.311857	6
C	0.542745	-0.060271	-0.203447	6
C	-0.168335	1.273240	-0.137897	6
N	-0.298555	1.750040	1.236153	7
C	1.948745	-0.060271	-0.203447	6
C	3.138905	-0.060271	-0.203447	6
H	-1.793785	-2.280251	0.421423	1
H	-1.861215	-1.882020	-1.304417	1
H	-2.156075	-0.631341	-0.080647	1
H	0.525515	-2.152340	-0.382657	1
H	-1.159315	1.222879	-0.600507	1
H	0.390315	2.016539	-0.719917	1
H	-0.836655	1.069739	1.769643	1
H	-0.837985	2.612619	1.239012	1
H	4.203635	-0.056671	-0.196867	1
Es	-0.818742	-1.360648	-0.317364	99
Es	-0.285441	1.547670	0.669666	99
Es	-0.669404	1.340072	1.518642	99
Es	0.262997	-0.598834	-0.572200	99
Es	-1.708027	-2.028178	0.171229	99
Es	-1.961171	-0.915396	-0.160759	99
Es	-0.299037	1.749941	1.235947	99
Es	-1.554881	-1.511253	-0.321117	99
Es	0.223733	1.774416	-0.530056	99
Es	0.320872	-1.855744	-0.361047	99
Es	3.139186	-0.060261	-0.203463	99
Es	2.551580	-0.424586	-0.152673	99
Es	0.254895	-0.652294	0.064382	99
Es	1.272150	-0.056679	-0.200089	99
Es	-0.168316	1.273212	-0.137758	99
Es	3.837652	-0.047942	-0.203549	99
Es	-0.858435	1.217770	-0.458319	99
Es	0.542863	-0.060163	-0.203440	99
Es	0.195485	0.592224	-0.157639	99
Es	0.059596	1.808542	1.377058	99
Es	1.948478	-0.060294	-0.203446	99
Es	-0.635399	2.231180	1.207918	99
Es	-0.083106	-1.250440	-0.311858	99
Es	-1.748421	-1.754823	-0.971120	99
Es	2.538429	-0.025820	-0.433695	99
Es	2.548992	0.256443	-0.032288	99
42
Properties=species:S:1:pos:R:3:Z:I:1 energy=-286.9068548627308 field_type=dipole dipole="0.000000 0.000000 0.000000" charge=0
C	-1.554925	-1.511261	-0.321117	6
C	-0.083015	-1.250360	-0.311857	6
C	0.542745	-0.060271	-0.203447	6
C	-0.168335	1.273240	-0.137897	6
N	-0.298555	1.750040	1.236153	7
C	1.948745	-0.060271	-0.203447	6
C	3.138905	-0.060271	-0.203447	6
H	-1.793785	-2.280251	0.421423	1
H	-1.861215	-1.882020	-1.304417	1
H	-2.156075	-0.631341	-0.080647	1
H	0.525515	-2.152340	-0.382657	1
H	-1.159315	1.222879	-0.600507	1
H	0.390315	2.016539	-0.719917	1
H	-0.836655	1.069739	1.769643	1
H	-0.837985	2.612619	1.239012	1
H	4.203635	-0.056671	-0.196867	1
Es	3.139187	-0.060259	-0.203461	99
Es	2.548322	-0.374362	-0.396914	99
Es	0.195486	0.592147	-0.157839	99
Es	2.550950	0.299897	-0.240891	99
Es	0.254652	-0.652211	0.064350	99
Es	1.272228	-0.056505	-0.199529	99
Es	-0.299076	1.749924	1.235940	99
Es	-0.634272	2.229470	1.207387	99
Es	-0.858782	1.217797	-0.457868	99
Es	2.539788	-0.119935	0.017529	99
Es	-1.961714	-0.915508	-0.160913	99
Es	0.263159	-0.598858	-0.571914	99
Es	-0.818687	-1.360627	-0.317356	99
Es	-1.747939	-1.754544	-0.970370	99
Es	-0.168314	1.273210	-0.137753	99
Es	-0.671333	1.340576	1.516385	99
Es	0.062804	1.807405	1.372294	99
Es	0.542861	-0.060164	-0.203438	99
Es	0.224130	1.774693	-0.529399	99
Es	-0.287638	1.549383	0.675896	99
Es	3.837660	-0.047629	-0.202308	99
Es	-1.554877	-1.511252	-0.321117	99
Es	-0.083105	-1.250439	-0.311859	99
Es	-1.708142	-2.028324	0.170571	99
Es	0.320707	-1.855487	-0.361013	99
Es	1.948475	-0.060284	-0.203449	99
42
Properties=species:S:1:pos:R:3:Z:I:1 energy=-286.9068548627308 field_type=dipole dipole="0.000000 0.000000 0.000000" charge=0
C	-1.554925	-1.511261	-0.321117	6
C	-0.083015	-1.250360	-0.311857	6
C	0.542745	-0.060271	-0.203447	6
C	-0.168335	1.273240	-0.137897	6
N	-0.298555	1.750040	1.236153	7
C	1.948745	-0.060271	-0.203447	6
C	3.138905	-0.060271	-0.203447	6
H	-1.793785	-2.280251	0.421423	1
H	-1.861215	-1.882020	-1.304417	1
H	-2.156075	-0.631341	-0.080647	1
H	0.525515	-2.152340	-0.382657	1
H	-1.159315	1.222879	-0.600507	1
H	0.390315	2.016539	-0.719917	1
H	-0.836655	1.069739	1.769643	1
H	-0.837985	2.612619	1.239012	1
H	4.203635	-0.056671	-0.196867	1
Es	3.139187	-0.060256	-0.203453	99
Es	0.063972	1.808260	1.371004	99
Es	-0.632896	2.226638	1.206859	99
Es	0.195126	0.592486	-0.157321	99
Es	0.262795	-0.598745	-0.572128	99
Es	-0.858982	1.217510	-0.457593	99
Es	-0.673192	1.341683	1.515203	99
Es	0.255051	-0.652238	0.064430	99
Es	-0.168316	1.273211	-0.137758	99
Es	1.272310	-0.056397	-0.199498	99
Es	-0.818625	-1.360699	-0.317367	99
Es	2.539584	-0.113254	0.006922	99
Es	2.548540	-0.381127	-0.386271	99
Es	0.320301	-1.854994	-0.361140	99
Es	-1.748346	-1.754674	-0.970358	99
Es	1.948476	-0.060289	-0.203442	99
Es	0.542863	-0.060161	-0.203441	99
Es	-1.961849	-0.915842	-0.160376	99
Es	-1.707767	-2.027815	0.170045	99
Es	0.224896	1.774201	-0.529490	99
Es	2.550969	0.299840	-0.240731	99
Es	-0.299026	1.749915	1.235927	99
Es	-0.288222	1.550074	0.678557	99
Es	3.837665	-0.047518	-0.202634	99
Es	-1.554878	-1.511255	-0.321125	99
Es	-0.083106	-1.250440	-0.311859	99
42
Properties=species:S:1:pos:R:3:Z:I:1 energy=-286.9068548627308 field_type=dipole dipole="0.000000 0.000000 0.000000" charge=0
C	-1.554925	-1.511261	-0.321117	6
C	-0.083015	-1.250360	-0.311857	6
C	0.542745	-0.060271	-0.203447	6
C	-0.168335	1.273240	-0.137897	6
N	-0.298555	1.750040	1.236153	7
C	1.948745	-0.060271	-0.203447	6
C	3.138905	-0.060271	-0.203447	6
H	-1.793785	-2.280251	0.421423	1
H	-1.861215	-1.882020	-1.304417	1
H	-2.156075	-0.631341	-0.080647	1
H	0.525515	-2.152340	-0.382657	1
H	-1.159315	1.222879	-0.600507	1
H	0.390315	2.016539	-0.719917	1
H	-0.836655	1.069739	1.769643	1
H	-0.837985	2.612619	1.239012	1
H	4.203635	-0.056671	-0.196867	1
Es	0.542863	-0.060160	-0.203442	99
Es	-0.289896	1.551802	0.683407	99
Es	3.139188	-0.060260	-0.203459	99
Es	0.195131	0.592458	-0.157212	99
Es	1.272392	-0.056395	-0.199559	99
Es	-0.859176	1.217352	-0.457254	99
Es	-0.674643	1.341984	1.513696	99
Es	-0.818576	-1.360721	-0.317318	99
Es	0.066044	1.807401	1.366663	99
Es	2.551109	0.300512	-0.228562	99
Es	0.225246	1.774119	-0.529309	99
Es	-0.631692	2.225228	1.207045	99
Es	-1.747321	-1.753583	-0.969216	99
Es	-1.962082	-0.915772	-0.161018	99
Es	1.948477	-0.060295	-0.203444	99
Es	3.837687	-0.047468	-0.202630	99
Es	-1.708678	-2.028863	0.169546	99
Es	0.319947	-1.854728	-0.361261	99
Es	0.262243	-0.598976	-0.572263	99
Es	-1.554880	-1.511253	-0.321114	99
Es	2.548170	-0.375747	-0.395022	99
Es	-0.083105	-1.250439	-0.311859	99
Es	0.255688	-0.652064	0.064883	99
Es	-0.168315	1.273211	-0.137756	99
Es	2.539778	-0.119162	0.003470	99
Es	-0.299069	1.749934	1.235950	99
42
Properties=species:S:1:pos:R:3:Z:I:1 energy=-286.9068548627308 field_type=dipole dipole="0.000000 0.000000 0.000000" charge=0
C	-1.554925	-1.511261	-0.321117	6
C	-0.083015	-1.250360	-0.311857	6
C	0.542745	-0.060271	-0.203447	6
C	-0.168335	1.273240	-0.137897	6
N	-0.298555	1.750040	1.236153	7
C	1.948745	-0.060271	-0.203447	6
C	3.138905	-0.060271	-0.203447	6
H	-1.793785	-2.280251	0.421423	1
H	-1.861215	-1.882020	-1.304417	1
H	-2.156075	-0.631341	-0.080647	1
H	0.525515	-2.152340	-0.382657	1
H	-1.159315	1.222879	-0.600507	1
H	0.390315	2.016539	-0.719917	1
H	-0.836655	1.069739	1.769643	1
H	-0.837985	2.612619	1.239012	1
H	4.203635	-0.056671	-0.196867	1
Es	3.139188	-0.060257	-0.203457	99
Es	-0.630406	2.223267	1.206846	99
Es	0.225899	1.773911	-0.529023	99
Es	2.539783	-0.118784	-0.003534	99
Es	0.542863	-0.060162	-0.203436	99
Es	-1.708310	-2.028406	0.169437	99
Es	0.263495	-0.598440	-0.572275	99
Es	2.551117	0.300991	-0.223094	99
Es	-1.747653	-1.753885	-0.969234	99
Es	-1.962189	-0.915958	-0.160751	99
Es	0.066979	1.807537	1.364927	99
Es	-0.299021	1.749954	1.235944	99
Es	0.254669	-0.652633	0.064340	99
Es	1.272424	-0.056230	-0.199590	99
Es	-0.290499	1.552399	0.686035	99
Es	-0.168315	1.273210	-0.137755	99
Es	-0.676249	1.342823	1.512473	99
Es	2.548153	-0.376600	-0.393407	99
Es	-0.083105	-1.250440	-0.311856	99
Es	0.319566	-1.854415	-0.360910	99
Es	-0.859305	1.217252	-0.457112	99
Es	0.194684	0.592787	-0.156991	99
Es	-0.818570	-1.360680	-0.317371	99
Es	-1.554877	-1.511254	-0.321119	99
Es	3.837732	-0.047573	-0.202686	99
Es	1.948476	-0.060298	-0.203438	99
42
Properties=species:S:1:pos:R:3:Z:I:1 energy=-286.9068548627308 field_type=dipole dipole="0.000000 0.000000 0.000000" charge=0
C	-1.554925	-1.511261	-0.321117	6
C	-0.083015	-1.250360	-0.311857	6
C	0.542745	-0.060271	-0.203447	6
C	-0.168335	1.273240	-0.137897	6
N	-0.298555	1.750040	1.236153	7
C	1.948745	-0.060271	-0.203447	6
C	3.138905	-0.060271	-0.203447	6
H	-1.793785	-2.280251	0.421423	1
H	-1.861215	-1.882020	-1.304417	1
H	-2.156075	-0.631341	-0.080647	1
H	0.525515	-2.152340	-0.382657	1
H	-1.159315	1.222879	-0.600507	1
H	0.390315	2.016539	-0.719917	1
H	-0.836655	1.069739	1.769643	1
H	-0.837985	2.612619	1.239012	1
H	4.203635	-0.056671	-0.196867	1
Es	-0.290196	1.552072	0.685430	99
Es	-1.554876	-1.511252	-0.321116	99
Es	2.549272	0.261755	-0.042336	99
Es	-0.168316	1.273212	-0.137761	99
Es	-0.083106	-1.250440	-0.311861	99
Es	0.262678	-0.598189	-0.572581	99
Es	0.255269	-0.652737	0.065155	99
Es	1.948475	-0.060297	-0.203448	99
Es	-0.299055	1.749922	1.235949	99
Es	2.551134	-0.428026	-0.184665	99
Es	0.066806	1.809044	1.365888	99
Es	1.272480	-0.056314	-0.200061	99
Es	-1.707995	-2.028018	0.169399	99
Es	3.139188	-0.060263	-0.203459	99
Es	-1.962233	-0.916083	-0.160504	99
Es	0.226589	1.772958	-0.529674	99
Es	-0.627775	2.219460	1.206646	99
Es	-0.818574	-1.360668	-0.317394	99
Es	-1.747981	-1.754139	-0.969237	99
Es	0.542863	-0.060160	-0.203439	99
Es	2.538617	-0.027723	-0.391749	99
Es	0.194532	0.593109	-0.156738	99
Es	3.837741	-0.047747	-0.203918	99
Es	-0.859319	1.216935	-0.457052	99
Es	0.319193	-1.854002	-0.361418	99
Es	-0.678883	1.345704	1.512907	99
42
Properties=species:S:1:pos:R:3:Z:I:1 energy=-286.9068548627308 field_type=dipole dipole="0.000000 0.000000 0.000000" charge=0
C	-1.554925	-1.511261	-0.321117	6
C	-0.083015	-1.250360	-0.311857	6
C	0.542745	-0.060271	-0.203447	6
C	-0.168335	1.273240	-0.137897	6
N	-0.298555	1.750040	1.236153	7
C	1.948745	-0.060271	-0.203447	6
C	3.138905	-0.060271	-0.203447	6
H	-1.793785	-2.280251	0.421423	1
H	-1.861215	-1.882020	-1.304417	1
H	-2.156075	-0.631341	-0.080647	1
H	0.525515	-2.152340	-0.382657	1
H	-1.159315	1.222879	-0.600507	1
H	0.390315	2.016539	-0.719917	1
H	-0.836655	1.069739	1.769643	1
H	-0.837985	2.612619	1.239012	1
H	4.203635	-0.056671	-0.196867	1
Es	0.068940	1.806843	1.360887	99
Es	0.194721	0.592921	-0.156849	99
Es	-0.628239	2.220415	1.206929	99
Es	-0.168315	1.273210	-0.137761	99
Es	-0.859521	1.217068	-0.456684	99
Es	0.254083	-0.652877	0.064558	99
Es	-0.292005	1.553956	0.691261	99
Es	1.948477	-0.060293	-0.203443	99
Es	0.226604	1.773476	-0.528952	99
Es	1.272491	-0.056210	-0.199608	99
Es	3.837744	-0.047476	-0.202695	99
Es	-1.962772	-0.916148	-0.160318	99
Es	-1.747315	-1.753395	-0.968669	99
Es	-1.554876	-1.511252	-0.321116	99
Es	2.551129	0.301264	-0.216831	99
Es	-0.818533	-1.360720	-0.317350	99
Es	0.542863	-0.060161	-0.203442	99
Es	-1.708193	-2.028645	0.168400	99
Es	2.548136	-0.377271	-0.391920	99
Es	-0.083105	-1.250439	-0.311861	99
Es	0.319229	-1.853997	-0.361117	99
Es	-0.298945	1.749938	1.235894	99
Es	0.263721	-0.597944	-0.572218	99
Es	2.539792	-0.118417	-0.011269	99
Es	-0.678770	1.344525	1.510592	99
Es	3.139188	-0.060257	-0.203456	99
42
Properties=species:S:1:pos:R:3:Z:I:1 energy=-286.9068548627308 field_type=dipole dipole="0.000000 0.000000 0.000000" charge=0
C	-1.554925	-1.511261	-0.321117	6
C	-0.083015	-1.250360	-0.311857	6
C	0.542745	-0.060271	-0.203447	6
C	-0.168335	1.273240	-0.137897	6
N	-0.298555	1.750040	1.236153	7
C	1.948745	-0.060271	-0.203447	6
C	3.138905	-0.060271	-0.203447	6
H	-1.793785	-2.280251	0.421423	1
H	-1.861215	-1.882020	-1.304417	1
H	-2.156075	-0.631341	-0.080647	1
H	0.525515	-2.152340	-0.382657	1
H	-1.159315	1.222879	-0.600507	1
H	0.390315	2.016539	-0.719917	1
H	-0.836655	1.069739	1.769643	1
H	-0.837985	2.612619	1.239012	1
H	4.203635	-0.056671	-0.196867	1
Es	-1.554877	-1.511251	-0.321116	99
Es	1.272525	-0.056138	-0.200212	99
Es	-0.291117	1.553151	0.690049	99
Es	0.542863	-0.060161	-0.203439	99
Es	0.068401	1.808943	1.362314	99
Es	0.194272	0.593373	-0.157102	99
Es	-0.168316	1.273211	-0.137757	99
Es	0.227405	1.772691	-0.529290	99
Es	-0.083106	-1.250439	-0.311862	99
Es	-0.299061	1.749973	1.235969	99
Es	2.551013	-0.428750	-0.200408	99
Es	-0.626974	2.217327	1.206105	99
Es	2.538907	-0.022655	-0.383628	99
Es	2.549117	0.257313	-0.034740	99
Es	0.253523	-0.653111	0.064766	99
Es	-1.962455	-0.916186	-0.160786	99
Es	-1.708477	-2.028575	0.168885	99
Es	0.318794	-1.853638	-0.360745	99
Es	0.264343	-0.597714	-0.572309	99
Es	3.837759	-0.047672	-0.203742	99
Es	-0.859543	1.216851	-0.456613	99
Es	3.139187	-0.060256	-0.203458	99
Es	1.948475	-0.060289	-0.203448	99
Es	-0.680211	1.346288	1.511327	99
Es	-0.818532	-1.360727	-0.317331	99
Es	-1.747386	-1.753443	-0.968465	99
42
Properties=species:S:1:pos:R:3:Z:I:1 energy=-286.9068548627308 field_type=dipole dipole="0.000000 0.000000 0.000000" charge=0
C	-1.554925	-1.511261	-0.321117	6
C	-0.083015	-1.250360	-0.311857	6
C	0.542745	-0.060271	-0.203447	6
C	-0.168335	1.273240	-0.137897	6
N	-0.298555	1.750040	1.236153	7
C	1.948745	-0.060271	-0.203447	6
C	3.138905	-0.060271	-0.203447	6
H	-1.793785	-2.280251	0.421423	1
H	-1.861215	-1.882020	-1.304417	1
H	-2.156075	-0.631341	-0.080647	1
H	0.525515	-2.152340	-0.382657	1
H	-1.159315	1.222879	-0.600507	1
H	0.390315	2.016539	-0.719917	1
H	-0.836655	1.069739	1.769643	1
H	-0.837985	2.612619	1.239012	1
H	4.203635	-0.056671	-0.196867	1
Es	-0.859574	1.216706	-0.456631	99
Es	0.194056	0.593620	-0.156787	99
Es	1.272536	-0.056039	-0.200148	99
Es	-1.554877	-1.511252	-0.321115	99
Es	0.227832	1.772269	-0.529342	99
Es	-1.747442	-1.753619	-0.968447	99
Es	-1.962716	-0.916248	-0.160582	99
Es	-0.299043	1.749933	1.235950	99
Es	0.253978	-0.653156	0.064986	99
Es	-1.708196	-2.028317	0.168620	99
Es	0.069322	1.807880	1.360248	99
Es	-0.292131	1.554096	0.692338	99
Es	-0.818531	-1.360692	-0.317200	99
Es	0.264050	-0.597714	-0.572813	99
Es	1.948475	-0.060291	-0.203444	99
Es	2.550977	-0.428659	-0.200473	99
Es	0.542860	-0.060158	-0.203441	99
Es	0.318449	-1.853376	-0.360793	99
Es	2.549198	0.259059	-0.037963	99
Es	-0.083105	-1.250441	-0.311862	99
Es	-0.168317	1.273212	-0.137761	99
Es	-0.681149	1.346937	1.510419	99
Es	-0.625943	2.216818	1.206812	99
Es	2.538866	-0.024525	-0.380351	99
Es	3.837767	-0.047671	-0.203801	99
Es	3.139188	-0.060256	-0.203457	99
42
Properties=species:S:1:pos:R:3:Z:I:1 energy=-286.9068548627308 field_type=dipole dipole="0.000000 0.000000 0.000000" charge=0
C	-1.554925	-1.511261	-0.321117	6
C	-0.083015	-1.250360	-0.311857	6
C	0.542745	-0.060271	-0.203447	6
C	-0.168335	1.273240	-0.137897	6
N	-0.298555	1.750040	1.236153	7
C	1.948745	-0.060271	-0.203447	6
C	3.138905	-0.060271	-0.203447	6
H	-1.793785	-2.280251	0.421423	1
H	-1.861215	-1.882020	-1.304417	1
H	-2.156075	-0.631341	-0.080647	1
H	0.525515	-2.152340	-0.382657	1
H	-1.159315	1.222879	-0.600507	1
H	0.390315	2.016539	-0.719917	1
H	-0.836655	1.069739	1.769643	1
H	-0.837985	2.612619	1.239012	1
H	4.203635	-0.056671	-0.196867	1
Es	-0.083105	-1.250442	-0.311860	99
Es	3.837762	-0.047470	-0.202775	99
Es	3.139188	-0.060254	-0.203459	99
Es	-0.626371	2.216534	1.205961	99
Es	0.227549	1.773001	-0.528686	99
Es	-0.168314	1.273209	-0.137754	99
Es	-1.708343	-2.028855	0.167731	99
Es	1.948475	-0.060291	-0.203446	99
Es	0.194287	0.593280	-0.156786	99
Es	-1.963266	-0.916249	-0.160476	99
Es	-1.746805	-1.752997	-0.967806	99
Es	-0.292287	1.555182	0.696742	99
Es	-0.298961	1.749966	1.235894	99
Es	-0.859786	1.216988	-0.456074	99
Es	2.539912	-0.120006	-0.019230	99
Es	0.318821	-1.853569	-0.360835	99
Es	-1.554876	-1.511254	-0.321114	99
Es	2.551188	0.301298	-0.206394	99
Es	0.264276	-0.597722	-0.572123	99
Es	0.253512	-0.652982	0.064399	99
Es	0.070309	1.807278	1.358007	99
Es	2.547969	-0.375702	-0.394286	99
Es	1.272567	-0.056141	-0.199689	99
Es	-0.681551	1.346273	1.507765	99
Es	-0.818481	-1.360799	-0.317312	99
Es	0.542862	-0.060162	-0.203432	99
42
Properties=species:S:1:pos:R:3:Z:I:1 energy=-286.9068548627308 field_type=dipole dipole="0.000000 0.000000 0.000000" charge=0
C	-1.554925	-1.511261	-0.321117	6
C	-0.083015	-1.250360	-0.311857	6
C	0.542745	-0.060271	-0.203447	6
C	-0.168335	1.273240	-0.137897	6
N	-0.298555	1.750040	1.236153	7
C	1.948745	-0.060271	-0.203447	6
C	3.138905	-0.060271	-0.203447	6
H	-1.793785	-2.280251	0.421423	1
H	-1.861215	-1.882020	-1.304417	1
H	-2.156075	-0.631341	-0.080647	1
H	0.525515	-2.152340	-0.382657	1
H	-1.159315	1.222879	-0.600507	1
H	0.390315	2.016539	-0.719917	1
H	-0.836655	1.069739	1.769643	1
H	-0.837985	2.612619	1.239012	1
H	4.203635	-0.056671	-0.196867	1
Es	-0.682963	1.347791	1.507589	99
Es	2.551190	0.301237	-0.209737	99
Es	2.548184	-0.381436	-0.384786	99
Es	0.227991	1.772503	-0.528819	99
Es	-0.624779	2.215241	1.206617	99
Es	-1.554877	-1.511252	-0.321117	99
Es	-1.708104	-2.028382	0.167797	99
Es	-0.083106	-1.250438	-0.311865	99
Es	3.139188	-0.060256	-0.203465	99
Es	2.539697	-0.114225	-0.025287	99
Es	0.070661	1.806867	1.357272	99
Es	-0.818477	-1.360798	-0.317335	99
Es	0.263065	-0.598006	-0.572750	99
Es	-1.747028	-1.753377	-0.967859	99
Es	0.254812	-0.652736	0.065102	99
Es	-1.963330	-0.916257	-0.160449	99
Es	-0.299043	1.749932	1.235962	99
Es	0.318545	-1.853333	-0.361167	99
Es	1.272557	-0.056034	-0.199718	99
Es	3.837792	-0.047578	-0.202917	99
Es	0.542863	-0.060161	-0.203453	99
Es	-0.168316	1.273211	-0.137757	99
Es	1.948475	-0.060290	-0.203445	99
Es	-0.859813	1.216897	-0.456090	99
Es	-0.292708	1.555425	0.697021	99
Es	0.194056	0.593569	-0.156384	99
42
Properties=species:S:1:pos:R:3:Z:I:1 energy=-286.9068548627308 field_type=dipole dipole="0.000000 0.000000 0.000000" charge=0
C	-1.554925	-1.511261	-0.321117	6
C	-0.083015	-1.250360	-0.311857	6
C	0.542745	-0.060271	-0.203447	6
C	-0.168335	1.273240	-0.137897	6
N	-0.298555	1.750040	1.236153	7
C	1.948745	-0.060271	-0.203447	6
C	3.138905	-0.060271	-0.203447	6
H	-1.793785	-2.280251	0.421423	1
H	-1.861215	-1.882020	-1.304417	1
H	-2.156075	-0.631341	-0.080647	1
H	0.525515	-2.152340	-0.382657	1
H	-1.159315	1.222879	-0.600507	1
H	0.390315	2.016539	-0.719917	1
H	-0.836655	1.069739	1.769643	1
H	-0.837985	2.612619	1.239012	1
H	4.203635	-0.056671	-0.196867	1
Es	0.253964	-0.652992	0.064657	99
Es	-0.818451	-1.360898	-0.317347	99
Es	-1.554877	-1.511255	-0.321121	99
Es	2.548000	-0.378147	-0.390417	99
Es	0.318523	-1.853265	-0.361000	99
Es	-0.859842	1.216832	-0.456046	99
Es	-0.683077	1.347674	1.506929	99
Es	0.542864	-0.060160	-0.203441	99
Es	2.551236	0.301086	-0.204910	99
Es	-0.168317	1.273213	-0.137759	99
Es	3.139188	-0.060256	-0.203459	99
Es	-0.624710	2.215107	1.206761	99
Es	-0.293511	1.556178	0.699644	99
Es	-0.083106	-1.250439	-0.311860	99
Es	-1.746691	-1.753169	-0.967469	99
Es	1.948475	-0.060290	-0.203447	99
Es	3.837788	-0.047512	-0.202776	99
Es	1.272600	-0.056145	-0.199692	99
Es	0.071519	1.806171	1.354892	99
Es	-1.963346	-0.916179	-0.160899	99
Es	0.228139	1.772527	-0.528613	99
Es	0.193971	0.593679	-0.156430	99
Es	-0.299038	1.749951	1.235964	99
Es	2.539820	-0.117309	-0.024582	99
Es	0.263866	-0.597682	-0.572445	99
Es	-1.708459	-2.028606	0.167829	99
42
Properties=species:S:1:pos:R:3:Z:I:1 energy=-286.9068548627308 field_type=dipole dipole="0.000000 0.000000 0.000000" charge=0
C	-1.554925	-1.511261	-0.321117	6
C	-0.083015	-1.250360	-0.311857	6
C	0.542745	-0.060271	-0.203447	6
C	-0.168335	1.273240	-0.137897	6
N	-0.298555	1.750040	1.236153	7
C	1.948745	-0.060271	-0.203447	6
C	3.138905	-0.060271	-0.203447	6
H	-1.793785	-2.280251	0.421423	1
H	-1.861215	-1.882020	-1.304417	1
H	-2.156075	-0.631341	-0.080647	1
H	0.525515	-2.152340	-0.382657	1
H	-1.159315	1.222879	-0.600507	1
H	0.390315	2.016539	-0.719917	1
H	-0.836655	1.069739	1.769643	1
H	-0.837985	2.612619	1.239012	1
H	4.203635	-0.056671	-0.196867	1
Es	-0.299056	1.749957	1.235974	99
Es	-0.818472	-1.360878	-0.317312	99
Es	3.139188	-0.060256	-0.203462	99
Es	1.948475	-0.060293	-0.203447	99
Es	3.837788	-0.047663	-0.203780	99
Es	0.253606	-0.653290	0.065191	99
Es	0.228798	1.771638	-0.529156	99
Es	-0.293026	1.555554	0.698055	99
Es	2.538938	-0.025468	-0.371479	99
Es	-0.859777	1.216590	-0.456150	99
Es	-0.168315	1.273212	-0.137760	99
Es	1.272605	-0.056118	-0.200210	99
Es	-1.963356	-0.916202	-0.160670	99
Es	2.549241	0.259856	-0.039627	99
Es	-1.708047	-2.028097	0.168014	99
Es	0.542863	-0.060162	-0.203448	99
Es	0.193736	0.594088	-0.156635	99
Es	-0.083106	-1.250440	-0.311859	99
Es	-1.747097	-1.753644	-0.967706	99
Es	0.070999	1.807324	1.356259	99
Es	-1.554877	-1.511253	-0.321116	99
Es	-0.684436	1.349629	1.508021	99
Es	0.317884	-1.852828	-0.360717	99
Es	0.264401	-0.597479	-0.572869	99
Es	-0.623295	2.212831	1.206522	99
Es	2.550866	-0.428496	-0.207670	99
42
Properties=species:S:1:pos:R:3:Z:I:1 energy=-286.9068548627308 field_type=dipole dipole="0.000000 0.000000 0.000000" charge=0
C	-1.554925	-1.511261	-0.321117	6
C	-0.083015	-1.250360	-0.311857	6
C	0.542745	-0.060271	-0.203447	6
C	-0.168335	1.273240	-0.137897	6
N	-0.298555	1.750040	1.236153	7
C	1.948745	-0.060271	-0.203447	6
C	3.138905	-0.060271	-0.203447	6
H	-1.793785	-2.280251	0.421423	1
H	-1.861215	-1.882020	-1.304417	1
H	-2.156075	-0.631341	-0.080647	1
H	0.525515	-2.152340	-0.382657	1
H	-1.159315	1.222879	-0.600507	1
H	0.390315	2.016539	-0.719917	1
H	-0.836655	1.069739	1.769643	1
H	-0.837985	2.612619	1.239012	1
H	4.203635	-0.056671	-0.196867	1
Es	1.272601	-0.056008	-0.199732	99
Es	2.539731	-0.114860	-0.028549	99
Es	0.228667	1.772066	-0.528614	99
Es	-1.746683	-1.753060	-0.967370	99
Es	0.542863	-0.060161	-0.203450	99
Es	-0.623320	2.213131	1.206759	99
Es	-1.963693	-0.916280	-0.160412	99
Es	-0.818447	-1.360883	-0.317330	99
Es	-0.168315	1.273211	-0.137753	99
Es	-0.083106	-1.250439	-0.311860	99
Es	-0.298996	1.749947	1.235936	99
Es	0.318230	-1.853017	-0.361196	99
Es	2.551241	0.301043	-0.205276	99
Es	0.254758	-0.652850	0.065213	99
Es	-1.554877	-1.511253	-0.321116	99
Es	-0.859931	1.216823	-0.455874	99
Es	3.139188	-0.060256	-0.203458	99
Es	1.948476	-0.060278	-0.203452	99
Es	-0.293736	1.556722	0.701843	99
Es	2.548093	-0.380644	-0.386090	99
Es	0.072005	1.806110	1.353669	99
Es	-1.708171	-2.028543	0.167220	99
Es	0.193667	0.593988	-0.156308	99
Es	0.263178	-0.597904	-0.572749	99
Es	-0.684700	1.349046	1.505754	99
Es	3.837803	-0.047536	-0.202843	99
