41
Properties=species:S:1:pos:R:3:Z:I:1 energy=-302.953768930365 field_type=dipole dipole="0.000000 0.000000 0.000000" charge=0
C	-1.210344	-2.960712	-0.550577	6
C	-0.387034	-2.011363	-0.091477	6
C	-0.619654	-0.601673	-0.299227	6
C	0.219086	0.348417	0.138513	6
N	0.062686	1.704887	-0.004007	7
C	0.886636	2.725827	0.375563	6
N	2.064886	2.684777	0.886483	7
H	-0.996434	-4.009442	-0.367777	1
H	-2.107494	-2.728483	-1.115367	1
H	0.498846	-2.306922	0.467673	1
H	-1.521244	-0.320563	-0.837427	1
H	1.122526	0.067757	0.673713	1
H	-0.806734	1.980547	-0.450737	1
H	0.427947	3.712917	0.191343	1
H	2.366326	1.714027	0.983313	1
Es	0.062470	1.704904	-0.003399	99
Es	1.475508	2.674216	0.940895	99
Es	-0.461987	1.874718	-0.257811	99
Es	-0.498601	-1.298204	-0.192637	99
Es	2.230724	2.087617	0.939659	99
Es	-0.619690	-0.601701	-0.299239	99
Es	2.263109	2.961200	0.983065	99
Es	-1.210401	-2.960779	-0.550614	99
Es	-0.973267	-2.464432	-0.051662	99
Es	0.219154	0.348689	0.138540	99
Es	0.560014	3.385344	0.242835	99
Es	0.132082	1.121831	0.083239	99
Es	-1.820679	-2.803245	-0.934177	99
Es	0.831514	0.168028	0.499633	99
Es	-1.233478	-0.407223	-0.665195	99
Es	0.409469	2.119484	0.214331	99
Es	1.707668	2.689069	0.421586	99
Es	0.886459	2.725701	0.375482	99
Es	0.165054	1.712094	-0.057071	99
Es	2.064552	2.684387	0.886331	99
Es	-0.637198	-2.490467	-0.599170	99
Es	-0.386967	-2.011250	-0.091442	99
Es	0.217778	-2.198747	0.288827	99
Es	-0.381725	-0.156307	0.191127	99
Es	-1.071483	-3.673947	-0.430415	99
Es	-0.057429	-0.187546	-0.371286	99
41
Properties=species:S:1:pos:R:3:Z:I:1 energy=-302.953768930365 field_type=dipole dipole="0.000000 0.000000 0.000000" charge=0
C	-1.210344	-2.960712	-0.550577	6
C	-0.387034	-2.011363	-0.091477	6
C	-0.619654	-0.601673	-0.299227	6
C	0.219086	0.348417	0.138513	6
N	0.062686	1.704887	-0.004007	7
C	0.886636	2.725827	0.375563	6
N	2.064886	2.684777	0.886483	7
H	-0.996434	-4.009442	-0.367777	1
H	-2.107494	-2.728483	-1.115367	1
H	0.498846	-2.306922	0.467673	1
H	-1.521244	-0.320563	-0.837427	1
H	1.122526	0.067757	0.673713	1
H	-0.806734	1.980547	-0.450737	1
H	0.427947	3.712917	0.191343	1
H	2.366326	1.714027	0.983313	1
Es	-0.498153	-1.298297	-0.192654	99
Es	-0.382653	-0.155387	0.191504	99
Es	-1.232638	-0.407394	-0.664028	99
Es	-1.210410	-2.960784	-0.550606	99
Es	0.216711	-2.198399	0.287291	99
Es	0.435287	2.124758	0.172810	99
Es	0.830414	0.167926	0.498442	99
Es	1.701131	2.681200	0.436499	99
Es	0.561339	3.384473	0.243108	99
Es	-0.636455	-2.490658	-0.600182	99
Es	2.217667	2.089952	0.933734	99
Es	2.274790	2.977427	0.988825	99
Es	-1.072150	-3.674394	-0.430299	99
Es	0.063881	1.705413	0.002074	99
Es	-0.386963	-2.011248	-0.091443	99
Es	0.886453	2.725698	0.375478	99
Es	2.064558	2.684393	0.886331	99
Es	-0.455167	1.872141	-0.267367	99
Es	0.120816	1.710206	0.016089	99
Es	-0.619692	-0.601703	-0.299241	99
Es	1.482441	2.666506	0.926181	99
Es	-0.973612	-2.464966	-0.050403	99
Es	0.219155	0.348693	0.138538	99
Es	-0.057743	-0.187489	-0.372568	99
Es	0.143991	1.118588	0.056338	99
Es	-1.820348	-2.803223	-0.933019	99
41
Properties=species:S:1:pos:R:3:Z:I:1 energy=-302.953768930365 field_type=dipole dipole="0.000000 0.000000 0.000000" charge=0
C	-1.210344	-2.960712	-0.550577	6
C	-0.387034	-2.011363	-0.091477	6
C	-0.619654	-0.601673	-0.299227	6
C	0.219086	0.348417	0.138513	6
N	0.062686	1.704887	-0.004007	7
C	0.886636	2.725827	0.375563	6
N	2.064886	2.684777	0.886483	7
H	-0.996434	-4.009442	-0.367777	1
H	-2.107494	-2.728483	-1.115367	1
H	0.498846	-2.306922	0.467673	1
H	-1.521244	-0.320563	-0.837427	1
H	1.122526	0.067757	0.673713	1
H	-0.806734	1.980547	-0.450737	1
H	0.427947	3.712917	0.191343	1
H	2.366326	1.714027	0.983313	1
Es	-0.497778	-1.298598	-0.192467	99
Es	-1.820372	-2.802725	-0.932311	99
Es	-0.386964	-2.011248	-0.091441	99
Es	0.434894	2.125480	0.173079	99
Es	2.278349	2.981827	0.991435	99
Es	-1.210408	-2.960784	-0.550612	99
Es	2.209765	2.091948	0.930233	99
Es	0.829412	0.167215	0.497608	99
Es	-1.231943	-0.406902	-0.663342	99
Es	2.064562	2.684397	0.886335	99
Es	-0.636379	-2.490637	-0.600358	99
Es	0.886444	2.725697	0.375506	99
Es	0.562060	3.383185	0.243246	99
Es	0.215970	-2.198796	0.286368	99
Es	-0.619691	-0.601706	-0.299243	99
Es	1.487814	2.664357	0.918391	99
Es	0.062545	1.704883	-0.003650	99
Es	0.121514	1.710303	0.024456	99
Es	-1.072668	-3.674766	-0.430252	99
Es	-0.452728	1.871370	-0.265917	99
Es	-0.382896	-0.155181	0.190902	99
Es	1.699510	2.678880	0.445129	99
Es	-0.973374	-2.465297	-0.050393	99
Es	-0.058393	-0.186848	-0.372585	99
Es	0.144249	1.118684	0.052778	99
Es	0.219153	0.348696	0.138537	99
41
Properties=species:S:1:pos:R:3:Z:I:1 energy=-302.953768930365 field_type=dipole dipole="0.000000 0.000000 0.000000" charge=0
C	-1.210344	-2.960712	-0.550577	6
C	-0.387034	-2.011363	-0.091477	6
C	-0.619654	-0.601673	-0.299227	6
C	0.219086	0.348417	0.138513	6
N	0.062686	1.704887	-0.004007	7
C	0.886636	2.725827	0.375563	6
N	2.064886	2.684777	0.886483	7
H	-0.996434	-4.009442	-0.367777	1
H	-2.107494	-2.728483	-1.115367	1
H	0.498846	-2.306922	0.467673	1
H	-1.521244	-0.320563	-0.837427	1
H	1.122526	0.067757	0.673713	1
H	-0.806734	1.980547	-0.450737	1
H	0.427947	3.712917	0.191343	1
H	2.366326	1.714027	0.983313	1
Es	0.062540	1.705064	-0.001131	99
Es	0.214952	-2.199503	0.284994	99
Es	-1.210411	-2.960783	-0.550610	99
Es	-1.231377	-0.406329	-0.662265	99
Es	-0.636446	-2.490511	-0.600299	99
Es	-0.386964	-2.011248	-0.091444	99
Es	-0.383642	-0.158233	0.190131	99
Es	-1.073123	-3.675037	-0.430324	99
Es	0.121612	1.709829	0.022385	99
Es	0.886449	2.725695	0.375480	99
Es	0.562715	3.381505	0.243168	99
Es	-0.973221	-2.465599	-0.050363	99
Es	2.281509	2.983077	0.989350	99
Es	0.828075	0.166548	0.496338	99
Es	-0.450895	1.871541	-0.261234	99
Es	2.204161	2.094771	0.929764	99
Es	1.665153	2.673680	0.453040	99
Es	0.219152	0.348696	0.138539	99
Es	-0.619691	-0.601707	-0.299242	99
Es	-1.820436	-2.802320	-0.931526	99
Es	1.524091	2.667347	0.913221	99
Es	0.143936	1.118451	0.049743	99
Es	-0.058101	-0.183311	-0.372262	99
Es	2.064565	2.684395	0.886338	99
Es	-0.497110	-1.298510	-0.192410	99
Es	0.435157	2.125925	0.172049	99
41
Properties=species:S:1:pos:R:3:Z:I:1 energy=-302.953768930365 field_type=dipole dipole="0.000000 0.000000 0.000000" charge=0
C	-1.210344	-2.960712	-0.550577	6
C	-0.387034	-2.011363	-0.091477	6
C	-0.619654	-0.601673	-0.299227	6
C	0.219086	0.348417	0.138513	6
N	0.062686	1.704887	-0.004007	7
C	0.886636	2.725827	0.375563	6
N	2.064886	2.684777	0.886483	7
H	-0.996434	-4.009442	-0.367777	1
H	-2.107494	-2.728483	-1.115367	1
H	0.498846	-2.306922	0.467673	1
H	-1.521244	-0.320563	-0.837427	1
H	1.122526	0.067757	0.673713	1
H	-0.806734	1.980547	-0.450737	1
H	0.427947	3.712917	0.191343	1
H	2.366326	1.714027	0.983313	1
Es	-0.442975	1.872254	-0.262611	99
Es	-0.383115	-0.152180	0.192219	99
Es	-1.818398	-2.801835	-0.931098	99
Es	0.824268	0.166608	0.494907	99
Es	-0.058602	-0.189281	-0.374506	99
Es	0.434511	2.126435	0.172415	99
Es	1.523023	2.639485	0.633733	99
Es	2.279664	2.984501	0.992025	99
Es	0.121500	1.709803	0.025969	99
Es	-0.619688	-0.601710	-0.299242	99
Es	0.140054	1.117623	0.051702	99
Es	0.563309	3.381527	0.242736	99
Es	-0.974442	-2.465272	-0.048585	99
Es	2.064580	2.684387	0.886340	99
Es	-0.635018	-2.491089	-0.601982	99
Es	-1.228590	-0.406027	-0.661488	99
Es	-1.210410	-2.960784	-0.550610	99
Es	-1.074878	-3.675748	-0.431103	99
Es	0.062728	1.704862	-0.004056	99
Es	0.211547	-2.199937	0.283655	99
Es	2.206423	2.118785	0.930490	99
Es	-0.386967	-2.011248	-0.091441	99
Es	1.665155	2.676214	0.729665	99
Es	0.219151	0.348695	0.138541	99
Es	0.886449	2.725692	0.375483	99
Es	-0.496631	-1.298329	-0.191727	99
41
Properties=species:S:1:pos:R:3:Z:I:1 energy=-302.953768930365 field_type=dipole dipole="0.000000 0.000000 0.000000" charge=0
C	-1.210344	-2.960712	-0.550577	6
C	-0.387034	-2.011363	-0.091477	6
C	-0.619654	-0.601673	-0.299227	6
C	0.219086	0.348417	0.138513	6
N	0.062686	1.704887	-0.004007	7
C	0.886636	2.725827	0.375563	6
N	2.064886	2.684777	0.886483	7
H	-0.996434	-4.009442	-0.367777	1
H	-2.107494	-2.728483	-1.115367	1
H	0.498846	-2.306922	0.467673	1
H	-1.521244	-0.320563	-0.837427	1
H	1.122526	0.067757	0.673713	1
H	-0.806734	1.980547	-0.450737	1
H	0.427947	3.712917	0.191343	1
H	2.366326	1.714027	0.983313	1
Es	2.280897	2.984002	0.991378	99
Es	-0.386967	-2.011246	-0.091444	99
Es	1.518414	2.617603	0.654128	99
Es	0.219152	0.348695	0.138538	99
Es	-1.210410	-2.960784	-0.550610	99
Es	0.062520	1.704884	-0.003569	99
Es	-0.974379	-2.465262	-0.048865	99
Es	-0.619697	-0.601702	-0.299240	99
Es	0.435430	2.126553	0.170291	99
Es	-1.227285	-0.405323	-0.660224	99
Es	0.886451	2.725692	0.375480	99
Es	0.136021	1.117552	0.053420	99
Es	2.201360	2.141770	0.929237	99
Es	-1.817772	-2.801175	-0.930275	99
Es	1.673533	2.676760	0.711034	99
Es	-0.438683	1.872403	-0.260050	99
Es	-0.352370	-0.124168	0.157946	99
Es	-0.634928	-2.491172	-0.601864	99
Es	-0.496796	-1.298557	-0.191168	99
Es	0.210081	-2.200405	0.282510	99
Es	2.064576	2.684391	0.886340	99
Es	0.822425	0.166473	0.493886	99
Es	-1.076044	-3.676320	-0.431025	99
Es	-0.088857	-0.217190	-0.341505	99
Es	0.122423	1.709646	0.024358	99
Es	0.563556	3.380313	0.242726	99
41
Properties=species:S:1:pos:R:3:Z:I:1 energy=-302.953768930365 field_type=dipole dipole="0.000000 0.000000 0.000000" charge=0
C	-1.210344	-2.960712	-0.550577	6
C	-0.387034	-2.011363	-0.091477	6
C	-0.619654	-0.601673	-0.299227	6
C	0.219086	0.348417	0.138513	6
N	0.062686	1.704887	-0.004007	7
C	0.886636	2.725827	0.375563	6
N	2.064886	2.684777	0.886483	7
H	-0.996434	-4.009442	-0.367777	1
H	-2.107494	-2.728483	-1.115367	1
H	0.498846	-2.306922	0.467673	1
H	-1.521244	-0.320563	-0.837427	1
H	1.122526	0.067757	0.673713	1
H	-0.806734	1.980547	-0.450737	1
H	0.427947	3.712917	0.191343	1
H	2.366326	1.714027	0.983313	1
Es	-1.226650	-0.405129	-0.659575	99
Es	0.134246	1.117600	0.051403	99
Es	1.671789	2.676608	0.715144	99
Es	0.435614	2.126517	0.170013	99
Es	1.526225	2.600715	0.651961	99
Es	-0.634860	-2.491170	-0.601933	99
Es	0.208637	-2.200696	0.281447	99
Es	-1.817176	-2.800821	-0.929680	99
Es	0.886451	2.725692	0.375478	99
Es	-1.210410	-2.960784	-0.550610	99
Es	-0.495921	-1.298528	-0.190708	99
Es	0.820996	0.166545	0.492843	99
Es	0.219156	0.348692	0.138537	99
Es	-0.435764	1.872255	-0.256356	99
Es	-0.321796	-0.112693	0.113900	99
Es	0.563482	3.379307	0.243358	99
Es	2.194249	2.160381	0.927268	99
Es	-0.386965	-2.011248	-0.091446	99
Es	0.062725	1.704863	-0.004050	99
Es	-0.619694	-0.601705	-0.299237	99
Es	-1.076847	-3.676612	-0.431378	99
Es	-0.119516	-0.228528	-0.297630	99
Es	2.064566	2.684397	0.886336	99
Es	2.282117	2.983367	0.990781	99
Es	-0.974474	-2.465257	-0.048760	99
Es	0.122470	1.709664	0.024326	99
41
Properties=species:S:1:pos:R:3:Z:I:1 energy=-302.953768930365 field_type=dipole dipole="0.000000 0.000000 0.000000" charge=0
C	-1.210344	-2.960712	-0.550577	6
C	-0.387034	-2.011363	-0.091477	6
C	-0.619654	-0.601673	-0.299227	6
C	0.219086	0.348417	0.138513	6
N	0.062686	1.704887	-0.004007	7
C	0.886636	2.725827	0.375563	6
N	2.064886	2.684777	0.886483	7
H	-0.996434	-4.009442	-0.367777	1
H	-2.107494	-2.728483	-1.115367	1
H	0.498846	-2.306922	0.467673	1
H	-1.521244	-0.320563	-0.837427	1
H	1.122526	0.067757	0.673713	1
H	-0.806734	1.980547	-0.450737	1
H	0.427947	3.712917	0.191343	1
H	2.366326	1.714027	0.983313	1
Es	1.531247	2.582494	0.661529	99
Es	-1.817175	-2.801020	-0.929780	99
Es	-0.386966	-2.011248	-0.091446	99
Es	0.435144	2.126610	0.170790	99
Es	-0.285217	-0.105480	0.057138	99
Es	0.819951	0.166654	0.492302	99
Es	1.674097	2.676751	0.709851	99
Es	-0.619694	-0.601706	-0.299232	99
Es	0.062687	1.704867	-0.003981	99
Es	0.886450	2.725691	0.375483	99
Es	0.207713	-2.200656	0.281009	99
Es	-0.495569	-1.298639	-0.190448	99
Es	-0.434210	1.872011	-0.254544	99
Es	2.187023	2.179100	0.921310	99
Es	-1.226201	-0.405016	-0.659212	99
Es	-0.156120	-0.235677	-0.240956	99
Es	0.219154	0.348694	0.138537	99
Es	-1.076747	-3.676402	-0.431565	99
Es	-0.974737	-2.465351	-0.047839	99
Es	2.064567	2.684398	0.886336	99
Es	0.563216	3.379027	0.244270	99
Es	0.133957	1.117644	0.049910	99
Es	-1.210411	-2.960784	-0.550608	99
Es	0.122678	1.709648	0.023880	99
Es	2.282321	2.982963	0.991582	99
Es	-0.634507	-2.491144	-0.602886	99
41
Properties=species:S:1:pos:R:3:Z:I:1 energy=-302.953768930365 field_type=dipole dipole="0.000000 0.000000 0.000000" charge=0
C	-1.210344	-2.960712	-0.550577	6
C	-0.387034	-2.011363	-0.091477	6
C	-0.619654	-0.601673	-0.299227	6
C	0.219086	0.348417	0.138513	6
N	0.062686	1.704887	-0.004007	7
C	0.886636	2.725827	0.375563	6
N	2.064886	2.684777	0.886483	7
H	-0.996434	-4.009442	-0.367777	1
H	-2.107494	-2.728483	-1.115367	1
H	0.498846	-2.306922	0.467673	1
H	-1.521244	-0.320563	-0.837427	1
H	1.122526	0.067757	0.673713	1
H	-0.806734	1.980547	-0.450737	1
H	0.427947	3.712917	0.191343	1
H	2.366326	1.714027	0.983313	1
Es	-0.152172	-0.112347	-0.169988	99
Es	-0.492743	-1.298422	-0.190792	99
Es	0.137883	1.118147	0.037955	99
Es	0.886452	2.725691	0.375479	99
Es	-1.816653	-2.801001	-0.930347	99
Es	0.116815	1.709387	0.029333	99
Es	0.066989	1.704896	-0.006444	99
Es	2.064559	2.684407	0.886332	99
Es	-0.290745	-0.228784	-0.010778	99
Es	-1.210410	-2.960785	-0.550609	99
Es	-0.432355	1.871504	-0.250540	99
Es	-0.634618	-2.490932	-0.603275	99
Es	-1.226324	-0.405128	-0.660210	99
Es	-0.619689	-0.601707	-0.299243	99
Es	-0.386968	-2.011246	-0.091444	99
Es	-0.974814	-2.465514	-0.047197	99
Es	2.184067	2.186574	0.917426	99
Es	0.818578	0.166908	0.491496	99
Es	0.219158	0.348691	0.138540	99
Es	1.535938	2.576089	0.659804	99
Es	1.674377	2.676479	0.710015	99
Es	2.280688	2.982664	0.995731	99
Es	0.432163	2.126631	0.176715	99
Es	0.562722	3.378447	0.246004	99
Es	-1.076198	-3.676426	-0.433125	99
Es	0.205949	-2.200794	0.280592	99
41
Properties=species:S:1:pos:R:3:Z:I:1 energy=-302.953768930365 field_type=dipole dipole="0.000000 0.000000 0.000000" charge=0
C	-1.210344	-2.960712	-0.550577	6
C	-0.387034	-2.011363	-0.091477	6
C	-0.619654	-0.601673	-0.299227	6
C	0.219086	0.348417	0.138513	6
N	0.062686	1.704887	-0.004007	7
C	0.886636	2.725827	0.375563	6
N	2.064886	2.684777	0.886483	7
H	-0.996434	-4.009442	-0.367777	1
H	-2.107494	-2.728483	-1.115367	1
H	0.498846	-2.306922	0.467673	1
H	-1.521244	-0.320563	-0.837427	1
H	1.122526	0.067757	0.673713	1
H	-0.806734	1.980547	-0.450737	1
H	0.427947	3.712917	0.191343	1
H	2.366326	1.714027	0.983313	1
Es	0.062596	1.704874	-0.003773	99
Es	-1.210410	-2.960784	-0.550610	99
Es	-0.225621	-0.237784	-0.126002	99
Es	0.219152	0.348697	0.138535	99
Es	-0.492729	-1.298467	-0.189890	99
Es	2.064561	2.684405	0.886333	99
Es	-0.432502	1.871479	-0.248755	99
Es	0.205474	-2.200920	0.279735	99
Es	-0.974583	-2.465582	-0.047533	99
Es	1.668328	2.676186	0.722887	99
Es	2.176518	2.198328	0.917804	99
Es	-1.226361	-0.405007	-0.659185	99
Es	-0.619684	-0.601708	-0.299249	99
Es	-0.216528	-0.103226	-0.056510	99
Es	0.818705	0.166810	0.491280	99
Es	-1.817288	-2.801030	-0.929958	99
Es	0.135356	1.118080	0.041753	99
Es	2.282710	2.982312	0.992622	99
Es	0.886450	2.725693	0.375480	99
Es	-0.634712	-2.490902	-0.603125	99
Es	-0.386972	-2.011244	-0.091442	99
Es	0.122034	1.709581	0.024694	99
Es	0.563057	3.377838	0.245597	99
Es	0.434057	2.126561	0.173157	99
Es	1.547365	2.565540	0.649822	99
Es	-1.076322	-3.676301	-0.432238	99
41
Properties=species:S:1:pos:R:3:Z:I:1 energy=-302.953768930365 field_type=dipole dipole="0.000000 0.000000 0.000000" charge=0
C	-1.210344	-2.960712	-0.550577	6
C	-0.387034	-2.011363	-0.091477	6
C	-0.619654	-0.601673	-0.299227	6
C	0.219086	0.348417	0.138513	6
N	0.062686	1.704887	-0.004007	7
C	0.886636	2.725827	0.375563	6
N	2.064886	2.684777	0.886483	7
H	-0.996434	-4.009442	-0.367777	1
H	-2.107494	-2.728483	-1.115367	1
H	0.498846	-2.306922	0.467673	1
H	-1.521244	-0.320563	-0.837427	1
H	1.122526	0.067757	0.673713	1
H	-0.806734	1.980547	-0.450737	1
H	0.427947	3.712917	0.191343	1
H	2.366326	1.714027	0.983313	1
Es	0.062613	1.704874	-0.003813	99
Es	-1.226361	-0.405008	-0.659083	99
Es	0.563011	3.377674	0.245912	99
Es	-1.210410	-2.960784	-0.550610	99
Es	-0.386969	-2.011245	-0.091443	99
Es	0.219155	0.348692	0.138538	99
Es	0.886451	2.725692	0.375480	99
Es	0.817914	0.167024	0.490768	99
Es	-0.492252	-1.298328	-0.189931	99
Es	2.064565	2.684399	0.886336	99
Es	0.121638	1.709519	0.025591	99
Es	1.550002	2.558726	0.653924	99
Es	0.433437	2.126677	0.174146	99
Es	2.172710	2.205294	0.915885	99
Es	2.282507	2.982244	0.993239	99
Es	-1.075842	-3.676159	-0.432170	99
Es	-0.619688	-0.601707	-0.299242	99
Es	0.136723	1.117995	0.040640	99
Es	0.205074	-2.201052	0.279485	99
Es	-0.432128	1.871347	-0.248988	99
Es	-0.204718	-0.104083	-0.076794	99
Es	-0.237531	-0.236956	-0.105477	99
Es	1.669747	2.676249	0.719832	99
Es	-0.971908	-2.465509	-0.053254	99
Es	-0.637345	-2.491045	-0.597326	99
Es	-1.817744	-2.801099	-0.930211	99
41
Properties=species:S:1:pos:R:3:Z:I:1 energy=-302.953768930365 field_type=dipole dipole="0.000000 0.000000 0.000000" charge=0
C	-1.210344	-2.960712	-0.550577	6
C	-0.387034	-2.011363	-0.091477	6
C	-0.619654	-0.601673	-0.299227	6
C	0.219086	0.348417	0.138513	6
N	0.062686	1.704887	-0.004007	7
C	0.886636	2.725827	0.375563	6
N	2.064886	2.684777	0.886483	7
H	-0.996434	-4.009442	-0.367777	1
H	-2.107494	-2.728483	-1.115367	1
H	0.498846	-2.306922	0.467673	1
H	-1.521244	-0.320563	-0.837427	1
H	1.122526	0.067757	0.673713	1
H	-0.806734	1.980547	-0.450737	1
H	0.427947	3.712917	0.191343	1
H	2.366326	1.714027	0.983313	1
Es	2.064570	2.684396	0.886337	99
Es	-0.965926	-2.465778	-0.063960	99
Es	2.169240	2.211489	0.913336	99
Es	2.282833	2.981801	0.993755	99
Es	0.563062	3.377225	0.246245	99
Es	0.063225	1.704838	-0.004748	99
Es	0.886450	2.725693	0.375478	99
Es	-1.817867	-2.800995	-0.930192	99
Es	0.818193	0.166979	0.490859	99
Es	1.672064	2.676265	0.715131	99
Es	-0.386967	-2.011246	-0.091445	99
Es	0.120657	1.709529	0.027256	99
Es	0.134608	1.118499	0.039092	99
Es	-1.075809	-3.676141	-0.432274	99
Es	-1.226039	-0.404894	-0.658870	99
Es	0.219153	0.348695	0.138537	99
Es	-0.430225	1.870934	-0.247713	99
Es	-0.236642	-0.237009	-0.107072	99
Es	-0.643209	-2.490877	-0.586629	99
Es	-0.205686	-0.104043	-0.075024	99
Es	-0.492488	-1.298356	-0.190142	99
Es	-1.210407	-2.960785	-0.550613	99
Es	0.204979	-2.201096	0.279394	99
Es	-0.619690	-0.601707	-0.299239	99
Es	0.433761	2.126663	0.173530	99
Es	1.550809	2.553352	0.660401	99
41
Properties=species:S:1:pos:R:3:Z:I:1 energy=-302.953768930365 field_type=dipole dipole="0.000000 0.000000 0.000000" charge=0
C	-1.210344	-2.960712	-0.550577	6
C	-0.387034	-2.011363	-0.091477	6
C	-0.619654	-0.601673	-0.299227	6
C	0.219086	0.348417	0.138513	6
N	0.062686	1.704887	-0.004007	7
C	0.886636	2.725827	0.375563	6
N	2.064886	2.684777	0.886483	7
H	-0.996434	-4.009442	-0.367777	1
H	-2.107494	-2.728483	-1.115367	1
H	0.498846	-2.306922	0.467673	1
H	-1.521244	-0.320563	-0.837427	1
H	1.122526	0.067757	0.673713	1
H	-0.806734	1.980547	-0.450737	1
H	0.427947	3.712917	0.191343	1
H	2.366326	1.714027	0.983313	1
Es	2.064561	2.684401	0.886333	99
Es	-0.959215	-2.466126	-0.075655	99
Es	-1.210410	-2.960784	-0.550611	99
Es	-1.075305	-3.675760	-0.431914	99
Es	0.062687	1.704866	-0.003974	99
Es	-0.386967	-2.011247	-0.091443	99
Es	2.166254	2.216112	0.912244	99
Es	0.219154	0.348694	0.138538	99
Es	-0.491741	-1.298250	-0.189647	99
Es	-0.234472	-0.237171	-0.110856	99
Es	0.886448	2.725693	0.375482	99
Es	0.135699	1.118270	0.039513	99
Es	0.433837	2.126583	0.173556	99
Es	-1.818482	-2.801360	-0.930365	99
Es	-0.207808	-0.103868	-0.071365	99
Es	1.670248	2.675968	0.719440	99
Es	-0.430019	1.870831	-0.246414	99
Es	-1.226386	-0.404989	-0.658904	99
Es	0.204536	-2.201090	0.278980	99
Es	-0.649872	-2.490554	-0.574972	99
Es	0.121495	1.709510	0.025706	99
Es	2.283333	2.981468	0.993622	99
Es	-0.619686	-0.601708	-0.299244	99
Es	1.555101	2.549914	0.656978	99
Es	0.563089	3.376684	0.246526	99
Es	0.816572	0.167345	0.489879	99
41
Properties=species:S:1:pos:R:3:Z:I:1 energy=-302.953768930365 field_type=dipole dipole="0.000000 0.000000 0.000000" charge=0
C	-1.210344	-2.960712	-0.550577	6
C	-0.387034	-2.011363	-0.091477	6
C	-0.619654	-0.601673	-0.299227	6
C	0.219086	0.348417	0.138513	6
N	0.062686	1.704887	-0.004007	7
C	0.886636	2.725827	0.375563	6
N	2.064886	2.684777	0.886483	7
H	-0.996434	-4.009442	-0.367777	1
H	-2.107494	-2.728483	-1.115367	1
H	0.498846	-2.306922	0.467673	1
H	-1.521244	-0.320563	-0.837427	1
H	1.122526	0.067757	0.673713	1
H	-0.806734	1.980547	-0.450737	1
H	0.427947	3.712917	0.191343	1
H	2.366326	1.714027	0.983313	1
Es	0.433932	2.126539	0.173470	99
Es	0.219154	0.348694	0.138536	99
Es	-0.659593	-2.487746	-0.567076	99
Es	-1.075279	-3.675885	-0.432093	99
Es	2.163636	2.220016	0.911888	99
Es	2.064552	2.684411	0.886330	99
Es	0.886451	2.725690	0.375484	99
Es	1.555451	2.546319	0.662184	99
Es	0.816670	0.167334	0.489719	99
Es	-1.818370	-2.801377	-0.930121	99
Es	1.672245	2.676413	0.714164	99
Es	-0.619692	-0.601705	-0.299245	99
Es	-0.207261	-0.103940	-0.072238	99
Es	2.283711	2.981329	0.993199	99
Es	0.136018	1.118592	0.036797	99
Es	-1.226317	-0.404904	-0.658575	99
Es	-0.949996	-2.468410	-0.083754	99
Es	-1.210409	-2.960784	-0.550613	99
Es	-0.429714	1.870657	-0.244909	99
Es	-0.386969	-2.011246	-0.091443	99
Es	-0.491231	-1.298407	-0.189354	99
Es	0.563067	3.375995	0.247375	99
Es	0.204204	-2.201305	0.278541	99
Es	0.064406	1.704826	-0.005512	99
Es	-0.235007	-0.237111	-0.109995	99
Es	0.118990	1.709437	0.028673	99
41
Properties=species:S:1:pos:R:3:Z:I:1 energy=-302.953768930365 field_type=dipole dipole="0.000000 0.000000 0.000000" charge=0
C	-1.210344	-2.960712	-0.550577	6
C	-0.387034	-2.011363	-0.091477	6
C	-0.619654	-0.601673	-0.299227	6
C	0.219086	0.348417	0.138513	6
N	0.062686	1.704887	-0.004007	7
C	0.886636	2.725827	0.375563	6
N	2.064886	2.684777	0.886483	7
H	-0.996434	-4.009442	-0.367777	1
H	-2.107494	-2.728483	-1.115367	1
H	0.498846	-2.306922	0.467673	1
H	-1.521244	-0.320563	-0.837427	1
H	1.122526	0.067757	0.673713	1
H	-0.806734	1.980547	-0.450737	1
H	0.427947	3.712917	0.191343	1
H	2.366326	1.714027	0.983313	1
Es	-1.818796	-2.801669	-0.930212	99
Es	0.886448	2.725693	0.375481	99
Es	-0.665035	-2.487217	-0.558632	99
Es	-0.386966	-2.011248	-0.091444	99
Es	0.062855	1.704853	-0.004273	99
Es	-1.226732	-0.405046	-0.658608	99
Es	-0.619690	-0.601706	-0.299239	99
Es	0.203225	-2.201296	0.277845	99
Es	-0.489807	-1.298325	-0.188563	99
Es	2.284289	2.980949	0.993000	99
Es	0.120597	1.709410	0.027286	99
Es	-0.209480	-0.103761	-0.068433	99
Es	0.136248	1.118520	0.037115	99
Es	1.669952	2.676058	0.719520	99
Es	0.219154	0.348694	0.138536	99
Es	1.559744	2.543528	0.657696	99
Es	-1.210410	-2.960784	-0.550611	99
Es	-1.074884	-3.675650	-0.431792	99
Es	-0.944622	-2.468851	-0.092276	99
Es	0.434112	2.126537	0.173115	99
Es	-0.429706	1.870599	-0.244488	99
Es	2.064571	2.684396	0.886337	99
Es	0.563048	3.375679	0.247801	99
Es	-0.232768	-0.237265	-0.113910	99
Es	0.816240	0.167462	0.489402	99
Es	2.161064	2.223874	0.910780	99
41
Properties=species:S:1:pos:R:3:Z:I:1 energy=-302.953768930365 field_type=dipole dipole="0.000000 0.000000 0.000000" charge=0
C	-1.210344	-2.960712	-0.550577	6
C	-0.387034	-2.011363	-0.091477	6
C	-0.619654	-0.601673	-0.299227	6
C	0.219086	0.348417	0.138513	6
N	0.062686	1.704887	-0.004007	7
C	0.886636	2.725827	0.375563	6
N	2.064886	2.684777	0.886483	7
H	-0.996434	-4.009442	-0.367777	1
H	-2.107494	-2.728483	-1.115367	1
H	0.498846	-2.306922	0.467673	1
H	-1.521244	-0.320563	-0.837427	1
H	1.122526	0.067757	0.673713	1
H	-0.806734	1.980547	-0.450737	1
H	0.427947	3.712917	0.191343	1
H	2.366326	1.714027	0.983313	1
Es	-1.210409	-2.960784	-0.550611	99
Es	-1.074884	-3.675299	-0.431973	99
Es	-0.489785	-1.298194	-0.188690	99
Es	0.133952	1.119222	0.035466	99
Es	-1.819072	-2.801630	-0.930400	99
Es	0.219152	0.348697	0.138535	99
Es	0.120268	1.709412	0.027503	99
Es	0.816182	0.167490	0.489457	99
Es	-0.942783	-2.467160	-0.103554	99
Es	1.561188	2.540975	0.659083	99
Es	2.064571	2.684396	0.886338	99
Es	2.284364	2.980853	0.993100	99
Es	-0.427406	1.869997	-0.242971	99
Es	1.670354	2.676293	0.718169	99
Es	2.158976	2.226734	0.910787	99
Es	0.203005	-2.201003	0.277835	99
Es	0.433940	2.126468	0.173627	99
Es	-0.204914	-0.104115	-0.076334	99
Es	-0.237433	-0.236912	-0.105810	99
Es	-0.666200	-2.489686	-0.546913	99
Es	0.563239	3.375202	0.247677	99
Es	-0.619691	-0.601706	-0.299242	99
Es	0.063332	1.704835	-0.004858	99
Es	-1.226780	-0.405096	-0.658830	99
Es	-0.386967	-2.011249	-0.091440	99
Es	0.886449	2.725692	0.375481	99
41
Properties=species:S:1:pos:R:3:Z:I:1 energy=-302.953768930365 field_type=dipole dipole="0.000000 0.000000 0.000000" charge=0
C	-1.210344	-2.960712	-0.550577	6
C	-0.387034	-2.011363	-0.091477	6
C	-0.619654	-0.601673	-0.299227	6
C	0.219086	0.348417	0.138513	6
N	0.062686	1.704887	-0.004007	7
C	0.886636	2.725827	0.375563	6
N	2.064886	2.684777	0.886483	7
H	-0.996434	-4.009442	-0.367777	1
H	-2.107494	-2.728483	-1.115367	1
H	0.498846	-2.306922	0.467673	1
H	-1.521244	-0.320563	-0.837427	1
H	1.122526	0.067757	0.673713	1
H	-0.806734	1.980547	-0.450737	1
H	0.427947	3.712917	0.191343	1
H	2.366326	1.714027	0.983313	1
Es	0.563141	3.375343	0.247972	99
Es	-0.670326	-2.489436	-0.539931	99
Es	-1.210410	-2.960785	-0.550609	99
Es	2.064569	2.684398	0.886337	99
Es	0.120292	1.709368	0.027815	99
Es	-1.227216	-0.405243	-0.659051	99
Es	-0.386966	-2.011247	-0.091445	99
Es	0.219154	0.348695	0.138536	99
Es	-0.488395	-1.298088	-0.187738	99
Es	-0.205704	-0.104053	-0.074953	99
Es	-1.074397	-3.674907	-0.431699	99
Es	2.157267	2.229440	0.909429	99
Es	1.561023	2.538507	0.663169	99
Es	-0.938650	-2.467410	-0.110551	99
Es	0.886449	2.725692	0.375483	99
Es	0.062999	1.704845	-0.004481	99
Es	-0.236613	-0.236972	-0.107248	99
Es	1.671963	2.676335	0.714813	99
Es	-1.819557	-2.802020	-0.930684	99
Es	0.201991	-2.200940	0.277173	99
Es	-0.619691	-0.601708	-0.299238	99
Es	-0.426630	1.869813	-0.242816	99
Es	0.815814	0.167585	0.489236	99
Es	2.284726	2.980428	0.993454	99
Es	0.133860	1.119314	0.034907	99
Es	0.433955	2.126478	0.173551	99
41
Properties=species:S:1:pos:R:3:Z:I:1 energy=-302.953768930365 field_type=dipole dipole="0.000000 0.000000 0.000000" charge=0
C	-1.210344	-2.960712	-0.550577	6
C	-0.387034	-2.011363	-0.091477	6
C	-0.619654	-0.601673	-0.299227	6
C	0.219086	0.348417	0.138513	6
N	0.062686	1.704887	-0.004007	7
C	0.886636	2.725827	0.375563	6
N	2.064886	2.684777	0.886483	7
H	-0.996434	-4.009442	-0.367777	1
H	-2.107494	-2.728483	-1.115367	1
H	0.498846	-2.306922	0.467673	1
H	-1.521244	-0.320563	-0.837427	1
H	1.122526	0.067757	0.673713	1
H	-0.806734	1.980547	-0.450737	1
H	0.427947	3.712917	0.191343	1
H	2.366326	1.714027	0.983313	1
Es	0.120877	1.709230	0.025961	99
Es	-0.204756	-0.104111	-0.076640	99
Es	1.561251	2.537043	0.665482	99
Es	-0.934537	-2.467670	-0.117493	99
Es	-1.227007	-0.405179	-0.658916	99
Es	-0.426309	1.869616	-0.241744	99
Es	0.219156	0.348692	0.138537	99
Es	0.433972	2.126468	0.173547	99
Es	-1.210408	-2.960784	-0.550615	99
Es	0.202155	-2.200967	0.277296	99
Es	0.886450	2.725691	0.375487	99
Es	2.284662	2.980573	0.993211	99
Es	2.156270	2.231259	0.908632	99
Es	1.672647	2.676281	0.713671	99
Es	-0.237603	-0.236885	-0.105550	99
Es	0.563348	3.374853	0.247842	99
Es	-1.074261	-3.674773	-0.431740	99
Es	-0.386970	-2.011244	-0.091446	99
Es	-1.819704	-2.802117	-0.930699	99
Es	-0.674424	-2.489164	-0.533054	99
Es	0.062331	1.704938	-0.002589	99
Es	-0.488759	-1.298145	-0.187966	99
Es	0.134143	1.119390	0.034191	99
Es	0.815262	0.167734	0.488941	99
Es	-0.619687	-0.601707	-0.299245	99
Es	2.064550	2.684411	0.886329	99
41
Properties=species:S:1:pos:R:3:Z:I:1 energy=-302.953768930365 field_type=dipole dipole="0.000000 0.000000 0.000000" charge=0
C	-1.210344	-2.960712	-0.550577	6
C	-0.387034	-2.011363	-0.091477	6
C	-0.619654	-0.601673	-0.299227	6
C	0.219086	0.348417	0.138513	6
N	0.062686	1.704887	-0.004007	7
C	0.886636	2.725827	0.375563	6
N	2.064886	2.684777	0.886483	7
H	-0.996434	-4.009442	-0.367777	1
H	-2.107494	-2.728483	-1.115367	1
H	0.498846	-2.306922	0.467673	1
H	-1.521244	-0.320563	-0.837427	1
H	1.122526	0.067757	0.673713	1
H	-0.806734	1.980547	-0.450737	1
H	0.427947	3.712917	0.191343	1
H	2.366326	1.714027	0.983313	1
Es	0.886449	2.725691	0.375483	99
Es	-0.233206	-0.237207	-0.113221	99
Es	-0.209108	-0.103834	-0.068969	99
Es	2.153823	2.234608	0.907942	99
Es	0.563224	3.375004	0.248130	99
Es	2.064571	2.684396	0.886338	99
Es	-0.386967	-2.011247	-0.091445	99
Es	0.434111	2.126416	0.173391	99
Es	-1.074260	-3.674721	-0.431712	99
Es	1.562490	2.533763	0.668076	99
Es	0.815588	0.167647	0.489058	99
Es	0.120349	1.709325	0.027612	99
Es	0.133014	1.119714	0.033689	99
Es	1.673445	2.676459	0.711534	99
Es	-0.678338	-2.488908	-0.526474	99
Es	-1.819799	-2.802128	-0.930630	99
Es	-0.425608	1.869420	-0.241224	99
Es	-0.488089	-1.298121	-0.187651	99
Es	-0.930607	-2.467921	-0.124123	99
Es	0.201687	-2.200959	0.276956	99
Es	-0.619688	-0.601707	-0.299243	99
Es	-1.210411	-2.960784	-0.550607	99
Es	0.219154	0.348693	0.138537	99
Es	2.285200	2.980162	0.993155	99
Es	0.062854	1.704854	-0.004270	99
Es	-1.227229	-0.405185	-0.658898	99
41
Properties=species:S:1:pos:R:3:Z:I:1 energy=-302.953768930365 field_type=dipole dipole="0.000000 0.000000 0.000000" charge=0
C	-1.210344	-2.960712	-0.550577	6
C	-0.387034	-2.011363	-0.091477	6
C	-0.619654	-0.601673	-0.299227	6
C	0.219086	0.348417	0.138513	6
N	0.062686	1.704887	-0.004007	7
C	0.886636	2.725827	0.375563	6
N	2.064886	2.684777	0.886483	7
H	-0.996434	-4.009442	-0.367777	1
H	-2.107494	-2.728483	-1.115367	1
H	0.498846	-2.306922	0.467673	1
H	-1.521244	-0.320563	-0.837427	1
H	1.122526	0.067757	0.673713	1
H	-0.806734	1.980547	-0.450737	1
H	0.427947	3.712917	0.191343	1
H	2.366326	1.714027	0.983313	1
Es	-1.074115	-3.674550	-0.431607	99
Es	0.200836	-2.200867	0.276430	99
Es	0.563320	3.374554	0.248407	99
Es	0.219155	0.348693	0.138536	99
Es	-1.820009	-2.802260	-0.930693	99
Es	0.886447	2.725693	0.375485	99
Es	0.433938	2.126467	0.173618	99
Es	-0.426581	1.869597	-0.240821	99
Es	-0.681485	-2.488764	-0.521060	99
Es	-1.227691	-0.405386	-0.659113	99
Es	-0.207461	-0.103940	-0.071849	99
Es	2.152623	2.236472	0.907436	99
Es	0.134297	1.119297	0.034459	99
Es	-0.234826	-0.237101	-0.110386	99
Es	0.815014	0.167831	0.488687	99
Es	-0.486816	-1.298002	-0.186860	99
Es	-0.927376	-2.468127	-0.129563	99
Es	-0.386965	-2.011249	-0.091445	99
Es	0.062998	1.704846	-0.004477	99
Es	2.285169	2.980228	0.993057	99
Es	1.565040	2.532499	0.665083	99
Es	-0.619691	-0.601707	-0.299237	99
Es	1.672069	2.676224	0.714837	99
Es	0.120604	1.709367	0.026786	99
Es	2.064565	2.684402	0.886334	99
Es	-1.210409	-2.960785	-0.550612	99
41
Properties=species:S:1:pos:R:3:Z:I:1 energy=-302.953768930365 field_type=dipole dipole="0.000000 0.000000 0.000000" charge=0
C	-1.210344	-2.960712	-0.550577	6
C	-0.387034	-2.011363	-0.091477	6
C	-0.619654	-0.601673	-0.299227	6
C	0.219086	0.348417	0.138513	6
N	0.062686	1.704887	-0.004007	7
C	0.886636	2.725827	0.375563	6
N	2.064886	2.684777	0.886483	7
H	-0.996434	-4.009442	-0.367777	1
H	-2.107494	-2.728483	-1.115367	1
H	0.498846	-2.306922	0.467673	1
H	-1.521244	-0.320563	-0.837427	1
H	1.122526	0.067757	0.673713	1
H	-0.806734	1.980547	-0.450737	1
H	0.427947	3.712917	0.191343	1
H	2.366326	1.714027	0.983313	1
Es	0.062975	1.704848	-0.004454	99
Es	-0.487072	-1.298051	-0.187008	99
Es	1.568086	2.529850	0.662972	99
Es	2.064565	2.684404	0.886335	99
Es	0.563239	3.374522	0.248819	99
Es	0.219152	0.348695	0.138538	99
Es	-0.684774	-2.488489	-0.515675	99
Es	0.814734	0.167950	0.488422	99
Es	0.201026	-2.200874	0.276398	99
Es	0.134780	1.119258	0.034060	99
Es	0.886447	2.725692	0.375488	99
Es	-0.619688	-0.601708	-0.299240	99
Es	-0.386967	-2.011247	-0.091445	99
Es	-1.227632	-0.405341	-0.658882	99
Es	-0.236258	-0.236987	-0.107933	99
Es	0.120247	1.709289	0.027603	99
Es	1.670888	2.676406	0.716572	99
Es	-1.073678	-3.674192	-0.431462	99
Es	-0.426509	1.869529	-0.240640	99
Es	-1.820414	-2.802646	-0.930827	99
Es	-1.210409	-2.960785	-0.550610	99
Es	0.434092	2.126509	0.173218	99
Es	2.150453	2.239213	0.907571	99
Es	-0.924134	-2.468371	-0.134919	99
Es	2.285519	2.980015	0.992871	99
Es	-0.206017	-0.104059	-0.074339	99
41
Properties=species:S:1:pos:R:3:Z:I:1 energy=-302.953768930365 field_type=dipole dipole="0.000000 0.000000 0.000000" charge=0
C	-1.210344	-2.960712	-0.550577	6
C	-0.387034	-2.011363	-0.091477	6
C	-0.619654	-0.601673	-0.299227	6
C	0.219086	0.348417	0.138513	6
N	0.062686	1.704887	-0.004007	7
C	0.886636	2.725827	0.375563	6
N	2.064886	2.684777	0.886483	7
H	-0.996434	-4.009442	-0.367777	1
H	-2.107494	-2.728483	-1.115367	1
H	0.498846	-2.306922	0.467673	1
H	-1.521244	-0.320563	-0.837427	1
H	1.122526	0.067757	0.673713	1
H	-0.806734	1.980547	-0.450737	1
H	0.427947	3.712917	0.191343	1
H	2.366326	1.714027	0.983313	1
Es	1.567889	2.529514	0.663980	99
Es	1.671363	2.676375	0.715671	99
Es	-1.073688	-3.674158	-0.431416	99
Es	-1.227844	-0.405338	-0.658910	99
Es	-0.688372	-2.488226	-0.509706	99
Es	2.150160	2.239712	0.907202	99
Es	-0.208819	-0.103878	-0.069415	99
Es	2.285563	2.979930	0.993002	99
Es	-0.486493	-1.298059	-0.186605	99
Es	0.120853	1.709130	0.024009	99
Es	-1.820490	-2.802650	-0.930767	99
Es	0.200602	-2.200859	0.276124	99
Es	2.064585	2.684383	0.886343	99
Es	0.434147	2.126356	0.173448	99
Es	0.886443	2.725699	0.375479	99
Es	0.563267	3.374426	0.248960	99
Es	0.814624	0.167945	0.488336	99
Es	-0.920551	-2.468585	-0.140982	99
Es	0.133348	1.119722	0.033425	99
Es	-0.386971	-2.011243	-0.091447	99
Es	-0.619688	-0.601708	-0.299239	99
Es	-1.210409	-2.960784	-0.550611	99
Es	0.219155	0.348693	0.138537	99
Es	-0.425121	1.869192	-0.239891	99
Es	-0.233382	-0.237190	-0.112951	99
Es	0.062480	1.705033	-0.001147	99
41
Properties=species:S:1:pos:R:3:Z:I:1 energy=-302.953768930365 field_type=dipole dipole="0.000000 0.000000 0.000000" charge=0
C	-1.210344	-2.960712	-0.550577	6
C	-0.387034	-2.011363	-0.091477	6
C	-0.619654	-0.601673	-0.299227	6
C	0.219086	0.348417	0.138513	6
N	0.062686	1.704887	-0.004007	7
C	0.886636	2.725827	0.375563	6
N	2.064886	2.684777	0.886483	7
H	-0.996434	-4.009442	-0.367777	1
H	-2.107494	-2.728483	-1.115367	1
H	0.498846	-2.306922	0.467673	1
H	-1.521244	-0.320563	-0.837427	1
H	1.122526	0.067757	0.673713	1
H	-0.806734	1.980547	-0.450737	1
H	0.427947	3.712917	0.191343	1
H	2.366326	1.714027	0.983313	1
Es	-0.918189	-2.468748	-0.144915	99
Es	0.132455	1.120178	0.032082	99
Es	-0.690714	-2.488123	-0.505667	99
Es	0.814739	0.167923	0.488325	99
Es	0.563427	3.374097	0.248691	99
Es	-1.073627	-3.674041	-0.431380	99
Es	2.150199	2.239811	0.906807	99
Es	-1.210407	-2.960786	-0.550612	99
Es	2.064618	2.684343	0.886356	99
Es	0.434214	2.126338	0.173359	99
Es	-0.232933	-0.237219	-0.113729	99
Es	-0.386964	-2.011245	-0.091442	99
Es	0.120473	1.709239	0.027114	99
Es	1.567007	2.529844	0.665662	99
Es	-0.485720	-1.298013	-0.186190	99
Es	0.200095	-2.200808	0.275724	99
Es	1.671951	2.676298	0.714821	99
Es	-0.209318	-0.103825	-0.068589	99
Es	0.062581	1.704874	-0.003737	99
Es	2.285604	2.979968	0.992819	99
Es	0.219153	0.348696	0.138536	99
Es	-0.424070	1.868791	-0.239013	99
Es	0.886446	2.725693	0.375486	99
Es	-0.619689	-0.601706	-0.299245	99
Es	-1.228070	-0.405443	-0.659014	99
Es	-1.820612	-2.802706	-0.930818	99
41
Properties=species:S:1:pos:R:3:Z:I:1 energy=-302.953768930365 field_type=dipole dipole="0.000000 0.000000 0.000000" charge=0
C	-1.210344	-2.960712	-0.550577	6
C	-0.387034	-2.011363	-0.091477	6
C	-0.619654	-0.601673	-0.299227	6
C	0.219086	0.348417	0.138513	6
N	0.062686	1.704887	-0.004007	7
C	0.886636	2.725827	0.375563	6
N	2.064886	2.684777	0.886483	7
H	-0.996434	-4.009442	-0.367777	1
H	-2.107494	-2.728483	-1.115367	1
H	0.498846	-2.306922	0.467673	1
H	-1.521244	-0.320563	-0.837427	1
H	1.122526	0.067757	0.673713	1
H	-0.806734	1.980547	-0.450737	1
H	0.427947	3.712917	0.191343	1
H	2.366326	1.714027	0.983313	1
Es	-1.073256	-3.673694	-0.431241	99
Es	1.566369	2.529509	0.667694	99
Es	-0.386968	-2.011246	-0.091445	99
Es	0.813968	0.168146	0.487908	99
Es	0.886443	2.725697	0.375484	99
Es	-0.485363	-1.297947	-0.186008	99
Es	-0.423580	1.868629	-0.239203	99
Es	-1.228276	-0.405545	-0.659108	99
Es	1.672904	2.676305	0.712838	99
Es	-0.233669	-0.237165	-0.112467	99
Es	2.285645	2.979884	0.992944	99
Es	0.219153	0.348694	0.138539	99
Es	2.064577	2.684391	0.886340	99
Es	-0.208644	-0.103828	-0.069852	99
Es	0.563370	3.373929	0.249104	99
Es	0.063047	1.704843	-0.004540	99
Es	-1.210410	-2.960783	-0.550611	99
Es	0.132869	1.120001	0.032577	99
Es	0.199937	-2.200771	0.275680	99
Es	0.434115	2.126412	0.173403	99
Es	2.149935	2.240349	0.906231	99
Es	-1.820958	-2.803086	-0.930928	99
Es	-0.619692	-0.601705	-0.299238	99
Es	-0.915266	-2.468944	-0.149804	99
Es	-0.693586	-2.487913	-0.500918	99
Es	0.119987	1.709273	0.028053	99
