47
Properties=species:S:1:pos:R:3:Z:I:1 energy=-305.32431723132777 field_type=dipole dipole="0.000000 0.000000 0.000000" charge=0
C	-1.623286	-0.937263	0.234812	6
C	-0.107376	-1.033593	0.044732	6
C	0.212684	-1.976803	-1.116348	6
C	0.519044	0.347417	-0.210518	6
N	0.400364	1.191177	0.963962	7
C	0.749294	2.507147	0.998942	6
N	0.930174	3.310617	0.016472	7
H	-1.875276	-0.323663	1.105662	1
H	-2.057606	-1.929843	0.394642	1
H	-2.106206	-0.494883	-0.643138	1
H	0.324524	-1.462213	0.958442	1
H	-0.191016	-1.596393	-2.060708	1
H	-0.214256	-2.969703	-0.940398	1
H	1.294924	-2.095503	-1.233278	1
H	0.029824	0.819227	-1.070398	1
H	1.582024	0.233287	-0.453158	1
H	0.504864	0.699877	1.847402	1
H	0.871674	2.882167	2.028642	1
H	0.755634	2.828947	-0.865768	1
Es	0.150819	1.369023	0.980645	99
Es	-0.868282	-0.978363	0.138779	99
Es	1.134358	2.910616	0.382430	99
Es	0.206257	-0.329262	-0.076691	99
Es	0.401059	1.191454	0.963983	99
Es	-0.080855	-2.650768	-0.992656	99
Es	1.017574	3.657770	0.035318	99
Es	0.824163	2.999931	-0.511502	99
Es	1.249383	0.267907	-0.379663	99
Es	0.930055	3.310112	0.016488	99
Es	-1.913546	-1.617688	0.342052	99
Es	-1.791416	-0.520976	0.827692	99
Es	-0.065038	-1.710699	-1.756961	99
Es	0.829857	2.748526	1.705379	99
Es	-1.623259	-0.937268	0.234808	99
Es	-0.107380	-1.033565	0.044697	99
Es	0.055207	-1.502635	-0.542443	99
Es	0.487040	0.894967	1.487797	99
Es	0.519010	0.347517	-0.210356	99
Es	0.662776	1.698761	0.960394	99
Es	0.182970	0.673082	-0.793545	99
Es	0.749239	2.506968	0.999013	99
Es	0.194483	-1.320067	0.677118	99
Es	0.212681	-1.976786	-1.116330	99
Es	-1.945187	-0.635314	-0.368340	99
Es	0.952372	-2.053984	-1.194329	99
Es	0.466627	0.844699	0.461469	99
Es	0.585074	3.051274	0.402348	99
47
Properties=species:S:1:pos:R:3:Z:I:1 energy=-305.32431723132777 field_type=dipole dipole="0.000000 0.000000 0.000000" charge=0
C	-1.623286	-0.937263	0.234812	6
C	-0.107376	-1.033593	0.044732	6
C	0.212684	-1.976803	-1.116348	6
C	0.519044	0.347417	-0.210518	6
N	0.400364	1.191177	0.963962	7
C	0.749294	2.507147	0.998942	6
N	0.930174	3.310617	0.016472	7
H	-1.875276	-0.323663	1.105662	1
H	-2.057606	-1.929843	0.394642	1
H	-2.106206	-0.494883	-0.643138	1
H	0.324524	-1.462213	0.958442	1
H	-0.191016	-1.596393	-2.060708	1
H	-0.214256	-2.969703	-0.940398	1
H	1.294924	-2.095503	-1.233278	1
H	0.029824	0.819227	-1.070398	1
H	1.582024	0.233287	-0.453158	1
H	0.504864	0.699877	1.847402	1
H	0.871674	2.882167	2.028642	1
H	0.755634	2.828947	-0.865768	1
Es	0.824230	3.000926	-0.510541	99
Es	-0.064763	-1.709145	-1.758466	99
Es	0.519009	0.347517	-0.210353	99
Es	0.749241	2.506967	0.999013	99
Es	-0.080613	-2.652179	-0.991517	99
Es	0.212681	-1.976785	-1.116330	99
Es	-1.789961	-0.521871	0.826605	99
Es	0.167747	1.358335	0.977295	99
Es	1.017164	3.659642	0.035914	99
Es	1.247966	0.268553	-0.378774	99
Es	0.479194	0.892924	1.492280	99
Es	-1.945505	-0.633805	-0.369309	99
Es	-0.107381	-1.033565	0.044697	99
Es	0.401204	1.191461	0.963983	99
Es	-1.913475	-1.618843	0.343299	99
Es	0.653342	1.710383	0.959914	99
Es	0.467550	0.845491	0.461078	99
Es	0.206833	-0.329672	-0.076845	99
Es	0.930043	3.310103	0.016492	99
Es	-0.868397	-0.978225	0.138557	99
Es	0.183067	0.674240	-0.794567	99
Es	0.829846	2.748320	1.705158	99
Es	0.584982	3.048923	0.402167	99
Es	0.055310	-1.502635	-0.542558	99
Es	1.134827	2.910078	0.380297	99
Es	-1.623259	-0.937269	0.234808	99
Es	0.950646	-2.053190	-1.193022	99
Es	0.194516	-1.321447	0.678321	99
47
Properties=species:S:1:pos:R:3:Z:I:1 energy=-305.32431723132777 field_type=dipole dipole="0.000000 0.000000 0.000000" charge=0
C	-1.623286	-0.937263	0.234812	6
C	-0.107376	-1.033593	0.044732	6
C	0.212684	-1.976803	-1.116348	6
C	0.519044	0.347417	-0.210518	6
N	0.400364	1.191177	0.963962	7
C	0.749294	2.507147	0.998942	6
N	0.930174	3.310617	0.016472	7
H	-1.875276	-0.323663	1.105662	1
H	-2.057606	-1.929843	0.394642	1
H	-2.106206	-0.494883	-0.643138	1
H	0.324524	-1.462213	0.958442	1
H	-0.191016	-1.596393	-2.060708	1
H	-0.214256	-2.969703	-0.940398	1
H	1.294924	-2.095503	-1.233278	1
H	0.029824	0.819227	-1.070398	1
H	1.582024	0.233287	-0.453158	1
H	0.504864	0.699877	1.847402	1
H	0.871674	2.882167	2.028642	1
H	0.755634	2.828947	-0.865768	1
Es	-1.945695	-0.632823	-0.370091	99
Es	0.176802	1.353758	0.974952	99
Es	-1.623260	-0.937269	0.234807	99
Es	0.400785	1.191178	0.963944	99
Es	-0.868464	-0.978432	0.138486	99
Es	0.749240	2.506966	0.999013	99
Es	0.206885	-0.329624	-0.077234	99
Es	0.584006	3.049291	0.401338	99
Es	0.930051	3.310136	0.016481	99
Es	0.473574	0.891831	1.494650	99
Es	1.018265	3.659455	0.036447	99
Es	0.055353	-1.502449	-0.542507	99
Es	1.134347	2.908873	0.380046	99
Es	-0.064499	-1.708270	-1.759446	99
Es	-1.913484	-1.619371	0.344426	99
Es	0.519009	0.347517	-0.210354	99
Es	0.648769	1.715395	0.959501	99
Es	-0.080385	-2.652924	-0.990661	99
Es	0.212681	-1.976785	-1.116331	99
Es	0.469369	0.846197	0.461575	99
Es	-1.788844	-0.522437	0.825676	99
Es	0.194594	-1.322343	0.679134	99
Es	0.829775	2.748191	1.705032	99
Es	-0.107380	-1.033565	0.044696	99
Es	0.183435	0.675092	-0.795428	99
Es	1.247141	0.268631	-0.377806	99
Es	0.949326	-2.052813	-1.192248	99
Es	0.824645	3.001828	-0.510506	99
47
Properties=species:S:1:pos:R:3:Z:I:1 energy=-305.32431723132777 field_type=dipole dipole="0.000000 0.000000 0.000000" charge=0
C	-1.623286	-0.937263	0.234812	6
C	-0.107376	-1.033593	0.044732	6
C	0.212684	-1.976803	-1.116348	6
C	0.519044	0.347417	-0.210518	6
N	0.400364	1.191177	0.963962	7
C	0.749294	2.507147	0.998942	6
N	0.930174	3.310617	0.016472	7
H	-1.875276	-0.323663	1.105662	1
H	-2.057606	-1.929843	0.394642	1
H	-2.106206	-0.494883	-0.643138	1
H	0.324524	-1.462213	0.958442	1
H	-0.191016	-1.596393	-2.060708	1
H	-0.214256	-2.969703	-0.940398	1
H	1.294924	-2.095503	-1.233278	1
H	0.029824	0.819227	-1.070398	1
H	1.582024	0.233287	-0.453158	1
H	0.504864	0.699877	1.847402	1
H	0.871674	2.882167	2.028642	1
H	0.755634	2.828947	-0.865768	1
Es	0.829490	2.748126	1.704982	99
Es	-0.107384	-1.033563	0.044696	99
Es	0.194564	-1.323004	0.679650	99
Es	-0.064412	-1.707576	-1.760148	99
Es	0.825319	3.002611	-0.510704	99
Es	0.212679	-1.976787	-1.116329	99
Es	1.018177	3.659124	0.036928	99
Es	-0.868385	-0.978291	0.138514	99
Es	0.749241	2.506964	0.999014	99
Es	0.055340	-1.502522	-0.542594	99
Es	0.519010	0.347516	-0.210357	99
Es	0.583167	3.048541	0.401366	99
Es	-1.913392	-1.619682	0.345073	99
Es	0.183530	0.675723	-0.795867	99
Es	1.246629	0.268734	-0.377293	99
Es	0.184146	1.349461	0.974262	99
Es	-0.080256	-2.653251	-0.989946	99
Es	-1.623259	-0.937269	0.234808	99
Es	0.644328	1.719802	0.959045	99
Es	1.134815	2.909004	0.379282	99
Es	0.930053	3.310128	0.016481	99
Es	0.469758	0.846437	0.461521	99
Es	0.207099	-0.329676	-0.077432	99
Es	0.948527	-2.052614	-1.191636	99
Es	-1.788272	-0.523052	0.824998	99
Es	0.470605	0.891264	1.495860	99
Es	0.400785	1.191183	0.963946	99
Es	-1.945862	-0.632101	-0.370526	99
47
Properties=species:S:1:pos:R:3:Z:I:1 energy=-305.32431723132777 field_type=dipole dipole="0.000000 0.000000 0.000000" charge=0
C	-1.623286	-0.937263	0.234812	6
C	-0.107376	-1.033593	0.044732	6
C	0.212684	-1.976803	-1.116348	6
C	0.519044	0.347417	-0.210518	6
N	0.400364	1.191177	0.963962	7
C	0.749294	2.507147	0.998942	6
N	0.930174	3.310617	0.016472	7
H	-1.875276	-0.323663	1.105662	1
H	-2.057606	-1.929843	0.394642	1
H	-2.106206	-0.494883	-0.643138	1
H	0.324524	-1.462213	0.958442	1
H	-0.191016	-1.596393	-2.060708	1
H	-0.214256	-2.969703	-0.940398	1
H	1.294924	-2.095503	-1.233278	1
H	0.029824	0.819227	-1.070398	1
H	1.582024	0.233287	-0.453158	1
H	0.504864	0.699877	1.847402	1
H	0.871674	2.882167	2.028642	1
H	0.755634	2.828947	-0.865768	1
Es	0.055303	-1.502484	-0.542628	99
Es	-1.787767	-0.523484	0.824497	99
Es	1.134643	2.908631	0.379129	99
Es	-1.623259	-0.937268	0.234808	99
Es	0.188964	1.346255	0.973155	99
Es	1.018913	3.658921	0.036521	99
Es	0.471248	0.846934	0.461620	99
Es	0.947842	-2.052415	-1.191083	99
Es	1.246194	0.268861	-0.376790	99
Es	0.212682	-1.976784	-1.116329	99
Es	0.467531	0.890930	1.496898	99
Es	-1.913363	-1.619926	0.345561	99
Es	0.930039	3.310095	0.016490	99
Es	0.582043	3.048842	0.401101	99
Es	0.194506	-1.323442	0.680070	99
Es	-0.868505	-0.978261	0.138450	99
Es	0.825949	3.002705	-0.510279	99
Es	0.749234	2.506968	0.999014	99
Es	0.829530	2.748091	1.704962	99
Es	-0.080125	-2.653522	-0.989391	99
Es	0.519009	0.347518	-0.210353	99
Es	0.401089	1.191313	0.963966	99
Es	0.640785	1.722701	0.958899	99
Es	-1.945896	-0.631509	-0.370855	99
Es	0.183705	0.676097	-0.796309	99
Es	0.207310	-0.329805	-0.077500	99
Es	-0.107380	-1.033567	0.044697	99
Es	-0.064183	-1.707161	-1.760731	99
47
Properties=species:S:1:pos:R:3:Z:I:1 energy=-305.32431723132777 field_type=dipole dipole="0.000000 0.000000 0.000000" charge=0
C	-1.623286	-0.937263	0.234812	6
C	-0.107376	-1.033593	0.044732	6
C	0.212684	-1.976803	-1.116348	6
C	0.519044	0.347417	-0.210518	6
N	0.400364	1.191177	0.963962	7
C	0.749294	2.507147	0.998942	6
N	0.930174	3.310617	0.016472	7
H	-1.875276	-0.323663	1.105662	1
H	-2.057606	-1.929843	0.394642	1
H	-2.106206	-0.494883	-0.643138	1
H	0.324524	-1.462213	0.958442	1
H	-0.191016	-1.596393	-2.060708	1
H	-0.214256	-2.969703	-0.940398	1
H	1.294924	-2.095503	-1.233278	1
H	0.029824	0.819227	-1.070398	1
H	1.582024	0.233287	-0.453158	1
H	0.504864	0.699877	1.847402	1
H	0.871674	2.882167	2.028642	1
H	0.755634	2.828947	-0.865768	1
Es	0.183879	0.676484	-0.796635	99
Es	-0.080039	-2.653776	-0.988970	99
Es	0.055329	-1.502530	-0.542611	99
Es	-0.064022	-1.706725	-1.761100	99
Es	0.465966	0.890746	1.497485	99
Es	0.826579	3.003712	-0.511216	99
Es	1.245828	0.268948	-0.376357	99
Es	0.519010	0.347517	-0.210354	99
Es	0.472017	0.847144	0.461844	99
Es	1.135682	2.909582	0.378193	99
Es	-1.945843	-0.631206	-0.371180	99
Es	-1.787407	-0.523692	0.823873	99
Es	-1.913427	-1.620084	0.346177	99
Es	0.947251	-2.052248	-1.190717	99
Es	0.192418	1.343879	0.972650	99
Es	0.212681	-1.976785	-1.116330	99
Es	0.930046	3.310112	0.016507	99
Es	-0.107381	-1.033567	0.044697	99
Es	-0.868479	-0.978285	0.138480	99
Es	0.749238	2.506966	0.999014	99
Es	0.829189	2.748066	1.704912	99
Es	0.638145	1.724840	0.958543	99
Es	1.018075	3.657916	0.037406	99
Es	-1.623258	-0.937268	0.234808	99
Es	0.207388	-0.329879	-0.077762	99
Es	0.194498	-1.323757	0.680435	99
Es	0.581516	3.047746	0.401832	99
Es	0.401163	1.191376	0.963965	99
47
Properties=species:S:1:pos:R:3:Z:I:1 energy=-305.32431723132777 field_type=dipole dipole="0.000000 0.000000 0.000000" charge=0
C	-1.623286	-0.937263	0.234812	6
C	-0.107376	-1.033593	0.044732	6
C	0.212684	-1.976803	-1.116348	6
C	0.519044	0.347417	-0.210518	6
N	0.400364	1.191177	0.963962	7
C	0.749294	2.507147	0.998942	6
N	0.930174	3.310617	0.016472	7
H	-1.875276	-0.323663	1.105662	1
H	-2.057606	-1.929843	0.394642	1
H	-2.106206	-0.494883	-0.643138	1
H	0.324524	-1.462213	0.958442	1
H	-0.191016	-1.596393	-2.060708	1
H	-0.214256	-2.969703	-0.940398	1
H	1.294924	-2.095503	-1.233278	1
H	0.029824	0.819227	-1.070398	1
H	1.582024	0.233287	-0.453158	1
H	0.504864	0.699877	1.847402	1
H	0.871674	2.882167	2.028642	1
H	0.755634	2.828947	-0.865768	1
Es	0.401122	1.191339	0.963961	99
Es	0.473671	0.847723	0.462327	99
Es	1.135289	2.909139	0.378066	99
Es	0.193668	1.343527	0.971567	99
Es	-1.913496	-1.620183	0.346667	99
Es	1.018767	3.656962	0.038191	99
Es	-1.945764	-0.630973	-0.371453	99
Es	0.829201	2.748081	1.704832	99
Es	0.826900	3.004573	-0.511947	99
Es	0.207477	-0.329860	-0.077751	99
Es	-0.868390	-0.978422	0.138463	99
Es	-0.080031	-2.653900	-0.988548	99
Es	0.055371	-1.502573	-0.542737	99
Es	0.519009	0.347517	-0.210354	99
Es	-0.107383	-1.033566	0.044696	99
Es	0.749236	2.506971	0.999010	99
Es	0.580864	3.048176	0.401697	99
Es	0.637962	1.724979	0.958709	99
Es	0.183994	0.676710	-0.796894	99
Es	0.194366	-1.324031	0.680707	99
Es	0.463452	0.890371	1.497915	99
Es	1.245421	0.269026	-0.376105	99
Es	0.930045	3.310107	0.016492	99
Es	-0.063849	-1.706419	-1.761444	99
Es	-1.623258	-0.937268	0.234808	99
Es	0.212681	-1.976785	-1.116330	99
Es	-1.787035	-0.523785	0.823458	99
Es	0.946752	-2.052203	-1.190413	99
47
Properties=species:S:1:pos:R:3:Z:I:1 energy=-305.32431723132777 field_type=dipole dipole="0.000000 0.000000 0.000000" charge=0
C	-1.623286	-0.937263	0.234812	6
C	-0.107376	-1.033593	0.044732	6
C	0.212684	-1.976803	-1.116348	6
C	0.519044	0.347417	-0.210518	6
N	0.400364	1.191177	0.963962	7
C	0.749294	2.507147	0.998942	6
N	0.930174	3.310617	0.016472	7
H	-1.875276	-0.323663	1.105662	1
H	-2.057606	-1.929843	0.394642	1
H	-2.106206	-0.494883	-0.643138	1
H	0.324524	-1.462213	0.958442	1
H	-0.191016	-1.596393	-2.060708	1
H	-0.214256	-2.969703	-0.940398	1
H	1.294924	-2.095503	-1.233278	1
H	0.029824	0.819227	-1.070398	1
H	1.582024	0.233287	-0.453158	1
H	0.504864	0.699877	1.847402	1
H	0.871674	2.882167	2.028642	1
H	0.755634	2.828947	-0.865768	1
Es	0.829099	2.748037	1.704917	99
Es	0.194420	-1.324232	0.680874	99
Es	0.474901	0.847799	0.462477	99
Es	-1.945886	-0.630852	-0.371634	99
Es	-1.623258	-0.937268	0.234808	99
Es	1.135050	2.908479	0.378535	99
Es	0.946498	-2.052060	-1.190007	99
Es	0.827475	3.004966	-0.512069	99
Es	0.930042	3.310089	0.016490	99
Es	1.245374	0.269012	-0.375946	99
Es	-0.063738	-1.706099	-1.761728	99
Es	0.207550	-0.329947	-0.077873	99
Es	-0.107380	-1.033567	0.044697	99
Es	0.579882	3.049000	0.401028	99
Es	0.199330	1.339216	0.971171	99
Es	0.212681	-1.976785	-1.116329	99
Es	1.019505	3.656226	0.038255	99
Es	0.184007	0.676939	-0.796985	99
Es	-1.786972	-0.524032	0.823091	99
Es	0.461942	0.890542	1.498479	99
Es	0.401009	1.191222	0.963934	99
Es	0.055245	-1.502722	-0.542819	99
Es	0.632770	1.729172	0.958305	99
Es	0.519010	0.347518	-0.210352	99
Es	-0.868333	-0.978277	0.138530	99
Es	-0.079976	-2.653971	-0.988259	99
Es	0.749240	2.506964	0.999014	99
Es	-1.913445	-1.620136	0.346987	99
47
Properties=species:S:1:pos:R:3:Z:I:1 energy=-305.32431723132777 field_type=dipole dipole="0.000000 0.000000 0.000000" charge=0
C	-1.623286	-0.937263	0.234812	6
C	-0.107376	-1.033593	0.044732	6
C	0.212684	-1.976803	-1.116348	6
C	0.519044	0.347417	-0.210518	6
N	0.400364	1.191177	0.963962	7
C	0.749294	2.507147	0.998942	6
N	0.930174	3.310617	0.016472	7
H	-1.875276	-0.323663	1.105662	1
H	-2.057606	-1.929843	0.394642	1
H	-2.106206	-0.494883	-0.643138	1
H	0.324524	-1.462213	0.958442	1
H	-0.191016	-1.596393	-2.060708	1
H	-0.214256	-2.969703	-0.940398	1
H	1.294924	-2.095503	-1.233278	1
H	0.029824	0.819227	-1.070398	1
H	1.582024	0.233287	-0.453158	1
H	0.504864	0.699877	1.847402	1
H	0.871674	2.882167	2.028642	1
H	0.755634	2.828947	-0.865768	1
Es	0.749233	2.506965	0.999013	99
Es	0.207577	-0.329886	-0.077829	99
Es	0.828990	2.748010	1.704852	99
Es	0.401320	1.191529	0.963989	99
Es	-1.945674	-0.630600	-0.371841	99
Es	0.198244	1.340298	0.970666	99
Es	0.460737	0.890421	1.498707	99
Es	1.245107	0.269005	-0.375665	99
Es	-0.868395	-0.978395	0.138387	99
Es	-0.079928	-2.654114	-0.987945	99
Es	-1.786555	-0.524041	0.822765	99
Es	0.827803	3.005061	-0.512304	99
Es	0.945870	-2.052055	-1.189783	99
Es	-1.623258	-0.937268	0.234809	99
Es	1.135152	2.908865	0.378233	99
Es	0.184155	0.677253	-0.797174	99
Es	-0.107380	-1.033566	0.044697	99
Es	0.930047	3.310120	0.016483	99
Es	0.579622	3.048737	0.401279	99
Es	0.475438	0.847899	0.462507	99
Es	0.519011	0.347516	-0.210354	99
Es	0.055327	-1.502532	-0.542848	99
Es	0.212681	-1.976785	-1.116330	99
Es	0.634349	1.727639	0.958407	99
Es	1.019401	3.655936	0.038416	99
Es	-1.913587	-1.620280	0.347397	99
Es	0.194172	-1.324535	0.681124	99
Es	-0.063419	-1.705961	-1.762067	99
47
Properties=species:S:1:pos:R:3:Z:I:1 energy=-305.32431723132777 field_type=dipole dipole="0.000000 0.000000 0.000000" charge=0
C	-1.623286	-0.937263	0.234812	6
C	-0.107376	-1.033593	0.044732	6
C	0.212684	-1.976803	-1.116348	6
C	0.519044	0.347417	-0.210518	6
N	0.400364	1.191177	0.963962	7
C	0.749294	2.507147	0.998942	6
N	0.930174	3.310617	0.016472	7
H	-1.875276	-0.323663	1.105662	1
H	-2.057606	-1.929843	0.394642	1
H	-2.106206	-0.494883	-0.643138	1
H	0.324524	-1.462213	0.958442	1
H	-0.191016	-1.596393	-2.060708	1
H	-0.214256	-2.969703	-0.940398	1
H	1.294924	-2.095503	-1.233278	1
H	0.029824	0.819227	-1.070398	1
H	1.582024	0.233287	-0.453158	1
H	0.504864	0.699877	1.847402	1
H	0.871674	2.882167	2.028642	1
H	0.755634	2.828947	-0.865768	1
Es	0.945798	-2.052086	-1.189654	99
Es	-0.868373	-0.978425	0.138390	99
Es	0.749236	2.506965	0.999014	99
Es	0.631213	1.730243	0.958244	99
Es	-0.107380	-1.033566	0.044698	99
Es	1.019320	3.654893	0.039684	99
Es	-0.080095	-2.654065	-0.987548	99
Es	0.194174	-1.324544	0.681293	99
Es	0.828070	3.006562	-0.513314	99
Es	0.477080	0.848261	0.462979	99
Es	-1.623258	-0.937269	0.234808	99
Es	-0.063459	-1.705712	-1.762151	99
Es	0.459592	0.890420	1.498963	99
Es	0.212686	-1.976783	-1.116328	99
Es	-1.945729	-0.630427	-0.371941	99
Es	1.135322	2.909089	0.377253	99
Es	0.579386	3.047902	0.401787	99
Es	0.930045	3.310105	0.016528	99
Es	0.184213	0.677354	-0.797338	99
Es	1.244916	0.269030	-0.375502	99
Es	-1.913583	-1.620277	0.347629	99
Es	-1.786424	-0.524251	0.822494	99
Es	0.207671	-0.329932	-0.078041	99
Es	0.055490	-1.502721	-0.542946	99
Es	0.828815	2.748035	1.704957	99
Es	0.400958	1.191226	0.963949	99
Es	0.201348	1.337689	0.970036	99
Es	0.519010	0.347518	-0.210352	99
47
Properties=species:S:1:pos:R:3:Z:I:1 energy=-305.32431723132777 field_type=dipole dipole="0.000000 0.000000 0.000000" charge=0
C	-1.623286	-0.937263	0.234812	6
C	-0.107376	-1.033593	0.044732	6
C	0.212684	-1.976803	-1.116348	6
C	0.519044	0.347417	-0.210518	6
N	0.400364	1.191177	0.963962	7
C	0.749294	2.507147	0.998942	6
N	0.930174	3.310617	0.016472	7
H	-1.875276	-0.323663	1.105662	1
H	-2.057606	-1.929843	0.394642	1
H	-2.106206	-0.494883	-0.643138	1
H	0.324524	-1.462213	0.958442	1
H	-0.191016	-1.596393	-2.060708	1
H	-0.214256	-2.969703	-0.940398	1
H	1.294924	-2.095503	-1.233278	1
H	0.029824	0.819227	-1.070398	1
H	1.582024	0.233287	-0.453158	1
H	0.504864	0.699877	1.847402	1
H	0.871674	2.882167	2.028642	1
H	0.755634	2.828947	-0.865768	1
Es	-1.786809	-0.525147	0.821476	99
Es	-1.947117	-0.630515	-0.371146	99
Es	0.207776	-0.329860	-0.077901	99
Es	-1.914271	-1.619136	0.348010	99
Es	-1.623260	-0.937265	0.234813	99
Es	0.827835	3.008714	-0.513711	99
Es	0.212681	-1.976787	-1.116331	99
Es	0.576951	3.050736	0.401462	99
Es	0.182942	0.677086	-0.796400	99
Es	1.247028	0.268847	-0.376169	99
Es	0.519010	0.347516	-0.210354	99
Es	0.326324	1.259027	0.968490	99
Es	0.474481	0.847636	0.460193	99
Es	0.828599	2.747649	1.705025	99
Es	1.138389	2.907568	0.378357	99
Es	-0.868291	-0.978518	0.138471	99
Es	0.930038	3.310080	0.016500	99
Es	0.195518	-1.324589	0.680359	99
Es	0.749238	2.506966	0.999014	99
Es	-0.107380	-1.033566	0.044697	99
Es	0.055305	-1.502657	-0.542859	99
Es	0.452819	0.890902	1.500232	99
Es	-0.065183	-1.705916	-1.761026	99
Es	0.317361	1.250180	0.967494	99
Es	0.948984	-2.052416	-1.190007	99
Es	1.018782	3.651609	0.039395	99
Es	0.599254	1.749760	0.957006	99
Es	-0.080961	-2.652672	-0.987495	99
47
Properties=species:S:1:pos:R:3:Z:I:1 energy=-305.32431723132777 field_type=dipole dipole="0.000000 0.000000 0.000000" charge=0
C	-1.623286	-0.937263	0.234812	6
C	-0.107376	-1.033593	0.044732	6
C	0.212684	-1.976803	-1.116348	6
C	0.519044	0.347417	-0.210518	6
N	0.400364	1.191177	0.963962	7
C	0.749294	2.507147	0.998942	6
N	0.930174	3.310617	0.016472	7
H	-1.875276	-0.323663	1.105662	1
H	-2.057606	-1.929843	0.394642	1
H	-2.106206	-0.494883	-0.643138	1
H	0.324524	-1.462213	0.958442	1
H	-0.191016	-1.596393	-2.060708	1
H	-0.214256	-2.969703	-0.940398	1
H	1.294924	-2.095503	-1.233278	1
H	0.029824	0.819227	-1.070398	1
H	1.582024	0.233287	-0.453158	1
H	0.504864	0.699877	1.847402	1
H	0.871674	2.882167	2.028642	1
H	0.755634	2.828947	-0.865768	1
Es	-0.868431	-0.978635	0.138376	99
Es	0.828746	2.748040	1.704786	99
Es	0.193980	-1.324736	0.681624	99
Es	0.477975	0.848643	0.463095	99
Es	-1.623259	-0.937268	0.234809	99
Es	0.457534	0.890314	1.499313	99
Es	1.019548	3.653786	0.040188	99
Es	0.207752	-0.329897	-0.078209	99
Es	-0.107381	-1.033566	0.044697	99
Es	1.244486	0.269014	-0.375069	99
Es	0.578501	3.048318	0.401587	99
Es	1.135446	2.908932	0.377360	99
Es	-0.062950	-1.705486	-1.762647	99
Es	0.400907	1.191203	0.963946	99
Es	0.202477	1.337757	0.969448	99
Es	-1.913720	-1.620329	0.348149	99
Es	-0.079916	-2.654262	-0.987291	99
Es	0.749238	2.506964	0.999014	99
Es	0.631326	1.729907	0.958335	99
Es	0.055336	-1.502694	-0.542710	99
Es	0.945018	-2.051951	-1.189156	99
Es	0.184520	0.677554	-0.797726	99
Es	-1.945482	-0.630149	-0.372272	99
Es	0.519010	0.347517	-0.210353	99
Es	-1.786037	-0.524364	0.822027	99
Es	0.212681	-1.976785	-1.116330	99
Es	0.828685	3.007258	-0.513866	99
Es	0.930053	3.310147	0.016467	99
