38
Properties=species:S:1:pos:R:3:Z:I:1 energy=-301.82379229515425 field_type=dipole dipole="0.000000 0.000000 0.000000" charge=0
C	-1.525852	0.121405	0.536402	6
C	0.002328	0.129695	0.449422	6
C	0.462298	-0.610985	-0.812278	6
C	1.899107	-0.915165	-0.764328	6
N	3.028068	-1.173295	-0.712018	7
C	0.484348	1.490865	0.449422	6
N	0.868558	2.575855	0.449422	7
H	-1.870852	0.642475	1.436942	1
H	-1.908522	-0.904095	0.577342	1
H	-1.980502	0.618635	-0.328478	1
H	0.387658	-0.389685	1.336712	1
H	0.236917	-0.027265	-1.713898	1
H	-0.083552	-1.558445	-0.904668	1
Es	0.328717	-0.222891	-1.402573	99
Es	0.868402	2.575412	0.449420	99
Es	2.442665	-1.351015	-0.677408	99
Es	0.261529	0.846144	0.444789	99
Es	0.500744	2.143340	0.683537	99
Es	-1.746953	0.471893	1.143231	99
Es	0.592839	2.110626	0.154424	99
Es	2.545981	-0.959601	-1.025403	99
Es	1.898730	-0.915077	-0.764347	99
Es	0.462463	-0.610989	-0.812215	99
Es	3.384559	-1.254882	-0.694848	99
Es	1.223866	-0.764107	-0.786835	99
Es	2.540655	-0.855954	-0.500983	99
Es	3.027622	-1.173195	-0.712037	99
Es	-1.769432	-0.577608	0.560599	99
Es	0.989252	2.923090	0.448579	99
Es	0.268540	-0.200050	1.033871	99
Es	0.002369	0.129814	0.449341	99
Es	0.977001	1.980723	0.504873	99
Es	0.261213	-0.226670	-0.186518	99
Es	-1.525766	0.121402	0.536392	99
Es	-0.736912	0.143939	0.480987	99
Es	0.115536	-1.241415	-0.862115	99
Es	0.484224	1.490516	0.449428	99
Es	-1.820926	0.455271	-0.053914	99
38
Properties=species:S:1:pos:R:3:Z:I:1 energy=-301.82379229515425 field_type=dipole dipole="0.000000 0.000000 0.000000" charge=0
C	-1.525852	0.121405	0.536402	6
C	0.002328	0.129695	0.449422	6
C	0.462298	-0.610985	-0.812278	6
C	1.899107	-0.915165	-0.764328	6
N	3.028068	-1.173295	-0.712018	7
C	0.484348	1.490865	0.449422	6
N	0.868558	2.575855	0.449422	7
H	-1.870852	0.642475	1.436942	1
H	-1.908522	-0.904095	0.577342	1
H	-1.980502	0.618635	-0.328478	1
H	0.387658	-0.389685	1.336712	1
H	0.236917	-0.027265	-1.713898	1
H	-0.083552	-1.558445	-0.904668	1
Es	-1.746852	0.471748	1.140543	99
Es	3.386150	-1.255701	-0.694703	99
Es	3.027635	-1.173201	-0.712037	99
Es	-1.525765	0.121402	0.536389	99
Es	-1.820459	0.455610	-0.051955	99
Es	1.898726	-0.915083	-0.764338	99
Es	0.949324	1.988967	0.593600	99
Es	2.578737	-0.748270	-0.728985	99
Es	0.686549	2.077097	0.152942	99
Es	0.462459	-0.610991	-0.812218	99
Es	-1.771421	-0.579005	0.560879	99
Es	0.328977	-0.222883	-1.400082	99
Es	0.991434	2.924360	0.446921	99
Es	0.484221	1.490515	0.449419	99
Es	0.868414	2.575463	0.449421	99
Es	1.224874	-0.764105	-0.786974	99
Es	0.433478	2.167468	0.598479	99
Es	0.262266	0.847033	0.444241	99
Es	0.268505	-0.199934	1.031652	99
Es	2.485624	-1.204367	-0.995787	99
Es	0.113176	-1.242461	-0.862408	99
Es	-0.737294	0.143634	0.481366	99
Es	0.002369	0.129814	0.449341	99
Es	0.261805	-0.226301	-0.186384	99
Es	2.463984	-1.212094	-0.479045	99
38
Properties=species:S:1:pos:R:3:Z:I:1 energy=-301.82379229515425 field_type=dipole dipole="0.000000 0.000000 0.000000" charge=0
C	-1.525852	0.121405	0.536402	6
C	0.002328	0.129695	0.449422	6
C	0.462298	-0.610985	-0.812278	6
C	1.899107	-0.915165	-0.764328	6
N	3.028068	-1.173295	-0.712018	7
C	0.484348	1.490865	0.449422	6
N	0.868558	2.575855	0.449422	7
H	-1.870852	0.642475	1.436942	1
H	-1.908522	-0.904095	0.577342	1
H	-1.980502	0.618635	-0.328478	1
H	0.387658	-0.389685	1.336712	1
H	0.236917	-0.027265	-1.713898	1
H	-0.083552	-1.558445	-0.904668	1
Es	2.461127	-1.295436	-0.925084	99
Es	0.990949	2.925434	0.450562	99
Es	0.262540	0.847492	0.445528	99
Es	0.111819	-1.242744	-0.862582	99
Es	0.484216	1.490510	0.449427	99
Es	0.462462	-0.610991	-0.812215	99
Es	0.614992	2.103943	0.722517	99
Es	-1.746426	0.471548	1.139190	99
Es	1.898730	-0.915077	-0.764342	99
Es	0.329191	-0.222910	-1.398682	99
Es	3.387141	-1.255717	-0.693389	99
Es	2.485700	-1.107106	-0.456414	99
Es	2.580825	-0.762062	-0.824327	99
Es	3.027623	-1.173194	-0.712041	99
Es	0.261925	-0.226063	-0.186521	99
Es	-1.820396	0.455851	-0.050857	99
Es	0.980421	1.975220	0.380784	99
Es	0.868403	2.575430	0.449420	99
Es	-1.772550	-0.579524	0.561166	99
Es	0.002369	0.129813	0.449345	99
Es	-0.737601	0.143369	0.481408	99
Es	0.268592	-0.199960	1.030388	99
Es	0.475171	2.153265	0.236752	99
Es	1.225460	-0.763778	-0.786151	99
Es	-1.525766	0.121401	0.536392	99
38
Properties=species:S:1:pos:R:3:Z:I:1 energy=-301.82379229515425 field_type=dipole dipole="0.000000 0.000000 0.000000" charge=0
C	-1.525852	0.121405	0.536402	6
C	0.002328	0.129695	0.449422	6
C	0.462298	-0.610985	-0.812278	6
C	1.899107	-0.915165	-0.764328	6
N	3.028068	-1.173295	-0.712018	7
C	0.484348	1.490865	0.449422	6
N	0.868558	2.575855	0.449422	7
H	-1.870852	0.642475	1.436942	1
H	-1.908522	-0.904095	0.577342	1
H	-1.980502	0.618635	-0.328478	1
H	0.387658	-0.389685	1.336712	1
H	0.236917	-0.027265	-1.713898	1
H	-0.083552	-1.558445	-0.904668	1
Es	0.329092	-0.222958	-1.397829	99
Es	-0.737702	0.143295	0.481416	99
Es	0.989532	2.926283	0.447889	99
Es	1.226208	-0.762932	-0.788309	99
Es	-1.525765	0.121402	0.536392	99
Es	0.268562	-0.199953	1.029949	99
Es	0.868403	2.575429	0.449421	99
Es	3.027621	-1.173194	-0.712036	99
Es	0.484222	1.490512	0.449429	99
Es	0.110995	-1.242835	-0.862451	99
Es	2.558441	-0.788156	-0.580312	99
Es	0.262581	0.847716	0.443802	99
Es	0.482067	2.149382	0.657905	99
Es	2.440611	-1.339318	-0.615473	99
Es	3.388452	-1.252960	-0.695659	99
Es	-1.746075	0.470746	1.138000	99
Es	0.262243	-0.225976	-0.186442	99
Es	-1.820580	0.456498	-0.050325	99
Es	1.898719	-0.915078	-0.764349	99
Es	0.983656	1.975210	0.511175	99
Es	0.462461	-0.610991	-0.812217	99
Es	0.606776	2.106907	0.175150	99
Es	-1.773221	-0.579780	0.561326	99
Es	0.002369	0.129814	0.449341	99
Es	2.527246	-1.040349	-1.005518	99
38
Properties=species:S:1:pos:R:3:Z:I:1 energy=-301.82379229515425 field_type=dipole dipole="0.000000 0.000000 0.000000" charge=0
C	-1.525852	0.121405	0.536402	6
C	0.002328	0.129695	0.449422	6
C	0.462298	-0.610985	-0.812278	6
C	1.899107	-0.915165	-0.764328	6
N	3.028068	-1.173295	-0.712018	7
C	0.484348	1.490865	0.449422	6
N	0.868558	2.575855	0.449422	7
H	-1.870852	0.642475	1.436942	1
H	-1.908522	-0.904095	0.577342	1
H	-1.980502	0.618635	-0.328478	1
H	0.387658	-0.389685	1.336712	1
H	0.236917	-0.027265	-1.713898	1
H	-0.083552	-1.558445	-0.904668	1
Es	2.580174	-0.763406	-0.833566	99
Es	-1.745929	0.470514	1.137617	99
Es	0.868408	2.575439	0.449420	99
Es	0.972181	1.979207	0.551622	99
Es	1.226150	-0.763040	-0.786490	99
Es	0.263157	0.847699	0.443569	99
Es	0.110696	-1.243011	-0.862318	99
Es	0.462462	-0.610987	-0.812214	99
Es	-1.525766	0.121401	0.536392	99
Es	0.329052	-0.222873	-1.397578	99
Es	-1.820593	0.456689	-0.049976	99
Es	-1.773480	-0.579968	0.561307	99
Es	2.491313	-1.087107	-0.471757	99
Es	2.455610	-1.314825	-0.902489	99
Es	0.656427	2.089549	0.178395	99
Es	3.027633	-1.173198	-0.712036	99
Es	0.268565	-0.199940	1.029620	99
Es	0.442077	2.163320	0.616262	99
Es	3.387847	-1.255092	-0.690888	99
Es	-0.737716	0.143293	0.481519	99
Es	0.002369	0.129814	0.449340	99
Es	0.991043	2.925889	0.445983	99
Es	1.898721	-0.915080	-0.764344	99
Es	0.484219	1.490501	0.449418	99
Es	0.262297	-0.226073	-0.186531	99
38
Properties=species:S:1:pos:R:3:Z:I:1 energy=-301.82379229515425 field_type=dipole dipole="0.000000 0.000000 0.000000" charge=0
C	-1.525852	0.121405	0.536402	6
C	0.002328	0.129695	0.449422	6
C	0.462298	-0.610985	-0.812278	6
C	1.899107	-0.915165	-0.764328	6
N	3.028068	-1.173295	-0.712018	7
C	0.484348	1.490865	0.449422	6
N	0.868558	2.575855	0.449422	7
H	-1.870852	0.642475	1.436942	1
H	-1.908522	-0.904095	0.577342	1
H	-1.980502	0.618635	-0.328478	1
H	0.387658	-0.389685	1.336712	1
H	0.236917	-0.027265	-1.713898	1
H	-0.083552	-1.558445	-0.904668	1
Es	3.027621	-1.173195	-0.712038	99
Es	0.002372	0.129813	0.449341	99
Es	-1.820164	0.456312	-0.049614	99
Es	0.672422	2.085576	0.706541	99
Es	0.484214	1.490508	0.449427	99
Es	-1.525765	0.121403	0.536393	99
Es	1.898722	-0.915075	-0.764353	99
Es	3.388645	-1.252815	-0.697121	99
Es	-1.773774	-0.580148	0.561211	99
Es	0.263654	0.847622	0.445393	99
Es	0.110507	-1.243126	-0.862517	99
Es	0.262354	-0.225886	-0.186554	99
Es	-1.746078	0.470984	1.137522	99
Es	2.563239	-0.772126	-0.606630	99
Es	0.992691	2.925371	0.452395	99
Es	2.521060	-1.064867	-0.997592	99
Es	0.968639	1.977973	0.338646	99
Es	0.427683	2.169207	0.293133	99
Es	2.441921	-1.330619	-0.595795	99
Es	0.462462	-0.610990	-0.812215	99
Es	-0.737783	0.143263	0.481568	99
Es	1.226217	-0.762958	-0.788196	99
Es	0.329373	-0.223279	-1.397268	99
Es	0.868403	2.575430	0.449420	99
Es	0.268284	-0.199660	1.029178	99
38
Properties=species:S:1:pos:R:3:Z:I:1 energy=-301.82379229515425 field_type=dipole dipole="0.000000 0.000000 0.000000" charge=0
C	-1.525852	0.121405	0.536402	6
C	0.002328	0.129695	0.449422	6
C	0.462298	-0.610985	-0.812278	6
C	1.899107	-0.915165	-0.764328	6
N	3.028068	-1.173295	-0.712018	7
C	0.484348	1.490865	0.449422	6
N	0.868558	2.575855	0.449422	7
H	-1.870852	0.642475	1.436942	1
H	-1.908522	-0.904095	0.577342	1
H	-1.980502	0.618635	-0.328478	1
H	0.387658	-0.389685	1.336712	1
H	0.236917	-0.027265	-1.713898	1
H	-0.083552	-1.558445	-0.904668	1
Es	2.497883	-1.059771	-0.478789	99
Es	2.578983	-0.772885	-0.857562	99
Es	0.110304	-1.243024	-0.862625	99
Es	-1.525768	0.121402	0.536392	99
Es	3.027619	-1.173194	-0.712036	99
Es	0.002370	0.129812	0.449341	99
Es	0.992648	2.925461	0.452016	99
Es	-1.745948	0.470783	1.137366	99
Es	0.262358	-0.225931	-0.186568	99
Es	0.969381	1.977449	0.338562	99
Es	-0.737842	0.143245	0.481396	99
Es	1.898725	-0.915078	-0.764339	99
Es	0.268269	-0.199585	1.028843	99
Es	0.484211	1.490511	0.449432	99
Es	0.670916	2.086171	0.706321	99
Es	0.868404	2.575429	0.449420	99
Es	1.226385	-0.762664	-0.785732	99
Es	-1.773890	-0.580182	0.561211	99
Es	0.329333	-0.223298	-1.396941	99
Es	0.462463	-0.610990	-0.812213	99
Es	3.388270	-1.254133	-0.691757	99
Es	-1.820340	0.456367	-0.049259	99
Es	0.263846	0.847687	0.445921	99
Es	2.449843	-1.333878	-0.871474	99
Es	0.428493	2.169011	0.293352	99
38
Properties=species:S:1:pos:R:3:Z:I:1 energy=-301.82379229515425 field_type=dipole dipole="0.000000 0.000000 0.000000" charge=0
C	-1.525852	0.121405	0.536402	6
C	0.002328	0.129695	0.449422	6
C	0.462298	-0.610985	-0.812278	6
C	1.899107	-0.915165	-0.764328	6
N	3.028068	-1.173295	-0.712018	7
C	0.484348	1.490865	0.449422	6
N	0.868558	2.575855	0.449422	7
H	-1.870852	0.642475	1.436942	1
H	-1.908522	-0.904095	0.577342	1
H	-1.980502	0.618635	-0.328478	1
H	0.387658	-0.389685	1.336712	1
H	0.236917	-0.027265	-1.713898	1
H	-0.083552	-1.558445	-0.904668	1
Es	0.425911	2.168499	0.592674	99
Es	2.499039	-1.053729	-0.482822	99
Es	3.027621	-1.173195	-0.712038	99
Es	-1.774051	-0.580163	0.561258	99
Es	0.484215	1.490509	0.449415	99
Es	0.263897	0.847671	0.442918	99
Es	1.898721	-0.915079	-0.764343	99
Es	0.675552	2.083690	0.190348	99
Es	0.002369	0.129814	0.449340	99
Es	0.868403	2.575430	0.449420	99
Es	-1.745922	0.470467	1.136950	99
Es	-1.525766	0.121401	0.536392	99
Es	-1.820344	0.456637	-0.049347	99
Es	0.268323	-0.199713	1.028882	99
Es	0.991442	2.925952	0.446742	99
Es	0.109972	-1.243000	-0.862655	99
Es	0.462462	-0.610990	-0.812214	99
Es	0.262259	-0.225649	-0.186558	99
Es	3.388234	-1.253962	-0.689096	99
Es	2.579008	-0.775193	-0.861324	99
Es	1.226603	-0.762420	-0.786484	99
Es	2.448711	-1.337938	-0.865488	99
Es	0.329466	-0.223507	-1.396621	99
Es	-0.737837	0.143233	0.481582	99
Es	0.968629	1.979950	0.563344	99
38
Properties=species:S:1:pos:R:3:Z:I:1 energy=-301.82379229515425 field_type=dipole dipole="0.000000 0.000000 0.000000" charge=0
C	-1.525852	0.121405	0.536402	6
C	0.002328	0.129695	0.449422	6
C	0.462298	-0.610985	-0.812278	6
C	1.899107	-0.915165	-0.764328	6
N	3.028068	-1.173295	-0.712018	7
C	0.484348	1.490865	0.449422	6
N	0.868558	2.575855	0.449422	7
H	-1.870852	0.642475	1.436942	1
H	-1.908522	-0.904095	0.577342	1
H	-1.980502	0.618635	-0.328478	1
H	0.387658	-0.389685	1.336712	1
H	0.236917	-0.027265	-1.713898	1
H	-0.083552	-1.558445	-0.904668	1
Es	3.388701	-1.253564	-0.695899	99
Es	0.002372	0.129812	0.449343	99
Es	0.268276	-0.199806	1.028811	99
Es	-1.525767	0.121401	0.536391	99
Es	-1.774115	-0.580179	0.561235	99
Es	0.264061	0.847705	0.442832	99
Es	-0.737813	0.143137	0.481606	99
Es	-1.745986	0.470599	1.136939	99
Es	0.484221	1.490515	0.449408	99
Es	2.439969	-1.337553	-0.609005	99
Es	0.109886	-1.243128	-0.862743	99
Es	0.262285	-0.225626	-0.186542	99
Es	0.462461	-0.610991	-0.812215	99
Es	0.698975	2.075530	0.195408	99
Es	0.868405	2.575432	0.449419	99
Es	0.411684	2.173631	0.564453	99
Es	1.898722	-0.915083	-0.764357	99
Es	2.523191	-1.057950	-0.985545	99
Es	0.329532	-0.223440	-1.396485	99
Es	1.226641	-0.762776	-0.788795	99
Es	0.992826	2.925488	0.447086	99
Es	0.957913	1.983476	0.586333	99
Es	2.563024	-0.771278	-0.605997	99
Es	-1.820194	0.456567	-0.049370	99
Es	3.027646	-1.173202	-0.712035	99
38
Properties=species:S:1:pos:R:3:Z:I:1 energy=-301.82379229515425 field_type=dipole dipole="0.000000 0.000000 0.000000" charge=0
C	-1.525852	0.121405	0.536402	6
C	0.002328	0.129695	0.449422	6
C	0.462298	-0.610985	-0.812278	6
C	1.899107	-0.915165	-0.764328	6
N	3.028068	-1.173295	-0.712018	7
C	0.484348	1.490865	0.449422	6
N	0.868558	2.575855	0.449422	7
H	-1.870852	0.642475	1.436942	1
H	-1.908522	-0.904095	0.577342	1
H	-1.980502	0.618635	-0.328478	1
H	0.387658	-0.389685	1.336712	1
H	0.236917	-0.027265	-1.713898	1
H	-0.083552	-1.558445	-0.904668	1
Es	0.403013	2.176732	0.543678	99
Es	0.868404	2.575429	0.449419	99
Es	-1.820193	0.456428	-0.049225	99
Es	1.226560	-0.762735	-0.788397	99
Es	3.027626	-1.173196	-0.712037	99
Es	-0.737755	0.143138	0.481632	99
Es	0.948518	1.986816	0.602376	99
Es	-1.774118	-0.580242	0.561258	99
Es	0.264296	0.847652	0.443017	99
Es	-1.746018	0.470662	1.136889	99
Es	2.439300	-1.340916	-0.615982	99
Es	0.993799	2.925162	0.446929	99
Es	0.484219	1.490507	0.449408	99
Es	3.388897	-1.253669	-0.696849	99
Es	0.109814	-1.243122	-0.862851	99
Es	0.715766	2.069567	0.200022	99
Es	0.462462	-0.610990	-0.812213	99
Es	1.898720	-0.915084	-0.764354	99
Es	0.262189	-0.225432	-0.186474	99
Es	0.002372	0.129813	0.449341	99
Es	0.268308	-0.199637	1.028748	99
Es	2.562267	-0.773772	-0.601192	99
Es	0.329754	-0.223714	-1.396391	99
Es	2.524483	-1.052084	-0.982869	99
Es	-1.525767	0.121401	0.536392	99
38
Properties=species:S:1:pos:R:3:Z:I:1 energy=-301.82379229515425 field_type=dipole dipole="0.000000 0.000000 0.000000" charge=0
C	-1.525852	0.121405	0.536402	6
C	0.002328	0.129695	0.449422	6
C	0.462298	-0.610985	-0.812278	6
C	1.899107	-0.915165	-0.764328	6
N	3.028068	-1.173295	-0.712018	7
C	0.484348	1.490865	0.449422	6
N	0.868558	2.575855	0.449422	7
H	-1.870852	0.642475	1.436942	1
H	-1.908522	-0.904095	0.577342	1
H	-1.980502	0.618635	-0.328478	1
H	0.387658	-0.389685	1.336712	1
H	0.236917	-0.027265	-1.713898	1
H	-0.083552	-1.558445	-0.904668	1
Es	0.868413	2.575457	0.449420	99
Es	3.027622	-1.173195	-0.712037	99
Es	-1.745967	0.470710	1.136841	99
Es	3.388643	-1.254259	-0.696821	99
Es	0.002369	0.129813	0.449341	99
Es	2.567084	-0.759944	-0.631582	99
Es	-1.774328	-0.580377	0.561102	99
Es	-0.737901	0.143129	0.481556	99
Es	0.971457	1.976494	0.343335	99
Es	1.898718	-0.915084	-0.764354	99
Es	0.993399	2.925275	0.454408	99
Es	2.441885	-1.325627	-0.586322	99
Es	0.462463	-0.610990	-0.812215	99
Es	-1.525766	0.121401	0.536392	99
Es	0.264102	0.847832	0.445116	99
Es	0.422435	2.170983	0.300474	99
Es	0.262418	-0.225629	-0.186519	99
Es	-1.820034	0.456453	-0.048929	99
Es	2.517399	-1.080212	-0.982128	99
Es	0.674264	2.085344	0.692954	99
Es	0.484221	1.490505	0.449424	99
Es	0.329693	-0.223671	-1.396116	99
Es	0.268051	-0.199522	1.028381	99
Es	0.109681	-1.243224	-0.862907	99
Es	1.226595	-0.762947	-0.788539	99
38
Properties=species:S:1:pos:R:3:Z:I:1 energy=-301.82379229515425 field_type=dipole dipole="0.000000 0.000000 0.000000" charge=0
C	-1.525852	0.121405	0.536402	6
C	0.002328	0.129695	0.449422	6
C	0.462298	-0.610985	-0.812278	6
C	1.899107	-0.915165	-0.764328	6
N	3.028068	-1.173295	-0.712018	7
C	0.484348	1.490865	0.449422	6
N	0.868558	2.575855	0.449422	7
H	-1.870852	0.642475	1.436942	1
H	-1.908522	-0.904095	0.577342	1
H	-1.980502	0.618635	-0.328478	1
H	0.387658	-0.389685	1.336712	1
H	0.236917	-0.027265	-1.713898	1
H	-0.083552	-1.558445	-0.904668	1
Es	-1.820199	0.456343	-0.048872	99
Es	0.329396	-0.223496	-1.396335	99
Es	1.898722	-0.915081	-0.764339	99
Es	-0.737944	0.143059	0.481574	99
Es	-1.774370	-0.580266	0.561327	99
Es	1.226605	-0.762507	-0.785862	99
Es	-1.525765	0.121403	0.536394	99
Es	0.264159	0.847749	0.445970	99
Es	0.462461	-0.610991	-0.812214	99
Es	-1.745878	0.470732	1.136754	99
Es	2.447908	-1.338715	-0.862840	99
Es	0.484218	1.490508	0.449431	99
Es	2.578845	-0.769971	-0.852964	99
Es	0.972397	1.976070	0.344539	99
Es	0.002369	0.129814	0.449341	99
Es	0.423942	2.170229	0.298906	99
Es	0.868403	2.575430	0.449420	99
Es	0.268292	-0.199449	1.028293	99
Es	3.027622	-1.173195	-0.712037	99
Es	0.992859	2.925466	0.452127	99
Es	0.672319	2.086343	0.694563	99
Es	0.109847	-1.243062	-0.862696	99
Es	2.499742	-1.057722	-0.491488	99
Es	0.262415	-0.225759	-0.186403	99
Es	3.388549	-1.254215	-0.692314	99
38
Properties=species:S:1:pos:R:3:Z:I:1 energy=-301.82379229515425 field_type=dipole dipole="0.000000 0.000000 0.000000" charge=0
C	-1.525852	0.121405	0.536402	6
C	0.002328	0.129695	0.449422	6
C	0.462298	-0.610985	-0.812278	6
C	1.899107	-0.915165	-0.764328	6
N	3.028068	-1.173295	-0.712018	7
C	0.484348	1.490865	0.449422	6
N	0.868558	2.575855	0.449422	7
H	-1.870852	0.642475	1.436942	1
H	-1.908522	-0.904095	0.577342	1
H	-1.980502	0.618635	-0.328478	1
H	0.387658	-0.389685	1.336712	1
H	0.236917	-0.027265	-1.713898	1
H	-0.083552	-1.558445	-0.904668	1
Es	-1.820346	0.456705	-0.049011	99
Es	2.497527	-1.067957	-0.492540	99
Es	0.410150	2.173852	0.564096	99
Es	-1.745746	0.470385	1.136655	99
Es	0.109683	-1.243097	-0.862700	99
Es	1.226680	-0.762444	-0.786332	99
Es	-1.525769	0.121402	0.536393	99
Es	0.002369	0.129811	0.449343	99
Es	0.329454	-0.223377	-1.396270	99
Es	3.388494	-1.254212	-0.690589	99
Es	0.264187	0.847660	0.443348	99
Es	0.462461	-0.610990	-0.812215	99
Es	2.579314	-0.765047	-0.840909	99
Es	0.484223	1.490502	0.449418	99
Es	2.449668	-1.333440	-0.874959	99
Es	0.268344	-0.199699	1.028618	99
Es	0.992772	2.925624	0.445948	99
Es	-0.737832	0.143153	0.481543	99
Es	3.027624	-1.173196	-0.712036	99
Es	0.696934	2.076521	0.203565	99
Es	0.961522	1.982201	0.579060	99
Es	1.898722	-0.915078	-0.764331	99
Es	0.262411	-0.225735	-0.186554	99
Es	-1.774337	-0.580257	0.561314	99
Es	0.868405	2.575428	0.449420	99
38
Properties=species:S:1:pos:R:3:Z:I:1 energy=-301.82379229515425 field_type=dipole dipole="0.000000 0.000000 0.000000" charge=0
C	-1.525852	0.121405	0.536402	6
C	0.002328	0.129695	0.449422	6
C	0.462298	-0.610985	-0.812278	6
C	1.899107	-0.915165	-0.764328	6
N	3.028068	-1.173295	-0.712018	7
C	0.484348	1.490865	0.449422	6
N	0.868558	2.575855	0.449422	7
H	-1.870852	0.642475	1.436942	1
H	-1.908522	-0.904095	0.577342	1
H	-1.980502	0.618635	-0.328478	1
H	0.387658	-0.389685	1.336712	1
H	0.236917	-0.027265	-1.713898	1
H	-0.083552	-1.558445	-0.904668	1
Es	0.002370	0.129813	0.449341	99
Es	0.268390	-0.199882	1.028663	99
Es	0.408743	2.174386	0.559565	99
Es	0.264186	0.847731	0.442888	99
Es	-1.525765	0.121401	0.536391	99
Es	0.262329	-0.225488	-0.186465	99
Es	1.226794	-0.762709	-0.789018	99
Es	0.462457	-0.610990	-0.812221	99
Es	0.993047	2.925499	0.447416	99
Es	3.027624	-1.173195	-0.712037	99
Es	-1.745715	0.470161	1.136465	99
Es	-1.774324	-0.580256	0.561371	99
Es	-0.737789	0.143172	0.481542	99
Es	-1.820453	0.456849	-0.049080	99
Es	3.388917	-1.253229	-0.695400	99
Es	0.868402	2.575430	0.449422	99
Es	1.898722	-0.915082	-0.764358	99
Es	0.109661	-1.243140	-0.862708	99
Es	0.699160	2.076036	0.204370	99
Es	0.960451	1.982227	0.581783	99
Es	2.525126	-1.050932	-0.976223	99
Es	0.329479	-0.223456	-1.396200	99
Es	0.484217	1.490506	0.449411	99
Es	2.562232	-0.772341	-0.602798	99
Es	2.438655	-1.343792	-0.621844	99
38
Properties=species:S:1:pos:R:3:Z:I:1 energy=-301.82379229515425 field_type=dipole dipole="0.000000 0.000000 0.000000" charge=0
C	-1.525852	0.121405	0.536402	6
C	0.002328	0.129695	0.449422	6
C	0.462298	-0.610985	-0.812278	6
C	1.899107	-0.915165	-0.764328	6
N	3.028068	-1.173295	-0.712018	7
C	0.484348	1.490865	0.449422	6
N	0.868558	2.575855	0.449422	7
H	-1.870852	0.642475	1.436942	1
H	-1.908522	-0.904095	0.577342	1
H	-1.980502	0.618635	-0.328478	1
H	0.387658	-0.389685	1.336712	1
H	0.236917	-0.027265	-1.713898	1
H	-0.083552	-1.558445	-0.904668	1
Es	0.109519	-1.243148	-0.862682	99
Es	0.264096	0.847850	0.445541	99
Es	-1.745854	0.470524	1.136558	99
Es	0.268254	-0.199614	1.028249	99
Es	2.564201	-0.767458	-0.614035	99
Es	0.002370	0.129813	0.449342	99
Es	0.329558	-0.223570	-1.396100	99
Es	0.462462	-0.610992	-0.812215	99
Es	0.484218	1.490506	0.449431	99
Es	-1.820144	0.456555	-0.048839	99
Es	0.975296	1.974979	0.353177	99
Es	2.522159	-1.061133	-0.976800	99
Es	1.898720	-0.915081	-0.764354	99
Es	2.439624	-1.338594	-0.608847	99
Es	-1.525768	0.121401	0.536392	99
Es	3.027658	-1.173202	-0.712036	99
Es	-1.774490	-0.580313	0.561231	99
Es	3.388990	-1.253122	-0.697476	99
Es	0.993107	2.925527	0.453379	99
Es	1.226727	-0.762703	-0.788203	99
Es	0.424303	2.170001	0.296745	99
Es	0.868406	2.575438	0.449420	99
Es	0.262448	-0.225546	-0.186543	99
Es	-0.737895	0.143003	0.481642	99
Es	0.668953	2.087594	0.687300	99
38
Properties=species:S:1:pos:R:3:Z:I:1 energy=-301.82379229515425 field_type=dipole dipole="0.000000 0.000000 0.000000" charge=0
C	-1.525852	0.121405	0.536402	6
C	0.002328	0.129695	0.449422	6
C	0.462298	-0.610985	-0.812278	6
C	1.899107	-0.915165	-0.764328	6
N	3.028068	-1.173295	-0.712018	7
C	0.484348	1.490865	0.449422	6
N	0.868558	2.575855	0.449422	7
H	-1.870852	0.642475	1.436942	1
H	-1.908522	-0.904095	0.577342	1
H	-1.980502	0.618635	-0.328478	1
H	0.387658	-0.389685	1.336712	1
H	0.236917	-0.027265	-1.713898	1
H	-0.083552	-1.558445	-0.904668	1
Es	-0.737793	0.143136	0.481479	99
Es	3.027621	-1.173195	-0.712037	99
Es	0.109621	-1.243129	-0.862759	99
Es	-1.820184	0.456484	-0.048845	99
Es	0.002370	0.129813	0.449339	99
Es	0.868403	2.575430	0.449420	99
Es	0.992882	2.925580	0.446865	99
Es	2.579055	-0.768351	-0.849072	99
Es	0.484219	1.490505	0.449412	99
Es	0.961482	1.981949	0.579771	99
Es	-1.525766	0.121401	0.536391	99
Es	3.388539	-1.253982	-0.690364	99
Es	1.226784	-0.762329	-0.786411	99
Es	0.462461	-0.610990	-0.812215	99
Es	0.699045	2.076143	0.207470	99
Es	-1.745876	0.470581	1.136663	99
Es	0.268165	-0.199544	1.028450	99
Es	1.898724	-0.915083	-0.764340	99
Es	0.264406	0.847711	0.443161	99
Es	0.329514	-0.223675	-1.396042	99
Es	2.448017	-1.338768	-0.864712	99
Es	0.262404	-0.225689	-0.186585	99
Es	2.499399	-1.059536	-0.494850	99
Es	-1.774425	-0.580282	0.561234	99
Es	0.407848	2.174536	0.558855	99
38
Properties=species:S:1:pos:R:3:Z:I:1 energy=-301.82379229515425 field_type=dipole dipole="0.000000 0.000000 0.000000" charge=0
C	-1.525852	0.121405	0.536402	6
C	0.002328	0.129695	0.449422	6
C	0.462298	-0.610985	-0.812278	6
C	1.899107	-0.915165	-0.764328	6
N	3.028068	-1.173295	-0.712018	7
C	0.484348	1.490865	0.449422	6
N	0.868558	2.575855	0.449422	7
H	-1.870852	0.642475	1.436942	1
H	-1.908522	-0.904095	0.577342	1
H	-1.980502	0.618635	-0.328478	1
H	0.387658	-0.389685	1.336712	1
H	0.236917	-0.027265	-1.713898	1
H	-0.083552	-1.558445	-0.904668	1
Es	0.484221	1.490506	0.449420	99
Es	-1.820190	0.456445	-0.048596	99
Es	1.898720	-0.915084	-0.764337	99
Es	0.462462	-0.610992	-0.812213	99
Es	0.421385	2.170695	0.303527	99
Es	2.579199	-0.764528	-0.841520	99
Es	0.264291	0.847853	0.446447	99
Es	0.268291	-0.199611	1.028113	99
Es	1.226642	-0.762549	-0.785404	99
Es	2.497926	-1.067890	-0.492971	99
Es	0.262505	-0.225725	-0.186570	99
Es	0.673120	2.086613	0.685974	99
Es	-1.774685	-0.580379	0.561450	99
Es	0.992855	2.925749	0.451337	99
Es	3.388508	-1.254537	-0.692454	99
Es	2.449482	-1.333431	-0.873013	99
Es	3.027622	-1.173195	-0.712037	99
Es	0.109525	-1.243196	-0.862543	99
Es	0.868404	2.575430	0.449420	99
Es	0.974211	1.975075	0.348817	99
Es	-0.737866	0.143060	0.481535	99
Es	-1.525766	0.121402	0.536392	99
Es	0.002369	0.129813	0.449341	99
Es	0.329398	-0.223391	-1.396125	99
Es	-1.745713	0.470582	1.136287	99
38
Properties=species:S:1:pos:R:3:Z:I:1 energy=-301.82379229515425 field_type=dipole dipole="0.000000 0.000000 0.000000" charge=0
C	-1.525852	0.121405	0.536402	6
C	0.002328	0.129695	0.449422	6
C	0.462298	-0.610985	-0.812278	6
C	1.899107	-0.915165	-0.764328	6
N	3.028068	-1.173295	-0.712018	7
C	0.484348	1.490865	0.449422	6
N	0.868558	2.575855	0.449422	7
H	-1.870852	0.642475	1.436942	1
H	-1.908522	-0.904095	0.577342	1
H	-1.980502	0.618635	-0.328478	1
H	0.387658	-0.389685	1.336712	1
H	0.236917	-0.027265	-1.713898	1
H	-0.083552	-1.558445	-0.904668	1
Es	-1.820284	0.456755	-0.048860	99
Es	-1.525766	0.121401	0.536390	99
Es	0.484218	1.490507	0.449413	99
Es	0.963784	1.981047	0.574938	99
Es	3.027622	-1.173195	-0.712037	99
Es	1.898720	-0.915081	-0.764341	99
Es	0.002371	0.129815	0.449339	99
Es	-1.745694	0.470308	1.136334	99
Es	0.462461	-0.610991	-0.812213	99
Es	3.388460	-1.254003	-0.689838	99
Es	2.449557	-1.334322	-0.873575	99
Es	0.696545	2.077176	0.211497	99
Es	0.992836	2.925703	0.446378	99
Es	1.226682	-0.762430	-0.786158	99
Es	0.264538	0.847756	0.443322	99
Es	0.262445	-0.225565	-0.186546	99
Es	0.329551	-0.223607	-1.396159	99
Es	2.497740	-1.066991	-0.493702	99
Es	0.868403	2.575430	0.449420	99
Es	0.109526	-1.243180	-0.862587	99
Es	2.579305	-0.765231	-0.842016	99
Es	-0.737889	0.143077	0.481682	99
Es	0.408072	2.174345	0.559965	99
Es	0.268196	-0.199584	1.028262	99
Es	-1.774484	-0.580423	0.561366	99
38
Properties=species:S:1:pos:R:3:Z:I:1 energy=-301.82379229515425 field_type=dipole dipole="0.000000 0.000000 0.000000" charge=0
C	-1.525852	0.121405	0.536402	6
C	0.002328	0.129695	0.449422	6
C	0.462298	-0.610985	-0.812278	6
C	1.899107	-0.915165	-0.764328	6
N	3.028068	-1.173295	-0.712018	7
C	0.484348	1.490865	0.449422	6
N	0.868558	2.575855	0.449422	7
H	-1.870852	0.642475	1.436942	1
H	-1.908522	-0.904095	0.577342	1
H	-1.980502	0.618635	-0.328478	1
H	0.387658	-0.389685	1.336712	1
H	0.236917	-0.027265	-1.713898	1
H	-0.083552	-1.558445	-0.904668	1
Es	0.268317	-0.199795	1.028366	99
Es	0.262374	-0.225583	-0.186535	99
Es	1.898720	-0.915076	-0.764357	99
Es	0.264343	0.847787	0.445170	99
Es	0.993862	2.925247	0.453723	99
Es	1.226786	-0.762656	-0.788537	99
Es	-1.774475	-0.580420	0.561408	99
Es	-1.820377	0.456859	-0.048884	99
Es	0.329587	-0.223395	-1.396039	99
Es	0.462461	-0.610989	-0.812214	99
Es	0.002370	0.129814	0.449339	99
Es	2.564364	-0.766439	-0.615845	99
Es	0.484222	1.490505	0.449427	99
Es	0.416154	2.172842	0.311596	99
Es	0.970420	1.976496	0.340130	99
Es	2.522339	-1.061260	-0.973791	99
Es	2.439285	-1.339222	-0.610591	99
Es	3.389005	-1.253344	-0.696375	99
Es	-0.737913	0.143181	0.481620	99
Es	-1.745645	0.470150	1.136225	99
Es	3.027622	-1.173195	-0.712037	99
Es	0.868404	2.575430	0.449420	99
Es	-1.525765	0.121401	0.536391	99
Es	0.681038	2.083588	0.685394	99
Es	0.109419	-1.243211	-0.862725	99
