47
Properties=species:S:1:pos:R:3:Z:I:1 energy=-305.32399757272196 field_type=dipole dipole="0.000000 0.000000 0.000000" charge=0
C	-0.530603	-2.136116	-0.713319	6
C	-1.105063	-0.989446	0.108881	6
C	-0.426993	0.355564	-0.193269	6
C	-1.139973	1.489184	0.541741	6
N	0.963727	0.313244	0.230431	7
C	1.930777	1.100774	-0.298279	6
N	3.117187	1.231214	0.174621	7
H	-1.076793	-3.060756	-0.501279	1
H	0.523787	-2.308676	-0.477429	1
H	-0.615833	-1.930736	-1.784969	1
H	-1.011423	-1.234086	1.174541	1
H	-2.177723	-0.913466	-0.108259	1
H	-0.482103	0.544674	-1.272599	1
H	-1.105643	1.344504	1.627320	1
H	-2.190223	1.550694	0.238461	1
H	-0.670243	2.454214	0.322441	1
H	1.142897	-0.104026	1.135521	1
H	1.630077	1.651754	-1.205679	1
H	3.224167	0.641484	1.001131	1
Es	-1.105033	-0.989441	0.108862	99
Es	3.387684	1.432438	0.046015	99
Es	1.711988	1.467524	-0.911555	99
Es	0.963683	0.313841	0.230683	99
Es	1.930595	1.100691	-0.298279	99
Es	2.736339	0.959208	-0.162948	99
Es	3.116774	1.230931	0.174778	99
Es	-0.455293	0.486604	-0.931488	99
Es	-1.139976	1.489178	0.541736	99
Es	0.376408	0.350076	0.056111	99
Es	-1.837621	-0.929810	-0.040822	99
Es	-0.810292	-1.558819	-0.303950	99
Es	-0.426836	0.355560	-0.193184	99
Es	1.062262	0.084344	0.782092	99
Es	2.565134	1.393497	0.158337	99
Es	-0.758156	-0.317151	-0.039114	99
Es	-0.906170	-2.764525	-0.566675	99
Es	-0.790933	0.929638	0.179555	99
Es	-0.590796	-1.989647	-1.444259	99
Es	-1.112463	1.380941	1.280742	99
Es	-1.032002	-1.147897	0.842608	99
Es	-0.815856	2.143282	0.387820	99
Es	1.152814	0.185186	0.022061	99
Es	-0.530624	-2.136091	-0.713302	99
Es	3.159778	0.864830	0.681690	99
Es	1.299459	0.742048	0.099540	99
Es	-1.857645	1.526553	0.331739	99
Es	0.184402	-2.251322	-0.550533	99
47
Properties=species:S:1:pos:R:3:Z:I:1 energy=-305.32399757272196 field_type=dipole dipole="0.000000 0.000000 0.000000" charge=0
C	-0.530603	-2.136116	-0.713319	6
C	-1.105063	-0.989446	0.108881	6
C	-0.426993	0.355564	-0.193269	6
C	-1.139973	1.489184	0.541741	6
N	0.963727	0.313244	0.230431	7
C	1.930777	1.100774	-0.298279	6
N	3.117187	1.231214	0.174621	7
H	-1.076793	-3.060756	-0.501279	1
H	0.523787	-2.308676	-0.477429	1
H	-0.615833	-1.930736	-1.784969	1
H	-1.011423	-1.234086	1.174541	1
H	-2.177723	-0.913466	-0.108259	1
H	-0.482103	0.544674	-1.272599	1
H	-1.105643	1.344504	1.627320	1
H	-2.190223	1.550694	0.238461	1
H	-0.670243	2.454214	0.322441	1
H	1.142897	-0.104026	1.135521	1
H	1.630077	1.651754	-1.205679	1
H	3.224167	0.641484	1.001131	1
Es	-0.530624	-2.136091	-0.713300	99
Es	-0.426839	0.355561	-0.193184	99
Es	-1.111135	1.380694	1.280499	99
Es	-1.139977	1.489180	0.541736	99
Es	3.116775	1.230927	0.174781	99
Es	0.963740	0.314131	0.230752	99
Es	-1.105033	-0.989440	0.108861	99
Es	3.159781	0.865897	0.682135	99
Es	-0.814987	2.142032	0.387869	99
Es	2.735231	0.958927	-0.160322	99
Es	-1.859693	1.526547	0.330814	99
Es	0.186446	-2.251328	-0.549463	99
Es	-1.030805	-1.148411	0.842567	99
Es	1.314236	0.735979	0.084023	99
Es	1.138301	0.195408	0.041320	99
Es	-0.907121	-2.763328	-0.566505	99
Es	-0.591942	-1.989196	-1.444091	99
Es	0.375338	0.346185	0.051857	99
Es	-0.790873	0.930189	0.180133	99
Es	-0.456025	0.486859	-0.931449	99
Es	1.930594	1.100690	-0.298280	99
Es	1.712095	1.467256	-0.911786	99
Es	-1.839569	-0.929995	-0.041924	99
Es	-0.757861	-0.317649	-0.039194	99
Es	3.388701	1.433689	0.043670	99
Es	-0.810280	-1.558654	-0.304124	99
Es	2.565286	1.391377	0.158151	99
Es	1.063863	0.084234	0.782714	99
47
Properties=species:S:1:pos:R:3:Z:I:1 energy=-305.32399757272196 field_type=dipole dipole="0.000000 0.000000 0.000000" charge=0
C	-0.530603	-2.136116	-0.713319	6
C	-1.105063	-0.989446	0.108881	6
C	-0.426993	0.355564	-0.193269	6
C	-1.139973	1.489184	0.541741	6
N	0.963727	0.313244	0.230431	7
C	1.930777	1.100774	-0.298279	6
N	3.117187	1.231214	0.174621	7
H	-1.076793	-3.060756	-0.501279	1
H	0.523787	-2.308676	-0.477429	1
H	-0.615833	-1.930736	-1.784969	1
H	-1.011423	-1.234086	1.174541	1
H	-2.177723	-0.913466	-0.108259	1
H	-0.482103	0.544674	-1.272599	1
H	-1.105643	1.344504	1.627320	1
H	-2.190223	1.550694	0.238461	1
H	-0.670243	2.454214	0.322441	1
H	1.142897	-0.104026	1.135521	1
H	1.630077	1.651754	-1.205679	1
H	3.224167	0.641484	1.001131	1
Es	-1.105034	-0.989441	0.108860	99
Es	3.116762	1.230935	0.174783	99
Es	-0.810383	-1.558665	-0.304098	99
Es	-1.860868	1.526660	0.330180	99
Es	0.963655	0.313774	0.230676	99
Es	1.711999	1.467077	-0.911862	99
Es	-0.592877	-1.989076	-1.443735	99
Es	1.930594	1.100688	-0.298285	99
Es	-0.814659	2.141108	0.388196	99
Es	3.160040	0.866097	0.682092	99
Es	2.565824	1.390382	0.158701	99
Es	-0.757647	-0.317849	-0.039112	99
Es	0.187751	-2.251215	-0.549134	99
Es	-0.426837	0.355561	-0.193182	99
Es	3.388609	1.434714	0.043416	99
Es	-0.907350	-2.762609	-0.566525	99
Es	-0.530624	-2.136091	-0.713302	99
Es	1.064193	0.085664	0.783103	99
Es	-1.110385	1.380548	1.280272	99
Es	1.324964	0.730380	0.072662	99
Es	-1.030106	-1.148536	0.842425	99
Es	0.374998	0.343523	0.049133	99
Es	-1.139976	1.489180	0.541736	99
Es	1.128210	0.202886	0.055046	99
Es	-0.790696	0.930608	0.180432	99
Es	-1.840618	-0.930099	-0.042478	99
Es	2.734625	0.958610	-0.160215	99
Es	-0.456539	0.486855	-0.931525	99
47
Properties=species:S:1:pos:R:3:Z:I:1 energy=-305.32399757272196 field_type=dipole dipole="0.000000 0.000000 0.000000" charge=0
C	-0.530603	-2.136116	-0.713319	6
C	-1.105063	-0.989446	0.108881	6
C	-0.426993	0.355564	-0.193269	6
C	-1.139973	1.489184	0.541741	6
N	0.963727	0.313244	0.230431	7
C	1.930777	1.100774	-0.298279	6
N	3.117187	1.231214	0.174621	7
H	-1.076793	-3.060756	-0.501279	1
H	0.523787	-2.308676	-0.477429	1
H	-0.615833	-1.930736	-1.784969	1
H	-1.011423	-1.234086	1.174541	1
H	-2.177723	-0.913466	-0.108259	1
H	-0.482103	0.544674	-1.272599	1
H	-1.105643	1.344504	1.627320	1
H	-2.190223	1.550694	0.238461	1
H	-0.670243	2.454214	0.322441	1
H	1.142897	-0.104026	1.135521	1
H	1.630077	1.651754	-1.205679	1
H	3.224167	0.641484	1.001131	1
Es	2.733821	0.958200	-0.159549	99
Es	-1.109821	1.380548	1.280103	99
Es	-1.861638	1.526630	0.329803	99
Es	-1.105032	-0.989443	0.108859	99
Es	-0.814397	2.140491	0.388225	99
Es	-0.757487	-0.318035	-0.039098	99
Es	3.389321	1.434005	0.042722	99
Es	0.374795	0.341554	0.047573	99
Es	-1.841414	-0.930216	-0.042715	99
Es	1.712040	1.466937	-0.911915	99
Es	0.188399	-2.251186	-0.548666	99
Es	1.930594	1.100692	-0.298279	99
Es	1.064620	0.087139	0.783504	99
Es	-1.139977	1.489179	0.541736	99
Es	-0.456749	0.486892	-0.931524	99
Es	0.963700	0.313846	0.230681	99
Es	-0.810318	-1.558759	-0.304147	99
Es	1.123476	0.207065	0.061974	99
Es	-0.426838	0.355560	-0.193183	99
Es	-0.790713	0.930922	0.180749	99
Es	1.329626	0.726881	0.066832	99
Es	2.566115	1.390966	0.159308	99
Es	3.159873	0.866559	0.681850	99
Es	-0.907788	-2.762217	-0.566636	99
Es	-0.593130	-1.988824	-1.443503	99
Es	3.116765	1.230926	0.174774	99
Es	-1.029596	-1.148549	0.842087	99
Es	-0.530624	-2.136092	-0.713304	99
47
Properties=species:S:1:pos:R:3:Z:I:1 energy=-305.32399757272196 field_type=dipole dipole="0.000000 0.000000 0.000000" charge=0
C	-0.530603	-2.136116	-0.713319	6
C	-1.105063	-0.989446	0.108881	6
C	-0.426993	0.355564	-0.193269	6
C	-1.139973	1.489184	0.541741	6
N	0.963727	0.313244	0.230431	7
C	1.930777	1.100774	-0.298279	6
N	3.117187	1.231214	0.174621	7
H	-1.076793	-3.060756	-0.501279	1
H	0.523787	-2.308676	-0.477429	1
H	-0.615833	-1.930736	-1.784969	1
H	-1.011423	-1.234086	1.174541	1
H	-2.177723	-0.913466	-0.108259	1
H	-0.482103	0.544674	-1.272599	1
H	-1.105643	1.344504	1.627320	1
H	-2.190223	1.550694	0.238461	1
H	-0.670243	2.454214	0.322441	1
H	1.142897	-0.104026	1.135521	1
H	1.630077	1.651754	-1.205679	1
H	3.224167	0.641484	1.001131	1
Es	0.374723	0.340299	0.046570	99
Es	1.118390	0.211038	0.068751	99
Es	1.930591	1.100691	-0.298279	99
Es	-1.139978	1.489180	0.541737	99
Es	3.160157	0.867128	0.681899	99
Es	-0.814323	2.139887	0.388370	99
Es	2.734710	0.957452	-0.159840	99
Es	-0.530624	-2.136090	-0.713301	99
Es	-0.456954	0.486873	-0.931475	99
Es	3.116765	1.230933	0.174771	99
Es	-0.757359	-0.318161	-0.039121	99
Es	-1.862256	1.526730	0.329573	99
Es	-1.109370	1.380661	1.279894	99
Es	-0.907720	-2.761779	-0.566645	99
Es	1.334819	0.722925	0.060637	99
Es	-1.029249	-1.148541	0.841893	99
Es	-0.790661	0.931103	0.180983	99
Es	-0.593677	-1.988858	-1.443353	99
Es	1.064869	0.088429	0.783764	99
Es	0.189042	-2.251044	-0.548472	99
Es	3.388819	1.434673	0.043154	99
Es	1.711978	1.466783	-0.911865	99
Es	0.963671	0.313875	0.230705	99
Es	-0.426835	0.355561	-0.193181	99
Es	-1.105035	-0.989441	0.108861	99
Es	-1.841931	-0.930278	-0.042922	99
Es	2.565491	1.390533	0.159304	99
Es	-0.810431	-1.558893	-0.304150	99
47
Properties=species:S:1:pos:R:3:Z:I:1 energy=-305.32399757272196 field_type=dipole dipole="0.000000 0.000000 0.000000" charge=0
C	-0.530603	-2.136116	-0.713319	6
C	-1.105063	-0.989446	0.108881	6
C	-0.426993	0.355564	-0.193269	6
C	-1.139973	1.489184	0.541741	6
N	0.963727	0.313244	0.230431	7
C	1.930777	1.100774	-0.298279	6
N	3.117187	1.231214	0.174621	7
H	-1.076793	-3.060756	-0.501279	1
H	0.523787	-2.308676	-0.477429	1
H	-0.615833	-1.930736	-1.784969	1
H	-1.011423	-1.234086	1.174541	1
H	-2.177723	-0.913466	-0.108259	1
H	-0.482103	0.544674	-1.272599	1
H	-1.105643	1.344504	1.627320	1
H	-2.190223	1.550694	0.238461	1
H	-0.670243	2.454214	0.322441	1
H	1.142897	-0.104026	1.135521	1
H	1.630077	1.651754	-1.205679	1
H	3.224167	0.641484	1.001131	1
Es	0.963700	0.314038	0.230750	99
Es	-0.814180	2.139482	0.388292	99
Es	-1.028940	-1.148660	0.841781	99
Es	2.734297	0.957002	-0.159407	99
Es	-1.139976	1.489177	0.541737	99
Es	1.712022	1.466606	-0.911924	99
Es	1.930594	1.100689	-0.298280	99
Es	-0.790796	0.931118	0.181297	99
Es	-0.530625	-2.136092	-0.713302	99
Es	-0.757281	-0.318296	-0.039052	99
Es	0.189414	-2.251024	-0.548185	99
Es	1.065231	0.087615	0.783305	99
Es	0.374772	0.339379	0.045865	99
Es	1.117504	0.213253	0.070148	99
Es	-1.862668	1.526720	0.329419	99
Es	3.160255	0.867639	0.681970	99
Es	-0.457211	0.486918	-0.931434	99
Es	3.116761	1.230927	0.174774	99
Es	1.335449	0.722505	0.060291	99
Es	-0.426834	0.355560	-0.193180	99
Es	-1.842355	-0.930296	-0.043195	99
Es	-0.810378	-1.558757	-0.304291	99
Es	3.388936	1.434582	0.042676	99
Es	-0.593892	-1.988847	-1.443262	99
Es	2.565713	1.390555	0.159488	99
Es	-0.907852	-2.761435	-0.566669	99
Es	-1.109007	1.380752	1.279789	99
Es	-1.105032	-0.989440	0.108862	99
47
Properties=species:S:1:pos:R:3:Z:I:1 energy=-305.32399757272196 field_type=dipole dipole="0.000000 0.000000 0.000000" charge=0
C	-0.530603	-2.136116	-0.713319	6
C	-1.105063	-0.989446	0.108881	6
C	-0.426993	0.355564	-0.193269	6
C	-1.139973	1.489184	0.541741	6
N	0.963727	0.313244	0.230431	7
C	1.930777	1.100774	-0.298279	6
N	3.117187	1.231214	0.174621	7
H	-1.076793	-3.060756	-0.501279	1
H	0.523787	-2.308676	-0.477429	1
H	-0.615833	-1.930736	-1.784969	1
H	-1.011423	-1.234086	1.174541	1
H	-2.177723	-0.913466	-0.108259	1
H	-0.482103	0.544674	-1.272599	1
H	-1.105643	1.344504	1.627320	1
H	-2.190223	1.550694	0.238461	1
H	-0.670243	2.454214	0.322441	1
H	1.142897	-0.104026	1.135521	1
H	1.630077	1.651754	-1.205679	1
H	3.224167	0.641484	1.001131	1
Es	2.733160	0.956971	-0.160109	99
Es	0.189706	-2.251099	-0.548144	99
Es	3.160814	0.867231	0.681329	99
Es	-1.028685	-1.148554	0.841652	99
Es	1.930594	1.100690	-0.298281	99
Es	-1.105034	-0.989439	0.108860	99
Es	3.116777	1.230930	0.174780	99
Es	-0.530626	-2.136090	-0.713300	99
Es	-0.814233	2.139302	0.388628	99
Es	1.065403	0.088903	0.783613	99
Es	-0.457263	0.486786	-0.931367	99
Es	-1.139977	1.489179	0.541736	99
Es	0.963663	0.313791	0.230675	99
Es	-0.594098	-1.988957	-1.443125	99
Es	0.374780	0.337850	0.044749	99
Es	3.388651	1.434797	0.042872	99
Es	-1.862976	1.526704	0.329279	99
Es	-0.426836	0.355560	-0.193182	99
Es	1.712020	1.466589	-0.911910	99
Es	1.339406	0.719061	0.055214	99
Es	2.566557	1.390699	0.160878	99
Es	-0.907935	-2.761150	-0.566651	99
Es	-0.810357	-1.558673	-0.304282	99
Es	-1.842670	-0.930303	-0.043258	99
Es	1.113530	0.217227	0.075925	99
Es	-0.790666	0.931377	0.181312	99
Es	-1.108877	1.380692	1.279529	99
Es	-0.757205	-0.318406	-0.039160	99
47
Properties=species:S:1:pos:R:3:Z:I:1 energy=-305.32399757272196 field_type=dipole dipole="0.000000 0.000000 0.000000" charge=0
C	-0.530603	-2.136116	-0.713319	6
C	-1.105063	-0.989446	0.108881	6
C	-0.426993	0.355564	-0.193269	6
C	-1.139973	1.489184	0.541741	6
N	0.963727	0.313244	0.230431	7
C	1.930777	1.100774	-0.298279	6
N	3.117187	1.231214	0.174621	7
H	-1.076793	-3.060756	-0.501279	1
H	0.523787	-2.308676	-0.477429	1
H	-0.615833	-1.930736	-1.784969	1
H	-1.011423	-1.234086	1.174541	1
H	-2.177723	-0.913466	-0.108259	1
H	-0.482103	0.544674	-1.272599	1
H	-1.105643	1.344504	1.627320	1
H	-2.190223	1.550694	0.238461	1
H	-0.670243	2.454214	0.322441	1
H	1.142897	-0.104026	1.135521	1
H	1.630077	1.651754	-1.205679	1
H	3.224167	0.641484	1.001131	1
Es	-0.594197	-1.988881	-1.442877	99
Es	-1.863300	1.526648	0.329137	99
Es	-0.810394	-1.558687	-0.304283	99
Es	1.711937	1.466527	-0.911879	99
Es	-0.757238	-0.318431	-0.039066	99
Es	-0.457416	0.486758	-0.931339	99
Es	-1.842918	-0.930379	-0.043418	99
Es	1.340785	0.717912	0.053997	99
Es	0.190030	-2.251118	-0.547968	99
Es	-0.790600	0.931556	0.181413	99
Es	1.112047	0.217959	0.077577	99
Es	-0.426834	0.355560	-0.193183	99
Es	-1.108570	1.380755	1.279440	99
Es	3.388883	1.434696	0.043245	99
Es	-0.814186	2.138973	0.388603	99
Es	0.374897	0.337546	0.044310	99
Es	1.930592	1.100689	-0.298280	99
Es	2.733598	0.956352	-0.160214	99
Es	0.963939	0.314479	0.230728	99
Es	3.160300	0.867814	0.681543	99
Es	-1.105034	-0.989441	0.108861	99
Es	-1.139977	1.489180	0.541736	99
Es	-1.028526	-1.148537	0.841542	99
Es	3.116766	1.230943	0.174759	99
Es	-0.908094	-2.760941	-0.566842	99
Es	2.566448	1.390796	0.160493	99
Es	1.065312	0.089032	0.783527	99
Es	-0.530625	-2.136090	-0.713301	99
47
Properties=species:S:1:pos:R:3:Z:I:1 energy=-305.32399757272196 field_type=dipole dipole="0.000000 0.000000 0.000000" charge=0
C	-0.530603	-2.136116	-0.713319	6
C	-1.105063	-0.989446	0.108881	6
C	-0.426993	0.355564	-0.193269	6
C	-1.139973	1.489184	0.541741	6
N	0.963727	0.313244	0.230431	7
C	1.930777	1.100774	-0.298279	6
N	3.117187	1.231214	0.174621	7
H	-1.076793	-3.060756	-0.501279	1
H	0.523787	-2.308676	-0.477429	1
H	-0.615833	-1.930736	-1.784969	1
H	-1.011423	-1.234086	1.174541	1
H	-2.177723	-0.913466	-0.108259	1
H	-0.482103	0.544674	-1.272599	1
H	-1.105643	1.344504	1.627320	1
H	-2.190223	1.550694	0.238461	1
H	-0.670243	2.454214	0.322441	1
H	1.142897	-0.104026	1.135521	1
H	1.630077	1.651754	-1.205679	1
H	3.224167	0.641484	1.001131	1
Es	-0.810378	-1.558645	-0.304293	99
Es	-1.028302	-1.148512	0.841433	99
Es	0.963687	0.313978	0.230734	99
Es	0.374976	0.336857	0.043795	99
Es	-1.139977	1.489180	0.541736	99
Es	2.568163	1.391513	0.161397	99
Es	-0.757217	-0.318577	-0.039121	99
Es	1.711987	1.466443	-0.911848	99
Es	-0.426831	0.355559	-0.193180	99
Es	0.190304	-2.251019	-0.547908	99
Es	1.341372	0.717499	0.053413	99
Es	-1.843194	-0.930434	-0.043546	99
Es	-1.105035	-0.989441	0.108861	99
Es	-1.108364	1.380812	1.279328	99
Es	-0.814218	2.138730	0.388675	99
Es	3.116771	1.230935	0.174773	99
Es	-0.457492	0.486777	-0.931282	99
Es	3.160334	0.868049	0.681461	99
Es	-0.790584	0.931510	0.181368	99
Es	-0.908063	-2.760702	-0.566731	99
Es	-0.594493	-1.988984	-1.442820	99
Es	1.065358	0.088977	0.783398	99
Es	-0.530624	-2.136090	-0.713301	99
Es	-1.863516	1.526761	0.329179	99
Es	1.111616	0.219729	0.078709	99
Es	3.389168	1.433995	0.042725	99
Es	2.731580	0.956089	-0.160407	99
Es	1.930596	1.100681	-0.298286	99
47
Properties=species:S:1:pos:R:3:Z:I:1 energy=-305.32399757272196 field_type=dipole dipole="0.000000 0.000000 0.000000" charge=0
C	-0.530603	-2.136116	-0.713319	6
C	-1.105063	-0.989446	0.108881	6
C	-0.426993	0.355564	-0.193269	6
C	-1.139973	1.489184	0.541741	6
N	0.963727	0.313244	0.230431	7
C	1.930777	1.100774	-0.298279	6
N	3.117187	1.231214	0.174621	7
H	-1.076793	-3.060756	-0.501279	1
H	0.523787	-2.308676	-0.477429	1
H	-0.615833	-1.930736	-1.784969	1
H	-1.011423	-1.234086	1.174541	1
H	-2.177723	-0.913466	-0.108259	1
H	-0.482103	0.544674	-1.272599	1
H	-1.105643	1.344504	1.627320	1
H	-2.190223	1.550694	0.238461	1
H	-0.670243	2.454214	0.322441	1
H	1.142897	-0.104026	1.135521	1
H	1.630077	1.651754	-1.205679	1
H	3.224167	0.641484	1.001131	1
Es	-1.139977	1.489179	0.541736	99
Es	-0.908191	-2.760631	-0.566902	99
Es	-1.105034	-0.989442	0.108862	99
Es	1.342585	0.716014	0.051504	99
Es	2.732493	0.955907	-0.160400	99
Es	-1.108356	1.380831	1.279214	99
Es	-1.028209	-1.148532	0.841361	99
Es	-0.790591	0.931586	0.181547	99
Es	-0.530624	-2.136090	-0.713302	99
Es	-0.810438	-1.558667	-0.304251	99
Es	-0.814078	2.138556	0.388759	99
Es	-0.457537	0.486773	-0.931195	99
Es	1.930593	1.100691	-0.298279	99
Es	-1.863662	1.526785	0.328976	99
Es	-0.426834	0.355560	-0.193182	99
Es	3.388267	1.434583	0.042750	99
Es	0.374975	0.335957	0.043310	99
Es	1.110209	0.220459	0.080815	99
Es	-1.843342	-0.930426	-0.043641	99
Es	-0.757159	-0.318665	-0.039159	99
Es	0.190488	-2.251032	-0.547835	99
Es	3.116757	1.230926	0.174776	99
Es	3.161313	0.868086	0.681339	99
Es	0.963898	0.314338	0.230723	99
Es	1.065425	0.090272	0.783607	99
Es	1.712003	1.466458	-0.911827	99
Es	2.567178	1.391053	0.161578	99
Es	-0.594527	-1.988860	-1.442621	99
47
Properties=species:S:1:pos:R:3:Z:I:1 energy=-305.32399757272196 field_type=dipole dipole="0.000000 0.000000 0.000000" charge=0
C	-0.530603	-2.136116	-0.713319	6
C	-1.105063	-0.989446	0.108881	6
C	-0.426993	0.355564	-0.193269	6
C	-1.139973	1.489184	0.541741	6
N	0.963727	0.313244	0.230431	7
C	1.930777	1.100774	-0.298279	6
N	3.117187	1.231214	0.174621	7
H	-1.076793	-3.060756	-0.501279	1
H	0.523787	-2.308676	-0.477429	1
H	-0.615833	-1.930736	-1.784969	1
H	-1.011423	-1.234086	1.174541	1
H	-2.177723	-0.913466	-0.108259	1
H	-0.482103	0.544674	-1.272599	1
H	-1.105643	1.344504	1.627320	1
H	-2.190223	1.550694	0.238461	1
H	-0.670243	2.454214	0.322441	1
H	1.142897	-0.104026	1.135521	1
H	1.630077	1.651754	-1.205679	1
H	3.224167	0.641484	1.001131	1
Es	-1.863850	1.526683	0.328802	99
Es	1.110496	0.220858	0.080390	99
Es	-1.028028	-1.148566	0.841280	99
Es	0.190721	-2.250867	-0.547787	99
Es	-0.790677	0.931812	0.181730	99
Es	0.963909	0.314416	0.230739	99
Es	1.065586	0.089572	0.783323	99
Es	-1.105034	-0.989440	0.108862	99
Es	-0.426833	0.355562	-0.193183	99
Es	-0.530624	-2.136094	-0.713302	99
Es	-0.908137	-2.760498	-0.566851	99
Es	2.732703	0.955710	-0.160270	99
Es	-0.814129	2.138294	0.388735	99
Es	3.116737	1.230915	0.174792	99
Es	-0.757117	-0.318631	-0.039164	99
Es	1.712047	1.466329	-0.911853	99
Es	3.160402	0.868345	0.681354	99
Es	-0.810450	-1.558548	-0.304316	99
Es	1.930593	1.100690	-0.298280	99
Es	-1.843544	-0.930559	-0.043767	99
Es	-1.108097	1.380823	1.279260	99
Es	1.342137	0.716390	0.052296	99
Es	2.567145	1.391118	0.161212	99
Es	3.389023	1.434509	0.043036	99
Es	-0.594732	-1.988975	-1.442512	99
Es	0.375013	0.335884	0.043206	99
Es	-1.139976	1.489178	0.541736	99
Es	-0.457659	0.486757	-0.931208	99
47
Properties=species:S:1:pos:R:3:Z:I:1 energy=-305.32399757272196 field_type=dipole dipole="0.000000 0.000000 0.000000" charge=0
C	-0.530603	-2.136116	-0.713319	6
C	-1.105063	-0.989446	0.108881	6
C	-0.426993	0.355564	-0.193269	6
C	-1.139973	1.489184	0.541741	6
N	0.963727	0.313244	0.230431	7
C	1.930777	1.100774	-0.298279	6
N	3.117187	1.231214	0.174621	7
H	-1.076793	-3.060756	-0.501279	1
H	0.523787	-2.308676	-0.477429	1
H	-0.615833	-1.930736	-1.784969	1
H	-1.011423	-1.234086	1.174541	1
H	-2.177723	-0.913466	-0.108259	1
H	-0.482103	0.544674	-1.272599	1
H	-1.105643	1.344504	1.627320	1
H	-2.190223	1.550694	0.238461	1
H	-0.670243	2.454214	0.322441	1
H	1.142897	-0.104026	1.135521	1
H	1.630077	1.651754	-1.205679	1
H	3.224167	0.641484	1.001131	1
Es	-1.107971	1.381007	1.279084	99
Es	1.343062	0.715582	0.051103	99
Es	-0.908201	-2.760307	-0.566747	99
Es	1.109879	0.222499	0.081907	99
Es	-0.757039	-0.318686	-0.039084	99
Es	-0.457651	0.486657	-0.931144	99
Es	-1.139977	1.489180	0.541736	99
Es	3.161018	0.868459	0.681284	99
Es	2.732025	0.955447	-0.160474	99
Es	0.190844	-2.250890	-0.547723	99
Es	-0.426834	0.355560	-0.193182	99
Es	-1.105033	-0.989441	0.108860	99
Es	0.963649	0.313602	0.230619	99
Es	3.388556	1.434628	0.042799	99
Es	1.712009	1.466320	-0.911833	99
Es	-0.594864	-1.989042	-1.442514	99
Es	-1.864055	1.526686	0.328809	99
Es	1.930593	1.100690	-0.298280	99
Es	-0.530623	-2.136091	-0.713301	99
Es	-0.810414	-1.558620	-0.304375	99
Es	-0.814114	2.138105	0.388742	99
Es	2.567677	1.391039	0.161812	99
Es	1.065552	0.090216	0.783412	99
Es	-1.843648	-0.930501	-0.043798	99
Es	3.116764	1.230928	0.174780	99
Es	-1.028022	-1.148566	0.841151	99
Es	-0.790604	0.931904	0.181805	99
Es	0.375045	0.335303	0.042813	99
47
Properties=species:S:1:pos:R:3:Z:I:1 energy=-305.32399757272196 field_type=dipole dipole="0.000000 0.000000 0.000000" charge=0
C	-0.530603	-2.136116	-0.713319	6
C	-1.105063	-0.989446	0.108881	6
C	-0.426993	0.355564	-0.193269	6
C	-1.139973	1.489184	0.541741	6
N	0.963727	0.313244	0.230431	7
C	1.930777	1.100774	-0.298279	6
N	3.117187	1.231214	0.174621	7
H	-1.076793	-3.060756	-0.501279	1
H	0.523787	-2.308676	-0.477429	1
H	-0.615833	-1.930736	-1.784969	1
H	-1.011423	-1.234086	1.174541	1
H	-2.177723	-0.913466	-0.108259	1
H	-0.482103	0.544674	-1.272599	1
H	-1.105643	1.344504	1.627320	1
H	-2.190223	1.550694	0.238461	1
H	-0.670243	2.454214	0.322441	1
H	1.142897	-0.104026	1.135521	1
H	1.630077	1.651754	-1.205679	1
H	3.224167	0.641484	1.001131	1
Es	0.375054	0.335151	0.042761	99
Es	-0.810467	-1.558690	-0.304362	99
Es	2.733127	0.955199	-0.160354	99
Es	-1.139977	1.489179	0.541736	99
Es	1.110092	0.222783	0.081899	99
Es	1.065531	0.090370	0.783346	99
Es	-0.908239	-2.760201	-0.566875	99
Es	-1.864132	1.526616	0.328703	99
Es	3.388939	1.434992	0.043245	99
Es	3.116763	1.230917	0.174775	99
Es	-0.530624	-2.136091	-0.713302	99
Es	-0.790628	0.931926	0.181867	99
Es	-1.027804	-1.148513	0.841153	99
Es	-0.594915	-1.988916	-1.442456	99
Es	1.342828	0.715797	0.051454	99
Es	0.963714	0.313241	0.230410	99
Es	-0.757042	-0.318818	-0.039155	99
Es	1.711984	1.466313	-0.911786	99
Es	-0.457723	0.486675	-0.931182	99
Es	0.190957	-2.250887	-0.547576	99
Es	1.930593	1.100690	-0.298280	99
Es	-1.107904	1.380952	1.279051	99
Es	-0.814082	2.138041	0.388773	99
Es	-1.105035	-0.989441	0.108859	99
Es	-0.426834	0.355560	-0.193181	99
Es	-1.843805	-0.930486	-0.043837	99
Es	3.160397	0.868676	0.681268	99
Es	2.566853	1.390634	0.161304	99
47
Properties=species:S:1:pos:R:3:Z:I:1 energy=-305.32399757272196 field_type=dipole dipole="0.000000 0.000000 0.000000" charge=0
C	-0.530603	-2.136116	-0.713319	6
C	-1.105063	-0.989446	0.108881	6
C	-0.426993	0.355564	-0.193269	6
C	-1.139973	1.489184	0.541741	6
N	0.963727	0.313244	0.230431	7
C	1.930777	1.100774	-0.298279	6
N	3.117187	1.231214	0.174621	7
H	-1.076793	-3.060756	-0.501279	1
H	0.523787	-2.308676	-0.477429	1
H	-0.615833	-1.930736	-1.784969	1
H	-1.011423	-1.234086	1.174541	1
H	-2.177723	-0.913466	-0.108259	1
H	-0.482103	0.544674	-1.272599	1
H	-1.105643	1.344504	1.627320	1
H	-2.190223	1.550694	0.238461	1
H	-0.670243	2.454214	0.322441	1
H	1.142897	-0.104026	1.135521	1
H	1.630077	1.651754	-1.205679	1
H	3.224167	0.641484	1.001131	1
Es	3.388827	1.434956	0.043200	99
Es	-0.810478	-1.558681	-0.304279	99
Es	1.065575	0.090388	0.783374	99
Es	-1.139977	1.489180	0.541736	99
Es	1.108774	0.222970	0.083117	99
Es	1.343762	0.714821	0.050384	99
Es	-0.457814	0.486624	-0.931126	99
Es	1.930594	1.100690	-0.298281	99
Es	-0.595073	-1.988912	-1.442340	99
Es	-0.530624	-2.136090	-0.713302	99
Es	3.116770	1.230946	0.174755	99
Es	-1.843913	-0.930592	-0.043910	99
Es	1.711949	1.466233	-0.911796	99
Es	-0.814089	2.137903	0.388836	99
Es	2.567106	1.390825	0.161712	99
Es	0.375219	0.334658	0.042250	99
Es	-1.107773	1.380938	1.278972	99
Es	3.160658	0.868723	0.681063	99
Es	2.732704	0.955038	-0.160439	99
Es	0.964030	0.314509	0.230688	99
Es	0.191127	-2.250873	-0.547594	99
Es	-0.756967	-0.318764	-0.039177	99
Es	-1.864252	1.526712	0.328752	99
Es	-0.426834	0.355559	-0.193181	99
Es	-1.105034	-0.989440	0.108860	99
Es	-0.908242	-2.760083	-0.566898	99
Es	-1.027741	-1.148515	0.841067	99
Es	-0.790661	0.931945	0.181818	99
47
Properties=species:S:1:pos:R:3:Z:I:1 energy=-305.32399757272196 field_type=dipole dipole="0.000000 0.000000 0.000000" charge=0
C	-0.530603	-2.136116	-0.713319	6
C	-1.105063	-0.989446	0.108881	6
C	-0.426993	0.355564	-0.193269	6
C	-1.139973	1.489184	0.541741	6
N	0.963727	0.313244	0.230431	7
C	1.930777	1.100774	-0.298279	6
N	3.117187	1.231214	0.174621	7
H	-1.076793	-3.060756	-0.501279	1
H	0.523787	-2.308676	-0.477429	1
H	-0.615833	-1.930736	-1.784969	1
H	-1.011423	-1.234086	1.174541	1
H	-2.177723	-0.913466	-0.108259	1
H	-0.482103	0.544674	-1.272599	1
H	-1.105643	1.344504	1.627320	1
H	-2.190223	1.550694	0.238461	1
H	-0.670243	2.454214	0.322441	1
H	1.142897	-0.104026	1.135521	1
H	1.630077	1.651754	-1.205679	1
H	3.224167	0.641484	1.001131	1
Es	0.191247	-2.250900	-0.547427	99
Es	2.732631	0.955052	-0.160311	99
Es	2.567163	1.390576	0.161704	99
Es	-0.530624	-2.136090	-0.713302	99
Es	-0.457862	0.486747	-0.931141	99
Es	3.116766	1.230935	0.174785	99
Es	-0.595155	-1.988885	-1.442320	99
Es	1.110090	0.221730	0.081752	99
Es	-0.426833	0.355560	-0.193181	99
Es	3.389269	1.435151	0.043270	99
Es	-1.105034	-0.989441	0.108860	99
Es	0.375115	0.334601	0.042505	99
Es	-0.814007	2.137712	0.388810	99
Es	-1.107654	1.380914	1.278978	99
Es	-1.844029	-0.930591	-0.044069	99
Es	-0.810376	-1.558687	-0.304366	99
Es	1.342572	0.715541	0.051324	99
Es	-0.790655	0.931979	0.181901	99
Es	1.065629	0.091164	0.783455	99
Es	-1.027679	-1.148555	0.841027	99
Es	1.712019	1.466283	-0.911768	99
Es	-0.908351	-2.759883	-0.566883	99
Es	1.930594	1.100691	-0.298280	99
Es	-1.864355	1.526732	0.328616	99
Es	-0.757031	-0.318894	-0.039075	99
Es	0.963918	0.314360	0.230752	99
Es	-1.139977	1.489180	0.541736	99
Es	3.160235	0.868688	0.680909	99
47
Properties=species:S:1:pos:R:3:Z:I:1 energy=-305.32399757272196 field_type=dipole dipole="0.000000 0.000000 0.000000" charge=0
C	-0.530603	-2.136116	-0.713319	6
C	-1.105063	-0.989446	0.108881	6
C	-0.426993	0.355564	-0.193269	6
C	-1.139973	1.489184	0.541741	6
N	0.963727	0.313244	0.230431	7
C	1.930777	1.100774	-0.298279	6
N	3.117187	1.231214	0.174621	7
H	-1.076793	-3.060756	-0.501279	1
H	0.523787	-2.308676	-0.477429	1
H	-0.615833	-1.930736	-1.784969	1
H	-1.011423	-1.234086	1.174541	1
H	-2.177723	-0.913466	-0.108259	1
H	-0.482103	0.544674	-1.272599	1
H	-1.105643	1.344504	1.627320	1
H	-2.190223	1.550694	0.238461	1
H	-0.670243	2.454214	0.322441	1
H	1.142897	-0.104026	1.135521	1
H	1.630077	1.651754	-1.205679	1
H	3.224167	0.641484	1.001131	1
Es	-0.908426	-2.759948	-0.566963	99
Es	-1.027642	-1.148542	0.840936	99
Es	-0.426834	0.355559	-0.193180	99
Es	1.065525	0.091423	0.783547	99
Es	1.344199	0.714137	0.049643	99
Es	0.963692	0.313927	0.230714	99
Es	-1.107701	1.380960	1.278850	99
Es	1.108745	0.223817	0.083979	99
Es	-0.756977	-0.318859	-0.039128	99
Es	1.930593	1.100689	-0.298280	99
Es	2.565627	1.390338	0.161322	99
Es	-1.105034	-0.989441	0.108860	99
Es	0.375240	0.334190	0.041849	99
Es	2.734550	0.954677	-0.160583	99
Es	3.388374	1.435573	0.043858	99
Es	-0.790642	0.932156	0.181952	99
Es	3.160772	0.868876	0.681036	99
Es	-0.457797	0.486588	-0.931045	99
Es	1.711936	1.466258	-0.911740	99
Es	-1.844095	-0.930724	-0.044072	99
Es	-0.814015	2.137733	0.388903	99
Es	0.191301	-2.250849	-0.547433	99
Es	-0.595091	-1.988888	-1.442174	99
Es	-0.530624	-2.136090	-0.713301	99
Es	-1.139977	1.489179	0.541736	99
Es	3.116765	1.230919	0.174772	99
Es	-1.864423	1.526604	0.328528	99
Es	-0.810419	-1.558592	-0.304323	99
47
Properties=species:S:1:pos:R:3:Z:I:1 energy=-305.32399757272196 field_type=dipole dipole="0.000000 0.000000 0.000000" charge=0
C	-0.530603	-2.136116	-0.713319	6
C	-1.105063	-0.989446	0.108881	6
C	-0.426993	0.355564	-0.193269	6
C	-1.139973	1.489184	0.541741	6
N	0.963727	0.313244	0.230431	7
C	1.930777	1.100774	-0.298279	6
N	3.117187	1.231214	0.174621	7
H	-1.076793	-3.060756	-0.501279	1
H	0.523787	-2.308676	-0.477429	1
H	-0.615833	-1.930736	-1.784969	1
H	-1.011423	-1.234086	1.174541	1
H	-2.177723	-0.913466	-0.108259	1
H	-0.482103	0.544674	-1.272599	1
H	-1.105643	1.344504	1.627320	1
H	-2.190223	1.550694	0.238461	1
H	-0.670243	2.454214	0.322441	1
H	1.142897	-0.104026	1.135521	1
H	1.630077	1.651754	-1.205679	1
H	3.224167	0.641484	1.001131	1
Es	0.963886	0.314432	0.230761	99
Es	1.711992	1.466232	-0.911742	99
Es	-1.844151	-0.930638	-0.044126	99
Es	-1.027575	-1.148436	0.840963	99
Es	-0.756959	-0.318974	-0.039204	99
Es	0.191459	-2.250667	-0.547356	99
Es	1.930591	1.100691	-0.298279	99
Es	1.344269	0.714172	0.049680	99
Es	2.733186	0.954697	-0.160656	99
Es	3.160736	0.868912	0.681034	99
Es	3.116747	1.230921	0.174776	99
Es	-0.908490	-2.759881	-0.566862	99
Es	-0.530625	-2.136090	-0.713301	99
Es	2.566815	1.390567	0.161754	99
Es	-1.864490	1.526621	0.328464	99
Es	1.108475	0.223584	0.084004	99
Es	-1.139977	1.489180	0.541736	99
Es	3.388600	1.435284	0.043537	99
Es	-1.107599	1.380975	1.278868	99
Es	-0.426834	0.355560	-0.193182	99
Es	-0.810395	-1.558773	-0.304521	99
Es	1.065546	0.091260	0.783321	99
Es	0.375225	0.334040	0.041936	99
Es	-0.790540	0.932284	0.181882	99
Es	-0.595211	-1.988955	-1.442085	99
Es	-0.457837	0.486539	-0.931014	99
Es	-0.814185	2.137571	0.389014	99
Es	-1.105034	-0.989441	0.108860	99
47
Properties=species:S:1:pos:R:3:Z:I:1 energy=-305.32399757272196 field_type=dipole dipole="0.000000 0.000000 0.000000" charge=0
C	-0.530603	-2.136116	-0.713319	6
C	-1.105063	-0.989446	0.108881	6
C	-0.426993	0.355564	-0.193269	6
C	-1.139973	1.489184	0.541741	6
N	0.963727	0.313244	0.230431	7
C	1.930777	1.100774	-0.298279	6
N	3.117187	1.231214	0.174621	7
H	-1.076793	-3.060756	-0.501279	1
H	0.523787	-2.308676	-0.477429	1
H	-0.615833	-1.930736	-1.784969	1
H	-1.011423	-1.234086	1.174541	1
H	-2.177723	-0.913466	-0.108259	1
H	-0.482103	0.544674	-1.272599	1
H	-1.105643	1.344504	1.627320	1
H	-2.190223	1.550694	0.238461	1
H	-0.670243	2.454214	0.322441	1
H	1.142897	-0.104026	1.135521	1
H	1.630077	1.651754	-1.205679	1
H	3.224167	0.641484	1.001131	1
Es	3.116779	1.230956	0.174782	99
Es	-1.139977	1.489179	0.541736	99
Es	-0.457815	0.486572	-0.930925	99
Es	2.732205	0.954598	-0.160648	99
Es	-1.105034	-0.989441	0.108860	99
Es	1.930591	1.100692	-0.298278	99
Es	-1.844246	-0.930632	-0.044184	99
Es	-0.530625	-2.136089	-0.713301	99
Es	1.711934	1.466247	-0.911724	99
Es	-0.908345	-2.759762	-0.566997	99
Es	-1.107487	1.381010	1.278797	99
Es	3.161158	0.868947	0.680777	99
Es	-0.426832	0.355560	-0.193184	99
Es	-0.810429	-1.558727	-0.304300	99
Es	0.191490	-2.250797	-0.547377	99
Es	0.375320	0.333508	0.041543	99
Es	2.567434	1.390807	0.162498	99
Es	3.388501	1.435067	0.043108	99
Es	-1.027553	-1.148494	0.840860	99
Es	-0.595310	-1.988878	-1.442111	99
Es	0.964012	0.314566	0.230710	99
Es	-1.864585	1.526634	0.328531	99
Es	-0.790603	0.932319	0.181918	99
Es	1.065534	0.091434	0.783349	99
Es	-0.814100	2.137501	0.388932	99
Es	-0.757028	-0.319017	-0.039134	99
Es	1.344873	0.713559	0.048973	99
Es	1.107762	0.224349	0.085051	99
47
Properties=species:S:1:pos:R:3:Z:I:1 energy=-305.32399757272196 field_type=dipole dipole="0.000000 0.000000 0.000000" charge=0
C	-0.530603	-2.136116	-0.713319	6
C	-1.105063	-0.989446	0.108881	6
C	-0.426993	0.355564	-0.193269	6
C	-1.139973	1.489184	0.541741	6
N	0.963727	0.313244	0.230431	7
C	1.930777	1.100774	-0.298279	6
N	3.117187	1.231214	0.174621	7
H	-1.076793	-3.060756	-0.501279	1
H	0.523787	-2.308676	-0.477429	1
H	-0.615833	-1.930736	-1.784969	1
H	-1.011423	-1.234086	1.174541	1
H	-2.177723	-0.913466	-0.108259	1
H	-0.482103	0.544674	-1.272599	1
H	-1.105643	1.344504	1.627320	1
H	-2.190223	1.550694	0.238461	1
H	-0.670243	2.454214	0.322441	1
H	1.142897	-0.104026	1.135521	1
H	1.630077	1.651754	-1.205679	1
H	3.224167	0.641484	1.001131	1
Es	-0.426834	0.355560	-0.193182	99
Es	-1.844339	-0.930743	-0.044237	99
Es	0.963696	0.313328	0.230463	99
Es	-1.105034	-0.989440	0.108860	99
Es	-0.595390	-1.988944	-1.442136	99
Es	-1.139977	1.489179	0.541736	99
Es	1.109058	0.224587	0.084069	99
Es	-1.864678	1.526674	0.328442	99
Es	-0.530624	-2.136091	-0.713302	99
Es	-0.457975	0.486552	-0.930993	99
Es	0.375370	0.333704	0.041541	99
Es	1.712015	1.466150	-0.911707	99
Es	-0.908351	-2.759680	-0.566902	99
Es	3.116834	1.230962	0.174760	99
Es	-1.107357	1.381039	1.278814	99
Es	1.930593	1.100690	-0.298280	99
Es	2.732761	0.954512	-0.160581	99
Es	2.566992	1.390637	0.162234	99
Es	-1.027390	-1.148447	0.840869	99
Es	1.343916	0.714600	0.050271	99
Es	-0.790636	0.932312	0.182031	99
Es	-0.810403	-1.558720	-0.304418	99
Es	3.160743	0.868973	0.680670	99
Es	0.191567	-2.250653	-0.547244	99
Es	1.065414	0.091349	0.783275	99
Es	-0.757021	-0.319007	-0.039122	99
Es	-0.814096	2.137294	0.388921	99
Es	3.388770	1.435292	0.043406	99
47
Properties=species:S:1:pos:R:3:Z:I:1 energy=-305.32399757272196 field_type=dipole dipole="0.000000 0.000000 0.000000" charge=0
C	-0.530603	-2.136116	-0.713319	6
C	-1.105063	-0.989446	0.108881	6
C	-0.426993	0.355564	-0.193269	6
C	-1.139973	1.489184	0.541741	6
N	0.963727	0.313244	0.230431	7
C	1.930777	1.100774	-0.298279	6
N	3.117187	1.231214	0.174621	7
H	-1.076793	-3.060756	-0.501279	1
H	0.523787	-2.308676	-0.477429	1
H	-0.615833	-1.930736	-1.784969	1
H	-1.011423	-1.234086	1.174541	1
H	-2.177723	-0.913466	-0.108259	1
H	-0.482103	0.544674	-1.272599	1
H	-1.105643	1.344504	1.627320	1
H	-2.190223	1.550694	0.238461	1
H	-0.670243	2.454214	0.322441	1
H	1.142897	-0.104026	1.135521	1
H	1.630077	1.651754	-1.205679	1
H	3.224167	0.641484	1.001131	1
Es	-0.790712	0.932317	0.182133	99
Es	-0.756908	-0.318960	-0.039181	99
Es	1.930593	1.100690	-0.298280	99
Es	1.065577	0.091792	0.783379	99
Es	-1.139976	1.489179	0.541736	99
Es	-1.864737	1.526673	0.328423	99
Es	2.567368	1.390840	0.162519	99
Es	-1.844422	-0.930779	-0.044167	99
Es	3.388825	1.435080	0.043462	99
Es	-0.814022	2.137254	0.388919	99
Es	-0.810431	-1.558711	-0.304481	99
Es	-0.457967	0.486542	-0.931002	99
Es	0.191627	-2.250656	-0.547181	99
Es	1.108195	0.224090	0.084648	99
Es	3.160798	0.868954	0.680584	99
Es	1.344474	0.713717	0.049309	99
Es	1.711986	1.466177	-0.911730	99
Es	0.963948	0.314436	0.230735	99
Es	-0.426835	0.355560	-0.193180	99
Es	-0.908482	-2.759648	-0.566929	99
Es	-0.530624	-2.136091	-0.713302	99
Es	0.375319	0.333510	0.041523	99
Es	-0.595362	-1.988912	-1.442045	99
Es	2.732318	0.954531	-0.160722	99
Es	-1.107339	1.381053	1.278736	99
Es	-1.027317	-1.148491	0.840752	99
Es	-1.105034	-0.989440	0.108860	99
Es	3.116766	1.230961	0.174743	99
47
Properties=species:S:1:pos:R:3:Z:I:1 energy=-305.32399757272196 field_type=dipole dipole="0.000000 0.000000 0.000000" charge=0
C	-0.530603	-2.136116	-0.713319	6
C	-1.105063	-0.989446	0.108881	6
C	-0.426993	0.355564	-0.193269	6
C	-1.139973	1.489184	0.541741	6
N	0.963727	0.313244	0.230431	7
C	1.930777	1.100774	-0.298279	6
N	3.117187	1.231214	0.174621	7
H	-1.076793	-3.060756	-0.501279	1
H	0.523787	-2.308676	-0.477429	1
H	-0.615833	-1.930736	-1.784969	1
H	-1.011423	-1.234086	1.174541	1
H	-2.177723	-0.913466	-0.108259	1
H	-0.482103	0.544674	-1.272599	1
H	-1.105643	1.344504	1.627320	1
H	-2.190223	1.550694	0.238461	1
H	-0.670243	2.454214	0.322441	1
H	1.142897	-0.104026	1.135521	1
H	1.630077	1.651754	-1.205679	1
H	3.224167	0.641484	1.001131	1
Es	0.963811	0.314164	0.230741	99
Es	-0.756982	-0.319010	-0.039165	99
Es	1.107318	0.225638	0.085973	99
Es	-0.595404	-1.988908	-1.441942	99
Es	1.345431	0.713020	0.048261	99
Es	1.711961	1.466200	-0.911694	99
Es	0.191680	-2.250850	-0.547297	99
Es	2.568140	1.391036	0.163080	99
Es	3.388644	1.434957	0.043124	99
Es	-0.790622	0.932208	0.182119	99
Es	-0.426833	0.355560	-0.193181	99
Es	-1.864798	1.526679	0.328488	99
Es	2.731346	0.954444	-0.160848	99
Es	-0.458022	0.486554	-0.930964	99
Es	3.161166	0.868962	0.680538	99
Es	-1.844471	-0.930807	-0.044215	99
Es	0.375399	0.333040	0.041194	99
Es	-0.908531	-2.759548	-0.566993	99
Es	-0.814098	2.137228	0.388991	99
Es	3.116769	1.230935	0.174773	99
Es	-1.107318	1.381125	1.278639	99
Es	-0.530625	-2.136091	-0.713300	99
Es	-1.139977	1.489180	0.541737	99
Es	1.065632	0.091709	0.783286	99
Es	-1.105034	-0.989440	0.108860	99
Es	-1.027273	-1.148427	0.840743	99
Es	1.930593	1.100691	-0.298279	99
Es	-0.810276	-1.558579	-0.304405	99
47
Properties=species:S:1:pos:R:3:Z:I:1 energy=-305.32399757272196 field_type=dipole dipole="0.000000 0.000000 0.000000" charge=0
C	-0.530603	-2.136116	-0.713319	6
C	-1.105063	-0.989446	0.108881	6
C	-0.426993	0.355564	-0.193269	6
C	-1.139973	1.489184	0.541741	6
N	0.963727	0.313244	0.230431	7
C	1.930777	1.100774	-0.298279	6
N	3.117187	1.231214	0.174621	7
H	-1.076793	-3.060756	-0.501279	1
H	0.523787	-2.308676	-0.477429	1
H	-0.615833	-1.930736	-1.784969	1
H	-1.011423	-1.234086	1.174541	1
H	-2.177723	-0.913466	-0.108259	1
H	-0.482103	0.544674	-1.272599	1
H	-1.105643	1.344504	1.627320	1
H	-2.190223	1.550694	0.238461	1
H	-0.670243	2.454214	0.322441	1
H	1.142897	-0.104026	1.135521	1
H	1.630077	1.651754	-1.205679	1
H	3.224167	0.641484	1.001131	1
Es	-0.790765	0.932398	0.182205	99
Es	-1.844457	-0.930665	-0.044416	99
Es	-0.595510	-1.988999	-1.441950	99
Es	-1.864869	1.526663	0.328377	99
Es	-0.530624	-2.136090	-0.713301	99
Es	1.711985	1.466158	-0.911685	99
Es	-1.105034	-0.989440	0.108860	99
Es	0.375401	0.333312	0.041246	99
Es	-1.139977	1.489180	0.541736	99
Es	3.160102	0.868985	0.680533	99
Es	-1.107262	1.381131	1.278605	99
Es	-1.027322	-1.148494	0.840824	99
Es	2.732992	0.954318	-0.160975	99
Es	1.065608	0.091673	0.783307	99
Es	-0.908442	-2.759529	-0.566911	99
Es	-0.457979	0.486448	-0.930897	99
Es	0.963684	0.313919	0.230736	99
Es	3.116823	1.230957	0.174771	99
Es	-0.810399	-1.558579	-0.304413	99
Es	-0.756905	-0.319104	-0.039158	99
Es	2.567037	1.390627	0.162209	99
Es	-0.813982	2.137115	0.388950	99
Es	0.191747	-2.250695	-0.547285	99
Es	3.389115	1.435467	0.044147	99
Es	1.930592	1.100691	-0.298280	99
Es	1.107755	0.225527	0.085524	99
Es	1.345145	0.713136	0.048682	99
Es	-0.426834	0.355560	-0.193181	99
