48
Properties=species:S:1:pos:R:3:Z:I:1 energy=-289.285667725578 field_type=dipole dipole="0.000000 0.000000 0.000000" charge=0
C	-2.317394	-1.657492	1.548308	6
C	-1.190354	-1.578302	0.529168	6
C	-0.687544	-0.143662	0.364068	6
N	0.356106	-0.099532	-0.660822	7
C	0.916046	1.243677	-0.829702	6
C	2.240486	1.563708	-0.197402	6
C	2.139616	1.407917	-1.686632	6
H	-2.657034	-2.691792	1.657368	1
H	-3.172264	-1.051242	1.233238	1
H	-1.986194	-1.302432	2.528938	1
H	-1.552974	-1.966382	-0.431022	1
H	-0.367944	-2.228763	0.851808	1
H	-0.290894	0.216758	1.319998	1
H	-1.520524	0.508478	0.076638	1
H	-0.023824	-0.440532	-1.543612	1
H	0.188216	2.051337	-0.891692	1
H	2.746926	0.783177	0.358538	1
H	2.383886	2.559968	0.202658	1
H	2.213326	2.299858	-2.297032	1
H	2.582336	0.525257	-2.132812	1
Es	-2.900557	-1.240424	1.330934	99
Es	2.139544	1.407927	-1.686472	99
Es	2.434266	0.809137	-1.986590	99
Es	0.916180	1.243565	-0.829706	99
Es	1.496712	1.407658	-0.330483	99
Es	2.579370	1.035646	0.176010	99
Es	-0.414710	0.104568	1.018429	99
Es	0.577119	0.500664	-0.741366	99
Es	-2.087845	-1.412233	2.217214	99
Es	0.416627	1.801175	-0.867313	99
Es	2.372813	1.524516	-0.961491	99
Es	2.335869	2.244483	0.070342	99
Es	0.619134	-0.313347	-0.569503	99
Es	-0.108610	-0.092370	-0.229447	99
Es	-0.628898	-2.020192	0.752018	99
Es	-0.687451	-0.143685	0.363966	99
Es	-1.271359	0.309663	0.167542	99
Es	1.428126	1.289419	-1.420054	99
Es	0.355608	-0.099092	-0.661002	99
Es	-1.759210	-1.612886	1.042327	99
Es	-0.941432	-0.859879	0.444140	99
Es	2.240398	1.563692	-0.197557	99
Es	-2.317379	-1.657491	1.548293	99
Es	-1.190389	-1.578274	0.529186	99
Es	-1.439878	-1.837994	-0.135471	99
Es	0.104113	-0.280734	-1.195893	99
Es	-2.549115	-2.363722	1.622604	99
Es	2.186398	2.016882	-2.098885	99
48
Properties=species:S:1:pos:R:3:Z:I:1 energy=-289.285667725578 field_type=dipole dipole="0.000000 0.000000 0.000000" charge=0
C	-2.317394	-1.657492	1.548308	6
C	-1.190354	-1.578302	0.529168	6
C	-0.687544	-0.143662	0.364068	6
N	0.356106	-0.099532	-0.660822	7
C	0.916046	1.243677	-0.829702	6
C	2.240486	1.563708	-0.197402	6
C	2.139616	1.407917	-1.686632	6
H	-2.657034	-2.691792	1.657368	1
H	-3.172264	-1.051242	1.233238	1
H	-1.986194	-1.302432	2.528938	1
H	-1.552974	-1.966382	-0.431022	1
H	-0.367944	-2.228763	0.851808	1
H	-0.290894	0.216758	1.319998	1
H	-1.520524	0.508478	0.076638	1
H	-0.023824	-0.440532	-1.543612	1
H	0.188216	2.051337	-0.891692	1
H	2.746926	0.783177	0.358538	1
H	2.383886	2.559968	0.202658	1
H	2.213326	2.299858	-2.297032	1
H	2.582336	0.525257	-2.132812	1
Es	0.617547	-0.310685	-0.569388	99
Es	-0.108456	-0.092346	-0.228553	99
Es	0.355639	-0.099120	-0.660998	99
Es	0.577966	0.499633	-0.740930	99
Es	1.496410	1.407662	-0.329126	99
Es	-2.900813	-1.241244	1.330719	99
Es	-1.439972	-1.838026	-0.136842	99
Es	-0.628820	-2.019395	0.752235	99
Es	-2.548897	-2.362247	1.622059	99
Es	2.374392	1.525194	-0.960584	99
Es	0.916177	1.243564	-0.829704	99
Es	2.335959	2.244013	0.070554	99
Es	2.434137	0.809643	-1.986945	99
Es	-2.317379	-1.657490	1.548294	99
Es	-0.414717	0.104543	1.019568	99
Es	0.416827	1.800536	-0.867435	99
Es	2.578997	1.036315	0.175798	99
Es	1.427289	1.289416	-1.422053	99
Es	-2.087787	-1.412307	2.218604	99
Es	0.104692	-0.282141	-1.197915	99
Es	2.139542	1.407927	-1.686466	99
Es	2.186182	2.015592	-2.098482	99
Es	-1.759081	-1.612998	1.042251	99
Es	-1.190390	-1.578272	0.529187	99
Es	-0.941487	-0.860077	0.444214	99
Es	-1.271451	0.308978	0.167303	99
Es	-0.687451	-0.143685	0.363966	99
Es	2.240388	1.563691	-0.197563	99
48
Properties=species:S:1:pos:R:3:Z:I:1 energy=-289.285667725578 field_type=dipole dipole="0.000000 0.000000 0.000000" charge=0
C	-2.317394	-1.657492	1.548308	6
C	-1.190354	-1.578302	0.529168	6
C	-0.687544	-0.143662	0.364068	6
N	0.356106	-0.099532	-0.660822	7
C	0.916046	1.243677	-0.829702	6
C	2.240486	1.563708	-0.197402	6
C	2.139616	1.407917	-1.686632	6
H	-2.657034	-2.691792	1.657368	1
H	-3.172264	-1.051242	1.233238	1
H	-1.986194	-1.302432	2.528938	1
H	-1.552974	-1.966382	-0.431022	1
H	-0.367944	-2.228763	0.851808	1
H	-0.290894	0.216758	1.319998	1
H	-1.520524	0.508478	0.076638	1
H	-0.023824	-0.440532	-1.543612	1
H	0.188216	2.051337	-0.891692	1
H	2.746926	0.783177	0.358538	1
H	2.383886	2.559968	0.202658	1
H	2.213326	2.299858	-2.297032	1
H	2.582336	0.525257	-2.132812	1
Es	2.433934	0.810071	-1.987260	99
Es	-1.190389	-1.578273	0.529187	99
Es	-2.548614	-2.361147	1.621808	99
Es	-1.271637	0.308472	0.167038	99
Es	1.426419	1.289342	-1.422915	99
Es	2.336033	2.243626	0.070585	99
Es	0.104931	-0.282498	-1.198926	99
Es	-0.687450	-0.143686	0.363964	99
Es	2.240398	1.563692	-0.197552	99
Es	-2.087881	-1.412429	2.219409	99
Es	2.578863	1.036649	0.175702	99
Es	0.916184	1.243568	-0.829706	99
Es	0.578322	0.499084	-0.740620	99
Es	-0.108489	-0.092298	-0.228061	99
Es	1.496229	1.407673	-0.328353	99
Es	0.616813	-0.309583	-0.569441	99
Es	2.186062	2.014840	-2.098112	99
Es	-2.317379	-1.657490	1.548293	99
Es	2.139545	1.407927	-1.686473	99
Es	-1.759023	-1.613105	1.042285	99
Es	-2.901118	-1.241837	1.330601	99
Es	2.375668	1.525584	-0.960334	99
Es	-0.414698	0.104591	1.020280	99
Es	-0.628742	-2.018867	0.752229	99
Es	-0.941333	-0.860211	0.444016	99
Es	-1.439909	-1.838052	-0.137432	99
Es	0.355658	-0.099133	-0.660987	99
Es	0.417049	1.800162	-0.867455	99
48
Properties=species:S:1:pos:R:3:Z:I:1 energy=-289.285667725578 field_type=dipole dipole="0.000000 0.000000 0.000000" charge=0
C	-2.317394	-1.657492	1.548308	6
C	-1.190354	-1.578302	0.529168	6
C	-0.687544	-0.143662	0.364068	6
N	0.356106	-0.099532	-0.660822	7
C	0.916046	1.243677	-0.829702	6
C	2.240486	1.563708	-0.197402	6
C	2.139616	1.407917	-1.686632	6
H	-2.657034	-2.691792	1.657368	1
H	-3.172264	-1.051242	1.233238	1
H	-1.986194	-1.302432	2.528938	1
H	-1.552974	-1.966382	-0.431022	1
H	-0.367944	-2.228763	0.851808	1
H	-0.290894	0.216758	1.319998	1
H	-1.520524	0.508478	0.076638	1
H	-0.023824	-0.440532	-1.543612	1
H	0.188216	2.051337	-0.891692	1
H	2.746926	0.783177	0.358538	1
H	2.383886	2.559968	0.202658	1
H	2.213326	2.299858	-2.297032	1
H	2.582336	0.525257	-2.132812	1
Es	2.433974	0.810462	-1.987360	99
Es	1.425671	1.289133	-1.423602	99
Es	2.185950	2.014240	-2.097850	99
Es	2.336062	2.243395	0.070516	99
Es	-0.687452	-0.143685	0.363967	99
Es	-1.439878	-1.838065	-0.137897	99
Es	2.578942	1.037111	0.175517	99
Es	-0.108389	-0.092078	-0.227779	99
Es	-2.087853	-1.412516	2.219959	99
Es	-2.317379	-1.657490	1.548294	99
Es	2.139548	1.407927	-1.686466	99
Es	0.104847	-0.282587	-1.199462	99
Es	-1.190389	-1.578272	0.529186	99
Es	-1.759046	-1.613150	1.042240	99
Es	-0.628621	-2.018493	0.752330	99
Es	2.240401	1.563693	-0.197552	99
Es	-0.941456	-0.860225	0.443902	99
Es	0.579490	0.498623	-0.740484	99
Es	-0.414705	0.104486	1.020791	99
Es	-2.548452	-2.360437	1.621599	99
Es	1.496206	1.407462	-0.327595	99
Es	0.417041	1.799973	-0.867486	99
Es	0.916179	1.243565	-0.829706	99
Es	-2.901270	-1.242195	1.330531	99
Es	-1.271679	0.308205	0.166935	99
Es	0.355637	-0.099129	-0.660991	99
Es	2.376340	1.525883	-0.960126	99
Es	0.615728	-0.309163	-0.569641	99
48
Properties=species:S:1:pos:R:3:Z:I:1 energy=-289.285667725578 field_type=dipole dipole="0.000000 0.000000 0.000000" charge=0
C	-2.317394	-1.657492	1.548308	6
C	-1.190354	-1.578302	0.529168	6
C	-0.687544	-0.143662	0.364068	6
N	0.356106	-0.099532	-0.660822	7
C	0.916046	1.243677	-0.829702	6
C	2.240486	1.563708	-0.197402	6
C	2.139616	1.407917	-1.686632	6
H	-2.657034	-2.691792	1.657368	1
H	-3.172264	-1.051242	1.233238	1
H	-1.986194	-1.302432	2.528938	1
H	-1.552974	-1.966382	-0.431022	1
H	-0.367944	-2.228763	0.851808	1
H	-0.290894	0.216758	1.319998	1
H	-1.520524	0.508478	0.076638	1
H	-0.023824	-0.440532	-1.543612	1
H	0.188216	2.051337	-0.891692	1
H	2.746926	0.783177	0.358538	1
H	2.383886	2.559968	0.202658	1
H	2.213326	2.299858	-2.297032	1
H	2.582336	0.525257	-2.132812	1
Es	1.495966	1.407499	-0.327355	99
Es	-2.901249	-1.242473	1.330550	99
Es	2.240397	1.563692	-0.197554	99
Es	0.916178	1.243564	-0.829705	99
Es	-1.271747	0.307995	0.166906	99
Es	0.105041	-0.282529	-1.200008	99
Es	2.139541	1.407924	-1.686473	99
Es	0.579636	0.498312	-0.740118	99
Es	-0.687450	-0.143685	0.363965	99
Es	2.336129	2.243152	0.070691	99
Es	2.185920	2.013713	-2.097537	99
Es	-1.758903	-1.613223	1.042183	99
Es	-2.087903	-1.412614	2.220405	99
Es	-1.190390	-1.578273	0.529187	99
Es	-0.108503	-0.092152	-0.227695	99
Es	-0.414663	0.104438	1.021099	99
Es	-0.628478	-2.018293	0.752276	99
Es	-1.439993	-1.837924	-0.138261	99
Es	2.578818	1.037213	0.175349	99
Es	-2.317379	-1.657490	1.548294	99
Es	0.355649	-0.099129	-0.660986	99
Es	0.615440	-0.308727	-0.569696	99
Es	0.417125	1.799745	-0.867503	99
Es	1.425191	1.289282	-1.423940	99
Es	-0.941504	-0.860350	0.443945	99
Es	2.433773	0.810640	-1.987609	99
Es	-2.548457	-2.359867	1.621408	99
Es	2.377260	1.526233	-0.960048	99
48
Properties=species:S:1:pos:R:3:Z:I:1 energy=-289.285667725578 field_type=dipole dipole="0.000000 0.000000 0.000000" charge=0
C	-2.317394	-1.657492	1.548308	6
C	-1.190354	-1.578302	0.529168	6
C	-0.687544	-0.143662	0.364068	6
N	0.356106	-0.099532	-0.660822	7
C	0.916046	1.243677	-0.829702	6
C	2.240486	1.563708	-0.197402	6
C	2.139616	1.407917	-1.686632	6
H	-2.657034	-2.691792	1.657368	1
H	-3.172264	-1.051242	1.233238	1
H	-1.986194	-1.302432	2.528938	1
H	-1.552974	-1.966382	-0.431022	1
H	-0.367944	-2.228763	0.851808	1
H	-0.290894	0.216758	1.319998	1
H	-1.520524	0.508478	0.076638	1
H	-0.023824	-0.440532	-1.543612	1
H	0.188216	2.051337	-0.891692	1
H	2.746926	0.783177	0.358538	1
H	2.383886	2.559968	0.202658	1
H	2.213326	2.299858	-2.297032	1
H	2.582336	0.525257	-2.132812	1
Es	-1.271815	0.307799	0.166830	99
Es	-0.108523	-0.091847	-0.227776	99
Es	2.578660	1.037348	0.175283	99
Es	2.336382	2.242959	0.070620	99
Es	-0.628511	-2.018039	0.752357	99
Es	-1.439856	-1.838028	-0.138453	99
Es	-0.687451	-0.143686	0.363966	99
Es	0.580616	0.497969	-0.739851	99
Es	2.377817	1.526434	-0.959893	99
Es	-2.901552	-1.242724	1.330439	99
Es	-2.548142	-2.359436	1.621372	99
Es	-0.414732	0.104413	1.021334	99
Es	2.433708	0.810824	-1.987730	99
Es	0.916179	1.243564	-0.829709	99
Es	2.240402	1.563692	-0.197556	99
Es	2.185855	2.013221	-2.097316	99
Es	1.495977	1.407707	-0.326966	99
Es	0.104969	-0.282330	-1.200317	99
Es	0.417214	1.799582	-0.867600	99
Es	-1.758951	-1.613229	1.042231	99
Es	0.355676	-0.099138	-0.660968	99
Es	-0.941448	-0.860281	0.443871	99
Es	1.424585	1.289259	-1.424294	99
Es	0.614559	-0.308855	-0.569747	99
Es	2.139541	1.407926	-1.686466	99
Es	-1.190390	-1.578273	0.529186	99
Es	-2.317379	-1.657490	1.548294	99
Es	-2.087945	-1.412667	2.220630	99
48
Properties=species:S:1:pos:R:3:Z:I:1 energy=-289.285667725578 field_type=dipole dipole="0.000000 0.000000 0.000000" charge=0
C	-2.317394	-1.657492	1.548308	6
C	-1.190354	-1.578302	0.529168	6
C	-0.687544	-0.143662	0.364068	6
N	0.356106	-0.099532	-0.660822	7
C	0.916046	1.243677	-0.829702	6
C	2.240486	1.563708	-0.197402	6
C	2.139616	1.407917	-1.686632	6
H	-2.657034	-2.691792	1.657368	1
H	-3.172264	-1.051242	1.233238	1
H	-1.986194	-1.302432	2.528938	1
H	-1.552974	-1.966382	-0.431022	1
H	-0.367944	-2.228763	0.851808	1
H	-0.290894	0.216758	1.319998	1
H	-1.520524	0.508478	0.076638	1
H	-0.023824	-0.440532	-1.543612	1
H	0.188216	2.051337	-0.891692	1
H	2.746926	0.783177	0.358538	1
H	2.383886	2.559968	0.202658	1
H	2.213326	2.299858	-2.297032	1
H	2.582336	0.525257	-2.132812	1
Es	2.433728	0.811025	-1.987802	99
Es	0.916180	1.243565	-0.829705	99
Es	2.336358	2.242902	0.070672	99
Es	0.613616	-0.308506	-0.569949	99
Es	-2.548054	-2.359039	1.621291	99
Es	2.578728	1.037536	0.175117	99
Es	-0.941375	-0.860372	0.443896	99
Es	-0.687450	-0.143686	0.363964	99
Es	0.581393	0.497685	-0.739651	99
Es	-1.190390	-1.578273	0.529187	99
Es	2.139543	1.407926	-1.686472	99
Es	1.495767	1.407499	-0.326914	99
Es	2.185866	2.012968	-2.097116	99
Es	-2.087915	-1.412715	2.220890	99
Es	2.378239	1.526586	-0.959604	99
Es	-0.414691	0.104373	1.021551	99
Es	-0.108557	-0.091787	-0.227639	99
Es	-2.901633	-1.242898	1.330395	99
Es	-1.758997	-1.613250	1.042207	99
Es	0.417219	1.799509	-0.867644	99
Es	-2.317381	-1.657490	1.548294	99
Es	-0.628479	-2.017907	0.752395	99
Es	2.240394	1.563692	-0.197558	99
Es	-1.271918	0.307651	0.166769	99
Es	0.105011	-0.282348	-1.200614	99
Es	1.424284	1.289212	-1.424555	99
Es	-1.439840	-1.837941	-0.138718	99
Es	0.355800	-0.099242	-0.660917	99
48
Properties=species:S:1:pos:R:3:Z:I:1 energy=-289.285667725578 field_type=dipole dipole="0.000000 0.000000 0.000000" charge=0
C	-2.317394	-1.657492	1.548308	6
C	-1.190354	-1.578302	0.529168	6
C	-0.687544	-0.143662	0.364068	6
N	0.356106	-0.099532	-0.660822	7
C	0.916046	1.243677	-0.829702	6
C	2.240486	1.563708	-0.197402	6
C	2.139616	1.407917	-1.686632	6
H	-2.657034	-2.691792	1.657368	1
H	-3.172264	-1.051242	1.233238	1
H	-1.986194	-1.302432	2.528938	1
H	-1.552974	-1.966382	-0.431022	1
H	-0.367944	-2.228763	0.851808	1
H	-0.290894	0.216758	1.319998	1
H	-1.520524	0.508478	0.076638	1
H	-0.023824	-0.440532	-1.543612	1
H	0.188216	2.051337	-0.891692	1
H	2.746926	0.783177	0.358538	1
H	2.383886	2.559968	0.202658	1
H	2.213326	2.299858	-2.297032	1
H	2.582336	0.525257	-2.132812	1
Es	-0.687451	-0.143685	0.363966	99
Es	-1.190390	-1.578272	0.529187	99
Es	0.614290	-0.308191	-0.570037	99
Es	-2.547937	-2.358724	1.621212	99
Es	2.240400	1.563694	-0.197552	99
Es	-2.087931	-1.412789	2.221083	99
Es	-1.758930	-1.613277	1.042212	99
Es	0.355628	-0.099100	-0.661005	99
Es	0.916181	1.243565	-0.829706	99
Es	2.578768	1.037725	0.175003	99
Es	2.433752	0.811295	-1.987833	99
Es	-2.317379	-1.657497	1.548294	99
Es	-0.414740	0.104376	1.021702	99
Es	-0.108296	-0.092082	-0.227326	99
Es	2.139540	1.407926	-1.686467	99
Es	-1.439876	-1.837990	-0.138826	99
Es	2.378481	1.526609	-0.959644	99
Es	-0.941452	-0.860401	0.443818	99
Es	1.423768	1.289193	-1.424897	99
Es	1.495661	1.407552	-0.326426	99
Es	2.185968	2.012633	-2.096861	99
Es	0.580651	0.497655	-0.739758	99
Es	0.417321	1.799376	-0.867682	99
Es	0.104953	-0.282428	-1.200748	99
Es	-1.271899	0.307526	0.166731	99
Es	2.336514	2.242784	0.070552	99
Es	-2.901740	-1.243061	1.330402	99
Es	-0.628411	-2.017738	0.752374	99
48
Properties=species:S:1:pos:R:3:Z:I:1 energy=-289.285667725578 field_type=dipole dipole="0.000000 0.000000 0.000000" charge=0
C	-2.317394	-1.657492	1.548308	6
C	-1.190354	-1.578302	0.529168	6
C	-0.687544	-0.143662	0.364068	6
N	0.356106	-0.099532	-0.660822	7
C	0.916046	1.243677	-0.829702	6
C	2.240486	1.563708	-0.197402	6
C	2.139616	1.407917	-1.686632	6
H	-2.657034	-2.691792	1.657368	1
H	-3.172264	-1.051242	1.233238	1
H	-1.986194	-1.302432	2.528938	1
H	-1.552974	-1.966382	-0.431022	1
H	-0.367944	-2.228763	0.851808	1
H	-0.290894	0.216758	1.319998	1
H	-1.520524	0.508478	0.076638	1
H	-0.023824	-0.440532	-1.543612	1
H	0.188216	2.051337	-0.891692	1
H	2.746926	0.783177	0.358538	1
H	2.383886	2.559968	0.202658	1
H	2.213326	2.299858	-2.297032	1
H	2.582336	0.525257	-2.132812	1
Es	-0.687450	-0.143686	0.363966	99
Es	0.105045	-0.282397	-1.200970	99
Es	2.185787	2.012447	-2.096820	99
Es	-0.628293	-2.017573	0.752493	99
Es	-2.087927	-1.412850	2.221279	99
Es	-1.758919	-1.613351	1.042193	99
Es	-0.941725	-0.860506	0.443897	99
Es	-0.414772	0.104433	1.021743	99
Es	0.916180	1.243565	-0.829707	99
Es	-1.190390	-1.578273	0.529186	99
Es	-2.901870	-1.243180	1.330295	99
Es	0.355676	-0.099162	-0.660995	99
Es	2.379156	1.526849	-0.959504	99
Es	2.433632	0.811368	-1.987944	99
Es	0.581747	0.497328	-0.739466	99
Es	2.240398	1.563692	-0.197555	99
Es	2.336426	2.242711	0.070706	99
Es	-0.108381	-0.091905	-0.227427	99
Es	-2.317379	-1.657490	1.548294	99
Es	2.578669	1.037785	0.174951	99
Es	1.423514	1.289181	-1.424831	99
Es	1.495721	1.407445	-0.326751	99
Es	-2.547808	-2.358382	1.621156	99
Es	0.417298	1.799355	-0.867613	99
Es	2.139540	1.407925	-1.686468	99
Es	0.613218	-0.308146	-0.570056	99
Es	-1.271797	0.307510	0.166703	99
Es	-1.439850	-1.838022	-0.138982	99
48
Properties=species:S:1:pos:R:3:Z:I:1 energy=-289.285667725578 field_type=dipole dipole="0.000000 0.000000 0.000000" charge=0
C	-2.317394	-1.657492	1.548308	6
C	-1.190354	-1.578302	0.529168	6
C	-0.687544	-0.143662	0.364068	6
N	0.356106	-0.099532	-0.660822	7
C	0.916046	1.243677	-0.829702	6
C	2.240486	1.563708	-0.197402	6
C	2.139616	1.407917	-1.686632	6
H	-2.657034	-2.691792	1.657368	1
H	-3.172264	-1.051242	1.233238	1
H	-1.986194	-1.302432	2.528938	1
H	-1.552974	-1.966382	-0.431022	1
H	-0.367944	-2.228763	0.851808	1
H	-0.290894	0.216758	1.319998	1
H	-1.520524	0.508478	0.076638	1
H	-0.023824	-0.440532	-1.543612	1
H	0.188216	2.051337	-0.891692	1
H	2.746926	0.783177	0.358538	1
H	2.383886	2.559968	0.202658	1
H	2.213326	2.299858	-2.297032	1
H	2.582336	0.525257	-2.132812	1
Es	-2.088011	-1.412781	2.221357	99
Es	0.105036	-0.282322	-1.201116	99
Es	-0.414737	0.104289	1.021957	99
Es	-0.687451	-0.143685	0.363965	99
Es	-2.901867	-1.243290	1.330212	99
Es	-0.941439	-0.860383	0.443795	99
Es	-0.108465	-0.091715	-0.227434	99
Es	-1.758910	-1.613294	1.042265	99
Es	2.379129	1.526939	-0.959206	99
Es	0.355607	-0.099113	-0.661014	99
Es	-1.439834	-1.837970	-0.139078	99
Es	2.336545	2.242742	0.070739	99
Es	-2.317379	-1.657490	1.548293	99
Es	2.139542	1.407926	-1.686468	99
Es	0.916180	1.243565	-0.829705	99
Es	2.240398	1.563694	-0.197557	99
Es	0.582211	0.497195	-0.739344	99
Es	2.433793	0.811418	-1.987960	99
Es	2.578611	1.037866	0.174833	99
Es	-1.190390	-1.578272	0.529187	99
Es	1.423342	1.289237	-1.425344	99
Es	-2.547758	-2.358326	1.621143	99
Es	-0.628331	-2.017552	0.752488	99
Es	0.612908	-0.308201	-0.570029	99
Es	-1.272028	0.307373	0.166635	99
Es	0.417320	1.799233	-0.867610	99
Es	2.185890	2.012202	-2.096599	99
Es	1.495532	1.407390	-0.326637	99
48
Properties=species:S:1:pos:R:3:Z:I:1 energy=-289.285667725578 field_type=dipole dipole="0.000000 0.000000 0.000000" charge=0
C	-2.317394	-1.657492	1.548308	6
C	-1.190354	-1.578302	0.529168	6
C	-0.687544	-0.143662	0.364068	6
N	0.356106	-0.099532	-0.660822	7
C	0.916046	1.243677	-0.829702	6
C	2.240486	1.563708	-0.197402	6
C	2.139616	1.407917	-1.686632	6
H	-2.657034	-2.691792	1.657368	1
H	-3.172264	-1.051242	1.233238	1
H	-1.986194	-1.302432	2.528938	1
H	-1.552974	-1.966382	-0.431022	1
H	-0.367944	-2.228763	0.851808	1
H	-0.290894	0.216758	1.319998	1
H	-1.520524	0.508478	0.076638	1
H	-0.023824	-0.440532	-1.543612	1
H	0.188216	2.051337	-0.891692	1
H	2.746926	0.783177	0.358538	1
H	2.383886	2.559968	0.202658	1
H	2.213326	2.299858	-2.297032	1
H	2.582336	0.525257	-2.132812	1
Es	2.433710	0.811662	-1.987903	99
Es	2.336515	2.242673	0.070733	99
Es	-0.414773	0.104346	1.022030	99
Es	-1.272070	0.307215	0.166623	99
Es	-0.687450	-0.143686	0.363966	99
Es	1.423107	1.289052	-1.425268	99
Es	2.379481	1.527043	-0.959264	99
Es	0.612681	-0.307925	-0.570119	99
Es	2.240398	1.563693	-0.197556	99
Es	0.355626	-0.099126	-0.661012	99
Es	-0.941426	-0.860498	0.443764	99
Es	0.105136	-0.282394	-1.201277	99
Es	-2.087998	-1.412873	2.221417	99
Es	-2.902024	-1.243406	1.330299	99
Es	-1.439821	-1.837936	-0.139132	99
Es	0.417365	1.799166	-0.867651	99
Es	2.185766	2.012103	-2.096658	99
Es	2.578665	1.037893	0.174810	99
Es	0.916176	1.243563	-0.829705	99
Es	-2.317379	-1.657490	1.548293	99
Es	-2.547611	-2.358161	1.621108	99
Es	-0.628242	-2.017455	0.752449	99
Es	-1.190391	-1.578272	0.529186	99
Es	-0.108485	-0.091635	-0.227291	99
Es	2.139544	1.407927	-1.686467	99
Es	-1.758940	-1.613211	1.042253	99
Es	1.495571	1.407378	-0.326467	99
Es	0.582312	0.497026	-0.739391	99
