41
Properties=species:S:1:pos:R:3:Z:I:1 energy=-302.8807999525214 field_type=dipole dipole="0.000000 0.000000 0.000000" charge=0
C	-0.475708	-1.464465	0.942984	6
C	-0.218688	-0.948255	-0.462066	6
C	0.324502	0.452885	-0.423346	6
N	-0.313928	1.582695	-0.405136	7
N	-1.666158	1.499005	-0.432116	7
C	1.751602	0.659365	-0.358936	6
C	2.939532	0.826915	-0.303916	6
H	-0.860758	-2.488115	0.907564	1
H	-1.207948	-0.841805	1.467004	1
H	0.444162	-1.465655	1.537144	1
H	-1.141388	-0.978135	-1.050006	1
H	0.505902	-1.598895	-0.965026	1
H	-2.045178	2.407475	-0.715256	1
H	-2.027588	1.369484	0.517094	1
H	3.991642	0.987505	-0.255986	1
Es	-0.996971	1.531509	-0.402497	99
Es	-0.149850	1.921672	-0.411226	99
Es	-0.737432	-2.158812	0.913326	99
Es	2.309513	1.054276	-0.490414	99
Es	-0.218649	-0.948177	-0.462015	99
Es	-0.475703	-1.464443	0.942935	99
Es	-0.834505	-0.960467	-0.853150	99
Es	-0.341552	-1.185271	0.236027	99
Es	-0.040953	1.070948	-0.119453	99
Es	-1.882839	2.053670	-0.588276	99
Es	3.625223	0.930389	-0.272290	99
Es	0.059370	-0.228906	-0.441281	99
Es	-1.665887	1.499465	-0.431733	99
Es	-1.764790	1.235516	-0.647788	99
Es	1.070317	0.540094	-0.391014	99
Es	0.278525	-1.380002	-0.798384	99
Es	-0.314261	1.582137	-0.405135	99
Es	-0.018399	1.065057	-0.693821	99
Es	1.751367	0.659324	-0.358936	99
Es	-0.976241	-1.034629	1.294942	99
Es	2.309598	0.718490	0.020862	99
Es	2.939770	0.826943	-0.303901	99
Es	-1.854052	1.422376	0.142569	99
Es	0.150590	-1.462685	1.341621	99
Es	0.324642	0.452883	-0.423332	99
Es	2.406711	0.438670	-0.522175	99
41
Properties=species:S:1:pos:R:3:Z:I:1 energy=-302.8807999525214 field_type=dipole dipole="0.000000 0.000000 0.000000" charge=0
C	-0.475708	-1.464465	0.942984	6
C	-0.218688	-0.948255	-0.462066	6
C	0.324502	0.452885	-0.423346	6
N	-0.313928	1.582695	-0.405136	7
N	-1.666158	1.499005	-0.432116	7
C	1.751602	0.659365	-0.358936	6
C	2.939532	0.826915	-0.303916	6
H	-0.860758	-2.488115	0.907564	1
H	-1.207948	-0.841805	1.467004	1
H	0.444162	-1.465655	1.537144	1
H	-1.141388	-0.978135	-1.050006	1
H	0.505902	-1.598895	-0.965026	1
H	-2.045178	2.407475	-0.715256	1
H	-2.027588	1.369484	0.517094	1
H	3.991642	0.987505	-0.255986	1
Es	-0.040200	1.071665	-0.121861	99
Es	-1.764195	1.242679	-0.637899	99
Es	-0.839312	-0.960125	-0.851968	99
Es	-0.736145	-2.155901	0.910283	99
Es	0.155022	-1.463796	1.341128	99
Es	-0.218649	-0.948177	-0.462016	99
Es	-0.980292	-1.033052	1.293951	99
Es	0.058008	-0.228726	-0.438182	99
Es	-0.018230	1.065148	-0.691074	99
Es	2.413308	0.383760	-0.380429	99
Es	-1.665880	1.499478	-0.431725	99
Es	1.751334	0.659328	-0.358932	99
Es	-0.475706	-1.464443	0.942933	99
Es	2.298935	0.865425	-0.017820	99
Es	3.627708	0.925610	-0.273433	99
Es	-1.887999	2.054239	-0.590127	99
Es	0.282051	-1.382590	-0.796934	99
Es	0.324645	0.452873	-0.423300	99
Es	-0.995284	1.529676	-0.405371	99
Es	-0.314272	1.582128	-0.405134	99
Es	2.313345	0.963304	-0.594277	99
Es	-0.340886	-1.184318	0.234926	99
Es	2.939776	0.826949	-0.303905	99
Es	1.070792	0.543638	-0.389584	99
Es	-0.149477	1.916189	-0.411095	99
Es	-1.854851	1.419070	0.137308	99
41
Properties=species:S:1:pos:R:3:Z:I:1 energy=-302.8807999525214 field_type=dipole dipole="0.000000 0.000000 0.000000" charge=0
C	-0.475708	-1.464465	0.942984	6
C	-0.218688	-0.948255	-0.462066	6
C	0.324502	0.452885	-0.423346	6
N	-0.313928	1.582695	-0.405136	7
N	-1.666158	1.499005	-0.432116	7
C	1.751602	0.659365	-0.358936	6
C	2.939532	0.826915	-0.303916	6
H	-0.860758	-2.488115	0.907564	1
H	-1.207948	-0.841805	1.467004	1
H	0.444162	-1.465655	1.537144	1
H	-1.141388	-0.978135	-1.050006	1
H	0.505902	-1.598895	-0.965026	1
H	-2.045178	2.407475	-0.715256	1
H	-2.027588	1.369484	0.517094	1
H	3.991642	0.987505	-0.255986	1
Es	0.324646	0.452874	-0.423295	99
Es	-0.149857	1.912968	-0.410808	99
Es	-0.843346	-0.960639	-0.849561	99
Es	-0.039739	1.072228	-0.123056	99
Es	3.628548	0.923074	-0.273894	99
Es	-0.475703	-1.464439	0.942934	99
Es	2.300401	0.828542	-0.021623	99
Es	-0.994760	1.528947	-0.406130	99
Es	0.284686	-1.384041	-0.795059	99
Es	-0.983152	-1.032272	1.292527	99
Es	2.312107	0.996361	-0.563947	99
Es	2.412941	0.388224	-0.407367	99
Es	-0.734944	-2.153398	0.908111	99
Es	1.751332	0.659323	-0.358941	99
Es	-1.760208	1.250416	-0.632746	99
Es	-1.665922	1.499374	-0.431806	99
Es	1.071148	0.545156	-0.389001	99
Es	-0.218648	-0.948177	-0.462015	99
Es	-1.891973	2.054656	-0.590028	99
Es	-0.340190	-1.183298	0.234006	99
Es	0.158551	-1.464196	1.339523	99
Es	-1.856753	1.412991	0.133023	99
Es	-0.314279	1.582120	-0.405133	99
Es	0.056769	-0.229077	-0.436242	99
Es	2.939784	0.826942	-0.303896	99
Es	-0.017894	1.065370	-0.690114	99
41
Properties=species:S:1:pos:R:3:Z:I:1 energy=-302.8807999525214 field_type=dipole dipole="0.000000 0.000000 0.000000" charge=0
C	-0.475708	-1.464465	0.942984	6
C	-0.218688	-0.948255	-0.462066	6
C	0.324502	0.452885	-0.423346	6
N	-0.313928	1.582695	-0.405136	7
N	-1.666158	1.499005	-0.432116	7
C	1.751602	0.659365	-0.358936	6
C	2.939532	0.826915	-0.303916	6
H	-0.860758	-2.488115	0.907564	1
H	-1.207948	-0.841805	1.467004	1
H	0.444162	-1.465655	1.537144	1
H	-1.141388	-0.978135	-1.050006	1
H	0.505902	-1.598895	-0.965026	1
H	-2.045178	2.407475	-0.715256	1
H	-2.027588	1.369484	0.517094	1
H	3.991642	0.987505	-0.255986	1
Es	-0.475705	-1.464439	0.942933	99
Es	0.161186	-1.464065	1.337247	99
Es	-1.858553	1.407629	0.129904	99
Es	-0.314286	1.582113	-0.405134	99
Es	-0.733589	-2.151156	0.906762	99
Es	-0.846484	-0.961056	-0.846547	99
Es	-0.016989	1.066053	-0.690345	99
Es	-0.218649	-0.948178	-0.462015	99
Es	2.939788	0.826938	-0.303908	99
Es	-1.895170	2.054328	-0.590228	99
Es	-0.339701	-1.182794	0.232804	99
Es	3.628886	0.921728	-0.274526	99
Es	0.286493	-1.384702	-0.793559	99
Es	-0.985435	-1.032185	1.291260	99
Es	1.751331	0.659328	-0.358941	99
Es	2.311482	1.011934	-0.549480	99
Es	0.055957	-0.229682	-0.434960	99
Es	1.071407	0.545711	-0.388842	99
Es	-0.994578	1.528236	-0.406670	99
Es	-1.756149	1.256927	-0.628669	99
Es	-0.151743	1.910058	-0.410956	99
Es	-1.665892	1.499439	-0.431752	99
Es	0.324647	0.452871	-0.423303	99
Es	2.412726	0.388341	-0.409517	99
Es	2.301191	0.813319	-0.033822	99
Es	-0.038626	1.073332	-0.122275	99
41
Properties=species:S:1:pos:R:3:Z:I:1 energy=-302.8807999525214 field_type=dipole dipole="0.000000 0.000000 0.000000" charge=0
C	-0.475708	-1.464465	0.942984	6
C	-0.218688	-0.948255	-0.462066	6
C	0.324502	0.452885	-0.423346	6
N	-0.313928	1.582695	-0.405136	7
N	-1.666158	1.499005	-0.432116	7
C	1.751602	0.659365	-0.358936	6
C	2.939532	0.826915	-0.303916	6
H	-0.860758	-2.488115	0.907564	1
H	-1.207948	-0.841805	1.467004	1
H	0.444162	-1.465655	1.537144	1
H	-1.141388	-0.978135	-1.050006	1
H	0.505902	-1.598895	-0.965026	1
H	-2.045178	2.407475	-0.715256	1
H	-2.027588	1.369484	0.517094	1
H	3.991642	0.987505	-0.255986	1
Es	-0.339467	-1.182349	0.231743	99
Es	-1.860709	1.403506	0.128089	99
Es	-0.848585	-0.961494	-0.843941	99
Es	1.071590	0.545856	-0.388765	99
Es	-0.016018	1.066945	-0.691137	99
Es	-0.987418	-1.032996	1.290443	99
Es	-1.752088	1.262792	-0.624158	99
Es	0.163023	-1.464051	1.335277	99
Es	-0.153431	1.907546	-0.410716	99
Es	2.302914	0.778552	-0.044049	99
Es	0.288070	-1.384524	-0.792467	99
Es	-0.218650	-0.948179	-0.462015	99
Es	2.939788	0.826924	-0.303906	99
Es	-0.314278	1.582090	-0.405132	99
Es	-0.994513	1.527853	-0.407146	99
Es	0.324646	0.452874	-0.423307	99
Es	-1.897581	2.053142	-0.592365	99
Es	0.055217	-0.230309	-0.434122	99
Es	-0.475701	-1.464435	0.942926	99
Es	3.629063	0.920953	-0.274681	99
Es	-1.665912	1.499381	-0.431800	99
Es	2.412210	0.395163	-0.432194	99
Es	2.310254	1.040219	-0.516542	99
Es	1.751328	0.659335	-0.358935	99
Es	-0.038049	1.073920	-0.121468	99
Es	-0.732156	-2.148688	0.905830	99
41
Properties=species:S:1:pos:R:3:Z:I:1 energy=-302.8807999525214 field_type=dipole dipole="0.000000 0.000000 0.000000" charge=0
C	-0.475708	-1.464465	0.942984	6
C	-0.218688	-0.948255	-0.462066	6
C	0.324502	0.452885	-0.423346	6
N	-0.313928	1.582695	-0.405136	7
N	-1.666158	1.499005	-0.432116	7
C	1.751602	0.659365	-0.358936	6
C	2.939532	0.826915	-0.303916	6
H	-0.860758	-2.488115	0.907564	1
H	-1.207948	-0.841805	1.467004	1
H	0.444162	-1.465655	1.537144	1
H	-1.141388	-0.978135	-1.050006	1
H	0.505902	-1.598895	-0.965026	1
H	-2.045178	2.407475	-0.715256	1
H	-2.027588	1.369484	0.517094	1
H	3.991642	0.987505	-0.255986	1
Es	0.164131	-1.463889	1.333597	99
Es	-0.475703	-1.464440	0.942935	99
Es	2.939788	0.826936	-0.303911	99
Es	1.751327	0.659329	-0.358956	99
Es	-1.737655	1.287114	-0.613336	99
Es	2.404963	0.382477	-0.272089	99
Es	-0.154611	1.906101	-0.413355	99
Es	2.320088	0.812293	-0.602951	99
Es	-1.899810	2.051964	-0.594814	99
Es	-0.218652	-0.948183	-0.462008	99
Es	3.629139	0.920904	-0.276135	99
Es	-0.314299	1.582090	-0.405133	99
Es	2.300312	1.018756	-0.117038	99
Es	-0.016600	1.066415	-0.691009	99
Es	1.071708	0.546205	-0.388064	99
Es	0.289212	-1.384083	-0.791980	99
Es	-1.873231	1.381458	0.120674	99
Es	-0.988897	-1.033788	1.289930	99
Es	-0.339383	-1.182172	0.231408	99
Es	-0.036115	1.075498	-0.120820	99
Es	-1.665838	1.499527	-0.431652	99
Es	-0.994484	1.526508	-0.408172	99
Es	-0.849840	-0.961864	-0.841834	99
Es	0.324645	0.452875	-0.423308	99
Es	0.054277	-0.231260	-0.432225	99
Es	-0.730927	-2.146746	0.905707	99
41
Properties=species:S:1:pos:R:3:Z:I:1 energy=-302.8807999525214 field_type=dipole dipole="0.000000 0.000000 0.000000" charge=0
C	-0.475708	-1.464465	0.942984	6
C	-0.218688	-0.948255	-0.462066	6
C	0.324502	0.452885	-0.423346	6
N	-0.313928	1.582695	-0.405136	7
N	-1.666158	1.499005	-0.432116	7
C	1.751602	0.659365	-0.358936	6
C	2.939532	0.826915	-0.303916	6
H	-0.860758	-2.488115	0.907564	1
H	-1.207948	-0.841805	1.467004	1
H	0.444162	-1.465655	1.537144	1
H	-1.141388	-0.978135	-1.050006	1
H	0.505902	-1.598895	-0.965026	1
H	-2.045178	2.407475	-0.715256	1
H	-2.027588	1.369484	0.517094	1
H	3.991642	0.987505	-0.255986	1
Es	2.309434	1.054834	-0.493694	99
Es	-0.314284	1.582155	-0.405129	99
Es	-0.339152	-1.181707	0.230670	99
Es	-0.994499	1.527888	-0.406978	99
Es	0.053789	-0.231792	-0.433145	99
Es	2.939790	0.826929	-0.303906	99
Es	0.165418	-1.463337	1.331483	99
Es	-0.475703	-1.464440	0.942935	99
Es	2.411934	0.397376	-0.439039	99
Es	0.290477	-1.383545	-0.790832	99
Es	2.303997	0.762072	-0.059972	99
Es	-1.866465	1.390883	0.122253	99
Es	1.071794	0.545815	-0.388836	99
Es	-1.665816	1.499548	-0.431655	99
Es	-0.990278	-1.034679	1.288959	99
Es	-0.014128	1.068855	-0.693842	99
Es	-1.901169	2.051969	-0.592791	99
Es	-0.218650	-0.948178	-0.462012	99
Es	1.751326	0.659344	-0.358940	99
Es	3.629215	0.920374	-0.274730	99
Es	-1.743332	1.276197	-0.618181	99
Es	0.324647	0.452872	-0.423308	99
Es	-0.851329	-0.962579	-0.839185	99
Es	-0.157458	1.902446	-0.410263	99
Es	-0.729906	-2.145110	0.904632	99
Es	-0.036107	1.075837	-0.119034	99
41
Properties=species:S:1:pos:R:3:Z:I:1 energy=-302.8807999525214 field_type=dipole dipole="0.000000 0.000000 0.000000" charge=0
C	-0.475708	-1.464465	0.942984	6
C	-0.218688	-0.948255	-0.462066	6
C	0.324502	0.452885	-0.423346	6
N	-0.313928	1.582695	-0.405136	7
N	-1.666158	1.499005	-0.432116	7
C	1.751602	0.659365	-0.358936	6
C	2.939532	0.826915	-0.303916	6
H	-0.860758	-2.488115	0.907564	1
H	-1.207948	-0.841805	1.467004	1
H	0.444162	-1.465655	1.537144	1
H	-1.141388	-0.978135	-1.050006	1
H	0.505902	-1.598895	-0.965026	1
H	-2.045178	2.407475	-0.715256	1
H	-2.027588	1.369484	0.517094	1
H	3.991642	0.987505	-0.255986	1
Es	-1.741142	1.279662	-0.615542	99
Es	-1.867523	1.388150	0.120406	99
Es	0.166331	-1.462823	1.329374	99
Es	-0.218649	-0.948177	-0.462012	99
Es	-1.665826	1.499556	-0.431560	99
Es	2.309709	1.049304	-0.501248	99
Es	1.751327	0.659337	-0.358938	99
Es	1.071850	0.545716	-0.388989	99
Es	-0.991426	-1.035465	1.288318	99
Es	-0.852411	-0.963084	-0.836485	99
Es	-0.475704	-1.464440	0.942933	99
Es	3.629252	0.920365	-0.274756	99
Es	-0.158279	1.901405	-0.409980	99
Es	0.324647	0.452870	-0.423300	99
Es	2.939789	0.826926	-0.303909	99
Es	-0.314289	1.582125	-0.405124	99
Es	-0.728951	-2.143657	0.904123	99
Es	2.303442	0.770965	-0.061983	99
Es	-1.902461	2.051174	-0.593482	99
Es	-0.339011	-1.181525	0.230011	99
Es	2.412218	0.394033	-0.429476	99
Es	0.291254	-1.383232	-0.790274	99
Es	-0.994464	1.527704	-0.407073	99
Es	-0.013892	1.069012	-0.694351	99
Es	0.053301	-0.232359	-0.432553	99
Es	-0.035546	1.076483	-0.118666	99
41
Properties=species:S:1:pos:R:3:Z:I:1 energy=-302.8807999525214 field_type=dipole dipole="0.000000 0.000000 0.000000" charge=0
C	-0.475708	-1.464465	0.942984	6
C	-0.218688	-0.948255	-0.462066	6
C	0.324502	0.452885	-0.423346	6
N	-0.313928	1.582695	-0.405136	7
N	-1.666158	1.499005	-0.432116	7
C	1.751602	0.659365	-0.358936	6
C	2.939532	0.826915	-0.303916	6
H	-0.860758	-2.488115	0.907564	1
H	-1.207948	-0.841805	1.467004	1
H	0.444162	-1.465655	1.537144	1
H	-1.141388	-0.978135	-1.050006	1
H	0.505902	-1.598895	-0.965026	1
H	-2.045178	2.407475	-0.715256	1
H	-2.027588	1.369484	0.517094	1
H	3.991642	0.987505	-0.255986	1
Es	-0.034051	1.077727	-0.117956	99
Es	-0.158841	1.900819	-0.413055	99
Es	1.751326	0.659338	-0.358944	99
Es	-0.218650	-0.948176	-0.462012	99
Es	0.291743	-1.382648	-0.790413	99
Es	-0.014774	1.068184	-0.694035	99
Es	2.406481	0.381081	-0.286508	99
Es	-0.339108	-1.181464	0.229908	99
Es	-0.852441	-0.962822	-0.836548	99
Es	0.052865	-0.233144	-0.431151	99
Es	-0.992144	-1.036429	1.288537	99
Es	-0.314298	1.582101	-0.405131	99
Es	-1.725857	1.308858	-0.596744	99
Es	2.939792	0.826931	-0.303912	99
Es	-0.994465	1.526687	-0.408154	99
Es	-1.665821	1.499561	-0.431629	99
Es	-0.728197	-2.142314	0.904723	99
Es	1.071873	0.545945	-0.388226	99
Es	3.629265	0.920397	-0.275947	99
Es	0.324647	0.452870	-0.423306	99
Es	0.166328	-1.463147	1.329503	99
Es	-0.475704	-1.464441	0.942937	99
Es	-1.882092	1.361853	0.107176	99
Es	2.318974	0.808976	-0.584458	99
Es	-1.903202	2.049353	-0.598057	99
Es	2.299897	1.023933	-0.121136	99
41
Properties=species:S:1:pos:R:3:Z:I:1 energy=-302.8807999525214 field_type=dipole dipole="0.000000 0.000000 0.000000" charge=0
C	-0.475708	-1.464465	0.942984	6
C	-0.218688	-0.948255	-0.462066	6
C	0.324502	0.452885	-0.423346	6
N	-0.313928	1.582695	-0.405136	7
N	-1.666158	1.499005	-0.432116	7
C	1.751602	0.659365	-0.358936	6
C	2.939532	0.826915	-0.303916	6
H	-0.860758	-2.488115	0.907564	1
H	-1.207948	-0.841805	1.467004	1
H	0.444162	-1.465655	1.537144	1
H	-1.141388	-0.978135	-1.050006	1
H	0.505902	-1.598895	-0.965026	1
H	-2.045178	2.407475	-0.715256	1
H	-2.027588	1.369484	0.517094	1
H	3.991642	0.987505	-0.255986	1
Es	0.052442	-0.233476	-0.432658	99
Es	-1.904463	2.050109	-0.593959	99
Es	-0.314285	1.582154	-0.405135	99
Es	-0.012782	1.070390	-0.695859	99
Es	-1.665806	1.499507	-0.431674	99
Es	-0.338936	-1.181252	0.229548	99
Es	-1.870385	1.381125	0.116098	99
Es	1.071912	0.545618	-0.389035	99
Es	-0.994484	1.527734	-0.407055	99
Es	0.167371	-1.462139	1.326687	99
Es	3.629305	0.920368	-0.274695	99
Es	-0.727519	-2.141331	0.903568	99
Es	-0.161691	1.896993	-0.410672	99
Es	2.412068	0.395988	-0.434566	99
Es	0.292613	-1.382158	-0.789434	99
Es	2.939791	0.826929	-0.303909	99
Es	-1.736490	1.287479	-0.610742	99
Es	1.751327	0.659334	-0.358943	99
Es	-0.853571	-0.963893	-0.833276	99
Es	-0.475703	-1.464439	0.942928	99
Es	-0.218650	-0.948177	-0.462009	99
Es	0.324647	0.452872	-0.423316	99
Es	-0.033380	1.078848	-0.115826	99
Es	2.309209	1.057040	-0.488564	99
Es	2.304083	0.761400	-0.069482	99
Es	-0.993075	-1.036992	1.287441	99
41
Properties=species:S:1:pos:R:3:Z:I:1 energy=-302.8807999525214 field_type=dipole dipole="0.000000 0.000000 0.000000" charge=0
C	-0.475708	-1.464465	0.942984	6
C	-0.218688	-0.948255	-0.462066	6
C	0.324502	0.452885	-0.423346	6
N	-0.313928	1.582695	-0.405136	7
N	-1.666158	1.499005	-0.432116	7
C	1.751602	0.659365	-0.358936	6
C	2.939532	0.826915	-0.303916	6
H	-0.860758	-2.488115	0.907564	1
H	-1.207948	-0.841805	1.467004	1
H	0.444162	-1.465655	1.537144	1
H	-1.141388	-0.978135	-1.050006	1
H	0.505902	-1.598895	-0.965026	1
H	-2.045178	2.407475	-0.715256	1
H	-2.027588	1.369484	0.517094	1
H	3.991642	0.987505	-0.255986	1
Es	-0.218650	-0.948177	-0.462010	99
Es	-0.314296	1.582044	-0.405138	99
Es	-0.726886	-2.140309	0.903474	99
Es	-1.733883	1.291381	-0.607449	99
Es	0.167586	-1.461996	1.326185	99
Es	-1.906042	2.048944	-0.595199	99
Es	-0.853835	-0.963979	-0.832601	99
Es	-0.994479	1.527960	-0.406812	99
Es	0.052051	-0.233969	-0.432306	99
Es	-1.871491	1.377899	0.113753	99
Es	-0.475703	-1.464439	0.942934	99
Es	-1.665803	1.499595	-0.431593	99
Es	-0.338953	-1.181172	0.229298	99
Es	-0.011611	1.071940	-0.697599	99
Es	2.304719	0.752898	-0.076175	99
Es	-0.163141	1.895036	-0.409812	99
Es	1.071927	0.545500	-0.389361	99
Es	3.629317	0.920437	-0.274620	99
Es	1.751326	0.659328	-0.358938	99
Es	2.939788	0.826944	-0.303909	99
Es	-0.033115	1.079183	-0.115108	99
Es	2.411881	0.397637	-0.440058	99
Es	0.324648	0.452870	-0.423301	99
Es	2.308773	1.063850	-0.476140	99
Es	0.293186	-1.381553	-0.789201	99
Es	-0.993767	-1.037826	1.287148	99
41
Properties=species:S:1:pos:R:3:Z:I:1 energy=-302.8807999525214 field_type=dipole dipole="0.000000 0.000000 0.000000" charge=0
C	-0.475708	-1.464465	0.942984	6
C	-0.218688	-0.948255	-0.462066	6
C	0.324502	0.452885	-0.423346	6
N	-0.313928	1.582695	-0.405136	7
N	-1.666158	1.499005	-0.432116	7
C	1.751602	0.659365	-0.358936	6
C	2.939532	0.826915	-0.303916	6
H	-0.860758	-2.488115	0.907564	1
H	-1.207948	-0.841805	1.467004	1
H	0.444162	-1.465655	1.537144	1
H	-1.141388	-0.978135	-1.050006	1
H	0.505902	-1.598895	-0.965026	1
H	-2.045178	2.407475	-0.715256	1
H	-2.027588	1.369484	0.517094	1
H	3.991642	0.987505	-0.255986	1
Es	0.167888	-1.461748	1.325264	99
Es	0.324647	0.452873	-0.423310	99
Es	-0.314297	1.582052	-0.405128	99
Es	2.308672	1.065550	-0.472251	99
Es	-1.666083	1.498871	-0.432218	99
Es	-0.032692	1.079743	-0.114232	99
Es	-0.854178	-0.964215	-0.831466	99
Es	-0.218650	-0.948179	-0.462009	99
Es	0.051774	-0.234495	-0.432182	99
Es	0.293670	-1.381128	-0.788839	99
Es	-0.011239	1.072402	-0.697848	99
Es	2.411807	0.398114	-0.441681	99
Es	-1.872281	1.376261	0.112810	99
Es	-1.732469	1.294028	-0.605358	99
Es	1.751326	0.659343	-0.358940	99
Es	-0.164015	1.893833	-0.410411	99
Es	-1.906443	2.048468	-0.595752	99
Es	-0.338921	-1.180987	0.229291	99
Es	-0.994490	-1.038665	1.286799	99
Es	-0.475702	-1.464437	0.942931	99
Es	3.629330	0.920482	-0.274528	99
Es	-0.994492	1.527978	-0.406792	99
Es	-0.726239	-2.139279	0.903064	99
Es	2.939789	0.826923	-0.303908	99
Es	2.304892	0.750770	-0.078508	99
Es	1.071941	0.545466	-0.389339	99
41
Properties=species:S:1:pos:R:3:Z:I:1 energy=-302.8807999525214 field_type=dipole dipole="0.000000 0.000000 0.000000" charge=0
C	-0.475708	-1.464465	0.942984	6
C	-0.218688	-0.948255	-0.462066	6
C	0.324502	0.452885	-0.423346	6
N	-0.313928	1.582695	-0.405136	7
N	-1.666158	1.499005	-0.432116	7
C	1.751602	0.659365	-0.358936	6
C	2.939532	0.826915	-0.303916	6
H	-0.860758	-2.488115	0.907564	1
H	-1.207948	-0.841805	1.467004	1
H	0.444162	-1.465655	1.537144	1
H	-1.141388	-0.978135	-1.050006	1
H	0.505902	-1.598895	-0.965026	1
H	-2.045178	2.407475	-0.715256	1
H	-2.027588	1.369484	0.517094	1
H	3.991642	0.987505	-0.255986	1
Es	-1.731039	1.296393	-0.603256	99
Es	-0.475703	-1.464439	0.942933	99
Es	2.305891	0.739559	-0.090300	99
Es	-1.873532	1.374025	0.111683	99
Es	1.751326	0.659334	-0.358939	99
Es	-1.665806	1.499410	-0.431717	99
Es	2.939791	0.826927	-0.303908	99
Es	-0.314271	1.582062	-0.405129	99
Es	-0.995009	-1.039436	1.286699	99
Es	0.167989	-1.461769	1.325073	99
Es	3.629339	0.920475	-0.274470	99
Es	0.294122	-1.380369	-0.788884	99
Es	-0.218650	-0.948177	-0.462010	99
Es	-0.166085	1.891092	-0.411289	99
Es	-0.338987	-1.181119	0.229348	99
Es	-0.994499	1.527896	-0.406866	99
Es	1.071952	0.545370	-0.389367	99
Es	2.411534	0.400375	-0.448120	99
Es	-0.010577	1.073385	-0.698912	99
Es	-0.725738	-2.138316	0.903288	99
Es	0.051451	-0.235005	-0.432174	99
Es	2.307946	1.074614	-0.453956	99
Es	-0.031339	1.081452	-0.112338	99
Es	-0.854268	-0.964177	-0.831420	99
Es	0.324647	0.452870	-0.423297	99
Es	-1.906938	2.047597	-0.597211	99
41
Properties=species:S:1:pos:R:3:Z:I:1 energy=-302.8807999525214 field_type=dipole dipole="0.000000 0.000000 0.000000" charge=0
C	-0.475708	-1.464465	0.942984	6
C	-0.218688	-0.948255	-0.462066	6
C	0.324502	0.452885	-0.423346	6
N	-0.313928	1.582695	-0.405136	7
N	-1.666158	1.499005	-0.432116	7
C	1.751602	0.659365	-0.358936	6
C	2.939532	0.826915	-0.303916	6
H	-0.860758	-2.488115	0.907564	1
H	-1.207948	-0.841805	1.467004	1
H	0.444162	-1.465655	1.537144	1
H	-1.141388	-0.978135	-1.050006	1
H	0.505902	-1.598895	-0.965026	1
H	-2.045178	2.407475	-0.715256	1
H	-2.027588	1.369484	0.517094	1
H	3.991642	0.987505	-0.255986	1
Es	0.168133	-1.461652	1.324657	99
Es	-1.907496	2.047083	-0.597823	99
Es	0.294550	-1.379915	-0.788623	99
Es	-0.725349	-2.137608	0.903312	99
Es	2.306281	0.735649	-0.094320	99
Es	-0.995428	-1.040003	1.286495	99
Es	-0.994500	1.527976	-0.406631	99
Es	-0.475703	-1.464438	0.942932	99
Es	-0.338970	-1.180969	0.229024	99
Es	-1.665910	1.499369	-0.431807	99
Es	1.751325	0.659336	-0.358939	99
Es	2.411371	0.401484	-0.451417	99
Es	-0.218651	-0.948178	-0.462015	99
Es	3.629348	0.920516	-0.274471	99
Es	-0.314305	1.582062	-0.405127	99
Es	-0.010347	1.073791	-0.699509	99
Es	2.307719	1.077420	-0.446540	99
Es	2.939791	0.826930	-0.303910	99
Es	-0.030773	1.082171	-0.111696	99
Es	-1.729514	1.298859	-0.601310	99
Es	-1.874437	1.371921	0.110191	99
Es	-0.166912	1.889809	-0.411534	99
Es	0.324648	0.452869	-0.423306	99
Es	-0.854454	-0.964295	-0.830774	99
Es	1.071967	0.545338	-0.389384	99
Es	0.051164	-0.235497	-0.432013	99
41
Properties=species:S:1:pos:R:3:Z:I:1 energy=-302.8807999525214 field_type=dipole dipole="0.000000 0.000000 0.000000" charge=0
C	-0.475708	-1.464465	0.942984	6
C	-0.218688	-0.948255	-0.462066	6
C	0.324502	0.452885	-0.423346	6
N	-0.313928	1.582695	-0.405136	7
N	-1.666158	1.499005	-0.432116	7
C	1.751602	0.659365	-0.358936	6
C	2.939532	0.826915	-0.303916	6
H	-0.860758	-2.488115	0.907564	1
H	-1.207948	-0.841805	1.467004	1
H	0.444162	-1.465655	1.537144	1
H	-1.141388	-0.978135	-1.050006	1
H	0.505902	-1.598895	-0.965026	1
H	-2.045178	2.407475	-0.715256	1
H	-2.027588	1.369484	0.517094	1
H	3.991642	0.987505	-0.255986	1
Es	-0.314304	1.582091	-0.405126	99
Es	0.324647	0.452868	-0.423308	99
Es	0.051521	-0.234456	-0.430658	99
Es	-0.012525	1.070619	-0.695208	99
Es	2.313669	0.947662	-0.577072	99
Es	0.293589	-1.382738	-0.786694	99
Es	-0.726591	-2.139761	0.902471	99
Es	-0.475703	-1.464439	0.942932	99
Es	-0.338836	-1.180949	0.227954	99
Es	-0.033887	1.078228	-0.116997	99
Es	0.168954	-1.460252	1.320457	99
Es	-0.161240	1.897260	-0.410677	99
Es	2.939789	0.826937	-0.303917	99
Es	3.629342	0.920277	-0.274782	99
Es	-1.882528	1.348044	0.088460	99
Es	2.411998	0.381606	-0.369702	99
Es	-1.908733	2.049474	-0.590357	99
Es	-0.218651	-0.948181	-0.462012	99
Es	-1.720183	1.322055	-0.586775	99
Es	-0.994290	-1.037096	1.285117	99
Es	-0.855195	-0.965854	-0.826388	99
Es	-0.994482	1.526876	-0.407139	99
Es	-1.665787	1.499619	-0.431531	99
Es	1.071971	0.546170	-0.389072	99
Es	1.751325	0.659342	-0.358933	99
Es	2.299676	0.884625	-0.045582	99
41
Properties=species:S:1:pos:R:3:Z:I:1 energy=-302.8807999525214 field_type=dipole dipole="0.000000 0.000000 0.000000" charge=0
C	-0.475708	-1.464465	0.942984	6
C	-0.218688	-0.948255	-0.462066	6
C	0.324502	0.452885	-0.423346	6
N	-0.313928	1.582695	-0.405136	7
N	-1.666158	1.499005	-0.432116	7
C	1.751602	0.659365	-0.358936	6
C	2.939532	0.826915	-0.303916	6
H	-0.860758	-2.488115	0.907564	1
H	-1.207948	-0.841805	1.467004	1
H	0.444162	-1.465655	1.537144	1
H	-1.141388	-0.978135	-1.050006	1
H	0.505902	-1.598895	-0.965026	1
H	-2.045178	2.407475	-0.715256	1
H	-2.027588	1.369484	0.517094	1
H	3.991642	0.987505	-0.255986	1
Es	-1.874696	1.368692	0.106360	99
Es	-0.994506	1.528069	-0.406581	99
Es	-0.339023	-1.180886	0.228768	99
Es	-0.475702	-1.464437	0.942931	99
Es	1.751325	0.659337	-0.358945	99
Es	-0.854866	-0.964735	-0.829072	99
Es	2.411413	0.401399	-0.450708	99
Es	-0.724691	-2.136476	0.903023	99
Es	-1.909324	2.046279	-0.597291	99
Es	-0.009916	1.074426	-0.699823	99
Es	0.324647	0.452868	-0.423303	99
Es	0.050752	-0.236031	-0.432002	99
Es	-0.030516	1.082484	-0.111349	99
Es	2.306014	0.738252	-0.089944	99
Es	-1.665806	1.499336	-0.431717	99
Es	-0.167561	1.888709	-0.411089	99
Es	2.307947	1.074903	-0.451763	99
Es	3.629356	0.920591	-0.274354	99
Es	-0.996158	-1.040900	1.286011	99
Es	-0.218651	-0.948178	-0.462009	99
Es	-1.727581	1.302683	-0.598196	99
Es	1.071980	0.545303	-0.389391	99
Es	0.295060	-1.379518	-0.788102	99
Es	0.168563	-1.461124	1.323043	99
Es	-0.314307	1.582056	-0.405127	99
Es	2.939791	0.826925	-0.303907	99
41
Properties=species:S:1:pos:R:3:Z:I:1 energy=-302.8807999525214 field_type=dipole dipole="0.000000 0.000000 0.000000" charge=0
C	-0.475708	-1.464465	0.942984	6
C	-0.218688	-0.948255	-0.462066	6
C	0.324502	0.452885	-0.423346	6
N	-0.313928	1.582695	-0.405136	7
N	-1.666158	1.499005	-0.432116	7
C	1.751602	0.659365	-0.358936	6
C	2.939532	0.826915	-0.303916	6
H	-0.860758	-2.488115	0.907564	1
H	-1.207948	-0.841805	1.467004	1
H	0.444162	-1.465655	1.537144	1
H	-1.141388	-0.978135	-1.050006	1
H	0.505902	-1.598895	-0.965026	1
H	-2.045178	2.407475	-0.715256	1
H	-2.027588	1.369484	0.517094	1
H	3.991642	0.987505	-0.255986	1
Es	2.939791	0.826928	-0.303913	99
Es	2.407844	0.380392	-0.300781	99
Es	1.751326	0.659334	-0.358938	99
Es	2.299472	1.032968	-0.130071	99
Es	-0.011656	1.072024	-0.699053	99
Es	-0.994497	1.526839	-0.407982	99
Es	0.294953	-1.379422	-0.788876	99
Es	-1.665816	1.499573	-0.431635	99
Es	1.071979	0.545582	-0.388580	99
Es	0.168178	-1.462024	1.324400	99
Es	-1.907038	2.045236	-0.603016	99
Es	2.318040	0.800973	-0.561401	99
Es	-1.888983	1.342839	0.089379	99
Es	-0.724601	-2.136023	0.903965	99
Es	-0.030432	1.082304	-0.112969	99
Es	-0.475703	-1.464438	0.942933	99
Es	-0.314309	1.582045	-0.405127	99
Es	-0.165851	1.891293	-0.412875	99
Es	0.050703	-0.236463	-0.430407	99
Es	-0.339035	-1.180907	0.228891	99
Es	-0.996143	-1.041095	1.286731	99
Es	-0.218651	-0.948177	-0.462012	99
Es	0.324646	0.452872	-0.423299	99
Es	3.629350	0.920348	-0.275499	99
Es	-1.715493	1.331032	-0.574071	99
Es	-0.854529	-0.964006	-0.830333	99
41
Properties=species:S:1:pos:R:3:Z:I:1 energy=-302.8807999525214 field_type=dipole dipole="0.000000 0.000000 0.000000" charge=0
C	-0.475708	-1.464465	0.942984	6
C	-0.218688	-0.948255	-0.462066	6
C	0.324502	0.452885	-0.423346	6
N	-0.313928	1.582695	-0.405136	7
N	-1.666158	1.499005	-0.432116	7
C	1.751602	0.659365	-0.358936	6
C	2.939532	0.826915	-0.303916	6
H	-0.860758	-2.488115	0.907564	1
H	-1.207948	-0.841805	1.467004	1
H	0.444162	-1.465655	1.537144	1
H	-1.141388	-0.978135	-1.050006	1
H	0.505902	-1.598895	-0.965026	1
H	-2.045178	2.407475	-0.715256	1
H	-2.027588	1.369484	0.517094	1
H	3.991642	0.987505	-0.255986	1
Es	-0.029373	1.084141	-0.109523	99
Es	-0.475702	-1.464438	0.942932	99
Es	-0.855087	-0.965056	-0.828119	99
Es	2.939791	0.826928	-0.303908	99
Es	2.411484	0.400265	-0.448607	99
Es	-1.909539	2.046279	-0.596729	99
Es	2.305929	0.739330	-0.092724	99
Es	-1.665780	1.499610	-0.431556	99
Es	-0.218650	-0.948177	-0.462007	99
Es	1.071992	0.545273	-0.389544	99
Es	1.751325	0.659337	-0.358940	99
Es	0.050450	-0.236346	-0.431978	99
Es	0.324646	0.452873	-0.423277	99
Es	-0.996664	-1.041596	1.285757	99
Es	-1.875848	1.365778	0.104143	99
Es	0.295493	-1.379070	-0.787703	99
Es	3.629364	0.920675	-0.274308	99
Es	-0.994507	1.527933	-0.406497	99
Es	-0.009265	1.075371	-0.700603	99
Es	0.168766	-1.460745	1.322149	99
Es	2.307958	1.074894	-0.450979	99
Es	-0.314310	1.582071	-0.405129	99
Es	-0.169359	1.885949	-0.411887	99
Es	-1.726286	1.305266	-0.596709	99
Es	-0.724224	-2.135822	0.902582	99
Es	-0.339060	-1.180696	0.228626	99
41
Properties=species:S:1:pos:R:3:Z:I:1 energy=-302.8807999525214 field_type=dipole dipole="0.000000 0.000000 0.000000" charge=0
C	-0.475708	-1.464465	0.942984	6
C	-0.218688	-0.948255	-0.462066	6
C	0.324502	0.452885	-0.423346	6
N	-0.313928	1.582695	-0.405136	7
N	-1.666158	1.499005	-0.432116	7
C	1.751602	0.659365	-0.358936	6
C	2.939532	0.826915	-0.303916	6
H	-0.860758	-2.488115	0.907564	1
H	-1.207948	-0.841805	1.467004	1
H	0.444162	-1.465655	1.537144	1
H	-1.141388	-0.978135	-1.050006	1
H	0.505902	-1.598895	-0.965026	1
H	-2.045178	2.407475	-0.715256	1
H	-2.027588	1.369484	0.517094	1
H	3.991642	0.987505	-0.255986	1
Es	-1.875850	1.365346	0.103396	99
Es	-0.723841	-2.135122	0.902672	99
Es	2.939791	0.826927	-0.303908	99
Es	-1.910125	2.045708	-0.597288	99
Es	-0.855147	-0.964979	-0.827987	99
Es	2.306059	0.738145	-0.095991	99
Es	-0.997065	-1.042196	1.285525	99
Es	0.295822	-1.378507	-0.787749	99
Es	-1.665784	1.499563	-0.431572	99
Es	-0.994504	1.527930	-0.406416	99
Es	-1.725718	1.306205	-0.595497	99
Es	0.324647	0.452870	-0.423308	99
Es	2.307840	1.076200	-0.447792	99
Es	-0.008960	1.075886	-0.701248	99
Es	3.629369	0.920724	-0.274185	99
Es	1.751326	0.659333	-0.358944	99
Es	-0.218651	-0.948178	-0.462009	99
Es	-0.029980	1.083302	-0.110110	99
Es	1.071991	0.545219	-0.389559	99
Es	0.050297	-0.236820	-0.431940	99
Es	2.411476	0.400207	-0.448610	99
Es	-0.339098	-1.180857	0.229040	99
Es	-0.169197	1.886131	-0.410715	99
Es	0.168861	-1.460618	1.321851	99
Es	-0.475703	-1.464439	0.942933	99
Es	-0.314310	1.582050	-0.405128	99
41
Properties=species:S:1:pos:R:3:Z:I:1 energy=-302.8807999525214 field_type=dipole dipole="0.000000 0.000000 0.000000" charge=0
C	-0.475708	-1.464465	0.942984	6
C	-0.218688	-0.948255	-0.462066	6
C	0.324502	0.452885	-0.423346	6
N	-0.313928	1.582695	-0.405136	7
N	-1.666158	1.499005	-0.432116	7
C	1.751602	0.659365	-0.358936	6
C	2.939532	0.826915	-0.303916	6
H	-0.860758	-2.488115	0.907564	1
H	-1.207948	-0.841805	1.467004	1
H	0.444162	-1.465655	1.537144	1
H	-1.141388	-0.978135	-1.050006	1
H	0.505902	-1.598895	-0.965026	1
H	-2.045178	2.407475	-0.715256	1
H	-2.027588	1.369484	0.517094	1
H	3.991642	0.987505	-0.255986	1
Es	3.629371	0.920762	-0.274226	99
Es	-0.218651	-0.948178	-0.462010	99
Es	-1.723997	1.309299	-0.592268	99
Es	-0.008883	1.076161	-0.701659	99
Es	-0.994508	1.528122	-0.406512	99
Es	-0.314295	1.582128	-0.405133	99
Es	-0.028698	1.085074	-0.108610	99
Es	0.050317	-0.236794	-0.432113	99
Es	1.751325	0.659330	-0.358936	99
Es	-0.475702	-1.464438	0.942932	99
Es	-0.339089	-1.180873	0.229379	99
Es	1.071998	0.545084	-0.389582	99
Es	0.295808	-1.378374	-0.787892	99
Es	0.168748	-1.460958	1.322443	99
Es	2.411081	0.403149	-0.456612	99
Es	-0.855048	-0.964802	-0.828541	99
Es	2.307212	0.727540	-0.108183	99
Es	-1.910337	2.044524	-0.599889	99
Es	-1.877350	1.363238	0.102800	99
Es	2.939791	0.826927	-0.303908	99
Es	0.324647	0.452873	-0.423305	99
Es	2.307081	1.083903	-0.427434	99
Es	-0.170549	1.883900	-0.412050	99
Es	-1.665809	1.499582	-0.431581	99
Es	-0.997282	-1.042570	1.285485	99
Es	-0.723635	-2.134580	0.902868	99
