45
Properties=species:S:1:pos:R:3:Z:I:1 energy=-288.12305398229375 field_type=dipole dipole="0.000000 0.000000 0.000000" charge=0
C	0.063296	-2.405927	-0.325776	6
C	-0.429794	-1.234667	0.515694	6
N	0.355546	-0.025817	0.286524	7
C	0.234506	0.525463	-1.074556	6
C	0.291606	2.000913	-0.878366	6
C	0.167426	2.301673	0.416014	6
C	0.013726	1.059623	1.222804	6
H	-0.497764	-3.311267	-0.071496	1
H	1.124226	-2.605797	-0.140536	1
H	-0.070894	-2.222077	-1.396606	1
H	-0.342164	-1.524787	1.569924	1
H	-1.494544	-1.061157	0.317004	1
H	-0.713764	0.264613	-1.559376	1
H	1.065946	0.179273	-1.695986	1
H	0.393236	2.714513	-1.681686	1
H	0.152046	3.298413	0.830214	1
H	0.703466	1.051613	2.072174	1
H	-1.016094	0.995403	1.594034	1
Es	0.167410	2.301684	0.416138	99
Es	-0.180974	-1.818652	0.082780	99
Es	-0.324411	-3.020793	-0.149796	99
Es	-0.015090	-0.534653	0.373883	99
Es	-0.369894	-1.427840	1.241115	99
Es	-1.171550	-1.111433	0.373274	99
Es	-0.029889	-2.275050	-1.055927	99
Es	0.234509	0.525453	-1.074435	99
Es	-0.419659	0.346282	-1.403677	99
Es	0.063275	-2.405912	-0.325767	99
Es	0.261897	0.204796	-0.310086	99
Es	0.154833	2.973655	0.709664	99
Es	0.093101	1.704759	0.848462	99
Es	0.557730	2.162294	-0.202652	99
Es	0.360413	2.475381	-1.433301	99
Es	0.291615	2.000870	-0.878478	99
Es	0.167795	0.441685	0.692611	99
Es	-0.088569	2.187001	-0.270283	99
Es	0.013750	1.059565	1.222705	99
Es	0.271788	1.271235	-1.010639	99
Es	0.783276	-2.539894	-0.198099	99
Es	0.354877	-0.025648	0.286422	99
Es	0.796038	0.289317	-1.506513	99
Es	-0.695491	1.014633	1.473200	99
Es	0.477605	1.056831	1.808591	99
Es	-0.429703	-1.234592	0.515647	99
Es	0.685288	-0.101214	0.334534	99
45
Properties=species:S:1:pos:R:3:Z:I:1 energy=-288.12305398229375 field_type=dipole dipole="0.000000 0.000000 0.000000" charge=0
C	0.063296	-2.405927	-0.325776	6
C	-0.429794	-1.234667	0.515694	6
N	0.355546	-0.025817	0.286524	7
C	0.234506	0.525463	-1.074556	6
C	0.291606	2.000913	-0.878366	6
C	0.167426	2.301673	0.416014	6
C	0.013726	1.059623	1.222804	6
H	-0.497764	-3.311267	-0.071496	1
H	1.124226	-2.605797	-0.140536	1
H	-0.070894	-2.222077	-1.396606	1
H	-0.342164	-1.524787	1.569924	1
H	-1.494544	-1.061157	0.317004	1
H	-0.713764	0.264613	-1.559376	1
H	1.065946	0.179273	-1.695986	1
H	0.393236	2.714513	-1.681686	1
H	0.152046	3.298413	0.830214	1
H	0.703466	1.051613	2.072174	1
H	-1.016094	0.995403	1.594034	1
Es	0.271083	1.270737	-1.010646	99
Es	0.477979	1.057283	1.809315	99
Es	-0.429710	-1.234588	0.515643	99
Es	0.234509	0.525453	-1.074434	99
Es	0.796563	0.289606	-1.507439	99
Es	0.781355	-2.540375	-0.197379	99
Es	0.171205	0.442808	0.695349	99
Es	-0.015585	-0.533601	0.373463	99
Es	0.360768	2.474716	-1.433862	99
Es	0.167413	2.301689	0.416140	99
Es	0.291616	2.000865	-0.878483	99
Es	-0.181265	-1.818752	0.082924	99
Es	-0.695396	1.015212	1.472761	99
Es	0.559424	2.161791	-0.202366	99
Es	0.354857	-0.025649	0.286419	99
Es	0.154794	2.973044	0.710182	99
Es	0.013751	1.059563	1.222704	99
Es	-0.322634	-3.019628	-0.149296	99
Es	0.063275	-2.405914	-0.325767	99
Es	-0.419674	0.347131	-1.403485	99
Es	-0.370532	-1.427775	1.243066	99
Es	0.266409	0.205135	-0.313087	99
Es	-0.029811	-2.275447	-1.058567	99
Es	-1.169674	-1.111065	0.372816	99
Es	-0.090334	2.187002	-0.270437	99
Es	0.677057	-0.103773	0.335040	99
Es	0.092529	1.704292	0.848797	99
45
Properties=species:S:1:pos:R:3:Z:I:1 energy=-288.12305398229375 field_type=dipole dipole="0.000000 0.000000 0.000000" charge=0
C	0.063296	-2.405927	-0.325776	6
C	-0.429794	-1.234667	0.515694	6
N	0.355546	-0.025817	0.286524	7
C	0.234506	0.525463	-1.074556	6
C	0.291606	2.000913	-0.878366	6
C	0.167426	2.301673	0.416014	6
C	0.013726	1.059623	1.222804	6
H	-0.497764	-3.311267	-0.071496	1
H	1.124226	-2.605797	-0.140536	1
H	-0.070894	-2.222077	-1.396606	1
H	-0.342164	-1.524787	1.569924	1
H	-1.494544	-1.061157	0.317004	1
H	-0.713764	0.264613	-1.559376	1
H	1.065946	0.179273	-1.695986	1
H	0.393236	2.714513	-1.681686	1
H	0.152046	3.298413	0.830214	1
H	0.703466	1.051613	2.072174	1
H	-1.016094	0.995403	1.594034	1
Es	0.174480	0.443848	0.697498	99
Es	-0.015411	-0.533056	0.373602	99
Es	-0.695486	1.015604	1.472470	99
Es	-0.321234	-3.018814	-0.149066	99
Es	0.092171	1.703748	0.849157	99
Es	-0.091655	2.186877	-0.270530	99
Es	0.669979	-0.104958	0.334648	99
Es	-0.181699	-1.818820	0.082958	99
Es	0.269587	0.204928	-0.315070	99
Es	0.013749	1.059564	1.222705	99
Es	0.291617	2.000867	-0.878488	99
Es	0.270618	1.270231	-1.010609	99
Es	0.478276	1.057744	1.809741	99
Es	0.155185	2.972729	0.710526	99
Es	-1.168196	-1.110789	0.372706	99
Es	-0.029689	-2.275928	-1.060169	99
Es	0.063275	-2.405915	-0.325768	99
Es	-0.419722	0.347741	-1.403428	99
Es	0.560075	2.161113	-0.202150	99
Es	0.797038	0.289976	-1.508045	99
Es	0.167411	2.301686	0.416143	99
Es	0.361104	2.474397	-1.434308	99
Es	-0.371054	-1.427662	1.244256	99
Es	0.234508	0.525451	-1.074433	99
Es	0.779892	-2.540561	-0.197043	99
Es	0.354854	-0.025651	0.286422	99
Es	-0.429703	-1.234591	0.515647	99
45
Properties=species:S:1:pos:R:3:Z:I:1 energy=-288.12305398229375 field_type=dipole dipole="0.000000 0.000000 0.000000" charge=0
C	0.063296	-2.405927	-0.325776	6
C	-0.429794	-1.234667	0.515694	6
N	0.355546	-0.025817	0.286524	7
C	0.234506	0.525463	-1.074556	6
C	0.291606	2.000913	-0.878366	6
C	0.167426	2.301673	0.416014	6
C	0.013726	1.059623	1.222804	6
H	-0.497764	-3.311267	-0.071496	1
H	1.124226	-2.605797	-0.140536	1
H	-0.070894	-2.222077	-1.396606	1
H	-0.342164	-1.524787	1.569924	1
H	-1.494544	-1.061157	0.317004	1
H	-0.713764	0.264613	-1.559376	1
H	1.065946	0.179273	-1.695986	1
H	0.393236	2.714513	-1.681686	1
H	0.152046	3.298413	0.830214	1
H	0.703466	1.051613	2.072174	1
H	-1.016094	0.995403	1.594034	1
Es	0.091591	1.703293	0.849382	99
Es	0.778516	-2.540766	-0.196876	99
Es	-0.015846	-0.531889	0.372899	99
Es	0.361350	2.474015	-1.434747	99
Es	0.664987	-0.106433	0.334632	99
Es	-0.092288	2.187080	-0.270630	99
Es	0.797331	0.290174	-1.508601	99
Es	-0.419811	0.348346	-1.403269	99
Es	0.176558	0.444380	0.699134	99
Es	0.354992	-0.025673	0.286443	99
Es	-0.181772	-1.818819	0.083024	99
Es	0.013748	1.059563	1.222704	99
Es	-0.371500	-1.427465	1.245115	99
Es	0.478472	1.058082	1.810202	99
Es	-0.029474	-2.276324	-1.061357	99
Es	0.155330	2.972496	0.710846	99
Es	-0.429701	-1.234592	0.515648	99
Es	0.063274	-2.405914	-0.325768	99
Es	-0.695500	1.015939	1.472084	99
Es	0.270101	1.269668	-1.010463	99
Es	0.234512	0.525450	-1.074436	99
Es	0.291617	2.000866	-0.878488	99
Es	0.272400	0.205001	-0.316124	99
Es	-0.320252	-3.018156	-0.148867	99
Es	-1.166989	-1.110664	0.372657	99
Es	0.560911	2.160416	-0.201913	99
Es	0.167413	2.301686	0.416142	99
45
Properties=species:S:1:pos:R:3:Z:I:1 energy=-288.12305398229375 field_type=dipole dipole="0.000000 0.000000 0.000000" charge=0
C	0.063296	-2.405927	-0.325776	6
C	-0.429794	-1.234667	0.515694	6
N	0.355546	-0.025817	0.286524	7
C	0.234506	0.525463	-1.074556	6
C	0.291606	2.000913	-0.878366	6
C	0.167426	2.301673	0.416014	6
C	0.013726	1.059623	1.222804	6
H	-0.497764	-3.311267	-0.071496	1
H	1.124226	-2.605797	-0.140536	1
H	-0.070894	-2.222077	-1.396606	1
H	-0.342164	-1.524787	1.569924	1
H	-1.494544	-1.061157	0.317004	1
H	-0.713764	0.264613	-1.559376	1
H	1.065946	0.179273	-1.695986	1
H	0.393236	2.714513	-1.681686	1
H	0.152046	3.298413	0.830214	1
H	0.703466	1.051613	2.072174	1
H	-1.016094	0.995403	1.594034	1
Es	-0.371935	-1.427264	1.245791	99
Es	-0.016134	-0.531399	0.372636	99
Es	-1.165926	-1.110535	0.372626	99
Es	0.269896	1.269224	-1.010341	99
Es	0.167417	2.301686	0.416146	99
Es	0.561407	2.160105	-0.201806	99
Es	-0.695587	1.016158	1.471978	99
Es	0.797670	0.290506	-1.508745	99
Es	0.013750	1.059561	1.222703	99
Es	0.178900	0.444901	0.700512	99
Es	0.063278	-2.405914	-0.325768	99
Es	-0.429702	-1.234593	0.515650	99
Es	0.478724	1.058366	1.810356	99
Es	0.091259	1.702843	0.849523	99
Es	-0.419942	0.348659	-1.403423	99
Es	0.354837	-0.025656	0.286420	99
Es	-0.182051	-1.818856	0.083042	99
Es	0.361666	2.473626	-1.435077	99
Es	0.155606	2.972214	0.711207	99
Es	0.275517	0.204945	-0.317169	99
Es	-0.319394	-3.017494	-0.148869	99
Es	0.234507	0.525450	-1.074432	99
Es	0.777666	-2.540938	-0.196778	99
Es	-0.093218	2.187135	-0.270711	99
Es	0.659579	-0.107105	0.334507	99
Es	-0.029437	-2.276731	-1.062117	99
Es	0.291616	2.000867	-0.878489	99
45
Properties=species:S:1:pos:R:3:Z:I:1 energy=-288.12305398229375 field_type=dipole dipole="0.000000 0.000000 0.000000" charge=0
C	0.063296	-2.405927	-0.325776	6
C	-0.429794	-1.234667	0.515694	6
N	0.355546	-0.025817	0.286524	7
C	0.234506	0.525463	-1.074556	6
C	0.291606	2.000913	-0.878366	6
C	0.167426	2.301673	0.416014	6
C	0.013726	1.059623	1.222804	6
H	-0.497764	-3.311267	-0.071496	1
H	1.124226	-2.605797	-0.140536	1
H	-0.070894	-2.222077	-1.396606	1
H	-0.342164	-1.524787	1.569924	1
H	-1.494544	-1.061157	0.317004	1
H	-0.713764	0.264613	-1.559376	1
H	1.065946	0.179273	-1.695986	1
H	0.393236	2.714513	-1.681686	1
H	0.152046	3.298413	0.830214	1
H	0.703466	1.051613	2.072174	1
H	-1.016094	0.995403	1.594034	1
Es	-0.029202	-2.276911	-1.062686	99
Es	-0.093795	2.186971	-0.270733	99
Es	-0.372180	-1.427188	1.246216	99
Es	0.291618	2.000866	-0.878488	99
Es	0.561752	2.159854	-0.201703	99
Es	0.269599	1.268833	-1.010197	99
Es	-0.318945	-3.017210	-0.148768	99
Es	-0.182043	-1.818771	0.082972	99
Es	-0.016414	-0.530849	0.372467	99
Es	-0.695571	1.016325	1.471737	99
Es	0.013753	1.059559	1.222704	99
Es	0.090910	1.702418	0.849711	99
Es	0.655828	-0.107670	0.334370	99
Es	0.063274	-2.405913	-0.325768	99
Es	0.478965	1.058662	1.810652	99
Es	-0.420027	0.348907	-1.403307	99
Es	0.354832	-0.025654	0.286419	99
Es	0.361911	2.473317	-1.435412	99
Es	0.180616	0.445266	0.701368	99
Es	-0.429703	-1.234594	0.515649	99
Es	0.776756	-2.541029	-0.196769	99
Es	0.155668	2.972097	0.711403	99
Es	-1.165181	-1.110407	0.372680	99
Es	0.234509	0.525451	-1.074434	99
Es	0.167412	2.301686	0.416144	99
Es	0.277710	0.204985	-0.317772	99
Es	0.797917	0.290758	-1.509082	99
45
Properties=species:S:1:pos:R:3:Z:I:1 energy=-288.12305398229375 field_type=dipole dipole="0.000000 0.000000 0.000000" charge=0
C	0.063296	-2.405927	-0.325776	6
C	-0.429794	-1.234667	0.515694	6
N	0.355546	-0.025817	0.286524	7
C	0.234506	0.525463	-1.074556	6
C	0.291606	2.000913	-0.878366	6
C	0.167426	2.301673	0.416014	6
C	0.013726	1.059623	1.222804	6
H	-0.497764	-3.311267	-0.071496	1
H	1.124226	-2.605797	-0.140536	1
H	-0.070894	-2.222077	-1.396606	1
H	-0.342164	-1.524787	1.569924	1
H	-1.494544	-1.061157	0.317004	1
H	-0.713764	0.264613	-1.559376	1
H	1.065946	0.179273	-1.695986	1
H	0.393236	2.714513	-1.681686	1
H	0.152046	3.298413	0.830214	1
H	0.703466	1.051613	2.072174	1
H	-1.016094	0.995403	1.594034	1
Es	0.479072	1.058781	1.810630	99
Es	0.155726	2.971972	0.711663	99
Es	0.234509	0.525452	-1.074435	99
Es	-0.420104	0.349228	-1.403403	99
Es	0.167413	2.301686	0.416143	99
Es	0.278870	0.205155	-0.318005	99
Es	0.182479	0.445439	0.702230	99
Es	0.798137	0.290982	-1.509206	99
Es	-0.182189	-1.818900	0.083023	99
Es	-0.695698	1.016554	1.471746	99
Es	0.269379	1.268380	-1.010062	99
Es	-0.318469	-3.016749	-0.148866	99
Es	0.776131	-2.541199	-0.196665	99
Es	0.013750	1.059565	1.222705	99
Es	-0.029036	-2.277142	-1.063130	99
Es	0.090776	1.702056	0.849857	99
Es	-0.093986	2.187064	-0.270760	99
Es	0.291618	2.000868	-0.878491	99
Es	0.354824	-0.025641	0.286410	99
Es	0.562072	2.159433	-0.201592	99
Es	-0.016812	-0.530330	0.372228	99
Es	-1.164376	-1.110375	0.372680	99
Es	-0.372579	-1.426894	1.246618	99
Es	0.652867	-0.108272	0.333918	99
Es	0.362022	2.473155	-1.435747	99
Es	0.063276	-2.405912	-0.325767	99
Es	-0.429702	-1.234594	0.515649	99
45
Properties=species:S:1:pos:R:3:Z:I:1 energy=-288.12305398229375 field_type=dipole dipole="0.000000 0.000000 0.000000" charge=0
C	0.063296	-2.405927	-0.325776	6
C	-0.429794	-1.234667	0.515694	6
N	0.355546	-0.025817	0.286524	7
C	0.234506	0.525463	-1.074556	6
C	0.291606	2.000913	-0.878366	6
C	0.167426	2.301673	0.416014	6
C	0.013726	1.059623	1.222804	6
H	-0.497764	-3.311267	-0.071496	1
H	1.124226	-2.605797	-0.140536	1
H	-0.070894	-2.222077	-1.396606	1
H	-0.342164	-1.524787	1.569924	1
H	-1.494544	-1.061157	0.317004	1
H	-0.713764	0.264613	-1.559376	1
H	1.065946	0.179273	-1.695986	1
H	0.393236	2.714513	-1.681686	1
H	0.152046	3.298413	0.830214	1
H	0.703466	1.051613	2.072174	1
H	-1.016094	0.995403	1.594034	1
Es	0.798294	0.291177	-1.509412	99
Es	0.291617	2.000866	-0.878488	99
Es	0.183852	0.445776	0.702827	99
Es	0.362117	2.472795	-1.436052	99
Es	-0.420139	0.349342	-1.403321	99
Es	-0.317991	-3.016432	-0.148916	99
Es	0.269063	1.268253	-1.009838	99
Es	-0.094390	2.187181	-0.270820	99
Es	0.479239	1.059016	1.810700	99
Es	-0.028883	-2.277268	-1.063558	99
Es	-1.163846	-1.110373	0.372704	99
Es	0.013751	1.059561	1.222703	99
Es	0.063278	-2.405911	-0.325766	99
Es	-0.016904	-0.529981	0.372147	99
Es	0.649591	-0.108375	0.333803	99
Es	0.155843	2.971843	0.711834	99
Es	-0.429703	-1.234593	0.515648	99
Es	0.562431	2.159180	-0.201508	99
Es	0.167414	2.301687	0.416143	99
Es	-0.182334	-1.819008	0.083121	99
Es	-0.372781	-1.426800	1.246895	99
Es	-0.695857	1.016688	1.471646	99
Es	0.090621	1.701621	0.850029	99
Es	0.234509	0.525452	-1.074435	99
Es	0.354813	-0.025635	0.286412	99
Es	0.280852	0.204920	-0.318541	99
Es	0.775513	-2.541222	-0.196584	99
45
Properties=species:S:1:pos:R:3:Z:I:1 energy=-288.12305398229375 field_type=dipole dipole="0.000000 0.000000 0.000000" charge=0
C	0.063296	-2.405927	-0.325776	6
C	-0.429794	-1.234667	0.515694	6
N	0.355546	-0.025817	0.286524	7
C	0.234506	0.525463	-1.074556	6
C	0.291606	2.000913	-0.878366	6
C	0.167426	2.301673	0.416014	6
C	0.013726	1.059623	1.222804	6
H	-0.497764	-3.311267	-0.071496	1
H	1.124226	-2.605797	-0.140536	1
H	-0.070894	-2.222077	-1.396606	1
H	-0.342164	-1.524787	1.569924	1
H	-1.494544	-1.061157	0.317004	1
H	-0.713764	0.264613	-1.559376	1
H	1.065946	0.179273	-1.695986	1
H	0.393236	2.714513	-1.681686	1
H	0.152046	3.298413	0.830214	1
H	0.703466	1.051613	2.072174	1
H	-1.016094	0.995403	1.594034	1
Es	0.479314	1.059177	1.810795	99
Es	-0.372936	-1.426749	1.247111	99
Es	-0.420250	0.349586	-1.403359	99
Es	0.354952	-0.025734	0.286447	99
Es	-1.163416	-1.110282	0.372742	99
Es	-0.182501	-1.818898	0.083086	99
Es	0.646876	-0.108394	0.333439	99
Es	0.063274	-2.405913	-0.325768	99
Es	-0.695844	1.016799	1.471559	99
Es	0.269072	1.267845	-1.009770	99
Es	-0.429702	-1.234593	0.515649	99
Es	0.562753	2.159147	-0.201466	99
Es	0.774990	-2.541147	-0.196621	99
Es	0.282099	0.204980	-0.318710	99
Es	0.291617	2.000866	-0.878488	99
Es	-0.094656	2.187029	-0.270806	99
Es	-0.017035	-0.529768	0.372040	99
Es	0.362053	2.472639	-1.436240	99
Es	0.090483	1.701362	0.850175	99
Es	0.185242	0.445823	0.703416	99
Es	0.155803	2.971719	0.711958	99
Es	0.013751	1.059564	1.222705	99
Es	0.234509	0.525450	-1.074433	99
Es	0.798439	0.291381	-1.509536	99
Es	-0.317619	-3.016322	-0.148902	99
Es	-0.028711	-2.277494	-1.063796	99
Es	0.167412	2.301686	0.416144	99
45
Properties=species:S:1:pos:R:3:Z:I:1 energy=-288.12305398229375 field_type=dipole dipole="0.000000 0.000000 0.000000" charge=0
C	0.063296	-2.405927	-0.325776	6
C	-0.429794	-1.234667	0.515694	6
N	0.355546	-0.025817	0.286524	7
C	0.234506	0.525463	-1.074556	6
C	0.291606	2.000913	-0.878366	6
C	0.167426	2.301673	0.416014	6
C	0.013726	1.059623	1.222804	6
H	-0.497764	-3.311267	-0.071496	1
H	1.124226	-2.605797	-0.140536	1
H	-0.070894	-2.222077	-1.396606	1
H	-0.342164	-1.524787	1.569924	1
H	-1.494544	-1.061157	0.317004	1
H	-0.713764	0.264613	-1.559376	1
H	1.065946	0.179273	-1.695986	1
H	0.393236	2.714513	-1.681686	1
H	0.152046	3.298413	0.830214	1
H	0.703466	1.051613	2.072174	1
H	-1.016094	0.995403	1.594034	1
Es	0.291611	2.000866	-0.878487	99
Es	0.644548	-0.108382	0.333313	99
Es	-0.373110	-1.426716	1.247308	99
Es	0.013750	1.059563	1.222705	99
Es	0.479398	1.059339	1.810996	99
Es	-0.695820	1.016855	1.471373	99
Es	0.562859	2.158871	-0.201396	99
Es	-0.429703	-1.234594	0.515649	99
Es	-1.162944	-1.110294	0.372791	99
Es	-0.028715	-2.277600	-1.064016	99
Es	0.774679	-2.541185	-0.196629	99
Es	0.798581	0.291530	-1.509593	99
Es	0.186214	0.446020	0.703813	99
Es	0.283337	0.204989	-0.318967	99
Es	0.090104	1.701039	0.850283	99
Es	0.268907	1.267462	-1.009800	99
Es	-0.182603	-1.818901	0.083053	99
Es	0.355012	-0.025727	0.286443	99
Es	-0.094872	2.187202	-0.270861	99
Es	0.167409	2.301687	0.416146	99
Es	0.362308	2.472453	-1.436313	99
Es	0.063274	-2.405913	-0.325768	99
Es	-0.420342	0.349682	-1.403390	99
Es	-0.317353	-3.016096	-0.148895	99
Es	0.234509	0.525451	-1.074434	99
Es	-0.017023	-0.529522	0.372002	99
Es	0.155953	2.971681	0.712048	99
45
Properties=species:S:1:pos:R:3:Z:I:1 energy=-288.12305398229375 field_type=dipole dipole="0.000000 0.000000 0.000000" charge=0
C	0.063296	-2.405927	-0.325776	6
C	-0.429794	-1.234667	0.515694	6
N	0.355546	-0.025817	0.286524	7
C	0.234506	0.525463	-1.074556	6
C	0.291606	2.000913	-0.878366	6
C	0.167426	2.301673	0.416014	6
C	0.013726	1.059623	1.222804	6
H	-0.497764	-3.311267	-0.071496	1
H	1.124226	-2.605797	-0.140536	1
H	-0.070894	-2.222077	-1.396606	1
H	-0.342164	-1.524787	1.569924	1
H	-1.494544	-1.061157	0.317004	1
H	-0.713764	0.264613	-1.559376	1
H	1.065946	0.179273	-1.695986	1
H	0.393236	2.714513	-1.681686	1
H	0.152046	3.298413	0.830214	1
H	0.703466	1.051613	2.072174	1
H	-1.016094	0.995403	1.594034	1
Es	-0.429703	-1.234592	0.515648	99
Es	-0.373240	-1.426536	1.247497	99
Es	-0.316963	-3.015870	-0.148968	99
Es	-0.095071	2.187212	-0.270873	99
Es	-0.028645	-2.277751	-1.064245	99
Es	0.155983	2.971525	0.712331	99
Es	0.354829	-0.025741	0.286439	99
Es	-0.017478	-0.529260	0.371785	99
Es	0.090213	1.700916	0.850196	99
Es	0.013750	1.059564	1.222705	99
Es	0.479400	1.059363	1.810979	99
Es	0.798658	0.291653	-1.509654	99
Es	0.284407	0.205009	-0.319060	99
Es	0.562982	2.158774	-0.201372	99
Es	-0.695899	1.016906	1.471370	99
Es	-0.420389	0.349770	-1.403402	99
Es	-0.182750	-1.818985	0.083132	99
Es	0.268746	1.267358	-1.009647	99
Es	0.643024	-0.108656	0.333188	99
Es	0.291617	2.000867	-0.878489	99
Es	0.234510	0.525454	-1.074439	99
Es	0.063274	-2.405912	-0.325766	99
Es	0.362382	2.472319	-1.436554	99
Es	0.774291	-2.541174	-0.196627	99
Es	-1.162564	-1.110271	0.372824	99
Es	0.187186	0.446134	0.704230	99
Es	0.167417	2.301686	0.416144	99
45
Properties=species:S:1:pos:R:3:Z:I:1 energy=-288.12305398229375 field_type=dipole dipole="0.000000 0.000000 0.000000" charge=0
C	0.063296	-2.405927	-0.325776	6
C	-0.429794	-1.234667	0.515694	6
N	0.355546	-0.025817	0.286524	7
C	0.234506	0.525463	-1.074556	6
C	0.291606	2.000913	-0.878366	6
C	0.167426	2.301673	0.416014	6
C	0.013726	1.059623	1.222804	6
H	-0.497764	-3.311267	-0.071496	1
H	1.124226	-2.605797	-0.140536	1
H	-0.070894	-2.222077	-1.396606	1
H	-0.342164	-1.524787	1.569924	1
H	-1.494544	-1.061157	0.317004	1
H	-0.713764	0.264613	-1.559376	1
H	1.065946	0.179273	-1.695986	1
H	0.393236	2.714513	-1.681686	1
H	0.152046	3.298413	0.830214	1
H	0.703466	1.051613	2.072174	1
H	-1.016094	0.995403	1.594034	1
Es	0.013750	1.059567	1.222706	99
Es	0.234508	0.525451	-1.074434	99
Es	-0.373338	-1.426548	1.247573	99
Es	-0.695931	1.017064	1.471248	99
Es	0.355013	-0.025687	0.286443	99
Es	-0.095313	2.187132	-0.270877	99
Es	0.156113	2.971491	0.712413	99
Es	0.773984	-2.541438	-0.196606	99
Es	0.167412	2.301685	0.416143	99
Es	-0.420455	0.350007	-1.403343	99
Es	0.640920	-0.108447	0.333171	99
Es	-0.028558	-2.277873	-1.064403	99
Es	0.187757	0.446244	0.704270	99
Es	0.563121	2.158630	-0.201326	99
Es	-0.316898	-3.015525	-0.149033	99
Es	-0.017416	-0.529266	0.371804	99
Es	-0.182758	-1.818919	0.083154	99
Es	0.291619	2.000872	-0.878496	99
Es	0.285701	0.204968	-0.319275	99
Es	0.798679	0.291663	-1.509798	99
Es	0.090181	1.700686	0.850422	99
Es	0.362354	2.472111	-1.436792	99
Es	-1.162269	-1.110253	0.372919	99
Es	0.268778	1.267244	-1.009475	99
Es	-0.429703	-1.234594	0.515648	99
Es	0.063273	-2.405919	-0.325766	99
Es	0.479444	1.059414	1.811080	99
