47
Properties=species:S:1:pos:R:3:Z:I:1 energy=-305.2761591509063 field_type=dipole dipole="0.000000 0.000000 0.000000" charge=0
C	0.014583	-2.166414	-0.678437	6
C	-0.697807	-0.955104	-0.081277	6
N	-1.205947	-1.280894	1.252603	7
C	0.239833	0.218176	0.035203	6
C	0.578833	1.052306	-1.184947	6
N	-0.282197	1.577226	-0.135237	7
C	0.368853	2.549056	0.736213	6
H	0.383593	-1.940454	-1.684877	1
H	-0.662177	-3.024404	-0.754717	1
H	0.878293	-2.465304	-0.073227	1
H	-1.550467	-0.696514	-0.720707	1
H	-0.452407	-1.639794	1.834263	1
H	-1.890967	-2.030154	1.176553	1
H	1.030073	0.055606	0.760453	1
H	0.085783	0.828096	-2.124257	1
H	1.582502	1.448546	-1.279667	1
H	-0.119327	2.549276	1.716333	1
H	0.259753	3.552206	0.311293	1
H	1.439203	2.368546	0.894433	1
Es	0.035400	1.982627	0.237335	99
Es	1.262675	1.327903	-1.245713	99
Es	-0.737855	-1.513677	1.585665	99
Es	0.368808	2.548962	0.736128	99
Es	-0.228503	-0.359292	-0.027667	99
Es	-1.205718	-1.281334	1.252360	99
Es	0.779511	0.112563	0.536280	99
Es	0.603184	-2.365830	-0.255843	99
Es	-0.281626	1.577094	-0.135165	99
Es	0.040306	2.545719	1.403713	99
Es	0.239780	0.218389	0.035106	99
Es	0.106555	1.477797	-0.659347	99
Es	-1.275818	-0.781100	-0.520413	99
Es	1.110148	2.413596	0.838005	99
Es	0.578712	1.052332	-1.184749	99
Es	-0.697798	-0.955160	-0.081143	99
Es	-0.325146	-1.568820	-0.387583	99
Es	-1.605070	-1.749515	1.193429	99
Es	-0.106419	0.976509	0.078634	99
Es	0.245786	0.897553	-1.826074	99
Es	0.299166	3.232915	0.443033	99
Es	0.014591	-2.166420	-0.678441	99
Es	-0.625077	1.615046	-0.207201	99
Es	-0.975574	-1.163957	0.675603	99
Es	0.532478	0.468098	-0.666260	99
Es	-0.452546	-2.749849	-0.724927	99
Es	0.265316	-2.011876	-1.366685	99
Es	-1.351768	-1.001439	1.409804	99
47
Properties=species:S:1:pos:R:3:Z:I:1 energy=-305.2761591509063 field_type=dipole dipole="0.000000 0.000000 0.000000" charge=0
C	0.014583	-2.166414	-0.678437	6
C	-0.697807	-0.955104	-0.081277	6
N	-1.205947	-1.280894	1.252603	7
C	0.239833	0.218176	0.035203	6
C	0.578833	1.052306	-1.184947	6
N	-0.282197	1.577226	-0.135237	7
C	0.368853	2.549056	0.736213	6
H	0.383593	-1.940454	-1.684877	1
H	-0.662177	-3.024404	-0.754717	1
H	0.878293	-2.465304	-0.073227	1
H	-1.550467	-0.696514	-0.720707	1
H	-0.452407	-1.639794	1.834263	1
H	-1.890967	-2.030154	1.176553	1
H	1.030073	0.055606	0.760453	1
H	0.085783	0.828096	-2.124257	1
H	1.582502	1.448546	-1.279667	1
H	-0.119327	2.549276	1.716333	1
H	0.259753	3.552206	0.311293	1
H	1.439203	2.368546	0.894433	1
Es	-1.603132	-1.749034	1.193164	99
Es	0.265656	-2.011858	-1.367890	99
Es	-0.622731	1.615419	-0.205938	99
Es	0.034622	1.982397	0.236876	99
Es	-1.352924	-1.002954	1.412047	99
Es	0.779066	0.112601	0.536652	99
Es	0.106099	1.480289	-0.661881	99
Es	0.040453	2.544991	1.404264	99
Es	-1.275409	-0.780898	-0.520450	99
Es	-0.228725	-0.359112	-0.027425	99
Es	-0.697798	-0.955160	-0.081143	99
Es	0.368806	2.548967	0.736131	99
Es	-0.281521	1.577094	-0.135140	99
Es	0.239782	0.218388	0.035102	99
Es	0.299541	3.233929	0.442173	99
Es	-0.738320	-1.514745	1.585088	99
Es	-1.205747	-1.281359	1.252353	99
Es	0.602525	-2.366078	-0.255568	99
Es	0.578712	1.052334	-1.184750	99
Es	1.108993	2.413097	0.837754	99
Es	-0.325193	-1.569066	-0.387454	99
Es	0.533165	0.466062	-0.666169	99
Es	0.014590	-2.166420	-0.678441	99
Es	-0.452028	-2.749154	-0.724373	99
Es	-0.976025	-1.161911	0.674817	99
Es	0.246064	0.898593	-1.825925	99
Es	1.261496	1.328365	-1.245908	99
Es	-0.106520	0.974060	0.079915	99
47
Properties=species:S:1:pos:R:3:Z:I:1 energy=-305.2761591509063 field_type=dipole dipole="0.000000 0.000000 0.000000" charge=0
C	0.014583	-2.166414	-0.678437	6
C	-0.697807	-0.955104	-0.081277	6
N	-1.205947	-1.280894	1.252603	7
C	0.239833	0.218176	0.035203	6
C	0.578833	1.052306	-1.184947	6
N	-0.282197	1.577226	-0.135237	7
C	0.368853	2.549056	0.736213	6
H	0.383593	-1.940454	-1.684877	1
H	-0.662177	-3.024404	-0.754717	1
H	0.878293	-2.465304	-0.073227	1
H	-1.550467	-0.696514	-0.720707	1
H	-0.452407	-1.639794	1.834263	1
H	-1.890967	-2.030154	1.176553	1
H	1.030073	0.055606	0.760453	1
H	0.085783	0.828096	-2.124257	1
H	1.582502	1.448546	-1.279667	1
H	-0.119327	2.549276	1.716333	1
H	0.259753	3.552206	0.311293	1
H	1.439203	2.368546	0.894433	1
Es	-1.602101	-1.748270	1.193140	99
Es	0.246235	0.899289	-1.825730	99
Es	1.260869	1.328669	-1.246028	99
Es	0.578711	1.052331	-1.184747	99
Es	-0.620649	1.616050	-0.205241	99
Es	-0.697798	-0.955160	-0.081144	99
Es	0.040508	2.544530	1.404624	99
Es	0.299739	3.234444	0.441629	99
Es	0.533397	0.464910	-0.665999	99
Es	0.368805	2.548967	0.736132	99
Es	-0.451691	-2.748586	-0.724130	99
Es	-0.976660	-1.160414	0.674188	99
Es	-0.107216	0.972386	0.081222	99
Es	0.105789	1.481677	-0.663537	99
Es	-0.281548	1.577095	-0.135145	99
Es	-0.228999	-0.359119	-0.027287	99
Es	0.034252	1.982293	0.236420	99
Es	1.108349	2.412760	0.837506	99
Es	0.778858	0.112493	0.536759	99
Es	0.602147	-2.366361	-0.255335	99
Es	-0.325023	-1.569181	-0.387369	99
Es	0.265849	-2.011897	-1.368564	99
Es	-1.353433	-1.004183	1.413422	99
Es	-1.275197	-0.780685	-0.520569	99
Es	0.239782	0.218393	0.035103	99
Es	0.014591	-2.166420	-0.678441	99
Es	-1.205678	-1.281398	1.252357	99
Es	-0.738390	-1.515778	1.584648	99
47
Properties=species:S:1:pos:R:3:Z:I:1 energy=-305.2761591509063 field_type=dipole dipole="0.000000 0.000000 0.000000" charge=0
C	0.014583	-2.166414	-0.678437	6
C	-0.697807	-0.955104	-0.081277	6
N	-1.205947	-1.280894	1.252603	7
C	0.239833	0.218176	0.035203	6
C	0.578833	1.052306	-1.184947	6
N	-0.282197	1.577226	-0.135237	7
C	0.368853	2.549056	0.736213	6
H	0.383593	-1.940454	-1.684877	1
H	-0.662177	-3.024404	-0.754717	1
H	0.878293	-2.465304	-0.073227	1
H	-1.550467	-0.696514	-0.720707	1
H	-0.452407	-1.639794	1.834263	1
H	-1.890967	-2.030154	1.176553	1
H	1.030073	0.055606	0.760453	1
H	0.085783	0.828096	-2.124257	1
H	1.582502	1.448546	-1.279667	1
H	-0.119327	2.549276	1.716333	1
H	0.259753	3.552206	0.311293	1
H	1.439203	2.368546	0.894433	1
Es	-0.697798	-0.955160	-0.081144	99
Es	0.033741	1.982222	0.236116	99
Es	-1.275101	-0.780590	-0.520509	99
Es	0.246419	0.899753	-1.825631	99
Es	0.533689	0.463971	-0.665870	99
Es	-0.281546	1.577088	-0.135149	99
Es	-1.353993	-1.005415	1.414176	99
Es	1.107772	2.412605	0.837379	99
Es	0.368805	2.548967	0.736133	99
Es	0.778684	0.112490	0.536830	99
Es	-0.325056	-1.569300	-0.387278	99
Es	-0.229179	-0.359077	-0.027227	99
Es	-0.976964	-1.159039	0.673797	99
Es	-1.205708	-1.281375	1.252365	99
Es	-0.107588	0.971555	0.082181	99
Es	0.040587	2.544079	1.404840	99
Es	0.266000	-2.011986	-1.369073	99
Es	-1.601116	-1.747744	1.192940	99
Es	0.239775	0.218396	0.035106	99
Es	1.260240	1.328797	-1.246085	99
Es	0.014591	-2.166421	-0.678442	99
Es	0.299841	3.234898	0.441238	99
Es	-0.619357	1.616226	-0.205057	99
Es	0.578711	1.052329	-1.184751	99
Es	-0.738424	-1.516374	1.584732	99
Es	0.601809	-2.366419	-0.255316	99
Es	-0.451347	-2.748318	-0.723845	99
Es	0.106012	1.482677	-0.664576	99
47
Properties=species:S:1:pos:R:3:Z:I:1 energy=-305.2761591509063 field_type=dipole dipole="0.000000 0.000000 0.000000" charge=0
C	0.014583	-2.166414	-0.678437	6
C	-0.697807	-0.955104	-0.081277	6
N	-1.205947	-1.280894	1.252603	7
C	0.239833	0.218176	0.035203	6
C	0.578833	1.052306	-1.184947	6
N	-0.282197	1.577226	-0.135237	7
C	0.368853	2.549056	0.736213	6
H	0.383593	-1.940454	-1.684877	1
H	-0.662177	-3.024404	-0.754717	1
H	0.878293	-2.465304	-0.073227	1
H	-1.550467	-0.696514	-0.720707	1
H	-0.452407	-1.639794	1.834263	1
H	-1.890967	-2.030154	1.176553	1
H	1.030073	0.055606	0.760453	1
H	0.085783	0.828096	-2.124257	1
H	1.582502	1.448546	-1.279667	1
H	-0.119327	2.549276	1.716333	1
H	0.259753	3.552206	0.311293	1
H	1.439203	2.368546	0.894433	1
Es	1.107386	2.412411	0.837246	99
Es	0.014591	-2.166421	-0.678441	99
Es	0.033721	1.981893	0.235818	99
Es	0.246500	0.900186	-1.825464	99
Es	-0.229368	-0.359112	-0.027227	99
Es	0.534034	0.463275	-0.665835	99
Es	0.601673	-2.366668	-0.255096	99
Es	-0.618460	1.616738	-0.204630	99
Es	0.578711	1.052333	-1.184748	99
Es	1.259782	1.329069	-1.246185	99
Es	0.040727	2.543751	1.404960	99
Es	0.239780	0.218386	0.035105	99
Es	0.778524	0.112515	0.536892	99
Es	-0.451199	-2.747939	-0.723876	99
Es	-0.977078	-1.158447	0.673738	99
Es	-0.697799	-0.955160	-0.081144	99
Es	0.266100	-2.012000	-1.369297	99
Es	-1.274950	-0.780580	-0.520549	99
Es	-0.738579	-1.516643	1.584618	99
Es	0.368806	2.548968	0.736131	99
Es	0.299892	3.235260	0.440944	99
Es	-1.205683	-1.281384	1.252357	99
Es	-0.325015	-1.569215	-0.387328	99
Es	0.105814	1.483296	-0.665264	99
Es	-0.281558	1.577090	-0.135150	99
Es	-0.107941	0.970815	0.082780	99
Es	-1.354704	-1.005917	1.414839	99
Es	-1.600211	-1.747663	1.192684	99
47
Properties=species:S:1:pos:R:3:Z:I:1 energy=-305.2761591509063 field_type=dipole dipole="0.000000 0.000000 0.000000" charge=0
C	0.014583	-2.166414	-0.678437	6
C	-0.697807	-0.955104	-0.081277	6
N	-1.205947	-1.280894	1.252603	7
C	0.239833	0.218176	0.035203	6
C	0.578833	1.052306	-1.184947	6
N	-0.282197	1.577226	-0.135237	7
C	0.368853	2.549056	0.736213	6
H	0.383593	-1.940454	-1.684877	1
H	-0.662177	-3.024404	-0.754717	1
H	0.878293	-2.465304	-0.073227	1
H	-1.550467	-0.696514	-0.720707	1
H	-0.452407	-1.639794	1.834263	1
H	-1.890967	-2.030154	1.176553	1
H	1.030073	0.055606	0.760453	1
H	0.085783	0.828096	-2.124257	1
H	1.582502	1.448546	-1.279667	1
H	-0.119327	2.549276	1.716333	1
H	0.259753	3.552206	0.311293	1
H	1.439203	2.368546	0.894433	1
Es	0.601662	-2.366860	-0.255080	99
Es	-0.738843	-1.517471	1.584355	99
Es	0.040748	2.543521	1.405104	99
Es	0.778427	0.112503	0.536974	99
Es	-0.107955	0.970398	0.083286	99
Es	0.265991	-2.011906	-1.369568	99
Es	0.105789	1.483982	-0.665755	99
Es	-0.617824	1.616887	-0.204407	99
Es	0.239783	0.218388	0.035100	99
Es	0.534218	0.462663	-0.665793	99
Es	-1.354484	-1.006435	1.415517	99
Es	0.014591	-2.166421	-0.678441	99
Es	0.300018	3.235490	0.440653	99
Es	-1.274890	-0.780338	-0.520577	99
Es	0.368807	2.548969	0.736132	99
Es	-1.600084	-1.747067	1.192562	99
Es	-0.977171	-1.157703	0.673458	99
Es	-0.451076	-2.747660	-0.723795	99
Es	0.246616	0.900496	-1.825319	99
Es	0.578710	1.052331	-1.184747	99
Es	0.033377	1.981716	0.235514	99
Es	-1.205717	-1.281355	1.252364	99
Es	-0.697798	-0.955159	-0.081143	99
Es	1.106998	2.412284	0.837167	99
Es	-0.324993	-1.569453	-0.387211	99
Es	1.259487	1.329178	-1.246232	99
Es	-0.281518	1.577064	-0.135158	99
Es	-0.229370	-0.359208	-0.027077	99
47
Properties=species:S:1:pos:R:3:Z:I:1 energy=-305.2761591509063 field_type=dipole dipole="0.000000 0.000000 0.000000" charge=0
C	0.014583	-2.166414	-0.678437	6
C	-0.697807	-0.955104	-0.081277	6
N	-1.205947	-1.280894	1.252603	7
C	0.239833	0.218176	0.035203	6
C	0.578833	1.052306	-1.184947	6
N	-0.282197	1.577226	-0.135237	7
C	0.368853	2.549056	0.736213	6
H	0.383593	-1.940454	-1.684877	1
H	-0.662177	-3.024404	-0.754717	1
H	0.878293	-2.465304	-0.073227	1
H	-1.550467	-0.696514	-0.720707	1
H	-0.452407	-1.639794	1.834263	1
H	-1.890967	-2.030154	1.176553	1
H	1.030073	0.055606	0.760453	1
H	0.085783	0.828096	-2.124257	1
H	1.582502	1.448546	-1.279667	1
H	-0.119327	2.549276	1.716333	1
H	0.259753	3.552206	0.311293	1
H	1.439203	2.368546	0.894433	1
Es	-1.205713	-1.281375	1.252357	99
Es	-0.450894	-2.747552	-0.723626	99
Es	0.368804	2.548964	0.736130	99
Es	0.534365	0.462257	-0.665747	99
Es	-0.281520	1.577067	-0.135157	99
Es	-0.738688	-1.517900	1.584172	99
Es	0.299941	3.235662	0.440566	99
Es	0.105709	1.484717	-0.666336	99
Es	0.246681	0.900708	-1.825155	99
Es	0.266124	-2.012007	-1.369816	99
Es	0.578711	1.052330	-1.184747	99
Es	0.040753	2.543235	1.405132	99
Es	-0.697798	-0.955160	-0.081146	99
Es	1.259142	1.329239	-1.246347	99
Es	-0.977576	-1.157209	0.673458	99
Es	-0.229369	-0.359129	-0.027022	99
Es	0.239778	0.218391	0.035108	99
Es	0.601423	-2.366856	-0.255098	99
Es	-0.617280	1.617110	-0.204085	99
Es	-1.274744	-0.780244	-0.520524	99
Es	0.014591	-2.166421	-0.678441	99
Es	-1.599640	-1.746842	1.192369	99
Es	-1.354754	-1.006755	1.415978	99
Es	0.033300	1.981532	0.235238	99
Es	0.778358	0.112450	0.537041	99
Es	1.106895	2.412197	0.837077	99
Es	-0.108024	0.969864	0.083724	99
Es	-0.325075	-1.569437	-0.387221	99
47
Properties=species:S:1:pos:R:3:Z:I:1 energy=-305.2761591509063 field_type=dipole dipole="0.000000 0.000000 0.000000" charge=0
C	0.014583	-2.166414	-0.678437	6
C	-0.697807	-0.955104	-0.081277	6
N	-1.205947	-1.280894	1.252603	7
C	0.239833	0.218176	0.035203	6
C	0.578833	1.052306	-1.184947	6
N	-0.282197	1.577226	-0.135237	7
C	0.368853	2.549056	0.736213	6
H	0.383593	-1.940454	-1.684877	1
H	-0.662177	-3.024404	-0.754717	1
H	0.878293	-2.465304	-0.073227	1
H	-1.550467	-0.696514	-0.720707	1
H	-0.452407	-1.639794	1.834263	1
H	-1.890967	-2.030154	1.176553	1
H	1.030073	0.055606	0.760453	1
H	0.085783	0.828096	-2.124257	1
H	1.582502	1.448546	-1.279667	1
H	-0.119327	2.549276	1.716333	1
H	0.259753	3.552206	0.311293	1
H	1.439203	2.368546	0.894433	1
Es	-0.697801	-0.955159	-0.081144	99
Es	0.033166	1.981363	0.235286	99
Es	0.368806	2.548969	0.736132	99
Es	-1.354831	-1.007305	1.416405	99
Es	0.300022	3.235885	0.440304	99
Es	0.105831	1.485150	-0.666727	99
Es	-1.205693	-1.281369	1.252349	99
Es	-0.108267	0.969636	0.083960	99
Es	1.258891	1.329317	-1.246281	99
Es	0.040777	2.543014	1.405196	99
Es	-0.616717	1.617228	-0.203980	99
Es	-0.977799	-1.156533	0.673313	99
Es	0.534438	0.461848	-0.665647	99
Es	-1.599358	-1.746736	1.192349	99
Es	-0.738694	-1.518110	1.583963	99
Es	0.266170	-2.012048	-1.369909	99
Es	0.578712	1.052334	-1.184750	99
Es	0.239780	0.218389	0.035106	99
Es	0.014591	-2.166420	-0.678441	99
Es	-1.274703	-0.780155	-0.520502	99
Es	0.246804	0.900968	-1.825138	99
Es	0.778342	0.112459	0.537040	99
Es	-0.229464	-0.359189	-0.026966	99
Es	0.601346	-2.366961	-0.255045	99
Es	-0.281591	1.577080	-0.135163	99
Es	-0.325088	-1.569475	-0.387234	99
Es	-0.450753	-2.747395	-0.723638	99
Es	1.106583	2.412051	0.837041	99
47
Properties=species:S:1:pos:R:3:Z:I:1 energy=-305.2761591509063 field_type=dipole dipole="0.000000 0.000000 0.000000" charge=0
C	0.014583	-2.166414	-0.678437	6
C	-0.697807	-0.955104	-0.081277	6
N	-1.205947	-1.280894	1.252603	7
C	0.239833	0.218176	0.035203	6
C	0.578833	1.052306	-1.184947	6
N	-0.282197	1.577226	-0.135237	7
C	0.368853	2.549056	0.736213	6
H	0.383593	-1.940454	-1.684877	1
H	-0.662177	-3.024404	-0.754717	1
H	0.878293	-2.465304	-0.073227	1
H	-1.550467	-0.696514	-0.720707	1
H	-0.452407	-1.639794	1.834263	1
H	-1.890967	-2.030154	1.176553	1
H	1.030073	0.055606	0.760453	1
H	0.085783	0.828096	-2.124257	1
H	1.582502	1.448546	-1.279667	1
H	-0.119327	2.549276	1.716333	1
H	0.259753	3.552206	0.311293	1
H	1.439203	2.368546	0.894433	1
Es	-0.977815	-1.156260	0.673141	99
Es	0.105824	1.485449	-0.666984	99
Es	0.368807	2.548969	0.736133	99
Es	0.300008	3.236046	0.440209	99
Es	-1.598931	-1.746357	1.192243	99
Es	0.040847	2.542836	1.405213	99
Es	0.014591	-2.166421	-0.678441	99
Es	0.534403	0.461589	-0.665531	99
Es	-0.229486	-0.359408	-0.026828	99
Es	0.778301	0.112522	0.536973	99
Es	-1.355072	-1.007612	1.416623	99
Es	0.266218	-2.011979	-1.370009	99
Es	-0.108393	0.969369	0.084384	99
Es	-0.281529	1.577067	-0.135161	99
Es	-1.274659	-0.779993	-0.520575	99
Es	-0.450756	-2.747283	-0.723639	99
Es	-0.697798	-0.955159	-0.081144	99
Es	0.239778	0.218388	0.035107	99
Es	0.033204	1.981233	0.234980	99
Es	1.106402	2.412005	0.837002	99
Es	-0.738865	-1.518465	1.584073	99
Es	-0.616462	1.617557	-0.203951	99
Es	0.601263	-2.367044	-0.254991	99
Es	0.246841	0.901019	-1.824915	99
Es	1.258797	1.329338	-1.246438	99
Es	-1.205720	-1.281356	1.252362	99
Es	-0.325012	-1.569544	-0.387207	99
Es	0.578711	1.052332	-1.184747	99
47
Properties=species:S:1:pos:R:3:Z:I:1 energy=-305.2761591509063 field_type=dipole dipole="0.000000 0.000000 0.000000" charge=0
C	0.014583	-2.166414	-0.678437	6
C	-0.697807	-0.955104	-0.081277	6
N	-1.205947	-1.280894	1.252603	7
C	0.239833	0.218176	0.035203	6
C	0.578833	1.052306	-1.184947	6
N	-0.282197	1.577226	-0.135237	7
C	0.368853	2.549056	0.736213	6
H	0.383593	-1.940454	-1.684877	1
H	-0.662177	-3.024404	-0.754717	1
H	0.878293	-2.465304	-0.073227	1
H	-1.550467	-0.696514	-0.720707	1
H	-0.452407	-1.639794	1.834263	1
H	-1.890967	-2.030154	1.176553	1
H	1.030073	0.055606	0.760453	1
H	0.085783	0.828096	-2.124257	1
H	1.582502	1.448546	-1.279667	1
H	-0.119327	2.549276	1.716333	1
H	0.259753	3.552206	0.311293	1
H	1.439203	2.368546	0.894433	1
Es	-0.324969	-1.569516	-0.387264	99
Es	0.266258	-2.012019	-1.370108	99
Es	-0.108345	0.969136	0.084538	99
Es	0.105566	1.485896	-0.667375	99
Es	0.368806	2.548969	0.736132	99
Es	0.239778	0.218388	0.035107	99
Es	0.014590	-2.166420	-0.678440	99
Es	-1.599482	-1.745677	1.192390	99
Es	-1.354340	-1.007711	1.416916	99
Es	0.040850	2.542678	1.405237	99
Es	-0.615768	1.617211	-0.203723	99
Es	-1.205686	-1.281387	1.252355	99
Es	1.106282	2.411957	0.836956	99
Es	-1.274636	-0.780081	-0.520528	99
Es	-0.697797	-0.955160	-0.081143	99
Es	1.258624	1.329398	-1.246468	99
Es	0.578711	1.052332	-1.184749	99
Es	-0.229607	-0.359282	-0.026907	99
Es	0.246878	0.901218	-1.824824	99
Es	0.534514	0.461296	-0.665533	99
Es	-0.977966	-1.156038	0.673114	99
Es	-0.281585	1.577125	-0.135142	99
Es	0.299987	3.236149	0.440096	99
Es	0.601200	-2.367038	-0.254935	99
Es	-0.738902	-1.519261	1.583742	99
Es	0.032935	1.981424	0.235019	99
Es	-0.450665	-2.747214	-0.723584	99
Es	0.778267	0.112465	0.537002	99
47
Properties=species:S:1:pos:R:3:Z:I:1 energy=-305.2761591509063 field_type=dipole dipole="0.000000 0.000000 0.000000" charge=0
C	0.014583	-2.166414	-0.678437	6
C	-0.697807	-0.955104	-0.081277	6
N	-1.205947	-1.280894	1.252603	7
C	0.239833	0.218176	0.035203	6
C	0.578833	1.052306	-1.184947	6
N	-0.282197	1.577226	-0.135237	7
C	0.368853	2.549056	0.736213	6
H	0.383593	-1.940454	-1.684877	1
H	-0.662177	-3.024404	-0.754717	1
H	0.878293	-2.465304	-0.073227	1
H	-1.550467	-0.696514	-0.720707	1
H	-0.452407	-1.639794	1.834263	1
H	-1.890967	-2.030154	1.176553	1
H	1.030073	0.055606	0.760453	1
H	0.085783	0.828096	-2.124257	1
H	1.582502	1.448546	-1.279667	1
H	-0.119327	2.549276	1.716333	1
H	0.259753	3.552206	0.311293	1
H	1.439203	2.368546	0.894433	1
Es	-0.615577	1.617309	-0.203574	99
Es	-1.355579	-1.008457	1.417249	99
Es	-1.274633	-0.780012	-0.520526	99
Es	-1.598153	-1.746290	1.191834	99
Es	-1.205750	-1.281270	1.252384	99
Es	0.578712	1.052332	-1.184747	99
Es	0.040879	2.542591	1.405301	99
Es	-0.281557	1.577071	-0.135168	99
Es	0.601222	-2.367099	-0.254920	99
Es	0.239782	0.218386	0.035103	99
Es	-0.738872	-1.518823	1.583897	99
Es	0.014590	-2.166424	-0.678442	99
Es	0.778261	0.112463	0.537010	99
Es	1.106153	2.411859	0.836875	99
Es	-0.325015	-1.569548	-0.387247	99
Es	0.300042	3.236221	0.440010	99
Es	0.534429	0.461157	-0.665562	99
Es	-0.229635	-0.359312	-0.026844	99
Es	-0.450567	-2.747114	-0.723579	99
Es	-0.697799	-0.955159	-0.081144	99
Es	0.368806	2.548967	0.736131	99
Es	-0.978009	-1.155216	0.673152	99
Es	-0.108199	0.968831	0.084783	99
Es	0.032729	1.981324	0.234830	99
Es	0.266215	-2.012046	-1.370157	99
Es	0.105439	1.486276	-0.667584	99
Es	1.258579	1.329477	-1.246393	99
Es	0.247005	0.901343	-1.824790	99
47
Properties=species:S:1:pos:R:3:Z:I:1 energy=-305.2761591509063 field_type=dipole dipole="0.000000 0.000000 0.000000" charge=0
C	0.014583	-2.166414	-0.678437	6
C	-0.697807	-0.955104	-0.081277	6
N	-1.205947	-1.280894	1.252603	7
C	0.239833	0.218176	0.035203	6
C	0.578833	1.052306	-1.184947	6
N	-0.282197	1.577226	-0.135237	7
C	0.368853	2.549056	0.736213	6
H	0.383593	-1.940454	-1.684877	1
H	-0.662177	-3.024404	-0.754717	1
H	0.878293	-2.465304	-0.073227	1
H	-1.550467	-0.696514	-0.720707	1
H	-0.452407	-1.639794	1.834263	1
H	-1.890967	-2.030154	1.176553	1
H	1.030073	0.055606	0.760453	1
H	0.085783	0.828096	-2.124257	1
H	1.582502	1.448546	-1.279667	1
H	-0.119327	2.549276	1.716333	1
H	0.259753	3.552206	0.311293	1
H	1.439203	2.368546	0.894433	1
Es	0.040851	2.542427	1.405252	99
Es	0.105580	1.486461	-0.667824	99
Es	0.601086	-2.367211	-0.254932	99
Es	-0.738932	-1.518888	1.584292	99
Es	0.014590	-2.166421	-0.678441	99
Es	0.534661	0.460952	-0.665385	99
Es	0.033188	1.980943	0.234834	99
Es	0.778164	0.112494	0.536975	99
Es	-1.205694	-1.281386	1.252333	99
Es	-0.325029	-1.569515	-0.387250	99
Es	-0.697800	-0.955159	-0.081144	99
Es	0.578709	1.052329	-1.184743	99
Es	1.106149	2.411845	0.836881	99
Es	-0.450538	-2.747038	-0.723632	99
Es	-1.274498	-0.780015	-0.520439	99
Es	0.239775	0.218396	0.035110	99
Es	-0.281529	1.577072	-0.135156	99
Es	-1.355541	-1.008378	1.416918	99
Es	0.368806	2.548968	0.736132	99
Es	-0.108697	0.968664	0.084955	99
Es	-0.977994	-1.155527	0.673061	99
Es	1.258304	1.329481	-1.246466	99
Es	-1.598281	-1.745928	1.191946	99
Es	-0.229657	-0.359309	-0.026859	99
Es	0.247010	0.901399	-1.824746	99
Es	-0.615394	1.617922	-0.203460	99
Es	0.266326	-2.012034	-1.370185	99
Es	0.299882	3.236292	0.439855	99
47
Properties=species:S:1:pos:R:3:Z:I:1 energy=-305.2761591509063 field_type=dipole dipole="0.000000 0.000000 0.000000" charge=0
C	0.014583	-2.166414	-0.678437	6
C	-0.697807	-0.955104	-0.081277	6
N	-1.205947	-1.280894	1.252603	7
C	0.239833	0.218176	0.035203	6
C	0.578833	1.052306	-1.184947	6
N	-0.282197	1.577226	-0.135237	7
C	0.368853	2.549056	0.736213	6
H	0.383593	-1.940454	-1.684877	1
H	-0.662177	-3.024404	-0.754717	1
H	0.878293	-2.465304	-0.073227	1
H	-1.550467	-0.696514	-0.720707	1
H	-0.452407	-1.639794	1.834263	1
H	-1.890967	-2.030154	1.176553	1
H	1.030073	0.055606	0.760453	1
H	0.085783	0.828096	-2.124257	1
H	1.582502	1.448546	-1.279667	1
H	-0.119327	2.549276	1.716333	1
H	0.259753	3.552206	0.311293	1
H	1.439203	2.368546	0.894433	1
Es	0.266353	-2.012032	-1.370196	99
Es	0.014591	-2.166421	-0.678441	99
Es	0.032769	1.981077	0.234640	99
Es	0.105659	1.486463	-0.667843	99
Es	-0.615082	1.617754	-0.203665	99
Es	-0.697798	-0.955159	-0.081144	99
Es	-0.281550	1.577077	-0.135156	99
Es	0.040961	2.542375	1.405349	99
Es	-1.274512	-0.779953	-0.520467	99
Es	-0.738993	-1.519881	1.583512	99
Es	0.239778	0.218388	0.035105	99
Es	-0.229687	-0.359307	-0.026829	99
Es	0.778244	0.112431	0.536986	99
Es	-0.325093	-1.569518	-0.387371	99
Es	-1.598118	-1.745458	1.191786	99
Es	-1.205690	-1.281396	1.252342	99
Es	-1.355348	-1.008498	1.417912	99
Es	0.300023	3.236389	0.439830	99
Es	0.578711	1.052333	-1.184745	99
Es	0.534638	0.460784	-0.665427	99
Es	1.105911	2.411807	0.836804	99
Es	0.247069	0.901514	-1.824659	99
Es	-0.450533	-2.747110	-0.723592	99
Es	0.601093	-2.367081	-0.254855	99
Es	-0.978243	-1.154898	0.673071	99
Es	1.258222	1.329574	-1.246478	99
Es	-0.108687	0.968613	0.085281	99
Es	0.368807	2.548970	0.736133	99
47
Properties=species:S:1:pos:R:3:Z:I:1 energy=-305.2761591509063 field_type=dipole dipole="0.000000 0.000000 0.000000" charge=0
C	0.014583	-2.166414	-0.678437	6
C	-0.697807	-0.955104	-0.081277	6
N	-1.205947	-1.280894	1.252603	7
C	0.239833	0.218176	0.035203	6
C	0.578833	1.052306	-1.184947	6
N	-0.282197	1.577226	-0.135237	7
C	0.368853	2.549056	0.736213	6
H	0.383593	-1.940454	-1.684877	1
H	-0.662177	-3.024404	-0.754717	1
H	0.878293	-2.465304	-0.073227	1
H	-1.550467	-0.696514	-0.720707	1
H	-0.452407	-1.639794	1.834263	1
H	-1.890967	-2.030154	1.176553	1
H	1.030073	0.055606	0.760453	1
H	0.085783	0.828096	-2.124257	1
H	1.582502	1.448546	-1.279667	1
H	-0.119327	2.549276	1.716333	1
H	0.259753	3.552206	0.311293	1
H	1.439203	2.368546	0.894433	1
Es	-1.355395	-1.008781	1.417907	99
Es	1.105909	2.411810	0.836820	99
Es	0.247049	0.901625	-1.824518	99
Es	0.239784	0.218388	0.035098	99
Es	-0.697798	-0.955160	-0.081144	99
Es	-0.614784	1.617574	-0.203812	99
Es	0.105811	1.486829	-0.667857	99
Es	0.014591	-2.166421	-0.678441	99
Es	-1.597991	-1.745558	1.191845	99
Es	0.040854	2.542277	1.405358	99
Es	-0.739024	-1.519730	1.583546	99
Es	-0.325001	-1.569584	-0.387213	99
Es	0.534623	0.460694	-0.665302	99
Es	0.578710	1.052332	-1.184746	99
Es	-0.978321	-1.154705	0.672929	99
Es	-0.229685	-0.359389	-0.026898	99
Es	-0.450424	-2.746951	-0.723496	99
Es	0.778304	0.112420	0.536991	99
Es	0.266306	-2.012033	-1.370381	99
Es	-1.274494	-0.779936	-0.520503	99
Es	0.601034	-2.367175	-0.254899	99
Es	0.299999	3.236390	0.439755	99
Es	0.032478	1.981224	0.234655	99
Es	-0.281522	1.577067	-0.135157	99
Es	-1.205709	-1.281352	1.252365	99
Es	0.368806	2.548969	0.736131	99
Es	1.258105	1.329585	-1.246587	99
Es	-0.108717	0.968427	0.085437	99
47
Properties=species:S:1:pos:R:3:Z:I:1 energy=-305.2761591509063 field_type=dipole dipole="0.000000 0.000000 0.000000" charge=0
C	0.014583	-2.166414	-0.678437	6
C	-0.697807	-0.955104	-0.081277	6
N	-1.205947	-1.280894	1.252603	7
C	0.239833	0.218176	0.035203	6
C	0.578833	1.052306	-1.184947	6
N	-0.282197	1.577226	-0.135237	7
C	0.368853	2.549056	0.736213	6
H	0.383593	-1.940454	-1.684877	1
H	-0.662177	-3.024404	-0.754717	1
H	0.878293	-2.465304	-0.073227	1
H	-1.550467	-0.696514	-0.720707	1
H	-0.452407	-1.639794	1.834263	1
H	-1.890967	-2.030154	1.176553	1
H	1.030073	0.055606	0.760453	1
H	0.085783	0.828096	-2.124257	1
H	1.582502	1.448546	-1.279667	1
H	-0.119327	2.549276	1.716333	1
H	0.259753	3.552206	0.311293	1
H	1.439203	2.368546	0.894433	1
Es	-0.739017	-1.520178	1.583365	99
Es	0.040961	2.542235	1.405383	99
Es	0.600949	-2.367169	-0.254949	99
Es	0.266370	-2.012038	-1.370396	99
Es	0.300072	3.236497	0.439682	99
Es	-0.324994	-1.569543	-0.387166	99
Es	0.578708	1.052339	-1.184745	99
Es	-1.597864	-1.745362	1.191581	99
Es	0.778202	0.112449	0.537017	99
Es	0.534741	0.460318	-0.665349	99
Es	0.368806	2.548966	0.736130	99
Es	-0.978484	-1.153836	0.673046	99
Es	-0.108612	0.968511	0.085228	99
Es	0.032408	1.981103	0.234683	99
Es	-0.614678	1.617624	-0.203591	99
Es	-0.229758	-0.359340	-0.026846	99
Es	0.105576	1.487080	-0.667936	99
Es	-0.281531	1.577101	-0.135136	99
Es	-0.697799	-0.955159	-0.081145	99
Es	-1.205711	-1.281381	1.252351	99
Es	-0.450396	-2.746975	-0.723489	99
Es	0.239779	0.218388	0.035106	99
Es	1.258102	1.329598	-1.246530	99
Es	0.247104	0.901687	-1.824529	99
Es	-1.274482	-0.779961	-0.520495	99
Es	-1.355331	-1.009347	1.418317	99
Es	1.105782	2.411648	0.836736	99
Es	0.014592	-2.166419	-0.678441	99
47
Properties=species:S:1:pos:R:3:Z:I:1 energy=-305.2761591509063 field_type=dipole dipole="0.000000 0.000000 0.000000" charge=0
C	0.014583	-2.166414	-0.678437	6
C	-0.697807	-0.955104	-0.081277	6
N	-1.205947	-1.280894	1.252603	7
C	0.239833	0.218176	0.035203	6
C	0.578833	1.052306	-1.184947	6
N	-0.282197	1.577226	-0.135237	7
C	0.368853	2.549056	0.736213	6
H	0.383593	-1.940454	-1.684877	1
H	-0.662177	-3.024404	-0.754717	1
H	0.878293	-2.465304	-0.073227	1
H	-1.550467	-0.696514	-0.720707	1
H	-0.452407	-1.639794	1.834263	1
H	-1.890967	-2.030154	1.176553	1
H	1.030073	0.055606	0.760453	1
H	0.085783	0.828096	-2.124257	1
H	1.582502	1.448546	-1.279667	1
H	-0.119327	2.549276	1.716333	1
H	0.259753	3.552206	0.311293	1
H	1.439203	2.368546	0.894433	1
Es	-0.229751	-0.359366	-0.026868	99
Es	-1.205696	-1.281378	1.252357	99
Es	0.534742	0.460318	-0.665237	99
Es	-1.355799	-1.008794	1.418446	99
Es	-0.697799	-0.955160	-0.081144	99
Es	0.105386	1.487066	-0.668487	99
Es	-0.281519	1.577067	-0.135157	99
Es	0.239779	0.218389	0.035107	99
Es	0.247129	0.901713	-1.824419	99
Es	0.040948	2.542079	1.405290	99
Es	-1.597469	-1.745546	1.191635	99
Es	-0.108936	0.968278	0.085440	99
Es	-0.450358	-2.746905	-0.723576	99
Es	-1.274404	-0.779914	-0.520458	99
Es	0.601070	-2.367233	-0.254863	99
Es	-0.614728	1.618358	-0.203046	99
Es	0.266279	-2.011961	-1.370368	99
Es	-0.325082	-1.569613	-0.387254	99
Es	0.368805	2.548968	0.736132	99
Es	0.014591	-2.166420	-0.678441	99
Es	0.300063	3.236643	0.439616	99
Es	-0.978407	-1.154412	0.673031	99
Es	0.778137	0.112465	0.537053	99
Es	-0.739074	-1.519996	1.583235	99
Es	1.105657	2.411636	0.836842	99
Es	0.033234	1.980569	0.234375	99
Es	1.257985	1.329653	-1.246611	99
Es	0.578710	1.052331	-1.184747	99
