48
Properties=species:S:1:pos:R:3:Z:I:1 energy=-289.2734220385106 field_type=dipole dipole="0.000000 0.000000 0.000000" charge=0
C	-0.342215	-1.911343	-1.183323	6
C	-1.095195	-1.138473	-0.106443	6
N	-0.640955	0.257447	0.026467	7
C	-1.541715	0.977307	0.933097	6
C	0.761315	0.361877	0.480497	6
C	1.846505	0.540697	-0.549773	6
C	1.491125	1.674437	0.361527	6
H	-0.797846	-2.897713	-1.321593	1
H	0.705644	-2.069933	-0.910203	1
H	-0.377085	-1.388623	-2.144773	1
H	-1.012256	-1.670483	0.849767	1
H	-2.155675	-1.145853	-0.389053	1
H	-2.572445	0.946537	0.562867	1
H	-1.266175	2.035617	0.994937	1
H	-1.521686	0.559027	1.945977	1
H	1.010624	-0.239693	1.353677	1
H	1.559074	0.624627	-1.591823	1
H	2.787084	0.028887	-0.387923	1
H	2.190404	1.934667	1.146907	1
H	0.971464	2.520987	-0.070813	1
Es	-1.527824	0.683931	1.635584	99
Es	1.135749	2.243500	0.069929	99
Es	-0.658577	-2.584291	-1.271630	99
Es	-0.032163	0.288590	0.251429	99
Es	-1.095124	-1.138363	-0.106461	99
Es	0.370597	-2.018847	-0.994758	99
Es	1.282575	0.266058	-0.095160	99
Es	1.846425	0.540763	-0.549635	99
Es	1.013948	1.096109	0.563657	99
Es	-1.823516	-1.135963	-0.295412	99
Es	-0.640921	0.257242	0.026920	99
Es	-2.245904	0.946179	0.679629	99
Es	0.761302	0.361981	0.480353	99
Es	1.803027	1.215056	-0.170917	99
Es	0.933134	-0.053497	1.080771	99
Es	-1.024710	0.553826	0.449816	99
Es	-0.342231	-1.911342	-1.183300	99
Es	-1.033916	-1.507288	0.560648	99
Es	-0.368101	-1.554592	-1.835993	99
Es	-0.658947	0.408632	-0.286436	99
Es	-0.821666	-0.355145	0.000192	99
Es	1.649419	0.597355	-1.250297	99
Es	-0.704894	-1.521379	-0.644662	99
Es	1.965616	1.846166	0.897128	99
Es	-1.349090	1.697598	0.978123	99
Es	1.491098	1.674263	0.361482	99
Es	2.487384	0.192996	-0.434359	99
Es	-1.541642	0.977245	0.933022	99
48
Properties=species:S:1:pos:R:3:Z:I:1 energy=-289.2734220385106 field_type=dipole dipole="0.000000 0.000000 0.000000" charge=0
C	-0.342215	-1.911343	-1.183323	6
C	-1.095195	-1.138473	-0.106443	6
N	-0.640955	0.257447	0.026467	7
C	-1.541715	0.977307	0.933097	6
C	0.761315	0.361877	0.480497	6
C	1.846505	0.540697	-0.549773	6
C	1.491125	1.674437	0.361527	6
H	-0.797846	-2.897713	-1.321593	1
H	0.705644	-2.069933	-0.910203	1
H	-0.377085	-1.388623	-2.144773	1
H	-1.012256	-1.670483	0.849767	1
H	-2.155675	-1.145853	-0.389053	1
H	-2.572445	0.946537	0.562867	1
H	-1.266175	2.035617	0.994937	1
H	-1.521686	0.559027	1.945977	1
H	1.010624	-0.239693	1.353677	1
H	1.559074	0.624627	-1.591823	1
H	2.787084	0.028887	-0.387923	1
H	2.190404	1.934667	1.146907	1
H	0.971464	2.520987	-0.070813	1
Es	-1.823077	-1.136037	-0.295077	99
Es	-0.031845	0.289631	0.249850	99
Es	1.281707	0.264463	-0.094806	99
Es	-1.349253	1.698635	0.978323	99
Es	1.491097	1.674268	0.361485	99
Es	1.012729	1.095735	0.564831	99
Es	-0.658653	-2.585479	-1.271944	99
Es	-1.095126	-1.138367	-0.106462	99
Es	-1.528247	0.683625	1.635102	99
Es	0.761299	0.361978	0.480352	99
Es	1.965298	1.846453	0.896304	99
Es	-0.821369	-0.355747	0.000429	99
Es	-2.245163	0.945710	0.680059	99
Es	-0.342233	-1.911344	-1.183301	99
Es	-0.704509	-1.521410	-0.644606	99
Es	1.650089	0.597352	-1.249589	99
Es	-1.024507	0.553800	0.450112	99
Es	-0.367499	-1.554445	-1.835488	99
Es	2.486787	0.193664	-0.435024	99
Es	-1.034352	-1.507111	0.560450	99
Es	-0.659691	0.408190	-0.285319	99
Es	-1.541639	0.977242	0.933016	99
Es	0.369680	-2.018276	-0.995211	99
Es	-0.640933	0.257183	0.027013	99
Es	1.846422	0.540767	-0.549630	99
Es	1.136491	2.243053	0.070372	99
Es	1.804593	1.216576	-0.171896	99
Es	0.932951	-0.053325	1.080317	99
48
Properties=species:S:1:pos:R:3:Z:I:1 energy=-289.2734220385106 field_type=dipole dipole="0.000000 0.000000 0.000000" charge=0
C	-0.342215	-1.911343	-1.183323	6
C	-1.095195	-1.138473	-0.106443	6
N	-0.640955	0.257447	0.026467	7
C	-1.541715	0.977307	0.933097	6
C	0.761315	0.361877	0.480497	6
C	1.846505	0.540697	-0.549773	6
C	1.491125	1.674437	0.361527	6
H	-0.797846	-2.897713	-1.321593	1
H	0.705644	-2.069933	-0.910203	1
H	-0.377085	-1.388623	-2.144773	1
H	-1.012256	-1.670483	0.849767	1
H	-2.155675	-1.145853	-0.389053	1
H	-2.572445	0.946537	0.562867	1
H	-1.266175	2.035617	0.994937	1
H	-1.521686	0.559027	1.945977	1
H	1.010624	-0.239693	1.353677	1
H	1.559074	0.624627	-1.591823	1
H	2.787084	0.028887	-0.387923	1
H	2.190404	1.934667	1.146907	1
H	0.971464	2.520987	-0.070813	1
Es	1.280900	0.263502	-0.094206	99
Es	1.805811	1.217808	-0.172645	99
Es	2.486263	0.194136	-0.435355	99
Es	0.761297	0.361986	0.480358	99
Es	-0.366966	-1.554403	-1.835226	99
Es	-1.095126	-1.138364	-0.106462	99
Es	1.491101	1.674271	0.361482	99
Es	-0.660217	0.407669	-0.283364	99
Es	-0.342234	-1.911342	-1.183299	99
Es	-1.034744	-1.507017	0.560358	99
Es	-0.658692	-2.586124	-1.272159	99
Es	-1.528528	0.683461	1.634845	99
Es	-0.640916	0.257157	0.027108	99
Es	1.137108	2.242814	0.070676	99
Es	1.846424	0.540767	-0.549632	99
Es	-0.704441	-1.521457	-0.644674	99
Es	1.650520	0.597270	-1.249234	99
Es	-1.024402	0.553989	0.450366	99
Es	0.369024	-2.018023	-0.995365	99
Es	1.011940	1.095203	0.565295	99
Es	-0.031346	0.290496	0.248415	99
Es	0.932865	-0.053162	1.080100	99
Es	-1.822631	-1.136030	-0.294847	99
Es	1.965123	1.846517	0.895685	99
Es	-1.349336	1.699191	0.978429	99
Es	-1.541640	0.977243	0.933021	99
Es	-0.821384	-0.356229	-0.000238	99
Es	-2.244727	0.945456	0.680233	99
48
Properties=species:S:1:pos:R:3:Z:I:1 energy=-289.2734220385106 field_type=dipole dipole="0.000000 0.000000 0.000000" charge=0
C	-0.342215	-1.911343	-1.183323	6
C	-1.095195	-1.138473	-0.106443	6
N	-0.640955	0.257447	0.026467	7
C	-1.541715	0.977307	0.933097	6
C	0.761315	0.361877	0.480497	6
C	1.846505	0.540697	-0.549773	6
C	1.491125	1.674437	0.361527	6
H	-0.797846	-2.897713	-1.321593	1
H	0.705644	-2.069933	-0.910203	1
H	-0.377085	-1.388623	-2.144773	1
H	-1.012256	-1.670483	0.849767	1
H	-2.155675	-1.145853	-0.389053	1
H	-2.572445	0.946537	0.562867	1
H	-1.266175	2.035617	0.994937	1
H	-1.521686	0.559027	1.945977	1
H	1.010624	-0.239693	1.353677	1
H	1.559074	0.624627	-1.591823	1
H	2.787084	0.028887	-0.387923	1
H	2.190404	1.934667	1.146907	1
H	0.971464	2.520987	-0.070813	1
Es	1.137595	2.242457	0.070751	99
Es	-0.342234	-1.911342	-1.183298	99
Es	1.846418	0.540762	-0.549628	99
Es	-0.366862	-1.554345	-1.835132	99
Es	-2.244348	0.945313	0.680362	99
Es	1.280600	0.262721	-0.094081	99
Es	-0.704344	-1.521511	-0.644688	99
Es	-1.528709	0.683250	1.634727	99
Es	1.806597	1.218213	-0.173065	99
Es	2.485980	0.194607	-0.435617	99
Es	-0.030718	0.291188	0.246696	99
Es	1.650927	0.597387	-1.248908	99
Es	0.932778	-0.052982	1.079985	99
Es	-0.821448	-0.356546	-0.000544	99
Es	-1.541644	0.977248	0.933023	99
Es	1.964814	1.846752	0.895279	99
Es	0.761295	0.361981	0.480358	99
Es	-1.095126	-1.138362	-0.106462	99
Es	-0.661161	0.407211	-0.281811	99
Es	1.011184	1.095082	0.565905	99
Es	1.491102	1.674266	0.361477	99
Es	-1.822416	-1.136019	-0.294669	99
Es	-1.349439	1.699562	0.978508	99
Es	0.368590	-2.017666	-0.995605	99
Es	-1.034884	-1.507008	0.560290	99
Es	-0.658535	-2.586644	-1.272149	99
Es	-0.640903	0.257150	0.027142	99
Es	-1.024063	0.554059	0.450820	99
48
Properties=species:S:1:pos:R:3:Z:I:1 energy=-289.2734220385106 field_type=dipole dipole="0.000000 0.000000 0.000000" charge=0
C	-0.342215	-1.911343	-1.183323	6
C	-1.095195	-1.138473	-0.106443	6
N	-0.640955	0.257447	0.026467	7
C	-1.541715	0.977307	0.933097	6
C	0.761315	0.361877	0.480497	6
C	1.846505	0.540697	-0.549773	6
C	1.491125	1.674437	0.361527	6
H	-0.797846	-2.897713	-1.321593	1
H	0.705644	-2.069933	-0.910203	1
H	-0.377085	-1.388623	-2.144773	1
H	-1.012256	-1.670483	0.849767	1
H	-2.155675	-1.145853	-0.389053	1
H	-2.572445	0.946537	0.562867	1
H	-1.266175	2.035617	0.994937	1
H	-1.521686	0.559027	1.945977	1
H	1.010624	-0.239693	1.353677	1
H	1.559074	0.624627	-1.591823	1
H	2.787084	0.028887	-0.387923	1
H	2.190404	1.934667	1.146907	1
H	0.971464	2.520987	-0.070813	1
Es	1.010622	1.094834	0.566380	99
Es	1.138009	2.242222	0.070927	99
Es	1.651253	0.597378	-1.248600	99
Es	-1.035043	-1.506912	0.560193	99
Es	-2.244065	0.945206	0.680494	99
Es	-0.640912	0.257138	0.027153	99
Es	-1.349471	1.699898	0.978639	99
Es	-1.528912	0.683125	1.634514	99
Es	-0.342234	-1.911342	-1.183298	99
Es	-1.023976	0.553909	0.451017	99
Es	0.368164	-2.017625	-0.995649	99
Es	-0.030442	0.291739	0.245869	99
Es	2.485627	0.194887	-0.435828	99
Es	1.491100	1.674261	0.361478	99
Es	-0.658603	-2.586944	-1.272322	99
Es	-1.095128	-1.138360	-0.106463	99
Es	1.280217	0.262218	-0.093935	99
Es	0.932753	-0.052943	1.079803	99
Es	-0.821267	-0.356694	-0.000415	99
Es	-1.822269	-1.136030	-0.294551	99
Es	-0.661706	0.406909	-0.281216	99
Es	-1.541641	0.977245	0.933020	99
Es	-0.704166	-1.521641	-0.644662	99
Es	1.807319	1.218897	-0.173471	99
Es	1.846421	0.540767	-0.549629	99
Es	0.761288	0.361969	0.480354	99
Es	-0.366534	-1.554150	-1.835008	99
Es	1.964643	1.846824	0.894873	99
48
Properties=species:S:1:pos:R:3:Z:I:1 energy=-289.2734220385106 field_type=dipole dipole="0.000000 0.000000 0.000000" charge=0
C	-0.342215	-1.911343	-1.183323	6
C	-1.095195	-1.138473	-0.106443	6
N	-0.640955	0.257447	0.026467	7
C	-1.541715	0.977307	0.933097	6
C	0.761315	0.361877	0.480497	6
C	1.846505	0.540697	-0.549773	6
C	1.491125	1.674437	0.361527	6
H	-0.797846	-2.897713	-1.321593	1
H	0.705644	-2.069933	-0.910203	1
H	-0.377085	-1.388623	-2.144773	1
H	-1.012256	-1.670483	0.849767	1
H	-2.155675	-1.145853	-0.389053	1
H	-2.572445	0.946537	0.562867	1
H	-1.266175	2.035617	0.994937	1
H	-1.521686	0.559027	1.945977	1
H	1.010624	-0.239693	1.353677	1
H	1.559074	0.624627	-1.591823	1
H	2.787084	0.028887	-0.387923	1
H	2.190404	1.934667	1.146907	1
H	0.971464	2.520987	-0.070813	1
Es	1.009996	1.094609	0.567013	99
Es	-0.658604	-2.587260	-1.272260	99
Es	0.367798	-2.017471	-0.995676	99
Es	1.138308	2.242044	0.071081	99
Es	-0.662400	0.406658	-0.280219	99
Es	-1.822083	-1.136001	-0.294517	99
Es	0.932666	-0.052943	1.079723	99
Es	-0.342234	-1.911341	-1.183298	99
Es	1.807914	1.219044	-0.173902	99
Es	-0.366287	-1.554172	-1.835003	99
Es	1.964447	1.846873	0.894508	99
Es	-1.095126	-1.138361	-0.106462	99
Es	-1.541644	0.977245	0.933022	99
Es	-1.035182	-1.506935	0.560232	99
Es	1.846421	0.540769	-0.549628	99
Es	-0.704109	-1.521542	-0.644761	99
Es	-1.349559	1.700065	0.978650	99
Es	0.761300	0.361977	0.480352	99
Es	1.491100	1.674263	0.361481	99
Es	-0.821135	-0.356857	-0.000627	99
Es	-1.023826	0.553668	0.451305	99
Es	-2.243861	0.945137	0.680586	99
Es	2.485449	0.195082	-0.436002	99
Es	1.651453	0.597506	-1.248398	99
Es	-0.640917	0.257218	0.026987	99
Es	1.280114	0.262100	-0.093896	99
Es	-0.029964	0.292362	0.244897	99
Es	-1.528985	0.683047	1.634476	99
48
Properties=species:S:1:pos:R:3:Z:I:1 energy=-289.2734220385106 field_type=dipole dipole="0.000000 0.000000 0.000000" charge=0
C	-0.342215	-1.911343	-1.183323	6
C	-1.095195	-1.138473	-0.106443	6
N	-0.640955	0.257447	0.026467	7
C	-1.541715	0.977307	0.933097	6
C	0.761315	0.361877	0.480497	6
C	1.846505	0.540697	-0.549773	6
C	1.491125	1.674437	0.361527	6
H	-0.797846	-2.897713	-1.321593	1
H	0.705644	-2.069933	-0.910203	1
H	-0.377085	-1.388623	-2.144773	1
H	-1.012256	-1.670483	0.849767	1
H	-2.155675	-1.145853	-0.389053	1
H	-2.572445	0.946537	0.562867	1
H	-1.266175	2.035617	0.994937	1
H	-1.521686	0.559027	1.945977	1
H	1.010624	-0.239693	1.353677	1
H	1.559074	0.624627	-1.591823	1
H	2.787084	0.028887	-0.387923	1
H	2.190404	1.934667	1.146907	1
H	0.971464	2.520987	-0.070813	1
Es	-0.366131	-1.554139	-1.834947	99
Es	-0.342233	-1.911343	-1.183299	99
Es	-1.095126	-1.138363	-0.106462	99
Es	0.367470	-2.017389	-0.995828	99
Es	1.964345	1.846951	0.894274	99
Es	1.009677	1.094509	0.567109	99
Es	-1.023833	0.553944	0.451268	99
Es	1.279751	0.261623	-0.093688	99
Es	-0.704041	-1.521575	-0.644672	99
Es	-1.529153	0.682897	1.634421	99
Es	0.761297	0.361988	0.480360	99
Es	1.846422	0.540772	-0.549627	99
Es	-0.662681	0.406174	-0.279598	99
Es	-1.821927	-1.135994	-0.294418	99
Es	-1.541639	0.977241	0.933021	99
Es	-0.029695	0.292625	0.244209	99
Es	1.138582	2.241851	0.071145	99
Es	-0.658526	-2.587480	-1.272319	99
Es	-0.640920	0.257145	0.027114	99
Es	-1.035303	-1.506880	0.560209	99
Es	2.485272	0.195351	-0.436050	99
Es	1.651706	0.597517	-1.248254	99
Es	0.932682	-0.052732	1.079673	99
Es	1.491099	1.674263	0.361478	99
Es	-2.243659	0.945190	0.680610	99
Es	-1.349527	1.700192	0.978741	99
Es	-0.821197	-0.356918	-0.000582	99
Es	1.808336	1.219364	-0.174224	99
48
Properties=species:S:1:pos:R:3:Z:I:1 energy=-289.2734220385106 field_type=dipole dipole="0.000000 0.000000 0.000000" charge=0
C	-0.342215	-1.911343	-1.183323	6
C	-1.095195	-1.138473	-0.106443	6
N	-0.640955	0.257447	0.026467	7
C	-1.541715	0.977307	0.933097	6
C	0.761315	0.361877	0.480497	6
C	1.846505	0.540697	-0.549773	6
C	1.491125	1.674437	0.361527	6
H	-0.797846	-2.897713	-1.321593	1
H	0.705644	-2.069933	-0.910203	1
H	-0.377085	-1.388623	-2.144773	1
H	-1.012256	-1.670483	0.849767	1
H	-2.155675	-1.145853	-0.389053	1
H	-2.572445	0.946537	0.562867	1
H	-1.266175	2.035617	0.994937	1
H	-1.521686	0.559027	1.945977	1
H	1.010624	-0.239693	1.353677	1
H	1.559074	0.624627	-1.591823	1
H	2.787084	0.028887	-0.387923	1
H	2.190404	1.934667	1.146907	1
H	0.971464	2.520987	-0.070813	1
Es	-0.704085	-1.521555	-0.644878	99
Es	1.491102	1.674262	0.361477	99
Es	1.846421	0.540768	-0.549628	99
Es	1.808791	1.219523	-0.174520	99
Es	1.279637	0.261448	-0.093586	99
Es	-1.349529	1.700354	0.978790	99
Es	-1.821808	-1.135949	-0.294218	99
Es	-1.541638	0.977245	0.933020	99
Es	0.932591	-0.052729	1.079614	99
Es	-2.243636	0.945045	0.680682	99
Es	-0.658558	-2.587625	-1.272365	99
Es	-0.663266	0.406178	-0.279319	99
Es	-0.029611	0.293194	0.243426	99
Es	0.761293	0.361981	0.480359	99
Es	-0.365927	-1.554140	-1.834897	99
Es	1.964128	1.846976	0.894084	99
Es	-0.342234	-1.911343	-1.183299	99
Es	1.009295	1.094401	0.567434	99
Es	-1.095135	-1.138361	-0.106464	99
Es	-1.023572	0.553676	0.451635	99
Es	0.367263	-2.017356	-0.995814	99
Es	-1.035335	-1.506863	0.560152	99
Es	1.138877	2.241692	0.071229	99
Es	-1.529126	0.682875	1.634285	99
Es	1.651886	0.597548	-1.248116	99
Es	2.485125	0.195542	-0.436133	99
Es	-0.640920	0.257150	0.027121	99
Es	-0.820979	-0.357152	-0.000407	99
48
Properties=species:S:1:pos:R:3:Z:I:1 energy=-289.2734220385106 field_type=dipole dipole="0.000000 0.000000 0.000000" charge=0
C	-0.342215	-1.911343	-1.183323	6
C	-1.095195	-1.138473	-0.106443	6
N	-0.640955	0.257447	0.026467	7
C	-1.541715	0.977307	0.933097	6
C	0.761315	0.361877	0.480497	6
C	1.846505	0.540697	-0.549773	6
C	1.491125	1.674437	0.361527	6
H	-0.797846	-2.897713	-1.321593	1
H	0.705644	-2.069933	-0.910203	1
H	-0.377085	-1.388623	-2.144773	1
H	-1.012256	-1.670483	0.849767	1
H	-2.155675	-1.145853	-0.389053	1
H	-2.572445	0.946537	0.562867	1
H	-1.266175	2.035617	0.994937	1
H	-1.521686	0.559027	1.945977	1
H	1.010624	-0.239693	1.353677	1
H	1.559074	0.624627	-1.591823	1
H	2.787084	0.028887	-0.387923	1
H	2.190404	1.934667	1.146907	1
H	0.971464	2.520987	-0.070813	1
Es	-1.529286	0.682807	1.634376	99
Es	1.809203	1.219858	-0.174895	99
Es	-1.035473	-1.506834	0.560178	99
Es	-2.243368	0.945062	0.680694	99
Es	-1.541642	0.977241	0.933021	99
Es	-0.640912	0.257143	0.027122	99
Es	-0.342234	-1.911342	-1.183298	99
Es	2.484864	0.195798	-0.436296	99
Es	1.651978	0.597540	-1.248027	99
Es	-1.821741	-1.135952	-0.294314	99
Es	1.138959	2.241426	0.071470	99
Es	-0.365961	-1.554033	-1.834847	99
Es	-1.349707	1.700415	0.978757	99
Es	1.009138	1.094303	0.567556	99
Es	-0.663888	0.405604	-0.278772	99
Es	0.932568	-0.052589	1.079588	99
Es	-0.820837	-0.357029	-0.000232	99
Es	-1.023526	0.553699	0.451655	99
Es	-0.029097	0.293600	0.242618	99
Es	1.846421	0.540766	-0.549623	99
Es	0.761293	0.361979	0.480358	99
Es	-0.658486	-2.587895	-1.272334	99
Es	-1.095127	-1.138362	-0.106462	99
Es	-0.703864	-1.521657	-0.644689	99
Es	1.279547	0.261058	-0.093340	99
Es	0.367042	-2.017170	-0.995983	99
Es	1.964089	1.847089	0.893906	99
Es	1.491095	1.674258	0.361478	99
48
Properties=species:S:1:pos:R:3:Z:I:1 energy=-289.2734220385106 field_type=dipole dipole="0.000000 0.000000 0.000000" charge=0
C	-0.342215	-1.911343	-1.183323	6
C	-1.095195	-1.138473	-0.106443	6
N	-0.640955	0.257447	0.026467	7
C	-1.541715	0.977307	0.933097	6
C	0.761315	0.361877	0.480497	6
C	1.846505	0.540697	-0.549773	6
C	1.491125	1.674437	0.361527	6
H	-0.797846	-2.897713	-1.321593	1
H	0.705644	-2.069933	-0.910203	1
H	-0.377085	-1.388623	-2.144773	1
H	-1.012256	-1.670483	0.849767	1
H	-2.155675	-1.145853	-0.389053	1
H	-2.572445	0.946537	0.562867	1
H	-1.266175	2.035617	0.994937	1
H	-1.521686	0.559027	1.945977	1
H	1.010624	-0.239693	1.353677	1
H	1.559074	0.624627	-1.591823	1
H	2.787084	0.028887	-0.387923	1
H	2.190404	1.934667	1.146907	1
H	0.971464	2.520987	-0.070813	1
Es	-1.023338	0.553373	0.451907	99
Es	0.932625	-0.052612	1.079533	99
Es	1.279443	0.261104	-0.093441	99
Es	-1.541642	0.977244	0.933022	99
Es	1.008835	1.094067	0.567734	99
Es	-0.664473	0.405460	-0.278109	99
Es	-0.640917	0.257158	0.027142	99
Es	-0.820818	-0.357163	-0.000333	99
Es	-1.095126	-1.138363	-0.106462	99
Es	-0.365870	-1.554059	-1.834852	99
Es	0.761295	0.361986	0.480360	99
Es	1.809498	1.220062	-0.175012	99
Es	-1.349698	1.700538	0.978668	99
Es	1.139087	2.241292	0.071517	99
Es	-0.028801	0.294116	0.241884	99
Es	1.491099	1.674262	0.361479	99
Es	-0.658491	-2.587887	-1.272359	99
Es	-2.243160	0.945065	0.680724	99
Es	2.484797	0.195835	-0.436360	99
Es	-1.821632	-1.135961	-0.294249	99
Es	1.963959	1.847145	0.893790	99
Es	1.652085	0.597618	-1.247897	99
Es	-0.342235	-1.911342	-1.183298	99
Es	-1.035514	-1.506834	0.560178	99
Es	-0.703928	-1.521643	-0.644707	99
Es	-1.529416	0.682779	1.634427	99
Es	0.366967	-2.017216	-0.995988	99
Es	1.846419	0.540761	-0.549630	99
48
Properties=species:S:1:pos:R:3:Z:I:1 energy=-289.2734220385106 field_type=dipole dipole="0.000000 0.000000 0.000000" charge=0
C	-0.342215	-1.911343	-1.183323	6
C	-1.095195	-1.138473	-0.106443	6
N	-0.640955	0.257447	0.026467	7
C	-1.541715	0.977307	0.933097	6
C	0.761315	0.361877	0.480497	6
C	1.846505	0.540697	-0.549773	6
C	1.491125	1.674437	0.361527	6
H	-0.797846	-2.897713	-1.321593	1
H	0.705644	-2.069933	-0.910203	1
H	-0.377085	-1.388623	-2.144773	1
H	-1.012256	-1.670483	0.849767	1
H	-2.155675	-1.145853	-0.389053	1
H	-2.572445	0.946537	0.562867	1
H	-1.266175	2.035617	0.994937	1
H	-1.521686	0.559027	1.945977	1
H	1.010624	-0.239693	1.353677	1
H	1.559074	0.624627	-1.591823	1
H	2.787084	0.028887	-0.387923	1
H	2.190404	1.934667	1.146907	1
H	0.971464	2.520987	-0.070813	1
Es	1.491097	1.674264	0.361484	99
Es	-2.241278	0.945995	0.679966	99
Es	1.846419	0.540764	-0.549630	99
Es	-0.654388	0.330413	-0.123511	99
Es	0.761291	0.361981	0.480360	99
Es	2.483316	0.197100	-0.435192	99
Es	0.932792	-0.053664	1.082017	99
Es	1.279710	0.263543	-0.091854	99
Es	-0.024491	0.298567	0.235284	99
Es	-0.657506	-2.587150	-1.270478	99
Es	1.652407	0.598521	-1.251446	99
Es	-1.350367	1.699821	0.976957	99
Es	-1.095128	-1.138367	-0.106461	99
Es	-0.821744	-0.358112	-0.003422	99
Es	-1.530060	0.681815	1.637104	99
Es	-0.653105	0.327586	-0.118375	99
Es	1.809609	1.216957	-0.173142	99
Es	-1.819456	-1.135167	-0.295342	99
Es	-1.024617	0.555555	0.451112	99
Es	-0.704348	-1.521859	-0.644877	99
Es	-0.365200	-1.552523	-1.838087	99
Es	0.364664	-2.017981	-0.995004	99
Es	-1.036266	-1.508597	0.562554	99
Es	1.008536	1.092236	0.565667	99
Es	-1.541641	0.977241	0.933019	99
Es	-0.342235	-1.911342	-1.183298	99
Es	1.964145	1.846561	0.893959	99
Es	1.138892	2.242625	0.070302	99
48
Properties=species:S:1:pos:R:3:Z:I:1 energy=-289.2734220385106 field_type=dipole dipole="0.000000 0.000000 0.000000" charge=0
C	-0.342215	-1.911343	-1.183323	6
C	-1.095195	-1.138473	-0.106443	6
N	-0.640955	0.257447	0.026467	7
C	-1.541715	0.977307	0.933097	6
C	0.761315	0.361877	0.480497	6
C	1.846505	0.540697	-0.549773	6
C	1.491125	1.674437	0.361527	6
H	-0.797846	-2.897713	-1.321593	1
H	0.705644	-2.069933	-0.910203	1
H	-0.377085	-1.388623	-2.144773	1
H	-1.012256	-1.670483	0.849767	1
H	-2.155675	-1.145853	-0.389053	1
H	-2.572445	0.946537	0.562867	1
H	-1.266175	2.035617	0.994937	1
H	-1.521686	0.559027	1.945977	1
H	1.010624	-0.239693	1.353677	1
H	1.559074	0.624627	-1.591823	1
H	2.787084	0.028887	-0.387923	1
H	2.190404	1.934667	1.146907	1
H	0.971464	2.520987	-0.070813	1
Es	1.809835	1.220273	-0.175492	99
Es	-2.243058	0.944986	0.680782	99
Es	-0.028944	0.293995	0.241854	99
Es	-0.640908	0.257195	0.027009	99
Es	-0.703873	-1.521685	-0.644755	99
Es	-1.529480	0.682673	1.634240	99
Es	2.484617	0.196171	-0.436380	99
Es	1.139400	2.241054	0.071655	99
Es	-0.365539	-1.553965	-1.834876	99
Es	0.932570	-0.052469	1.079438	99
Es	1.279194	0.260754	-0.093212	99
Es	-0.658448	-2.588103	-1.272405	99
Es	1.963914	1.847197	0.893466	99
Es	-1.821537	-1.135965	-0.294172	99
Es	-1.541643	0.977244	0.933022	99
Es	0.761292	0.361983	0.480361	99
Es	1.008430	1.093979	0.568081	99
Es	-1.095127	-1.138361	-0.106462	99
Es	1.846418	0.540769	-0.549626	99
Es	-1.023347	0.553461	0.452010	99
Es	-0.820875	-0.357251	-0.000655	99
Es	-0.664295	0.405558	-0.277672	99
Es	0.366552	-2.017158	-0.995920	99
Es	1.652372	0.597609	-1.247747	99
Es	-1.035613	-1.506786	0.560114	99
Es	-1.349724	1.700702	0.978826	99
Es	1.491102	1.674267	0.361479	99
Es	-0.342234	-1.911342	-1.183298	99
48
Properties=species:S:1:pos:R:3:Z:I:1 energy=-289.2734220385106 field_type=dipole dipole="0.000000 0.000000 0.000000" charge=0
C	-0.342215	-1.911343	-1.183323	6
C	-1.095195	-1.138473	-0.106443	6
N	-0.640955	0.257447	0.026467	7
C	-1.541715	0.977307	0.933097	6
C	0.761315	0.361877	0.480497	6
C	1.846505	0.540697	-0.549773	6
C	1.491125	1.674437	0.361527	6
H	-0.797846	-2.897713	-1.321593	1
H	0.705644	-2.069933	-0.910203	1
H	-0.377085	-1.388623	-2.144773	1
H	-1.012256	-1.670483	0.849767	1
H	-2.155675	-1.145853	-0.389053	1
H	-2.572445	0.946537	0.562867	1
H	-1.266175	2.035617	0.994937	1
H	-1.521686	0.559027	1.945977	1
H	1.010624	-0.239693	1.353677	1
H	1.559074	0.624627	-1.591823	1
H	2.787084	0.028887	-0.387923	1
H	2.190404	1.934667	1.146907	1
H	0.971464	2.520987	-0.070813	1
Es	-0.640922	0.257152	0.027135	99
Es	1.809949	1.220404	-0.175486	99
Es	1.846419	0.540768	-0.549626	99
Es	2.484546	0.196266	-0.436465	99
Es	-0.665039	0.404806	-0.277050	99
Es	1.139528	2.240992	0.071690	99
Es	1.008292	1.093865	0.568020	99
Es	-0.703895	-1.521648	-0.644721	99
Es	0.761295	0.361983	0.480358	99
Es	-0.028435	0.294707	0.240534	99
Es	0.932504	-0.052332	1.079595	99
Es	-1.023171	0.553638	0.452011	99
Es	-1.349772	1.700724	0.978831	99
Es	-0.342233	-1.911343	-1.183299	99
Es	-1.095126	-1.138359	-0.106461	99
Es	-2.242988	0.945003	0.680857	99
Es	-1.035630	-1.506833	0.560145	99
Es	-0.658416	-2.588136	-1.272395	99
Es	-0.820802	-0.357340	-0.000215	99
Es	-1.529479	0.682643	1.634253	99
Es	1.652378	0.597648	-1.247712	99
Es	-1.821466	-1.135935	-0.294150	99
Es	1.491108	1.674267	0.361476	99
Es	-1.541643	0.977245	0.933023	99
Es	1.279245	0.260520	-0.093148	99
Es	1.963867	1.847196	0.893352	99
Es	0.366407	-2.017179	-0.995970	99
Es	-0.365474	-1.553938	-1.834915	99
48
Properties=species:S:1:pos:R:3:Z:I:1 energy=-289.2734220385106 field_type=dipole dipole="0.000000 0.000000 0.000000" charge=0
C	-0.342215	-1.911343	-1.183323	6
C	-1.095195	-1.138473	-0.106443	6
N	-0.640955	0.257447	0.026467	7
C	-1.541715	0.977307	0.933097	6
C	0.761315	0.361877	0.480497	6
C	1.846505	0.540697	-0.549773	6
C	1.491125	1.674437	0.361527	6
H	-0.797846	-2.897713	-1.321593	1
H	0.705644	-2.069933	-0.910203	1
H	-0.377085	-1.388623	-2.144773	1
H	-1.012256	-1.670483	0.849767	1
H	-2.155675	-1.145853	-0.389053	1
H	-2.572445	0.946537	0.562867	1
H	-1.266175	2.035617	0.994937	1
H	-1.521686	0.559027	1.945977	1
H	1.010624	-0.239693	1.353677	1
H	1.559074	0.624627	-1.591823	1
H	2.787084	0.028887	-0.387923	1
H	2.190404	1.934667	1.146907	1
H	0.971464	2.520987	-0.070813	1
Es	-0.703828	-1.521655	-0.644732	99
Es	-1.529585	0.682534	1.634251	99
Es	1.008109	1.093694	0.568531	99
Es	1.963758	1.847173	0.893111	99
Es	1.810078	1.220456	-0.175599	99
Es	-1.541641	0.977244	0.933021	99
Es	-1.035719	-1.506833	0.560216	99
Es	-0.365363	-1.553881	-1.834832	99
Es	0.761292	0.361978	0.480356	99
Es	1.846415	0.540762	-0.549625	99
Es	1.279265	0.260633	-0.093395	99
Es	1.491098	1.674262	0.361479	99
Es	-1.095124	-1.138359	-0.106460	99
Es	-0.640931	0.257187	0.027073	99
Es	1.139525	2.240940	0.071875	99
Es	0.932601	-0.052499	1.079413	99
Es	-0.342234	-1.911343	-1.183299	99
Es	1.652567	0.597774	-1.247738	99
Es	-1.023233	0.553564	0.452051	99
Es	-0.665111	0.404780	-0.276560	99
Es	0.366243	-2.017078	-0.995981	99
Es	-0.028279	0.294831	0.240508	99
Es	-2.242859	0.944990	0.680806	99
Es	2.484451	0.196413	-0.436425	99
Es	-1.349781	1.700806	0.978858	99
Es	-0.820849	-0.357384	-0.000584	99
Es	-1.821399	-1.135888	-0.294204	99
Es	-0.658419	-2.588315	-1.272450	99
48
Properties=species:S:1:pos:R:3:Z:I:1 energy=-289.2734220385106 field_type=dipole dipole="0.000000 0.000000 0.000000" charge=0
C	-0.342215	-1.911343	-1.183323	6
C	-1.095195	-1.138473	-0.106443	6
N	-0.640955	0.257447	0.026467	7
C	-1.541715	0.977307	0.933097	6
C	0.761315	0.361877	0.480497	6
C	1.846505	0.540697	-0.549773	6
C	1.491125	1.674437	0.361527	6
H	-0.797846	-2.897713	-1.321593	1
H	0.705644	-2.069933	-0.910203	1
H	-0.377085	-1.388623	-2.144773	1
H	-1.012256	-1.670483	0.849767	1
H	-2.155675	-1.145853	-0.389053	1
H	-2.572445	0.946537	0.562867	1
H	-1.266175	2.035617	0.994937	1
H	-1.521686	0.559027	1.945977	1
H	1.010624	-0.239693	1.353677	1
H	1.559074	0.624627	-1.591823	1
H	2.787084	0.028887	-0.387923	1
H	2.190404	1.934667	1.146907	1
H	0.971464	2.520987	-0.070813	1
Es	-0.640918	0.257127	0.027152	99
Es	0.761293	0.361981	0.480358	99
Es	-1.349747	1.700845	0.978943	99
Es	1.139747	2.240791	0.071770	99
Es	-0.703875	-1.521730	-0.644762	99
Es	-0.665873	0.404634	-0.276569	99
Es	1.279095	0.260398	-0.093156	99
Es	-1.821306	-1.135895	-0.294175	99
Es	-0.365190	-1.553850	-1.834905	99
Es	2.484368	0.196371	-0.436523	99
Es	0.932455	-0.052419	1.079468	99
Es	-0.342234	-1.911342	-1.183298	99
Es	1.652530	0.597640	-1.247570	99
Es	-1.529766	0.682464	1.634205	99
Es	1.963724	1.847260	0.893153	99
Es	-0.027829	0.295263	0.239678	99
Es	-2.242726	0.945057	0.680747	99
Es	-0.658431	-2.588260	-1.272481	99
Es	0.366134	-2.017173	-0.995863	99
Es	1.810338	1.220574	-0.175756	99
Es	-1.022953	0.553234	0.452369	99
Es	-1.095125	-1.138361	-0.106462	99
Es	-0.820714	-0.357214	-0.000123	99
Es	1.491101	1.674258	0.361476	99
Es	-1.035816	-1.506798	0.560172	99
Es	1.007994	1.093913	0.568420	99
Es	1.846420	0.540768	-0.549628	99
Es	-1.541645	0.977248	0.933025	99
48
Properties=species:S:1:pos:R:3:Z:I:1 energy=-289.2734220385106 field_type=dipole dipole="0.000000 0.000000 0.000000" charge=0
C	-0.342215	-1.911343	-1.183323	6
C	-1.095195	-1.138473	-0.106443	6
N	-0.640955	0.257447	0.026467	7
C	-1.541715	0.977307	0.933097	6
C	0.761315	0.361877	0.480497	6
C	1.846505	0.540697	-0.549773	6
C	1.491125	1.674437	0.361527	6
H	-0.797846	-2.897713	-1.321593	1
H	0.705644	-2.069933	-0.910203	1
H	-0.377085	-1.388623	-2.144773	1
H	-1.012256	-1.670483	0.849767	1
H	-2.155675	-1.145853	-0.389053	1
H	-2.572445	0.946537	0.562867	1
H	-1.266175	2.035617	0.994937	1
H	-1.521686	0.559027	1.945977	1
H	1.010624	-0.239693	1.353677	1
H	1.559074	0.624627	-1.591823	1
H	2.787084	0.028887	-0.387923	1
H	2.190404	1.934667	1.146907	1
H	0.971464	2.520987	-0.070813	1
Es	-1.821328	-1.135909	-0.294177	99
Es	-0.342234	-1.911342	-1.183297	99
Es	2.484363	0.196530	-0.436495	99
Es	1.007884	1.093820	0.568623	99
Es	1.846419	0.540768	-0.549628	99
Es	-1.095125	-1.138360	-0.106461	99
Es	-0.703848	-1.521681	-0.644773	99
Es	-1.529743	0.682475	1.634209	99
Es	-1.541641	0.977243	0.933021	99
Es	-1.035797	-1.506792	0.560178	99
Es	1.810257	1.220578	-0.175810	99
Es	-1.349779	1.700900	0.978898	99
Es	-0.820674	-0.357278	-0.000289	99
Es	0.932516	-0.052430	1.079422	99
Es	1.279085	0.260337	-0.093267	99
Es	-1.022948	0.553244	0.452507	99
Es	1.652645	0.597709	-1.247584	99
Es	0.761291	0.361985	0.480361	99
Es	-0.365147	-1.553873	-1.834960	99
Es	1.963748	1.847292	0.892999	99
Es	1.491100	1.674262	0.361480	99
Es	0.365993	-2.017064	-0.995873	99
Es	-0.640925	0.257144	0.027134	99
Es	-0.658367	-2.588392	-1.272384	99
Es	-0.027774	0.295398	0.239355	99
Es	-0.666015	0.404499	-0.276171	99
Es	1.139779	2.240713	0.071846	99
Es	-2.242689	0.945007	0.680799	99
48
Properties=species:S:1:pos:R:3:Z:I:1 energy=-289.2734220385106 field_type=dipole dipole="0.000000 0.000000 0.000000" charge=0
C	-0.342215	-1.911343	-1.183323	6
C	-1.095195	-1.138473	-0.106443	6
N	-0.640955	0.257447	0.026467	7
C	-1.541715	0.977307	0.933097	6
C	0.761315	0.361877	0.480497	6
C	1.846505	0.540697	-0.549773	6
C	1.491125	1.674437	0.361527	6
H	-0.797846	-2.897713	-1.321593	1
H	0.705644	-2.069933	-0.910203	1
H	-0.377085	-1.388623	-2.144773	1
H	-1.012256	-1.670483	0.849767	1
H	-2.155675	-1.145853	-0.389053	1
H	-2.572445	0.946537	0.562867	1
H	-1.266175	2.035617	0.994937	1
H	-1.521686	0.559027	1.945977	1
H	1.010624	-0.239693	1.353677	1
H	1.559074	0.624627	-1.591823	1
H	2.787084	0.028887	-0.387923	1
H	2.190404	1.934667	1.146907	1
H	0.971464	2.520987	-0.070813	1
Es	1.007690	1.093677	0.568554	99
Es	1.846421	0.540768	-0.549628	99
Es	-0.658346	-2.588448	-1.272274	99
Es	-1.529714	0.682491	1.634206	99
Es	-1.349757	1.700856	0.978909	99
Es	-0.820638	-0.357424	-0.000126	99
Es	1.491101	1.674264	0.361481	99
Es	-0.342234	-1.911343	-1.183299	99
Es	0.932484	-0.052276	1.079548	99
Es	-1.541641	0.977244	0.933021	99
Es	0.761291	0.361996	0.480366	99
Es	1.279092	0.260474	-0.093065	99
Es	-0.666200	0.404249	-0.275830	99
Es	-1.821308	-1.135925	-0.294107	99
Es	1.139861	2.240638	0.071840	99
Es	-1.095126	-1.138362	-0.106462	99
Es	2.484180	0.196459	-0.436550	99
Es	-0.640921	0.257147	0.027108	99
Es	0.365909	-2.017031	-0.995929	99
Es	-1.022903	0.553337	0.452391	99
Es	1.963654	1.847322	0.892979	99
Es	1.810692	1.220691	-0.176063	99
Es	-1.035764	-1.506809	0.560145	99
Es	-0.027700	0.295695	0.238986	99
Es	-0.365168	-1.553877	-1.835030	99
Es	1.652627	0.597581	-1.247513	99
Es	-2.242736	0.945043	0.680813	99
Es	-0.703799	-1.521655	-0.644806	99
48
Properties=species:S:1:pos:R:3:Z:I:1 energy=-289.2734220385106 field_type=dipole dipole="0.000000 0.000000 0.000000" charge=0
C	-0.342215	-1.911343	-1.183323	6
C	-1.095195	-1.138473	-0.106443	6
N	-0.640955	0.257447	0.026467	7
C	-1.541715	0.977307	0.933097	6
C	0.761315	0.361877	0.480497	6
C	1.846505	0.540697	-0.549773	6
C	1.491125	1.674437	0.361527	6
H	-0.797846	-2.897713	-1.321593	1
H	0.705644	-2.069933	-0.910203	1
H	-0.377085	-1.388623	-2.144773	1
H	-1.012256	-1.670483	0.849767	1
H	-2.155675	-1.145853	-0.389053	1
H	-2.572445	0.946537	0.562867	1
H	-1.266175	2.035617	0.994937	1
H	-1.521686	0.559027	1.945977	1
H	1.010624	-0.239693	1.353677	1
H	1.559074	0.624627	-1.591823	1
H	2.787084	0.028887	-0.387923	1
H	2.190404	1.934667	1.146907	1
H	0.971464	2.520987	-0.070813	1
Es	1.279028	0.260227	-0.093051	99
Es	-0.027673	0.295669	0.238981	99
Es	-0.820620	-0.357455	-0.000349	99
Es	1.007534	1.093668	0.568666	99
Es	1.139957	2.240610	0.071872	99
Es	-1.035842	-1.506762	0.560166	99
Es	-1.821257	-1.135905	-0.294126	99
Es	-0.640949	0.257169	0.027092	99
Es	-0.658388	-2.588413	-1.272367	99
Es	-1.022851	0.553251	0.452511	99
Es	-1.349809	1.700931	0.978906	99
Es	1.846421	0.540767	-0.549628	99
Es	1.652667	0.597701	-1.247456	99
Es	2.484252	0.196596	-0.436604	99
Es	1.491101	1.674264	0.361479	99
Es	-0.342234	-1.911342	-1.183298	99
Es	1.963663	1.847299	0.892909	99
Es	0.761292	0.361981	0.480359	99
Es	0.365900	-2.017097	-0.995936	99
Es	-1.541642	0.977244	0.933024	99
Es	-1.095126	-1.138362	-0.106462	99
Es	0.932454	-0.052198	1.079404	99
Es	-0.666190	0.404353	-0.275665	99
Es	-2.242633	0.944996	0.680807	99
Es	1.810665	1.220738	-0.176087	99
Es	-1.529756	0.682423	1.634225	99
Es	-0.703781	-1.521757	-0.644727	99
Es	-0.365134	-1.553814	-1.834981	99
48
Properties=species:S:1:pos:R:3:Z:I:1 energy=-289.2734220385106 field_type=dipole dipole="0.000000 0.000000 0.000000" charge=0
C	-0.342215	-1.911343	-1.183323	6
C	-1.095195	-1.138473	-0.106443	6
N	-0.640955	0.257447	0.026467	7
C	-1.541715	0.977307	0.933097	6
C	0.761315	0.361877	0.480497	6
C	1.846505	0.540697	-0.549773	6
C	1.491125	1.674437	0.361527	6
H	-0.797846	-2.897713	-1.321593	1
H	0.705644	-2.069933	-0.910203	1
H	-0.377085	-1.388623	-2.144773	1
H	-1.012256	-1.670483	0.849767	1
H	-2.155675	-1.145853	-0.389053	1
H	-2.572445	0.946537	0.562867	1
H	-1.266175	2.035617	0.994937	1
H	-1.521686	0.559027	1.945977	1
H	1.010624	-0.239693	1.353677	1
H	1.559074	0.624627	-1.591823	1
H	2.787084	0.028887	-0.387923	1
H	2.190404	1.934667	1.146907	1
H	0.971464	2.520987	-0.070813	1
Es	-1.095125	-1.138361	-0.106462	99
Es	1.140159	2.240537	0.071923	99
Es	-0.703782	-1.521714	-0.644770	99
Es	-1.529852	0.682397	1.634174	99
Es	-2.242566	0.945037	0.680802	99
Es	-0.658470	-2.588446	-1.272418	99
Es	0.761292	0.361980	0.480358	99
Es	1.846420	0.540767	-0.549627	99
Es	2.484172	0.196630	-0.436617	99
Es	-1.035880	-1.506829	0.560188	99
Es	1.810988	1.220802	-0.176217	99
Es	1.007384	1.093720	0.568690	99
Es	-1.821186	-1.135852	-0.294109	99
Es	-0.640912	0.257165	0.027095	99
Es	-1.349772	1.700968	0.978954	99
Es	-1.541642	0.977244	0.933021	99
Es	0.932510	-0.052287	1.079399	99
Es	1.278949	0.260356	-0.092903	99
Es	1.491098	1.674265	0.361482	99
Es	-0.820614	-0.357428	-0.000453	99
Es	-1.022956	0.553326	0.452487	99
Es	0.365795	-2.017147	-0.995937	99
Es	-0.027710	0.295579	0.238944	99
Es	-0.342235	-1.911342	-1.183299	99
Es	1.963431	1.847256	0.892874	99
Es	1.652703	0.597658	-1.247428	99
Es	-0.365018	-1.553763	-1.834939	99
Es	-0.666133	0.404266	-0.275546	99
48
Properties=species:S:1:pos:R:3:Z:I:1 energy=-289.2734220385106 field_type=dipole dipole="0.000000 0.000000 0.000000" charge=0
C	-0.342215	-1.911343	-1.183323	6
C	-1.095195	-1.138473	-0.106443	6
N	-0.640955	0.257447	0.026467	7
C	-1.541715	0.977307	0.933097	6
C	0.761315	0.361877	0.480497	6
C	1.846505	0.540697	-0.549773	6
C	1.491125	1.674437	0.361527	6
H	-0.797846	-2.897713	-1.321593	1
H	0.705644	-2.069933	-0.910203	1
H	-0.377085	-1.388623	-2.144773	1
H	-1.012256	-1.670483	0.849767	1
H	-2.155675	-1.145853	-0.389053	1
H	-2.572445	0.946537	0.562867	1
H	-1.266175	2.035617	0.994937	1
H	-1.521686	0.559027	1.945977	1
H	1.010624	-0.239693	1.353677	1
H	1.559074	0.624627	-1.591823	1
H	2.787084	0.028887	-0.387923	1
H	2.190404	1.934667	1.146907	1
H	0.971464	2.520987	-0.070813	1
Es	-0.640921	0.257148	0.027142	99
Es	-1.529803	0.682418	1.634188	99
Es	1.963469	1.847323	0.892857	99
Es	-1.095125	-1.138361	-0.106461	99
Es	1.007406	1.093502	0.568675	99
Es	0.365748	-2.016968	-0.995939	99
Es	-0.703794	-1.521765	-0.644759	99
Es	-0.027622	0.295823	0.238269	99
Es	2.484188	0.196769	-0.436787	99
Es	-1.821222	-1.135885	-0.294120	99
Es	-0.342234	-1.911342	-1.183298	99
Es	-0.658318	-2.588584	-1.272426	99
Es	-0.820467	-0.357416	-0.000620	99
Es	0.761284	0.361977	0.480359	99
Es	1.652699	0.597755	-1.247255	99
Es	1.140033	2.240512	0.071934	99
Es	-0.365049	-1.553764	-1.834912	99
Es	-1.349865	1.701054	0.978872	99
Es	-1.022771	0.552974	0.453050	99
Es	1.810945	1.220908	-0.176178	99
Es	1.279052	0.260145	-0.093007	99
Es	0.932512	-0.052202	1.079455	99
Es	1.491100	1.674260	0.361479	99
Es	-0.666609	0.404369	-0.275308	99
Es	1.846424	0.540766	-0.549622	99
Es	-1.035852	-1.506778	0.560214	99
Es	-2.242518	0.944903	0.680843	99
Es	-1.541642	0.977243	0.933021	99
