50
Properties=species:S:1:pos:R:3:Z:I:1 energy=-306.4928949722111 field_type=dipole dipole="0.000000 0.000000 0.000000" charge=0
C	-2.492307	-0.149647	-0.325150	6
C	-0.993617	-0.446307	-0.402950	6
N	-0.688357	-1.097917	-1.679231	7
C	-0.179997	0.849083	-0.246810	6
C	1.344113	0.664183	-0.275320	6
C	1.904853	-0.261397	0.806190	6
N	1.595284	0.222783	2.147400	7
H	-2.744427	0.309343	0.636740	1
H	-3.079867	-1.069747	-0.416560	1
H	-2.809637	0.535283	-1.118981	1
H	-0.745707	-1.139987	0.407510	1
H	-0.944327	-0.478407	-2.447360	1
H	-1.270987	-1.927767	-1.783380	1
H	-0.464967	1.341553	0.691330	1
H	-0.451167	1.550413	-1.047150	1
H	1.811633	1.652603	-0.178390	1
H	1.650573	0.282093	-1.256970	1
H	2.993643	-0.321067	0.694100	1
H	1.517893	-1.278297	0.686730	1
H	2.004323	1.147063	2.275790	1
H	2.043043	-0.383857	2.832470	1
Es	-0.579570	0.198326	-0.330944	99
Es	1.245754	0.236597	2.205718	99
Es	-0.179976	0.849057	-0.246827	99
Es	-2.703045	0.318793	-0.873922	99
Es	-0.378365	1.181754	0.390469	99
Es	1.344092	0.664177	-0.275284	99
Es	-2.890411	-0.784092	-0.391613	99
Es	1.595830	0.222765	2.147307	99
Es	-2.664967	0.164898	0.332429	99
Es	1.636475	-0.956816	0.728510	99
Es	2.662389	-0.302144	0.719745	99
Es	-0.824223	-0.923166	0.150244	99
Es	-0.369407	1.324185	-0.806042	99
Es	-0.344550	-1.187189	-1.707152	99
Es	1.555304	0.404019	-0.940202	99
Es	-0.993616	-0.446329	-0.403093	99
Es	1.904807	-0.261321	0.806313	99
Es	1.750359	0.018316	1.574165	99
Es	-1.760067	-0.287145	-0.361367	99
Es	-0.688922	-1.097779	-1.679202	99
Es	-2.492324	-0.149644	-0.325149	99
Es	1.612425	0.201745	0.273854	99
Es	1.665576	1.346296	-0.197611	99
Es	-1.060753	-1.589445	-1.736083	99
Es	-0.865295	-0.715910	-2.134509	99
Es	1.885599	-0.143192	2.552623	99
Es	0.580183	0.740256	-0.254319	99
Es	1.863944	0.776651	2.216181	99
Es	-0.840914	-0.814405	-1.139496	99
50
Properties=species:S:1:pos:R:3:Z:I:1 energy=-306.4928949722111 field_type=dipole dipole="0.000000 0.000000 0.000000" charge=0
C	-2.492307	-0.149647	-0.325150	6
C	-0.993617	-0.446307	-0.402950	6
N	-0.688357	-1.097917	-1.679231	7
C	-0.179997	0.849083	-0.246810	6
C	1.344113	0.664183	-0.275320	6
C	1.904853	-0.261397	0.806190	6
N	1.595284	0.222783	2.147400	7
H	-2.744427	0.309343	0.636740	1
H	-3.079867	-1.069747	-0.416560	1
H	-2.809637	0.535283	-1.118981	1
H	-0.745707	-1.139987	0.407510	1
H	-0.944327	-0.478407	-2.447360	1
H	-1.270987	-1.927767	-1.783380	1
H	-0.464967	1.341553	0.691330	1
H	-0.451167	1.550413	-1.047150	1
H	1.811633	1.652603	-0.178390	1
H	1.650573	0.282093	-1.256970	1
H	2.993643	-0.321067	0.694100	1
H	1.517893	-1.278297	0.686730	1
H	2.004323	1.147063	2.275790	1
H	2.043043	-0.383857	2.832470	1
Es	1.862921	0.778278	2.216307	99
Es	2.661760	-0.302112	0.720017	99
Es	1.554841	0.404077	-0.939924	99
Es	-0.347685	-1.185860	-1.706656	99
Es	1.665540	1.346896	-0.197860	99
Es	0.580149	0.740149	-0.254423	99
Es	-0.377849	1.181424	0.390410	99
Es	-0.688832	-1.097797	-1.679195	99
Es	-1.760209	-0.287018	-0.361378	99
Es	1.904811	-0.261322	0.806310	99
Es	-2.664401	0.164636	0.332235	99
Es	-0.839909	-0.814440	-1.139023	99
Es	-0.579614	0.198298	-0.330796	99
Es	1.636549	-0.957296	0.728515	99
Es	1.249560	0.236363	2.205036	99
Es	-0.369369	1.324831	-0.806395	99
Es	-0.179976	0.849055	-0.246827	99
Es	1.344092	0.664178	-0.275283	99
Es	-0.993617	-0.446328	-0.403091	99
Es	1.612641	0.201727	0.273913	99
Es	-2.890406	-0.784696	-0.391370	99
Es	1.748824	0.017952	1.573550	99
Es	-2.492323	-0.149645	-0.325147	99
Es	-0.864396	-0.715167	-2.135464	99
Es	1.595863	0.222767	2.147313	99
Es	-0.824401	-0.923524	0.150478	99
Es	1.884571	-0.144225	2.553743	99
Es	-1.059796	-1.591325	-1.736086	99
Es	-2.703006	0.319379	-0.874165	99
50
Properties=species:S:1:pos:R:3:Z:I:1 energy=-306.4928949722111 field_type=dipole dipole="0.000000 0.000000 0.000000" charge=0
C	-2.492307	-0.149647	-0.325150	6
C	-0.993617	-0.446307	-0.402950	6
N	-0.688357	-1.097917	-1.679231	7
C	-0.179997	0.849083	-0.246810	6
C	1.344113	0.664183	-0.275320	6
C	1.904853	-0.261397	0.806190	6
N	1.595284	0.222783	2.147400	7
H	-2.744427	0.309343	0.636740	1
H	-3.079867	-1.069747	-0.416560	1
H	-2.809637	0.535283	-1.118981	1
H	-0.745707	-1.139987	0.407510	1
H	-0.944327	-0.478407	-2.447360	1
H	-1.270987	-1.927767	-1.783380	1
H	-0.464967	1.341553	0.691330	1
H	-0.451167	1.550413	-1.047150	1
H	1.811633	1.652603	-0.178390	1
H	1.650573	0.282093	-1.256970	1
H	2.993643	-0.321067	0.694100	1
H	1.517893	-1.278297	0.686730	1
H	2.004323	1.147063	2.275790	1
H	2.043043	-0.383857	2.832470	1
Es	1.636724	-0.957568	0.728607	99
Es	0.580154	0.740197	-0.254405	99
Es	1.884314	-0.144787	2.554071	99
Es	-0.179975	0.849055	-0.246827	99
Es	1.862849	0.778756	2.216168	99
Es	1.904810	-0.261323	0.806310	99
Es	1.665582	1.347207	-0.197923	99
Es	1.612619	0.201668	0.273763	99
Es	-1.760254	-0.287062	-0.361408	99
Es	-2.664121	0.164565	0.332173	99
Es	-0.993618	-0.446328	-0.403092	99
Es	1.250520	0.236401	2.204676	99
Es	2.661408	-0.302021	0.720153	99
Es	-2.702839	0.319662	-0.874255	99
Es	1.554584	0.404121	-0.939788	99
Es	-0.839270	-0.814281	-1.138456	99
Es	-0.824501	-0.923761	0.150649	99
Es	-2.890498	-0.784949	-0.391326	99
Es	1.748342	0.017985	1.573679	99
Es	-0.579605	0.198266	-0.330774	99
Es	-1.059572	-1.591931	-1.736229	99
Es	-0.688938	-1.097764	-1.679183	99
Es	-0.863749	-0.714952	-2.135777	99
Es	-2.492325	-0.149645	-0.325146	99
Es	-0.349240	-1.185578	-1.706721	99
Es	1.595855	0.222765	2.147312	99
Es	-0.369337	1.325022	-0.806548	99
Es	1.344090	0.664180	-0.275279	99
Es	-0.377676	1.181356	0.390321	99
50
Properties=species:S:1:pos:R:3:Z:I:1 energy=-306.4928949722111 field_type=dipole dipole="0.000000 0.000000 0.000000" charge=0
C	-2.492307	-0.149647	-0.325150	6
C	-0.993617	-0.446307	-0.402950	6
N	-0.688357	-1.097917	-1.679231	7
C	-0.179997	0.849083	-0.246810	6
C	1.344113	0.664183	-0.275320	6
C	1.904853	-0.261397	0.806190	6
N	1.595284	0.222783	2.147400	7
H	-2.744427	0.309343	0.636740	1
H	-3.079867	-1.069747	-0.416560	1
H	-2.809637	0.535283	-1.118981	1
H	-0.745707	-1.139987	0.407510	1
H	-0.944327	-0.478407	-2.447360	1
H	-1.270987	-1.927767	-1.783380	1
H	-0.464967	1.341553	0.691330	1
H	-0.451167	1.550413	-1.047150	1
H	1.811633	1.652603	-0.178390	1
H	1.650573	0.282093	-1.256970	1
H	2.993643	-0.321067	0.694100	1
H	1.517893	-1.278297	0.686730	1
H	2.004323	1.147063	2.275790	1
H	2.043043	-0.383857	2.832470	1
Es	1.612799	0.201718	0.273798	99
Es	-0.688925	-1.097778	-1.679202	99
Es	-0.579668	0.198204	-0.330849	99
Es	-1.760213	-0.286982	-0.361397	99
Es	1.883909	-0.145061	2.554544	99
Es	-0.350206	-1.184877	-1.706246	99
Es	1.665620	1.347408	-0.198040	99
Es	1.554377	0.404103	-0.939680	99
Es	-0.179974	0.849053	-0.246828	99
Es	1.344092	0.664178	-0.275284	99
Es	-0.839028	-0.814662	-1.138626	99
Es	-2.890569	-0.785132	-0.391218	99
Es	-2.663932	0.164457	0.332007	99
Es	1.595814	0.222784	2.147365	99
Es	-0.377543	1.181230	0.390208	99
Es	1.636638	-0.957719	0.728559	99
Es	1.747738	0.017838	1.573145	99
Es	-0.993618	-0.446327	-0.403090	99
Es	1.252306	0.236260	2.204467	99
Es	-1.058955	-1.592764	-1.735968	99
Es	2.661221	-0.302062	0.720266	99
Es	-2.492325	-0.149644	-0.325148	99
Es	1.862190	0.779309	2.216340	99
Es	-0.824593	-0.923794	0.150772	99
Es	0.580183	0.740197	-0.254308	99
Es	-2.702836	0.319874	-0.874284	99
Es	-0.369262	1.325256	-0.806574	99
Es	1.904810	-0.261323	0.806309	99
Es	-0.863718	-0.714488	-2.136293	99
50
Properties=species:S:1:pos:R:3:Z:I:1 energy=-306.4928949722111 field_type=dipole dipole="0.000000 0.000000 0.000000" charge=0
C	-2.492307	-0.149647	-0.325150	6
C	-0.993617	-0.446307	-0.402950	6
N	-0.688357	-1.097917	-1.679231	7
C	-0.179997	0.849083	-0.246810	6
C	1.344113	0.664183	-0.275320	6
C	1.904853	-0.261397	0.806190	6
N	1.595284	0.222783	2.147400	7
H	-2.744427	0.309343	0.636740	1
H	-3.079867	-1.069747	-0.416560	1
H	-2.809637	0.535283	-1.118981	1
H	-0.745707	-1.139987	0.407510	1
H	-0.944327	-0.478407	-2.447360	1
H	-1.270987	-1.927767	-1.783380	1
H	-0.464967	1.341553	0.691330	1
H	-0.451167	1.550413	-1.047150	1
H	1.811633	1.652603	-0.178390	1
H	1.650573	0.282093	-1.256970	1
H	2.993643	-0.321067	0.694100	1
H	1.517893	-1.278297	0.686730	1
H	2.004323	1.147063	2.275790	1
H	2.043043	-0.383857	2.832470	1
Es	-2.492324	-0.149645	-0.325147	99
Es	-0.579768	0.198158	-0.330854	99
Es	1.554258	0.404152	-0.939625	99
Es	-1.059432	-1.592573	-1.735889	99
Es	-2.663854	0.164436	0.331953	99
Es	1.253050	0.236166	2.204477	99
Es	-0.863807	-0.714498	-2.136001	99
Es	-0.824564	-0.923888	0.150916	99
Es	1.612783	0.201643	0.273818	99
Es	1.636680	-0.957817	0.728617	99
Es	-1.760191	-0.286961	-0.361393	99
Es	-0.993617	-0.446328	-0.403089	99
Es	1.344093	0.664179	-0.275285	99
Es	-0.179976	0.849055	-0.246827	99
Es	2.661122	-0.302028	0.720302	99
Es	-0.350961	-1.185244	-1.707292	99
Es	-2.890571	-0.785224	-0.391162	99
Es	1.883740	-0.145288	2.554604	99
Es	0.580147	0.740302	-0.254390	99
Es	-2.702805	0.319958	-0.874354	99
Es	-0.377381	1.181205	0.390189	99
Es	-0.369295	1.325350	-0.806619	99
Es	1.595811	0.222768	2.147309	99
Es	1.747314	0.017765	1.573089	99
Es	1.665663	1.347422	-0.198113	99
Es	1.862104	0.779718	2.216337	99
Es	1.904811	-0.261322	0.806310	99
Es	-0.688970	-1.097763	-1.679195	99
Es	-0.837726	-0.814443	-1.137942	99
50
Properties=species:S:1:pos:R:3:Z:I:1 energy=-306.4928949722111 field_type=dipole dipole="0.000000 0.000000 0.000000" charge=0
C	-2.492307	-0.149647	-0.325150	6
C	-0.993617	-0.446307	-0.402950	6
N	-0.688357	-1.097917	-1.679231	7
C	-0.179997	0.849083	-0.246810	6
C	1.344113	0.664183	-0.275320	6
C	1.904853	-0.261397	0.806190	6
N	1.595284	0.222783	2.147400	7
H	-2.744427	0.309343	0.636740	1
H	-3.079867	-1.069747	-0.416560	1
H	-2.809637	0.535283	-1.118981	1
H	-0.745707	-1.139987	0.407510	1
H	-0.944327	-0.478407	-2.447360	1
H	-1.270987	-1.927767	-1.783380	1
H	-0.464967	1.341553	0.691330	1
H	-0.451167	1.550413	-1.047150	1
H	1.811633	1.652603	-0.178390	1
H	1.650573	0.282093	-1.256970	1
H	2.993643	-0.321067	0.694100	1
H	1.517893	-1.278297	0.686730	1
H	2.004323	1.147063	2.275790	1
H	2.043043	-0.383857	2.832470	1
Es	-0.993617	-0.446329	-0.403090	99
Es	-1.059089	-1.593143	-1.735863	99
Es	-0.579687	0.198146	-0.330798	99
Es	-2.492324	-0.149645	-0.325147	99
Es	1.665590	1.347654	-0.198236	99
Es	-2.890561	-0.785334	-0.391138	99
Es	-0.351506	-1.184769	-1.706780	99
Es	-1.760352	-0.286979	-0.361437	99
Es	-0.369322	1.325413	-0.806619	99
Es	-0.837972	-0.814311	-1.138069	99
Es	-0.824590	-0.923981	0.150846	99
Es	1.554126	0.404122	-0.939530	99
Es	-0.863458	-0.714452	-2.136336	99
Es	-0.688908	-1.097776	-1.679198	99
Es	1.904815	-0.261320	0.806310	99
Es	1.612779	0.201629	0.273900	99
Es	0.580251	0.740224	-0.254402	99
Es	1.253584	0.236538	2.204273	99
Es	2.661053	-0.301793	0.720349	99
Es	-0.179976	0.849056	-0.246827	99
Es	1.883570	-0.145654	2.555018	99
Es	-2.702795	0.320072	-0.874378	99
Es	1.344092	0.664178	-0.275285	99
Es	1.862061	0.779627	2.216208	99
Es	-2.663714	0.164387	0.331970	99
Es	1.636840	-0.958000	0.728591	99
Es	-0.377321	1.181158	0.390143	99
Es	1.746904	0.017775	1.572954	99
Es	1.595860	0.222765	2.147314	99
50
Properties=species:S:1:pos:R:3:Z:I:1 energy=-306.4928949722111 field_type=dipole dipole="0.000000 0.000000 0.000000" charge=0
C	-2.492307	-0.149647	-0.325150	6
C	-0.993617	-0.446307	-0.402950	6
N	-0.688357	-1.097917	-1.679231	7
C	-0.179997	0.849083	-0.246810	6
C	1.344113	0.664183	-0.275320	6
C	1.904853	-0.261397	0.806190	6
N	1.595284	0.222783	2.147400	7
H	-2.744427	0.309343	0.636740	1
H	-3.079867	-1.069747	-0.416560	1
H	-2.809637	0.535283	-1.118981	1
H	-0.745707	-1.139987	0.407510	1
H	-0.944327	-0.478407	-2.447360	1
H	-1.270987	-1.927767	-1.783380	1
H	-0.464967	1.341553	0.691330	1
H	-0.451167	1.550413	-1.047150	1
H	1.811633	1.652603	-0.178390	1
H	1.650573	0.282093	-1.256970	1
H	2.993643	-0.321067	0.694100	1
H	1.517893	-1.278297	0.686730	1
H	2.004323	1.147063	2.275790	1
H	2.043043	-0.383857	2.832470	1
Es	-0.377278	1.181020	0.390062	99
Es	-0.369326	1.325581	-0.806605	99
Es	1.595837	0.222765	2.147309	99
Es	-1.760231	-0.286930	-0.361330	99
Es	-0.863492	-0.714244	-2.136383	99
Es	1.746332	0.017559	1.572680	99
Es	0.580212	0.740143	-0.254395	99
Es	-0.579749	0.198217	-0.330876	99
Es	-0.351561	-1.184657	-1.706646	99
Es	1.883463	-0.145616	2.554784	99
Es	-2.663729	0.164354	0.331798	99
Es	-0.824619	-0.923924	0.150913	99
Es	-0.993616	-0.446328	-0.403091	99
Es	1.861752	0.780304	2.216434	99
Es	-0.688970	-1.097766	-1.679199	99
Es	1.344091	0.664179	-0.275284	99
Es	-2.492323	-0.149645	-0.325148	99
Es	1.612862	0.201733	0.273771	99
Es	1.554179	0.404153	-0.939463	99
Es	1.904810	-0.261322	0.806311	99
Es	-1.058995	-1.593276	-1.735834	99
Es	1.636752	-0.957957	0.728626	99
Es	-2.702843	0.320104	-0.874448	99
Es	2.660884	-0.302009	0.720363	99
Es	-2.890578	-0.785338	-0.391016	99
Es	-0.179976	0.849054	-0.246827	99
Es	1.665643	1.347624	-0.198209	99
Es	1.254749	0.236087	2.204614	99
Es	-0.837948	-0.814610	-1.138163	99
50
Properties=species:S:1:pos:R:3:Z:I:1 energy=-306.4928949722111 field_type=dipole dipole="0.000000 0.000000 0.000000" charge=0
C	-2.492307	-0.149647	-0.325150	6
C	-0.993617	-0.446307	-0.402950	6
N	-0.688357	-1.097917	-1.679231	7
C	-0.179997	0.849083	-0.246810	6
C	1.344113	0.664183	-0.275320	6
C	1.904853	-0.261397	0.806190	6
N	1.595284	0.222783	2.147400	7
H	-2.744427	0.309343	0.636740	1
H	-3.079867	-1.069747	-0.416560	1
H	-2.809637	0.535283	-1.118981	1
H	-0.745707	-1.139987	0.407510	1
H	-0.944327	-0.478407	-2.447360	1
H	-1.270987	-1.927767	-1.783380	1
H	-0.464967	1.341553	0.691330	1
H	-0.451167	1.550413	-1.047150	1
H	1.811633	1.652603	-0.178390	1
H	1.650573	0.282093	-1.256970	1
H	2.993643	-0.321067	0.694100	1
H	1.517893	-1.278297	0.686730	1
H	2.004323	1.147063	2.275790	1
H	2.043043	-0.383857	2.832470	1
Es	1.254428	0.236062	2.204792	99
Es	-1.058744	-1.593495	-1.735882	99
Es	1.884087	-0.145788	2.554677	99
Es	-0.824660	-0.924052	0.150879	99
Es	1.554018	0.404201	-0.939375	99
Es	-1.760266	-0.286959	-0.361429	99
Es	0.580227	0.740134	-0.254294	99
Es	-2.492324	-0.149645	-0.325147	99
Es	-0.377341	1.181095	0.390045	99
Es	-0.688809	-1.097800	-1.679196	99
Es	1.612852	0.201555	0.273827	99
Es	1.904809	-0.261321	0.806312	99
Es	-2.663584	0.164350	0.331861	99
Es	-0.369226	1.325532	-0.806752	99
Es	-2.890590	-0.785436	-0.391023	99
Es	-0.863795	-0.714350	-2.136237	99
Es	1.665623	1.347765	-0.198305	99
Es	2.660926	-0.301937	0.720348	99
Es	-0.351973	-1.184347	-1.707087	99
Es	-0.837672	-0.814442	-1.137877	99
Es	1.595870	0.222765	2.147310	99
Es	-2.702834	0.320165	-0.874418	99
Es	-0.179975	0.849054	-0.246828	99
Es	-0.579702	0.198217	-0.330750	99
Es	1.636782	-0.957990	0.728661	99
Es	1.746009	0.017870	1.572868	99
Es	-0.993617	-0.446328	-0.403091	99
Es	1.861721	0.780206	2.216140	99
Es	1.344091	0.664178	-0.275284	99
50
Properties=species:S:1:pos:R:3:Z:I:1 energy=-306.4928949722111 field_type=dipole dipole="0.000000 0.000000 0.000000" charge=0
C	-2.492307	-0.149647	-0.325150	6
C	-0.993617	-0.446307	-0.402950	6
N	-0.688357	-1.097917	-1.679231	7
C	-0.179997	0.849083	-0.246810	6
C	1.344113	0.664183	-0.275320	6
C	1.904853	-0.261397	0.806190	6
N	1.595284	0.222783	2.147400	7
H	-2.744427	0.309343	0.636740	1
H	-3.079867	-1.069747	-0.416560	1
H	-2.809637	0.535283	-1.118981	1
H	-0.745707	-1.139987	0.407510	1
H	-0.944327	-0.478407	-2.447360	1
H	-1.270987	-1.927767	-1.783380	1
H	-0.464967	1.341553	0.691330	1
H	-0.451167	1.550413	-1.047150	1
H	1.811633	1.652603	-0.178390	1
H	1.650573	0.282093	-1.256970	1
H	2.993643	-0.321067	0.694100	1
H	1.517893	-1.278297	0.686730	1
H	2.004323	1.147063	2.275790	1
H	2.043043	-0.383857	2.832470	1
Es	-0.993616	-0.446329	-0.403091	99
Es	-0.179976	0.849055	-0.246827	99
Es	1.861738	0.780216	2.216096	99
Es	-0.688910	-1.097779	-1.679200	99
Es	-1.760287	-0.286949	-0.361410	99
Es	1.344092	0.664178	-0.275284	99
Es	1.636828	-0.958003	0.728650	99
Es	1.746005	0.017650	1.572825	99
Es	2.660857	-0.301942	0.720371	99
Es	-2.663555	0.164295	0.331860	99
Es	-2.702809	0.320244	-0.874444	99
Es	1.904809	-0.261321	0.806311	99
Es	1.595873	0.222766	2.147316	99
Es	-0.369192	1.325634	-0.806661	99
Es	-0.352120	-1.184392	-1.707045	99
Es	-2.890571	-0.785477	-0.391035	99
Es	1.884092	-0.145645	2.554667	99
Es	1.554037	0.404209	-0.939373	99
Es	-0.377262	1.181044	0.389970	99
Es	-0.863794	-0.713998	-2.136283	99
Es	-2.492324	-0.149645	-0.325148	99
Es	1.612761	0.201596	0.273839	99
Es	-0.824718	-0.923986	0.150923	99
Es	-0.579756	0.198157	-0.330838	99
Es	-0.837481	-0.814867	-1.137813	99
Es	1.665606	1.347810	-0.198265	99
Es	-1.058708	-1.593508	-1.735907	99
Es	0.580268	0.740185	-0.254353	99
Es	1.254447	0.236058	2.204895	99
50
Properties=species:S:1:pos:R:3:Z:I:1 energy=-306.4928949722111 field_type=dipole dipole="0.000000 0.000000 0.000000" charge=0
C	-2.492307	-0.149647	-0.325150	6
C	-0.993617	-0.446307	-0.402950	6
N	-0.688357	-1.097917	-1.679231	7
C	-0.179997	0.849083	-0.246810	6
C	1.344113	0.664183	-0.275320	6
C	1.904853	-0.261397	0.806190	6
N	1.595284	0.222783	2.147400	7
H	-2.744427	0.309343	0.636740	1
H	-3.079867	-1.069747	-0.416560	1
H	-2.809637	0.535283	-1.118981	1
H	-0.745707	-1.139987	0.407510	1
H	-0.944327	-0.478407	-2.447360	1
H	-1.270987	-1.927767	-1.783380	1
H	-0.464967	1.341553	0.691330	1
H	-0.451167	1.550413	-1.047150	1
H	1.811633	1.652603	-0.178390	1
H	1.650573	0.282093	-1.256970	1
H	2.993643	-0.321067	0.694100	1
H	1.517893	-1.278297	0.686730	1
H	2.004323	1.147063	2.275790	1
H	2.043043	-0.383857	2.832470	1
Es	-2.663577	0.164306	0.331856	99
Es	1.554024	0.404175	-0.939351	99
Es	-1.058560	-1.594037	-1.735702	99
Es	2.660832	-0.301956	0.720354	99
Es	1.612819	0.201660	0.273848	99
Es	-0.863944	-0.714189	-2.136209	99
Es	-0.837278	-0.814595	-1.137985	99
Es	1.665574	1.347837	-0.198327	99
Es	-0.377091	1.180856	0.389919	99
Es	0.580348	0.740027	-0.254421	99
Es	1.745975	0.017772	1.572596	99
Es	-0.179976	0.849055	-0.246827	99
Es	1.861255	0.780376	2.216210	99
Es	-2.702826	0.320213	-0.874438	99
Es	-0.579798	0.198255	-0.330693	99
Es	1.344092	0.664178	-0.275283	99
Es	-0.824674	-0.924025	0.150857	99
Es	-0.688954	-1.097778	-1.679197	99
Es	-0.993617	-0.446327	-0.403092	99
Es	-2.890549	-0.785504	-0.391040	99
Es	-0.352310	-1.183888	-1.707170	99
Es	1.255009	0.235888	2.204808	99
Es	-0.369397	1.325816	-0.806631	99
Es	1.595861	0.222764	2.147312	99
Es	1.904810	-0.261322	0.806311	99
Es	1.636792	-0.958032	0.728692	99
Es	-1.760298	-0.286908	-0.361354	99
Es	-2.492324	-0.149645	-0.325147	99
Es	1.884113	-0.145717	2.554852	99
50
Properties=species:S:1:pos:R:3:Z:I:1 energy=-306.4928949722111 field_type=dipole dipole="0.000000 0.000000 0.000000" charge=0
C	-2.492307	-0.149647	-0.325150	6
C	-0.993617	-0.446307	-0.402950	6
N	-0.688357	-1.097917	-1.679231	7
C	-0.179997	0.849083	-0.246810	6
C	1.344113	0.664183	-0.275320	6
C	1.904853	-0.261397	0.806190	6
N	1.595284	0.222783	2.147400	7
H	-2.744427	0.309343	0.636740	1
H	-3.079867	-1.069747	-0.416560	1
H	-2.809637	0.535283	-1.118981	1
H	-0.745707	-1.139987	0.407510	1
H	-0.944327	-0.478407	-2.447360	1
H	-1.270987	-1.927767	-1.783380	1
H	-0.464967	1.341553	0.691330	1
H	-0.451167	1.550413	-1.047150	1
H	1.811633	1.652603	-0.178390	1
H	1.650573	0.282093	-1.256970	1
H	2.993643	-0.321067	0.694100	1
H	1.517893	-1.278297	0.686730	1
H	2.004323	1.147063	2.275790	1
H	2.043043	-0.383857	2.832470	1
Es	1.745694	0.017700	1.572646	99
Es	-0.688938	-1.097770	-1.679194	99
Es	-2.702843	0.320328	-0.874401	99
Es	0.580245	0.740180	-0.254272	99
Es	1.612761	0.201596	0.273758	99
Es	2.660840	-0.301937	0.720384	99
Es	1.595874	0.222774	2.147316	99
Es	1.344092	0.664178	-0.275285	99
Es	1.665618	1.347811	-0.198278	99
Es	1.255488	0.236351	2.204455	99
Es	1.861616	0.780361	2.216124	99
Es	-2.492323	-0.149646	-0.325147	99
Es	-0.179975	0.849055	-0.246827	99
Es	-0.369237	1.325709	-0.806667	99
Es	-0.824796	-0.924010	0.150878	99
Es	1.904810	-0.261322	0.806310	99
Es	-2.890629	-0.785410	-0.391041	99
Es	-0.352686	-1.184249	-1.707346	99
Es	-0.836934	-0.814731	-1.137623	99
Es	-1.760080	-0.287083	-0.361366	99
Es	-0.579751	0.198252	-0.330725	99
Es	-2.663588	0.164192	0.331760	99
Es	-0.993617	-0.446328	-0.403091	99
Es	-0.377279	1.180953	0.389813	99
Es	1.554072	0.404246	-0.939288	99
Es	1.636844	-0.958038	0.728750	99
Es	1.883526	-0.146106	2.555196	99
Es	-1.058657	-1.593747	-1.735774	99
Es	-0.863814	-0.714050	-2.136319	99
50
Properties=species:S:1:pos:R:3:Z:I:1 energy=-306.4928949722111 field_type=dipole dipole="0.000000 0.000000 0.000000" charge=0
C	-2.492307	-0.149647	-0.325150	6
C	-0.993617	-0.446307	-0.402950	6
N	-0.688357	-1.097917	-1.679231	7
C	-0.179997	0.849083	-0.246810	6
C	1.344113	0.664183	-0.275320	6
C	1.904853	-0.261397	0.806190	6
N	1.595284	0.222783	2.147400	7
H	-2.744427	0.309343	0.636740	1
H	-3.079867	-1.069747	-0.416560	1
H	-2.809637	0.535283	-1.118981	1
H	-0.745707	-1.139987	0.407510	1
H	-0.944327	-0.478407	-2.447360	1
H	-1.270987	-1.927767	-1.783380	1
H	-0.464967	1.341553	0.691330	1
H	-0.451167	1.550413	-1.047150	1
H	1.811633	1.652603	-0.178390	1
H	1.650573	0.282093	-1.256970	1
H	2.993643	-0.321067	0.694100	1
H	1.517893	-1.278297	0.686730	1
H	2.004323	1.147063	2.275790	1
H	2.043043	-0.383857	2.832470	1
Es	1.883687	-0.146038	2.555231	99
Es	-0.837087	-0.814661	-1.137664	99
Es	1.553959	0.404240	-0.939159	99
Es	1.745884	0.017777	1.572817	99
Es	-2.890571	-0.785528	-0.390967	99
Es	1.344092	0.664179	-0.275282	99
Es	-1.058661	-1.593864	-1.735886	99
Es	1.665661	1.347941	-0.198370	99
Es	1.636874	-0.958111	0.728678	99
Es	-2.492324	-0.149645	-0.325147	99
Es	-0.369220	1.325789	-0.806710	99
Es	-2.663513	0.164241	0.331766	99
Es	-0.579788	0.198184	-0.330697	99
Es	1.595862	0.222765	2.147300	99
Es	2.660674	-0.301934	0.720406	99
Es	1.612851	0.201536	0.273772	99
Es	-0.824748	-0.924015	0.150883	99
Es	-1.760280	-0.286968	-0.361303	99
Es	1.255339	0.236214	2.204410	99
Es	-0.377186	1.180926	0.389787	99
Es	-0.179975	0.849055	-0.246827	99
Es	-0.993617	-0.446327	-0.403091	99
Es	-0.688926	-1.097774	-1.679189	99
Es	0.580281	0.740091	-0.254339	99
Es	1.861444	0.780398	2.216058	99
Es	-0.863942	-0.714173	-2.136059	99
Es	-2.702812	0.320339	-0.874521	99
Es	1.904811	-0.261323	0.806310	99
Es	-0.352435	-1.184057	-1.707461	99
50
Properties=species:S:1:pos:R:3:Z:I:1 energy=-306.4928949722111 field_type=dipole dipole="0.000000 0.000000 0.000000" charge=0
C	-2.492307	-0.149647	-0.325150	6
C	-0.993617	-0.446307	-0.402950	6
N	-0.688357	-1.097917	-1.679231	7
C	-0.179997	0.849083	-0.246810	6
C	1.344113	0.664183	-0.275320	6
C	1.904853	-0.261397	0.806190	6
N	1.595284	0.222783	2.147400	7
H	-2.744427	0.309343	0.636740	1
H	-3.079867	-1.069747	-0.416560	1
H	-2.809637	0.535283	-1.118981	1
H	-0.745707	-1.139987	0.407510	1
H	-0.944327	-0.478407	-2.447360	1
H	-1.270987	-1.927767	-1.783380	1
H	-0.464967	1.341553	0.691330	1
H	-0.451167	1.550413	-1.047150	1
H	1.811633	1.652603	-0.178390	1
H	1.650573	0.282093	-1.256970	1
H	2.993643	-0.321067	0.694100	1
H	1.517893	-1.278297	0.686730	1
H	2.004323	1.147063	2.275790	1
H	2.043043	-0.383857	2.832470	1
Es	-0.836645	-0.814854	-1.137520	99
Es	-0.377205	1.180911	0.389876	99
Es	-2.702783	0.320353	-0.874437	99
Es	-2.492324	-0.149645	-0.325148	99
Es	-0.352585	-1.184117	-1.707682	99
Es	1.636855	-0.958158	0.728733	99
Es	-0.179976	0.849054	-0.246827	99
Es	-0.824647	-0.923984	0.150857	99
Es	1.883626	-0.146135	2.555127	99
Es	1.595896	0.222770	2.147309	99
Es	-1.760435	-0.286896	-0.361320	99
Es	1.904811	-0.261322	0.806311	99
Es	-1.058647	-1.593813	-1.735795	99
Es	-0.688920	-1.097769	-1.679202	99
Es	1.665680	1.347978	-0.198373	99
Es	2.660675	-0.301923	0.720443	99
Es	-2.663479	0.164244	0.331756	99
Es	0.580316	0.740119	-0.254395	99
Es	-0.369236	1.325778	-0.806656	99
Es	1.745121	0.017562	1.572475	99
Es	1.612817	0.201570	0.273753	99
Es	-0.579747	0.198081	-0.330801	99
Es	1.861861	0.780282	2.215962	99
Es	1.255760	0.236589	2.204851	99
Es	-0.993615	-0.446329	-0.403093	99
Es	-0.864206	-0.713950	-2.136021	99
Es	-2.890632	-0.785575	-0.391007	99
Es	1.553904	0.404255	-0.939148	99
Es	1.344092	0.664178	-0.275285	99
50
Properties=species:S:1:pos:R:3:Z:I:1 energy=-306.4928949722111 field_type=dipole dipole="0.000000 0.000000 0.000000" charge=0
C	-2.492307	-0.149647	-0.325150	6
C	-0.993617	-0.446307	-0.402950	6
N	-0.688357	-1.097917	-1.679231	7
C	-0.179997	0.849083	-0.246810	6
C	1.344113	0.664183	-0.275320	6
C	1.904853	-0.261397	0.806190	6
N	1.595284	0.222783	2.147400	7
H	-2.744427	0.309343	0.636740	1
H	-3.079867	-1.069747	-0.416560	1
H	-2.809637	0.535283	-1.118981	1
H	-0.745707	-1.139987	0.407510	1
H	-0.944327	-0.478407	-2.447360	1
H	-1.270987	-1.927767	-1.783380	1
H	-0.464967	1.341553	0.691330	1
H	-0.451167	1.550413	-1.047150	1
H	1.811633	1.652603	-0.178390	1
H	1.650573	0.282093	-1.256970	1
H	2.993643	-0.321067	0.694100	1
H	1.517893	-1.278297	0.686730	1
H	2.004323	1.147063	2.275790	1
H	2.043043	-0.383857	2.832470	1
Es	1.744642	0.017580	1.572166	99
Es	-0.579648	0.198053	-0.330727	99
Es	0.580258	0.740230	-0.254271	99
Es	1.861569	0.780403	2.216016	99
Es	-0.179975	0.849056	-0.246826	99
Es	-0.824766	-0.924114	0.150888	99
Es	-0.993616	-0.446329	-0.403091	99
Es	1.612806	0.201637	0.273781	99
Es	2.660780	-0.301939	0.720472	99
Es	-0.836671	-0.814645	-1.137531	99
Es	1.553949	0.404226	-0.939125	99
Es	1.595860	0.222758	2.147298	99
Es	-2.663467	0.164275	0.331774	99
Es	-2.702741	0.320345	-0.874432	99
Es	-0.352876	-1.184087	-1.707562	99
Es	-0.369255	1.325793	-0.806698	99
Es	1.883982	-0.146119	2.554951	99
Es	1.904810	-0.261323	0.806310	99
Es	-2.890650	-0.785596	-0.391028	99
Es	-1.058629	-1.593917	-1.735712	99
Es	-0.863970	-0.714032	-2.136217	99
Es	-0.688926	-1.097776	-1.679197	99
Es	1.256172	0.236407	2.205239	99
Es	1.665719	1.347901	-0.198406	99
Es	-0.377256	1.180875	0.389750	99
Es	1.344092	0.664179	-0.275285	99
Es	-2.492323	-0.149645	-0.325147	99
Es	-1.760349	-0.286826	-0.361380	99
Es	1.636814	-0.958111	0.728736	99
50
Properties=species:S:1:pos:R:3:Z:I:1 energy=-306.4928949722111 field_type=dipole dipole="0.000000 0.000000 0.000000" charge=0
C	-2.492307	-0.149647	-0.325150	6
C	-0.993617	-0.446307	-0.402950	6
N	-0.688357	-1.097917	-1.679231	7
C	-0.179997	0.849083	-0.246810	6
C	1.344113	0.664183	-0.275320	6
C	1.904853	-0.261397	0.806190	6
N	1.595284	0.222783	2.147400	7
H	-2.744427	0.309343	0.636740	1
H	-3.079867	-1.069747	-0.416560	1
H	-2.809637	0.535283	-1.118981	1
H	-0.745707	-1.139987	0.407510	1
H	-0.944327	-0.478407	-2.447360	1
H	-1.270987	-1.927767	-1.783380	1
H	-0.464967	1.341553	0.691330	1
H	-0.451167	1.550413	-1.047150	1
H	1.811633	1.652603	-0.178390	1
H	1.650573	0.282093	-1.256970	1
H	2.993643	-0.321067	0.694100	1
H	1.517893	-1.278297	0.686730	1
H	2.004323	1.147063	2.275790	1
H	2.043043	-0.383857	2.832470	1
Es	-0.864618	-0.714132	-2.135914	99
Es	1.636827	-0.958180	0.728774	99
Es	-1.760293	-0.286860	-0.361379	99
Es	-0.179976	0.849055	-0.246828	99
Es	0.580354	0.740096	-0.254332	99
Es	-2.702810	0.320394	-0.874437	99
Es	-0.352965	-1.183613	-1.708142	99
Es	-0.579784	0.198099	-0.330892	99
Es	1.595879	0.222760	2.147318	99
Es	1.612833	0.201607	0.273662	99
Es	-0.369243	1.325827	-0.806600	99
Es	-0.377267	1.180834	0.389797	99
Es	-2.492324	-0.149646	-0.325147	99
Es	-2.890621	-0.785547	-0.391015	99
Es	1.883311	-0.146271	2.555231	99
Es	-1.058242	-1.594221	-1.735715	99
Es	-0.993617	-0.446328	-0.403091	99
Es	1.344092	0.664178	-0.275284	99
Es	-0.688939	-1.097779	-1.679205	99
Es	1.665670	1.347976	-0.198291	99
Es	1.553952	0.404330	-0.939140	99
Es	2.660666	-0.301947	0.720482	99
Es	1.861877	0.780380	2.216078	99
Es	1.904807	-0.261323	0.806311	99
Es	1.745151	0.017519	1.572379	99
Es	1.256083	0.236663	2.204657	99
Es	-2.663509	0.164181	0.331723	99
Es	-0.824695	-0.924108	0.150957	99
Es	-0.836267	-0.814687	-1.137211	99
50
Properties=species:S:1:pos:R:3:Z:I:1 energy=-306.4928949722111 field_type=dipole dipole="0.000000 0.000000 0.000000" charge=0
C	-2.492307	-0.149647	-0.325150	6
C	-0.993617	-0.446307	-0.402950	6
N	-0.688357	-1.097917	-1.679231	7
C	-0.179997	0.849083	-0.246810	6
C	1.344113	0.664183	-0.275320	6
C	1.904853	-0.261397	0.806190	6
N	1.595284	0.222783	2.147400	7
H	-2.744427	0.309343	0.636740	1
H	-3.079867	-1.069747	-0.416560	1
H	-2.809637	0.535283	-1.118981	1
H	-0.745707	-1.139987	0.407510	1
H	-0.944327	-0.478407	-2.447360	1
H	-1.270987	-1.927767	-1.783380	1
H	-0.464967	1.341553	0.691330	1
H	-0.451167	1.550413	-1.047150	1
H	1.811633	1.652603	-0.178390	1
H	1.650573	0.282093	-1.256970	1
H	2.993643	-0.321067	0.694100	1
H	1.517893	-1.278297	0.686730	1
H	2.004323	1.147063	2.275790	1
H	2.043043	-0.383857	2.832470	1
Es	-1.760188	-0.286842	-0.361419	99
Es	1.861339	0.780519	2.216294	99
Es	-0.579723	0.198053	-0.330811	99
Es	1.344092	0.664178	-0.275284	99
Es	-2.702839	0.320313	-0.874339	99
Es	-2.492322	-0.149646	-0.325148	99
Es	1.884381	-0.146242	2.554533	99
Es	0.580146	0.740097	-0.254413	99
Es	1.553927	0.404334	-0.939006	99
Es	-2.890756	-0.785602	-0.390933	99
Es	1.744616	0.017893	1.572162	99
Es	-0.863751	-0.713972	-2.136306	99
Es	-0.993618	-0.446329	-0.403092	99
Es	1.612785	0.201587	0.273682	99
Es	2.660700	-0.301945	0.720480	99
Es	1.256044	0.236032	2.205411	99
Es	-0.688932	-1.097773	-1.679203	99
Es	-0.377197	1.180878	0.389866	99
Es	-2.663448	0.164281	0.331600	99
Es	-0.836251	-0.814631	-1.137291	99
Es	1.904809	-0.261322	0.806310	99
Es	1.595884	0.222762	2.147310	99
Es	1.636913	-0.958100	0.728753	99
Es	-0.179975	0.849055	-0.246827	99
Es	-0.369205	1.325830	-0.806710	99
Es	-0.353572	-1.183920	-1.707625	99
Es	-0.824711	-0.924057	0.150937	99
Es	-1.058513	-1.594180	-1.735783	99
Es	1.665700	1.348003	-0.198401	99
50
Properties=species:S:1:pos:R:3:Z:I:1 energy=-306.4928949722111 field_type=dipole dipole="0.000000 0.000000 0.000000" charge=0
C	-2.492307	-0.149647	-0.325150	6
C	-0.993617	-0.446307	-0.402950	6
N	-0.688357	-1.097917	-1.679231	7
C	-0.179997	0.849083	-0.246810	6
C	1.344113	0.664183	-0.275320	6
C	1.904853	-0.261397	0.806190	6
N	1.595284	0.222783	2.147400	7
H	-2.744427	0.309343	0.636740	1
H	-3.079867	-1.069747	-0.416560	1
H	-2.809637	0.535283	-1.118981	1
H	-0.745707	-1.139987	0.407510	1
H	-0.944327	-0.478407	-2.447360	1
H	-1.270987	-1.927767	-1.783380	1
H	-0.464967	1.341553	0.691330	1
H	-0.451167	1.550413	-1.047150	1
H	1.811633	1.652603	-0.178390	1
H	1.650573	0.282093	-1.256970	1
H	2.993643	-0.321067	0.694100	1
H	1.517893	-1.278297	0.686730	1
H	2.004323	1.147063	2.275790	1
H	2.043043	-0.383857	2.832470	1
Es	-0.369183	1.325921	-0.806678	99
Es	1.595874	0.222774	2.147323	99
Es	1.904810	-0.261323	0.806310	99
Es	1.744876	0.017703	1.572383	99
Es	-2.702835	0.320397	-0.874429	99
Es	1.665677	1.347942	-0.198392	99
Es	-0.353373	-1.183875	-1.707708	99
Es	1.884298	-0.146012	2.554830	99
Es	1.612728	0.201546	0.273757	99
Es	-0.377240	1.180790	0.389706	99
Es	1.256097	0.235853	2.205136	99
Es	-0.993617	-0.446327	-0.403091	99
Es	-2.663473	0.164189	0.331690	99
Es	-2.890615	-0.785617	-0.390984	99
Es	2.660737	-0.301954	0.720417	99
Es	1.636899	-0.958061	0.728760	99
Es	-2.492324	-0.149645	-0.325147	99
Es	-0.863967	-0.713974	-2.136244	99
Es	-0.688973	-1.097761	-1.679190	99
Es	-1.760182	-0.286837	-0.361414	99
Es	-0.579702	0.198124	-0.330755	99
Es	-0.836260	-0.814642	-1.137396	99
Es	-1.058493	-1.594208	-1.735666	99
Es	-0.824861	-0.924150	0.150901	99
Es	1.861109	0.780718	2.216080	99
Es	-0.179975	0.849056	-0.246827	99
Es	0.580228	0.740163	-0.254281	99
Es	1.553981	0.404287	-0.939063	99
Es	1.344092	0.664179	-0.275285	99
50
Properties=species:S:1:pos:R:3:Z:I:1 energy=-306.4928949722111 field_type=dipole dipole="0.000000 0.000000 0.000000" charge=0
C	-2.492307	-0.149647	-0.325150	6
C	-0.993617	-0.446307	-0.402950	6
N	-0.688357	-1.097917	-1.679231	7
C	-0.179997	0.849083	-0.246810	6
C	1.344113	0.664183	-0.275320	6
C	1.904853	-0.261397	0.806190	6
N	1.595284	0.222783	2.147400	7
H	-2.744427	0.309343	0.636740	1
H	-3.079867	-1.069747	-0.416560	1
H	-2.809637	0.535283	-1.118981	1
H	-0.745707	-1.139987	0.407510	1
H	-0.944327	-0.478407	-2.447360	1
H	-1.270987	-1.927767	-1.783380	1
H	-0.464967	1.341553	0.691330	1
H	-0.451167	1.550413	-1.047150	1
H	1.811633	1.652603	-0.178390	1
H	1.650573	0.282093	-1.256970	1
H	2.993643	-0.321067	0.694100	1
H	1.517893	-1.278297	0.686730	1
H	2.004323	1.147063	2.275790	1
H	2.043043	-0.383857	2.832470	1
Es	1.595829	0.222761	2.147305	99
Es	1.884165	-0.146038	2.554894	99
Es	-2.702789	0.320450	-0.874382	99
Es	1.744572	0.017603	1.572160	99
Es	-0.688809	-1.097799	-1.679194	99
Es	1.861176	0.780755	2.216045	99
Es	1.612767	0.201496	0.273586	99
Es	-0.377190	1.180801	0.389677	99
Es	-0.369270	1.325896	-0.806649	99
Es	-2.492324	-0.149645	-0.325148	99
Es	-0.824703	-0.924075	0.150913	99
Es	-2.663432	0.164172	0.331638	99
Es	-0.579802	0.198108	-0.330760	99
Es	1.636927	-0.958136	0.728843	99
Es	1.904809	-0.261321	0.806310	99
Es	-1.760292	-0.286809	-0.361302	99
Es	-2.890684	-0.785675	-0.391001	99
Es	-0.835852	-0.814697	-1.137153	99
Es	-0.179976	0.849055	-0.246827	99
Es	2.660702	-0.301923	0.720475	99
Es	-0.993616	-0.446329	-0.403091	99
Es	1.344092	0.664179	-0.275284	99
Es	1.553910	0.404329	-0.939027	99
Es	1.665716	1.348020	-0.198367	99
Es	1.256521	0.235987	2.205268	99
Es	-0.353633	-1.184064	-1.708092	99
Es	-1.058621	-1.593978	-1.735602	99
Es	-0.864166	-0.713934	-2.136183	99
Es	0.580307	0.740067	-0.254307	99
