46
Properties=species:S:1:pos:R:3:Z:I:1 energy=-272.1444780325312 field_type=dipole dipole="0.000000 0.000000 0.000000" charge=0
C	-1.883952	-0.093581	-1.321992	6
C	-0.360322	-0.106341	-1.292982	6
C	0.206048	-1.364151	-0.618842	6
C	0.529738	-0.966801	0.822548	6
C	0.670068	0.520329	0.729668	6
C	1.254138	1.309209	1.845348	6
C	0.184408	0.989609	-0.427352	6
H	-2.262662	-0.917681	-1.935712	1
H	-2.258092	0.843419	-1.748492	1
H	-2.311622	-0.199491	-0.318482	1
H	0.028188	-0.021001	-2.313882	1
H	1.134278	-1.660401	-1.126542	1
H	-0.470792	-2.223921	-0.665262	1
H	1.449718	-1.451471	1.162648	1
H	-0.287022	-1.230941	1.502318	1
H	1.277088	2.379109	1.613098	1
H	2.280638	0.985779	2.044128	1
H	0.664068	1.174139	2.757118	1
H	0.156088	2.034189	-0.707332	1
Es	-2.137184	0.549149	-1.613389	99
Es	1.254126	1.309188	1.845331	99
Es	0.963148	0.918030	1.291114	99
Es	0.134880	0.805280	0.277705	99
Es	0.184370	0.989645	-0.427462	99
Es	1.945925	1.082352	1.974949	99
Es	-2.169626	-0.168011	-0.634020	99
Es	-0.098453	-0.045651	-1.995724	99
Es	0.844750	-1.563971	-0.965410	99
Es	-0.027414	-1.137739	1.288668	99
Es	0.670124	0.520280	0.729808	99
Es	0.159715	1.702459	-0.625526	99
Es	0.206050	-1.364132	-0.618820	99
Es	0.851534	1.209635	2.457187	99
Es	-1.127646	-0.096423	-1.299356	99
Es	-0.093160	0.470948	-0.884458	99
Es	0.730775	0.745896	0.003724	99
Es	-0.263666	-1.953286	-0.652464	99
Es	1.158534	-1.293499	1.060425	99
Es	0.620167	-0.223217	0.807405	99
Es	1.268178	2.035714	1.685183	99
Es	0.361167	-1.186485	0.113645	99
Es	0.529733	-0.966784	0.822530	99
Es	-1.883942	-0.093578	-1.321996	99
Es	-2.140308	-0.658881	-1.742744	99
Es	-0.092966	-0.750555	-0.964996	99
Es	-0.360346	-0.106338	-1.292950	99
46
Properties=species:S:1:pos:R:3:Z:I:1 energy=-272.1444780325312 field_type=dipole dipole="0.000000 0.000000 0.000000" charge=0
C	-1.883952	-0.093581	-1.321992	6
C	-0.360322	-0.106341	-1.292982	6
C	0.206048	-1.364151	-0.618842	6
C	0.529738	-0.966801	0.822548	6
C	0.670068	0.520329	0.729668	6
C	1.254138	1.309209	1.845348	6
C	0.184408	0.989609	-0.427352	6
H	-2.262662	-0.917681	-1.935712	1
H	-2.258092	0.843419	-1.748492	1
H	-2.311622	-0.199491	-0.318482	1
H	0.028188	-0.021001	-2.313882	1
H	1.134278	-1.660401	-1.126542	1
H	-0.470792	-2.223921	-0.665262	1
H	1.449718	-1.451471	1.162648	1
H	-0.287022	-1.230941	1.502318	1
H	1.277088	2.379109	1.613098	1
H	2.280638	0.985779	2.044128	1
H	0.664068	1.174139	2.757118	1
H	0.156088	2.034189	-0.707332	1
Es	-0.093323	-0.750589	-0.965775	99
Es	-2.138697	-0.657931	-1.741797	99
Es	0.159877	1.702414	-0.626183	99
Es	-2.169838	-0.169130	-0.632950	99
Es	-0.261854	-1.952647	-0.653043	99
Es	-0.026834	-1.136402	1.288034	99
Es	1.268181	2.035461	1.685171	99
Es	1.159157	-1.293712	1.061793	99
Es	1.945818	1.082612	1.974818	99
Es	-2.137526	0.549928	-1.614993	99
Es	0.963067	0.917448	1.291261	99
Es	0.529733	-0.966784	0.822531	99
Es	1.254127	1.309189	1.845330	99
Es	0.619356	-0.223935	0.807876	99
Es	0.361471	-1.187012	0.114528	99
Es	-0.094162	0.470371	-0.884673	99
Es	-0.360346	-0.106338	-1.292951	99
Es	-1.127519	-0.096242	-1.299274	99
Es	-0.098461	-0.044717	-1.996939	99
Es	0.670125	0.520281	0.729811	99
Es	-1.883943	-0.093579	-1.321996	99
Es	0.851673	1.209671	2.457509	99
Es	0.206051	-1.364134	-0.618819	99
Es	0.842530	-1.564445	-0.964681	99
Es	0.134046	0.805424	0.278401	99
Es	0.184363	0.989648	-0.427465	99
Es	0.731388	0.745172	0.002832	99
46
Properties=species:S:1:pos:R:3:Z:I:1 energy=-272.1444780325312 field_type=dipole dipole="0.000000 0.000000 0.000000" charge=0
C	-1.883952	-0.093581	-1.321992	6
C	-0.360322	-0.106341	-1.292982	6
C	0.206048	-1.364151	-0.618842	6
C	0.529738	-0.966801	0.822548	6
C	0.670068	0.520329	0.729668	6
C	1.254138	1.309209	1.845348	6
C	0.184408	0.989609	-0.427352	6
H	-2.262662	-0.917681	-1.935712	1
H	-2.258092	0.843419	-1.748492	1
H	-2.311622	-0.199491	-0.318482	1
H	0.028188	-0.021001	-2.313882	1
H	1.134278	-1.660401	-1.126542	1
H	-0.470792	-2.223921	-0.665262	1
H	1.449718	-1.451471	1.162648	1
H	-0.287022	-1.230941	1.502318	1
H	1.277088	2.379109	1.613098	1
H	2.280638	0.985779	2.044128	1
H	0.664068	1.174139	2.757118	1
H	0.156088	2.034189	-0.707332	1
Es	0.361664	-1.187437	0.114877	99
Es	1.268311	2.035307	1.685263	99
Es	0.670127	0.520279	0.729810	99
Es	0.133021	0.805353	0.278685	99
Es	-0.360347	-0.106338	-1.292950	99
Es	-0.093533	-0.750428	-0.966339	99
Es	1.159769	-1.293637	1.062642	99
Es	0.206052	-1.364135	-0.618819	99
Es	1.945664	1.082722	1.974888	99
Es	-0.094825	0.469822	-0.884935	99
Es	0.963384	0.917001	1.291216	99
Es	-0.026162	-1.135508	1.287697	99
Es	0.840498	-1.564605	-0.963905	99
Es	0.160111	1.702441	-0.626816	99
Es	1.254127	1.309188	1.845331	99
Es	0.184360	0.989647	-0.427457	99
Es	0.851740	1.209735	2.457603	99
Es	-0.260288	-1.952115	-0.653479	99
Es	-2.169917	-0.169942	-0.632197	99
Es	0.731552	0.744633	0.002612	99
Es	-2.137805	0.550432	-1.616393	99
Es	0.529733	-0.966784	0.822531	99
Es	0.618667	-0.224684	0.808296	99
Es	-1.883943	-0.093578	-1.321995	99
Es	-2.137464	-0.657115	-1.740817	99
Es	-1.127600	-0.096177	-1.299318	99
Es	-0.098430	-0.044054	-1.997670	99
46
Properties=species:S:1:pos:R:3:Z:I:1 energy=-272.1444780325312 field_type=dipole dipole="0.000000 0.000000 0.000000" charge=0
C	-1.883952	-0.093581	-1.321992	6
C	-0.360322	-0.106341	-1.292982	6
C	0.206048	-1.364151	-0.618842	6
C	0.529738	-0.966801	0.822548	6
C	0.670068	0.520329	0.729668	6
C	1.254138	1.309209	1.845348	6
C	0.184408	0.989609	-0.427352	6
H	-2.262662	-0.917681	-1.935712	1
H	-2.258092	0.843419	-1.748492	1
H	-2.311622	-0.199491	-0.318482	1
H	0.028188	-0.021001	-2.313882	1
H	1.134278	-1.660401	-1.126542	1
H	-0.470792	-2.223921	-0.665262	1
H	1.449718	-1.451471	1.162648	1
H	-0.287022	-1.230941	1.502318	1
H	1.277088	2.379109	1.613098	1
H	2.280638	0.985779	2.044128	1
H	0.664068	1.174139	2.757118	1
H	0.156088	2.034189	-0.707332	1
Es	-2.138250	0.550582	-1.617585	99
Es	-2.169887	-0.170596	-0.631589	99
Es	0.851790	1.209986	2.457478	99
Es	-0.095634	0.469331	-0.885279	99
Es	0.132590	0.805606	0.278897	99
Es	0.670123	0.520280	0.729811	99
Es	0.206051	-1.364135	-0.618819	99
Es	0.160413	1.702335	-0.627224	99
Es	1.945722	1.082723	1.975118	99
Es	-0.360345	-0.106338	-1.292950	99
Es	0.731543	0.744259	0.002493	99
Es	1.268421	2.035046	1.685418	99
Es	0.618024	-0.225494	0.808591	99
Es	-1.883942	-0.093577	-1.321993	99
Es	0.362094	-1.187653	0.115191	99
Es	0.963513	0.916646	1.291146	99
Es	1.254127	1.309188	1.845331	99
Es	-1.127293	-0.096065	-1.299158	99
Es	-0.098793	-0.043542	-1.998494	99
Es	-0.025664	-1.134636	1.287052	99
Es	1.160172	-1.293819	1.063620	99
Es	0.529733	-0.966784	0.822531	99
Es	-0.093246	-0.750285	-0.967029	99
Es	-2.136421	-0.656382	-1.739850	99
Es	0.184356	0.989645	-0.427454	99
Es	0.838292	-1.564372	-0.962834	99
Es	-0.259027	-1.951923	-0.654060	99
46
Properties=species:S:1:pos:R:3:Z:I:1 energy=-272.1444780325312 field_type=dipole dipole="0.000000 0.000000 0.000000" charge=0
C	-1.883952	-0.093581	-1.321992	6
C	-0.360322	-0.106341	-1.292982	6
C	0.206048	-1.364151	-0.618842	6
C	0.529738	-0.966801	0.822548	6
C	0.670068	0.520329	0.729668	6
C	1.254138	1.309209	1.845348	6
C	0.184408	0.989609	-0.427352	6
H	-2.262662	-0.917681	-1.935712	1
H	-2.258092	0.843419	-1.748492	1
H	-2.311622	-0.199491	-0.318482	1
H	0.028188	-0.021001	-2.313882	1
H	1.134278	-1.660401	-1.126542	1
H	-0.470792	-2.223921	-0.665262	1
H	1.449718	-1.451471	1.162648	1
H	-0.287022	-1.230941	1.502318	1
H	1.277088	2.379109	1.613098	1
H	2.280638	0.985779	2.044128	1
H	0.664068	1.174139	2.757118	1
H	0.156088	2.034189	-0.707332	1
Es	1.254127	1.309188	1.845331	99
Es	-0.093061	-0.750155	-0.967411	99
Es	-0.096496	0.468761	-0.885492	99
Es	0.362807	-1.187722	0.115128	99
Es	0.132527	0.805946	0.279262	99
Es	0.529732	-0.966784	0.822531	99
Es	0.731485	0.743726	0.002074	99
Es	-0.025218	-1.133797	1.286384	99
Es	-0.360346	-0.106338	-1.292951	99
Es	0.851886	1.210008	2.457473	99
Es	0.184357	0.989646	-0.427459	99
Es	1.945618	1.082794	1.975197	99
Es	-1.127380	-0.096057	-1.299177	99
Es	-1.883942	-0.093578	-1.321994	99
Es	0.836224	-1.564130	-0.962023	99
Es	-2.135511	-0.655730	-1.739032	99
Es	0.160604	1.702316	-0.627668	99
Es	-2.138569	0.550798	-1.618605	99
Es	0.670124	0.520281	0.729811	99
Es	-0.257968	-1.951715	-0.654288	99
Es	1.160420	-1.294013	1.064588	99
Es	0.963646	0.916319	1.291101	99
Es	0.617480	-0.226266	0.808897	99
Es	-0.098880	-0.043064	-1.998989	99
Es	-2.169767	-0.171223	-0.631106	99
Es	1.268512	2.034955	1.685597	99
Es	0.206051	-1.364138	-0.618819	99
46
Properties=species:S:1:pos:R:3:Z:I:1 energy=-272.1444780325312 field_type=dipole dipole="0.000000 0.000000 0.000000" charge=0
C	-1.883952	-0.093581	-1.321992	6
C	-0.360322	-0.106341	-1.292982	6
C	0.206048	-1.364151	-0.618842	6
C	0.529738	-0.966801	0.822548	6
C	0.670068	0.520329	0.729668	6
C	1.254138	1.309209	1.845348	6
C	0.184408	0.989609	-0.427352	6
H	-2.262662	-0.917681	-1.935712	1
H	-2.258092	0.843419	-1.748492	1
H	-2.311622	-0.199491	-0.318482	1
H	0.028188	-0.021001	-2.313882	1
H	1.134278	-1.660401	-1.126542	1
H	-0.470792	-2.223921	-0.665262	1
H	1.449718	-1.451471	1.162648	1
H	-0.287022	-1.230941	1.502318	1
H	1.277088	2.379109	1.613098	1
H	2.280638	0.985779	2.044128	1
H	0.664068	1.174139	2.757118	1
H	0.156088	2.034189	-0.707332	1
Es	0.617071	-0.226868	0.809138	99
Es	0.731550	0.743567	0.002270	99
Es	0.160735	1.702307	-0.628105	99
Es	-1.127227	-0.096016	-1.299237	99
Es	-0.360345	-0.106339	-1.292951	99
Es	0.529733	-0.966785	0.822532	99
Es	-2.138986	0.550714	-1.619668	99
Es	1.160620	-1.294163	1.065321	99
Es	1.254127	1.309188	1.845331	99
Es	1.945649	1.082786	1.975389	99
Es	0.363361	-1.187691	0.115186	99
Es	0.851881	1.210187	2.457365	99
Es	-2.134695	-0.655122	-1.738103	99
Es	0.206051	-1.364135	-0.618819	99
Es	-0.257216	-1.951498	-0.654666	99
Es	-0.099043	-0.042643	-1.999430	99
Es	-1.883941	-0.093577	-1.321997	99
Es	-0.097060	0.468276	-0.885641	99
Es	0.834138	-1.563921	-0.960945	99
Es	0.963810	0.916078	1.291093	99
Es	0.670127	0.520279	0.729808	99
Es	-0.092376	-0.750064	-0.968021	99
Es	-0.024850	-1.133193	1.285828	99
Es	1.268608	2.034768	1.685700	99
Es	0.132057	0.805863	0.279124	99
Es	0.184355	0.989647	-0.427458	99
Es	-2.169672	-0.171622	-0.630685	99
46
Properties=species:S:1:pos:R:3:Z:I:1 energy=-272.1444780325312 field_type=dipole dipole="0.000000 0.000000 0.000000" charge=0
C	-1.883952	-0.093581	-1.321992	6
C	-0.360322	-0.106341	-1.292982	6
C	0.206048	-1.364151	-0.618842	6
C	0.529738	-0.966801	0.822548	6
C	0.670068	0.520329	0.729668	6
C	1.254138	1.309209	1.845348	6
C	0.184408	0.989609	-0.427352	6
H	-2.262662	-0.917681	-1.935712	1
H	-2.258092	0.843419	-1.748492	1
H	-2.311622	-0.199491	-0.318482	1
H	0.028188	-0.021001	-2.313882	1
H	1.134278	-1.660401	-1.126542	1
H	-0.470792	-2.223921	-0.665262	1
H	1.449718	-1.451471	1.162648	1
H	-0.287022	-1.230941	1.502318	1
H	1.277088	2.379109	1.613098	1
H	2.280638	0.985779	2.044128	1
H	0.664068	1.174139	2.757118	1
H	0.156088	2.034189	-0.707332	1
Es	0.131741	0.805924	0.279110	99
Es	0.670124	0.520280	0.729811	99
Es	-2.169572	-0.171969	-0.630331	99
Es	-2.134088	-0.654583	-1.737412	99
Es	-2.139215	0.550677	-1.620476	99
Es	0.964014	0.915673	1.291283	99
Es	-0.256520	-1.951398	-0.654870	99
Es	0.206050	-1.364133	-0.618818	99
Es	1.254127	1.309189	1.845331	99
Es	1.268590	2.034673	1.685764	99
Es	1.945615	1.082906	1.975325	99
Es	-0.097578	0.467722	-0.885930	99
Es	-0.024412	-1.132612	1.285358	99
Es	0.852081	1.210230	2.457455	99
Es	-0.360346	-0.106338	-1.292951	99
Es	0.731472	0.743385	0.002366	99
Es	0.184359	0.989641	-0.427459	99
Es	-1.883945	-0.093579	-1.321996	99
Es	1.160820	-1.294262	1.065960	99
Es	0.832313	-1.563613	-0.960029	99
Es	-1.127150	-0.095961	-1.299158	99
Es	0.363851	-1.187638	0.114997	99
Es	0.160912	1.702250	-0.628428	99
Es	-0.091920	-0.749911	-0.968409	99
Es	0.529733	-0.966784	0.822531	99
Es	0.616624	-0.227460	0.809198	99
Es	-0.099218	-0.042282	-1.999866	99
46
Properties=species:S:1:pos:R:3:Z:I:1 energy=-272.1444780325312 field_type=dipole dipole="0.000000 0.000000 0.000000" charge=0
C	-1.883952	-0.093581	-1.321992	6
C	-0.360322	-0.106341	-1.292982	6
C	0.206048	-1.364151	-0.618842	6
C	0.529738	-0.966801	0.822548	6
C	0.670068	0.520329	0.729668	6
C	1.254138	1.309209	1.845348	6
C	0.184408	0.989609	-0.427352	6
H	-2.262662	-0.917681	-1.935712	1
H	-2.258092	0.843419	-1.748492	1
H	-2.311622	-0.199491	-0.318482	1
H	0.028188	-0.021001	-2.313882	1
H	1.134278	-1.660401	-1.126542	1
H	-0.470792	-2.223921	-0.665262	1
H	1.449718	-1.451471	1.162648	1
H	-0.287022	-1.230941	1.502318	1
H	1.277088	2.379109	1.613098	1
H	2.280638	0.985779	2.044128	1
H	0.664068	1.174139	2.757118	1
H	0.156088	2.034189	-0.707332	1
Es	-2.139509	0.550592	-1.621225	99
Es	0.670125	0.520280	0.729811	99
Es	-2.133411	-0.653909	-1.736752	99
Es	0.852138	1.210225	2.457380	99
Es	-0.255982	-1.951450	-0.655140	99
Es	0.364569	-1.187553	0.114855	99
Es	-0.091247	-0.749771	-0.968706	99
Es	0.964084	0.915709	1.291025	99
Es	1.254127	1.309187	1.845330	99
Es	0.529733	-0.966784	0.822531	99
Es	1.160868	-1.294349	1.066594	99
Es	0.830521	-1.563161	-0.959149	99
Es	-0.099386	-0.042086	-2.000149	99
Es	0.161029	1.702232	-0.628639	99
Es	1.268627	2.034477	1.686118	99
Es	0.184354	0.989648	-0.427456	99
Es	0.131567	0.805986	0.279155	99
Es	-0.360346	-0.106338	-1.292951	99
Es	1.945691	1.082928	1.975364	99
Es	-0.098083	0.467428	-0.886232	99
Es	0.206051	-1.364132	-0.618818	99
Es	0.731355	0.743154	0.002378	99
Es	-2.169484	-0.172467	-0.629971	99
Es	0.616402	-0.228149	0.809321	99
Es	-0.024160	-1.132074	1.284931	99
Es	-1.883943	-0.093578	-1.321995	99
Es	-1.127231	-0.096019	-1.299252	99
46
Properties=species:S:1:pos:R:3:Z:I:1 energy=-272.1444780325312 field_type=dipole dipole="0.000000 0.000000 0.000000" charge=0
C	-1.883952	-0.093581	-1.321992	6
C	-0.360322	-0.106341	-1.292982	6
C	0.206048	-1.364151	-0.618842	6
C	0.529738	-0.966801	0.822548	6
C	0.670068	0.520329	0.729668	6
C	1.254138	1.309209	1.845348	6
C	0.184408	0.989609	-0.427352	6
H	-2.262662	-0.917681	-1.935712	1
H	-2.258092	0.843419	-1.748492	1
H	-2.311622	-0.199491	-0.318482	1
H	0.028188	-0.021001	-2.313882	1
H	1.134278	-1.660401	-1.126542	1
H	-0.470792	-2.223921	-0.665262	1
H	1.449718	-1.451471	1.162648	1
H	-0.287022	-1.230941	1.502318	1
H	1.277088	2.379109	1.613098	1
H	2.280638	0.985779	2.044128	1
H	0.664068	1.174139	2.757118	1
H	0.156088	2.034189	-0.707332	1
Es	0.964212	0.915501	1.291051	99
Es	-0.099580	-0.042008	-2.000390	99
Es	-0.098497	0.467073	-0.886421	99
Es	0.852052	1.210340	2.457251	99
Es	1.268705	2.034357	1.686173	99
Es	-0.023919	-1.131621	1.284458	99
Es	0.161118	1.702197	-0.628995	99
Es	0.670125	0.520280	0.729813	99
Es	0.828881	-1.562841	-0.958316	99
Es	-2.169354	-0.172630	-0.629824	99
Es	-1.883944	-0.093578	-1.321994	99
Es	0.731348	0.742886	0.002193	99
Es	0.206051	-1.364133	-0.618818	99
Es	0.365186	-1.187695	0.114776	99
Es	0.616090	-0.228438	0.809394	99
Es	-2.132846	-0.653463	-1.735871	99
Es	-1.127120	-0.096034	-1.299224	99
Es	0.131621	0.806152	0.279259	99
Es	1.160845	-1.294491	1.067201	99
Es	0.184366	0.989646	-0.427464	99
Es	-0.360345	-0.106337	-1.292950	99
Es	-0.255494	-1.951316	-0.655373	99
Es	1.945670	1.082963	1.975613	99
Es	0.529733	-0.966785	0.822532	99
Es	-0.090599	-0.749571	-0.968930	99
Es	1.254127	1.309187	1.845330	99
Es	-2.139971	0.550381	-1.622114	99
46
Properties=species:S:1:pos:R:3:Z:I:1 energy=-272.1444780325312 field_type=dipole dipole="0.000000 0.000000 0.000000" charge=0
C	-1.883952	-0.093581	-1.321992	6
C	-0.360322	-0.106341	-1.292982	6
C	0.206048	-1.364151	-0.618842	6
C	0.529738	-0.966801	0.822548	6
C	0.670068	0.520329	0.729668	6
C	1.254138	1.309209	1.845348	6
C	0.184408	0.989609	-0.427352	6
H	-2.262662	-0.917681	-1.935712	1
H	-2.258092	0.843419	-1.748492	1
H	-2.311622	-0.199491	-0.318482	1
H	0.028188	-0.021001	-2.313882	1
H	1.134278	-1.660401	-1.126542	1
H	-0.470792	-2.223921	-0.665262	1
H	1.449718	-1.451471	1.162648	1
H	-0.287022	-1.230941	1.502318	1
H	1.277088	2.379109	1.613098	1
H	2.280638	0.985779	2.044128	1
H	0.664068	1.174139	2.757118	1
H	0.156088	2.034189	-0.707332	1
Es	1.254127	1.309188	1.845332	99
Es	-1.127106	-0.096027	-1.299120	99
Es	0.615762	-0.229001	0.809500	99
Es	0.184363	0.989645	-0.427462	99
Es	0.206051	-1.364133	-0.618818	99
Es	-0.098977	0.466649	-0.886632	99
Es	0.964042	0.915400	1.291010	99
Es	-2.132433	-0.653084	-1.735410	99
Es	-2.140093	0.550266	-1.622678	99
Es	0.852242	1.210406	2.457299	99
Es	0.670125	0.520279	0.729810	99
Es	0.529734	-0.966784	0.822531	99
Es	1.160958	-1.294594	1.067629	99
Es	0.365668	-1.187390	0.114505	99
Es	0.131580	0.806258	0.279289	99
Es	0.161234	1.702184	-0.629049	99
Es	1.945704	1.082900	1.975486	99
Es	-0.255161	-1.951376	-0.655473	99
Es	-1.883944	-0.093579	-1.321996	99
Es	-0.023635	-1.131263	1.284095	99
Es	-0.089962	-0.749493	-0.969408	99
Es	1.268808	2.034188	1.686439	99
Es	0.731352	0.742728	0.002131	99
Es	-0.360345	-0.106338	-1.292950	99
Es	-2.169280	-0.172816	-0.629593	99
Es	0.827343	-1.562517	-0.957432	99
Es	-0.099694	-0.041671	-2.000677	99
46
Properties=species:S:1:pos:R:3:Z:I:1 energy=-272.1444780325312 field_type=dipole dipole="0.000000 0.000000 0.000000" charge=0
C	-1.883952	-0.093581	-1.321992	6
C	-0.360322	-0.106341	-1.292982	6
C	0.206048	-1.364151	-0.618842	6
C	0.529738	-0.966801	0.822548	6
C	0.670068	0.520329	0.729668	6
C	1.254138	1.309209	1.845348	6
C	0.184408	0.989609	-0.427352	6
H	-2.262662	-0.917681	-1.935712	1
H	-2.258092	0.843419	-1.748492	1
H	-2.311622	-0.199491	-0.318482	1
H	0.028188	-0.021001	-2.313882	1
H	1.134278	-1.660401	-1.126542	1
H	-0.470792	-2.223921	-0.665262	1
H	1.449718	-1.451471	1.162648	1
H	-0.287022	-1.230941	1.502318	1
H	1.277088	2.379109	1.613098	1
H	2.280638	0.985779	2.044128	1
H	0.664068	1.174139	2.757118	1
H	0.156088	2.034189	-0.707332	1
Es	1.945679	1.082996	1.975542	99
Es	-2.131992	-0.652627	-1.734788	99
Es	0.825909	-1.562122	-0.956724	99
Es	-0.099916	-0.041553	-2.000883	99
Es	-0.023430	-1.130975	1.283802	99
Es	0.529733	-0.966784	0.822531	99
Es	-1.883943	-0.093579	-1.321996	99
Es	-2.140437	0.550062	-1.623293	99
Es	0.366306	-1.187215	0.114253	99
Es	-0.360346	-0.106338	-1.292950	99
Es	0.131592	0.806283	0.279379	99
Es	1.268804	2.034113	1.686538	99
Es	0.964212	0.915244	1.291034	99
Es	0.161247	1.702208	-0.629191	99
Es	-1.127048	-0.095988	-1.299129	99
Es	0.184365	0.989646	-0.427463	99
Es	0.731278	0.742506	0.002000	99
Es	-0.254903	-1.951470	-0.655615	99
Es	1.254127	1.309188	1.845331	99
Es	0.615443	-0.229507	0.809520	99
Es	0.852259	1.210391	2.457287	99
Es	0.206064	-1.364142	-0.618828	99
Es	-2.169131	-0.173047	-0.629399	99
Es	0.670125	0.520280	0.729811	99
Es	-0.099232	0.466414	-0.886860	99
Es	1.161056	-1.294555	1.068034	99
Es	-0.089360	-0.749404	-0.969583	99
46
Properties=species:S:1:pos:R:3:Z:I:1 energy=-272.1444780325312 field_type=dipole dipole="0.000000 0.000000 0.000000" charge=0
C	-1.883952	-0.093581	-1.321992	6
C	-0.360322	-0.106341	-1.292982	6
C	0.206048	-1.364151	-0.618842	6
C	0.529738	-0.966801	0.822548	6
C	0.670068	0.520329	0.729668	6
C	1.254138	1.309209	1.845348	6
C	0.184408	0.989609	-0.427352	6
H	-2.262662	-0.917681	-1.935712	1
H	-2.258092	0.843419	-1.748492	1
H	-2.311622	-0.199491	-0.318482	1
H	0.028188	-0.021001	-2.313882	1
H	1.134278	-1.660401	-1.126542	1
H	-0.470792	-2.223921	-0.665262	1
H	1.449718	-1.451471	1.162648	1
H	-0.287022	-1.230941	1.502318	1
H	1.277088	2.379109	1.613098	1
H	2.280638	0.985779	2.044128	1
H	0.664068	1.174139	2.757118	1
H	0.156088	2.034189	-0.707332	1
Es	0.184363	0.989646	-0.427463	99
Es	0.131406	0.806210	0.279108	99
Es	0.824777	-1.561880	-0.956096	99
Es	0.964152	0.915147	1.290963	99
Es	0.206051	-1.364135	-0.618819	99
Es	0.670127	0.520282	0.729814	99
Es	0.161430	1.702168	-0.629389	99
Es	1.161028	-1.294653	1.068367	99
Es	-0.254539	-1.951336	-0.655754	99
Es	-0.023204	-1.130691	1.283522	99
Es	-0.099989	-0.041367	-2.001065	99
Es	0.366597	-1.187135	0.114150	99
Es	-1.883940	-0.093578	-1.321993	99
Es	0.731211	0.742532	0.002336	99
Es	-0.360346	-0.106338	-1.292950	99
Es	-1.127104	-0.095965	-1.299138	99
Es	1.254127	1.309188	1.845330	99
Es	1.268902	2.033984	1.686636	99
Es	-2.169038	-0.173255	-0.629202	99
Es	-2.131525	-0.652226	-1.734275	99
Es	-2.140676	0.549859	-1.623886	99
Es	-0.099607	0.466100	-0.886974	99
Es	0.529727	-0.966786	0.822536	99
Es	-0.088875	-0.749367	-0.969860	99
Es	0.852350	1.210553	2.457237	99
Es	0.615366	-0.229892	0.809611	99
Es	1.945689	1.082959	1.975613	99
46
Properties=species:S:1:pos:R:3:Z:I:1 energy=-272.1444780325312 field_type=dipole dipole="0.000000 0.000000 0.000000" charge=0
C	-1.883952	-0.093581	-1.321992	6
C	-0.360322	-0.106341	-1.292982	6
C	0.206048	-1.364151	-0.618842	6
C	0.529738	-0.966801	0.822548	6
C	0.670068	0.520329	0.729668	6
C	1.254138	1.309209	1.845348	6
C	0.184408	0.989609	-0.427352	6
H	-2.262662	-0.917681	-1.935712	1
H	-2.258092	0.843419	-1.748492	1
H	-2.311622	-0.199491	-0.318482	1
H	0.028188	-0.021001	-2.313882	1
H	1.134278	-1.660401	-1.126542	1
H	-0.470792	-2.223921	-0.665262	1
H	1.449718	-1.451471	1.162648	1
H	-0.287022	-1.230941	1.502318	1
H	1.277088	2.379109	1.613098	1
H	2.280638	0.985779	2.044128	1
H	0.664068	1.174139	2.757118	1
H	0.156088	2.034189	-0.707332	1
Es	0.615159	-0.230238	0.809572	99
Es	-1.127147	-0.095997	-1.299363	99
Es	0.823757	-1.561586	-0.955508	99
Es	0.529733	-0.966785	0.822531	99
Es	0.670124	0.520279	0.729811	99
Es	-0.099976	0.465822	-0.887290	99
Es	1.254127	1.309188	1.845331	99
Es	1.268932	2.033882	1.686752	99
Es	-0.360351	-0.106339	-1.292950	99
Es	0.852383	1.210567	2.457241	99
Es	-2.131347	-0.651879	-1.733830	99
Es	-2.140823	0.549714	-1.624297	99
Es	0.131510	0.806303	0.279175	99
Es	1.160991	-1.294766	1.068834	99
Es	0.731273	0.742433	0.002198	99
Es	0.161430	1.702135	-0.629348	99
Es	-1.883946	-0.093578	-1.321992	99
Es	0.367019	-1.187021	0.113956	99
Es	0.184366	0.989645	-0.427465	99
Es	-0.100039	-0.041249	-2.001160	99
Es	0.964157	0.915033	1.290978	99
Es	0.206049	-1.364133	-0.618818	99
Es	-0.023062	-1.130361	1.283152	99
Es	-0.254336	-1.951422	-0.655836	99
Es	-2.168800	-0.173344	-0.628970	99
Es	1.945684	1.082996	1.975625	99
Es	-0.088406	-0.749274	-0.969971	99
46
Properties=species:S:1:pos:R:3:Z:I:1 energy=-272.1444780325312 field_type=dipole dipole="0.000000 0.000000 0.000000" charge=0
C	-1.883952	-0.093581	-1.321992	6
C	-0.360322	-0.106341	-1.292982	6
C	0.206048	-1.364151	-0.618842	6
C	0.529738	-0.966801	0.822548	6
C	0.670068	0.520329	0.729668	6
C	1.254138	1.309209	1.845348	6
C	0.184408	0.989609	-0.427352	6
H	-2.262662	-0.917681	-1.935712	1
H	-2.258092	0.843419	-1.748492	1
H	-2.311622	-0.199491	-0.318482	1
H	0.028188	-0.021001	-2.313882	1
H	1.134278	-1.660401	-1.126542	1
H	-0.470792	-2.223921	-0.665262	1
H	1.449718	-1.451471	1.162648	1
H	-0.287022	-1.230941	1.502318	1
H	1.277088	2.379109	1.613098	1
H	2.280638	0.985779	2.044128	1
H	0.664068	1.174139	2.757118	1
H	0.156088	2.034189	-0.707332	1
Es	1.945709	1.083009	1.975672	99
Es	-0.022847	-1.130205	1.282919	99
Es	1.254127	1.309188	1.845331	99
Es	0.614912	-0.230338	0.809597	99
Es	0.731188	0.742250	0.002145	99
Es	-0.087967	-0.749250	-0.970206	99
Es	-2.168941	-0.173490	-0.628945	99
Es	-1.126989	-0.095893	-1.299114	99
Es	-0.360346	-0.106338	-1.292950	99
Es	-0.100168	0.465525	-0.887206	99
Es	1.268926	2.033829	1.686782	99
Es	0.964278	0.914881	1.291059	99
Es	-0.100214	-0.041133	-2.001341	99
Es	0.852409	1.210613	2.457206	99
Es	0.161461	1.702128	-0.629654	99
Es	-0.254171	-1.951333	-0.655868	99
Es	0.131584	0.806437	0.279200	99
Es	0.670122	0.520278	0.729810	99
Es	-2.130886	-0.651529	-1.733391	99
Es	0.184363	0.989646	-0.427462	99
Es	0.367570	-1.187028	0.113792	99
Es	1.160970	-1.294804	1.069087	99
Es	0.206051	-1.364134	-0.618818	99
Es	-1.883942	-0.093579	-1.321994	99
Es	0.529733	-0.966784	0.822531	99
Es	-2.141069	0.549442	-1.624833	99
Es	0.822598	-1.561362	-0.954990	99
46
Properties=species:S:1:pos:R:3:Z:I:1 energy=-272.1444780325312 field_type=dipole dipole="0.000000 0.000000 0.000000" charge=0
C	-1.883952	-0.093581	-1.321992	6
C	-0.360322	-0.106341	-1.292982	6
C	0.206048	-1.364151	-0.618842	6
C	0.529738	-0.966801	0.822548	6
C	0.670068	0.520329	0.729668	6
C	1.254138	1.309209	1.845348	6
C	0.184408	0.989609	-0.427352	6
H	-2.262662	-0.917681	-1.935712	1
H	-2.258092	0.843419	-1.748492	1
H	-2.311622	-0.199491	-0.318482	1
H	0.028188	-0.021001	-2.313882	1
H	1.134278	-1.660401	-1.126542	1
H	-0.470792	-2.223921	-0.665262	1
H	1.449718	-1.451471	1.162648	1
H	-0.287022	-1.230941	1.502318	1
H	1.277088	2.379109	1.613098	1
H	2.280638	0.985779	2.044128	1
H	0.664068	1.174139	2.757118	1
H	0.156088	2.034189	-0.707332	1
Es	-1.883943	-0.093578	-1.321995	99
Es	-1.126786	-0.095840	-1.298951	99
Es	0.131482	0.806404	0.279142	99
Es	-2.169048	-0.173650	-0.629015	99
Es	0.367963	-1.186737	0.113598	99
Es	-2.141287	0.549312	-1.625195	99
Es	0.731101	0.742222	0.002249	99
Es	1.254127	1.309189	1.845331	99
Es	-0.100211	0.465313	-0.887124	99
Es	0.821582	-1.561038	-0.954400	99
Es	-2.130576	-0.651217	-1.733035	99
Es	-0.022768	-1.130091	1.282726	99
Es	-0.253920	-1.951375	-0.656008	99
Es	0.529736	-0.966785	0.822532	99
Es	0.184362	0.989646	-0.427460	99
Es	-0.087653	-0.749311	-0.970556	99
Es	1.945596	1.083123	1.975424	99
Es	0.670124	0.520280	0.729811	99
Es	-0.100249	-0.040988	-2.001455	99
Es	1.269009	2.033678	1.687095	99
Es	1.160994	-1.294861	1.069286	99
Es	0.161477	1.702120	-0.629837	99
Es	0.852656	1.210541	2.457418	99
Es	0.614840	-0.230862	0.809797	99
Es	0.964143	0.915001	1.290753	99
Es	0.206054	-1.364132	-0.618819	99
Es	-0.360346	-0.106338	-1.292952	99
46
Properties=species:S:1:pos:R:3:Z:I:1 energy=-272.1444780325312 field_type=dipole dipole="0.000000 0.000000 0.000000" charge=0
C	-1.883952	-0.093581	-1.321992	6
C	-0.360322	-0.106341	-1.292982	6
C	0.206048	-1.364151	-0.618842	6
C	0.529738	-0.966801	0.822548	6
C	0.670068	0.520329	0.729668	6
C	1.254138	1.309209	1.845348	6
C	0.184408	0.989609	-0.427352	6
H	-2.262662	-0.917681	-1.935712	1
H	-2.258092	0.843419	-1.748492	1
H	-2.311622	-0.199491	-0.318482	1
H	0.028188	-0.021001	-2.313882	1
H	1.134278	-1.660401	-1.126542	1
H	-0.470792	-2.223921	-0.665262	1
H	1.449718	-1.451471	1.162648	1
H	-0.287022	-1.230941	1.502318	1
H	1.277088	2.379109	1.613098	1
H	2.280638	0.985779	2.044128	1
H	0.664068	1.174139	2.757118	1
H	0.156088	2.034189	-0.707332	1
Es	0.368227	-1.186763	0.113482	99
Es	-1.883945	-0.093589	-1.322004	99
Es	0.820742	-1.560850	-0.953978	99
Es	0.964325	0.914921	1.290855	99
Es	0.614549	-0.231106	0.809760	99
Es	-0.253915	-1.951381	-0.656107	99
Es	0.184362	0.989644	-0.427461	99
Es	0.161561	1.702110	-0.629836	99
Es	1.269045	2.033654	1.687038	99
Es	-0.360346	-0.106338	-1.292949	99
Es	0.731107	0.742128	0.002162	99
Es	0.852377	1.210625	2.457158	99
Es	1.945701	1.082990	1.975738	99
Es	1.254127	1.309188	1.845331	99
Es	1.161078	-1.294772	1.069518	99
Es	0.670131	0.520279	0.729809	99
Es	-1.127064	-0.095918	-1.299092	99
Es	-0.100521	0.465238	-0.887535	99
Es	-2.168758	-0.173709	-0.628766	99
Es	-2.141415	0.549154	-1.625605	99
Es	-0.086920	-0.749047	-0.970426	99
Es	0.131511	0.806497	0.279216	99
Es	0.206050	-1.364133	-0.618818	99
Es	-0.100424	-0.041082	-2.001538	99
Es	-0.022535	-1.129928	1.282551	99
Es	-2.130326	-0.651002	-1.732673	99
Es	0.529733	-0.966784	0.822531	99
46
Properties=species:S:1:pos:R:3:Z:I:1 energy=-272.1444780325312 field_type=dipole dipole="0.000000 0.000000 0.000000" charge=0
C	-1.883952	-0.093581	-1.321992	6
C	-0.360322	-0.106341	-1.292982	6
C	0.206048	-1.364151	-0.618842	6
C	0.529738	-0.966801	0.822548	6
C	0.670068	0.520329	0.729668	6
C	1.254138	1.309209	1.845348	6
C	0.184408	0.989609	-0.427352	6
H	-2.262662	-0.917681	-1.935712	1
H	-2.258092	0.843419	-1.748492	1
H	-2.311622	-0.199491	-0.318482	1
H	0.028188	-0.021001	-2.313882	1
H	1.134278	-1.660401	-1.126542	1
H	-0.470792	-2.223921	-0.665262	1
H	1.449718	-1.451471	1.162648	1
H	-0.287022	-1.230941	1.502318	1
H	1.277088	2.379109	1.613098	1
H	2.280638	0.985779	2.044128	1
H	0.664068	1.174139	2.757118	1
H	0.156088	2.034189	-0.707332	1
Es	1.269019	2.033581	1.687094	99
Es	0.964309	0.914728	1.290884	99
Es	0.731023	0.741938	0.002088	99
Es	0.161695	1.702135	-0.629866	99
Es	-2.168753	-0.173714	-0.628728	99
Es	0.670124	0.520279	0.729812	99
Es	-1.127097	-0.095813	-1.299009	99
Es	-0.100668	0.464837	-0.887755	99
Es	-0.022424	-1.129744	1.282362	99
Es	1.161051	-1.294757	1.069793	99
Es	-2.130178	-0.650791	-1.732358	99
Es	0.131620	0.806559	0.279247	99
Es	-0.100357	-0.040879	-2.001606	99
Es	-2.141482	0.549039	-1.625948	99
Es	0.368704	-1.186621	0.113233	99
Es	0.529734	-0.966785	0.822531	99
Es	0.852499	1.210719	2.457102	99
Es	1.945719	1.083062	1.975813	99
Es	0.614265	-0.231363	0.809753	99
Es	1.254127	1.309187	1.845331	99
Es	-0.360346	-0.106338	-1.292950	99
Es	0.819861	-1.560588	-0.953536	99
Es	-0.086792	-0.749115	-0.970571	99
Es	-1.883942	-0.093578	-1.321996	99
Es	0.206105	-1.364141	-0.618843	99
Es	-0.253715	-1.951455	-0.656055	99
Es	0.184361	0.989644	-0.427464	99
46
Properties=species:S:1:pos:R:3:Z:I:1 energy=-272.1444780325312 field_type=dipole dipole="0.000000 0.000000 0.000000" charge=0
C	-1.883952	-0.093581	-1.321992	6
C	-0.360322	-0.106341	-1.292982	6
C	0.206048	-1.364151	-0.618842	6
C	0.529738	-0.966801	0.822548	6
C	0.670068	0.520329	0.729668	6
C	1.254138	1.309209	1.845348	6
C	0.184408	0.989609	-0.427352	6
H	-2.262662	-0.917681	-1.935712	1
H	-2.258092	0.843419	-1.748492	1
H	-2.311622	-0.199491	-0.318482	1
H	0.028188	-0.021001	-2.313882	1
H	1.134278	-1.660401	-1.126542	1
H	-0.470792	-2.223921	-0.665262	1
H	1.449718	-1.451471	1.162648	1
H	-0.287022	-1.230941	1.502318	1
H	1.277088	2.379109	1.613098	1
H	2.280638	0.985779	2.044128	1
H	0.664068	1.174139	2.757118	1
H	0.156088	2.034189	-0.707332	1
Es	-0.086360	-0.749078	-0.970692	99
Es	-1.126793	-0.095789	-1.299186	99
Es	0.731090	0.742001	0.002214	99
Es	0.614449	-0.231402	0.809800	99
Es	-0.100463	-0.040753	-2.001728	99
Es	-0.022360	-1.129669	1.282194	99
Es	0.964391	0.914640	1.290806	99
Es	0.819127	-1.560356	-0.953087	99
Es	0.206052	-1.364135	-0.618819	99
Es	0.184362	0.989644	-0.427461	99
Es	0.529730	-0.966784	0.822536	99
Es	-0.360346	-0.106338	-1.292950	99
Es	0.161630	1.702082	-0.629935	99
Es	1.254127	1.309187	1.845330	99
Es	0.368993	-1.186498	0.113133	99
Es	0.852496	1.210787	2.457232	99
Es	1.160973	-1.294926	1.069911	99
Es	-2.129924	-0.650504	-1.732119	99
Es	-0.253631	-1.951507	-0.656177	99
Es	0.670124	0.520280	0.729811	99
Es	-2.141774	0.548837	-1.626137	99
Es	0.131393	0.806479	0.279150	99
Es	-2.168647	-0.173926	-0.628623	99
Es	-0.101002	0.464775	-0.887718	99
Es	1.945679	1.083127	1.975760	99
Es	-1.883943	-0.093579	-1.321995	99
Es	1.269087	2.033429	1.687109	99
46
Properties=species:S:1:pos:R:3:Z:I:1 energy=-272.1444780325312 field_type=dipole dipole="0.000000 0.000000 0.000000" charge=0
C	-1.883952	-0.093581	-1.321992	6
C	-0.360322	-0.106341	-1.292982	6
C	0.206048	-1.364151	-0.618842	6
C	0.529738	-0.966801	0.822548	6
C	0.670068	0.520329	0.729668	6
C	1.254138	1.309209	1.845348	6
C	0.184408	0.989609	-0.427352	6
H	-2.262662	-0.917681	-1.935712	1
H	-2.258092	0.843419	-1.748492	1
H	-2.311622	-0.199491	-0.318482	1
H	0.028188	-0.021001	-2.313882	1
H	1.134278	-1.660401	-1.126542	1
H	-0.470792	-2.223921	-0.665262	1
H	1.449718	-1.451471	1.162648	1
H	-0.287022	-1.230941	1.502318	1
H	1.277088	2.379109	1.613098	1
H	2.280638	0.985779	2.044128	1
H	0.664068	1.174139	2.757118	1
H	0.156088	2.034189	-0.707332	1
Es	0.369285	-1.186462	0.113005	99
Es	0.614297	-0.231696	0.809798	99
Es	0.206052	-1.364135	-0.618819	99
Es	-2.141908	0.548739	-1.626441	99
Es	1.945760	1.083055	1.975769	99
Es	-0.100625	-0.040821	-2.001805	99
Es	1.160960	-1.294925	1.070113	99
Es	-0.101035	0.464679	-0.887875	99
Es	1.269040	2.033469	1.687248	99
Es	-0.253513	-1.951512	-0.656282	99
Es	0.670124	0.520280	0.729811	99
Es	0.852562	1.210716	2.457104	99
Es	0.161640	1.702104	-0.629941	99
Es	-1.127030	-0.095831	-1.299082	99
Es	-0.360346	-0.106338	-1.292951	99
Es	-0.085871	-0.748943	-0.970863	99
Es	0.818396	-1.560130	-0.952685	99
Es	0.731028	0.741796	0.001919	99
Es	0.184361	0.989642	-0.427461	99
Es	-2.168573	-0.174127	-0.628553	99
Es	-1.883945	-0.093578	-1.321993	99
Es	0.529733	-0.966784	0.822531	99
Es	0.964291	0.914709	1.290881	99
Es	-0.022305	-1.129507	1.282071	99
Es	-2.129661	-0.650179	-1.731828	99
Es	0.131619	0.806616	0.279357	99
Es	1.254128	1.309189	1.845331	99
46
Properties=species:S:1:pos:R:3:Z:I:1 energy=-272.1444780325312 field_type=dipole dipole="0.000000 0.000000 0.000000" charge=0
C	-1.883952	-0.093581	-1.321992	6
C	-0.360322	-0.106341	-1.292982	6
C	0.206048	-1.364151	-0.618842	6
C	0.529738	-0.966801	0.822548	6
C	0.670068	0.520329	0.729668	6
C	1.254138	1.309209	1.845348	6
C	0.184408	0.989609	-0.427352	6
H	-2.262662	-0.917681	-1.935712	1
H	-2.258092	0.843419	-1.748492	1
H	-2.311622	-0.199491	-0.318482	1
H	0.028188	-0.021001	-2.313882	1
H	1.134278	-1.660401	-1.126542	1
H	-0.470792	-2.223921	-0.665262	1
H	1.449718	-1.451471	1.162648	1
H	-0.287022	-1.230941	1.502318	1
H	1.277088	2.379109	1.613098	1
H	2.280638	0.985779	2.044128	1
H	0.664068	1.174139	2.757118	1
H	0.156088	2.034189	-0.707332	1
Es	-0.085586	-0.748965	-0.971096	99
Es	-1.126962	-0.095907	-1.299006	99
Es	0.852557	1.210872	2.457181	99
Es	-0.022261	-1.129474	1.281989	99
Es	0.731136	0.742015	0.002179	99
Es	1.254127	1.309188	1.845331	99
Es	-2.129584	-0.650075	-1.731636	99
Es	0.817570	-1.559888	-0.952238	99
Es	0.614170	-0.231874	0.809732	99
Es	0.529734	-0.966784	0.822532	99
Es	0.131515	0.806493	0.279139	99
Es	1.269209	2.033329	1.687259	99
Es	-0.101085	0.464593	-0.888054	99
Es	0.369665	-1.186359	0.112906	99
Es	-0.253324	-1.951522	-0.656302	99
Es	1.161007	-1.294953	1.070175	99
Es	-2.168590	-0.174057	-0.628495	99
Es	0.161575	1.702094	-0.629860	99
Es	-1.883942	-0.093579	-1.321997	99
Es	-2.141889	0.548634	-1.626686	99
Es	0.206051	-1.364133	-0.618818	99
Es	0.964162	0.914631	1.290934	99
Es	-0.100700	-0.040766	-2.001912	99
Es	1.945767	1.082922	1.975700	99
Es	-0.360346	-0.106338	-1.292950	99
Es	0.184361	0.989646	-0.427462	99
Es	0.670125	0.520282	0.729815	99
