44
Properties=species:S:1:pos:R:3:Z:I:1 energy=-304.0815373918017 field_type=dipole dipole="0.000000 0.000000 0.000000" charge=0
C	-1.442257	0.142159	1.017834	6
C	0.002473	0.082259	0.517784	6
N	0.071813	-0.512291	-0.827876	7
N	-0.340867	-1.801420	-0.942856	7
C	-0.317357	-2.234940	-2.159146	6
C	0.577103	1.475549	0.453784	6
C	1.644653	1.891459	1.149004	6
H	-1.494037	0.623719	2.001054	1
H	-1.867377	-0.861981	1.123294	1
H	-2.085247	0.709419	0.334594	1
H	0.591623	-0.533791	1.209174	1
H	1.036503	-0.410041	-1.154906	1
H	-0.632387	-3.268170	-2.373226	1
H	-0.000417	-1.623031	-3.022076	1
H	0.071813	2.179529	-0.205246	1
H	2.181173	1.229279	1.821654	1
H	2.002793	2.912289	1.057154	1
Es	0.052591	-0.286153	-0.232319	99
Es	0.411077	-0.334775	0.998521	99
Es	2.012318	1.445694	1.606085	99
Es	-0.718481	0.118808	0.761721	99
Es	0.923946	1.769758	1.050478	99
Es	-0.136979	-0.350284	-1.042346	99
Es	-0.589777	-1.907977	-1.547722	99
Es	-1.723777	-0.535734	1.087871	99
Es	-0.107550	-1.162708	-0.877672	99
Es	-0.460630	-1.979325	-0.639287	99
Es	-1.871664	0.532298	0.549786	99
Es	-0.048415	-2.085570	-1.451780	99
Es	0.655193	-0.475089	-1.017442	99
Es	0.002456	0.082263	0.517636	99
Es	0.577036	1.475491	0.453725	99
Es	-0.095375	-1.820933	-2.743463	99
Es	1.319843	1.592853	0.558262	99
Es	0.299110	0.783077	0.477329	99
Es	-0.526054	-2.931667	-2.310318	99
Es	-1.467657	0.471344	1.686208	99
Es	-0.317310	-2.234972	-2.159155	99
Es	0.228330	1.945510	0.005817	99
Es	0.072137	-0.512691	-0.827520	99
Es	-1.442218	0.142168	1.017829	99
Es	1.892103	2.582089	1.093210	99
Es	-0.340654	-1.801068	-0.943338	99
Es	1.644729	1.891491	1.149064	99
44
Properties=species:S:1:pos:R:3:Z:I:1 energy=-304.0815373918017 field_type=dipole dipole="0.000000 0.000000 0.000000" charge=0
C	-1.442257	0.142159	1.017834	6
C	0.002473	0.082259	0.517784	6
N	0.071813	-0.512291	-0.827876	7
N	-0.340867	-1.801420	-0.942856	7
C	-0.317357	-2.234940	-2.159146	6
C	0.577103	1.475549	0.453784	6
C	1.644653	1.891459	1.149004	6
H	-1.494037	0.623719	2.001054	1
H	-1.867377	-0.861981	1.123294	1
H	-2.085247	0.709419	0.334594	1
H	0.591623	-0.533791	1.209174	1
H	1.036503	-0.410041	-1.154906	1
H	-0.632387	-3.268170	-2.373226	1
H	-0.000417	-1.623031	-3.022076	1
H	0.071813	2.179529	-0.205246	1
H	2.181173	1.229279	1.821654	1
H	2.002793	2.912289	1.057154	1
Es	-0.719179	0.118589	0.761641	99
Es	-0.045971	-2.086348	-1.451741	99
Es	1.890581	2.582532	1.096329	99
Es	-0.317323	-2.234968	-2.159158	99
Es	-1.870319	0.530387	0.549485	99
Es	-0.340648	-1.801063	-0.943348	99
Es	2.009859	1.447601	1.607376	99
Es	0.230896	1.943259	0.004513	99
Es	0.410393	-0.333953	0.998126	99
Es	0.072199	-0.512747	-0.827472	99
Es	0.051594	-0.285041	-0.231174	99
Es	-1.442215	0.142168	1.017828	99
Es	-0.593740	-1.908426	-1.547722	99
Es	-0.113069	-1.161535	-0.878721	99
Es	0.577020	1.475490	0.453729	99
Es	-0.528778	-2.931318	-2.311580	99
Es	0.922567	1.770862	1.052642	99
Es	1.321730	1.591897	0.555759	99
Es	-1.467912	0.473108	1.689033	99
Es	1.644728	1.891495	1.149075	99
Es	0.653655	-0.476709	-1.017396	99
Es	0.300031	0.782851	0.475461	99
Es	-0.454911	-1.978619	-0.643925	99
Es	0.002453	0.082263	0.517629	99
Es	-0.097391	-1.821028	-2.742209	99
Es	-1.723064	-0.535267	1.086073	99
Es	-0.128857	-0.351583	-1.039071	99
44
Properties=species:S:1:pos:R:3:Z:I:1 energy=-304.0815373918017 field_type=dipole dipole="0.000000 0.000000 0.000000" charge=0
C	-1.442257	0.142159	1.017834	6
C	0.002473	0.082259	0.517784	6
N	0.071813	-0.512291	-0.827876	7
N	-0.340867	-1.801420	-0.942856	7
C	-0.317357	-2.234940	-2.159146	6
C	0.577103	1.475549	0.453784	6
C	1.644653	1.891459	1.149004	6
H	-1.494037	0.623719	2.001054	1
H	-1.867377	-0.861981	1.123294	1
H	-2.085247	0.709419	0.334594	1
H	0.591623	-0.533791	1.209174	1
H	1.036503	-0.410041	-1.154906	1
H	-0.632387	-3.268170	-2.373226	1
H	-0.000417	-1.623031	-3.022076	1
H	0.071813	2.179529	-0.205246	1
H	2.181173	1.229279	1.821654	1
H	2.002793	2.912289	1.057154	1
Es	-0.595986	-1.908736	-1.547462	99
Es	-0.719648	0.118380	0.761534	99
Es	1.323157	1.591262	0.554385	99
Es	-1.442216	0.142170	1.017829	99
Es	0.051486	-0.284832	-0.230588	99
Es	0.072213	-0.512756	-0.827464	99
Es	0.921497	1.771697	1.053673	99
Es	0.002453	0.082264	0.517627	99
Es	1.644730	1.891492	1.149064	99
Es	-0.340646	-1.801057	-0.943349	99
Es	-0.122742	-0.352781	-1.035338	99
Es	2.008170	1.448794	1.608131	99
Es	-1.467755	0.474028	1.690563	99
Es	-0.317324	-2.234968	-2.159161	99
Es	0.300514	0.782877	0.474387	99
Es	0.232568	1.941905	0.004157	99
Es	1.889828	2.582511	1.097949	99
Es	-0.451006	-1.978340	-0.647919	99
Es	-1.722521	-0.534840	1.085117	99
Es	-0.044353	-2.086568	-1.451966	99
Es	0.409943	-0.333590	0.997799	99
Es	-0.098886	-1.821121	-2.741053	99
Es	0.652595	-0.477525	-1.017716	99
Es	-0.530796	-2.930831	-2.312577	99
Es	-1.869665	0.529314	0.549362	99
Es	-0.118295	-1.160343	-0.879540	99
Es	0.577014	1.475490	0.453736	99
44
Properties=species:S:1:pos:R:3:Z:I:1 energy=-304.0815373918017 field_type=dipole dipole="0.000000 0.000000 0.000000" charge=0
C	-1.442257	0.142159	1.017834	6
C	0.002473	0.082259	0.517784	6
N	0.071813	-0.512291	-0.827876	7
N	-0.340867	-1.801420	-0.942856	7
C	-0.317357	-2.234940	-2.159146	6
C	0.577103	1.475549	0.453784	6
C	1.644653	1.891459	1.149004	6
H	-1.494037	0.623719	2.001054	1
H	-1.867377	-0.861981	1.123294	1
H	-2.085247	0.709419	0.334594	1
H	0.591623	-0.533791	1.209174	1
H	1.036503	-0.410041	-1.154906	1
H	-0.632387	-3.268170	-2.373226	1
H	-0.000417	-1.623031	-3.022076	1
H	0.071813	2.179529	-0.205246	1
H	2.181173	1.229279	1.821654	1
H	2.002793	2.912289	1.057154	1
Es	-1.467352	0.474312	1.691595	99
Es	-0.340646	-1.801060	-0.943356	99
Es	2.007208	1.449492	1.608472	99
Es	-0.123556	-1.158817	-0.880450	99
Es	-0.100089	-1.821213	-2.739976	99
Es	-1.869013	0.529101	0.549310	99
Es	0.409716	-0.333310	0.997548	99
Es	0.072210	-0.512745	-0.827467	99
Es	0.300768	0.782822	0.473733	99
Es	1.324030	1.590956	0.553594	99
Es	0.651841	-0.478169	-1.017960	99
Es	0.920747	1.772220	1.054328	99
Es	-1.722526	-0.534397	1.084287	99
Es	-0.043306	-2.086238	-1.452395	99
Es	0.051710	-0.284804	-0.230215	99
Es	0.233750	1.941024	0.003941	99
Es	-0.720163	0.117934	0.761618	99
Es	-0.447546	-1.978253	-0.651523	99
Es	-0.317330	-2.234966	-2.159161	99
Es	1.644726	1.891493	1.149070	99
Es	0.577020	1.475489	0.453731	99
Es	1.889222	2.582400	1.099057	99
Es	-0.532119	-2.930401	-2.313438	99
Es	-0.117269	-0.354249	-1.031617	99
Es	0.002454	0.082264	0.517633	99
Es	-1.442218	0.142168	1.017829	99
Es	-0.597940	-1.909155	-1.547007	99
44
Properties=species:S:1:pos:R:3:Z:I:1 energy=-304.0815373918017 field_type=dipole dipole="0.000000 0.000000 0.000000" charge=0
C	-1.442257	0.142159	1.017834	6
C	0.002473	0.082259	0.517784	6
N	0.071813	-0.512291	-0.827876	7
N	-0.340867	-1.801420	-0.942856	7
C	-0.317357	-2.234940	-2.159146	6
C	0.577103	1.475549	0.453784	6
C	1.644653	1.891459	1.149004	6
H	-1.494037	0.623719	2.001054	1
H	-1.867377	-0.861981	1.123294	1
H	-2.085247	0.709419	0.334594	1
H	0.591623	-0.533791	1.209174	1
H	1.036503	-0.410041	-1.154906	1
H	-0.632387	-3.268170	-2.373226	1
H	-0.000417	-1.623031	-3.022076	1
H	0.071813	2.179529	-0.205246	1
H	2.181173	1.229279	1.821654	1
H	2.002793	2.912289	1.057154	1
Es	-1.442216	0.142168	1.017829	99
Es	0.072233	-0.512772	-0.827451	99
Es	0.002454	0.082264	0.517629	99
Es	0.300796	0.782754	0.473154	99
Es	-0.720534	0.117955	0.761598	99
Es	-1.868993	0.528398	0.549099	99
Es	1.644726	1.891494	1.149067	99
Es	-0.042372	-2.086182	-1.452712	99
Es	-0.112638	-0.355391	-1.028519	99
Es	1.889083	2.582280	1.099649	99
Es	0.650952	-0.478948	-1.017812	99
Es	1.324623	1.590635	0.553207	99
Es	0.577021	1.475490	0.453730	99
Es	0.409557	-0.333083	0.997382	99
Es	-0.533269	-2.929905	-2.314112	99
Es	-1.467112	0.474746	1.692278	99
Es	-1.721928	-0.533997	1.084033	99
Es	-0.317336	-2.234963	-2.159161	99
Es	-0.100948	-1.821345	-2.739083	99
Es	0.920184	1.772748	1.054635	99
Es	0.052309	-0.285239	-0.229837	99
Es	-0.128403	-1.157286	-0.881145	99
Es	2.006350	1.449910	1.608783	99
Es	-0.340646	-1.801059	-0.943362	99
Es	-0.445545	-1.978054	-0.654725	99
Es	-0.598746	-1.909154	-1.546912	99
Es	0.234725	1.940436	0.003939	99
44
Properties=species:S:1:pos:R:3:Z:I:1 energy=-304.0815373918017 field_type=dipole dipole="0.000000 0.000000 0.000000" charge=0
C	-1.442257	0.142159	1.017834	6
C	0.002473	0.082259	0.517784	6
N	0.071813	-0.512291	-0.827876	7
N	-0.340867	-1.801420	-0.942856	7
C	-0.317357	-2.234940	-2.159146	6
C	0.577103	1.475549	0.453784	6
C	1.644653	1.891459	1.149004	6
H	-1.494037	0.623719	2.001054	1
H	-1.867377	-0.861981	1.123294	1
H	-2.085247	0.709419	0.334594	1
H	0.591623	-0.533791	1.209174	1
H	1.036503	-0.410041	-1.154906	1
H	-0.632387	-3.268170	-2.373226	1
H	-0.000417	-1.623031	-3.022076	1
H	0.071813	2.179529	-0.205246	1
H	2.181173	1.229279	1.821654	1
H	2.002793	2.912289	1.057154	1
Es	0.072231	-0.512765	-0.827450	99
Es	-0.534129	-2.929548	-2.314695	99
Es	0.919815	1.772815	1.054948	99
Es	-0.599464	-1.909424	-1.546603	99
Es	-1.721517	-0.533544	1.083821	99
Es	-0.340645	-1.801057	-0.943361	99
Es	1.644728	1.891493	1.149071	99
Es	1.325038	1.590523	0.552925	99
Es	0.650199	-0.479109	-1.018263	99
Es	2.005687	1.450166	1.608806	99
Es	-1.442217	0.142168	1.017828	99
Es	-0.108775	-0.357423	-1.025354	99
Es	0.002454	0.082263	0.517628	99
Es	-0.101785	-1.821383	-2.738281	99
Es	-0.132403	-1.155717	-0.881705	99
Es	0.235533	1.940164	0.004098	99
Es	0.300742	0.782722	0.472447	99
Es	0.577022	1.475486	0.453727	99
Es	-0.317333	-2.234956	-2.159168	99
Es	0.409469	-0.332982	0.997302	99
Es	-0.443318	-1.978170	-0.657387	99
Es	0.052755	-0.285287	-0.229534	99
Es	-1.466747	0.474840	1.692825	99
Es	1.888946	2.582246	1.100325	99
Es	-0.042014	-2.085555	-1.453228	99
Es	-0.720895	0.117825	0.761594	99
Es	-1.869048	0.528108	0.548865	99
44
Properties=species:S:1:pos:R:3:Z:I:1 energy=-304.0815373918017 field_type=dipole dipole="0.000000 0.000000 0.000000" charge=0
C	-1.442257	0.142159	1.017834	6
C	0.002473	0.082259	0.517784	6
N	0.071813	-0.512291	-0.827876	7
N	-0.340867	-1.801420	-0.942856	7
C	-0.317357	-2.234940	-2.159146	6
C	0.577103	1.475549	0.453784	6
C	1.644653	1.891459	1.149004	6
H	-1.494037	0.623719	2.001054	1
H	-1.867377	-0.861981	1.123294	1
H	-2.085247	0.709419	0.334594	1
H	0.591623	-0.533791	1.209174	1
H	1.036503	-0.410041	-1.154906	1
H	-0.632387	-3.268170	-2.373226	1
H	-0.000417	-1.623031	-3.022076	1
H	0.071813	2.179529	-0.205246	1
H	2.181173	1.229279	1.821654	1
H	2.002793	2.912289	1.057154	1
Es	0.236309	1.939939	0.004104	99
Es	-0.721288	0.117839	0.761716	99
Es	1.644726	1.891491	1.149069	99
Es	-0.534674	-2.929279	-2.315359	99
Es	-0.102371	-1.821435	-2.737455	99
Es	-1.721088	-0.533329	1.083716	99
Es	-1.466338	0.474889	1.693186	99
Es	0.072177	-0.512712	-0.827495	99
Es	-0.137217	-1.153357	-0.883700	99
Es	-0.599992	-1.909762	-1.546358	99
Es	0.300589	0.782719	0.471989	99
Es	-0.104119	-0.359360	-1.022452	99
Es	1.888707	2.582119	1.100620	99
Es	-0.340667	-1.801140	-0.943319	99
Es	-1.869187	0.527928	0.548626	99
Es	0.409447	-0.332909	0.997171	99
Es	-0.441687	-1.978086	-0.659121	99
Es	1.325298	1.590287	0.552837	99
Es	0.002453	0.082263	0.517628	99
Es	-0.317336	-2.234964	-2.159163	99
Es	0.052980	-0.285389	-0.229376	99
Es	0.577023	1.475489	0.453729	99
Es	2.005238	1.450366	1.609174	99
Es	0.919655	1.773092	1.054952	99
Es	-1.442216	0.142166	1.017828	99
Es	0.649691	-0.480012	-1.017764	99
Es	-0.041784	-2.084958	-1.453602	99
44
Properties=species:S:1:pos:R:3:Z:I:1 energy=-304.0815373918017 field_type=dipole dipole="0.000000 0.000000 0.000000" charge=0
C	-1.442257	0.142159	1.017834	6
C	0.002473	0.082259	0.517784	6
N	0.071813	-0.512291	-0.827876	7
N	-0.340867	-1.801420	-0.942856	7
C	-0.317357	-2.234940	-2.159146	6
C	0.577103	1.475549	0.453784	6
C	1.644653	1.891459	1.149004	6
H	-1.494037	0.623719	2.001054	1
H	-1.867377	-0.861981	1.123294	1
H	-2.085247	0.709419	0.334594	1
H	0.591623	-0.533791	1.209174	1
H	1.036503	-0.410041	-1.154906	1
H	-0.632387	-3.268170	-2.373226	1
H	-0.000417	-1.623031	-3.022076	1
H	0.071813	2.179529	-0.205246	1
H	2.181173	1.229279	1.821654	1
H	2.002793	2.912289	1.057154	1
Es	-0.141437	-1.150809	-0.885818	99
Es	0.300437	0.782811	0.471773	99
Es	1.644727	1.891495	1.149070	99
Es	0.409393	-0.332861	0.997159	99
Es	-1.442216	0.142161	1.017827	99
Es	-0.100048	-0.361417	-1.019772	99
Es	-1.869472	0.527525	0.548274	99
Es	-1.720510	-0.532997	1.083821	99
Es	0.236828	1.939710	0.004091	99
Es	-0.535182	-2.928973	-2.315847	99
Es	-0.721389	0.117711	0.761689	99
Es	-1.466135	0.475031	1.693434	99
Es	0.919513	1.773243	1.054980	99
Es	-0.317337	-2.234964	-2.159162	99
Es	0.002454	0.082264	0.517631	99
Es	-0.102863	-1.821458	-2.736847	99
Es	-0.041518	-2.084744	-1.453904	99
Es	0.053222	-0.285645	-0.229250	99
Es	-0.340651	-1.801075	-0.943356	99
Es	2.004948	1.450508	1.609319	99
Es	1.888536	2.582125	1.100853	99
Es	0.072243	-0.512778	-0.827444	99
Es	0.649178	-0.480614	-1.017231	99
Es	0.577023	1.475489	0.453727	99
Es	1.325404	1.590185	0.552832	99
Es	-0.600316	-1.909928	-1.546119	99
Es	-0.440505	-1.978099	-0.660550	99
44
Properties=species:S:1:pos:R:3:Z:I:1 energy=-304.0815373918017 field_type=dipole dipole="0.000000 0.000000 0.000000" charge=0
C	-1.442257	0.142159	1.017834	6
C	0.002473	0.082259	0.517784	6
N	0.071813	-0.512291	-0.827876	7
N	-0.340867	-1.801420	-0.942856	7
C	-0.317357	-2.234940	-2.159146	6
C	0.577103	1.475549	0.453784	6
C	1.644653	1.891459	1.149004	6
H	-1.494037	0.623719	2.001054	1
H	-1.867377	-0.861981	1.123294	1
H	-2.085247	0.709419	0.334594	1
H	0.591623	-0.533791	1.209174	1
H	1.036503	-0.410041	-1.154906	1
H	-0.632387	-3.268170	-2.373226	1
H	-0.000417	-1.623031	-3.022076	1
H	0.071813	2.179529	-0.205246	1
H	2.181173	1.229279	1.821654	1
H	2.002793	2.912289	1.057154	1
Es	1.644731	1.891496	1.149070	99
Es	-1.720274	-0.532804	1.083767	99
Es	0.409358	-0.332844	0.997165	99
Es	1.325535	1.590146	0.552786	99
Es	0.002453	0.082264	0.517631	99
Es	-1.465833	0.474992	1.693644	99
Es	2.004583	1.450558	1.609429	99
Es	-0.144819	-1.148558	-0.887406	99
Es	1.888447	2.582108	1.101175	99
Es	0.053406	-0.285612	-0.229165	99
Es	-0.600528	-1.910195	-1.545944	99
Es	-0.721548	0.117605	0.761785	99
Es	0.577021	1.475488	0.453730	99
Es	-0.041457	-2.084377	-1.454115	99
Es	-0.096675	-0.363756	-1.017291	99
Es	0.919468	1.773302	1.054948	99
Es	0.072257	-0.512801	-0.827437	99
Es	-0.439463	-1.978036	-0.661844	99
Es	-1.442217	0.142168	1.017829	99
Es	0.648683	-0.480947	-1.017092	99
Es	-0.317340	-2.234963	-2.159164	99
Es	0.237239	1.939608	0.004116	99
Es	-0.340647	-1.801065	-0.943359	99
Es	0.300333	0.782837	0.471500	99
Es	-0.103296	-1.821482	-2.736308	99
Es	-1.869543	0.527518	0.548003	99
Es	-0.535546	-2.928750	-2.316273	99
44
Properties=species:S:1:pos:R:3:Z:I:1 energy=-304.0815373918017 field_type=dipole dipole="0.000000 0.000000 0.000000" charge=0
C	-1.442257	0.142159	1.017834	6
C	0.002473	0.082259	0.517784	6
N	0.071813	-0.512291	-0.827876	7
N	-0.340867	-1.801420	-0.942856	7
C	-0.317357	-2.234940	-2.159146	6
C	0.577103	1.475549	0.453784	6
C	1.644653	1.891459	1.149004	6
H	-1.494037	0.623719	2.001054	1
H	-1.867377	-0.861981	1.123294	1
H	-2.085247	0.709419	0.334594	1
H	0.591623	-0.533791	1.209174	1
H	1.036503	-0.410041	-1.154906	1
H	-0.632387	-3.268170	-2.373226	1
H	-0.000417	-1.623031	-3.022076	1
H	0.071813	2.179529	-0.205246	1
H	2.181173	1.229279	1.821654	1
H	2.002793	2.912289	1.057154	1
Es	0.053913	-0.285927	-0.229018	99
Es	1.888322	2.582048	1.101390	99
Es	0.002455	0.082263	0.517628	99
Es	-1.465473	0.475073	1.693813	99
Es	1.644727	1.891495	1.149071	99
Es	0.300304	0.782780	0.471202	99
Es	-0.147188	-1.146937	-0.888335	99
Es	-0.094582	-0.365590	-1.015162	99
Es	-0.340641	-1.801056	-0.943367	99
Es	-0.041401	-2.084119	-1.454313	99
Es	-0.438603	-1.977971	-0.663009	99
Es	0.072258	-0.512773	-0.827467	99
Es	2.004309	1.450627	1.609604	99
Es	0.919409	1.773379	1.054912	99
Es	-1.442217	0.142168	1.017829	99
Es	0.237542	1.939461	0.004283	99
Es	-0.721886	0.117675	0.761862	99
Es	0.409317	-0.332834	0.997169	99
Es	0.648181	-0.480938	-1.017320	99
Es	-1.869522	0.527455	0.547856	99
Es	-1.720092	-0.532759	1.083685	99
Es	-0.535867	-2.928545	-2.316608	99
Es	-0.600762	-1.910224	-1.545844	99
Es	0.577026	1.475488	0.453726	99
Es	-0.103608	-1.821541	-2.735864	99
Es	-0.317340	-2.234962	-2.159163	99
Es	1.325747	1.590164	0.552620	99
44
Properties=species:S:1:pos:R:3:Z:I:1 energy=-304.0815373918017 field_type=dipole dipole="0.000000 0.000000 0.000000" charge=0
C	-1.442257	0.142159	1.017834	6
C	0.002473	0.082259	0.517784	6
N	0.071813	-0.512291	-0.827876	7
N	-0.340867	-1.801420	-0.942856	7
C	-0.317357	-2.234940	-2.159146	6
C	0.577103	1.475549	0.453784	6
C	1.644653	1.891459	1.149004	6
H	-1.494037	0.623719	2.001054	1
H	-1.867377	-0.861981	1.123294	1
H	-2.085247	0.709419	0.334594	1
H	0.591623	-0.533791	1.209174	1
H	1.036503	-0.410041	-1.154906	1
H	-0.632387	-3.268170	-2.373226	1
H	-0.000417	-1.623031	-3.022076	1
H	0.071813	2.179529	-0.205246	1
H	2.181173	1.229279	1.821654	1
H	2.002793	2.912289	1.057154	1
Es	-1.465343	0.475117	1.693938	99
Es	-1.719969	-0.532602	1.083656	99
Es	-0.317341	-2.234962	-2.159164	99
Es	-0.340653	-1.801092	-0.943355	99
Es	1.644727	1.891496	1.149072	99
Es	2.004148	1.450750	1.609650	99
Es	0.053983	-0.285832	-0.228943	99
Es	-0.150179	-1.144618	-0.889838	99
Es	-0.091453	-0.367389	-1.013793	99
Es	-0.721899	0.117489	0.761856	99
Es	0.237851	1.939449	0.004202	99
Es	0.647714	-0.481942	-1.016364	99
Es	0.919466	1.773349	1.054908	99
Es	-1.442218	0.142168	1.017829	99
Es	0.072209	-0.512670	-0.827524	99
Es	1.325695	1.590047	0.552733	99
Es	0.300286	0.782882	0.471075	99
Es	0.002453	0.082263	0.517632	99
Es	0.409258	-0.332822	0.997099	99
Es	-0.536197	-2.928370	-2.316669	99
Es	-0.041125	-2.083990	-1.454499	99
Es	-0.104027	-1.821497	-2.735702	99
Es	0.577021	1.475491	0.453729	99
Es	-1.869532	0.527341	0.547756	99
Es	-0.600655	-1.910444	-1.545734	99
Es	1.888170	2.582090	1.101549	99
Es	-0.438059	-1.977803	-0.663918	99
44
Properties=species:S:1:pos:R:3:Z:I:1 energy=-304.0815373918017 field_type=dipole dipole="0.000000 0.000000 0.000000" charge=0
C	-1.442257	0.142159	1.017834	6
C	0.002473	0.082259	0.517784	6
N	0.071813	-0.512291	-0.827876	7
N	-0.340867	-1.801420	-0.942856	7
C	-0.317357	-2.234940	-2.159146	6
C	0.577103	1.475549	0.453784	6
C	1.644653	1.891459	1.149004	6
H	-1.494037	0.623719	2.001054	1
H	-1.867377	-0.861981	1.123294	1
H	-2.085247	0.709419	0.334594	1
H	0.591623	-0.533791	1.209174	1
H	1.036503	-0.410041	-1.154906	1
H	-0.632387	-3.268170	-2.373226	1
H	-0.000417	-1.623031	-3.022076	1
H	0.071813	2.179529	-0.205246	1
H	2.181173	1.229279	1.821654	1
H	2.002793	2.912289	1.057154	1
Es	0.647369	-0.481566	-1.016862	99
Es	-0.104270	-1.821552	-2.735318	99
Es	-1.869713	0.527209	0.547472	99
Es	0.238036	1.939314	0.004138	99
Es	-0.722022	0.117556	0.761815	99
Es	0.054224	-0.285915	-0.228871	99
Es	0.919455	1.773427	1.054845	99
Es	-1.719645	-0.532444	1.083747	99
Es	2.004056	1.450643	1.609701	99
Es	0.577026	1.475491	0.453725	99
Es	0.300354	0.782871	0.470978	99
Es	-0.340657	-1.801058	-0.943308	99
Es	0.002454	0.082263	0.517629	99
Es	-1.465084	0.475156	1.694038	99
Es	-0.152267	-1.142816	-0.891005	99
Es	-0.437572	-1.977794	-0.664744	99
Es	-0.600692	-1.910490	-1.545699	99
Es	-0.089472	-0.369711	-1.011540	99
Es	-0.317344	-2.234960	-2.159163	99
Es	0.409175	-0.332868	0.997227	99
Es	-1.442217	0.142168	1.017829	99
Es	0.072267	-0.512821	-0.827437	99
Es	1.644728	1.891495	1.149071	99
Es	1.888097	2.582135	1.101713	99
Es	-0.536373	-2.928224	-2.316974	99
Es	1.325591	1.590170	0.552783	99
Es	-0.041175	-2.083778	-1.454610	99
44
Properties=species:S:1:pos:R:3:Z:I:1 energy=-304.0815373918017 field_type=dipole dipole="0.000000 0.000000 0.000000" charge=0
C	-1.442257	0.142159	1.017834	6
C	0.002473	0.082259	0.517784	6
N	0.071813	-0.512291	-0.827876	7
N	-0.340867	-1.801420	-0.942856	7
C	-0.317357	-2.234940	-2.159146	6
C	0.577103	1.475549	0.453784	6
C	1.644653	1.891459	1.149004	6
H	-1.494037	0.623719	2.001054	1
H	-1.867377	-0.861981	1.123294	1
H	-2.085247	0.709419	0.334594	1
H	0.591623	-0.533791	1.209174	1
H	1.036503	-0.410041	-1.154906	1
H	-0.632387	-3.268170	-2.373226	1
H	-0.000417	-1.623031	-3.022076	1
H	0.071813	2.179529	-0.205246	1
H	2.181173	1.229279	1.821654	1
H	2.002793	2.912289	1.057154	1
Es	0.577023	1.475489	0.453728	99
Es	0.238431	1.939296	0.004308	99
Es	-0.041185	-2.083451	-1.454749	99
Es	0.072230	-0.512778	-0.827436	99
Es	0.300019	0.782915	0.470562	99
Es	0.919461	1.773426	1.054845	99
Es	2.003933	1.450743	1.609853	99
Es	1.887975	2.582113	1.101744	99
Es	-0.087970	-0.371396	-1.010016	99
Es	1.325610	1.590073	0.552829	99
Es	1.644730	1.891498	1.149071	99
Es	-0.317343	-2.234951	-2.159171	99
Es	-1.869925	0.527049	0.547297	99
Es	0.409309	-0.332811	0.997240	99
Es	0.647076	-0.481413	-1.017035	99
Es	-0.436800	-1.977765	-0.665325	99
Es	-0.722188	0.117477	0.761848	99
Es	-0.600953	-1.910763	-1.545508	99
Es	0.002454	0.082264	0.517629	99
Es	-0.536500	-2.928096	-2.317263	99
Es	-0.340648	-1.801070	-0.943362	99
Es	-1.464814	0.475215	1.694101	99
Es	-0.153856	-1.141441	-0.891925	99
Es	-1.719363	-0.532321	1.083861	99
Es	-0.104543	-1.821583	-2.734959	99
Es	0.054385	-0.285987	-0.228813	99
Es	-1.442218	0.142168	1.017829	99
44
Properties=species:S:1:pos:R:3:Z:I:1 energy=-304.0815373918017 field_type=dipole dipole="0.000000 0.000000 0.000000" charge=0
C	-1.442257	0.142159	1.017834	6
C	0.002473	0.082259	0.517784	6
N	0.071813	-0.512291	-0.827876	7
N	-0.340867	-1.801420	-0.942856	7
C	-0.317357	-2.234940	-2.159146	6
C	0.577103	1.475549	0.453784	6
C	1.644653	1.891459	1.149004	6
H	-1.494037	0.623719	2.001054	1
H	-1.867377	-0.861981	1.123294	1
H	-2.085247	0.709419	0.334594	1
H	0.591623	-0.533791	1.209174	1
H	1.036503	-0.410041	-1.154906	1
H	-0.632387	-3.268170	-2.373226	1
H	-0.000417	-1.623031	-3.022076	1
H	0.071813	2.179529	-0.205246	1
H	2.181173	1.229279	1.821654	1
H	2.002793	2.912289	1.057154	1
Es	-1.464673	0.475259	1.694159	99
Es	0.577029	1.475489	0.453727	99
Es	1.644727	1.891495	1.149071	99
Es	1.325737	1.590068	0.552813	99
Es	-1.719195	-0.532274	1.083867	99
Es	-0.155603	-1.139818	-0.892853	99
Es	-0.536687	-2.927936	-2.317445	99
Es	0.238690	1.939234	0.004400	99
Es	0.919492	1.773453	1.054704	99
Es	-0.104778	-1.821561	-2.734741	99
Es	0.646707	-0.481926	-1.016560	99
Es	-0.340641	-1.801060	-0.943373	99
Es	0.002455	0.082263	0.517630	99
Es	0.299897	0.782922	0.470482	99
Es	0.409248	-0.332808	0.997189	99
Es	-1.869957	0.526984	0.547126	99
Es	2.003671	1.450793	1.609920	99
Es	-0.317349	-2.234959	-2.159164	99
Es	1.887925	2.582144	1.101933	99
Es	0.072250	-0.512797	-0.827431	99
Es	-0.722330	0.117398	0.761935	99
Es	-1.442217	0.142168	1.017829	99
Es	-0.041084	-2.083425	-1.454890	99
Es	-0.600863	-1.910820	-1.545430	99
Es	0.054700	-0.286077	-0.228779	99
Es	-0.086330	-0.372570	-1.009090	99
Es	-0.436493	-1.977738	-0.665849	99
