46
Properties=species:S:1:pos:R:3:Z:I:1 energy=-272.09979828977674 field_type=dipole dipole="0.000000 0.000000 0.000000" charge=0
C	-2.013058	-1.023823	0.488204	6
C	-1.023848	-1.307433	-0.630446	6
C	0.319692	-0.711793	-0.338456	6
C	1.179042	-0.201453	-1.463816	6
C	0.552202	0.772557	-0.498556	6
C	1.404952	1.449907	0.480654	6
C	1.006782	1.890167	1.682574	6
H	-2.969528	-1.514853	0.285014	1
H	-2.195788	0.051477	0.584774	1
H	-1.636448	-1.386853	1.449914	1
H	-1.427938	-0.923423	-1.574466	1
H	-0.910798	-2.391333	-0.748066	1
H	0.819132	-1.227743	0.475554	1
H	0.786282	-0.226543	-2.474456	1
H	2.245692	-0.388373	-1.407886	1
H	-0.265018	1.378537	-0.879196	1
H	2.443792	1.612327	0.199734	1
H	-0.016998	1.762408	2.016874	1
H	1.701862	2.386237	2.352044	1
Es	0.664670	-1.052818	0.217064	99
Es	0.311446	1.806870	1.915894	99
Es	-1.298171	-1.036863	-1.277978	99
Es	-1.023849	-1.307414	-0.630413	99
Es	0.328174	0.083339	-0.258172	99
Es	0.983113	1.108403	-0.011156	99
Es	2.112157	1.553191	0.282841	99
Es	1.124568	1.962122	0.961167	99
Es	-2.667085	-1.360267	0.348687	99
Es	1.006745	1.890207	1.682664	99
Es	-1.518669	-1.163775	-0.065081	99
Es	-0.350746	-0.993200	-0.493769	99
Es	0.784043	-0.633467	-0.970559	99
Es	0.905619	-0.221473	-2.148535	99
Es	0.552261	0.772400	-0.498599	99
Es	1.472356	2.228182	2.142004	99
Es	1.178946	-0.201410	-1.463677	99
Es	-2.136010	-0.288347	0.551604	99
Es	1.404978	1.449866	0.480547	99
Es	-2.013048	-1.023828	0.488191	99
Es	1.282194	1.388371	1.226871	99
Es	-1.751995	-1.274145	1.143644	99
Es	1.905888	-0.319412	-1.419536	99
Es	-0.943875	-2.049615	-0.708600	99
Es	0.949985	0.428519	-1.073821	99
Es	0.319746	-0.711663	-0.338556	99
Es	-0.002583	1.177248	-0.751910	99
46
Properties=species:S:1:pos:R:3:Z:I:1 energy=-272.09979828977674 field_type=dipole dipole="0.000000 0.000000 0.000000" charge=0
C	-2.013058	-1.023823	0.488204	6
C	-1.023848	-1.307433	-0.630446	6
C	0.319692	-0.711793	-0.338456	6
C	1.179042	-0.201453	-1.463816	6
C	0.552202	0.772557	-0.498556	6
C	1.404952	1.449907	0.480654	6
C	1.006782	1.890167	1.682574	6
H	-2.969528	-1.514853	0.285014	1
H	-2.195788	0.051477	0.584774	1
H	-1.636448	-1.386853	1.449914	1
H	-1.427938	-0.923423	-1.574466	1
H	-0.910798	-2.391333	-0.748066	1
H	0.819132	-1.227743	0.475554	1
H	0.786282	-0.226543	-2.474456	1
H	2.245692	-0.388373	-1.407886	1
H	-0.265018	1.378537	-0.879196	1
H	2.443792	1.612327	0.199734	1
H	-0.016998	1.762408	2.016874	1
H	1.701862	2.386237	2.352044	1
Es	-1.518733	-1.163893	-0.065387	99
Es	0.312149	1.806891	1.916423	99
Es	-0.000936	1.176031	-0.750299	99
Es	1.903502	-0.319429	-1.419301	99
Es	-2.137519	-0.287732	0.552476	99
Es	1.283909	1.386138	1.228521	99
Es	0.662836	-1.052525	0.216547	99
Es	-2.013048	-1.023828	0.488191	99
Es	0.951557	0.428799	-1.075538	99
Es	1.178946	-0.201416	-1.463678	99
Es	0.786916	-0.635734	-0.973722	99
Es	-0.942570	-2.050222	-0.709468	99
Es	1.471116	2.229008	2.141113	99
Es	0.906463	-0.222228	-2.149439	99
Es	2.111132	1.553298	0.282447	99
Es	1.123071	1.963855	0.960082	99
Es	1.404979	1.449860	0.480551	99
Es	-1.023850	-1.307415	-0.630413	99
Es	1.006744	1.890212	1.682660	99
Es	-1.753546	-1.274692	1.143364	99
Es	-1.296610	-1.036595	-1.277497	99
Es	-2.664737	-1.359066	0.350020	99
Es	-0.350696	-0.993290	-0.493806	99
Es	0.552261	0.772405	-0.498597	99
Es	0.325064	0.086139	-0.255458	99
Es	0.982715	1.108101	-0.010420	99
Es	0.319747	-0.711651	-0.338558	99
46
Properties=species:S:1:pos:R:3:Z:I:1 energy=-272.09979828977674 field_type=dipole dipole="0.000000 0.000000 0.000000" charge=0
C	-2.013058	-1.023823	0.488204	6
C	-1.023848	-1.307433	-0.630446	6
C	0.319692	-0.711793	-0.338456	6
C	1.179042	-0.201453	-1.463816	6
C	0.552202	0.772557	-0.498556	6
C	1.404952	1.449907	0.480654	6
C	1.006782	1.890167	1.682574	6
H	-2.969528	-1.514853	0.285014	1
H	-2.195788	0.051477	0.584774	1
H	-1.636448	-1.386853	1.449914	1
H	-1.427938	-0.923423	-1.574466	1
H	-0.910798	-2.391333	-0.748066	1
H	0.819132	-1.227743	0.475554	1
H	0.786282	-0.226543	-2.474456	1
H	2.245692	-0.388373	-1.407886	1
H	-0.265018	1.378537	-0.879196	1
H	2.443792	1.612327	0.199734	1
H	-0.016998	1.762408	2.016874	1
H	1.701862	2.386237	2.352044	1
Es	0.000629	1.174643	-0.749090	99
Es	0.312655	1.806640	1.916729	99
Es	-2.013048	-1.023829	0.488192	99
Es	-0.350780	-0.993601	-0.493804	99
Es	1.284619	1.385113	1.229014	99
Es	2.110553	1.553330	0.282418	99
Es	-1.518731	-1.164042	-0.065446	99
Es	-0.941817	-2.050542	-0.710216	99
Es	0.788562	-0.636945	-0.975198	99
Es	0.319754	-0.711652	-0.338563	99
Es	1.122171	1.965158	0.959603	99
Es	1.901432	-0.319419	-1.418871	99
Es	0.552261	0.772407	-0.498599	99
Es	-1.023851	-1.307413	-0.630414	99
Es	0.982591	1.108163	-0.009853	99
Es	-2.663045	-1.357995	0.350852	99
Es	0.322919	0.087229	-0.254042	99
Es	0.661676	-1.052117	0.216067	99
Es	0.952548	0.429777	-1.077107	99
Es	1.404977	1.449867	0.480547	99
Es	-2.138349	-0.287359	0.553146	99
Es	1.178948	-0.201411	-1.463682	99
Es	-1.295654	-1.036198	-1.277062	99
Es	-1.754562	-1.275237	1.143103	99
Es	1.006747	1.890203	1.682670	99
Es	0.907187	-0.223079	-2.150334	99
Es	1.470468	2.229331	2.140757	99
46
Properties=species:S:1:pos:R:3:Z:I:1 energy=-272.09979828977674 field_type=dipole dipole="0.000000 0.000000 0.000000" charge=0
C	-2.013058	-1.023823	0.488204	6
C	-1.023848	-1.307433	-0.630446	6
C	0.319692	-0.711793	-0.338456	6
C	1.179042	-0.201453	-1.463816	6
C	0.552202	0.772557	-0.498556	6
C	1.404952	1.449907	0.480654	6
C	1.006782	1.890167	1.682574	6
H	-2.969528	-1.514853	0.285014	1
H	-2.195788	0.051477	0.584774	1
H	-1.636448	-1.386853	1.449914	1
H	-1.427938	-0.923423	-1.574466	1
H	-0.910798	-2.391333	-0.748066	1
H	0.819132	-1.227743	0.475554	1
H	0.786282	-0.226543	-2.474456	1
H	2.245692	-0.388373	-1.407886	1
H	-0.265018	1.378537	-0.879196	1
H	2.443792	1.612327	0.199734	1
H	-0.016998	1.762408	2.016874	1
H	1.701862	2.386237	2.352044	1
Es	0.982280	1.108643	-0.009440	99
Es	1.404976	1.449866	0.480548	99
Es	1.006745	1.890207	1.682668	99
Es	1.899573	-0.318937	-1.418519	99
Es	-1.755279	-1.275395	1.142945	99
Es	-1.518777	-1.164132	-0.065535	99
Es	-0.941232	-2.050748	-0.710774	99
Es	2.110050	1.553515	0.282233	99
Es	0.908005	-0.223443	-2.151120	99
Es	-2.013047	-1.023828	0.488191	99
Es	0.321175	0.088535	-0.252892	99
Es	0.319755	-0.711649	-0.338564	99
Es	0.660541	-1.051832	0.215741	99
Es	-2.139078	-0.287221	0.553489	99
Es	0.312993	1.806383	1.917079	99
Es	0.002167	1.173205	-0.748330	99
Es	-1.294840	-1.035997	-1.276670	99
Es	1.470080	2.229709	2.140319	99
Es	0.790105	-0.638758	-0.976618	99
Es	-2.661692	-1.357262	0.351555	99
Es	0.552261	0.772405	-0.498600	99
Es	-1.023851	-1.307415	-0.630413	99
Es	1.285394	1.384515	1.229587	99
Es	-0.350665	-0.993537	-0.493825	99
Es	1.121435	1.965679	0.959204	99
Es	0.952839	0.429925	-1.077768	99
Es	1.178947	-0.201409	-1.463679	99
46
Properties=species:S:1:pos:R:3:Z:I:1 energy=-272.09979828977674 field_type=dipole dipole="0.000000 0.000000 0.000000" charge=0
C	-2.013058	-1.023823	0.488204	6
C	-1.023848	-1.307433	-0.630446	6
C	0.319692	-0.711793	-0.338456	6
C	1.179042	-0.201453	-1.463816	6
C	0.552202	0.772557	-0.498556	6
C	1.404952	1.449907	0.480654	6
C	1.006782	1.890167	1.682574	6
H	-2.969528	-1.514853	0.285014	1
H	-2.195788	0.051477	0.584774	1
H	-1.636448	-1.386853	1.449914	1
H	-1.427938	-0.923423	-1.574466	1
H	-0.910798	-2.391333	-0.748066	1
H	0.819132	-1.227743	0.475554	1
H	0.786282	-0.226543	-2.474456	1
H	2.245692	-0.388373	-1.407886	1
H	-0.265018	1.378537	-0.879196	1
H	2.443792	1.612327	0.199734	1
H	-0.016998	1.762408	2.016874	1
H	1.701862	2.386237	2.352044	1
Es	0.790854	-0.639508	-0.977450	99
Es	0.552260	0.772399	-0.498595	99
Es	-1.518838	-1.164227	-0.065647	99
Es	0.003526	1.171932	-0.747688	99
Es	1.285722	1.384155	1.229858	99
Es	1.178948	-0.201423	-1.463691	99
Es	-2.139438	-0.287047	0.554027	99
Es	1.897929	-0.318689	-1.417999	99
Es	0.981949	1.109049	-0.009151	99
Es	0.953307	0.430256	-1.078527	99
Es	1.469863	2.229814	2.140030	99
Es	-2.013047	-1.023828	0.488191	99
Es	1.121000	1.966075	0.958973	99
Es	1.006743	1.890211	1.682665	99
Es	0.313149	1.806322	1.917315	99
Es	0.659977	-1.051630	0.215126	99
Es	-2.660607	-1.356452	0.352015	99
Es	0.319756	-0.711647	-0.338566	99
Es	-0.940786	-2.050851	-0.711159	99
Es	-0.350856	-0.993799	-0.493783	99
Es	2.109789	1.553600	0.282213	99
Es	0.319807	0.089224	-0.251792	99
Es	0.908893	-0.223754	-2.151920	99
Es	-1.294254	-1.035782	-1.276441	99
Es	-1.755911	-1.275827	1.142677	99
Es	1.404977	1.449863	0.480549	99
Es	-1.023850	-1.307414	-0.630413	99
46
Properties=species:S:1:pos:R:3:Z:I:1 energy=-272.09979828977674 field_type=dipole dipole="0.000000 0.000000 0.000000" charge=0
C	-2.013058	-1.023823	0.488204	6
C	-1.023848	-1.307433	-0.630446	6
C	0.319692	-0.711793	-0.338456	6
C	1.179042	-0.201453	-1.463816	6
C	0.552202	0.772557	-0.498556	6
C	1.404952	1.449907	0.480654	6
C	1.006782	1.890167	1.682574	6
H	-2.969528	-1.514853	0.285014	1
H	-2.195788	0.051477	0.584774	1
H	-1.636448	-1.386853	1.449914	1
H	-1.427938	-0.923423	-1.574466	1
H	-0.910798	-2.391333	-0.748066	1
H	0.819132	-1.227743	0.475554	1
H	0.786282	-0.226543	-2.474456	1
H	2.245692	-0.388373	-1.407886	1
H	-0.265018	1.378537	-0.879196	1
H	2.443792	1.612327	0.199734	1
H	-0.016998	1.762408	2.016874	1
H	1.701862	2.386237	2.352044	1
Es	0.981536	1.109712	-0.008943	99
Es	-2.139745	-0.287012	0.554392	99
Es	-1.756271	-1.275996	1.142456	99
Es	-1.518895	-1.164235	-0.065707	99
Es	1.896378	-0.318394	-1.417501	99
Es	-2.013047	-1.023829	0.488191	99
Es	2.109610	1.553771	0.282141	99
Es	0.659512	-1.051427	0.214778	99
Es	1.178951	-0.201407	-1.463683	99
Es	1.469672	2.229984	2.139765	99
Es	1.286053	1.383965	1.230025	99
Es	1.404977	1.449865	0.480550	99
Es	-0.350941	-0.993953	-0.493673	99
Es	1.006742	1.890216	1.682664	99
Es	0.909865	-0.224118	-2.152588	99
Es	0.319757	-0.711654	-0.338570	99
Es	0.552265	0.772399	-0.498608	99
Es	-0.940550	-2.050946	-0.711675	99
Es	0.791413	-0.640371	-0.978121	99
Es	0.953470	0.430675	-1.079134	99
Es	-1.293723	-1.035515	-1.276092	99
Es	0.318836	0.089754	-0.251158	99
Es	1.120748	1.966140	0.958953	99
Es	-1.023850	-1.307416	-0.630413	99
Es	-2.659849	-1.355960	0.352430	99
Es	0.313190	1.806153	1.917503	99
Es	0.004756	1.170621	-0.747167	99
46
Properties=species:S:1:pos:R:3:Z:I:1 energy=-272.09979828977674 field_type=dipole dipole="0.000000 0.000000 0.000000" charge=0
C	-2.013058	-1.023823	0.488204	6
C	-1.023848	-1.307433	-0.630446	6
C	0.319692	-0.711793	-0.338456	6
C	1.179042	-0.201453	-1.463816	6
C	0.552202	0.772557	-0.498556	6
C	1.404952	1.449907	0.480654	6
C	1.006782	1.890167	1.682574	6
H	-2.969528	-1.514853	0.285014	1
H	-2.195788	0.051477	0.584774	1
H	-1.636448	-1.386853	1.449914	1
H	-1.427938	-0.923423	-1.574466	1
H	-0.910798	-2.391333	-0.748066	1
H	0.819132	-1.227743	0.475554	1
H	0.786282	-0.226543	-2.474456	1
H	2.245692	-0.388373	-1.407886	1
H	-0.265018	1.378537	-0.879196	1
H	2.443792	1.612327	0.199734	1
H	-0.016998	1.762408	2.016874	1
H	1.701862	2.386237	2.352044	1
Es	1.469569	2.230048	2.139507	99
Es	-1.023850	-1.307415	-0.630414	99
Es	0.792015	-0.640930	-0.978550	99
Es	0.318076	0.090152	-0.250578	99
Es	0.953631	0.430903	-1.079561	99
Es	1.120476	1.966209	0.958841	99
Es	0.981182	1.110291	-0.008686	99
Es	-1.518947	-1.164223	-0.065783	99
Es	-1.293443	-1.035486	-1.275827	99
Es	1.286229	1.383919	1.230155	99
Es	0.319753	-0.711649	-0.338561	99
Es	1.895081	-0.318138	-1.417151	99
Es	-0.940334	-2.051016	-0.711938	99
Es	-2.139892	-0.286929	0.554790	99
Es	2.109564	1.553837	0.282059	99
Es	1.178949	-0.201415	-1.463687	99
Es	0.005837	1.169459	-0.746755	99
Es	0.659033	-1.051290	0.214459	99
Es	0.910576	-0.224416	-2.153155	99
Es	0.552261	0.772403	-0.498601	99
Es	0.313208	1.806103	1.917709	99
Es	-2.659163	-1.355392	0.352628	99
Es	1.404978	1.449866	0.480548	99
Es	-1.756690	-1.276360	1.142279	99
Es	-0.350936	-0.993890	-0.493767	99
Es	1.006743	1.890211	1.682665	99
Es	-2.013047	-1.023829	0.488191	99
46
Properties=species:S:1:pos:R:3:Z:I:1 energy=-272.09979828977674 field_type=dipole dipole="0.000000 0.000000 0.000000" charge=0
C	-2.013058	-1.023823	0.488204	6
C	-1.023848	-1.307433	-0.630446	6
C	0.319692	-0.711793	-0.338456	6
C	1.179042	-0.201453	-1.463816	6
C	0.552202	0.772557	-0.498556	6
C	1.404952	1.449907	0.480654	6
C	1.006782	1.890167	1.682574	6
H	-2.969528	-1.514853	0.285014	1
H	-2.195788	0.051477	0.584774	1
H	-1.636448	-1.386853	1.449914	1
H	-1.427938	-0.923423	-1.574466	1
H	-0.910798	-2.391333	-0.748066	1
H	0.819132	-1.227743	0.475554	1
H	0.786282	-0.226543	-2.474456	1
H	2.245692	-0.388373	-1.407886	1
H	-0.265018	1.378537	-0.879196	1
H	2.443792	1.612327	0.199734	1
H	-0.016998	1.762408	2.016874	1
H	1.701862	2.386237	2.352044	1
Es	0.313175	1.806129	1.917785	99
Es	1.286386	1.383781	1.230295	99
Es	-2.140033	-0.286902	0.555021	99
Es	0.911378	-0.224748	-2.153618	99
Es	-0.940174	-2.051039	-0.712241	99
Es	0.319758	-0.711647	-0.338571	99
Es	1.893896	-0.317837	-1.416799	99
Es	0.980925	1.110762	-0.008424	99
Es	0.006849	1.168500	-0.746400	99
Es	-1.293083	-1.035307	-1.275639	99
Es	1.469477	2.230168	2.139319	99
Es	0.792443	-0.641367	-0.978773	99
Es	0.317220	0.090554	-0.250174	99
Es	1.178949	-0.201418	-1.463682	99
Es	1.404974	1.449869	0.480549	99
Es	-0.350962	-0.994067	-0.493777	99
Es	-1.518982	-1.164382	-0.065847	99
Es	-2.658577	-1.354923	0.352891	99
Es	0.552264	0.772403	-0.498601	99
Es	2.109523	1.553958	0.281978	99
Es	-1.023850	-1.307413	-0.630415	99
Es	-1.757057	-1.276494	1.142145	99
Es	-2.013047	-1.023828	0.488191	99
Es	0.658678	-1.051147	0.214222	99
Es	1.006743	1.890211	1.682668	99
Es	0.953691	0.431081	-1.080089	99
Es	1.120295	1.966126	0.958801	99
46
Properties=species:S:1:pos:R:3:Z:I:1 energy=-272.09979828977674 field_type=dipole dipole="0.000000 0.000000 0.000000" charge=0
C	-2.013058	-1.023823	0.488204	6
C	-1.023848	-1.307433	-0.630446	6
C	0.319692	-0.711793	-0.338456	6
C	1.179042	-0.201453	-1.463816	6
C	0.552202	0.772557	-0.498556	6
C	1.404952	1.449907	0.480654	6
C	1.006782	1.890167	1.682574	6
H	-2.969528	-1.514853	0.285014	1
H	-2.195788	0.051477	0.584774	1
H	-1.636448	-1.386853	1.449914	1
H	-1.427938	-0.923423	-1.574466	1
H	-0.910798	-2.391333	-0.748066	1
H	0.819132	-1.227743	0.475554	1
H	0.786282	-0.226543	-2.474456	1
H	2.245692	-0.388373	-1.407886	1
H	-0.265018	1.378537	-0.879196	1
H	2.443792	1.612327	0.199734	1
H	-0.016998	1.762408	2.016874	1
H	1.701862	2.386237	2.352044	1
Es	0.316697	0.090818	-0.249852	99
Es	1.469410	2.230195	2.139140	99
Es	-2.140147	-0.286924	0.555238	99
Es	1.892938	-0.317700	-1.416450	99
Es	0.953598	0.431387	-1.080300	99
Es	1.286536	1.383783	1.230337	99
Es	-0.351095	-0.994119	-0.493691	99
Es	-0.940021	-2.051087	-0.712457	99
Es	0.552261	0.772399	-0.498599	99
Es	-2.013048	-1.023829	0.488192	99
Es	0.658369	-1.051009	0.213967	99
Es	0.792732	-0.641884	-0.979261	99
Es	0.007849	1.167429	-0.746037	99
Es	-1.757358	-1.276672	1.142071	99
Es	1.404977	1.449866	0.480548	99
Es	1.120101	1.966228	0.958751	99
Es	1.006745	1.890208	1.682669	99
Es	-2.658122	-1.354550	0.353005	99
Es	0.319757	-0.711646	-0.338569	99
Es	2.109436	1.554038	0.281959	99
Es	-1.519026	-1.164328	-0.065910	99
Es	0.313183	1.805998	1.917964	99
Es	0.980575	1.111326	-0.008310	99
Es	-1.023850	-1.307415	-0.630414	99
Es	0.912152	-0.224881	-2.154004	99
Es	1.178953	-0.201412	-1.463689	99
Es	-1.292742	-1.035197	-1.275483	99
46
Properties=species:S:1:pos:R:3:Z:I:1 energy=-272.09979828977674 field_type=dipole dipole="0.000000 0.000000 0.000000" charge=0
C	-2.013058	-1.023823	0.488204	6
C	-1.023848	-1.307433	-0.630446	6
C	0.319692	-0.711793	-0.338456	6
C	1.179042	-0.201453	-1.463816	6
C	0.552202	0.772557	-0.498556	6
C	1.404952	1.449907	0.480654	6
C	1.006782	1.890167	1.682574	6
H	-2.969528	-1.514853	0.285014	1
H	-2.195788	0.051477	0.584774	1
H	-1.636448	-1.386853	1.449914	1
H	-1.427938	-0.923423	-1.574466	1
H	-0.910798	-2.391333	-0.748066	1
H	0.819132	-1.227743	0.475554	1
H	0.786282	-0.226543	-2.474456	1
H	2.245692	-0.388373	-1.407886	1
H	-0.265018	1.378537	-0.879196	1
H	2.443792	1.612327	0.199734	1
H	-0.016998	1.762408	2.016874	1
H	1.701862	2.386237	2.352044	1
Es	-2.013047	-1.023828	0.488191	99
Es	-1.292543	-1.035055	-1.275250	99
Es	2.109398	1.554056	0.281869	99
Es	0.316227	0.091089	-0.249362	99
Es	0.008534	1.166624	-0.745771	99
Es	-0.350930	-0.994205	-0.493647	99
Es	1.178950	-0.201414	-1.463686	99
Es	-2.657698	-1.354259	0.353149	99
Es	1.892019	-0.317560	-1.416129	99
Es	0.313186	1.805996	1.918136	99
Es	0.980232	1.111861	-0.008202	99
Es	-1.023850	-1.307414	-0.630414	99
Es	0.658133	-1.050931	0.213644	99
Es	1.404977	1.449866	0.480549	99
Es	-0.940055	-2.051064	-0.712784	99
Es	0.912879	-0.225020	-2.154402	99
Es	0.953654	0.431373	-1.080583	99
Es	0.792889	-0.642083	-0.979568	99
Es	0.552262	0.772408	-0.498597	99
Es	-1.519072	-1.164376	-0.065939	99
Es	-1.757554	-1.276889	1.141890	99
Es	1.120011	1.966250	0.958708	99
Es	1.286644	1.383698	1.230434	99
Es	-2.140256	-0.286872	0.555539	99
Es	1.006743	1.890207	1.682668	99
Es	1.469364	2.230212	2.138937	99
Es	0.319761	-0.711648	-0.338566	99
46
Properties=species:S:1:pos:R:3:Z:I:1 energy=-272.09979828977674 field_type=dipole dipole="0.000000 0.000000 0.000000" charge=0
C	-2.013058	-1.023823	0.488204	6
C	-1.023848	-1.307433	-0.630446	6
C	0.319692	-0.711793	-0.338456	6
C	1.179042	-0.201453	-1.463816	6
C	0.552202	0.772557	-0.498556	6
C	1.404952	1.449907	0.480654	6
C	1.006782	1.890167	1.682574	6
H	-2.969528	-1.514853	0.285014	1
H	-2.195788	0.051477	0.584774	1
H	-1.636448	-1.386853	1.449914	1
H	-1.427938	-0.923423	-1.574466	1
H	-0.910798	-2.391333	-0.748066	1
H	0.819132	-1.227743	0.475554	1
H	0.786282	-0.226543	-2.474456	1
H	2.245692	-0.388373	-1.407886	1
H	-0.265018	1.378537	-0.879196	1
H	2.443792	1.612327	0.199734	1
H	-0.016998	1.762408	2.016874	1
H	1.701862	2.386237	2.352044	1
Es	-0.939860	-2.051049	-0.712894	99
Es	0.313129	1.805949	1.918273	99
Es	-1.519103	-1.164381	-0.065901	99
Es	-2.013047	-1.023829	0.488191	99
Es	0.009174	1.165894	-0.745515	99
Es	1.404977	1.449865	0.480548	99
Es	-0.351136	-0.994302	-0.493834	99
Es	1.119812	1.966051	0.958630	99
Es	1.286771	1.383708	1.230585	99
Es	1.891116	-0.317364	-1.415861	99
Es	0.552259	0.772415	-0.498598	99
Es	0.319756	-0.711647	-0.338567	99
Es	0.315869	0.091331	-0.249203	99
Es	2.109433	1.554185	0.281801	99
Es	-1.023850	-1.307415	-0.630413	99
Es	1.006744	1.890208	1.682668	99
Es	0.980014	1.112303	-0.008013	99
Es	-2.140246	-0.286887	0.555632	99
Es	0.913624	-0.225222	-2.154685	99
Es	-2.657430	-1.353958	0.353261	99
Es	-1.757761	-1.276966	1.141858	99
Es	1.178950	-0.201418	-1.463689	99
Es	0.657927	-1.050899	0.213536	99
Es	-1.292333	-1.035061	-1.275159	99
Es	0.953537	0.431469	-1.080785	99
Es	1.469335	2.230305	2.138735	99
Es	0.793201	-0.642263	-0.979787	99
46
Properties=species:S:1:pos:R:3:Z:I:1 energy=-272.09979828977674 field_type=dipole dipole="0.000000 0.000000 0.000000" charge=0
C	-2.013058	-1.023823	0.488204	6
C	-1.023848	-1.307433	-0.630446	6
C	0.319692	-0.711793	-0.338456	6
C	1.179042	-0.201453	-1.463816	6
C	0.552202	0.772557	-0.498556	6
C	1.404952	1.449907	0.480654	6
C	1.006782	1.890167	1.682574	6
H	-2.969528	-1.514853	0.285014	1
H	-2.195788	0.051477	0.584774	1
H	-1.636448	-1.386853	1.449914	1
H	-1.427938	-0.923423	-1.574466	1
H	-0.910798	-2.391333	-0.748066	1
H	0.819132	-1.227743	0.475554	1
H	0.786282	-0.226543	-2.474456	1
H	2.245692	-0.388373	-1.407886	1
H	-0.265018	1.378537	-0.879196	1
H	2.443792	1.612327	0.199734	1
H	-0.016998	1.762408	2.016874	1
H	1.701862	2.386237	2.352044	1
Es	0.313112	1.805996	1.918368	99
Es	2.109372	1.554097	0.281831	99
Es	0.979674	1.112662	-0.008079	99
Es	-2.140395	-0.286867	0.555832	99
Es	0.319751	-0.711648	-0.338560	99
Es	1.006742	1.890203	1.682670	99
Es	-1.519078	-1.164446	-0.065955	99
Es	-0.939804	-2.051073	-0.713052	99
Es	1.404975	1.449865	0.480548	99
Es	-1.757921	-1.277030	1.141690	99
Es	-1.292209	-1.034941	-1.275056	99
Es	1.286728	1.383684	1.230500	99
Es	-0.351215	-0.994306	-0.493586	99
Es	1.178951	-0.201410	-1.463685	99
Es	-2.657117	-1.353827	0.353376	99
Es	0.657838	-1.050716	0.213330	99
Es	0.953548	0.431599	-1.080887	99
Es	0.914201	-0.225432	-2.155000	99
Es	0.315613	0.091443	-0.248967	99
Es	0.793334	-0.642534	-0.980047	99
Es	0.009825	1.165268	-0.745330	99
Es	1.469326	2.230209	2.138651	99
Es	1.119879	1.966254	0.958680	99
Es	-2.013046	-1.023828	0.488191	99
Es	1.890362	-0.317192	-1.415631	99
Es	0.552264	0.772407	-0.498603	99
Es	-1.023848	-1.307415	-0.630412	99
46
Properties=species:S:1:pos:R:3:Z:I:1 energy=-272.09979828977674 field_type=dipole dipole="0.000000 0.000000 0.000000" charge=0
C	-2.013058	-1.023823	0.488204	6
C	-1.023848	-1.307433	-0.630446	6
C	0.319692	-0.711793	-0.338456	6
C	1.179042	-0.201453	-1.463816	6
C	0.552202	0.772557	-0.498556	6
C	1.404952	1.449907	0.480654	6
C	1.006782	1.890167	1.682574	6
H	-2.969528	-1.514853	0.285014	1
H	-2.195788	0.051477	0.584774	1
H	-1.636448	-1.386853	1.449914	1
H	-1.427938	-0.923423	-1.574466	1
H	-0.910798	-2.391333	-0.748066	1
H	0.819132	-1.227743	0.475554	1
H	0.786282	-0.226543	-2.474456	1
H	2.245692	-0.388373	-1.407886	1
H	-0.265018	1.378537	-0.879196	1
H	2.443792	1.612327	0.199734	1
H	-0.016998	1.762408	2.016874	1
H	1.701862	2.386237	2.352044	1
Es	0.313073	1.806013	1.918465	99
Es	1.286732	1.383659	1.230514	99
Es	-1.023850	-1.307414	-0.630413	99
Es	-1.292027	-1.034907	-1.274877	99
Es	1.889720	-0.317140	-1.415476	99
Es	-1.758107	-1.277186	1.141712	99
Es	-0.939768	-2.051138	-0.713217	99
Es	0.010473	1.164565	-0.745098	99
Es	-1.519103	-1.164340	-0.066043	99
Es	1.469300	2.230188	2.138530	99
Es	0.979352	1.113117	-0.007920	99
Es	1.404976	1.449865	0.480547	99
Es	0.552264	0.772406	-0.498600	99
Es	-2.140432	-0.286929	0.555956	99
Es	2.109441	1.554129	0.281750	99
Es	1.006745	1.890209	1.682668	99
Es	1.119832	1.966212	0.958685	99
Es	-2.013047	-1.023828	0.488191	99
Es	0.319754	-0.711647	-0.338571	99
Es	1.178949	-0.201422	-1.463686	99
Es	-0.351175	-0.994276	-0.493613	99
Es	0.914632	-0.225625	-2.155204	99
Es	-2.656839	-1.353547	0.353406	99
Es	0.953630	0.431748	-1.081179	99
Es	0.657651	-1.050702	0.213178	99
Es	0.315246	0.091653	-0.248763	99
Es	0.793439	-0.642643	-0.980126	99
46
Properties=species:S:1:pos:R:3:Z:I:1 energy=-272.09979828977674 field_type=dipole dipole="0.000000 0.000000 0.000000" charge=0
C	-2.013058	-1.023823	0.488204	6
C	-1.023848	-1.307433	-0.630446	6
C	0.319692	-0.711793	-0.338456	6
C	1.179042	-0.201453	-1.463816	6
C	0.552202	0.772557	-0.498556	6
C	1.404952	1.449907	0.480654	6
C	1.006782	1.890167	1.682574	6
H	-2.969528	-1.514853	0.285014	1
H	-2.195788	0.051477	0.584774	1
H	-1.636448	-1.386853	1.449914	1
H	-1.427938	-0.923423	-1.574466	1
H	-0.910798	-2.391333	-0.748066	1
H	0.819132	-1.227743	0.475554	1
H	0.786282	-0.226543	-2.474456	1
H	2.245692	-0.388373	-1.407886	1
H	-0.265018	1.378537	-0.879196	1
H	2.443792	1.612327	0.199734	1
H	-0.016998	1.762408	2.016874	1
H	1.701862	2.386237	2.352044	1
Es	1.178950	-0.201414	-1.463685	99
Es	0.953659	0.431690	-1.081259	99
Es	1.889089	-0.316982	-1.415303	99
Es	1.469296	2.230272	2.138343	99
Es	-2.013046	-1.023829	0.488191	99
Es	-1.519106	-1.164533	-0.066057	99
Es	-2.140527	-0.286909	0.556046	99
Es	-1.291957	-1.034827	-1.274891	99
Es	0.979075	1.113352	-0.007874	99
Es	0.793606	-0.642905	-0.980277	99
Es	0.552255	0.772407	-0.498601	99
Es	1.119684	1.966145	0.958683	99
Es	-2.656645	-1.353488	0.353557	99
Es	-0.939635	-2.051098	-0.713283	99
Es	-1.758203	-1.277113	1.141567	99
Es	0.315033	0.091820	-0.248549	99
Es	-1.023848	-1.307415	-0.630414	99
Es	0.915208	-0.225646	-2.155416	99
Es	1.286830	1.383647	1.230556	99
Es	1.404976	1.449865	0.480547	99
Es	0.319756	-0.711648	-0.338567	99
Es	-0.351203	-0.994354	-0.493520	99
Es	0.010819	1.164150	-0.744944	99
Es	1.006751	1.890212	1.682671	99
Es	0.657514	-1.050513	0.212975	99
Es	2.109415	1.554181	0.281686	99
Es	0.313112	1.805955	1.918634	99
46
Properties=species:S:1:pos:R:3:Z:I:1 energy=-272.09979828977674 field_type=dipole dipole="0.000000 0.000000 0.000000" charge=0
C	-2.013058	-1.023823	0.488204	6
C	-1.023848	-1.307433	-0.630446	6
C	0.319692	-0.711793	-0.338456	6
C	1.179042	-0.201453	-1.463816	6
C	0.552202	0.772557	-0.498556	6
C	1.404952	1.449907	0.480654	6
C	1.006782	1.890167	1.682574	6
H	-2.969528	-1.514853	0.285014	1
H	-2.195788	0.051477	0.584774	1
H	-1.636448	-1.386853	1.449914	1
H	-1.427938	-0.923423	-1.574466	1
H	-0.910798	-2.391333	-0.748066	1
H	0.819132	-1.227743	0.475554	1
H	0.786282	-0.226543	-2.474456	1
H	2.245692	-0.388373	-1.407886	1
H	-0.265018	1.378537	-0.879196	1
H	2.443792	1.612327	0.199734	1
H	-0.016998	1.762408	2.016874	1
H	1.701862	2.386237	2.352044	1
Es	0.978873	1.113748	-0.007730	99
Es	1.469322	2.230191	2.138301	99
Es	0.915565	-0.225924	-2.155579	99
Es	0.313049	1.806008	1.918684	99
Es	1.178950	-0.201412	-1.463686	99
Es	0.657319	-1.050546	0.212883	99
Es	0.953559	0.431774	-1.081423	99
Es	1.006744	1.890208	1.682669	99
Es	-1.758389	-1.277256	1.141640	99
Es	-2.013045	-1.023828	0.488192	99
Es	1.286759	1.383678	1.230519	99
Es	-0.939456	-2.051092	-0.713347	99
Es	-2.656536	-1.353298	0.353460	99
Es	-2.140492	-0.286950	0.556087	99
Es	-1.291922	-1.034906	-1.274776	99
Es	0.552268	0.772402	-0.498606	99
Es	2.109441	1.554143	0.281622	99
Es	0.314962	0.091844	-0.248415	99
Es	1.119677	1.966192	0.958663	99
Es	1.404977	1.449865	0.480549	99
Es	0.011252	1.163624	-0.744810	99
Es	-1.518935	-1.164386	-0.065872	99
Es	0.793838	-0.642897	-0.980277	99
Es	-0.351450	-0.994284	-0.493773	99
Es	0.319757	-0.711648	-0.338568	99
Es	1.888622	-0.316814	-1.415176	99
Es	-1.023849	-1.307415	-0.630413	99
46
Properties=species:S:1:pos:R:3:Z:I:1 energy=-272.09979828977674 field_type=dipole dipole="0.000000 0.000000 0.000000" charge=0
C	-2.013058	-1.023823	0.488204	6
C	-1.023848	-1.307433	-0.630446	6
C	0.319692	-0.711793	-0.338456	6
C	1.179042	-0.201453	-1.463816	6
C	0.552202	0.772557	-0.498556	6
C	1.404952	1.449907	0.480654	6
C	1.006782	1.890167	1.682574	6
H	-2.969528	-1.514853	0.285014	1
H	-2.195788	0.051477	0.584774	1
H	-1.636448	-1.386853	1.449914	1
H	-1.427938	-0.923423	-1.574466	1
H	-0.910798	-2.391333	-0.748066	1
H	0.819132	-1.227743	0.475554	1
H	0.786282	-0.226543	-2.474456	1
H	2.245692	-0.388373	-1.407886	1
H	-0.265018	1.378537	-0.879196	1
H	2.443792	1.612327	0.199734	1
H	-0.016998	1.762408	2.016874	1
H	1.701862	2.386237	2.352044	1
Es	1.286878	1.383644	1.230651	99
Es	1.404976	1.449863	0.480550	99
Es	-1.291711	-1.034648	-1.274597	99
Es	-2.656343	-1.353130	0.353609	99
Es	0.916012	-0.225925	-2.155719	99
Es	-0.351269	-0.994423	-0.493566	99
Es	-2.013047	-1.023829	0.488191	99
Es	1.469197	2.230224	2.138288	99
Es	1.119693	1.966158	0.958616	99
Es	-1.023849	-1.307414	-0.630413	99
Es	2.109458	1.554181	0.281619	99
Es	0.657267	-1.050475	0.212782	99
Es	-1.519106	-1.164606	-0.065959	99
Es	-2.140493	-0.286927	0.556211	99
Es	0.314686	0.091922	-0.248367	99
Es	0.313000	1.805969	1.918630	99
Es	0.011710	1.163169	-0.744588	99
Es	-0.939604	-2.051064	-0.713697	99
Es	-1.758440	-1.277303	1.141535	99
Es	0.953530	0.432006	-1.081520	99
Es	0.552264	0.772403	-0.498603	99
Es	0.978655	1.113984	-0.007696	99
Es	1.178954	-0.201414	-1.463692	99
Es	1.006745	1.890200	1.682674	99
Es	0.319754	-0.711650	-0.338568	99
Es	0.793776	-0.643028	-0.980538	99
Es	1.888166	-0.316864	-1.415015	99
46
Properties=species:S:1:pos:R:3:Z:I:1 energy=-272.09979828977674 field_type=dipole dipole="0.000000 0.000000 0.000000" charge=0
C	-2.013058	-1.023823	0.488204	6
C	-1.023848	-1.307433	-0.630446	6
C	0.319692	-0.711793	-0.338456	6
C	1.179042	-0.201453	-1.463816	6
C	0.552202	0.772557	-0.498556	6
C	1.404952	1.449907	0.480654	6
C	1.006782	1.890167	1.682574	6
H	-2.969528	-1.514853	0.285014	1
H	-2.195788	0.051477	0.584774	1
H	-1.636448	-1.386853	1.449914	1
H	-1.427938	-0.923423	-1.574466	1
H	-0.910798	-2.391333	-0.748066	1
H	0.819132	-1.227743	0.475554	1
H	0.786282	-0.226543	-2.474456	1
H	2.245692	-0.388373	-1.407886	1
H	-0.265018	1.378537	-0.879196	1
H	2.443792	1.612327	0.199734	1
H	-0.016998	1.762408	2.016874	1
H	1.701862	2.386237	2.352044	1
Es	1.887698	-0.316728	-1.414902	99
Es	-2.013047	-1.023828	0.488191	99
Es	-2.140618	-0.286916	0.556306	99
Es	0.916422	-0.226059	-2.155864	99
Es	0.552243	0.772405	-0.498613	99
Es	-1.758542	-1.277394	1.141489	99
Es	1.178951	-0.201413	-1.463684	99
Es	1.469260	2.230124	2.138144	99
Es	0.978479	1.114343	-0.007723	99
Es	-1.023850	-1.307415	-0.630413	99
Es	1.006747	1.890211	1.682669	99
Es	1.119680	1.966193	0.958664	99
Es	-2.656079	-1.353016	0.353652	99
Es	0.312985	1.806003	1.918817	99
Es	-0.939577	-2.051052	-0.713602	99
Es	2.109463	1.554191	0.281566	99
Es	1.404975	1.449864	0.480547	99
Es	0.319754	-0.711650	-0.338567	99
Es	-1.519129	-1.164515	-0.066030	99
Es	0.012158	1.162798	-0.744555	99
Es	0.793954	-0.643085	-0.980731	99
Es	0.657174	-1.050422	0.212598	99
Es	0.953413	0.431798	-1.081469	99
Es	0.314439	0.092095	-0.248056	99
Es	1.286842	1.383633	1.230579	99
Es	-1.291643	-1.034705	-1.274663	99
Es	-0.351291	-0.994437	-0.493535	99
46
Properties=species:S:1:pos:R:3:Z:I:1 energy=-272.09979828977674 field_type=dipole dipole="0.000000 0.000000 0.000000" charge=0
C	-2.013058	-1.023823	0.488204	6
C	-1.023848	-1.307433	-0.630446	6
C	0.319692	-0.711793	-0.338456	6
C	1.179042	-0.201453	-1.463816	6
C	0.552202	0.772557	-0.498556	6
C	1.404952	1.449907	0.480654	6
C	1.006782	1.890167	1.682574	6
H	-2.969528	-1.514853	0.285014	1
H	-2.195788	0.051477	0.584774	1
H	-1.636448	-1.386853	1.449914	1
H	-1.427938	-0.923423	-1.574466	1
H	-0.910798	-2.391333	-0.748066	1
H	0.819132	-1.227743	0.475554	1
H	0.786282	-0.226543	-2.474456	1
H	2.245692	-0.388373	-1.407886	1
H	-0.265018	1.378537	-0.879196	1
H	2.443792	1.612327	0.199734	1
H	-0.016998	1.762408	2.016874	1
H	1.701862	2.386237	2.352044	1
Es	0.916772	-0.226127	-2.155978	99
Es	0.314295	0.092315	-0.248026	99
Es	1.286826	1.383664	1.230616	99
Es	1.469267	2.230166	2.138047	99
Es	0.794001	-0.643417	-0.980692	99
Es	-0.939552	-2.050999	-0.713701	99
Es	1.119652	1.966194	0.958616	99
Es	-1.519102	-1.164481	-0.066015	99
Es	1.887179	-0.316540	-1.414861	99
Es	2.109502	1.554083	0.281563	99
Es	-1.758581	-1.277439	1.141425	99
Es	-1.291590	-1.034656	-1.274625	99
Es	-2.013048	-1.023829	0.488190	99
Es	-0.351235	-0.994422	-0.493466	99
Es	0.319752	-0.711648	-0.338570	99
Es	0.012442	1.162513	-0.744491	99
Es	-2.656026	-1.352958	0.353677	99
Es	0.657078	-1.050332	0.212561	99
Es	0.552251	0.772404	-0.498604	99
Es	1.006746	1.890203	1.682671	99
Es	1.404976	1.449865	0.480548	99
Es	0.978247	1.114515	-0.007671	99
Es	-2.140628	-0.286971	0.556433	99
Es	0.953556	0.431686	-1.081609	99
Es	1.178956	-0.201414	-1.463680	99
Es	0.312974	1.806063	1.918871	99
Es	-1.023850	-1.307414	-0.630413	99
46
Properties=species:S:1:pos:R:3:Z:I:1 energy=-272.09979828977674 field_type=dipole dipole="0.000000 0.000000 0.000000" charge=0
C	-2.013058	-1.023823	0.488204	6
C	-1.023848	-1.307433	-0.630446	6
C	0.319692	-0.711793	-0.338456	6
C	1.179042	-0.201453	-1.463816	6
C	0.552202	0.772557	-0.498556	6
C	1.404952	1.449907	0.480654	6
C	1.006782	1.890167	1.682574	6
H	-2.969528	-1.514853	0.285014	1
H	-2.195788	0.051477	0.584774	1
H	-1.636448	-1.386853	1.449914	1
H	-1.427938	-0.923423	-1.574466	1
H	-0.910798	-2.391333	-0.748066	1
H	0.819132	-1.227743	0.475554	1
H	0.786282	-0.226543	-2.474456	1
H	2.245692	-0.388373	-1.407886	1
H	-0.265018	1.378537	-0.879196	1
H	2.443792	1.612327	0.199734	1
H	-0.016998	1.762408	2.016874	1
H	1.701862	2.386237	2.352044	1
Es	0.657066	-1.050323	0.212477	99
Es	0.312907	1.806072	1.918969	99
Es	-1.291504	-1.034704	-1.274647	99
Es	2.109442	1.554217	0.281703	99
Es	0.314234	0.092272	-0.247907	99
Es	0.978164	1.114758	-0.007828	99
Es	-1.519186	-1.164529	-0.066080	99
Es	1.286815	1.383639	1.230583	99
Es	-0.351307	-0.994488	-0.493493	99
Es	0.012763	1.162062	-0.744287	99
Es	1.469215	2.229981	2.137978	99
Es	0.953386	0.431814	-1.081616	99
Es	0.552262	0.772404	-0.498597	99
Es	-1.023853	-1.307416	-0.630413	99
Es	0.794039	-0.643120	-0.980925	99
Es	1.006744	1.890209	1.682670	99
Es	-1.758703	-1.277512	1.141272	99
Es	0.319755	-0.711647	-0.338567	99
Es	1.404971	1.449862	0.480544	99
Es	1.886837	-0.316632	-1.414643	99
Es	-2.013047	-1.023828	0.488191	99
Es	1.119682	1.966292	0.958622	99
Es	1.178953	-0.201411	-1.463691	99
Es	0.917218	-0.226208	-2.156160	99
Es	-0.939497	-2.051009	-0.713639	99
Es	-2.655928	-1.352843	0.353719	99
Es	-2.140569	-0.286888	0.556580	99
46
Properties=species:S:1:pos:R:3:Z:I:1 energy=-272.09979828977674 field_type=dipole dipole="0.000000 0.000000 0.000000" charge=0
C	-2.013058	-1.023823	0.488204	6
C	-1.023848	-1.307433	-0.630446	6
C	0.319692	-0.711793	-0.338456	6
C	1.179042	-0.201453	-1.463816	6
C	0.552202	0.772557	-0.498556	6
C	1.404952	1.449907	0.480654	6
C	1.006782	1.890167	1.682574	6
H	-2.969528	-1.514853	0.285014	1
H	-2.195788	0.051477	0.584774	1
H	-1.636448	-1.386853	1.449914	1
H	-1.427938	-0.923423	-1.574466	1
H	-0.910798	-2.391333	-0.748066	1
H	0.819132	-1.227743	0.475554	1
H	0.786282	-0.226543	-2.474456	1
H	2.245692	-0.388373	-1.407886	1
H	-0.265018	1.378537	-0.879196	1
H	2.443792	1.612327	0.199734	1
H	-0.016998	1.762408	2.016874	1
H	1.701862	2.386237	2.352044	1
Es	0.977994	1.114719	-0.007493	99
Es	-2.655688	-1.352747	0.353768	99
Es	1.469239	2.230146	2.137955	99
Es	0.794236	-0.643313	-0.981035	99
Es	1.006744	1.890209	1.682668	99
Es	-1.291360	-1.034605	-1.274554	99
Es	0.953318	0.432012	-1.081691	99
Es	1.886703	-0.316540	-1.414655	99
Es	-1.758735	-1.277497	1.141433	99
Es	2.109467	1.554186	0.281529	99
Es	0.917315	-0.226330	-2.156121	99
Es	-1.023850	-1.307415	-0.630413	99
Es	1.404976	1.449866	0.480548	99
Es	-0.939507	-2.051019	-0.713786	99
Es	0.319753	-0.711653	-0.338566	99
Es	0.013164	1.161887	-0.744215	99
Es	-0.351430	-0.994497	-0.493456	99
Es	-1.519208	-1.164502	-0.066097	99
Es	0.552261	0.772409	-0.498599	99
Es	1.286866	1.383638	1.230599	99
Es	1.119554	1.966203	0.958628	99
Es	-2.140736	-0.286965	0.556457	99
Es	0.312955	1.806042	1.918956	99
Es	0.656913	-1.050257	0.212493	99
Es	-2.013047	-1.023829	0.488192	99
Es	0.314008	0.092289	-0.248047	99
Es	1.178952	-0.201414	-1.463684	99
46
Properties=species:S:1:pos:R:3:Z:I:1 energy=-272.09979828977674 field_type=dipole dipole="0.000000 0.000000 0.000000" charge=0
C	-2.013058	-1.023823	0.488204	6
C	-1.023848	-1.307433	-0.630446	6
C	0.319692	-0.711793	-0.338456	6
C	1.179042	-0.201453	-1.463816	6
C	0.552202	0.772557	-0.498556	6
C	1.404952	1.449907	0.480654	6
C	1.006782	1.890167	1.682574	6
H	-2.969528	-1.514853	0.285014	1
H	-2.195788	0.051477	0.584774	1
H	-1.636448	-1.386853	1.449914	1
H	-1.427938	-0.923423	-1.574466	1
H	-0.910798	-2.391333	-0.748066	1
H	0.819132	-1.227743	0.475554	1
H	0.786282	-0.226543	-2.474456	1
H	2.245692	-0.388373	-1.407886	1
H	-0.265018	1.378537	-0.879196	1
H	2.443792	1.612327	0.199734	1
H	-0.016998	1.762408	2.016874	1
H	1.701862	2.386237	2.352044	1
Es	0.953442	0.431747	-1.081640	99
Es	-1.291316	-1.034569	-1.274534	99
Es	0.977812	1.115039	-0.007495	99
Es	0.917640	-0.226419	-2.156305	99
Es	-2.013047	-1.023828	0.488192	99
Es	0.312917	1.806014	1.919043	99
Es	-1.023850	-1.307415	-0.630413	99
Es	0.314055	0.092519	-0.247908	99
Es	0.552260	0.772409	-0.498591	99
Es	-1.758850	-1.277592	1.141345	99
Es	2.109573	1.554148	0.281481	99
Es	1.469209	2.229954	2.137933	99
Es	0.656938	-1.050130	0.212326	99
Es	0.013237	1.161669	-0.744220	99
Es	1.886159	-0.316433	-1.414588	99
Es	-2.655697	-1.352619	0.353746	99
Es	1.006744	1.890208	1.682669	99
Es	1.178948	-0.201412	-1.463688	99
Es	1.404977	1.449863	0.480549	99
Es	-0.939487	-2.050973	-0.713850	99
Es	-0.351482	-0.994660	-0.493402	99
Es	0.794314	-0.643412	-0.980962	99
Es	0.319756	-0.711646	-0.338570	99
Es	1.119625	1.966328	0.958662	99
Es	-2.140613	-0.286967	0.556605	99
Es	1.286773	1.383737	1.230483	99
Es	-1.519175	-1.164539	-0.066052	99
46
Properties=species:S:1:pos:R:3:Z:I:1 energy=-272.09979828977674 field_type=dipole dipole="0.000000 0.000000 0.000000" charge=0
C	-2.013058	-1.023823	0.488204	6
C	-1.023848	-1.307433	-0.630446	6
C	0.319692	-0.711793	-0.338456	6
C	1.179042	-0.201453	-1.463816	6
C	0.552202	0.772557	-0.498556	6
C	1.404952	1.449907	0.480654	6
C	1.006782	1.890167	1.682574	6
H	-2.969528	-1.514853	0.285014	1
H	-2.195788	0.051477	0.584774	1
H	-1.636448	-1.386853	1.449914	1
H	-1.427938	-0.923423	-1.574466	1
H	-0.910798	-2.391333	-0.748066	1
H	0.819132	-1.227743	0.475554	1
H	0.786282	-0.226543	-2.474456	1
H	2.245692	-0.388373	-1.407886	1
H	-0.265018	1.378537	-0.879196	1
H	2.443792	1.612327	0.199734	1
H	-0.016998	1.762408	2.016874	1
H	1.701862	2.386237	2.352044	1
Es	2.109570	1.554172	0.281449	99
Es	-1.291284	-1.034635	-1.274463	99
Es	1.469248	2.230179	2.137815	99
Es	0.917855	-0.226358	-2.156357	99
Es	0.977636	1.115278	-0.007470	99
Es	-1.519242	-1.164518	-0.066124	99
Es	-0.351338	-0.994537	-0.493540	99
Es	1.178952	-0.201422	-1.463695	99
Es	0.312933	1.806028	1.919075	99
Es	1.119491	1.966086	0.958629	99
Es	-1.023850	-1.307415	-0.630413	99
Es	1.286829	1.383646	1.230627	99
Es	1.006744	1.890209	1.682668	99
Es	-2.013047	-1.023827	0.488191	99
Es	-2.140731	-0.287021	0.556549	99
Es	0.953340	0.431899	-1.081684	99
Es	0.013652	1.161313	-0.744050	99
Es	0.552266	0.772401	-0.498603	99
Es	0.313797	0.092550	-0.247871	99
Es	-2.655523	-1.352564	0.353852	99
Es	-1.758842	-1.277534	1.141396	99
Es	1.404975	1.449864	0.480547	99
Es	0.319754	-0.711649	-0.338567	99
Es	0.656809	-1.050220	0.212332	99
Es	-0.939471	-2.050978	-0.713874	99
Es	1.886030	-0.316433	-1.414511	99
Es	0.794306	-0.643491	-0.981092	99
46
Properties=species:S:1:pos:R:3:Z:I:1 energy=-272.09979828977674 field_type=dipole dipole="0.000000 0.000000 0.000000" charge=0
C	-2.013058	-1.023823	0.488204	6
C	-1.023848	-1.307433	-0.630446	6
C	0.319692	-0.711793	-0.338456	6
C	1.179042	-0.201453	-1.463816	6
C	0.552202	0.772557	-0.498556	6
C	1.404952	1.449907	0.480654	6
C	1.006782	1.890167	1.682574	6
H	-2.969528	-1.514853	0.285014	1
H	-2.195788	0.051477	0.584774	1
H	-1.636448	-1.386853	1.449914	1
H	-1.427938	-0.923423	-1.574466	1
H	-0.910798	-2.391333	-0.748066	1
H	0.819132	-1.227743	0.475554	1
H	0.786282	-0.226543	-2.474456	1
H	2.245692	-0.388373	-1.407886	1
H	-0.265018	1.378537	-0.879196	1
H	2.443792	1.612327	0.199734	1
H	-0.016998	1.762408	2.016874	1
H	1.701862	2.386237	2.352044	1
Es	0.953249	0.431901	-1.081741	99
Es	1.006744	1.890208	1.682669	99
Es	1.404976	1.449865	0.480548	99
Es	0.918180	-0.226504	-2.156433	99
Es	0.319757	-0.711647	-0.338568	99
Es	-0.939479	-2.051053	-0.713912	99
Es	-2.013048	-1.023829	0.488191	99
Es	0.656930	-1.050278	0.212254	99
Es	-0.351418	-0.994572	-0.493465	99
Es	-1.023850	-1.307414	-0.630413	99
Es	2.109509	1.554178	0.281371	99
Es	-1.291249	-1.034588	-1.274414	99
Es	-2.140734	-0.286938	0.556635	99
Es	0.794360	-0.643022	-0.981388	99
Es	0.313774	0.092394	-0.247675	99
Es	1.178951	-0.201408	-1.463685	99
Es	1.286896	1.383560	1.230716	99
Es	1.469221	2.230100	2.137775	99
Es	0.312866	1.806089	1.919095	99
Es	0.013795	1.161040	-0.743934	99
Es	1.885687	-0.316434	-1.414414	99
Es	-1.519175	-1.164567	-0.066113	99
Es	0.552265	0.772402	-0.498603	99
Es	-1.758985	-1.277584	1.141283	99
Es	0.977485	1.115520	-0.007407	99
Es	-2.655434	-1.352515	0.353832	99
Es	1.119586	1.966121	0.958612	99
