46
Properties=species:S:1:pos:R:3:Z:I:1 energy=-272.1326302780269 field_type=dipole dipole="0.000000 0.000000 0.000000" charge=0
C	-2.074466	-1.798240	-0.506549	6
C	-0.739386	-1.750160	-0.410589	6
C	0.125584	-0.519810	-0.443329	6
C	-0.571806	0.841380	-0.482359	6
C	0.555144	1.807450	-0.148519	6
C	1.397454	1.079040	0.894921	6
C	1.016894	-0.399680	0.798831	6
H	-2.594736	-2.751070	-0.477109	1
H	-2.683756	-0.908010	-0.619279	1
H	-0.204226	-2.694370	-0.312119	1
H	0.774104	-0.600690	-1.327079	1
H	-1.357556	0.913780	0.279631	1
H	-1.016836	1.056890	-1.458659	1
H	1.159844	2.000150	-1.042999	1
H	0.183494	2.769610	0.216471	1
H	2.465454	1.232540	0.708621	1
H	1.182974	1.456960	1.900741	1
H	1.904584	-1.037250	0.722821	1
H	0.477234	-0.698520	1.706551	1
Es	2.130959	1.183701	0.765744	99
Es	-0.254751	0.143631	-0.475226	99
Es	-2.491758	-1.196089	-0.582970	99
Es	0.970637	1.934769	-0.765688	99
Es	-2.074565	-1.798241	-0.506551	99
Es	-0.021800	1.340747	-0.324170	99
Es	-0.364723	-2.388646	-0.341784	99
Es	0.565101	-0.489714	0.177742	99
Es	1.016884	-0.399660	0.798811	99
Es	1.397436	1.079025	0.894906	99
Es	0.299920	2.468404	0.101651	99
Es	-2.433915	-2.442223	-0.486539	99
Es	-0.879272	0.988179	-1.151385	99
Es	-0.739267	-1.750148	-0.410599	99
Es	-1.448725	-1.747262	-0.131314	99
Es	-1.106464	0.884768	0.044639	99
Es	1.220289	0.334526	0.850450	99
Es	-0.324979	-1.133030	-0.425035	99
Es	0.125558	-0.519837	-0.443309	99
Es	0.640334	-0.604161	1.416238	99
Es	0.555142	1.807426	-0.148512	99
Es	-1.402597	-1.796594	-0.784077	99
Es	0.982331	1.458296	0.379842	99
Es	0.564645	-0.577014	-1.046053	99
Es	1.625062	-0.840265	0.744809	99
Es	-0.571781	0.841368	-0.482352	99
Es	1.248024	1.337766	1.585326	99
46
Properties=species:S:1:pos:R:3:Z:I:1 energy=-272.1326302780269 field_type=dipole dipole="0.000000 0.000000 0.000000" charge=0
C	-2.074466	-1.798240	-0.506549	6
C	-0.739386	-1.750160	-0.410589	6
C	0.125584	-0.519810	-0.443329	6
C	-0.571806	0.841380	-0.482359	6
C	0.555144	1.807450	-0.148519	6
C	1.397454	1.079040	0.894921	6
C	1.016894	-0.399680	0.798831	6
H	-2.594736	-2.751070	-0.477109	1
H	-2.683756	-0.908010	-0.619279	1
H	-0.204226	-2.694370	-0.312119	1
H	0.774104	-0.600690	-1.327079	1
H	-1.357556	0.913780	0.279631	1
H	-1.016836	1.056890	-1.458659	1
H	1.159844	2.000150	-1.042999	1
H	0.183494	2.769610	0.216471	1
H	2.465454	1.232540	0.708621	1
H	1.182974	1.456960	1.900741	1
H	1.904584	-1.037250	0.722821	1
H	0.477234	-0.698520	1.706551	1
Es	1.218502	0.335119	0.850869	99
Es	-1.107551	0.884344	0.045129	99
Es	-2.491953	-1.196429	-0.582264	99
Es	1.016889	-0.399660	0.798808	99
Es	-0.325155	-1.133279	-0.424983	99
Es	-0.254947	0.144262	-0.475433	99
Es	-0.739264	-1.750147	-0.410584	99
Es	-1.402515	-1.796639	-0.785749	99
Es	-0.364752	-2.388060	-0.342394	99
Es	-2.074568	-1.798241	-0.506550	99
Es	1.626651	-0.840628	0.744925	99
Es	0.640281	-0.603136	1.416135	99
Es	0.970888	1.935565	-0.765611	99
Es	-2.433913	-2.441636	-0.486158	99
Es	1.397436	1.079025	0.894904	99
Es	-0.878604	0.987328	-1.151098	99
Es	0.564765	-0.576917	-1.046540	99
Es	0.125559	-0.519838	-0.443309	99
Es	-0.022214	1.340594	-0.324628	99
Es	1.247006	1.336531	1.584078	99
Es	-1.448910	-1.747486	-0.129969	99
Es	0.300796	2.467165	0.101276	99
Es	2.133841	1.183720	0.765675	99
Es	-0.571781	0.841368	-0.482353	99
Es	0.981566	1.458288	0.381070	99
Es	0.564532	-0.488918	0.177858	99
Es	0.555142	1.807425	-0.148511	99
46
Properties=species:S:1:pos:R:3:Z:I:1 energy=-272.1326302780269 field_type=dipole dipole="0.000000 0.000000 0.000000" charge=0
C	-2.074466	-1.798240	-0.506549	6
C	-0.739386	-1.750160	-0.410589	6
C	0.125584	-0.519810	-0.443329	6
C	-0.571806	0.841380	-0.482359	6
C	0.555144	1.807450	-0.148519	6
C	1.397454	1.079040	0.894921	6
C	1.016894	-0.399680	0.798831	6
H	-2.594736	-2.751070	-0.477109	1
H	-2.683756	-0.908010	-0.619279	1
H	-0.204226	-2.694370	-0.312119	1
H	0.774104	-0.600690	-1.327079	1
H	-1.357556	0.913780	0.279631	1
H	-1.016836	1.056890	-1.458659	1
H	1.159844	2.000150	-1.042999	1
H	0.183494	2.769610	0.216471	1
H	2.465454	1.232540	0.708621	1
H	1.182974	1.456960	1.900741	1
H	1.904584	-1.037250	0.722821	1
H	0.477234	-0.698520	1.706551	1
Es	-2.074570	-1.798242	-0.506552	99
Es	1.246420	1.335591	1.582985	99
Es	1.217096	0.335457	0.851401	99
Es	0.640459	-0.602373	1.415908	99
Es	1.628056	-0.840654	0.745101	99
Es	0.971038	1.935935	-0.765333	99
Es	2.135656	1.183605	0.765850	99
Es	-0.364950	-2.387747	-0.342588	99
Es	0.125558	-0.519838	-0.443310	99
Es	-2.433813	-2.441224	-0.485944	99
Es	-0.325016	-1.133609	-0.425209	99
Es	-0.571781	0.841368	-0.482350	99
Es	-1.402447	-1.796679	-0.786813	99
Es	-0.022600	1.340670	-0.324963	99
Es	0.301651	2.466419	0.100928	99
Es	1.397437	1.079025	0.894904	99
Es	-0.739263	-1.750145	-0.410585	99
Es	0.980919	1.458290	0.381731	99
Es	0.555142	1.807425	-0.148511	99
Es	0.564647	-0.576793	-1.046480	99
Es	-0.255337	0.144853	-0.475751	99
Es	1.016888	-0.399660	0.798808	99
Es	-0.877971	0.986716	-1.150636	99
Es	-1.449044	-1.747519	-0.129186	99
Es	0.564148	-0.488528	0.177901	99
Es	-2.492153	-1.196653	-0.581925	99
Es	-1.108445	0.884033	0.045214	99
46
Properties=species:S:1:pos:R:3:Z:I:1 energy=-272.1326302780269 field_type=dipole dipole="0.000000 0.000000 0.000000" charge=0
C	-2.074466	-1.798240	-0.506549	6
C	-0.739386	-1.750160	-0.410589	6
C	0.125584	-0.519810	-0.443329	6
C	-0.571806	0.841380	-0.482359	6
C	0.555144	1.807450	-0.148519	6
C	1.397454	1.079040	0.894921	6
C	1.016894	-0.399680	0.798831	6
H	-2.594736	-2.751070	-0.477109	1
H	-2.683756	-0.908010	-0.619279	1
H	-0.204226	-2.694370	-0.312119	1
H	0.774104	-0.600690	-1.327079	1
H	-1.357556	0.913780	0.279631	1
H	-1.016836	1.056890	-1.458659	1
H	1.159844	2.000150	-1.042999	1
H	0.183494	2.769610	0.216471	1
H	2.465454	1.232540	0.708621	1
H	1.182974	1.456960	1.900741	1
H	1.904584	-1.037250	0.722821	1
H	0.477234	-0.698520	1.706551	1
Es	1.246076	1.334728	1.581908	99
Es	-2.074568	-1.798241	-0.506554	99
Es	-0.255622	0.145424	-0.476113	99
Es	-0.325109	-1.133919	-0.425315	99
Es	-2.492414	-1.196665	-0.581710	99
Es	-1.449110	-1.747595	-0.128734	99
Es	0.125559	-0.519837	-0.443309	99
Es	-0.022933	1.340697	-0.325204	99
Es	0.980419	1.458332	0.382287	99
Es	-1.109284	0.883754	0.045222	99
Es	1.215948	0.335595	0.851682	99
Es	0.563908	-0.488012	0.177950	99
Es	1.016889	-0.399660	0.798808	99
Es	-0.571781	0.841368	-0.482353	99
Es	0.971079	1.936305	-0.765065	99
Es	-2.433613	-2.440894	-0.485829	99
Es	-0.877337	0.986203	-1.150199	99
Es	1.397435	1.079025	0.894904	99
Es	-0.365048	-2.387609	-0.342745	99
Es	-0.739264	-1.750146	-0.410586	99
Es	0.640381	-0.601662	1.415823	99
Es	-1.402427	-1.796734	-0.787360	99
Es	0.302431	2.465703	0.100666	99
Es	1.629263	-0.840616	0.745236	99
Es	2.137045	1.183497	0.766070	99
Es	0.555142	1.807425	-0.148511	99
Es	0.564659	-0.576747	-1.046375	99
46
Properties=species:S:1:pos:R:3:Z:I:1 energy=-272.1326302780269 field_type=dipole dipole="0.000000 0.000000 0.000000" charge=0
C	-2.074466	-1.798240	-0.506549	6
C	-0.739386	-1.750160	-0.410589	6
C	0.125584	-0.519810	-0.443329	6
C	-0.571806	0.841380	-0.482359	6
C	0.555144	1.807450	-0.148519	6
C	1.397454	1.079040	0.894921	6
C	1.016894	-0.399680	0.798831	6
H	-2.594736	-2.751070	-0.477109	1
H	-2.683756	-0.908010	-0.619279	1
H	-0.204226	-2.694370	-0.312119	1
H	0.774104	-0.600690	-1.327079	1
H	-1.357556	0.913780	0.279631	1
H	-1.016836	1.056890	-1.458659	1
H	1.159844	2.000150	-1.042999	1
H	0.183494	2.769610	0.216471	1
H	2.465454	1.232540	0.708621	1
H	1.182974	1.456960	1.900741	1
H	1.904584	-1.037250	0.722821	1
H	0.477234	-0.698520	1.706551	1
Es	1.214975	0.335671	0.852107	99
Es	1.245830	1.334041	1.580977	99
Es	0.303139	2.465108	0.100479	99
Es	-0.023087	1.340859	-0.325558	99
Es	-1.402424	-1.796621	-0.787739	99
Es	-2.492601	-1.196695	-0.581389	99
Es	0.563585	-0.487713	0.177957	99
Es	-1.110126	0.883635	0.045184	99
Es	0.640659	-0.601089	1.415499	99
Es	-2.433464	-2.440737	-0.485815	99
Es	-0.255898	0.145943	-0.476269	99
Es	0.125557	-0.519838	-0.443309	99
Es	2.138003	1.183407	0.766412	99
Es	1.630393	-0.840469	0.745401	99
Es	-0.364978	-2.387464	-0.343010	99
Es	0.564514	-0.576682	-1.046356	99
Es	-2.074565	-1.798241	-0.506549	99
Es	0.979854	1.458258	0.382575	99
Es	-1.449155	-1.747810	-0.128439	99
Es	-0.876669	0.985652	-1.149690	99
Es	-0.571781	0.841366	-0.482353	99
Es	-0.325429	-1.134058	-0.425306	99
Es	0.555141	1.807424	-0.148511	99
Es	1.016889	-0.399660	0.798808	99
Es	-0.739261	-1.750144	-0.410574	99
Es	1.397436	1.079025	0.894905	99
Es	0.971189	1.936555	-0.764842	99
46
Properties=species:S:1:pos:R:3:Z:I:1 energy=-272.1326302780269 field_type=dipole dipole="0.000000 0.000000 0.000000" charge=0
C	-2.074466	-1.798240	-0.506549	6
C	-0.739386	-1.750160	-0.410589	6
C	0.125584	-0.519810	-0.443329	6
C	-0.571806	0.841380	-0.482359	6
C	0.555144	1.807450	-0.148519	6
C	1.397454	1.079040	0.894921	6
C	1.016894	-0.399680	0.798831	6
H	-2.594736	-2.751070	-0.477109	1
H	-2.683756	-0.908010	-0.619279	1
H	-0.204226	-2.694370	-0.312119	1
H	0.774104	-0.600690	-1.327079	1
H	-1.357556	0.913780	0.279631	1
H	-1.016836	1.056890	-1.458659	1
H	1.159844	2.000150	-1.042999	1
H	0.183494	2.769610	0.216471	1
H	2.465454	1.232540	0.708621	1
H	1.182974	1.456960	1.900741	1
H	1.904584	-1.037250	0.722821	1
H	0.477234	-0.698520	1.706551	1
Es	1.214020	0.335645	0.852380	99
Es	-2.492851	-1.196700	-0.581143	99
Es	-2.433249	-2.440581	-0.485742	99
Es	0.563114	-0.487510	0.178014	99
Es	2.138794	1.183282	0.766720	99
Es	0.564569	-0.576680	-1.046260	99
Es	-0.876095	0.985374	-1.149143	99
Es	-1.402510	-1.796617	-0.788003	99
Es	0.971224	1.936798	-0.764607	99
Es	-0.325241	-1.134239	-0.425325	99
Es	-2.074572	-1.798241	-0.506546	99
Es	-0.256297	0.146305	-0.476622	99
Es	1.631413	-0.840176	0.745544	99
Es	1.397436	1.079024	0.894904	99
Es	-0.023320	1.340934	-0.325743	99
Es	-0.365188	-2.387422	-0.343104	99
Es	-1.449087	-1.747831	-0.128365	99
Es	1.245818	1.333324	1.580008	99
Es	-0.571782	0.841368	-0.482352	99
Es	1.016891	-0.399654	0.798809	99
Es	-0.739262	-1.750145	-0.410583	99
Es	0.555142	1.807424	-0.148510	99
Es	-1.110813	0.883518	0.045057	99
Es	0.640914	-0.600559	1.415297	99
Es	0.125559	-0.519836	-0.443309	99
Es	0.303759	2.464525	0.100263	99
Es	0.979339	1.458392	0.382956	99
46
Properties=species:S:1:pos:R:3:Z:I:1 energy=-272.1326302780269 field_type=dipole dipole="0.000000 0.000000 0.000000" charge=0
C	-2.074466	-1.798240	-0.506549	6
C	-0.739386	-1.750160	-0.410589	6
C	0.125584	-0.519810	-0.443329	6
C	-0.571806	0.841380	-0.482359	6
C	0.555144	1.807450	-0.148519	6
C	1.397454	1.079040	0.894921	6
C	1.016894	-0.399680	0.798831	6
H	-2.594736	-2.751070	-0.477109	1
H	-2.683756	-0.908010	-0.619279	1
H	-0.204226	-2.694370	-0.312119	1
H	0.774104	-0.600690	-1.327079	1
H	-1.357556	0.913780	0.279631	1
H	-1.016836	1.056890	-1.458659	1
H	1.159844	2.000150	-1.042999	1
H	0.183494	2.769610	0.216471	1
H	2.465454	1.232540	0.708621	1
H	1.182974	1.456960	1.900741	1
H	1.904584	-1.037250	0.722821	1
H	0.477234	-0.698520	1.706551	1
Es	-1.402414	-1.796503	-0.788072	99
Es	-0.739262	-1.750147	-0.410586	99
Es	0.641377	-0.599982	1.415086	99
Es	0.304270	2.464193	0.100055	99
Es	1.213410	0.335714	0.852407	99
Es	0.979048	1.458498	0.383177	99
Es	-0.875340	0.985056	-1.148566	99
Es	-0.325287	-1.134388	-0.425352	99
Es	1.245652	1.332706	1.579352	99
Es	0.555141	1.807424	-0.148510	99
Es	-1.449218	-1.747992	-0.128255	99
Es	-1.111644	0.883512	0.044790	99
Es	1.632163	-0.840007	0.745626	99
Es	-0.365190	-2.387407	-0.343278	99
Es	0.562554	-0.487394	0.178131	99
Es	1.016889	-0.399658	0.798809	99
Es	-0.023255	1.340816	-0.325813	99
Es	-2.493023	-1.196645	-0.581014	99
Es	2.139416	1.183147	0.767031	99
Es	1.397436	1.079024	0.894903	99
Es	-2.074571	-1.798242	-0.506550	99
Es	0.971229	1.936833	-0.764384	99
Es	0.125558	-0.519836	-0.443308	99
Es	-0.571782	0.841369	-0.482352	99
Es	-0.256848	0.146695	-0.476789	99
Es	0.564513	-0.576604	-1.046212	99
Es	-2.433097	-2.440459	-0.485732	99
46
Properties=species:S:1:pos:R:3:Z:I:1 energy=-272.1326302780269 field_type=dipole dipole="0.000000 0.000000 0.000000" charge=0
C	-2.074466	-1.798240	-0.506549	6
C	-0.739386	-1.750160	-0.410589	6
C	0.125584	-0.519810	-0.443329	6
C	-0.571806	0.841380	-0.482359	6
C	0.555144	1.807450	-0.148519	6
C	1.397454	1.079040	0.894921	6
C	1.016894	-0.399680	0.798831	6
H	-2.594736	-2.751070	-0.477109	1
H	-2.683756	-0.908010	-0.619279	1
H	-0.204226	-2.694370	-0.312119	1
H	0.774104	-0.600690	-1.327079	1
H	-1.357556	0.913780	0.279631	1
H	-1.016836	1.056890	-1.458659	1
H	1.159844	2.000150	-1.042999	1
H	0.183494	2.769610	0.216471	1
H	2.465454	1.232540	0.708621	1
H	1.182974	1.456960	1.900741	1
H	1.904584	-1.037250	0.722821	1
H	0.477234	-0.698520	1.706551	1
Es	-0.739262	-1.750144	-0.410587	99
Es	-1.449333	-1.748201	-0.128019	99
Es	-2.432874	-2.440328	-0.485813	99
Es	-0.257077	0.146954	-0.476873	99
Es	-0.571782	0.841368	-0.482352	99
Es	0.641501	-0.599693	1.414862	99
Es	-0.365318	-2.387353	-0.343501	99
Es	-2.493259	-1.196667	-0.580871	99
Es	1.397436	1.079024	0.894904	99
Es	1.245765	1.332265	1.578652	99
Es	0.978709	1.458479	0.383422	99
Es	-2.074572	-1.798246	-0.506552	99
Es	1.632986	-0.839583	0.745773	99
Es	0.971174	1.936946	-0.764190	99
Es	-0.874577	0.984706	-1.147972	99
Es	0.304844	2.463792	0.099938	99
Es	0.555142	1.807425	-0.148510	99
Es	-0.325243	-1.134490	-0.425368	99
Es	0.125557	-0.519838	-0.443308	99
Es	-0.023509	1.341024	-0.325930	99
Es	1.016890	-0.399660	0.798808	99
Es	0.562456	-0.487201	0.178097	99
Es	-1.112483	0.883514	0.044454	99
Es	1.212635	0.335429	0.852721	99
Es	-1.402323	-1.796353	-0.788138	99
Es	2.139849	1.183077	0.767153	99
Es	0.564391	-0.576525	-1.046204	99
46
Properties=species:S:1:pos:R:3:Z:I:1 energy=-272.1326302780269 field_type=dipole dipole="0.000000 0.000000 0.000000" charge=0
C	-2.074466	-1.798240	-0.506549	6
C	-0.739386	-1.750160	-0.410589	6
C	0.125584	-0.519810	-0.443329	6
C	-0.571806	0.841380	-0.482359	6
C	0.555144	1.807450	-0.148519	6
C	1.397454	1.079040	0.894921	6
C	1.016894	-0.399680	0.798831	6
H	-2.594736	-2.751070	-0.477109	1
H	-2.683756	-0.908010	-0.619279	1
H	-0.204226	-2.694370	-0.312119	1
H	0.774104	-0.600690	-1.327079	1
H	-1.357556	0.913780	0.279631	1
H	-1.016836	1.056890	-1.458659	1
H	1.159844	2.000150	-1.042999	1
H	0.183494	2.769610	0.216471	1
H	2.465454	1.232540	0.708621	1
H	1.182974	1.456960	1.900741	1
H	1.904584	-1.037250	0.722821	1
H	0.477234	-0.698520	1.706551	1
Es	-0.023600	1.341093	-0.326007	99
Es	2.140205	1.182957	0.767364	99
Es	0.561875	-0.487180	0.178125	99
Es	0.564509	-0.576456	-1.046110	99
Es	-2.432600	-2.440273	-0.485777	99
Es	-0.325405	-1.134604	-0.425366	99
Es	0.305270	2.463534	0.099697	99
Es	0.978243	1.458681	0.383718	99
Es	-1.113157	0.883548	0.044166	99
Es	-2.074572	-1.798240	-0.506551	99
Es	1.633704	-0.839138	0.745851	99
Es	1.245923	1.331805	1.577975	99
Es	-0.873968	0.984477	-1.147387	99
Es	1.016888	-0.399659	0.798807	99
Es	-1.402425	-1.796268	-0.788362	99
Es	-1.449235	-1.748229	-0.128077	99
Es	-2.493550	-1.196702	-0.580634	99
Es	-0.571782	0.841368	-0.482351	99
Es	0.971241	1.936876	-0.764020	99
Es	0.555142	1.807425	-0.148509	99
Es	1.211971	0.335184	0.852925	99
Es	-0.739262	-1.750145	-0.410585	99
Es	-0.365326	-2.387338	-0.343560	99
Es	1.397436	1.079023	0.894908	99
Es	0.125558	-0.519836	-0.443307	99
Es	0.641886	-0.599353	1.414674	99
Es	-0.257245	0.147174	-0.477012	99
46
Properties=species:S:1:pos:R:3:Z:I:1 energy=-272.1326302780269 field_type=dipole dipole="0.000000 0.000000 0.000000" charge=0
C	-2.074466	-1.798240	-0.506549	6
C	-0.739386	-1.750160	-0.410589	6
C	0.125584	-0.519810	-0.443329	6
C	-0.571806	0.841380	-0.482359	6
C	0.555144	1.807450	-0.148519	6
C	1.397454	1.079040	0.894921	6
C	1.016894	-0.399680	0.798831	6
H	-2.594736	-2.751070	-0.477109	1
H	-2.683756	-0.908010	-0.619279	1
H	-0.204226	-2.694370	-0.312119	1
H	0.774104	-0.600690	-1.327079	1
H	-1.357556	0.913780	0.279631	1
H	-1.016836	1.056890	-1.458659	1
H	1.159844	2.000150	-1.042999	1
H	0.183494	2.769610	0.216471	1
H	2.465454	1.232540	0.708621	1
H	1.182974	1.456960	1.900741	1
H	1.904584	-1.037250	0.722821	1
H	0.477234	-0.698520	1.706551	1
Es	-1.449259	-1.748278	-0.128078	99
Es	0.564384	-0.576545	-1.046010	99
Es	1.246016	1.331469	1.577507	99
Es	2.140504	1.182744	0.767441	99
Es	-0.023710	1.341112	-0.326060	99
Es	-1.113937	0.883615	0.043816	99
Es	-0.365439	-2.387333	-0.343633	99
Es	-2.493697	-1.196651	-0.580549	99
Es	0.305770	2.463225	0.099635	99
Es	-0.325450	-1.134648	-0.425363	99
Es	0.978071	1.458563	0.383748	99
Es	-0.873223	0.984211	-1.146833	99
Es	-2.074572	-1.798242	-0.506549	99
Es	0.555141	1.807425	-0.148509	99
Es	1.634220	-0.838827	0.745937	99
Es	-0.571782	0.841368	-0.482353	99
Es	0.561610	-0.487138	0.178180	99
Es	-2.432463	-2.440199	-0.485742	99
Es	0.642213	-0.599071	1.414467	99
Es	1.211551	0.335269	0.853148	99
Es	0.971055	1.936967	-0.763842	99
Es	-1.402423	-1.796263	-0.788376	99
Es	0.125558	-0.519839	-0.443308	99
Es	1.016887	-0.399659	0.798806	99
Es	1.397432	1.079016	0.894906	99
Es	-0.739262	-1.750144	-0.410583	99
Es	-0.257472	0.147577	-0.477207	99
46
Properties=species:S:1:pos:R:3:Z:I:1 energy=-272.1326302780269 field_type=dipole dipole="0.000000 0.000000 0.000000" charge=0
C	-2.074466	-1.798240	-0.506549	6
C	-0.739386	-1.750160	-0.410589	6
C	0.125584	-0.519810	-0.443329	6
C	-0.571806	0.841380	-0.482359	6
C	0.555144	1.807450	-0.148519	6
C	1.397454	1.079040	0.894921	6
C	1.016894	-0.399680	0.798831	6
H	-2.594736	-2.751070	-0.477109	1
H	-2.683756	-0.908010	-0.619279	1
H	-0.204226	-2.694370	-0.312119	1
H	0.774104	-0.600690	-1.327079	1
H	-1.357556	0.913780	0.279631	1
H	-1.016836	1.056890	-1.458659	1
H	1.159844	2.000150	-1.042999	1
H	0.183494	2.769610	0.216471	1
H	2.465454	1.232540	0.708621	1
H	1.182974	1.456960	1.900741	1
H	1.904584	-1.037250	0.722821	1
H	0.477234	-0.698520	1.706551	1
Es	1.397435	1.079025	0.894904	99
Es	-1.449350	-1.748488	-0.127990	99
Es	0.564390	-0.576476	-1.046006	99
Es	-0.365456	-2.387342	-0.343791	99
Es	-1.114602	0.883719	0.043421	99
Es	1.016891	-0.399657	0.798807	99
Es	2.140809	1.182848	0.767808	99
Es	-0.023704	1.341168	-0.326183	99
Es	-0.739262	-1.750144	-0.410585	99
Es	-2.074572	-1.798241	-0.506549	99
Es	0.555141	1.807425	-0.148510	99
Es	1.634726	-0.838564	0.746003	99
Es	0.977820	1.458574	0.383910	99
Es	-0.571782	0.841368	-0.482352	99
Es	0.971088	1.937041	-0.763728	99
Es	1.211169	0.334985	0.853255	99
Es	-0.257680	0.147728	-0.477216	99
Es	0.561230	-0.487042	0.178278	99
Es	0.642493	-0.598756	1.414255	99
Es	-2.432299	-2.440091	-0.485848	99
Es	-0.325492	-1.134714	-0.425333	99
Es	-2.493869	-1.196655	-0.580369	99
Es	-1.402343	-1.796068	-0.788448	99
Es	0.306018	2.462953	0.099545	99
Es	0.125558	-0.519838	-0.443309	99
Es	-0.872600	0.983906	-1.146242	99
Es	1.245967	1.331058	1.576864	99
46
Properties=species:S:1:pos:R:3:Z:I:1 energy=-272.1326302780269 field_type=dipole dipole="0.000000 0.000000 0.000000" charge=0
C	-2.074466	-1.798240	-0.506549	6
C	-0.739386	-1.750160	-0.410589	6
C	0.125584	-0.519810	-0.443329	6
C	-0.571806	0.841380	-0.482359	6
C	0.555144	1.807450	-0.148519	6
C	1.397454	1.079040	0.894921	6
C	1.016894	-0.399680	0.798831	6
H	-2.594736	-2.751070	-0.477109	1
H	-2.683756	-0.908010	-0.619279	1
H	-0.204226	-2.694370	-0.312119	1
H	0.774104	-0.600690	-1.327079	1
H	-1.357556	0.913780	0.279631	1
H	-1.016836	1.056890	-1.458659	1
H	1.159844	2.000150	-1.042999	1
H	0.183494	2.769610	0.216471	1
H	2.465454	1.232540	0.708621	1
H	1.182974	1.456960	1.900741	1
H	1.904584	-1.037250	0.722821	1
H	0.477234	-0.698520	1.706551	1
Es	1.397436	1.079024	0.894903	99
Es	-1.115285	0.883809	0.042968	99
Es	-0.365518	-2.387365	-0.343854	99
Es	1.635201	-0.838153	0.746039	99
Es	0.564365	-0.576507	-1.045852	99
Es	-2.432133	-2.440034	-0.485898	99
Es	-0.871946	0.983688	-1.145589	99
Es	-2.074570	-1.798242	-0.506560	99
Es	-0.023756	1.341240	-0.326247	99
Es	0.125559	-0.519833	-0.443309	99
Es	0.971087	1.937124	-0.763589	99
Es	0.560883	-0.487040	0.178387	99
Es	0.555141	1.807424	-0.148510	99
Es	0.642808	-0.598463	1.414177	99
Es	1.246096	1.330795	1.576464	99
Es	1.016891	-0.399655	0.798808	99
Es	-0.571782	0.841368	-0.482354	99
Es	0.306365	2.462610	0.099411	99
Es	-0.739262	-1.750142	-0.410586	99
Es	2.140987	1.182831	0.767830	99
Es	-2.494041	-1.196643	-0.580217	99
Es	-1.402395	-1.796002	-0.788468	99
Es	0.977513	1.458557	0.384104	99
Es	-0.325484	-1.134820	-0.425421	99
Es	-1.449311	-1.748516	-0.127965	99
Es	-0.257943	0.147962	-0.477420	99
Es	1.210816	0.334704	0.853341	99
46
Properties=species:S:1:pos:R:3:Z:I:1 energy=-272.1326302780269 field_type=dipole dipole="0.000000 0.000000 0.000000" charge=0
C	-2.074466	-1.798240	-0.506549	6
C	-0.739386	-1.750160	-0.410589	6
C	0.125584	-0.519810	-0.443329	6
C	-0.571806	0.841380	-0.482359	6
C	0.555144	1.807450	-0.148519	6
C	1.397454	1.079040	0.894921	6
C	1.016894	-0.399680	0.798831	6
H	-2.594736	-2.751070	-0.477109	1
H	-2.683756	-0.908010	-0.619279	1
H	-0.204226	-2.694370	-0.312119	1
H	0.774104	-0.600690	-1.327079	1
H	-1.357556	0.913780	0.279631	1
H	-1.016836	1.056890	-1.458659	1
H	1.159844	2.000150	-1.042999	1
H	0.183494	2.769610	0.216471	1
H	2.465454	1.232540	0.708621	1
H	1.182974	1.456960	1.900741	1
H	1.904584	-1.037250	0.722821	1
H	0.477234	-0.698520	1.706551	1
Es	1.635614	-0.837923	0.746148	99
Es	-0.023780	1.341184	-0.326255	99
Es	0.643089	-0.598228	1.413867	99
Es	-2.494184	-1.196688	-0.580231	99
Es	-1.115894	0.883891	0.042597	99
Es	0.560582	-0.487052	0.178510	99
Es	-0.571781	0.841367	-0.482352	99
Es	-0.258127	0.148222	-0.477525	99
Es	-0.871364	0.983463	-1.145032	99
Es	-0.739263	-1.750145	-0.410586	99
Es	-1.402292	-1.795982	-0.788574	99
Es	1.246207	1.330444	1.576120	99
Es	0.564365	-0.576558	-1.045871	99
Es	2.141130	1.182670	0.768051	99
Es	1.016891	-0.399659	0.798809	99
Es	-1.449426	-1.748621	-0.127829	99
Es	-2.431996	-2.439941	-0.485867	99
Es	1.210515	0.334709	0.853427	99
Es	-0.325544	-1.134816	-0.425314	99
Es	0.971061	1.937090	-0.763458	99
Es	0.125558	-0.519838	-0.443308	99
Es	1.397437	1.079024	0.894903	99
Es	0.555141	1.807425	-0.148509	99
Es	0.977220	1.458719	0.383957	99
Es	0.306709	2.462477	0.099402	99
Es	-2.074571	-1.798241	-0.506549	99
Es	-0.365571	-2.387271	-0.343935	99
46
Properties=species:S:1:pos:R:3:Z:I:1 energy=-272.1326302780269 field_type=dipole dipole="0.000000 0.000000 0.000000" charge=0
C	-2.074466	-1.798240	-0.506549	6
C	-0.739386	-1.750160	-0.410589	6
C	0.125584	-0.519810	-0.443329	6
C	-0.571806	0.841380	-0.482359	6
C	0.555144	1.807450	-0.148519	6
C	1.397454	1.079040	0.894921	6
C	1.016894	-0.399680	0.798831	6
H	-2.594736	-2.751070	-0.477109	1
H	-2.683756	-0.908010	-0.619279	1
H	-0.204226	-2.694370	-0.312119	1
H	0.774104	-0.600690	-1.327079	1
H	-1.357556	0.913780	0.279631	1
H	-1.016836	1.056890	-1.458659	1
H	1.159844	2.000150	-1.042999	1
H	0.183494	2.769610	0.216471	1
H	2.465454	1.232540	0.708621	1
H	1.182974	1.456960	1.900741	1
H	1.904584	-1.037250	0.722821	1
H	0.477234	-0.698520	1.706551	1
Es	-1.402450	-1.795946	-0.788610	99
Es	1.016892	-0.399658	0.798811	99
Es	0.970925	1.936976	-0.763371	99
Es	-1.449268	-1.748569	-0.128108	99
Es	1.635935	-0.837654	0.746085	99
Es	-0.258286	0.148355	-0.477581	99
Es	-0.365557	-2.387308	-0.344035	99
Es	0.977150	1.458519	0.384204	99
Es	-0.325579	-1.134936	-0.425194	99
Es	0.643536	-0.597972	1.413752	99
Es	1.246164	1.330197	1.575824	99
Es	2.141309	1.182687	0.768122	99
Es	0.555141	1.807424	-0.148510	99
Es	-1.116356	0.883956	0.042375	99
Es	-0.739263	-1.750145	-0.410590	99
Es	1.210379	0.334704	0.853468	99
Es	-2.074572	-1.798241	-0.506548	99
Es	0.560295	-0.486906	0.178615	99
Es	-0.571782	0.841368	-0.482352	99
Es	1.397433	1.079015	0.894904	99
Es	-0.023678	1.341199	-0.326455	99
Es	0.125558	-0.519838	-0.443308	99
Es	0.564131	-0.576484	-1.045842	99
Es	-2.431801	-2.439997	-0.485691	99
Es	-2.494391	-1.196667	-0.580037	99
Es	0.306806	2.462446	0.099201	99
Es	-0.870948	0.983196	-1.144534	99
