43
Properties=species:S:1:pos:R:3:Z:I:1 energy=-270.95769032403405 field_type=dipole dipole="0.000000 0.000000 0.000000" charge=0
C	-2.004853	-1.957680	-0.178504	6
C	-0.676753	-1.799360	-0.160524	6
C	0.008627	-0.543180	-0.016314	6
C	1.340357	-0.408380	0.038346	6
C	1.753847	1.013640	0.221756	6
C	0.469177	1.781200	-0.076134	6
C	-0.674873	0.785670	0.118026	6
H	-2.437203	-2.947390	-0.290524	1
H	-2.695113	-1.126260	-0.081924	1
H	-0.051683	-2.686240	-0.258834	1
H	2.051707	-1.221640	-0.011434	1
H	2.095607	1.180580	1.248356	1
H	2.552547	1.298300	-0.469344	1
H	0.480737	2.132170	-1.116534	1
H	0.359057	2.665050	0.560536	1
H	-1.448673	0.944870	-0.639694	1
H	-1.122513	0.888650	1.112746	1
Es	-2.004951	-1.957693	-0.178504	99
Es	0.668147	-0.476483	-0.320759	99
Es	-2.305320	-2.626699	-0.254091	99
Es	-0.674841	0.785648	0.118022	99
Es	-0.976848	0.847743	0.796442	99
Es	1.584258	0.288863	0.125937	99
Es	2.300681	1.204511	-0.247052	99
Es	0.393416	2.388082	0.361867	99
Es	1.982192	1.118829	0.921395	99
Es	-1.339024	-1.898842	0.151950	99
Es	-0.244245	-2.396957	-0.226994	99
Es	-0.116329	1.295488	0.029201	99
Es	-2.475174	-1.395656	-0.113510	99
Es	0.477963	2.016114	-0.790771	99
Es	1.340488	-0.408352	0.038349	99
Es	-0.345365	-1.167538	-0.087624	99
Es	1.829230	-0.959999	0.005294	99
Es	0.645492	-0.542319	0.319027	99
Es	0.469179	1.781170	-0.076123	99
Es	-0.676644	-1.799340	-0.160524	99
Es	-1.339944	-1.826986	-0.487961	99
Es	-1.204995	0.887501	-0.396211	99
Es	1.753824	1.013614	0.221750	99
Es	1.123366	1.412846	0.081820	99
Es	0.008493	-0.543190	-0.016317	99
Es	-0.367354	0.099809	0.042684	99
43
Properties=species:S:1:pos:R:3:Z:I:1 energy=-270.95769032403405 field_type=dipole dipole="0.000000 0.000000 0.000000" charge=0
C	-2.004853	-1.957680	-0.178504	6
C	-0.676753	-1.799360	-0.160524	6
C	0.008627	-0.543180	-0.016314	6
C	1.340357	-0.408380	0.038346	6
C	1.753847	1.013640	0.221756	6
C	0.469177	1.781200	-0.076134	6
C	-0.674873	0.785670	0.118026	6
H	-2.437203	-2.947390	-0.290524	1
H	-2.695113	-1.126260	-0.081924	1
H	-0.051683	-2.686240	-0.258834	1
H	2.051707	-1.221640	-0.011434	1
H	2.095607	1.180580	1.248356	1
H	2.552547	1.298300	-0.469344	1
H	0.480737	2.132170	-1.116534	1
H	0.359057	2.665050	0.560536	1
H	-1.448673	0.944870	-0.639694	1
H	-1.122513	0.888650	1.112746	1
Es	-1.208556	0.885596	-0.396354	99
Es	-2.306478	-2.626725	-0.254680	99
Es	-2.004961	-1.957693	-0.178503	99
Es	-0.345789	-1.167694	-0.087736	99
Es	1.753826	1.013616	0.221752	99
Es	-0.368450	0.101506	0.044512	99
Es	0.008487	-0.543193	-0.016306	99
Es	1.585448	0.290926	0.127302	99
Es	1.979939	1.116124	0.918504	99
Es	2.304803	1.204940	-0.247046	99
Es	1.340490	-0.408354	0.038359	99
Es	-0.674841	0.785649	0.118023	99
Es	-1.339007	-1.899851	0.153964	99
Es	0.478330	2.016667	-0.784336	99
Es	-0.974594	0.844535	0.793503	99
Es	0.645223	-0.541830	0.321538	99
Es	0.668077	-0.475122	-0.321136	99
Es	0.469179	1.781168	-0.076124	99
Es	-0.245764	-2.395102	-0.226922	99
Es	-2.473991	-1.396734	-0.113662	99
Es	0.394154	2.386481	0.356797	99
Es	-0.676648	-1.799339	-0.160512	99
Es	-1.340083	-1.826867	-0.489771	99
Es	1.125940	1.414316	0.082357	99
Es	-0.117887	1.296062	0.029221	99
Es	1.828848	-0.958920	0.004549	99
43
Properties=species:S:1:pos:R:3:Z:I:1 energy=-270.95769032403405 field_type=dipole dipole="0.000000 0.000000 0.000000" charge=0
C	-2.004853	-1.957680	-0.178504	6
C	-0.676753	-1.799360	-0.160524	6
C	0.008627	-0.543180	-0.016314	6
C	1.340357	-0.408380	0.038346	6
C	1.753847	1.013640	0.221756	6
C	0.469177	1.781200	-0.076134	6
C	-0.674873	0.785670	0.118026	6
H	-2.437203	-2.947390	-0.290524	1
H	-2.695113	-1.126260	-0.081924	1
H	-0.051683	-2.686240	-0.258834	1
H	2.051707	-1.221640	-0.011434	1
H	2.095607	1.180580	1.248356	1
H	2.552547	1.298300	-0.469344	1
H	0.480737	2.132170	-1.116534	1
H	0.359057	2.665050	0.560536	1
H	-1.448673	0.944870	-0.639694	1
H	-1.122513	0.888650	1.112746	1
Es	-0.676645	-1.799339	-0.160522	99
Es	-0.118315	1.296139	0.028107	99
Es	0.008490	-0.543191	-0.016320	99
Es	-0.369055	0.104010	0.046368	99
Es	1.828523	-0.958426	0.003988	99
Es	-1.340160	-1.826682	-0.490627	99
Es	1.976653	1.113779	0.914364	99
Es	0.645086	-0.541599	0.322852	99
Es	0.469178	1.781172	-0.076123	99
Es	-2.004961	-1.957693	-0.178505	99
Es	1.753827	1.013616	0.221752	99
Es	-2.307724	-2.626541	-0.255118	99
Es	2.309200	1.205799	-0.245347	99
Es	1.340487	-0.408352	0.038356	99
Es	0.667969	-0.473841	-0.321398	99
Es	0.477759	2.015671	-0.776375	99
Es	-0.247500	-2.393952	-0.227103	99
Es	-1.338939	-1.900680	0.155014	99
Es	1.127864	1.415383	0.081162	99
Es	-2.472752	-1.397198	-0.113555	99
Es	-0.971335	0.842369	0.790405	99
Es	-0.346406	-1.167480	-0.087829	99
Es	-0.674841	0.785648	0.118024	99
Es	-1.212358	0.884153	-0.395706	99
Es	1.587231	0.292828	0.129123	99
Es	0.394418	2.384568	0.352308	99
43
Properties=species:S:1:pos:R:3:Z:I:1 energy=-270.95769032403405 field_type=dipole dipole="0.000000 0.000000 0.000000" charge=0
C	-2.004853	-1.957680	-0.178504	6
C	-0.676753	-1.799360	-0.160524	6
C	0.008627	-0.543180	-0.016314	6
C	1.340357	-0.408380	0.038346	6
C	1.753847	1.013640	0.221756	6
C	0.469177	1.781200	-0.076134	6
C	-0.674873	0.785670	0.118026	6
H	-2.437203	-2.947390	-0.290524	1
H	-2.695113	-1.126260	-0.081924	1
H	-0.051683	-2.686240	-0.258834	1
H	2.051707	-1.221640	-0.011434	1
H	2.095607	1.180580	1.248356	1
H	2.552547	1.298300	-0.469344	1
H	0.480737	2.132170	-1.116534	1
H	0.359057	2.665050	0.560536	1
H	-1.448673	0.944870	-0.639694	1
H	-1.122513	0.888650	1.112746	1
Es	1.753827	1.013616	0.221749	99
Es	-0.674841	0.785648	0.118022	99
Es	0.645061	-0.541448	0.323611	99
Es	-0.369461	0.107150	0.047632	99
Es	-2.004962	-1.957692	-0.178516	99
Es	-1.338854	-1.901285	0.155460	99
Es	1.340488	-0.408351	0.038356	99
Es	0.667837	-0.472893	-0.321397	99
Es	-0.967588	0.840595	0.786961	99
Es	-2.308957	-2.626368	-0.255489	99
Es	-2.471518	-1.397464	-0.113431	99
Es	1.589412	0.295287	0.130426	99
Es	0.477306	2.013318	-0.767766	99
Es	-0.676644	-1.799338	-0.160521	99
Es	0.469179	1.781167	-0.076123	99
Es	1.128579	1.416140	0.078922	99
Es	-0.249224	-2.392981	-0.227185	99
Es	-1.340224	-1.826580	-0.491009	99
Es	-0.117950	1.295477	0.026108	99
Es	-1.216290	0.883055	-0.393869	99
Es	2.313679	1.207131	-0.241668	99
Es	1.972809	1.111298	0.909301	99
Es	0.008489	-0.543191	-0.016321	99
Es	0.394439	2.382971	0.348358	99
Es	1.828203	-0.958190	0.003578	99
Es	-0.347100	-1.166911	-0.087896	99
43
Properties=species:S:1:pos:R:3:Z:I:1 energy=-270.95769032403405 field_type=dipole dipole="0.000000 0.000000 0.000000" charge=0
C	-2.004853	-1.957680	-0.178504	6
C	-0.676753	-1.799360	-0.160524	6
C	0.008627	-0.543180	-0.016314	6
C	1.340357	-0.408380	0.038346	6
C	1.753847	1.013640	0.221756	6
C	0.469177	1.781200	-0.076134	6
C	-0.674873	0.785670	0.118026	6
H	-2.437203	-2.947390	-0.290524	1
H	-2.695113	-1.126260	-0.081924	1
H	-0.051683	-2.686240	-0.258834	1
H	2.051707	-1.221640	-0.011434	1
H	2.095607	1.180580	1.248356	1
H	2.552547	1.298300	-0.469344	1
H	0.480737	2.132170	-1.116534	1
H	0.359057	2.665050	0.560536	1
H	-1.448673	0.944870	-0.639694	1
H	-1.122513	0.888650	1.112746	1
Es	1.591423	0.298568	0.131635	99
Es	-0.674842	0.785648	0.118022	99
Es	1.340487	-0.408351	0.038356	99
Es	0.394511	2.381502	0.345457	99
Es	0.008491	-0.543189	-0.016320	99
Es	-0.369467	0.110099	0.048576	99
Es	-1.220090	0.882209	-0.390919	99
Es	-0.250933	-2.392147	-0.227317	99
Es	0.469179	1.781170	-0.076124	99
Es	1.753827	1.013615	0.221750	99
Es	-0.963795	0.839129	0.783056	99
Es	1.828123	-0.958052	0.003204	99
Es	1.128250	1.415909	0.076067	99
Es	0.667671	-0.472109	-0.321369	99
Es	1.969634	1.109227	0.903936	99
Es	-0.347683	-1.166269	-0.087954	99
Es	-0.117334	1.294532	0.023758	99
Es	-2.004962	-1.957693	-0.178505	99
Es	-2.470305	-1.397725	-0.113224	99
Es	0.645104	-0.541430	0.323952	99
Es	-2.310178	-2.626095	-0.255783	99
Es	0.476992	2.010773	-0.759601	99
Es	2.317316	1.208226	-0.237375	99
Es	-1.340278	-1.826316	-0.491277	99
Es	-0.676644	-1.799337	-0.160525	99
Es	-1.338802	-1.901732	0.155816	99
43
Properties=species:S:1:pos:R:3:Z:I:1 energy=-270.95769032403405 field_type=dipole dipole="0.000000 0.000000 0.000000" charge=0
C	-2.004853	-1.957680	-0.178504	6
C	-0.676753	-1.799360	-0.160524	6
C	0.008627	-0.543180	-0.016314	6
C	1.340357	-0.408380	0.038346	6
C	1.753847	1.013640	0.221756	6
C	0.469177	1.781200	-0.076134	6
C	-0.674873	0.785670	0.118026	6
H	-2.437203	-2.947390	-0.290524	1
H	-2.695113	-1.126260	-0.081924	1
H	-0.051683	-2.686240	-0.258834	1
H	2.051707	-1.221640	-0.011434	1
H	2.095607	1.180580	1.248356	1
H	2.552547	1.298300	-0.469344	1
H	0.480737	2.132170	-1.116534	1
H	0.359057	2.665050	0.560536	1
H	-1.448673	0.944870	-0.639694	1
H	-1.122513	0.888650	1.112746	1
Es	0.008490	-0.543191	-0.016319	99
Es	1.593325	0.301986	0.132672	99
Es	-2.004962	-1.957694	-0.178506	99
Es	-0.674839	0.785644	0.118022	99
Es	-2.311315	-2.625775	-0.255872	99
Es	-0.369502	0.112321	0.049459	99
Es	1.340487	-0.408352	0.038354	99
Es	1.127664	1.415562	0.073046	99
Es	1.753827	1.013616	0.221749	99
Es	-0.348033	-1.165650	-0.088015	99
Es	0.469179	1.781220	-0.076239	99
Es	1.967191	1.107568	0.898733	99
Es	-1.340251	-1.826161	-0.491560	99
Es	0.476718	2.008202	-0.752349	99
Es	-0.960882	0.838327	0.779085	99
Es	1.827769	-0.957962	0.002961	99
Es	-0.676645	-1.799338	-0.160519	99
Es	-0.252403	-2.391349	-0.227272	99
Es	0.644959	-0.541444	0.324179	99
Es	-1.338809	-1.902080	0.155902	99
Es	-0.116542	1.293272	0.022064	99
Es	2.320134	1.208943	-0.233052	99
Es	0.667737	-0.471438	-0.321407	99
Es	-2.469191	-1.397952	-0.113128	99
Es	0.394559	2.380244	0.343160	99
Es	-1.222972	0.881643	-0.387855	99
43
Properties=species:S:1:pos:R:3:Z:I:1 energy=-270.95769032403405 field_type=dipole dipole="0.000000 0.000000 0.000000" charge=0
C	-2.004853	-1.957680	-0.178504	6
C	-0.676753	-1.799360	-0.160524	6
C	0.008627	-0.543180	-0.016314	6
C	1.340357	-0.408380	0.038346	6
C	1.753847	1.013640	0.221756	6
C	0.469177	1.781200	-0.076134	6
C	-0.674873	0.785670	0.118026	6
H	-2.437203	-2.947390	-0.290524	1
H	-2.695113	-1.126260	-0.081924	1
H	-0.051683	-2.686240	-0.258834	1
H	2.051707	-1.221640	-0.011434	1
H	2.095607	1.180580	1.248356	1
H	2.552547	1.298300	-0.469344	1
H	0.480737	2.132170	-1.116534	1
H	0.359057	2.665050	0.560536	1
H	-1.448673	0.944870	-0.639694	1
H	-1.122513	0.888650	1.112746	1
Es	1.965129	1.106403	0.893631	99
Es	1.340488	-0.408353	0.038356	99
Es	-0.958459	0.837522	0.775386	99
Es	-0.674841	0.785648	0.118022	99
Es	0.667861	-0.471101	-0.321325	99
Es	-2.312149	-2.625463	-0.256096	99
Es	0.644799	-0.541475	0.324333	99
Es	1.126696	1.413928	0.070004	99
Es	-2.004962	-1.957693	-0.178511	99
Es	-2.468372	-1.398137	-0.113067	99
Es	-0.348518	-1.164838	-0.088118	99
Es	-0.676644	-1.799339	-0.160522	99
Es	0.469179	1.781166	-0.076124	99
Es	-1.225330	0.881252	-0.384734	99
Es	1.594943	0.305674	0.133672	99
Es	-0.253581	-2.390679	-0.227418	99
Es	0.476580	2.006252	-0.746951	99
Es	-1.338680	-1.902224	0.156142	99
Es	-1.340372	-1.826166	-0.491512	99
Es	-0.115613	1.291720	0.020768	99
Es	0.394562	2.379592	0.341949	99
Es	0.008491	-0.543191	-0.016318	99
Es	-0.369365	0.114347	0.049832	99
Es	1.753827	1.013617	0.221750	99
Es	1.827617	-0.957930	0.002797	99
Es	2.322410	1.209629	-0.228655	99
43
Properties=species:S:1:pos:R:3:Z:I:1 energy=-270.95769032403405 field_type=dipole dipole="0.000000 0.000000 0.000000" charge=0
C	-2.004853	-1.957680	-0.178504	6
C	-0.676753	-1.799360	-0.160524	6
C	0.008627	-0.543180	-0.016314	6
C	1.340357	-0.408380	0.038346	6
C	1.753847	1.013640	0.221756	6
C	0.469177	1.781200	-0.076134	6
C	-0.674873	0.785670	0.118026	6
H	-2.437203	-2.947390	-0.290524	1
H	-2.695113	-1.126260	-0.081924	1
H	-0.051683	-2.686240	-0.258834	1
H	2.051707	-1.221640	-0.011434	1
H	2.095607	1.180580	1.248356	1
H	2.552547	1.298300	-0.469344	1
H	0.480737	2.132170	-1.116534	1
H	0.359057	2.665050	0.560536	1
H	-1.448673	0.944870	-0.639694	1
H	-1.122513	0.888650	1.112746	1
Es	1.963859	1.105376	0.889906	99
Es	-0.369382	0.115975	0.050016	99
Es	-0.676645	-1.799337	-0.160521	99
Es	-2.004962	-1.957692	-0.178508	99
Es	0.008492	-0.543191	-0.016317	99
Es	1.596088	0.309045	0.134140	99
Es	0.476586	2.004306	-0.742078	99
Es	-1.340364	-1.826059	-0.491654	99
Es	-1.227184	0.881144	-0.381819	99
Es	-0.956566	0.837013	0.772277	99
Es	-2.467672	-1.398371	-0.113054	99
Es	0.394631	2.379162	0.340823	99
Es	2.323860	1.210114	-0.225369	99
Es	1.753827	1.013614	0.221748	99
Es	-0.348808	-1.164258	-0.088067	99
Es	1.827509	-0.957940	0.002689	99
Es	1.125914	1.412376	0.067648	99
Es	-0.674841	0.785648	0.118022	99
Es	-0.114869	1.290339	0.019394	99
Es	0.469179	1.781177	-0.076137	99
Es	1.340487	-0.408352	0.038357	99
Es	-1.338691	-1.902330	0.156162	99
Es	0.644551	-0.541384	0.324241	99
Es	0.668037	-0.470845	-0.321130	99
Es	-0.254497	-2.390111	-0.227338	99
Es	-2.312844	-2.625260	-0.256135	99
43
Properties=species:S:1:pos:R:3:Z:I:1 energy=-270.95769032403405 field_type=dipole dipole="0.000000 0.000000 0.000000" charge=0
C	-2.004853	-1.957680	-0.178504	6
C	-0.676753	-1.799360	-0.160524	6
C	0.008627	-0.543180	-0.016314	6
C	1.340357	-0.408380	0.038346	6
C	1.753847	1.013640	0.221756	6
C	0.469177	1.781200	-0.076134	6
C	-0.674873	0.785670	0.118026	6
H	-2.437203	-2.947390	-0.290524	1
H	-2.695113	-1.126260	-0.081924	1
H	-0.051683	-2.686240	-0.258834	1
H	2.051707	-1.221640	-0.011434	1
H	2.095607	1.180580	1.248356	1
H	2.552547	1.298300	-0.469344	1
H	0.480737	2.132170	-1.116534	1
H	0.359057	2.665050	0.560536	1
H	-1.448673	0.944870	-0.639694	1
H	-1.122513	0.888650	1.112746	1
Es	1.125309	1.411080	0.065644	99
Es	-1.338672	-1.902442	0.156260	99
Es	-2.313404	-2.625034	-0.256148	99
Es	-1.340382	-1.825990	-0.491698	99
Es	0.394653	2.378492	0.339992	99
Es	-0.954906	0.836579	0.769142	99
Es	1.753826	1.013616	0.221748	99
Es	1.340486	-0.408350	0.038355	99
Es	2.325083	1.210498	-0.222205	99
Es	-0.674842	0.785648	0.118022	99
Es	1.596596	0.311973	0.134525	99
Es	-0.349098	-1.163717	-0.088114	99
Es	-0.368989	0.116981	0.050371	99
Es	-0.676645	-1.799338	-0.160516	99
Es	-0.255297	-2.389590	-0.227410	99
Es	-2.004962	-1.957693	-0.178504	99
Es	0.644792	-0.541361	0.324292	99
Es	-2.467130	-1.398506	-0.112998	99
Es	1.962750	1.104600	0.886526	99
Es	0.667786	-0.470613	-0.321192	99
Es	0.008490	-0.543195	-0.016319	99
Es	0.476620	2.002865	-0.738222	99
Es	1.827766	-0.957898	0.002575	99
Es	-0.114561	1.289760	0.018352	99
Es	-1.228752	0.880626	-0.379042	99
Es	0.469180	1.781168	-0.076145	99
43
Properties=species:S:1:pos:R:3:Z:I:1 energy=-270.95769032403405 field_type=dipole dipole="0.000000 0.000000 0.000000" charge=0
C	-2.004853	-1.957680	-0.178504	6
C	-0.676753	-1.799360	-0.160524	6
C	0.008627	-0.543180	-0.016314	6
C	1.340357	-0.408380	0.038346	6
C	1.753847	1.013640	0.221756	6
C	0.469177	1.781200	-0.076134	6
C	-0.674873	0.785670	0.118026	6
H	-2.437203	-2.947390	-0.290524	1
H	-2.695113	-1.126260	-0.081924	1
H	-0.051683	-2.686240	-0.258834	1
H	2.051707	-1.221640	-0.011434	1
H	2.095607	1.180580	1.248356	1
H	2.552547	1.298300	-0.469344	1
H	0.480737	2.132170	-1.116534	1
H	0.359057	2.665050	0.560536	1
H	-1.448673	0.944870	-0.639694	1
H	-1.122513	0.888650	1.112746	1
Es	0.008493	-0.543195	-0.016319	99
Es	1.124610	1.408956	0.064126	99
Es	0.668250	-0.470472	-0.320933	99
Es	-0.255953	-2.389128	-0.227344	99
Es	1.753827	1.013613	0.221748	99
Es	-2.313750	-2.624893	-0.256233	99
Es	0.469179	1.781165	-0.076127	99
Es	2.326046	1.210777	-0.219495	99
Es	1.827779	-0.957840	0.002480	99
Es	-1.340440	-1.826106	-0.491597	99
Es	0.476671	2.001785	-0.735450	99
Es	-0.368784	0.117645	0.050440	99
Es	0.644307	-0.541377	0.324143	99
Es	-2.004963	-1.957695	-0.178507	99
Es	-1.229825	0.880607	-0.376997	99
Es	-1.338602	-1.902425	0.156159	99
Es	0.394677	2.378208	0.339562	99
Es	1.961891	1.104084	0.883367	99
Es	-0.674841	0.785649	0.118022	99
Es	-0.953804	0.836282	0.766861	99
Es	-0.114168	1.288989	0.017622	99
Es	-2.466789	-1.398573	-0.113024	99
Es	1.340487	-0.408351	0.038355	99
Es	1.597299	0.315078	0.135047	99
Es	-0.349257	-1.163282	-0.088095	99
Es	-0.676645	-1.799337	-0.160521	99
43
Properties=species:S:1:pos:R:3:Z:I:1 energy=-270.95769032403405 field_type=dipole dipole="0.000000 0.000000 0.000000" charge=0
C	-2.004853	-1.957680	-0.178504	6
C	-0.676753	-1.799360	-0.160524	6
C	0.008627	-0.543180	-0.016314	6
C	1.340357	-0.408380	0.038346	6
C	1.753847	1.013640	0.221756	6
C	0.469177	1.781200	-0.076134	6
C	-0.674873	0.785670	0.118026	6
H	-2.437203	-2.947390	-0.290524	1
H	-2.695113	-1.126260	-0.081924	1
H	-0.051683	-2.686240	-0.258834	1
H	2.051707	-1.221640	-0.011434	1
H	2.095607	1.180580	1.248356	1
H	2.552547	1.298300	-0.469344	1
H	0.480737	2.132170	-1.116534	1
H	0.359057	2.665050	0.560536	1
H	-1.448673	0.944870	-0.639694	1
H	-1.122513	0.888650	1.112746	1
Es	2.326553	1.210752	-0.218186	99
Es	-0.368931	0.118716	0.050529	99
Es	-0.349184	-1.163165	-0.088095	99
Es	-0.676645	-1.799329	-0.160519	99
Es	-2.314216	-2.624688	-0.256233	99
Es	-0.952387	0.835892	0.763833	99
Es	0.667708	-0.470332	-0.321128	99
Es	0.394666	2.378000	0.339041	99
Es	1.597738	0.317507	0.135640	99
Es	1.124163	1.407498	0.062828	99
Es	-2.004962	-1.957694	-0.178506	99
Es	1.753830	1.013616	0.221750	99
Es	1.340486	-0.408349	0.038356	99
Es	1.827790	-0.957883	0.002402	99
Es	-0.256471	-2.388827	-0.227339	99
Es	-1.338640	-1.902547	0.156225	99
Es	0.644804	-0.541205	0.324183	99
Es	-0.674841	0.785648	0.118022	99
Es	0.008491	-0.543191	-0.016317	99
Es	-1.231201	0.880561	-0.374044	99
Es	-1.340410	-1.825930	-0.491739	99
Es	-0.113700	1.288071	0.016993	99
Es	-2.466333	-1.398742	-0.112938	99
Es	1.961471	1.103927	0.881575	99
Es	0.476736	2.000690	-0.732917	99
Es	0.469179	1.781166	-0.076125	99
43
Properties=species:S:1:pos:R:3:Z:I:1 energy=-270.95769032403405 field_type=dipole dipole="0.000000 0.000000 0.000000" charge=0
C	-2.004853	-1.957680	-0.178504	6
C	-0.676753	-1.799360	-0.160524	6
C	0.008627	-0.543180	-0.016314	6
C	1.340357	-0.408380	0.038346	6
C	1.753847	1.013640	0.221756	6
C	0.469177	1.781200	-0.076134	6
C	-0.674873	0.785670	0.118026	6
H	-2.437203	-2.947390	-0.290524	1
H	-2.695113	-1.126260	-0.081924	1
H	-0.051683	-2.686240	-0.258834	1
H	2.051707	-1.221640	-0.011434	1
H	2.095607	1.180580	1.248356	1
H	2.552547	1.298300	-0.469344	1
H	0.480737	2.132170	-1.116534	1
H	0.359057	2.665050	0.560536	1
H	-1.448673	0.944870	-0.639694	1
H	-1.122513	0.888650	1.112746	1
Es	0.667771	-0.470211	-0.321101	99
Es	-2.466199	-1.398774	-0.112915	99
Es	-0.676645	-1.799337	-0.160521	99
Es	1.597985	0.319391	0.135715	99
Es	-0.256850	-2.388498	-0.227363	99
Es	1.827880	-0.957874	0.002387	99
Es	0.644727	-0.541191	0.324130	99
Es	1.123825	1.406371	0.061421	99
Es	-0.674841	0.785648	0.118021	99
Es	0.469178	1.781175	-0.076121	99
Es	1.340486	-0.408351	0.038359	99
Es	-1.231823	0.880334	-0.372657	99
Es	-1.338590	-1.902588	0.156213	99
Es	-2.004962	-1.957693	-0.178506	99
Es	-2.314352	-2.624620	-0.256301	99
Es	1.960791	1.103375	0.879104	99
Es	-0.113507	1.287650	0.016485	99
Es	1.753828	1.013616	0.221750	99
Es	-0.368558	0.118986	0.050723	99
Es	0.476785	1.999931	-0.730817	99
Es	-1.340454	-1.825966	-0.491664	99
Es	-0.951732	0.835835	0.762257	99
Es	-0.349578	-1.162555	-0.088096	99
Es	0.394761	2.377615	0.338806	99
Es	0.008491	-0.543193	-0.016316	99
Es	2.327280	1.211083	-0.215700	99
43
Properties=species:S:1:pos:R:3:Z:I:1 energy=-270.95769032403405 field_type=dipole dipole="0.000000 0.000000 0.000000" charge=0
C	-2.004853	-1.957680	-0.178504	6
C	-0.676753	-1.799360	-0.160524	6
C	0.008627	-0.543180	-0.016314	6
C	1.340357	-0.408380	0.038346	6
C	1.753847	1.013640	0.221756	6
C	0.469177	1.781200	-0.076134	6
C	-0.674873	0.785670	0.118026	6
H	-2.437203	-2.947390	-0.290524	1
H	-2.695113	-1.126260	-0.081924	1
H	-0.051683	-2.686240	-0.258834	1
H	2.051707	-1.221640	-0.011434	1
H	2.095607	1.180580	1.248356	1
H	2.552547	1.298300	-0.469344	1
H	0.480737	2.132170	-1.116534	1
H	0.359057	2.665050	0.560536	1
H	-1.448673	0.944870	-0.639694	1
H	-1.122513	0.888650	1.112746	1
Es	0.476853	1.998999	-0.728830	99
Es	1.123557	1.405220	0.060746	99
Es	-1.340432	-1.825901	-0.491742	99
Es	0.008491	-0.543192	-0.016314	99
Es	1.960319	1.103036	0.877200	99
Es	-0.349700	-1.162245	-0.088082	99
Es	-0.113225	1.287050	0.015951	99
Es	-2.004963	-1.957693	-0.178506	99
Es	2.327793	1.211286	-0.213919	99
Es	1.827992	-0.957859	0.002335	99
Es	1.753827	1.013616	0.221748	99
Es	-0.674840	0.785647	0.118022	99
Es	0.667740	-0.470141	-0.321057	99
Es	1.340486	-0.408350	0.038355	99
Es	0.469183	1.781221	-0.076342	99
Es	-2.466019	-1.398824	-0.112911	99
Es	0.644726	-0.541082	0.324025	99
Es	0.394723	2.377545	0.338292	99
Es	-0.676645	-1.799336	-0.160521	99
Es	1.598151	0.321230	0.135894	99
Es	-1.232465	0.880358	-0.371146	99
Es	-0.368393	0.119373	0.050692	99
Es	-2.314539	-2.624537	-0.256272	99
Es	-0.257247	-2.388221	-0.227348	99
Es	-0.951070	0.835611	0.760792	99
Es	-1.338608	-1.902650	0.156230	99
43
Properties=species:S:1:pos:R:3:Z:I:1 energy=-270.95769032403405 field_type=dipole dipole="0.000000 0.000000 0.000000" charge=0
C	-2.004853	-1.957680	-0.178504	6
C	-0.676753	-1.799360	-0.160524	6
C	0.008627	-0.543180	-0.016314	6
C	1.340357	-0.408380	0.038346	6
C	1.753847	1.013640	0.221756	6
C	0.469177	1.781200	-0.076134	6
C	-0.674873	0.785670	0.118026	6
H	-2.437203	-2.947390	-0.290524	1
H	-2.695113	-1.126260	-0.081924	1
H	-0.051683	-2.686240	-0.258834	1
H	2.051707	-1.221640	-0.011434	1
H	2.095607	1.180580	1.248356	1
H	2.552547	1.298300	-0.469344	1
H	0.480737	2.132170	-1.116534	1
H	0.359057	2.665050	0.560536	1
H	-1.448673	0.944870	-0.639694	1
H	-1.122513	0.888650	1.112746	1
Es	-2.465440	-1.399024	-0.112925	99
Es	1.960062	1.102800	0.875945	99
Es	1.123279	1.403871	0.060214	99
Es	0.008490	-0.543193	-0.016319	99
Es	-0.676645	-1.799338	-0.160521	99
Es	-0.950321	0.835468	0.758841	99
Es	1.598093	0.322912	0.136041	99
Es	-1.233197	0.880377	-0.369338	99
Es	-0.349521	-1.162317	-0.088112	99
Es	0.469178	1.781170	-0.076116	99
Es	0.476917	1.998424	-0.727706	99
Es	0.668073	-0.470090	-0.320936	99
Es	-1.340504	-1.826058	-0.491531	99
Es	-0.257550	-2.387985	-0.227348	99
Es	0.394778	2.377383	0.338049	99
Es	-0.112982	1.286568	0.015617	99
Es	-2.004963	-1.957691	-0.178506	99
Es	-1.338531	-1.902530	0.156029	99
Es	-0.368626	0.120157	0.050743	99
Es	2.328085	1.211423	-0.212828	99
Es	-0.674842	0.785646	0.118028	99
Es	-2.315122	-2.624310	-0.256247	99
Es	0.644378	-0.540997	0.323824	99
Es	1.828294	-0.957772	0.002291	99
Es	1.753828	1.013616	0.221748	99
Es	1.340484	-0.408345	0.038355	99
43
Properties=species:S:1:pos:R:3:Z:I:1 energy=-270.95769032403405 field_type=dipole dipole="0.000000 0.000000 0.000000" charge=0
C	-2.004853	-1.957680	-0.178504	6
C	-0.676753	-1.799360	-0.160524	6
C	0.008627	-0.543180	-0.016314	6
C	1.340357	-0.408380	0.038346	6
C	1.753847	1.013640	0.221756	6
C	0.469177	1.781200	-0.076134	6
C	-0.674873	0.785670	0.118026	6
H	-2.437203	-2.947390	-0.290524	1
H	-2.695113	-1.126260	-0.081924	1
H	-0.051683	-2.686240	-0.258834	1
H	2.051707	-1.221640	-0.011434	1
H	2.095607	1.180580	1.248356	1
H	2.552547	1.298300	-0.469344	1
H	0.480737	2.132170	-1.116534	1
H	0.359057	2.665050	0.560536	1
H	-1.448673	0.944870	-0.639694	1
H	-1.122513	0.888650	1.112746	1
Es	1.959656	1.102470	0.874203	99
Es	-1.233644	0.880346	-0.368221	99
Es	-0.676645	-1.799336	-0.160522	99
Es	-0.349829	-1.161820	-0.088163	99
Es	-2.315092	-2.624265	-0.256321	99
Es	0.476954	1.997969	-0.726440	99
Es	-0.368240	0.120035	0.050674	99
Es	-0.949865	0.835393	0.757689	99
Es	-2.004962	-1.957693	-0.178506	99
Es	1.598615	0.324357	0.136152	99
Es	-2.465478	-1.399007	-0.112918	99
Es	-0.112899	1.286256	0.015426	99
Es	2.328553	1.211482	-0.211168	99
Es	-1.338595	-1.902676	0.156266	99
Es	0.643957	-0.540885	0.323528	99
Es	0.008489	-0.543190	-0.016315	99
Es	-0.257780	-2.387847	-0.227316	99
Es	1.753827	1.013616	0.221749	99
Es	1.123068	1.403096	0.059403	99
Es	0.668494	-0.470045	-0.320577	99
Es	-0.674842	0.785647	0.118025	99
Es	1.827919	-0.957870	0.002310	99
Es	0.394815	2.377126	0.338053	99
Es	0.469182	1.781218	-0.076310	99
Es	-1.340449	-1.825866	-0.491758	99
Es	1.340487	-0.408351	0.038352	99
43
Properties=species:S:1:pos:R:3:Z:I:1 energy=-270.95769032403405 field_type=dipole dipole="0.000000 0.000000 0.000000" charge=0
C	-2.004853	-1.957680	-0.178504	6
C	-0.676753	-1.799360	-0.160524	6
C	0.008627	-0.543180	-0.016314	6
C	1.340357	-0.408380	0.038346	6
C	1.753847	1.013640	0.221756	6
C	0.469177	1.781200	-0.076134	6
C	-0.674873	0.785670	0.118026	6
H	-2.437203	-2.947390	-0.290524	1
H	-2.695113	-1.126260	-0.081924	1
H	-0.051683	-2.686240	-0.258834	1
H	2.051707	-1.221640	-0.011434	1
H	2.095607	1.180580	1.248356	1
H	2.552547	1.298300	-0.469344	1
H	0.480737	2.132170	-1.116534	1
H	0.359057	2.665050	0.560536	1
H	-1.448673	0.944870	-0.639694	1
H	-1.122513	0.888650	1.112746	1
Es	1.122913	1.402380	0.058673	99
Es	-0.676644	-1.799340	-0.160522	99
Es	-1.340464	-1.825897	-0.491704	99
Es	-0.350257	-1.161270	-0.088037	99
Es	-1.338574	-1.902685	0.156193	99
Es	-2.315137	-2.624270	-0.256308	99
Es	1.598409	0.325370	0.136376	99
Es	1.959311	1.102406	0.872616	99
Es	0.477038	1.997053	-0.725076	99
Es	1.340492	-0.408359	0.038351	99
Es	-2.465429	-1.399025	-0.112901	99
Es	0.469179	1.781201	-0.076192	99
Es	-1.233906	0.880437	-0.367538	99
Es	1.828278	-0.957828	0.002317	99
Es	-2.004962	-1.957695	-0.178509	99
Es	2.328899	1.211623	-0.209775	99
Es	-0.674841	0.785648	0.118022	99
Es	1.753829	1.013617	0.221762	99
Es	0.667781	-0.470017	-0.320972	99
Es	-0.112751	1.285902	0.015434	99
Es	-0.257902	-2.387714	-0.227332	99
Es	0.394826	2.377274	0.337428	99
Es	0.008492	-0.543197	-0.016317	99
Es	-0.949604	0.835277	0.756942	99
Es	-0.367906	0.119862	0.050670	99
Es	0.644625	-0.540593	0.323693	99
43
Properties=species:S:1:pos:R:3:Z:I:1 energy=-270.95769032403405 field_type=dipole dipole="0.000000 0.000000 0.000000" charge=0
C	-2.004853	-1.957680	-0.178504	6
C	-0.676753	-1.799360	-0.160524	6
C	0.008627	-0.543180	-0.016314	6
C	1.340357	-0.408380	0.038346	6
C	1.753847	1.013640	0.221756	6
C	0.469177	1.781200	-0.076134	6
C	-0.674873	0.785670	0.118026	6
H	-2.437203	-2.947390	-0.290524	1
H	-2.695113	-1.126260	-0.081924	1
H	-0.051683	-2.686240	-0.258834	1
H	2.051707	-1.221640	-0.011434	1
H	2.095607	1.180580	1.248356	1
H	2.552547	1.298300	-0.469344	1
H	0.480737	2.132170	-1.116534	1
H	0.359057	2.665050	0.560536	1
H	-1.448673	0.944870	-0.639694	1
H	-1.122513	0.888650	1.112746	1
Es	-1.340439	-1.825813	-0.491811	99
Es	-2.465466	-1.399031	-0.112879	99
Es	0.469179	1.781169	-0.076124	99
Es	1.122775	1.401490	0.058427	99
Es	-0.349955	-1.161512	-0.088091	99
Es	1.753828	1.013616	0.221748	99
Es	0.008490	-0.543190	-0.016317	99
Es	-0.258162	-2.387524	-0.227301	99
Es	-0.368244	0.120799	0.050804	99
Es	0.477059	1.996941	-0.724638	99
Es	-0.112478	1.285273	0.015206	99
Es	0.394813	2.377071	0.337599	99
Es	-2.315099	-2.624270	-0.256309	99
Es	0.667945	-0.469953	-0.320920	99
Es	1.340483	-0.408343	0.038350	99
Es	-2.004964	-1.957692	-0.178507	99
Es	1.828102	-0.957823	0.002278	99
Es	0.644443	-0.540526	0.323549	99
Es	-1.338605	-1.902734	0.156269	99
Es	1.598694	0.326626	0.136290	99
Es	1.959033	1.102036	0.871316	99
Es	-1.234376	0.880337	-0.366269	99
Es	-0.949106	0.835160	0.755551	99
Es	-0.674831	0.785629	0.118020	99
Es	-0.676645	-1.799336	-0.160520	99
Es	2.329223	1.211762	-0.208428	99
43
Properties=species:S:1:pos:R:3:Z:I:1 energy=-270.95769032403405 field_type=dipole dipole="0.000000 0.000000 0.000000" charge=0
C	-2.004853	-1.957680	-0.178504	6
C	-0.676753	-1.799360	-0.160524	6
C	0.008627	-0.543180	-0.016314	6
C	1.340357	-0.408380	0.038346	6
C	1.753847	1.013640	0.221756	6
C	0.469177	1.781200	-0.076134	6
C	-0.674873	0.785670	0.118026	6
H	-2.437203	-2.947390	-0.290524	1
H	-2.695113	-1.126260	-0.081924	1
H	-0.051683	-2.686240	-0.258834	1
H	2.051707	-1.221640	-0.011434	1
H	2.095607	1.180580	1.248356	1
H	2.552547	1.298300	-0.469344	1
H	0.480737	2.132170	-1.116534	1
H	0.359057	2.665050	0.560536	1
H	-1.448673	0.944870	-0.639694	1
H	-1.122513	0.888650	1.112746	1
Es	-0.676645	-1.799335	-0.160523	99
Es	-0.350159	-1.161167	-0.088139	99
Es	-2.315307	-2.624151	-0.256329	99
Es	0.644192	-0.540437	0.323334	99
Es	0.469180	1.781273	-0.076361	99
Es	2.329401	1.211749	-0.207743	99
Es	-1.338644	-1.902824	0.156230	99
Es	-0.112421	1.285128	0.015033	99
Es	0.477105	1.996349	-0.723686	99
Es	-2.465274	-1.399049	-0.112860	99
Es	1.958866	1.102011	0.870605	99
Es	1.340486	-0.408349	0.038355	99
Es	0.668166	-0.469878	-0.320794	99
Es	-0.674842	0.785648	0.118024	99
Es	-1.234815	0.880274	-0.365072	99
Es	1.598781	0.327702	0.136537	99
Es	-0.368009	0.120725	0.050828	99
Es	-1.340394	-1.825773	-0.491783	99
Es	-2.004962	-1.957692	-0.178506	99
Es	0.394799	2.377002	0.337287	99
Es	1.828126	-0.957833	0.002230	99
Es	-0.258269	-2.387496	-0.227262	99
Es	1.122672	1.400720	0.058029	99
Es	1.753828	1.013616	0.221749	99
Es	0.008491	-0.543191	-0.016321	99
Es	-0.948654	0.835139	0.754431	99
