40
Properties=species:S:1:pos:R:3:Z:I:1 energy=-269.7716484617907 field_type=dipole dipole="0.000000 0.000000 0.000000" charge=0
C	-1.939848	-1.834798	-0.460189	6
C	-0.668648	-1.632148	-0.093849	6
C	-0.028168	-0.343328	0.010431	6
C	1.275762	-0.195028	0.320371	6
C	1.649072	1.256592	0.364971	6
C	0.348612	1.919262	0.038121	6
C	-0.593548	0.986322	-0.158399	6
H	-2.341108	-2.841878	-0.513069	1
H	-2.609908	-1.022048	-0.717429	1
H	-0.056668	-2.499848	0.145491	1
H	1.975592	-0.994578	0.513621	1
H	2.413302	1.491622	-0.381329	1
H	2.001612	1.543572	1.359871	1
H	0.200222	2.986312	-0.024519	1
H	-1.626278	1.179972	-0.404089	1
Es	-1.297848	1.109095	-0.326220	99
Es	-0.206957	1.458916	0.247080	99
Es	-0.061335	1.443359	-0.373403	99
Es	0.348716	1.919324	0.038147	99
Es	1.875554	1.443174	1.027004	99
Es	-0.368690	0.292181	-0.088876	99
Es	-1.394773	-1.698922	0.030716	99
Es	-0.593630	0.986212	-0.158412	99
Es	-2.218871	-2.515058	-0.498361	99
Es	-2.396697	-1.284123	-0.634738	99
Es	-0.668540	-1.632106	-0.093816	99
Es	-0.244746	-2.213945	0.070256	99
Es	0.532733	-0.281529	0.466624	99
Es	1.756771	-0.735040	0.453080	99
Es	2.150211	1.408487	-0.134929	99
Es	-1.210306	-1.739181	-0.584467	99
Es	-1.939947	-1.834810	-0.460217	99
Es	-0.365292	-0.977777	-0.046405	99
Es	0.676996	-0.303009	-0.144200	99
Es	-0.028290	-0.343344	0.010417	99
Es	1.500782	0.524070	0.351582	99
Es	1.018034	1.626130	0.204569	99
Es	1.275882	-0.194979	0.320395	99
Es	0.258823	2.645170	-0.001818	99
Es	1.649048	1.256582	0.364966	99
40
Properties=species:S:1:pos:R:3:Z:I:1 energy=-269.7716484617907 field_type=dipole dipole="0.000000 0.000000 0.000000" charge=0
C	-1.939848	-1.834798	-0.460189	6
C	-0.668648	-1.632148	-0.093849	6
C	-0.028168	-0.343328	0.010431	6
C	1.275762	-0.195028	0.320371	6
C	1.649072	1.256592	0.364971	6
C	0.348612	1.919262	0.038121	6
C	-0.593548	0.986322	-0.158399	6
H	-2.341108	-2.841878	-0.513069	1
H	-2.609908	-1.022048	-0.717429	1
H	-0.056668	-2.499848	0.145491	1
H	1.975592	-0.994578	0.513621	1
H	2.413302	1.491622	-0.381329	1
H	2.001612	1.543572	1.359871	1
H	0.200222	2.986312	-0.024519	1
H	-1.626278	1.179972	-0.404089	1
Es	-0.061684	1.441791	-0.371551	99
Es	-1.301555	1.107807	-0.327471	99
Es	0.348718	1.919325	0.038149	99
Es	-0.247026	-2.212357	0.068786	99
Es	0.676263	-0.301332	-0.143338	99
Es	-2.394271	-1.284831	-0.633141	99
Es	-0.363999	0.294722	-0.088169	99
Es	-1.210538	-1.739284	-0.583670	99
Es	1.649046	1.256579	0.364968	99
Es	1.503431	0.524293	0.352321	99
Es	0.532780	-0.279977	0.465434	99
Es	-0.366139	-0.977808	-0.047379	99
Es	1.754723	-0.734355	0.452904	99
Es	1.019881	1.628368	0.204967	99
Es	-0.668535	-1.632106	-0.093819	99
Es	1.877687	1.443350	1.024841	99
Es	-0.028291	-0.343346	0.010400	99
Es	-1.394638	-1.699578	0.029790	99
Es	0.257684	2.642054	-0.001784	99
Es	-0.206641	1.457846	0.245406	99
Es	-0.593630	0.986212	-0.158418	99
Es	-2.221166	-2.516769	-0.498437	99
Es	1.275879	-0.194974	0.320401	99
Es	2.149599	1.408061	-0.132001	99
Es	-1.939949	-1.834811	-0.460216	99
40
Properties=species:S:1:pos:R:3:Z:I:1 energy=-269.7716484617907 field_type=dipole dipole="0.000000 0.000000 0.000000" charge=0
C	-1.939848	-1.834798	-0.460189	6
C	-0.668648	-1.632148	-0.093849	6
C	-0.028168	-0.343328	0.010431	6
C	1.275762	-0.195028	0.320371	6
C	1.649072	1.256592	0.364971	6
C	0.348612	1.919262	0.038121	6
C	-0.593548	0.986322	-0.158399	6
H	-2.341108	-2.841878	-0.513069	1
H	-2.609908	-1.022048	-0.717429	1
H	-0.056668	-2.499848	0.145491	1
H	1.975592	-0.994578	0.513621	1
H	2.413302	1.491622	-0.381329	1
H	2.001612	1.543572	1.359871	1
H	0.200222	2.986312	-0.024519	1
H	-1.626278	1.179972	-0.404089	1
Es	1.649049	1.256582	0.364966	99
Es	1.881214	1.444346	1.023047	99
Es	0.533456	-0.278795	0.464534	99
Es	-1.939954	-1.834811	-0.460213	99
Es	1.021014	1.631371	0.205195	99
Es	0.675960	-0.300109	-0.142282	99
Es	1.752629	-0.734131	0.452505	99
Es	-0.593630	0.986212	-0.158425	99
Es	2.146301	1.406712	-0.129785	99
Es	1.506667	0.523878	0.352843	99
Es	1.275887	-0.194978	0.320384	99
Es	-1.210745	-1.739236	-0.582615	99
Es	-0.366353	-0.977343	-0.047777	99
Es	0.348719	1.919324	0.038146	99
Es	-0.206601	1.456704	0.244369	99
Es	-2.223812	-2.517316	-0.498738	99
Es	-0.028288	-0.343347	0.010400	99
Es	-2.391519	-1.285303	-0.631849	99
Es	-0.249698	-2.211244	0.067518	99
Es	-1.394443	-1.699996	0.028662	99
Es	-1.303357	1.105319	-0.327990	99
Es	0.256367	2.638897	-0.002046	99
Es	-0.668539	-1.632106	-0.093820	99
Es	-0.062404	1.440956	-0.370467	99
Es	-0.360291	0.297290	-0.087590	99
40
Properties=species:S:1:pos:R:3:Z:I:1 energy=-269.7716484617907 field_type=dipole dipole="0.000000 0.000000 0.000000" charge=0
C	-1.939848	-1.834798	-0.460189	6
C	-0.668648	-1.632148	-0.093849	6
C	-0.028168	-0.343328	0.010431	6
C	1.275762	-0.195028	0.320371	6
C	1.649072	1.256592	0.364971	6
C	0.348612	1.919262	0.038121	6
C	-0.593548	0.986322	-0.158399	6
H	-2.341108	-2.841878	-0.513069	1
H	-2.609908	-1.022048	-0.717429	1
H	-0.056668	-2.499848	0.145491	1
H	1.975592	-0.994578	0.513621	1
H	2.413302	1.491622	-0.381329	1
H	2.001612	1.543572	1.359871	1
H	0.200222	2.986312	-0.024519	1
H	-1.626278	1.179972	-0.404089	1
Es	-0.366567	-0.976713	-0.047613	99
Es	2.098657	1.388673	-0.104219	99
Es	0.256091	2.635042	-0.003788	99
Es	-2.388987	-1.286597	-0.629314	99
Es	-1.210295	-1.739073	-0.583189	99
Es	1.021738	1.633983	0.205286	99
Es	1.649049	1.256583	0.364966	99
Es	0.532544	-0.277835	0.464535	99
Es	-0.252009	-2.209448	0.065320	99
Es	-0.028290	-0.343348	0.010403	99
Es	1.275889	-0.194978	0.320398	99
Es	-0.207792	1.455147	0.244470	99
Es	-1.394803	-1.700489	0.028929	99
Es	1.929772	1.461872	0.994500	99
Es	0.348720	1.919322	0.038141	99
Es	0.678156	-0.298987	-0.142698	99
Es	1.750628	-0.733324	0.450536	99
Es	-0.668538	-1.632107	-0.093827	99
Es	-1.304399	1.102666	-0.326356	99
Es	-0.062242	1.440967	-0.371337	99
Es	1.509643	0.523934	0.353932	99
Es	-2.227065	-2.516595	-0.497762	99
Es	-0.593631	0.986210	-0.158415	99
Es	-1.939954	-1.834807	-0.460212	99
Es	-0.358686	0.298780	-0.083712	99
40
Properties=species:S:1:pos:R:3:Z:I:1 energy=-269.7716484617907 field_type=dipole dipole="0.000000 0.000000 0.000000" charge=0
C	-1.939848	-1.834798	-0.460189	6
C	-0.668648	-1.632148	-0.093849	6
C	-0.028168	-0.343328	0.010431	6
C	1.275762	-0.195028	0.320371	6
C	1.649072	1.256592	0.364971	6
C	0.348612	1.919262	0.038121	6
C	-0.593548	0.986322	-0.158399	6
H	-2.341108	-2.841878	-0.513069	1
H	-2.609908	-1.022048	-0.717429	1
H	-0.056668	-2.499848	0.145491	1
H	1.975592	-0.994578	0.513621	1
H	2.413302	1.491622	-0.381329	1
H	2.001612	1.543572	1.359871	1
H	0.200222	2.986312	-0.024519	1
H	-1.626278	1.179972	-0.404089	1
Es	-0.366517	-0.976241	-0.047164	99
Es	-0.210091	1.456005	0.245895	99
Es	0.256234	2.630440	-0.004868	99
Es	-0.254435	-2.206984	0.063920	99
Es	-0.060683	1.438481	-0.373830	99
Es	1.968379	1.471688	0.942780	99
Es	0.680259	-0.298017	-0.144086	99
Es	-0.357918	0.299689	-0.081052	99
Es	1.748410	-0.731768	0.449252	99
Es	0.531726	-0.276764	0.465723	99
Es	-2.386041	-1.288765	-0.627809	99
Es	2.060924	1.378354	-0.054561	99
Es	-0.668539	-1.632105	-0.093825	99
Es	0.348723	1.919324	0.038144	99
Es	1.275886	-0.194979	0.320390	99
Es	-0.028297	-0.343349	0.010401	99
Es	1.512270	0.524585	0.354780	99
Es	-2.230355	-2.515004	-0.497543	99
Es	-1.209773	-1.739457	-0.585052	99
Es	-0.593631	0.986210	-0.158413	99
Es	-1.304743	1.099981	-0.325137	99
Es	-1.395255	-1.700444	0.030706	99
Es	1.649051	1.256581	0.364965	99
Es	1.021997	1.636227	0.205566	99
Es	-1.939953	-1.834810	-0.460208	99
40
Properties=species:S:1:pos:R:3:Z:I:1 energy=-269.7716484617907 field_type=dipole dipole="0.000000 0.000000 0.000000" charge=0
C	-1.939848	-1.834798	-0.460189	6
C	-0.668648	-1.632148	-0.093849	6
C	-0.028168	-0.343328	0.010431	6
C	1.275762	-0.195028	0.320371	6
C	1.649072	1.256592	0.364971	6
C	0.348612	1.919262	0.038121	6
C	-0.593548	0.986322	-0.158399	6
H	-2.341108	-2.841878	-0.513069	1
H	-2.609908	-1.022048	-0.717429	1
H	-0.056668	-2.499848	0.145491	1
H	1.975592	-0.994578	0.513621	1
H	2.413302	1.491622	-0.381329	1
H	2.001612	1.543572	1.359871	1
H	0.200222	2.986312	-0.024519	1
H	-1.626278	1.179972	-0.404089	1
Es	-2.383650	-1.290683	-0.626622	99
Es	0.348721	1.919320	0.038136	99
Es	-1.395517	-1.700949	0.031090	99
Es	1.514622	0.524632	0.355566	99
Es	0.256389	2.626816	-0.005164	99
Es	-0.256505	-2.204798	0.063028	99
Es	-0.211066	1.454673	0.247154	99
Es	0.680126	-0.296108	-0.146085	99
Es	-0.028288	-0.343345	0.010405	99
Es	1.990085	1.476088	0.904809	99
Es	-0.357024	0.300347	-0.079949	99
Es	0.533242	-0.277017	0.467751	99
Es	1.649050	1.256583	0.364965	99
Es	-0.593627	0.986206	-0.158410	99
Es	-1.209400	-1.739286	-0.585686	99
Es	2.039609	1.373758	-0.017686	99
Es	1.746406	-0.730420	0.448361	99
Es	1.022029	1.638067	0.205668	99
Es	-0.366445	-0.975814	-0.046795	99
Es	-2.232869	-2.513517	-0.497788	99
Es	-1.939953	-1.834810	-0.460212	99
Es	-0.668539	-1.632105	-0.093825	99
Es	-1.304755	1.097792	-0.324578	99
Es	-0.060898	1.438424	-0.375550	99
Es	1.275884	-0.194977	0.320391	99
40
Properties=species:S:1:pos:R:3:Z:I:1 energy=-269.7716484617907 field_type=dipole dipole="0.000000 0.000000 0.000000" charge=0
C	-1.939848	-1.834798	-0.460189	6
C	-0.668648	-1.632148	-0.093849	6
C	-0.028168	-0.343328	0.010431	6
C	1.275762	-0.195028	0.320371	6
C	1.649072	1.256592	0.364971	6
C	0.348612	1.919262	0.038121	6
C	-0.593548	0.986322	-0.158399	6
H	-2.341108	-2.841878	-0.513069	1
H	-2.609908	-1.022048	-0.717429	1
H	-0.056668	-2.499848	0.145491	1
H	1.975592	-0.994578	0.513621	1
H	2.413302	1.491622	-0.381329	1
H	2.001612	1.543572	1.359871	1
H	0.200222	2.986312	-0.024519	1
H	-1.626278	1.179972	-0.404089	1
Es	-0.593628	0.986209	-0.158406	99
Es	-1.395712	-1.700655	0.032529	99
Es	-2.234890	-2.512142	-0.498197	99
Es	0.348721	1.919320	0.038138	99
Es	2.025141	1.370931	0.010809	99
Es	-0.060835	1.438072	-0.376585	99
Es	-0.366104	-0.975758	-0.046509	99
Es	0.256539	2.623995	-0.005482	99
Es	-0.211761	1.453691	0.247940	99
Es	-0.356583	0.300599	-0.079276	99
Es	-1.304699	1.096514	-0.324285	99
Es	1.744701	-0.729219	0.447848	99
Es	1.516497	0.524617	0.356293	99
Es	1.021926	1.639708	0.205520	99
Es	2.004848	1.478602	0.875731	99
Es	-1.939953	-1.834811	-0.460212	99
Es	-0.028291	-0.343346	0.010409	99
Es	-1.209227	-1.739601	-0.587046	99
Es	-0.668539	-1.632106	-0.093826	99
Es	0.681591	-0.295658	-0.146495	99
Es	-0.258113	-2.203111	0.062382	99
Es	1.275884	-0.194977	0.320390	99
Es	0.532671	-0.276136	0.468280	99
Es	-2.381606	-1.292445	-0.625942	99
Es	1.649050	1.256583	0.364966	99
40
Properties=species:S:1:pos:R:3:Z:I:1 energy=-269.7716484617907 field_type=dipole dipole="0.000000 0.000000 0.000000" charge=0
C	-1.939848	-1.834798	-0.460189	6
C	-0.668648	-1.632148	-0.093849	6
C	-0.028168	-0.343328	0.010431	6
C	1.275762	-0.195028	0.320371	6
C	1.649072	1.256592	0.364971	6
C	0.348612	1.919262	0.038121	6
C	-0.593548	0.986322	-0.158399	6
H	-2.341108	-2.841878	-0.513069	1
H	-2.609908	-1.022048	-0.717429	1
H	-0.056668	-2.499848	0.145491	1
H	1.975592	-0.994578	0.513621	1
H	2.413302	1.491622	-0.381329	1
H	2.001612	1.543572	1.359871	1
H	0.200222	2.986312	-0.024519	1
H	-1.626278	1.179972	-0.404089	1
Es	2.197526	1.457760	0.086866	99
Es	-0.593620	0.986202	-0.158422	99
Es	0.348718	1.919318	0.038155	99
Es	-0.668541	-1.632104	-0.093816	99
Es	-2.378421	-1.293971	-0.631323	99
Es	-0.066416	1.437630	-0.376089	99
Es	-2.234171	-2.511440	-0.506787	99
Es	1.021736	1.640510	0.203918	99
Es	-1.209420	-1.741172	-0.587166	99
Es	1.275880	-0.194973	0.320405	99
Es	0.676541	-0.298397	-0.145569	99
Es	1.519459	0.524418	0.355271	99
Es	-0.260854	-2.201675	0.067335	99
Es	0.254774	2.621503	0.002366	99
Es	-1.302306	1.095148	-0.333066	99
Es	1.649050	1.256583	0.364967	99
Es	1.828190	1.392269	0.816007	99
Es	-1.395768	-1.699027	0.033530	99
Es	-0.365566	-0.975545	-0.048216	99
Es	-0.351872	0.300866	-0.095755	99
Es	0.537271	-0.272076	0.470254	99
Es	-0.028285	-0.343348	0.010392	99
Es	1.741152	-0.727824	0.454197	99
Es	-1.939950	-1.834812	-0.460221	99
Es	-0.207477	1.453035	0.251740	99
40
Properties=species:S:1:pos:R:3:Z:I:1 energy=-269.7716484617907 field_type=dipole dipole="0.000000 0.000000 0.000000" charge=0
C	-1.939848	-1.834798	-0.460189	6
C	-0.668648	-1.632148	-0.093849	6
C	-0.028168	-0.343328	0.010431	6
C	1.275762	-0.195028	0.320371	6
C	1.649072	1.256592	0.364971	6
C	0.348612	1.919262	0.038121	6
C	-0.593548	0.986322	-0.158399	6
H	-2.341108	-2.841878	-0.513069	1
H	-2.609908	-1.022048	-0.717429	1
H	-0.056668	-2.499848	0.145491	1
H	1.975592	-0.994578	0.513621	1
H	2.413302	1.491622	-0.381329	1
H	2.001612	1.543572	1.359871	1
H	0.200222	2.986312	-0.024519	1
H	-1.626278	1.179972	-0.404089	1
Es	1.740110	-0.727031	0.454013	99
Es	0.348716	1.919321	0.038153	99
Es	-0.028285	-0.343348	0.010391	99
Es	1.649051	1.256581	0.364966	99
Es	-1.209475	-1.741478	-0.587550	99
Es	0.254924	2.619616	0.002516	99
Es	-2.377066	-1.295194	-0.630806	99
Es	-2.235449	-2.510318	-0.507474	99
Es	-1.939950	-1.834812	-0.460222	99
Es	1.275879	-0.194974	0.320404	99
Es	-0.261862	-2.200513	0.066915	99
Es	-0.365313	-0.975541	-0.048183	99
Es	2.196597	1.459951	0.107007	99
Es	1.829071	1.389934	0.796266	99
Es	-0.593619	0.986201	-0.158423	99
Es	-0.067216	1.439431	-0.376567	99
Es	-1.302124	1.094295	-0.333247	99
Es	-0.351493	0.301020	-0.095737	99
Es	-0.206946	1.450668	0.252467	99
Es	1.520692	0.524311	0.355571	99
Es	1.021545	1.641506	0.203770	99
Es	0.676041	-0.297788	-0.145615	99
Es	0.538052	-0.271975	0.470148	99
Es	-0.668541	-1.632109	-0.093816	99
Es	-1.395710	-1.698879	0.034025	99
40
Properties=species:S:1:pos:R:3:Z:I:1 energy=-269.7716484617907 field_type=dipole dipole="0.000000 0.000000 0.000000" charge=0
C	-1.939848	-1.834798	-0.460189	6
C	-0.668648	-1.632148	-0.093849	6
C	-0.028168	-0.343328	0.010431	6
C	1.275762	-0.195028	0.320371	6
C	1.649072	1.256592	0.364971	6
C	0.348612	1.919262	0.038121	6
C	-0.593548	0.986322	-0.158399	6
H	-2.341108	-2.841878	-0.513069	1
H	-2.609908	-1.022048	-0.717429	1
H	-0.056668	-2.499848	0.145491	1
H	1.975592	-0.994578	0.513621	1
H	2.413302	1.491622	-0.381329	1
H	2.001612	1.543572	1.359871	1
H	0.200222	2.986312	-0.024519	1
H	-1.626278	1.179972	-0.404089	1
Es	-0.668539	-1.632106	-0.093825	99
Es	2.000556	1.367259	0.065110	99
Es	0.256828	2.618948	-0.005492	99
Es	-2.238714	-2.509090	-0.499076	99
Es	1.649050	1.256581	0.364966	99
Es	1.520750	0.523861	0.357435	99
Es	2.029672	1.482113	0.820834	99
Es	-0.355418	0.300718	-0.078592	99
Es	-0.365518	-0.975720	-0.046047	99
Es	1.275884	-0.194976	0.320388	99
Es	-1.939955	-1.834811	-0.460213	99
Es	0.682788	-0.293783	-0.147608	99
Es	-0.593620	0.986198	-0.158413	99
Es	-0.261123	-2.199745	0.061441	99
Es	-0.060882	1.436831	-0.378302	99
Es	1.021329	1.642474	0.205350	99
Es	-0.213191	1.452321	0.248881	99
Es	-0.028291	-0.343348	0.010406	99
Es	-1.208891	-1.739826	-0.588125	99
Es	-1.304453	1.093924	-0.323890	99
Es	1.741116	-0.726425	0.446822	99
Es	-2.377727	-1.296027	-0.624704	99
Es	0.348720	1.919320	0.038136	99
Es	0.533224	-0.275119	0.470010	99
Es	-1.395967	-1.700693	0.033479	99
40
Properties=species:S:1:pos:R:3:Z:I:1 energy=-269.7716484617907 field_type=dipole dipole="0.000000 0.000000 0.000000" charge=0
C	-1.939848	-1.834798	-0.460189	6
C	-0.668648	-1.632148	-0.093849	6
C	-0.028168	-0.343328	0.010431	6
C	1.275762	-0.195028	0.320371	6
C	1.649072	1.256592	0.364971	6
C	0.348612	1.919262	0.038121	6
C	-0.593548	0.986322	-0.158399	6
H	-2.341108	-2.841878	-0.513069	1
H	-2.609908	-1.022048	-0.717429	1
H	-0.056668	-2.499848	0.145491	1
H	1.975592	-0.994578	0.513621	1
H	2.413302	1.491622	-0.381329	1
H	2.001612	1.543572	1.359871	1
H	0.200222	2.986312	-0.024519	1
H	-1.626278	1.179972	-0.404089	1
Es	-1.209234	-1.741732	-0.588001	99
Es	-2.236955	-2.508961	-0.508174	99
Es	1.523013	0.524118	0.356375	99
Es	1.738237	-0.725587	0.453773	99
Es	-0.593627	0.986201	-0.158432	99
Es	1.649051	1.256580	0.364967	99
Es	-0.207553	1.450993	0.253498	99
Es	1.830954	1.386816	0.766127	99
Es	-0.028294	-0.343348	0.010389	99
Es	1.021056	1.642643	0.203236	99
Es	0.676043	-0.297465	-0.145629	99
Es	-0.351140	0.301558	-0.095829	99
Es	-2.375320	-1.296925	-0.630463	99
Es	-0.364742	-0.975874	-0.047869	99
Es	-1.939957	-1.834799	-0.460225	99
Es	2.194609	1.463020	0.137582	99
Es	0.255155	2.616952	0.002591	99
Es	0.538630	-0.271225	0.470236	99
Es	-1.396005	-1.698610	0.034584	99
Es	1.275882	-0.194982	0.320405	99
Es	0.348720	1.919319	0.038149	99
Es	-1.301887	1.093093	-0.333364	99
Es	-0.263494	-2.198693	0.066514	99
Es	-0.066970	1.437897	-0.377651	99
Es	-0.668541	-1.632112	-0.093815	99
40
Properties=species:S:1:pos:R:3:Z:I:1 energy=-269.7716484617907 field_type=dipole dipole="0.000000 0.000000 0.000000" charge=0
C	-1.939848	-1.834798	-0.460189	6
C	-0.668648	-1.632148	-0.093849	6
C	-0.028168	-0.343328	0.010431	6
C	1.275762	-0.195028	0.320371	6
C	1.649072	1.256592	0.364971	6
C	0.348612	1.919262	0.038121	6
C	-0.593548	0.986322	-0.158399	6
H	-2.341108	-2.841878	-0.513069	1
H	-2.609908	-1.022048	-0.717429	1
H	-0.056668	-2.499848	0.145491	1
H	1.975592	-0.994578	0.513621	1
H	2.413302	1.491622	-0.381329	1
H	2.001612	1.543572	1.359871	1
H	0.200222	2.986312	-0.024519	1
H	-1.626278	1.179972	-0.404089	1
Es	2.193657	1.464200	0.149012	99
Es	-0.668542	-1.632103	-0.093815	99
Es	-1.396127	-1.698564	0.034762	99
Es	1.020918	1.642968	0.203189	99
Es	1.737484	-0.724929	0.453722	99
Es	0.348713	1.919327	0.038152	99
Es	1.649052	1.256582	0.364971	99
Es	0.539140	-0.271112	0.470052	99
Es	0.255224	2.616172	0.002632	99
Es	1.275878	-0.194975	0.320409	99
Es	-0.207943	1.451474	0.253607	99
Es	-2.374521	-1.297679	-0.630249	99
Es	-0.364894	-0.975581	-0.047842	99
Es	-0.028285	-0.343344	0.010391	99
Es	-2.237731	-2.508233	-0.508452	99
Es	-1.301822	1.092717	-0.333362	99
Es	-0.066844	1.436897	-0.377927	99
Es	1.523861	0.523887	0.356498	99
Es	-1.209060	-1.741877	-0.588234	99
Es	-1.939950	-1.834813	-0.460224	99
Es	1.831822	1.385706	0.754870	99
Es	-0.350802	0.301315	-0.095752	99
Es	-0.593629	0.986195	-0.158427	99
Es	0.675968	-0.297171	-0.145498	99
Es	-0.263937	-2.198183	0.066490	99
40
Properties=species:S:1:pos:R:3:Z:I:1 energy=-269.7716484617907 field_type=dipole dipole="0.000000 0.000000 0.000000" charge=0
C	-1.939848	-1.834798	-0.460189	6
C	-0.668648	-1.632148	-0.093849	6
C	-0.028168	-0.343328	0.010431	6
C	1.275762	-0.195028	0.320371	6
C	1.649072	1.256592	0.364971	6
C	0.348612	1.919262	0.038121	6
C	-0.593548	0.986322	-0.158399	6
H	-2.341108	-2.841878	-0.513069	1
H	-2.609908	-1.022048	-0.717429	1
H	-0.056668	-2.499848	0.145491	1
H	1.975592	-0.994578	0.513621	1
H	2.413302	1.491622	-0.381329	1
H	2.001612	1.543572	1.359871	1
H	0.200222	2.986312	-0.024519	1
H	-1.626278	1.179972	-0.404089	1
Es	-0.350717	0.301579	-0.095821	99
Es	-1.301716	1.092254	-0.333420	99
Es	1.737046	-0.724545	0.453697	99
Es	-0.364612	-0.975809	-0.047691	99
Es	0.348718	1.919319	0.038153	99
Es	0.255409	2.614930	0.002467	99
Es	-0.593628	0.986211	-0.158427	99
Es	1.832807	1.384633	0.743450	99
Es	2.192644	1.465225	0.160573	99
Es	-1.396215	-1.698477	0.034898	99
Es	1.275879	-0.194974	0.320405	99
Es	-2.373996	-1.298215	-0.630158	99
Es	-0.668543	-1.632105	-0.093815	99
Es	-0.028286	-0.343346	0.010393	99
Es	-1.939949	-1.834811	-0.460224	99
Es	-2.238192	-2.507790	-0.508640	99
Es	1.021046	1.644067	0.203020	99
Es	0.677112	-0.297703	-0.146498	99
Es	-1.208977	-1.741967	-0.588368	99
Es	-0.264529	-2.197502	0.066328	99
Es	0.538247	-0.270229	0.471109	99
Es	-0.208144	1.451090	0.254049	99
Es	1.524144	0.523514	0.356682	99
Es	-0.066970	1.436949	-0.378160	99
Es	1.649051	1.256579	0.364967	99
40
Properties=species:S:1:pos:R:3:Z:I:1 energy=-269.7716484617907 field_type=dipole dipole="0.000000 0.000000 0.000000" charge=0
C	-1.939848	-1.834798	-0.460189	6
C	-0.668648	-1.632148	-0.093849	6
C	-0.028168	-0.343328	0.010431	6
C	1.275762	-0.195028	0.320371	6
C	1.649072	1.256592	0.364971	6
C	0.348612	1.919262	0.038121	6
C	-0.593548	0.986322	-0.158399	6
H	-2.341108	-2.841878	-0.513069	1
H	-2.609908	-1.022048	-0.717429	1
H	-0.056668	-2.499848	0.145491	1
H	1.975592	-0.994578	0.513621	1
H	2.413302	1.491622	-0.381329	1
H	2.001612	1.543572	1.359871	1
H	0.200222	2.986312	-0.024519	1
H	-1.626278	1.179972	-0.404089	1
Es	-0.668540	-1.632105	-0.093824	99
Es	-2.241316	-2.506673	-0.499967	99
Es	0.534269	-0.274939	0.471174	99
Es	1.523356	0.522481	0.358266	99
Es	-0.593627	0.986207	-0.158410	99
Es	-0.028307	-0.343342	0.010403	99
Es	-0.213964	1.450600	0.249430	99
Es	-0.354681	0.300804	-0.078491	99
Es	-1.208754	-1.739951	-0.589079	99
Es	0.348720	1.919320	0.038136	99
Es	-0.061382	1.436873	-0.379018	99
Es	0.683074	-0.292115	-0.148566	99
Es	-1.304176	1.092256	-0.323847	99
Es	1.275882	-0.194973	0.320389	99
Es	-1.396110	-1.700591	0.034437	99
Es	-0.263318	-2.197113	0.060716	99
Es	2.046001	1.483885	0.780595	99
Es	1.021168	1.645031	0.205118	99
Es	0.257176	2.615303	-0.005394	99
Es	-0.364765	-0.976153	-0.045652	99
Es	1.649052	1.256584	0.364963	99
Es	-2.375006	-1.298900	-0.623815	99
Es	-1.939955	-1.834806	-0.460213	99
Es	1.984298	1.365411	0.105275	99
Es	1.738533	-0.724218	0.446350	99
40
Properties=species:S:1:pos:R:3:Z:I:1 energy=-269.7716484617907 field_type=dipole dipole="0.000000 0.000000 0.000000" charge=0
C	-1.939848	-1.834798	-0.460189	6
C	-0.668648	-1.632148	-0.093849	6
C	-0.028168	-0.343328	0.010431	6
C	1.275762	-0.195028	0.320371	6
C	1.649072	1.256592	0.364971	6
C	0.348612	1.919262	0.038121	6
C	-0.593548	0.986322	-0.158399	6
H	-2.341108	-2.841878	-0.513069	1
H	-2.609908	-1.022048	-0.717429	1
H	-0.056668	-2.499848	0.145491	1
H	1.975592	-0.994578	0.513621	1
H	2.413302	1.491622	-0.381329	1
H	2.001612	1.543572	1.359871	1
H	0.200222	2.986312	-0.024519	1
H	-1.626278	1.179972	-0.404089	1
Es	-0.263606	-2.196636	0.060631	99
Es	-0.028288	-0.343342	0.010408	99
Es	-0.354582	0.300736	-0.078357	99
Es	0.533925	-0.274526	0.471208	99
Es	-1.304124	1.091957	-0.323854	99
Es	1.981669	1.365111	0.112209	99
Es	-2.241712	-2.506259	-0.500165	99
Es	-0.061268	1.436432	-0.379176	99
Es	-1.208695	-1.740018	-0.589207	99
Es	1.649052	1.256581	0.364966	99
Es	0.683412	-0.292146	-0.148521	99
Es	-1.939953	-1.834811	-0.460212	99
Es	1.275884	-0.194977	0.320389	99
Es	1.020672	1.644822	0.204726	99
Es	-0.668539	-1.632107	-0.093825	99
Es	0.348721	1.919320	0.038135	99
Es	-1.396130	-1.700692	0.034653	99
Es	-0.593631	0.986210	-0.158410	99
Es	2.048591	1.484234	0.773827	99
Es	-0.364728	-0.976133	-0.045697	99
Es	1.738235	-0.723974	0.446338	99
Es	0.257177	2.614866	-0.005422	99
Es	1.524155	0.522920	0.358531	99
Es	-2.374570	-1.299421	-0.623692	99
Es	-0.214039	1.450733	0.249488	99
40
Properties=species:S:1:pos:R:3:Z:I:1 energy=-269.7716484617907 field_type=dipole dipole="0.000000 0.000000 0.000000" charge=0
C	-1.939848	-1.834798	-0.460189	6
C	-0.668648	-1.632148	-0.093849	6
C	-0.028168	-0.343328	0.010431	6
C	1.275762	-0.195028	0.320371	6
C	1.649072	1.256592	0.364971	6
C	0.348612	1.919262	0.038121	6
C	-0.593548	0.986322	-0.158399	6
H	-2.341108	-2.841878	-0.513069	1
H	-2.609908	-1.022048	-0.717429	1
H	-0.056668	-2.499848	0.145491	1
H	1.975592	-0.994578	0.513621	1
H	2.413302	1.491622	-0.381329	1
H	2.001612	1.543572	1.359871	1
H	0.200222	2.986312	-0.024519	1
H	-1.626278	1.179972	-0.404089	1
Es	-1.304113	1.091915	-0.323872	99
Es	0.533754	-0.274423	0.471414	99
Es	-1.208687	-1.740058	-0.589174	99
Es	-0.593632	0.986210	-0.158411	99
Es	-2.241890	-2.506086	-0.500224	99
Es	1.979282	1.364889	0.118498	99
Es	-2.374371	-1.299591	-0.623754	99
Es	-0.214303	1.450820	0.249633	99
Es	-0.364923	-0.975835	-0.045740	99
Es	0.348720	1.919320	0.038136	99
Es	-0.263716	-2.196599	0.060691	99
Es	0.257287	2.614205	-0.005403	99
Es	-0.354325	0.300377	-0.078310	99
Es	1.020760	1.645395	0.204868	99
Es	1.737447	-0.723182	0.446124	99
Es	1.649053	1.256581	0.364964	99
Es	-1.939953	-1.834810	-0.460212	99
Es	0.683692	-0.292171	-0.148544	99
Es	-0.668540	-1.632104	-0.093826	99
Es	-0.028288	-0.343346	0.010406	99
Es	-0.061099	1.436226	-0.379503	99
Es	-1.396169	-1.700546	0.034611	99
Es	1.524749	0.522286	0.358601	99
Es	1.275887	-0.194974	0.320392	99
Es	2.051007	1.484380	0.767609	99
40
Properties=species:S:1:pos:R:3:Z:I:1 energy=-269.7716484617907 field_type=dipole dipole="0.000000 0.000000 0.000000" charge=0
C	-1.939848	-1.834798	-0.460189	6
C	-0.668648	-1.632148	-0.093849	6
C	-0.028168	-0.343328	0.010431	6
C	1.275762	-0.195028	0.320371	6
C	1.649072	1.256592	0.364971	6
C	0.348612	1.919262	0.038121	6
C	-0.593548	0.986322	-0.158399	6
H	-2.341108	-2.841878	-0.513069	1
H	-2.609908	-1.022048	-0.717429	1
H	-0.056668	-2.499848	0.145491	1
H	1.975592	-0.994578	0.513621	1
H	2.413302	1.491622	-0.381329	1
H	2.001612	1.543572	1.359871	1
H	0.200222	2.986312	-0.024519	1
H	-1.626278	1.179972	-0.404089	1
Es	-0.668542	-1.632103	-0.093816	99
Es	-0.350412	0.301391	-0.095365	99
Es	2.189592	1.467882	0.190846	99
Es	-2.372301	-1.300018	-0.629677	99
Es	-1.939951	-1.834808	-0.460224	99
Es	-1.301514	1.091260	-0.333418	99
Es	-0.208687	1.451053	0.254651	99
Es	-2.239804	-2.506139	-0.509241	99
Es	-0.593627	0.986212	-0.158429	99
Es	0.255786	2.612640	0.002331	99
Es	1.526193	0.523154	0.357451	99
Es	-0.364213	-0.976061	-0.047503	99
Es	1.735404	-0.723066	0.453381	99
Es	-1.208721	-1.742204	-0.588844	99
Es	1.275876	-0.194976	0.320413	99
Es	1.020526	1.644917	0.202580	99
Es	-1.396491	-1.698280	0.035453	99
Es	-0.028285	-0.343347	0.010393	99
Es	1.649058	1.256584	0.364966	99
Es	0.348717	1.919320	0.038153	99
Es	0.538332	-0.269522	0.471568	99
Es	-0.066804	1.436187	-0.379014	99
Es	-0.265765	-2.195997	0.065968	99
Es	0.677515	-0.297230	-0.147092	99
Es	1.835745	1.382029	0.713442	99
