45
Properties=species:S:1:pos:R:3:Z:I:1 energy=-288.0903141393188 field_type=dipole dipole="0.000000 0.000000 0.000000" charge=0
C	-1.371238	-2.546364	-0.287865	6
N	-1.476228	-1.094224	-0.225085	7
C	-0.177328	-0.455634	0.027505	6
C	0.541462	0.205396	-1.111805	6
C	-0.078468	1.052226	-0.033455	6
C	0.772092	1.725496	0.954475	6
C	1.819632	2.517176	0.691715	6
H	-2.347998	-2.975684	-0.528585	1
H	-1.046338	-2.960324	0.672505	1
H	-0.666908	-2.860094	-1.065415	1
H	-2.141338	-0.841454	0.505505	1
H	0.443562	-0.951104	0.773375	1
H	0.066052	0.212506	-2.085835	1
H	1.619422	0.105196	-1.152595	1
H	-0.975398	1.603286	-0.296765	1
H	0.501152	1.570786	1.998635	1
H	2.132373	2.714705	-0.328975	1
H	2.385492	2.978116	1.492665	1
Es	1.502406	1.863995	0.832075	99
Es	0.250978	-0.792036	0.540246	99
Es	-0.904234	-0.829364	-0.089923	99
Es	0.217365	0.208206	-1.766714	99
Es	-0.887172	-2.756399	-0.815299	99
Es	1.272910	0.142966	-1.133121	99
Es	-1.412855	-1.728117	-0.227958	99
Es	0.356933	1.384618	0.455493	99
Es	0.223936	-0.297319	-0.620564	99
Es	2.207501	2.834045	1.230538	99
Es	0.298900	0.791207	-0.653723	99
Es	1.109049	2.385011	0.809192	99
Es	0.580101	1.614658	1.663989	99
Es	-0.228902	0.317347	0.163070	99
Es	-2.039679	-2.838715	-0.447307	99
Es	1.819717	2.517234	0.691692	99
Es	-1.859956	-0.954101	0.239244	99
Es	-1.597665	-0.969307	-0.528514	99
Es	0.771996	1.725430	0.954490	99
Es	0.541381	0.205424	-1.111652	99
Es	-0.078409	1.052070	-0.033484	99
Es	-1.371249	-2.546232	-0.287856	99
Es	-1.141696	-2.835288	0.376849	99
Es	-1.475982	-1.094443	-0.224506	99
Es	-0.177420	-0.455540	0.027389	99
Es	2.038669	2.654952	0.001592	99
Es	-0.678466	1.420709	-0.204322	99
45
Properties=species:S:1:pos:R:3:Z:I:1 energy=-288.0903141393188 field_type=dipole dipole="0.000000 0.000000 0.000000" charge=0
C	-1.371238	-2.546364	-0.287865	6
N	-1.476228	-1.094224	-0.225085	7
C	-0.177328	-0.455634	0.027505	6
C	0.541462	0.205396	-1.111805	6
C	-0.078468	1.052226	-0.033455	6
C	0.772092	1.725496	0.954475	6
C	1.819632	2.517176	0.691715	6
H	-2.347998	-2.975684	-0.528585	1
H	-1.046338	-2.960324	0.672505	1
H	-0.666908	-2.860094	-1.065415	1
H	-2.141338	-0.841454	0.505505	1
H	0.443562	-0.951104	0.773375	1
H	0.066052	0.212506	-2.085835	1
H	1.619422	0.105196	-1.152595	1
H	-0.975398	1.603286	-0.296765	1
H	0.501152	1.570786	1.998635	1
H	2.132373	2.714705	-0.328975	1
H	2.385492	2.978116	1.492665	1
Es	1.819714	2.517237	0.691694	99
Es	-1.862137	-0.952765	0.238815	99
Es	0.223087	-0.299123	-0.619624	99
Es	1.273417	0.144255	-1.134327	99
Es	-0.078402	1.052079	-0.033493	99
Es	-0.177420	-0.455541	0.027389	99
Es	1.503440	1.862848	0.832751	99
Es	-1.475991	-1.094439	-0.224529	99
Es	2.038926	2.655620	0.001417	99
Es	-1.371248	-2.546233	-0.287854	99
Es	1.108259	2.386180	0.808749	99
Es	-1.596639	-0.974435	-0.518226	99
Es	-1.413500	-1.729170	-0.231115	99
Es	0.298828	0.793388	-0.656774	99
Es	0.771996	1.725423	0.954489	99
Es	0.357533	1.384639	0.455060	99
Es	0.579903	1.614068	1.663930	99
Es	2.206143	2.834561	1.229578	99
Es	-0.676392	1.420320	-0.203611	99
Es	-0.886132	-2.756956	-0.814742	99
Es	-2.040494	-2.839538	-0.446669	99
Es	-0.902706	-0.824751	-0.096093	99
Es	0.250285	-0.791334	0.539257	99
Es	0.218411	0.208895	-1.764347	99
Es	-0.229902	0.314526	0.165391	99
Es	0.541378	0.205422	-1.111653	99
Es	-1.142199	-2.834164	0.375453	99
45
Properties=species:S:1:pos:R:3:Z:I:1 energy=-288.0903141393188 field_type=dipole dipole="0.000000 0.000000 0.000000" charge=0
C	-1.371238	-2.546364	-0.287865	6
N	-1.476228	-1.094224	-0.225085	7
C	-0.177328	-0.455634	0.027505	6
C	0.541462	0.205396	-1.111805	6
C	-0.078468	1.052226	-0.033455	6
C	0.772092	1.725496	0.954475	6
C	1.819632	2.517176	0.691715	6
H	-2.347998	-2.975684	-0.528585	1
H	-1.046338	-2.960324	0.672505	1
H	-0.666908	-2.860094	-1.065415	1
H	-2.141338	-0.841454	0.505505	1
H	0.443562	-0.951104	0.773375	1
H	0.066052	0.212506	-2.085835	1
H	1.619422	0.105196	-1.152595	1
H	-0.975398	1.603286	-0.296765	1
H	0.501152	1.570786	1.998635	1
H	2.132373	2.714705	-0.328975	1
H	2.385492	2.978116	1.492665	1
Es	-1.595321	-0.978988	-0.511035	99
Es	0.219259	0.209365	-1.762581	99
Es	0.771998	1.725418	0.954489	99
Es	1.819715	2.517240	0.691692	99
Es	-0.230810	0.312614	0.166596	99
Es	0.298663	0.794621	-0.658971	99
Es	0.357769	1.384971	0.454852	99
Es	0.222435	-0.300294	-0.619102	99
Es	-1.863960	-0.951422	0.237749	99
Es	1.503878	1.862468	0.833010	99
Es	-0.078401	1.052071	-0.033495	99
Es	0.579893	1.613782	1.664068	99
Es	-1.142435	-2.833448	0.374355	99
Es	-1.413663	-1.729709	-0.231923	99
Es	2.205190	2.834743	1.229156	99
Es	1.108068	2.386392	0.808475	99
Es	-1.475991	-1.094449	-0.224518	99
Es	-0.902118	-0.821240	-0.100836	99
Es	-1.371249	-2.546231	-0.287856	99
Es	2.039116	2.656208	0.001230	99
Es	-0.885578	-2.757295	-0.814388	99
Es	-2.041113	-2.840049	-0.446124	99
Es	0.541380	0.205421	-1.111651	99
Es	0.249685	-0.790535	0.538651	99
Es	-0.177423	-0.455543	0.027390	99
Es	1.273789	0.145200	-1.135022	99
Es	-0.674617	1.419702	-0.203295	99
45
Properties=species:S:1:pos:R:3:Z:I:1 energy=-288.0903141393188 field_type=dipole dipole="0.000000 0.000000 0.000000" charge=0
C	-1.371238	-2.546364	-0.287865	6
N	-1.476228	-1.094224	-0.225085	7
C	-0.177328	-0.455634	0.027505	6
C	0.541462	0.205396	-1.111805	6
C	-0.078468	1.052226	-0.033455	6
C	0.772092	1.725496	0.954475	6
C	1.819632	2.517176	0.691715	6
H	-2.347998	-2.975684	-0.528585	1
H	-1.046338	-2.960324	0.672505	1
H	-0.666908	-2.860094	-1.065415	1
H	-2.141338	-0.841454	0.505505	1
H	0.443562	-0.951104	0.773375	1
H	0.066052	0.212506	-2.085835	1
H	1.619422	0.105196	-1.152595	1
H	-0.975398	1.603286	-0.296765	1
H	0.501152	1.570786	1.998635	1
H	2.132373	2.714705	-0.328975	1
H	2.385492	2.978116	1.492665	1
Es	0.579833	1.613374	1.664162	99
Es	-0.673183	1.419144	-0.202966	99
Es	1.107888	2.386618	0.808254	99
Es	-1.414048	-1.730055	-0.233279	99
Es	-1.864136	-0.951198	0.237756	99
Es	1.819711	2.517246	0.691692	99
Es	0.541382	0.205421	-1.111655	99
Es	-1.371249	-2.546233	-0.287856	99
Es	2.204413	2.834939	1.228823	99
Es	0.249366	-0.790074	0.538197	99
Es	-1.475979	-1.094457	-0.224496	99
Es	2.039328	2.656529	0.001068	99
Es	-1.595045	-0.981637	-0.505109	99
Es	-2.041687	-2.840596	-0.445701	99
Es	0.298566	0.795120	-0.660509	99
Es	1.274070	0.145872	-1.135825	99
Es	-0.885185	-2.757469	-0.813963	99
Es	-0.901877	-0.818653	-0.105156	99
Es	0.358188	1.385257	0.454643	99
Es	0.219617	0.209826	-1.761134	99
Es	1.504132	1.862291	0.833304	99
Es	-0.177424	-0.455545	0.027394	99
Es	0.771995	1.725422	0.954490	99
Es	-0.231652	0.311276	0.167650	99
Es	0.222051	-0.300669	-0.618803	99
Es	-1.142509	-2.832797	0.373435	99
Es	-0.078404	1.052060	-0.033500	99
45
Properties=species:S:1:pos:R:3:Z:I:1 energy=-288.0903141393188 field_type=dipole dipole="0.000000 0.000000 0.000000" charge=0
C	-1.371238	-2.546364	-0.287865	6
N	-1.476228	-1.094224	-0.225085	7
C	-0.177328	-0.455634	0.027505	6
C	0.541462	0.205396	-1.111805	6
C	-0.078468	1.052226	-0.033455	6
C	0.772092	1.725496	0.954475	6
C	1.819632	2.517176	0.691715	6
H	-2.347998	-2.975684	-0.528585	1
H	-1.046338	-2.960324	0.672505	1
H	-0.666908	-2.860094	-1.065415	1
H	-2.141338	-0.841454	0.505505	1
H	0.443562	-0.951104	0.773375	1
H	0.066052	0.212506	-2.085835	1
H	1.619422	0.105196	-1.152595	1
H	-0.975398	1.603286	-0.296765	1
H	0.501152	1.570786	1.998635	1
H	2.132373	2.714705	-0.328975	1
H	2.385492	2.978116	1.492665	1
Es	1.107916	2.386648	0.808164	99
Es	0.219876	0.210227	-1.760073	99
Es	2.203916	2.834946	1.228669	99
Es	-2.041953	-2.840897	-0.445422	99
Es	-1.413993	-1.730151	-0.233673	99
Es	-0.902028	-0.816721	-0.107949	99
Es	-1.594209	-0.983990	-0.501143	99
Es	-0.078400	1.052065	-0.033497	99
Es	1.819718	2.517235	0.691692	99
Es	0.249130	-0.789730	0.537714	99
Es	0.579851	1.613127	1.664300	99
Es	-1.864950	-0.950837	0.237260	99
Es	0.541378	0.205421	-1.111649	99
Es	0.221568	-0.300822	-0.618501	99
Es	0.298613	0.795419	-0.661779	99
Es	1.274316	0.146331	-1.136380	99
Es	2.039431	2.656864	0.000894	99
Es	-1.371249	-2.546232	-0.287855	99
Es	-1.142617	-2.832416	0.372879	99
Es	-0.232346	0.310322	0.168372	99
Es	-0.884938	-2.757613	-0.813723	99
Es	-0.177424	-0.455540	0.027396	99
Es	-1.475982	-1.094455	-0.224506	99
Es	0.771992	1.725429	0.954490	99
Es	0.358353	1.385554	0.454629	99
Es	1.504159	1.862250	0.833323	99
Es	-0.671971	1.418576	-0.202715	99
45
Properties=species:S:1:pos:R:3:Z:I:1 energy=-288.0903141393188 field_type=dipole dipole="0.000000 0.000000 0.000000" charge=0
C	-1.371238	-2.546364	-0.287865	6
N	-1.476228	-1.094224	-0.225085	7
C	-0.177328	-0.455634	0.027505	6
C	0.541462	0.205396	-1.111805	6
C	-0.078468	1.052226	-0.033455	6
C	0.772092	1.725496	0.954475	6
C	1.819632	2.517176	0.691715	6
H	-2.347998	-2.975684	-0.528585	1
H	-1.046338	-2.960324	0.672505	1
H	-0.666908	-2.860094	-1.065415	1
H	-2.141338	-0.841454	0.505505	1
H	0.443562	-0.951104	0.773375	1
H	0.066052	0.212506	-2.085835	1
H	1.619422	0.105196	-1.152595	1
H	-0.975398	1.603286	-0.296765	1
H	0.501152	1.570786	1.998635	1
H	2.132373	2.714705	-0.328975	1
H	2.385492	2.978116	1.492665	1
Es	1.504192	1.862260	0.833385	99
Es	-1.593616	-0.985549	-0.497435	99
Es	-0.671064	1.418250	-0.202536	99
Es	1.274455	0.146971	-1.136464	99
Es	0.771995	1.725421	0.954490	99
Es	-2.042353	-2.841233	-0.445080	99
Es	2.039604	2.657198	0.000827	99
Es	-0.884801	-2.757654	-0.813509	99
Es	-1.371250	-2.546230	-0.287856	99
Es	0.358647	1.385751	0.454333	99
Es	1.819717	2.517239	0.691692	99
Es	-1.865132	-0.950710	0.237126	99
Es	0.298297	0.795542	-0.662587	99
Es	-0.232936	0.309316	0.168705	99
Es	1.107852	2.386764	0.808194	99
Es	-0.177426	-0.455545	0.027392	99
Es	0.541380	0.205421	-1.111651	99
Es	-0.078402	1.052064	-0.033496	99
Es	2.203512	2.834827	1.228556	99
Es	-1.142560	-2.832037	0.372244	99
Es	0.579797	1.612820	1.664334	99
Es	-1.414202	-1.730340	-0.234358	99
Es	-1.476047	-1.094380	-0.224728	99
Es	0.220301	0.210538	-1.759422	99
Es	-0.902073	-0.815367	-0.110352	99
Es	0.248927	-0.789313	0.537668	99
Es	0.221346	-0.301012	-0.618558	99
45
Properties=species:S:1:pos:R:3:Z:I:1 energy=-288.0903141393188 field_type=dipole dipole="0.000000 0.000000 0.000000" charge=0
C	-1.371238	-2.546364	-0.287865	6
N	-1.476228	-1.094224	-0.225085	7
C	-0.177328	-0.455634	0.027505	6
C	0.541462	0.205396	-1.111805	6
C	-0.078468	1.052226	-0.033455	6
C	0.772092	1.725496	0.954475	6
C	1.819632	2.517176	0.691715	6
H	-2.347998	-2.975684	-0.528585	1
H	-1.046338	-2.960324	0.672505	1
H	-0.666908	-2.860094	-1.065415	1
H	-2.141338	-0.841454	0.505505	1
H	0.443562	-0.951104	0.773375	1
H	0.066052	0.212506	-2.085835	1
H	1.619422	0.105196	-1.152595	1
H	-0.975398	1.603286	-0.296765	1
H	0.501152	1.570786	1.998635	1
H	2.132373	2.714705	-0.328975	1
H	2.385492	2.978116	1.492665	1
Es	0.541379	0.205431	-1.111649	99
Es	1.819718	2.517238	0.691692	99
Es	-2.042609	-2.841576	-0.444692	99
Es	0.298284	0.795674	-0.663476	99
Es	-1.142480	-2.831665	0.371709	99
Es	-1.865133	-0.950710	0.237057	99
Es	0.248728	-0.789006	0.537463	99
Es	-1.371249	-2.546229	-0.287855	99
Es	-0.884721	-2.757736	-0.813339	99
Es	-1.414275	-1.730385	-0.234676	99
Es	0.358539	1.385935	0.454383	99
Es	-0.233514	0.308703	0.169096	99
Es	0.221106	-0.301062	-0.618374	99
Es	1.107766	2.386809	0.808068	99
Es	0.771993	1.725425	0.954489	99
Es	0.579843	1.612768	1.664351	99
Es	1.274683	0.147384	-1.136912	99
Es	2.203189	2.834857	1.228434	99
Es	-0.177422	-0.455549	0.027386	99
Es	-0.902261	-0.814273	-0.112303	99
Es	1.504386	1.862103	0.833432	99
Es	2.039691	2.657403	0.000815	99
Es	-0.670145	1.417777	-0.202414	99
Es	-0.078401	1.052068	-0.033496	99
Es	0.220472	0.210718	-1.758556	99
Es	-1.593423	-0.986640	-0.495184	99
Es	-1.475983	-1.094448	-0.224533	99
45
Properties=species:S:1:pos:R:3:Z:I:1 energy=-288.0903141393188 field_type=dipole dipole="0.000000 0.000000 0.000000" charge=0
C	-1.371238	-2.546364	-0.287865	6
N	-1.476228	-1.094224	-0.225085	7
C	-0.177328	-0.455634	0.027505	6
C	0.541462	0.205396	-1.111805	6
C	-0.078468	1.052226	-0.033455	6
C	0.772092	1.725496	0.954475	6
C	1.819632	2.517176	0.691715	6
H	-2.347998	-2.975684	-0.528585	1
H	-1.046338	-2.960324	0.672505	1
H	-0.666908	-2.860094	-1.065415	1
H	-2.141338	-0.841454	0.505505	1
H	0.443562	-0.951104	0.773375	1
H	0.066052	0.212506	-2.085835	1
H	1.619422	0.105196	-1.152595	1
H	-0.975398	1.603286	-0.296765	1
H	0.501152	1.570786	1.998635	1
H	2.132373	2.714705	-0.328975	1
H	2.385492	2.978116	1.492665	1
Es	-0.669566	1.417484	-0.202310	99
Es	-2.042794	-2.841767	-0.444576	99
Es	-1.142508	-2.831481	0.371357	99
Es	1.107737	2.387034	0.808134	99
Es	-1.414141	-1.730385	-0.234687	99
Es	-1.865058	-0.950746	0.237119	99
Es	2.203077	2.834781	1.228435	99
Es	0.298106	0.795569	-0.663918	99
Es	-1.475981	-1.094460	-0.224473	99
Es	-0.902627	-0.812873	-0.114808	99
Es	-1.593240	-0.988028	-0.492679	99
Es	-0.177424	-0.455547	0.027389	99
Es	0.771995	1.725422	0.954489	99
Es	0.358790	1.386205	0.454311	99
Es	0.579892	1.612423	1.664369	99
Es	-0.233844	0.308052	0.169351	99
Es	1.274816	0.147753	-1.136977	99
Es	1.819718	2.517238	0.691692	99
Es	0.248593	-0.788836	0.537324	99
Es	0.541378	0.205418	-1.111648	99
Es	-1.371250	-2.546230	-0.287855	99
Es	2.039791	2.657485	0.000793	99
Es	1.504169	1.862185	0.833282	99
Es	0.220585	0.210909	-1.758259	99
Es	-0.884643	-2.757758	-0.813143	99
Es	-0.078400	1.052064	-0.033497	99
Es	0.220987	-0.300898	-0.618300	99
45
Properties=species:S:1:pos:R:3:Z:I:1 energy=-288.0903141393188 field_type=dipole dipole="0.000000 0.000000 0.000000" charge=0
C	-1.371238	-2.546364	-0.287865	6
N	-1.476228	-1.094224	-0.225085	7
C	-0.177328	-0.455634	0.027505	6
C	0.541462	0.205396	-1.111805	6
C	-0.078468	1.052226	-0.033455	6
C	0.772092	1.725496	0.954475	6
C	1.819632	2.517176	0.691715	6
H	-2.347998	-2.975684	-0.528585	1
H	-1.046338	-2.960324	0.672505	1
H	-0.666908	-2.860094	-1.065415	1
H	-2.141338	-0.841454	0.505505	1
H	0.443562	-0.951104	0.773375	1
H	0.066052	0.212506	-2.085835	1
H	1.619422	0.105196	-1.152595	1
H	-0.975398	1.603286	-0.296765	1
H	0.501152	1.570786	1.998635	1
H	2.132373	2.714705	-0.328975	1
H	2.385492	2.978116	1.492665	1
Es	2.039769	2.657793	0.000715	99
Es	1.107792	2.386888	0.808165	99
Es	0.220752	0.211005	-1.757666	99
Es	0.541368	0.205423	-1.111646	99
Es	-1.475995	-1.094437	-0.224572	99
Es	-0.668834	1.417159	-0.202211	99
Es	0.298116	0.795690	-0.664590	99
Es	0.358844	1.386441	0.454266	99
Es	-2.043032	-2.842076	-0.444291	99
Es	-0.177426	-0.455549	0.027391	99
Es	1.274884	0.147958	-1.137277	99
Es	1.504389	1.862065	0.833342	99
Es	-0.884568	-2.757766	-0.812964	99
Es	-0.234399	0.307750	0.169494	99
Es	-0.902549	-0.812600	-0.115290	99
Es	-1.865321	-0.950733	0.236833	99
Es	0.220710	-0.300938	-0.618092	99
Es	-1.414288	-1.730384	-0.235039	99
Es	-1.142426	-2.831158	0.370937	99
Es	-0.078401	1.052063	-0.033497	99
Es	0.771996	1.725421	0.954490	99
Es	1.819715	2.517244	0.691692	99
Es	-1.371249	-2.546233	-0.287855	99
Es	-1.592805	-0.988530	-0.491389	99
Es	0.248497	-0.788586	0.537247	99
Es	0.579818	1.612368	1.664436	99
Es	2.202803	2.834735	1.228289	99
45
Properties=species:S:1:pos:R:3:Z:I:1 energy=-288.0903141393188 field_type=dipole dipole="0.000000 0.000000 0.000000" charge=0
C	-1.371238	-2.546364	-0.287865	6
N	-1.476228	-1.094224	-0.225085	7
C	-0.177328	-0.455634	0.027505	6
C	0.541462	0.205396	-1.111805	6
C	-0.078468	1.052226	-0.033455	6
C	0.772092	1.725496	0.954475	6
C	1.819632	2.517176	0.691715	6
H	-2.347998	-2.975684	-0.528585	1
H	-1.046338	-2.960324	0.672505	1
H	-0.666908	-2.860094	-1.065415	1
H	-2.141338	-0.841454	0.505505	1
H	0.443562	-0.951104	0.773375	1
H	0.066052	0.212506	-2.085835	1
H	1.619422	0.105196	-1.152595	1
H	-0.975398	1.603286	-0.296765	1
H	0.501152	1.570786	1.998635	1
H	2.132373	2.714705	-0.328975	1
H	2.385492	2.978116	1.492665	1
Es	-0.884618	-2.757780	-0.812887	99
Es	0.358942	1.386579	0.454151	99
Es	0.541381	0.205420	-1.111659	99
Es	1.107765	2.386883	0.808101	99
Es	-2.043073	-2.842220	-0.444152	99
Es	-1.371247	-2.546236	-0.287851	99
Es	0.297901	0.795627	-0.665005	99
Es	0.579849	1.612251	1.664467	99
Es	-1.142373	-2.831071	0.370724	99
Es	0.220484	-0.300686	-0.618148	99
Es	0.771995	1.725422	0.954489	99
Es	-0.668233	1.416878	-0.202138	99
Es	0.248507	-0.788527	0.537268	99
Es	-1.414508	-1.730490	-0.235512	99
Es	2.039811	2.657836	0.000687	99
Es	-0.902779	-0.811889	-0.116510	99
Es	1.275060	0.148287	-1.137336	99
Es	-1.475969	-1.094465	-0.224463	99
Es	1.819717	2.517241	0.691694	99
Es	2.202686	2.834764	1.228289	99
Es	-1.592220	-0.989226	-0.489545	99
Es	-0.078403	1.052063	-0.033495	99
Es	-0.177427	-0.455549	0.027393	99
Es	1.504353	1.862161	0.833352	99
Es	-1.865523	-0.950528	0.236659	99
Es	0.220888	0.211094	-1.757300	99
Es	-0.234805	0.307170	0.169644	99
