47
Properties=species:S:1:pos:R:3:Z:I:1 energy=-305.28139405268354 field_type=dipole dipole="0.000000 0.000000 0.000000" charge=0
C	-1.336036	-2.595567	-0.845310	6
N	-1.396346	-1.299037	-0.185260	7
C	-0.108727	-0.597507	-0.203990	6
C	0.077024	0.551673	-1.157800	6
C	-0.055506	0.816633	0.320260	6
C	1.118803	1.258103	1.129600	6
N	1.112804	2.710763	1.189250	7
H	-2.330467	-3.051887	-0.848980	1
H	-0.653466	-3.273887	-0.322960	1
H	-1.011036	-2.495127	-1.885550	1
H	-1.719576	-1.426117	0.773860	1
H	0.762954	-1.217267	-0.002650	1
H	-0.756016	0.830773	-1.793430	1
H	1.046874	0.667463	-1.625700	1
H	-0.984226	1.248663	0.677890	1
H	2.062703	0.907923	0.697580	1
H	1.040474	0.850443	2.142340	1
H	1.193514	3.084444	0.244990	1
H	1.936254	3.029513	1.695860	1
Es	-1.395913	-1.299396	-0.184972	99
Es	-0.103925	0.040910	0.233547	99
Es	1.770460	1.003696	0.824865	99
Es	0.493511	-1.022173	-0.067746	99
Es	-0.484792	0.736906	-1.585536	99
Es	1.113290	2.710574	1.188982	99
Es	0.818122	2.830696	1.342597	99
Es	-1.627155	-1.095537	-0.347887	99
Es	0.743050	0.633735	-1.468145	99
Es	0.037984	0.876759	-0.454480	99
Es	1.180729	2.921939	0.613645	99
Es	-0.055464	0.816505	0.320116	99
Es	0.540392	1.024649	0.710341	99
Es	-1.109062	-2.524343	-1.552580	99
Es	1.626032	2.892725	1.484497	99
Es	1.066534	0.979151	1.825525	99
Es	-1.336041	-2.595452	-0.845246	99
Es	-0.005310	-0.145372	-0.835760	99
Es	0.077022	0.551619	-1.157639	99
Es	-1.565272	-1.393392	0.402118	99
Es	-2.014488	-2.908833	-0.843194	99
Es	-0.108849	-0.597395	-0.204040	99
Es	-0.684616	1.101663	0.555718	99
Es	-0.818355	-1.015610	-0.180586	99
Es	1.140648	2.081804	1.153151	99
Es	1.118786	1.258243	1.129595	99
Es	-0.859205	-3.067212	-0.486420	99
Es	-1.343919	-1.872088	-0.458946	99
47
Properties=species:S:1:pos:R:3:Z:I:1 energy=-305.28139405268354 field_type=dipole dipole="0.000000 0.000000 0.000000" charge=0
C	-1.336036	-2.595567	-0.845310	6
N	-1.396346	-1.299037	-0.185260	7
C	-0.108727	-0.597507	-0.203990	6
C	0.077024	0.551673	-1.157800	6
C	-0.055506	0.816633	0.320260	6
C	1.118803	1.258103	1.129600	6
N	1.112804	2.710763	1.189250	7
H	-2.330467	-3.051887	-0.848980	1
H	-0.653466	-3.273887	-0.322960	1
H	-1.011036	-2.495127	-1.885550	1
H	-1.719576	-1.426117	0.773860	1
H	0.762954	-1.217267	-0.002650	1
H	-0.756016	0.830773	-1.793430	1
H	1.046874	0.667463	-1.625700	1
H	-0.984226	1.248663	0.677890	1
H	2.062703	0.907923	0.697580	1
H	1.040474	0.850443	2.142340	1
H	1.193514	3.084444	0.244990	1
H	1.936254	3.029513	1.695860	1
Es	-1.336042	-2.595453	-0.845247	99
Es	1.139220	2.080969	1.154260	99
Es	-1.625800	-1.097380	-0.346946	99
Es	-0.103992	0.040177	0.235588	99
Es	0.540498	1.024877	0.710077	99
Es	-1.109327	-2.524792	-1.553962	99
Es	-1.565446	-1.392884	0.403666	99
Es	1.118790	1.258239	1.129592	99
Es	0.492731	-1.021909	-0.067820	99
Es	-0.484056	0.736766	-1.585210	99
Es	1.769618	1.003962	0.824495	99
Es	-0.859871	-3.067262	-0.486232	99
Es	-2.013387	-2.908407	-0.842306	99
Es	-0.819591	-1.014038	-0.182042	99
Es	1.624507	2.892646	1.485103	99
Es	0.742473	0.633822	-1.468326	99
Es	-1.395906	-1.299411	-0.184966	99
Es	-1.343486	-1.872253	-0.459549	99
Es	1.113268	2.710569	1.189003	99
Es	-0.108851	-0.597394	-0.204027	99
Es	0.038147	0.878293	-0.455354	99
Es	1.066332	0.978218	1.826342	99
Es	-0.005214	-0.146007	-0.837209	99
Es	-0.683772	1.101433	0.555955	99
Es	1.180265	2.923573	0.612317	99
Es	0.077025	0.551629	-1.157635	99
Es	0.821523	2.830276	1.341836	99
Es	-0.055464	0.816508	0.320118	99
47
Properties=species:S:1:pos:R:3:Z:I:1 energy=-305.28139405268354 field_type=dipole dipole="0.000000 0.000000 0.000000" charge=0
C	-1.336036	-2.595567	-0.845310	6
N	-1.396346	-1.299037	-0.185260	7
C	-0.108727	-0.597507	-0.203990	6
C	0.077024	0.551673	-1.157800	6
C	-0.055506	0.816633	0.320260	6
C	1.118803	1.258103	1.129600	6
N	1.112804	2.710763	1.189250	7
H	-2.330467	-3.051887	-0.848980	1
H	-0.653466	-3.273887	-0.322960	1
H	-1.011036	-2.495127	-1.885550	1
H	-1.719576	-1.426117	0.773860	1
H	0.762954	-1.217267	-0.002650	1
H	-0.756016	0.830773	-1.793430	1
H	1.046874	0.667463	-1.625700	1
H	-0.984226	1.248663	0.677890	1
H	2.062703	0.907923	0.697580	1
H	1.040474	0.850443	2.142340	1
H	1.193514	3.084444	0.244990	1
H	1.936254	3.029513	1.695860	1
Es	-1.336041	-2.595453	-0.845247	99
Es	0.540577	1.024967	0.710105	99
Es	1.180395	2.924764	0.611603	99
Es	-1.566184	-1.392390	0.404604	99
Es	1.139685	2.080634	1.154599	99
Es	0.741996	0.633816	-1.468356	99
Es	1.066247	0.977636	1.826766	99
Es	1.113292	2.710574	1.188990	99
Es	-0.819996	-1.013651	-0.182665	99
Es	-2.012521	-2.908035	-0.842120	99
Es	-0.104101	0.039443	0.236714	99
Es	-0.055464	0.816505	0.320116	99
Es	-1.109340	-2.525055	-1.554694	99
Es	0.038342	0.879609	-0.455947	99
Es	-1.395887	-1.299422	-0.184941	99
Es	1.622566	2.893175	1.485930	99
Es	-1.344516	-1.872186	-0.460902	99
Es	0.077023	0.551626	-1.157641	99
Es	-0.683203	1.101300	0.556035	99
Es	0.492289	-1.021699	-0.067793	99
Es	1.769064	1.004085	0.824201	99
Es	-0.483548	0.736656	-1.585070	99
Es	1.118790	1.258238	1.129591	99
Es	-1.623623	-1.098282	-0.345656	99
Es	-0.860392	-3.067439	-0.485924	99
Es	-0.108850	-0.597394	-0.204031	99
Es	-0.005144	-0.146410	-0.837871	99
Es	0.822739	2.829155	1.341123	99
47
Properties=species:S:1:pos:R:3:Z:I:1 energy=-305.28139405268354 field_type=dipole dipole="0.000000 0.000000 0.000000" charge=0
C	-1.336036	-2.595567	-0.845310	6
N	-1.396346	-1.299037	-0.185260	7
C	-0.108727	-0.597507	-0.203990	6
C	0.077024	0.551673	-1.157800	6
C	-0.055506	0.816633	0.320260	6
C	1.118803	1.258103	1.129600	6
N	1.112804	2.710763	1.189250	7
H	-2.330467	-3.051887	-0.848980	1
H	-0.653466	-3.273887	-0.322960	1
H	-1.011036	-2.495127	-1.885550	1
H	-1.719576	-1.426117	0.773860	1
H	0.762954	-1.217267	-0.002650	1
H	-0.756016	0.830773	-1.793430	1
H	1.046874	0.667463	-1.625700	1
H	-0.984226	1.248663	0.677890	1
H	2.062703	0.907923	0.697580	1
H	1.040474	0.850443	2.142340	1
H	1.193514	3.084444	0.244990	1
H	1.936254	3.029513	1.695860	1
Es	-0.005190	-0.146922	-0.838503	99
Es	-2.011919	-2.907625	-0.842114	99
Es	-1.566268	-1.392079	0.405071	99
Es	1.179886	2.925581	0.611013	99
Es	1.118789	1.258240	1.129591	99
Es	-0.055464	0.816501	0.320115	99
Es	1.621907	2.893109	1.485901	99
Es	0.038376	0.880535	-0.456335	99
Es	0.077023	0.551623	-1.157638	99
Es	-1.395896	-1.299398	-0.184963	99
Es	0.741731	0.633856	-1.468377	99
Es	1.066237	0.977273	1.827016	99
Es	1.768683	1.004173	0.824025	99
Es	0.823924	2.828645	1.341263	99
Es	-0.483162	0.736602	-1.584927	99
Es	-1.623145	-1.099459	-0.345139	99
Es	-0.820401	-1.012547	-0.183313	99
Es	-1.344269	-1.872219	-0.460908	99
Es	-0.860900	-3.067709	-0.485716	99
Es	1.113305	2.710558	1.188984	99
Es	-1.336040	-2.595453	-0.845246	99
Es	-1.109327	-2.525317	-1.555111	99
Es	0.491865	-1.021632	-0.067926	99
Es	-0.104033	0.039122	0.237634	99
Es	0.540471	1.024956	0.709914	99
Es	-0.682805	1.101209	0.556280	99
Es	1.139660	2.080529	1.154960	99
Es	-0.108846	-0.597383	-0.204032	99
47
Properties=species:S:1:pos:R:3:Z:I:1 energy=-305.28139405268354 field_type=dipole dipole="0.000000 0.000000 0.000000" charge=0
C	-1.336036	-2.595567	-0.845310	6
N	-1.396346	-1.299037	-0.185260	7
C	-0.108727	-0.597507	-0.203990	6
C	0.077024	0.551673	-1.157800	6
C	-0.055506	0.816633	0.320260	6
C	1.118803	1.258103	1.129600	6
N	1.112804	2.710763	1.189250	7
H	-2.330467	-3.051887	-0.848980	1
H	-0.653466	-3.273887	-0.322960	1
H	-1.011036	-2.495127	-1.885550	1
H	-1.719576	-1.426117	0.773860	1
H	0.762954	-1.217267	-0.002650	1
H	-0.756016	0.830773	-1.793430	1
H	1.046874	0.667463	-1.625700	1
H	-0.984226	1.248663	0.677890	1
H	2.062703	0.907923	0.697580	1
H	1.040474	0.850443	2.142340	1
H	1.193514	3.084444	0.244990	1
H	1.936254	3.029513	1.695860	1
Es	-0.861014	-3.067622	-0.485712	99
Es	-0.821032	-1.012445	-0.183917	99
Es	0.741518	0.633805	-1.468524	99
Es	0.038499	0.881053	-0.456337	99
Es	-1.623009	-1.099534	-0.344640	99
Es	0.824712	2.829229	1.340675	99
Es	0.491623	-1.021469	-0.067846	99
Es	-0.108851	-0.597395	-0.204030	99
Es	-0.005181	-0.147223	-0.839133	99
Es	1.066091	0.976996	1.827297	99
Es	-0.055464	0.816506	0.320117	99
Es	1.768404	1.004228	0.823932	99
Es	-1.344379	-1.872158	-0.461358	99
Es	1.118787	1.258241	1.129590	99
Es	0.077026	0.551625	-1.157640	99
Es	-0.682546	1.101007	0.556207	99
Es	-1.395898	-1.299414	-0.184948	99
Es	-1.336042	-2.595451	-0.845246	99
Es	1.621137	2.892792	1.486012	99
Es	1.180710	2.925850	0.610855	99
Es	1.113273	2.710568	1.189014	99
Es	-2.011499	-2.907586	-0.841798	99
Es	-1.565608	-1.392161	0.405688	99
Es	-1.109503	-2.525477	-1.555518	99
Es	1.138806	2.080070	1.155334	99
Es	-0.482884	0.736607	-1.584690	99
Es	-0.104017	0.038943	0.238176	99
Es	0.540535	1.025183	0.709957	99
47
Properties=species:S:1:pos:R:3:Z:I:1 energy=-305.28139405268354 field_type=dipole dipole="0.000000 0.000000 0.000000" charge=0
C	-1.336036	-2.595567	-0.845310	6
N	-1.396346	-1.299037	-0.185260	7
C	-0.108727	-0.597507	-0.203990	6
C	0.077024	0.551673	-1.157800	6
C	-0.055506	0.816633	0.320260	6
C	1.118803	1.258103	1.129600	6
N	1.112804	2.710763	1.189250	7
H	-2.330467	-3.051887	-0.848980	1
H	-0.653466	-3.273887	-0.322960	1
H	-1.011036	-2.495127	-1.885550	1
H	-1.719576	-1.426117	0.773860	1
H	0.762954	-1.217267	-0.002650	1
H	-0.756016	0.830773	-1.793430	1
H	1.046874	0.667463	-1.625700	1
H	-0.984226	1.248663	0.677890	1
H	2.062703	0.907923	0.697580	1
H	1.040474	0.850443	2.142340	1
H	1.193514	3.084444	0.244990	1
H	1.936254	3.029513	1.695860	1
Es	-0.055464	0.816503	0.320115	99
Es	-1.109522	-2.525565	-1.555820	99
Es	0.038530	0.881274	-0.456741	99
Es	-1.565869	-1.391860	0.405973	99
Es	0.491447	-1.021457	-0.067946	99
Es	0.540570	1.025107	0.709726	99
Es	1.139089	2.079972	1.155498	99
Es	1.768168	1.004353	0.823852	99
Es	-1.336044	-2.595451	-0.845246	99
Es	-0.482716	0.736540	-1.584544	99
Es	-0.682317	1.101158	0.556309	99
Es	0.077023	0.551622	-1.157634	99
Es	1.113289	2.710577	1.188999	99
Es	-0.108851	-0.597395	-0.204028	99
Es	-0.005186	-0.147359	-0.839399	99
Es	1.620403	2.893348	1.486593	99
Es	1.118788	1.258241	1.129590	99
Es	-1.622226	-1.100788	-0.343782	99
Es	-0.104091	0.038642	0.238914	99
Es	0.825242	2.828467	1.340078	99
Es	-2.011091	-2.907366	-0.841757	99
Es	1.180549	2.926255	0.610697	99
Es	-1.395906	-1.299417	-0.184954	99
Es	-0.861240	-3.067737	-0.485541	99
Es	-1.344505	-1.872309	-0.461743	99
Es	0.741375	0.633982	-1.468566	99
Es	-0.821362	-1.011281	-0.184514	99
Es	1.066109	0.976709	1.827391	99
47
Properties=species:S:1:pos:R:3:Z:I:1 energy=-305.28139405268354 field_type=dipole dipole="0.000000 0.000000 0.000000" charge=0
C	-1.336036	-2.595567	-0.845310	6
N	-1.396346	-1.299037	-0.185260	7
C	-0.108727	-0.597507	-0.203990	6
C	0.077024	0.551673	-1.157800	6
C	-0.055506	0.816633	0.320260	6
C	1.118803	1.258103	1.129600	6
N	1.112804	2.710763	1.189250	7
H	-2.330467	-3.051887	-0.848980	1
H	-0.653466	-3.273887	-0.322960	1
H	-1.011036	-2.495127	-1.885550	1
H	-1.719576	-1.426117	0.773860	1
H	0.762954	-1.217267	-0.002650	1
H	-0.756016	0.830773	-1.793430	1
H	1.046874	0.667463	-1.625700	1
H	-0.984226	1.248663	0.677890	1
H	2.062703	0.907923	0.697580	1
H	1.040474	0.850443	2.142340	1
H	1.193514	3.084444	0.244990	1
H	1.936254	3.029513	1.695860	1
Es	-0.108849	-0.597390	-0.204029	99
Es	-1.566364	-1.391497	0.406176	99
Es	1.619676	2.893604	1.486742	99
Es	1.767974	1.004363	0.823846	99
Es	1.139606	2.079959	1.155726	99
Es	-0.005055	-0.147504	-0.839634	99
Es	-1.621663	-1.100838	-0.344041	99
Es	0.540573	1.025187	0.709693	99
Es	0.077020	0.551621	-1.157637	99
Es	-2.010824	-2.907145	-0.841627	99
Es	-1.344317	-1.872351	-0.461752	99
Es	0.491238	-1.021262	-0.067886	99
Es	1.113309	2.710563	1.188985	99
Es	-0.821512	-1.011634	-0.184393	99
Es	-0.055464	0.816504	0.320114	99
Es	-1.395885	-1.299410	-0.184948	99
Es	0.741199	0.633935	-1.468525	99
Es	-0.861326	-3.067897	-0.485519	99
Es	-1.109731	-2.525646	-1.556033	99
Es	-0.104141	0.038280	0.239135	99
Es	-1.336043	-2.595451	-0.845245	99
Es	0.825126	2.828285	1.339839	99
Es	-0.682000	1.100991	0.556329	99
Es	1.118788	1.258240	1.129592	99
Es	-0.482493	0.736370	-1.584579	99
Es	1.066008	0.976532	1.827504	99
Es	0.038445	0.882081	-0.456791	99
Es	1.180900	2.926277	0.610478	99
47
Properties=species:S:1:pos:R:3:Z:I:1 energy=-305.28139405268354 field_type=dipole dipole="0.000000 0.000000 0.000000" charge=0
C	-1.336036	-2.595567	-0.845310	6
N	-1.396346	-1.299037	-0.185260	7
C	-0.108727	-0.597507	-0.203990	6
C	0.077024	0.551673	-1.157800	6
C	-0.055506	0.816633	0.320260	6
C	1.118803	1.258103	1.129600	6
N	1.112804	2.710763	1.189250	7
H	-2.330467	-3.051887	-0.848980	1
H	-0.653466	-3.273887	-0.322960	1
H	-1.011036	-2.495127	-1.885550	1
H	-1.719576	-1.426117	0.773860	1
H	0.762954	-1.217267	-0.002650	1
H	-0.756016	0.830773	-1.793430	1
H	1.046874	0.667463	-1.625700	1
H	-0.984226	1.248663	0.677890	1
H	2.062703	0.907923	0.697580	1
H	1.040474	0.850443	2.142340	1
H	1.193514	3.084444	0.244990	1
H	1.936254	3.029513	1.695860	1
Es	0.826159	2.828069	1.339518	99
Es	-2.010393	-2.907066	-0.841461	99
Es	-0.108847	-0.597396	-0.204030	99
Es	-1.566034	-1.391562	0.406442	99
Es	1.065867	0.976389	1.827605	99
Es	0.491196	-1.021257	-0.067884	99
Es	-0.104093	0.038368	0.239452	99
Es	1.767890	1.004364	0.823784	99
Es	-0.005063	-0.147655	-0.839813	99
Es	1.619414	2.893504	1.486983	99
Es	-1.621533	-1.101226	-0.343507	99
Es	-0.055464	0.816505	0.320116	99
Es	-1.344532	-1.872305	-0.461978	99
Es	0.741098	0.633928	-1.468537	99
Es	1.113293	2.710577	1.189001	99
Es	0.540565	1.025225	0.709604	99
Es	-0.681967	1.101022	0.556400	99
Es	-1.109816	-2.525777	-1.556365	99
Es	-1.395893	-1.299410	-0.184945	99
Es	-1.336042	-2.595451	-0.845246	99
Es	-0.482381	0.736419	-1.584503	99
Es	1.180694	2.926873	0.610398	99
Es	0.038614	0.882150	-0.456908	99
Es	0.077022	0.551622	-1.157638	99
Es	1.118789	1.258242	1.129592	99
Es	-0.861503	-3.067861	-0.485474	99
Es	1.139034	2.079689	1.155793	99
Es	-0.821878	-1.011212	-0.184879	99
47
Properties=species:S:1:pos:R:3:Z:I:1 energy=-305.28139405268354 field_type=dipole dipole="0.000000 0.000000 0.000000" charge=0
C	-1.336036	-2.595567	-0.845310	6
N	-1.396346	-1.299037	-0.185260	7
C	-0.108727	-0.597507	-0.203990	6
C	0.077024	0.551673	-1.157800	6
C	-0.055506	0.816633	0.320260	6
C	1.118803	1.258103	1.129600	6
N	1.112804	2.710763	1.189250	7
H	-2.330467	-3.051887	-0.848980	1
H	-0.653466	-3.273887	-0.322960	1
H	-1.011036	-2.495127	-1.885550	1
H	-1.719576	-1.426117	0.773860	1
H	0.762954	-1.217267	-0.002650	1
H	-0.756016	0.830773	-1.793430	1
H	1.046874	0.667463	-1.625700	1
H	-0.984226	1.248663	0.677890	1
H	2.062703	0.907923	0.697580	1
H	1.040474	0.850443	2.142340	1
H	1.193514	3.084444	0.244990	1
H	1.936254	3.029513	1.695860	1
Es	-0.861783	-3.067984	-0.485384	99
Es	-1.621018	-1.100704	-0.343571	99
Es	-0.104074	0.038187	0.239630	99
Es	1.118787	1.258240	1.129590	99
Es	0.826757	2.827896	1.339085	99
Es	-1.566258	-1.391407	0.406575	99
Es	-1.336044	-2.595455	-0.845248	99
Es	-0.108850	-0.597391	-0.204030	99
Es	-1.109650	-2.525806	-1.556431	99
Es	-0.482180	0.736413	-1.584276	99
Es	-0.681815	1.100977	0.556460	99
Es	0.038570	0.882512	-0.456962	99
Es	0.491095	-1.021235	-0.067919	99
Es	-0.005158	-0.147909	-0.840038	99
Es	1.065916	0.976308	1.827718	99
Es	1.618977	2.893627	1.487284	99
Es	-0.821859	-1.011846	-0.184518	99
Es	-2.010284	-2.906891	-0.841584	99
Es	1.767767	1.004345	0.823571	99
Es	-1.395895	-1.299410	-0.184964	99
Es	-0.055463	0.816505	0.320115	99
Es	0.077022	0.551624	-1.157638	99
Es	1.113280	2.710563	1.189001	99
Es	0.540533	1.025303	0.709698	99
Es	1.138800	2.079509	1.155995	99
Es	-1.344744	-1.872328	-0.462243	99
Es	0.741007	0.634005	-1.468648	99
Es	1.180757	2.927119	0.610250	99
47
Properties=species:S:1:pos:R:3:Z:I:1 energy=-305.28139405268354 field_type=dipole dipole="0.000000 0.000000 0.000000" charge=0
C	-1.336036	-2.595567	-0.845310	6
N	-1.396346	-1.299037	-0.185260	7
C	-0.108727	-0.597507	-0.203990	6
C	0.077024	0.551673	-1.157800	6
C	-0.055506	0.816633	0.320260	6
C	1.118803	1.258103	1.129600	6
N	1.112804	2.710763	1.189250	7
H	-2.330467	-3.051887	-0.848980	1
H	-0.653466	-3.273887	-0.322960	1
H	-1.011036	-2.495127	-1.885550	1
H	-1.719576	-1.426117	0.773860	1
H	0.762954	-1.217267	-0.002650	1
H	-0.756016	0.830773	-1.793430	1
H	1.046874	0.667463	-1.625700	1
H	-0.984226	1.248663	0.677890	1
H	2.062703	0.907923	0.697580	1
H	1.040474	0.850443	2.142340	1
H	1.193514	3.084444	0.244990	1
H	1.936254	3.029513	1.695860	1
Es	-0.055464	0.816497	0.320108	99
Es	-1.621180	-1.102129	-0.342862	99
Es	-0.681806	1.101051	0.556397	99
Es	-0.104066	0.037947	0.240123	99
Es	-1.344369	-1.872372	-0.462263	99
Es	0.826881	2.827387	1.338747	99
Es	1.118788	1.258242	1.129592	99
Es	-0.861738	-3.068065	-0.485314	99
Es	0.740983	0.634036	-1.468654	99
Es	1.113305	2.710550	1.188988	99
Es	0.038718	0.882377	-0.456951	99
Es	1.180727	2.927346	0.610175	99
Es	-1.109929	-2.525932	-1.556602	99
Es	1.065997	0.976202	1.827738	99
Es	-1.336041	-2.595458	-0.845251	99
Es	1.139066	2.079556	1.155977	99
Es	-1.565945	-1.391395	0.406720	99
Es	0.540478	1.025270	0.709839	99
Es	1.618541	2.893941	1.487710	99
Es	-0.482216	0.736403	-1.584278	99
Es	-2.010005	-2.906747	-0.841423	99
Es	-1.395884	-1.299412	-0.184950	99
Es	-0.822318	-1.010276	-0.185435	99
Es	-0.108849	-0.597388	-0.204031	99
Es	0.491011	-1.021272	-0.068148	99
Es	1.767653	1.004359	0.823438	99
Es	0.077023	0.551618	-1.157640	99
Es	-0.005168	-0.147567	-0.840231	99
47
Properties=species:S:1:pos:R:3:Z:I:1 energy=-305.28139405268354 field_type=dipole dipole="0.000000 0.000000 0.000000" charge=0
C	-1.336036	-2.595567	-0.845310	6
N	-1.396346	-1.299037	-0.185260	7
C	-0.108727	-0.597507	-0.203990	6
C	0.077024	0.551673	-1.157800	6
C	-0.055506	0.816633	0.320260	6
C	1.118803	1.258103	1.129600	6
N	1.112804	2.710763	1.189250	7
H	-2.330467	-3.051887	-0.848980	1
H	-0.653466	-3.273887	-0.322960	1
H	-1.011036	-2.495127	-1.885550	1
H	-1.719576	-1.426117	0.773860	1
H	0.762954	-1.217267	-0.002650	1
H	-0.756016	0.830773	-1.793430	1
H	1.046874	0.667463	-1.625700	1
H	-0.984226	1.248663	0.677890	1
H	2.062703	0.907923	0.697580	1
H	1.040474	0.850443	2.142340	1
H	1.193514	3.084444	0.244990	1
H	1.936254	3.029513	1.695860	1
Es	-1.344551	-1.872236	-0.462245	99
Es	1.767650	1.004335	0.823479	99
Es	1.118789	1.258240	1.129591	99
Es	1.113268	2.710567	1.189006	99
Es	1.139174	2.079560	1.156108	99
Es	0.740941	0.633897	-1.468620	99
Es	-0.108849	-0.597391	-0.204033	99
Es	-0.482071	0.736316	-1.584345	99
Es	1.065795	0.976096	1.827731	99
Es	-1.336041	-2.595451	-0.845246	99
Es	-1.566055	-1.391357	0.406857	99
Es	0.490909	-1.021211	-0.067978	99
Es	-0.104074	0.037987	0.240096	99
Es	-1.620978	-1.102140	-0.342874	99
Es	1.180807	2.927546	0.610032	99
Es	-0.681667	1.100930	0.556476	99
Es	-1.109848	-2.525993	-1.556643	99
Es	0.540591	1.025383	0.709723	99
Es	1.618164	2.893989	1.487835	99
Es	-1.395880	-1.299432	-0.184948	99
Es	-0.005184	-0.147900	-0.840200	99
Es	-0.822272	-1.010334	-0.185456	99
Es	0.038631	0.882878	-0.457117	99
Es	-0.861917	-3.068166	-0.485242	99
Es	0.827104	2.827170	1.338607	99
Es	0.077022	0.551622	-1.157638	99
Es	-2.009798	-2.906643	-0.841555	99
Es	-0.055464	0.816506	0.320117	99
