47
Properties=species:S:1:pos:R:3:Z:I:1 energy=-305.27101125342006 field_type=dipole dipole="0.000000 0.000000 0.000000" charge=0
C	-0.952944	-2.108212	-1.252686	6
N	-0.756724	-1.499092	0.058704	7
C	0.201016	-0.395922	-0.051056	6
C	-0.525244	0.896188	-0.495576	6
C	0.121956	1.625418	0.699514	6
N	1.397066	2.216008	0.281484	7
C	0.375267	0.247348	1.346104	6
H	-1.685364	-2.917092	-1.170426	1
H	-0.021464	-2.535222	-1.638446	1
H	-1.342224	-1.386882	-1.978256	1
H	-0.461134	-2.225452	0.711694	1
H	1.143486	-0.614642	-0.565236	1
H	-1.620454	0.867038	-0.421776	1
H	-0.267974	1.259948	-1.496106	1
H	-0.528644	2.307298	1.252084	1
H	2.019596	1.599038	-0.237496	1
H	1.947067	2.584348	1.056874	1
H	1.351956	0.092918	1.816644	1
H	-0.395244	-0.013032	2.083964	1
Es	0.200918	-0.395988	-0.051021	99
Es	-0.525204	0.896175	-0.495540	99
Es	-0.952929	-2.108163	-1.252579	99
Es	0.375264	0.247339	1.346066	99
Es	-0.820507	-1.774268	-0.521096	99
Es	0.329395	-0.144219	0.679789	99
Es	-1.264249	0.864196	-0.437291	99
Es	-0.178481	0.213284	-0.358156	99
Es	1.335076	2.484703	0.070780	99
Es	-0.756188	-1.499353	0.058490	99
Es	-0.313629	2.104283	1.082028	99
Es	-0.155934	0.058705	1.837823	99
Es	-0.344351	1.149728	-1.179561	99
Es	1.759424	1.810693	-0.007737	99
Es	1.725039	2.408937	0.769299	99
Es	-0.305045	-2.400718	-1.524492	99
Es	1.397192	2.215546	0.281848	99
Es	0.868273	1.940279	0.479078	99
Es	0.122099	1.625430	0.699449	99
Es	-1.211865	-1.609768	-1.745629	99
Es	-0.231325	1.335551	0.067127	99
Es	-0.546000	-1.942897	0.439275	99
Es	-1.451035	-2.665053	-1.197492	99
Es	0.851072	-0.546546	-0.411928	99
Es	-0.304627	-1.055790	-0.005297	99
Es	1.052326	0.147709	1.670766	99
Es	0.264828	0.962134	1.111189	99
Es	-1.057800	-1.361287	0.175563	99
47
Properties=species:S:1:pos:R:3:Z:I:1 energy=-305.27101125342006 field_type=dipole dipole="0.000000 0.000000 0.000000" charge=0
C	-0.952944	-2.108212	-1.252686	6
N	-0.756724	-1.499092	0.058704	7
C	0.201016	-0.395922	-0.051056	6
C	-0.525244	0.896188	-0.495576	6
C	0.121956	1.625418	0.699514	6
N	1.397066	2.216008	0.281484	7
C	0.375267	0.247348	1.346104	6
H	-1.685364	-2.917092	-1.170426	1
H	-0.021464	-2.535222	-1.638446	1
H	-1.342224	-1.386882	-1.978256	1
H	-0.461134	-2.225452	0.711694	1
H	1.143486	-0.614642	-0.565236	1
H	-1.620454	0.867038	-0.421776	1
H	-0.267974	1.259948	-1.496106	1
H	-0.528644	2.307298	1.252084	1
H	2.019596	1.599038	-0.237496	1
H	1.947067	2.584348	1.056874	1
H	1.351956	0.092918	1.816644	1
H	-0.395244	-0.013032	2.083964	1
Es	1.052813	0.147818	1.670767	99
Es	0.375266	0.247337	1.346076	99
Es	0.200918	-0.395988	-0.051021	99
Es	0.867940	1.940337	0.478991	99
Es	-0.304103	-1.057354	-0.005626	99
Es	0.264919	0.961528	1.111124	99
Es	-0.313642	2.104341	1.082005	99
Es	-0.231326	1.335006	0.066911	99
Es	0.329091	-0.143800	0.679898	99
Es	-0.344002	1.149909	-1.179897	99
Es	0.851375	-0.546820	-0.412075	99
Es	1.759253	1.811033	-0.008526	99
Es	-0.156501	0.058788	1.837925	99
Es	-1.212433	-1.609740	-1.745611	99
Es	-1.058401	-1.359287	0.175986	99
Es	-0.820497	-1.774371	-0.521118	99
Es	-1.450587	-2.664449	-1.197437	99
Es	1.397200	2.215541	0.281851	99
Es	0.122097	1.625426	0.699447	99
Es	1.725105	2.407091	0.769338	99
Es	-0.304719	-2.401117	-1.524720	99
Es	-0.545896	-1.942979	0.439455	99
Es	-0.178671	0.213620	-0.358019	99
Es	-1.264634	0.864053	-0.436933	99
Es	-0.756198	-1.499357	0.058473	99
Es	1.335502	2.486065	0.071608	99
Es	-0.952929	-2.108165	-1.252583	99
Es	-0.525204	0.896177	-0.495541	99
47
Properties=species:S:1:pos:R:3:Z:I:1 energy=-305.27101125342006 field_type=dipole dipole="0.000000 0.000000 0.000000" charge=0
C	-0.952944	-2.108212	-1.252686	6
N	-0.756724	-1.499092	0.058704	7
C	0.201016	-0.395922	-0.051056	6
C	-0.525244	0.896188	-0.495576	6
C	0.121956	1.625418	0.699514	6
N	1.397066	2.216008	0.281484	7
C	0.375267	0.247348	1.346104	6
H	-1.685364	-2.917092	-1.170426	1
H	-0.021464	-2.535222	-1.638446	1
H	-1.342224	-1.386882	-1.978256	1
H	-0.461134	-2.225452	0.711694	1
H	1.143486	-0.614642	-0.565236	1
H	-1.620454	0.867038	-0.421776	1
H	-0.267974	1.259948	-1.496106	1
H	-0.528644	2.307298	1.252084	1
H	2.019596	1.599038	-0.237496	1
H	1.947067	2.584348	1.056874	1
H	1.351956	0.092918	1.816644	1
H	-0.395244	-0.013032	2.083964	1
Es	1.725297	2.405766	0.769578	99
Es	-0.545370	-1.943144	0.438936	99
Es	0.122096	1.625426	0.699453	99
Es	-0.313552	2.104287	1.082027	99
Es	0.329005	-0.143614	0.680031	99
Es	0.265053	0.960926	1.111080	99
Es	0.868083	1.940150	0.478951	99
Es	0.375267	0.247339	1.346072	99
Es	-0.178957	0.213974	-0.357695	99
Es	1.053209	0.147908	1.670769	99
Es	-1.059226	-1.358016	0.176820	99
Es	-0.231437	1.334589	0.066608	99
Es	-0.303551	-1.058418	-0.006133	99
Es	-1.212829	-1.609678	-1.745802	99
Es	-0.156978	0.058925	1.838023	99
Es	0.851438	-0.546901	-0.412283	99
Es	-0.820656	-1.774235	-0.520861	99
Es	-0.952928	-2.108163	-1.252578	99
Es	-1.264938	0.864028	-0.436604	99
Es	0.200917	-0.395986	-0.051022	99
Es	1.335406	2.487070	0.072227	99
Es	-1.450176	-2.664079	-1.197347	99
Es	-0.525206	0.896173	-0.495540	99
Es	-0.343635	1.150021	-1.180231	99
Es	-0.304624	-2.401407	-1.524720	99
Es	-0.756174	-1.499363	0.058465	99
Es	1.397194	2.215551	0.281856	99
Es	1.759009	1.811515	-0.009329	99
47
Properties=species:S:1:pos:R:3:Z:I:1 energy=-305.27101125342006 field_type=dipole dipole="0.000000 0.000000 0.000000" charge=0
C	-0.952944	-2.108212	-1.252686	6
N	-0.756724	-1.499092	0.058704	7
C	0.201016	-0.395922	-0.051056	6
C	-0.525244	0.896188	-0.495576	6
C	0.121956	1.625418	0.699514	6
N	1.397066	2.216008	0.281484	7
C	0.375267	0.247348	1.346104	6
H	-1.685364	-2.917092	-1.170426	1
H	-0.021464	-2.535222	-1.638446	1
H	-1.342224	-1.386882	-1.978256	1
H	-0.461134	-2.225452	0.711694	1
H	1.143486	-0.614642	-0.565236	1
H	-1.620454	0.867038	-0.421776	1
H	-0.267974	1.259948	-1.496106	1
H	-0.528644	2.307298	1.252084	1
H	2.019596	1.599038	-0.237496	1
H	1.947067	2.584348	1.056874	1
H	1.351956	0.092918	1.816644	1
H	-0.395244	-0.013032	2.083964	1
Es	-0.313424	2.104210	1.082027	99
Es	0.328932	-0.143375	0.680114	99
Es	1.397204	2.215517	0.281872	99
Es	-1.265104	0.863929	-0.436322	99
Es	-0.756189	-1.499365	0.058480	99
Es	0.122100	1.625426	0.699452	99
Es	-0.304536	-2.401607	-1.524820	99
Es	0.866964	1.940908	0.478178	99
Es	-0.343486	1.150135	-1.180468	99
Es	-0.545658	-1.943278	0.439581	99
Es	0.200919	-0.395985	-0.051020	99
Es	1.336717	2.487368	0.073254	99
Es	-0.179003	0.214178	-0.357604	99
Es	-0.525208	0.896168	-0.495541	99
Es	1.758961	1.811670	-0.009833	99
Es	1.725181	2.404588	0.769781	99
Es	1.053507	0.148049	1.670780	99
Es	-0.231588	1.334384	0.066469	99
Es	-0.952930	-2.108158	-1.252574	99
Es	-0.820427	-1.774331	-0.520775	99
Es	-1.059361	-1.356512	0.176475	99
Es	-0.157325	0.058992	1.838089	99
Es	-1.213085	-1.609637	-1.745809	99
Es	-0.303283	-1.059601	-0.006494	99
Es	0.265057	0.960412	1.111084	99
Es	0.851493	-0.546993	-0.412368	99
Es	-1.449956	-2.663783	-1.197325	99
Es	0.375264	0.247338	1.346068	99
47
Properties=species:S:1:pos:R:3:Z:I:1 energy=-305.27101125342006 field_type=dipole dipole="0.000000 0.000000 0.000000" charge=0
C	-0.952944	-2.108212	-1.252686	6
N	-0.756724	-1.499092	0.058704	7
C	0.201016	-0.395922	-0.051056	6
C	-0.525244	0.896188	-0.495576	6
C	0.121956	1.625418	0.699514	6
N	1.397066	2.216008	0.281484	7
C	0.375267	0.247348	1.346104	6
H	-1.685364	-2.917092	-1.170426	1
H	-0.021464	-2.535222	-1.638446	1
H	-1.342224	-1.386882	-1.978256	1
H	-0.461134	-2.225452	0.711694	1
H	1.143486	-0.614642	-0.565236	1
H	-1.620454	0.867038	-0.421776	1
H	-0.267974	1.259948	-1.496106	1
H	-0.528644	2.307298	1.252084	1
H	2.019596	1.599038	-0.237496	1
H	1.947067	2.584348	1.056874	1
H	1.351956	0.092918	1.816644	1
H	-0.395244	-0.013032	2.083964	1
Es	-0.952927	-2.108163	-1.252578	99
Es	0.122100	1.625429	0.699450	99
Es	-0.343177	1.150211	-1.180653	99
Es	-0.304480	-2.401729	-1.524826	99
Es	1.397195	2.215555	0.281851	99
Es	1.337268	2.487701	0.073524	99
Es	0.866525	1.941233	0.477919	99
Es	0.375264	0.247339	1.346067	99
Es	0.328750	-0.143145	0.680235	99
Es	0.200918	-0.395986	-0.051021	99
Es	-0.756209	-1.499332	0.058475	99
Es	-0.231758	1.334049	0.066325	99
Es	-1.213290	-1.609623	-1.745883	99
Es	1.053779	0.148062	1.670771	99
Es	-1.265299	0.863843	-0.436201	99
Es	-0.179098	0.214393	-0.357501	99
Es	-1.059524	-1.355156	0.175889	99
Es	-0.525206	0.896173	-0.495540	99
Es	1.725352	2.403805	0.769928	99
Es	-0.157585	0.059080	1.838109	99
Es	1.758666	1.811802	-0.009979	99
Es	-0.546170	-1.943325	0.440352	99
Es	-0.313386	2.104146	1.081942	99
Es	0.265150	0.960126	1.111159	99
Es	-0.820054	-1.774498	-0.520561	99
Es	-0.302933	-1.060651	-0.006773	99
Es	-1.449718	-2.663581	-1.197336	99
Es	0.851584	-0.547112	-0.412393	99
47
Properties=species:S:1:pos:R:3:Z:I:1 energy=-305.27101125342006 field_type=dipole dipole="0.000000 0.000000 0.000000" charge=0
C	-0.952944	-2.108212	-1.252686	6
N	-0.756724	-1.499092	0.058704	7
C	0.201016	-0.395922	-0.051056	6
C	-0.525244	0.896188	-0.495576	6
C	0.121956	1.625418	0.699514	6
N	1.397066	2.216008	0.281484	7
C	0.375267	0.247348	1.346104	6
H	-1.685364	-2.917092	-1.170426	1
H	-0.021464	-2.535222	-1.638446	1
H	-1.342224	-1.386882	-1.978256	1
H	-0.461134	-2.225452	0.711694	1
H	1.143486	-0.614642	-0.565236	1
H	-1.620454	0.867038	-0.421776	1
H	-0.267974	1.259948	-1.496106	1
H	-0.528644	2.307298	1.252084	1
H	2.019596	1.599038	-0.237496	1
H	1.947067	2.584348	1.056874	1
H	1.351956	0.092918	1.816644	1
H	-0.395244	-0.013032	2.083964	1
Es	-0.756206	-1.499349	0.058480	99
Es	-1.449433	-2.663294	-1.197328	99
Es	0.122099	1.625426	0.699450	99
Es	-0.302716	-1.060979	-0.006933	99
Es	1.337434	2.488484	0.073916	99
Es	1.054001	0.148102	1.670712	99
Es	-1.059318	-1.354705	0.176415	99
Es	-0.179386	0.214479	-0.357364	99
Es	0.328558	-0.143027	0.680269	99
Es	-0.342955	1.150271	-1.180836	99
Es	-0.545883	-1.943410	0.440141	99
Es	-0.313370	2.104106	1.081958	99
Es	-0.820651	-1.774469	-0.520628	99
Es	-0.231779	1.333812	0.066217	99
Es	0.375264	0.247339	1.346067	99
Es	-0.525206	0.896173	-0.495540	99
Es	-0.157794	0.059217	1.838201	99
Es	-0.952929	-2.108166	-1.252584	99
Es	1.758537	1.811997	-0.010378	99
Es	-1.265413	0.863913	-0.436024	99
Es	0.265158	0.959751	1.111136	99
Es	1.397216	2.215554	0.281881	99
Es	0.851649	-0.547141	-0.412479	99
Es	-1.213577	-1.609600	-1.745917	99
Es	0.866570	1.941305	0.477800	99
Es	0.200916	-0.395985	-0.051024	99
Es	1.725339	2.402742	0.770047	99
Es	-0.304390	-2.401901	-1.524901	99
47
Properties=species:S:1:pos:R:3:Z:I:1 energy=-305.27101125342006 field_type=dipole dipole="0.000000 0.000000 0.000000" charge=0
C	-0.952944	-2.108212	-1.252686	6
N	-0.756724	-1.499092	0.058704	7
C	0.201016	-0.395922	-0.051056	6
C	-0.525244	0.896188	-0.495576	6
C	0.121956	1.625418	0.699514	6
N	1.397066	2.216008	0.281484	7
C	0.375267	0.247348	1.346104	6
H	-1.685364	-2.917092	-1.170426	1
H	-0.021464	-2.535222	-1.638446	1
H	-1.342224	-1.386882	-1.978256	1
H	-0.461134	-2.225452	0.711694	1
H	1.143486	-0.614642	-0.565236	1
H	-1.620454	0.867038	-0.421776	1
H	-0.267974	1.259948	-1.496106	1
H	-0.528644	2.307298	1.252084	1
H	2.019596	1.599038	-0.237496	1
H	1.947067	2.584348	1.056874	1
H	1.351956	0.092918	1.816644	1
H	-0.395244	-0.013032	2.083964	1
Es	0.265210	0.959552	1.111300	99
Es	-0.158042	0.059191	1.838260	99
Es	-0.342908	1.150374	-1.181053	99
Es	-0.952928	-2.108162	-1.252579	99
Es	0.122100	1.625426	0.699451	99
Es	-0.304463	-2.402131	-1.524792	99
Es	1.725438	2.402523	0.770081	99
Es	0.328650	-0.142909	0.680373	99
Es	-0.179425	0.214688	-0.357356	99
Es	-1.213652	-1.609518	-1.746115	99
Es	1.337606	2.488555	0.073967	99
Es	0.200918	-0.395984	-0.051020	99
Es	0.851644	-0.547253	-0.412562	99
Es	0.866437	1.941192	0.477798	99
Es	-0.302720	-1.061326	-0.007061	99
Es	-0.525206	0.896173	-0.495540	99
Es	-0.231895	1.333517	0.065962	99
Es	1.758435	1.812131	-0.010310	99
Es	-0.545538	-1.943455	0.439924	99
Es	0.375264	0.247338	1.346069	99
Es	-1.449294	-2.663092	-1.197263	99
Es	1.054099	0.148244	1.670701	99
Es	-0.756158	-1.499381	0.058463	99
Es	-0.313226	2.104059	1.081848	99
Es	-1.265516	0.863801	-0.435707	99
Es	-0.820613	-1.774386	-0.520642	99
Es	1.397152	2.215671	0.281763	99
Es	-1.059632	-1.354191	0.176793	99
47
Properties=species:S:1:pos:R:3:Z:I:1 energy=-305.27101125342006 field_type=dipole dipole="0.000000 0.000000 0.000000" charge=0
C	-0.952944	-2.108212	-1.252686	6
N	-0.756724	-1.499092	0.058704	7
C	0.201016	-0.395922	-0.051056	6
C	-0.525244	0.896188	-0.495576	6
C	0.121956	1.625418	0.699514	6
N	1.397066	2.216008	0.281484	7
C	0.375267	0.247348	1.346104	6
H	-1.685364	-2.917092	-1.170426	1
H	-0.021464	-2.535222	-1.638446	1
H	-1.342224	-1.386882	-1.978256	1
H	-0.461134	-2.225452	0.711694	1
H	1.143486	-0.614642	-0.565236	1
H	-1.620454	0.867038	-0.421776	1
H	-0.267974	1.259948	-1.496106	1
H	-0.528644	2.307298	1.252084	1
H	2.019596	1.599038	-0.237496	1
H	1.947067	2.584348	1.056874	1
H	1.351956	0.092918	1.816644	1
H	-0.395244	-0.013032	2.083964	1
Es	-1.059404	-1.353768	0.176692	99
Es	-0.313163	2.104010	1.081803	99
Es	-0.158202	0.059255	1.838237	99
Es	1.397152	2.215672	0.281759	99
Es	1.337949	2.489024	0.074325	99
Es	0.375264	0.247338	1.346068	99
Es	1.758401	1.812281	-0.010534	99
Es	0.122098	1.625424	0.699451	99
Es	0.866214	1.941299	0.477668	99
Es	0.328525	-0.142775	0.680377	99
Es	-0.525206	0.896171	-0.495539	99
Es	-0.342822	1.150322	-1.181178	99
Es	-0.302594	-1.061602	-0.007250	99
Es	1.054287	0.148264	1.670722	99
Es	-0.231984	1.333506	0.065983	99
Es	-0.304306	-2.402046	-1.524943	99
Es	0.200918	-0.395984	-0.051020	99
Es	-0.545581	-1.943393	0.440234	99
Es	1.725396	2.401817	0.770047	99
Es	-0.179566	0.214810	-0.357321	99
Es	-0.820850	-1.774525	-0.520559	99
Es	0.851712	-0.547359	-0.412552	99
Es	-1.449060	-2.663029	-1.197299	99
Es	-1.265526	0.863751	-0.435668	99
Es	0.265191	0.959301	1.111354	99
Es	-0.952928	-2.108162	-1.252578	99
Es	-1.213924	-1.609639	-1.746021	99
Es	-0.756257	-1.499319	0.058494	99
47
Properties=species:S:1:pos:R:3:Z:I:1 energy=-305.27101125342006 field_type=dipole dipole="0.000000 0.000000 0.000000" charge=0
C	-0.952944	-2.108212	-1.252686	6
N	-0.756724	-1.499092	0.058704	7
C	0.201016	-0.395922	-0.051056	6
C	-0.525244	0.896188	-0.495576	6
C	0.121956	1.625418	0.699514	6
N	1.397066	2.216008	0.281484	7
C	0.375267	0.247348	1.346104	6
H	-1.685364	-2.917092	-1.170426	1
H	-0.021464	-2.535222	-1.638446	1
H	-1.342224	-1.386882	-1.978256	1
H	-0.461134	-2.225452	0.711694	1
H	1.143486	-0.614642	-0.565236	1
H	-1.620454	0.867038	-0.421776	1
H	-0.267974	1.259948	-1.496106	1
H	-0.528644	2.307298	1.252084	1
H	2.019596	1.599038	-0.237496	1
H	1.947067	2.584348	1.056874	1
H	1.351956	0.092918	1.816644	1
H	-0.395244	-0.013032	2.083964	1
Es	-0.545556	-1.943580	0.440460	99
Es	0.865940	1.941248	0.477263	99
Es	-1.213939	-1.609543	-1.746061	99
Es	1.725576	2.401653	0.770375	99
Es	-0.342726	1.150341	-1.181205	99
Es	0.851716	-0.547338	-0.412593	99
Es	-0.179565	0.214879	-0.357244	99
Es	0.265269	0.959114	1.111418	99
Es	-0.232019	1.333416	0.065828	99
Es	-1.449040	-2.662927	-1.197285	99
Es	-1.059689	-1.353286	0.176462	99
Es	1.758336	1.812830	-0.011225	99
Es	0.328512	-0.142697	0.680507	99
Es	-0.952928	-2.108162	-1.252579	99
Es	0.375265	0.247339	1.346068	99
Es	1.397213	2.215565	0.281877	99
Es	-0.820461	-1.774402	-0.520586	99
Es	1.054387	0.148291	1.670677	99
Es	0.122099	1.625426	0.699451	99
Es	-0.756196	-1.499313	0.058487	99
Es	-0.525207	0.896171	-0.495540	99
Es	-0.158327	0.059230	1.838276	99
Es	-0.304316	-2.402153	-1.524908	99
Es	0.200917	-0.395986	-0.051021	99
Es	1.337946	2.488795	0.074932	99
Es	-0.302733	-1.062041	-0.007282	99
Es	-1.265668	0.863766	-0.435554	99
Es	-0.313069	2.104010	1.081755	99
47
Properties=species:S:1:pos:R:3:Z:I:1 energy=-305.27101125342006 field_type=dipole dipole="0.000000 0.000000 0.000000" charge=0
C	-0.952944	-2.108212	-1.252686	6
N	-0.756724	-1.499092	0.058704	7
C	0.201016	-0.395922	-0.051056	6
C	-0.525244	0.896188	-0.495576	6
C	0.121956	1.625418	0.699514	6
N	1.397066	2.216008	0.281484	7
C	0.375267	0.247348	1.346104	6
H	-1.685364	-2.917092	-1.170426	1
H	-0.021464	-2.535222	-1.638446	1
H	-1.342224	-1.386882	-1.978256	1
H	-0.461134	-2.225452	0.711694	1
H	1.143486	-0.614642	-0.565236	1
H	-1.620454	0.867038	-0.421776	1
H	-0.267974	1.259948	-1.496106	1
H	-0.528644	2.307298	1.252084	1
H	2.019596	1.599038	-0.237496	1
H	1.947067	2.584348	1.056874	1
H	1.351956	0.092918	1.816644	1
H	-0.395244	-0.013032	2.083964	1
Es	0.375264	0.247338	1.346069	99
Es	-0.302229	-1.062424	-0.007396	99
Es	-1.059395	-1.352686	0.176603	99
Es	1.757928	1.812663	-0.010760	99
Es	-1.448908	-2.662755	-1.197328	99
Es	-0.158505	0.059309	1.838291	99
Es	1.338333	2.489318	0.074521	99
Es	-0.952929	-2.108165	-1.252582	99
Es	-0.342612	1.150375	-1.181334	99
Es	-0.820900	-1.774458	-0.520550	99
Es	-1.265731	0.863747	-0.435417	99
Es	-0.545870	-1.943626	0.440489	99
Es	1.725790	2.401119	0.770309	99
Es	1.397182	2.215564	0.281838	99
Es	1.054490	0.148299	1.670672	99
Es	-0.313085	2.103939	1.081763	99
Es	-0.304266	-2.402262	-1.524917	99
Es	-0.525206	0.896173	-0.495541	99
Es	0.122098	1.625422	0.699451	99
Es	0.865832	1.941469	0.477341	99
Es	0.265334	0.958877	1.111443	99
Es	0.200917	-0.395987	-0.051021	99
Es	-0.756197	-1.499353	0.058475	99
Es	-0.179759	0.214969	-0.357215	99
Es	0.328451	-0.142565	0.680508	99
Es	-0.232001	1.333261	0.065795	99
Es	0.851746	-0.547386	-0.412673	99
Es	-1.214037	-1.609527	-1.746084	99
47
Properties=species:S:1:pos:R:3:Z:I:1 energy=-305.27101125342006 field_type=dipole dipole="0.000000 0.000000 0.000000" charge=0
C	-0.952944	-2.108212	-1.252686	6
N	-0.756724	-1.499092	0.058704	7
C	0.201016	-0.395922	-0.051056	6
C	-0.525244	0.896188	-0.495576	6
C	0.121956	1.625418	0.699514	6
N	1.397066	2.216008	0.281484	7
C	0.375267	0.247348	1.346104	6
H	-1.685364	-2.917092	-1.170426	1
H	-0.021464	-2.535222	-1.638446	1
H	-1.342224	-1.386882	-1.978256	1
H	-0.461134	-2.225452	0.711694	1
H	1.143486	-0.614642	-0.565236	1
H	-1.620454	0.867038	-0.421776	1
H	-0.267974	1.259948	-1.496106	1
H	-0.528644	2.307298	1.252084	1
H	2.019596	1.599038	-0.237496	1
H	1.947067	2.584348	1.056874	1
H	1.351956	0.092918	1.816644	1
H	-0.395244	-0.013032	2.083964	1
Es	-0.232047	1.333146	0.065652	99
Es	-0.179842	0.215052	-0.357117	99
Es	1.725825	2.400773	0.770228	99
Es	-1.448710	-2.662618	-1.197308	99
Es	0.265269	0.958741	1.111396	99
Es	0.851782	-0.547457	-0.412711	99
Es	-0.302374	-1.062317	-0.007516	99
Es	-1.059052	-1.352641	0.176350	99
Es	0.865723	1.941523	0.477380	99
Es	-0.545880	-1.943552	0.440916	99
Es	0.200917	-0.395982	-0.051020	99
Es	-0.952928	-2.108162	-1.252579	99
Es	-1.214205	-1.609580	-1.746160	99
Es	0.122099	1.625426	0.699450	99
Es	-0.525206	0.896173	-0.495540	99
Es	-0.158628	0.059295	1.838236	99
Es	1.757923	1.812787	-0.011132	99
Es	0.328433	-0.142533	0.680640	99
Es	1.397200	2.215551	0.281862	99
Es	-0.304254	-2.402342	-1.524923	99
Es	-1.265818	0.863779	-0.435310	99
Es	-0.821029	-1.774557	-0.520594	99
Es	-0.756206	-1.499320	0.058489	99
Es	-0.313050	2.103931	1.081774	99
Es	0.375264	0.247338	1.346069	99
Es	-0.342498	1.150347	-1.181428	99
Es	1.338422	2.489471	0.074917	99
Es	1.054606	0.148373	1.670730	99
47
Properties=species:S:1:pos:R:3:Z:I:1 energy=-305.27101125342006 field_type=dipole dipole="0.000000 0.000000 0.000000" charge=0
C	-0.952944	-2.108212	-1.252686	6
N	-0.756724	-1.499092	0.058704	7
C	0.201016	-0.395922	-0.051056	6
C	-0.525244	0.896188	-0.495576	6
C	0.121956	1.625418	0.699514	6
N	1.397066	2.216008	0.281484	7
C	0.375267	0.247348	1.346104	6
H	-1.685364	-2.917092	-1.170426	1
H	-0.021464	-2.535222	-1.638446	1
H	-1.342224	-1.386882	-1.978256	1
H	-0.461134	-2.225452	0.711694	1
H	1.143486	-0.614642	-0.565236	1
H	-1.620454	0.867038	-0.421776	1
H	-0.267974	1.259948	-1.496106	1
H	-0.528644	2.307298	1.252084	1
H	2.019596	1.599038	-0.237496	1
H	1.947067	2.584348	1.056874	1
H	1.351956	0.092918	1.816644	1
H	-0.395244	-0.013032	2.083964	1
Es	-0.756196	-1.499364	0.058474	99
Es	1.054693	0.148423	1.670620	99
Es	1.757802	1.812894	-0.011108	99
Es	-0.304255	-2.402348	-1.524969	99
Es	0.865466	1.941808	0.476932	99
Es	0.122099	1.625425	0.699451	99
Es	0.328386	-0.142256	0.680425	99
Es	-0.525206	0.896173	-0.495541	99
Es	-0.952928	-2.108162	-1.252579	99
Es	1.397223	2.215610	0.281867	99
Es	-1.265839	0.863785	-0.435293	99
Es	-0.179738	0.215051	-0.357217	99
Es	0.265364	0.958411	1.111784	99
Es	-1.448591	-2.662564	-1.197304	99
Es	0.200917	-0.395985	-0.051020	99
Es	-0.313010	2.103910	1.081646	99
Es	-1.059135	-1.352062	0.176558	99
Es	-0.821158	-1.774450	-0.520452	99
Es	-0.158756	0.059333	1.838354	99
Es	-0.232195	1.333028	0.065637	99
Es	-0.342418	1.150460	-1.181436	99
Es	-1.214326	-1.609556	-1.746161	99
Es	1.725781	2.400427	0.770468	99
Es	0.851715	-0.547468	-0.412583	99
Es	-0.545938	-1.943730	0.440763	99
Es	0.375264	0.247338	1.346069	99
Es	1.338810	2.489398	0.075036	99
Es	-0.302098	-1.062885	-0.007669	99
