47
Properties=species:S:1:pos:R:3:Z:I:1 energy=-305.26295250452876 field_type=dipole dipole="0.000000 0.000000 0.000000" charge=0
C	-0.934518	-1.762531	-1.640766	6
N	-0.825988	-1.217471	-0.293426	7
C	0.071903	-0.054381	-0.306956	6
C	-0.697128	1.235039	-0.674366	6
N	-0.016407	1.918769	0.460944	7
C	0.131943	0.580729	1.110494	6
C	1.441813	0.443209	1.863694	6
H	-1.624448	-2.612591	-1.635176	1
H	0.034202	-2.117811	-2.008206	1
H	-1.332698	-1.022831	-2.343556	1
H	-0.517838	-1.957351	0.336624	1
H	1.042792	-0.185851	-0.798986	1
H	-1.787758	1.201699	-0.557586	1
H	-0.466928	1.655329	-1.658416	1
H	0.870412	2.345229	0.192454	1
H	-0.723358	0.345299	1.760364	1
H	2.304132	0.708309	1.242004	1
H	1.579372	-0.589461	2.201313	1
H	1.450492	1.086669	2.749554	1
Es	-0.697022	1.235097	-0.674263	99
Es	-0.209271	2.169448	0.641875	99
Es	1.445695	0.881174	2.463796	99
Es	-1.138519	-1.102549	-0.183699	99
Es	1.532280	-0.264146	2.090498	99
Es	0.533503	2.133706	0.280998	99
Es	-0.311757	1.675143	-0.066901	99
Es	0.071797	-0.054472	-0.306942	99
Es	-0.607041	-1.667304	0.074776	99
Es	2.026138	0.627012	1.430211	99
Es	-0.397522	-0.751120	-0.316308	99
Es	-0.537509	1.529056	-1.354758	99
Es	-0.934509	-1.762485	-1.640655	99
Es	-0.016096	1.918352	0.460641	99
Es	1.441811	0.443196	1.863693	99
Es	-1.199890	-1.250227	-2.117498	99
Es	-1.402878	-2.346830	-1.638488	99
Es	-0.451337	0.415691	1.544870	99
Es	-1.434354	1.201524	-0.587919	99
Es	-0.260717	-2.004538	-1.899656	99
Es	0.131990	0.580860	1.110427	99
Es	-0.825460	-1.217683	-0.293639	99
Es	-0.336336	0.544324	-0.586310	99
Es	-0.850658	-1.464250	-0.886834	99
Es	0.799085	0.507825	1.494299	99
Es	0.141028	0.176263	0.433385	99
Es	0.741023	-0.141864	-0.646938	99
Es	0.082063	1.366903	0.782679	99
47
Properties=species:S:1:pos:R:3:Z:I:1 energy=-305.26295250452876 field_type=dipole dipole="0.000000 0.000000 0.000000" charge=0
C	-0.934518	-1.762531	-1.640766	6
N	-0.825988	-1.217471	-0.293426	7
C	0.071903	-0.054381	-0.306956	6
C	-0.697128	1.235039	-0.674366	6
N	-0.016407	1.918769	0.460944	7
C	0.131943	0.580729	1.110494	6
C	1.441813	0.443209	1.863694	6
H	-1.624448	-2.612591	-1.635176	1
H	0.034202	-2.117811	-2.008206	1
H	-1.332698	-1.022831	-2.343556	1
H	-0.517838	-1.957351	0.336624	1
H	1.042792	-0.185851	-0.798986	1
H	-1.787758	1.201699	-0.557586	1
H	-0.466928	1.655329	-1.658416	1
H	0.870412	2.345229	0.192454	1
H	-0.723358	0.345299	1.760364	1
H	2.304132	0.708309	1.242004	1
H	1.579372	-0.589461	2.201313	1
H	1.450492	1.086669	2.749554	1
Es	-1.434390	1.201257	-0.587528	99
Es	-0.697020	1.235098	-0.674261	99
Es	-0.207213	2.165243	0.638258	99
Es	-1.199712	-1.249977	-2.117508	99
Es	0.080577	1.367006	0.785326	99
Es	0.740972	-0.141779	-0.647114	99
Es	-0.934508	-1.762485	-1.640655	99
Es	-0.397195	-0.750695	-0.316479	99
Es	0.071801	-0.054475	-0.306942	99
Es	-0.016074	1.918346	0.460631	99
Es	-0.825473	-1.217674	-0.293635	99
Es	2.026997	0.627396	1.429835	99
Es	1.441812	0.443197	1.863694	99
Es	-0.537225	1.529143	-1.355417	99
Es	-0.260930	-2.004163	-1.899441	99
Es	-1.136513	-1.102428	-0.185480	99
Es	-0.851289	-1.464370	-0.886678	99
Es	-0.451600	0.415374	1.545136	99
Es	-0.313289	1.675492	-0.066642	99
Es	0.799086	0.507912	1.494392	99
Es	1.445350	0.880520	2.463210	99
Es	1.531839	-0.263998	2.090992	99
Es	0.141247	0.176641	0.433582	99
Es	-0.336464	0.544778	-0.585828	99
Es	-0.608752	-1.667917	0.076461	99
Es	-1.402951	-2.347331	-1.638528	99
Es	0.534466	2.137129	0.281538	99
Es	0.131989	0.580865	1.110423	99
47
Properties=species:S:1:pos:R:3:Z:I:1 energy=-305.26295250452876 field_type=dipole dipole="0.000000 0.000000 0.000000" charge=0
C	-0.934518	-1.762531	-1.640766	6
N	-0.825988	-1.217471	-0.293426	7
C	0.071903	-0.054381	-0.306956	6
C	-0.697128	1.235039	-0.674366	6
N	-0.016407	1.918769	0.460944	7
C	0.131943	0.580729	1.110494	6
C	1.441813	0.443209	1.863694	6
H	-1.624448	-2.612591	-1.635176	1
H	0.034202	-2.117811	-2.008206	1
H	-1.332698	-1.022831	-2.343556	1
H	-0.517838	-1.957351	0.336624	1
H	1.042792	-0.185851	-0.798986	1
H	-1.787758	1.201699	-0.557586	1
H	-0.466928	1.655329	-1.658416	1
H	0.870412	2.345229	0.192454	1
H	-0.723358	0.345299	1.760364	1
H	2.304132	0.708309	1.242004	1
H	1.579372	-0.589461	2.201313	1
H	1.450492	1.086669	2.749554	1
Es	0.798951	0.507814	1.494387	99
Es	-0.336592	0.545005	-0.585621	99
Es	-1.434307	1.201091	-0.587202	99
Es	-0.396781	-0.750773	-0.316631	99
Es	-0.825424	-1.217698	-0.293643	99
Es	0.141325	0.177040	0.433716	99
Es	1.445102	0.880194	2.462673	99
Es	-0.851428	-1.464323	-0.886460	99
Es	0.534923	2.138358	0.281781	99
Es	-0.314087	1.675758	-0.066513	99
Es	0.079899	1.366928	0.786399	99
Es	-1.199572	-1.249774	-2.117520	99
Es	-0.610172	-1.668484	0.077773	99
Es	-1.403054	-2.347586	-1.638505	99
Es	-0.261049	-2.004020	-1.899286	99
Es	0.071801	-0.054473	-0.306941	99
Es	-0.697022	1.235096	-0.674265	99
Es	1.531827	-0.263957	2.091445	99
Es	-1.135410	-1.101916	-0.186929	99
Es	-0.016081	1.918353	0.460634	99
Es	-0.452002	0.415219	1.545390	99
Es	2.027354	0.627764	1.429614	99
Es	-0.205950	2.163448	0.636650	99
Es	-0.537079	1.529239	-1.355943	99
Es	1.441811	0.443199	1.863696	99
Es	0.131991	0.580863	1.110424	99
Es	0.741069	-0.141775	-0.647130	99
Es	-0.934506	-1.762484	-1.640654	99
47
Properties=species:S:1:pos:R:3:Z:I:1 energy=-305.26295250452876 field_type=dipole dipole="0.000000 0.000000 0.000000" charge=0
C	-0.934518	-1.762531	-1.640766	6
N	-0.825988	-1.217471	-0.293426	7
C	0.071903	-0.054381	-0.306956	6
C	-0.697128	1.235039	-0.674366	6
N	-0.016407	1.918769	0.460944	7
C	0.131943	0.580729	1.110494	6
C	1.441813	0.443209	1.863694	6
H	-1.624448	-2.612591	-1.635176	1
H	0.034202	-2.117811	-2.008206	1
H	-1.332698	-1.022831	-2.343556	1
H	-0.517838	-1.957351	0.336624	1
H	1.042792	-0.185851	-0.798986	1
H	-1.787758	1.201699	-0.557586	1
H	-0.466928	1.655329	-1.658416	1
H	0.870412	2.345229	0.192454	1
H	-0.723358	0.345299	1.760364	1
H	2.304132	0.708309	1.242004	1
H	1.579372	-0.589461	2.201313	1
H	1.450492	1.086669	2.749554	1
Es	0.131991	0.580859	1.110422	99
Es	1.444891	0.879771	2.462484	99
Es	1.531592	-0.263865	2.091543	99
Es	-0.261188	-2.003920	-1.899175	99
Es	-0.934508	-1.762485	-1.640656	99
Es	-0.697023	1.235096	-0.674263	99
Es	1.441811	0.443196	1.863694	99
Es	-1.199494	-1.249642	-2.117579	99
Es	-1.434324	1.200837	-0.587015	99
Es	0.071802	-0.054475	-0.306939	99
Es	-1.403056	-2.347749	-1.638514	99
Es	-0.825491	-1.217683	-0.293631	99
Es	-0.314845	1.675881	-0.066186	99
Es	2.027811	0.628010	1.429535	99
Es	-0.204812	2.162190	0.635243	99
Es	-0.336627	0.545315	-0.585465	99
Es	0.535192	2.139158	0.281737	99
Es	0.798999	0.507893	1.494298	99
Es	-1.134199	-1.101422	-0.187215	99
Es	-0.396337	-0.751088	-0.316875	99
Es	-0.536877	1.529410	-1.356272	99
Es	0.141441	0.177311	0.433912	99
Es	-0.610956	-1.668674	0.078383	99
Es	0.741037	-0.141758	-0.647257	99
Es	0.079162	1.366977	0.787484	99
Es	-0.016074	1.918353	0.460634	99
Es	-0.452141	0.415006	1.545558	99
Es	-0.852237	-1.464394	-0.886545	99
47
Properties=species:S:1:pos:R:3:Z:I:1 energy=-305.26295250452876 field_type=dipole dipole="0.000000 0.000000 0.000000" charge=0
C	-0.934518	-1.762531	-1.640766	6
N	-0.825988	-1.217471	-0.293426	7
C	0.071903	-0.054381	-0.306956	6
C	-0.697128	1.235039	-0.674366	6
N	-0.016407	1.918769	0.460944	7
C	0.131943	0.580729	1.110494	6
C	1.441813	0.443209	1.863694	6
H	-1.624448	-2.612591	-1.635176	1
H	0.034202	-2.117811	-2.008206	1
H	-1.332698	-1.022831	-2.343556	1
H	-0.517838	-1.957351	0.336624	1
H	1.042792	-0.185851	-0.798986	1
H	-1.787758	1.201699	-0.557586	1
H	-0.466928	1.655329	-1.658416	1
H	0.870412	2.345229	0.192454	1
H	-0.723358	0.345299	1.760364	1
H	2.304132	0.708309	1.242004	1
H	1.579372	-0.589461	2.201313	1
H	1.450492	1.086669	2.749554	1
Es	-0.315372	1.675839	-0.066033	99
Es	-1.134071	-1.101309	-0.187837	99
Es	0.740999	-0.141671	-0.647376	99
Es	-0.261255	-2.003842	-1.899065	99
Es	0.131991	0.580861	1.110422	99
Es	-0.852085	-1.464456	-0.886323	99
Es	-1.199357	-1.249551	-2.117584	99
Es	2.028047	0.628316	1.429402	99
Es	-0.611531	-1.668799	0.078820	99
Es	-0.934508	-1.762485	-1.640656	99
Es	1.444656	0.879537	2.462167	99
Es	-0.825419	-1.217707	-0.293639	99
Es	0.141617	0.177530	0.434129	99
Es	-0.452326	0.414864	1.545621	99
Es	-1.434340	1.200733	-0.586805	99
Es	-0.536701	1.529446	-1.356590	99
Es	1.531461	-0.263981	2.091758	99
Es	1.441811	0.443197	1.863694	99
Es	0.078552	1.367113	0.788485	99
Es	-1.403131	-2.347880	-1.638560	99
Es	-0.016062	1.918356	0.460630	99
Es	0.071803	-0.054475	-0.306944	99
Es	-0.203899	2.161126	0.633933	99
Es	-0.396108	-0.751059	-0.316956	99
Es	0.535388	2.139847	0.281706	99
Es	0.799118	0.508017	1.494456	99
Es	-0.697020	1.235099	-0.674266	99
Es	-0.336719	0.545439	-0.585251	99
47
Properties=species:S:1:pos:R:3:Z:I:1 energy=-305.26295250452876 field_type=dipole dipole="0.000000 0.000000 0.000000" charge=0
C	-0.934518	-1.762531	-1.640766	6
N	-0.825988	-1.217471	-0.293426	7
C	0.071903	-0.054381	-0.306956	6
C	-0.697128	1.235039	-0.674366	6
N	-0.016407	1.918769	0.460944	7
C	0.131943	0.580729	1.110494	6
C	1.441813	0.443209	1.863694	6
H	-1.624448	-2.612591	-1.635176	1
H	0.034202	-2.117811	-2.008206	1
H	-1.332698	-1.022831	-2.343556	1
H	-0.517838	-1.957351	0.336624	1
H	1.042792	-0.185851	-0.798986	1
H	-1.787758	1.201699	-0.557586	1
H	-0.466928	1.655329	-1.658416	1
H	0.870412	2.345229	0.192454	1
H	-0.723358	0.345299	1.760364	1
H	2.304132	0.708309	1.242004	1
H	1.579372	-0.589461	2.201313	1
H	1.450492	1.086669	2.749554	1
Es	-1.133580	-1.101027	-0.188586	99
Es	-0.203164	2.160774	0.632952	99
Es	-1.403125	-2.347967	-1.638529	99
Es	0.131990	0.580858	1.110422	99
Es	-0.934508	-1.762485	-1.640656	99
Es	-0.536619	1.529460	-1.356771	99
Es	0.798941	0.507877	1.494405	99
Es	0.741050	-0.141701	-0.647349	99
Es	0.535659	2.139893	0.281594	99
Es	2.028281	0.628323	1.429304	99
Es	-0.697024	1.235094	-0.674261	99
Es	0.141579	0.177736	0.434105	99
Es	-0.261303	-2.003786	-1.899040	99
Es	-0.336844	0.545595	-0.585197	99
Es	-0.395939	-0.751207	-0.316795	99
Es	-0.851881	-1.464536	-0.886373	99
Es	-0.016077	1.918321	0.460602	99
Es	1.441812	0.443197	1.863694	99
Es	-0.452444	0.414774	1.545700	99
Es	-1.199362	-1.249460	-2.117585	99
Es	-1.434279	1.200661	-0.586757	99
Es	-0.315635	1.675867	-0.065792	99
Es	-0.825394	-1.217708	-0.293659	99
Es	0.071802	-0.054475	-0.306942	99
Es	-0.612381	-1.668918	0.079514	99
Es	1.531397	-0.263735	2.091865	99
Es	0.077895	1.367366	0.789427	99
Es	1.444690	0.879312	2.462046	99
47
Properties=species:S:1:pos:R:3:Z:I:1 energy=-305.26295250452876 field_type=dipole dipole="0.000000 0.000000 0.000000" charge=0
C	-0.934518	-1.762531	-1.640766	6
N	-0.825988	-1.217471	-0.293426	7
C	0.071903	-0.054381	-0.306956	6
C	-0.697128	1.235039	-0.674366	6
N	-0.016407	1.918769	0.460944	7
C	0.131943	0.580729	1.110494	6
C	1.441813	0.443209	1.863694	6
H	-1.624448	-2.612591	-1.635176	1
H	0.034202	-2.117811	-2.008206	1
H	-1.332698	-1.022831	-2.343556	1
H	-0.517838	-1.957351	0.336624	1
H	1.042792	-0.185851	-0.798986	1
H	-1.787758	1.201699	-0.557586	1
H	-0.466928	1.655329	-1.658416	1
H	0.870412	2.345229	0.192454	1
H	-0.723358	0.345299	1.760364	1
H	2.304132	0.708309	1.242004	1
H	1.579372	-0.589461	2.201313	1
H	1.450492	1.086669	2.749554	1
Es	-1.199327	-1.249412	-2.117567	99
Es	-0.934508	-1.762485	-1.640655	99
Es	-0.825512	-1.217658	-0.293632	99
Es	1.444558	0.879143	2.461948	99
Es	0.798967	0.507984	1.494349	99
Es	2.028448	0.628476	1.429257	99
Es	-0.261332	-2.003773	-1.899031	99
Es	-0.203293	2.159207	0.632402	99
Es	-0.336897	0.545753	-0.585062	99
Es	-0.315584	1.675850	-0.065874	99
Es	0.131990	0.580858	1.110425	99
Es	0.535594	2.141501	0.282104	99
Es	0.741123	-0.141734	-0.647471	99
Es	0.071802	-0.054476	-0.306944	99
Es	-0.697022	1.235097	-0.674266	99
Es	0.078047	1.367080	0.789345	99
Es	0.141624	0.177833	0.434235	99
Es	-1.132911	-1.101045	-0.189099	99
Es	-0.536522	1.529479	-1.356980	99
Es	1.441812	0.443197	1.863694	99
Es	-0.452566	0.414691	1.545860	99
Es	-1.403153	-2.347984	-1.638556	99
Es	-1.434310	1.200512	-0.586580	99
Es	-0.016086	1.918364	0.460643	99
Es	-0.851950	-1.464572	-0.886393	99
Es	-0.396035	-0.751028	-0.316800	99
Es	-0.612747	-1.669038	0.080072	99
Es	1.531328	-0.263714	2.091916	99
47
Properties=species:S:1:pos:R:3:Z:I:1 energy=-305.26295250452876 field_type=dipole dipole="0.000000 0.000000 0.000000" charge=0
C	-0.934518	-1.762531	-1.640766	6
N	-0.825988	-1.217471	-0.293426	7
C	0.071903	-0.054381	-0.306956	6
C	-0.697128	1.235039	-0.674366	6
N	-0.016407	1.918769	0.460944	7
C	0.131943	0.580729	1.110494	6
C	1.441813	0.443209	1.863694	6
H	-1.624448	-2.612591	-1.635176	1
H	0.034202	-2.117811	-2.008206	1
H	-1.332698	-1.022831	-2.343556	1
H	-0.517838	-1.957351	0.336624	1
H	1.042792	-0.185851	-0.798986	1
H	-1.787758	1.201699	-0.557586	1
H	-0.466928	1.655329	-1.658416	1
H	0.870412	2.345229	0.192454	1
H	-0.723358	0.345299	1.760364	1
H	2.304132	0.708309	1.242004	1
H	1.579372	-0.589461	2.201313	1
H	1.450492	1.086669	2.749554	1
Es	-0.395642	-0.751380	-0.316928	99
Es	-0.452665	0.414619	1.545899	99
Es	1.441812	0.443197	1.863694	99
Es	-0.613394	-1.669108	0.080391	99
Es	-0.316258	1.676018	-0.065666	99
Es	-0.851962	-1.464614	-0.886287	99
Es	-1.199312	-1.249352	-2.117663	99
Es	1.531268	-0.263642	2.092076	99
Es	0.741024	-0.141707	-0.647541	99
Es	-0.697025	1.235097	-0.674268	99
Es	0.131990	0.580860	1.110423	99
Es	-0.016102	1.918372	0.460641	99
Es	-0.934508	-1.762486	-1.640656	99
Es	1.444467	0.879046	2.461772	99
Es	-1.403107	-2.348019	-1.638529	99
Es	0.141679	0.178036	0.434472	99
Es	-0.536438	1.529550	-1.357099	99
Es	-0.825397	-1.217721	-0.293662	99
Es	0.071805	-0.054475	-0.306940	99
Es	0.798957	0.507833	1.494341	99
Es	-0.336917	0.545804	-0.585068	99
Es	-0.261376	-2.003782	-1.898926	99
Es	-1.132803	-1.100548	-0.189427	99
Es	0.535804	2.140959	0.281752	99
Es	-1.434299	1.200451	-0.586499	99
Es	2.028613	0.628559	1.429164	99
Es	-0.202200	2.159224	0.631819	99
Es	0.077524	1.367318	0.790053	99
47
Properties=species:S:1:pos:R:3:Z:I:1 energy=-305.26295250452876 field_type=dipole dipole="0.000000 0.000000 0.000000" charge=0
C	-0.934518	-1.762531	-1.640766	6
N	-0.825988	-1.217471	-0.293426	7
C	0.071903	-0.054381	-0.306956	6
C	-0.697128	1.235039	-0.674366	6
N	-0.016407	1.918769	0.460944	7
C	0.131943	0.580729	1.110494	6
C	1.441813	0.443209	1.863694	6
H	-1.624448	-2.612591	-1.635176	1
H	0.034202	-2.117811	-2.008206	1
H	-1.332698	-1.022831	-2.343556	1
H	-0.517838	-1.957351	0.336624	1
H	1.042792	-0.185851	-0.798986	1
H	-1.787758	1.201699	-0.557586	1
H	-0.466928	1.655329	-1.658416	1
H	0.870412	2.345229	0.192454	1
H	-0.723358	0.345299	1.760364	1
H	2.304132	0.708309	1.242004	1
H	1.579372	-0.589461	2.201313	1
H	1.450492	1.086669	2.749554	1
Es	-0.851966	-1.464691	-0.886322	99
Es	0.077268	1.367342	0.790549	99
Es	0.798881	0.507954	1.494378	99
Es	1.441811	0.443196	1.863694	99
Es	-1.199338	-1.249368	-2.117640	99
Es	-0.261371	-2.003721	-1.898943	99
Es	-0.395642	-0.751366	-0.316919	99
Es	0.535820	2.141071	0.281688	99
Es	-0.316577	1.676188	-0.065561	99
Es	-1.132440	-1.100506	-0.189775	99
Es	-0.336996	0.545931	-0.584873	99
Es	0.131990	0.580861	1.110423	99
Es	-0.697022	1.235097	-0.674266	99
Es	-0.934508	-1.762485	-1.640657	99
Es	0.741126	-0.141674	-0.647593	99
Es	2.028782	0.628589	1.429055	99
Es	-1.434243	1.200345	-0.586430	99
Es	-0.452703	0.414555	1.546016	99
Es	-1.403093	-2.348064	-1.638528	99
Es	-0.201704	2.158923	0.631328	99
Es	1.444468	0.878882	2.461644	99
Es	-0.825443	-1.217695	-0.293650	99
Es	-0.536398	1.529541	-1.357273	99
Es	0.071802	-0.054475	-0.306943	99
Es	0.141693	0.178045	0.434382	99
Es	-0.016061	1.918327	0.460615	99
Es	-0.613714	-1.669103	0.080784	99
Es	1.531115	-0.263593	2.092158	99
47
Properties=species:S:1:pos:R:3:Z:I:1 energy=-305.26295250452876 field_type=dipole dipole="0.000000 0.000000 0.000000" charge=0
C	-0.934518	-1.762531	-1.640766	6
N	-0.825988	-1.217471	-0.293426	7
C	0.071903	-0.054381	-0.306956	6
C	-0.697128	1.235039	-0.674366	6
N	-0.016407	1.918769	0.460944	7
C	0.131943	0.580729	1.110494	6
C	1.441813	0.443209	1.863694	6
H	-1.624448	-2.612591	-1.635176	1
H	0.034202	-2.117811	-2.008206	1
H	-1.332698	-1.022831	-2.343556	1
H	-0.517838	-1.957351	0.336624	1
H	1.042792	-0.185851	-0.798986	1
H	-1.787758	1.201699	-0.557586	1
H	-0.466928	1.655329	-1.658416	1
H	0.870412	2.345229	0.192454	1
H	-0.723358	0.345299	1.760364	1
H	2.304132	0.708309	1.242004	1
H	1.579372	-0.589461	2.201313	1
H	1.450492	1.086669	2.749554	1
Es	-0.316640	1.676066	-0.065396	99
Es	0.535960	2.141507	0.281628	99
Es	-0.016134	1.918395	0.460670	99
Es	-0.395705	-0.751441	-0.316898	99
Es	-0.614033	-1.669123	0.081135	99
Es	1.444379	0.878855	2.461579	99
Es	-0.452754	0.414557	1.546037	99
Es	1.441812	0.443196	1.863694	99
Es	-1.131988	-1.100373	-0.189993	99
Es	-0.536296	1.529553	-1.357331	99
Es	0.131990	0.580859	1.110423	99
Es	0.141671	0.178034	0.434347	99
Es	-1.434279	1.200382	-0.586394	99
Es	2.028839	0.628652	1.429058	99
Es	-0.261274	-2.003707	-1.898962	99
Es	-0.825417	-1.217705	-0.293662	99
Es	-1.199378	-1.249397	-2.117598	99
Es	-0.934508	-1.762485	-1.640656	99
Es	0.798839	0.507935	1.494372	99
Es	-0.201325	2.158280	0.630433	99
Es	0.071802	-0.054474	-0.306942	99
Es	1.531132	-0.263569	2.092223	99
Es	0.076884	1.367495	0.791216	99
Es	-0.697022	1.235096	-0.674265	99
Es	-1.403059	-2.348024	-1.638580	99
Es	-0.336997	0.545923	-0.584723	99
Es	0.741225	-0.141667	-0.647616	99
Es	-0.852186	-1.464715	-0.886458	99
47
Properties=species:S:1:pos:R:3:Z:I:1 energy=-305.26295250452876 field_type=dipole dipole="0.000000 0.000000 0.000000" charge=0
C	-0.934518	-1.762531	-1.640766	6
N	-0.825988	-1.217471	-0.293426	7
C	0.071903	-0.054381	-0.306956	6
C	-0.697128	1.235039	-0.674366	6
N	-0.016407	1.918769	0.460944	7
C	0.131943	0.580729	1.110494	6
C	1.441813	0.443209	1.863694	6
H	-1.624448	-2.612591	-1.635176	1
H	0.034202	-2.117811	-2.008206	1
H	-1.332698	-1.022831	-2.343556	1
H	-0.517838	-1.957351	0.336624	1
H	1.042792	-0.185851	-0.798986	1
H	-1.787758	1.201699	-0.557586	1
H	-0.466928	1.655329	-1.658416	1
H	0.870412	2.345229	0.192454	1
H	-0.723358	0.345299	1.760364	1
H	2.304132	0.708309	1.242004	1
H	1.579372	-0.589461	2.201313	1
H	1.450492	1.086669	2.749554	1
Es	0.076730	1.367579	0.791397	99
Es	-0.452822	0.414518	1.546078	99
Es	-0.261286	-2.003784	-1.898968	99
Es	-0.201530	2.158354	0.630196	99
Es	-1.403081	-2.347966	-1.638530	99
Es	-0.825413	-1.217704	-0.293638	99
Es	-0.016067	1.918345	0.460625	99
Es	0.798914	0.507934	1.494414	99
Es	-0.395647	-0.751454	-0.316920	99
Es	0.535976	2.141546	0.281751	99
Es	0.071803	-0.054478	-0.306944	99
Es	2.028990	0.628728	1.428993	99
Es	-0.934508	-1.762485	-1.640656	99
Es	-0.536236	1.529578	-1.357411	99
Es	1.444297	0.878724	2.461538	99
Es	0.131990	0.580859	1.110423	99
Es	-0.697022	1.235096	-0.674266	99
Es	-0.316333	1.675753	-0.065505	99
Es	-1.131777	-1.100358	-0.190460	99
Es	-1.199388	-1.249336	-2.117610	99
Es	-0.337039	0.546046	-0.584699	99
Es	-0.852085	-1.464635	-0.886303	99
Es	0.141805	0.178130	0.434445	99
Es	1.531044	-0.263489	2.092239	99
Es	-0.614375	-1.669318	0.081433	99
Es	1.441812	0.443197	1.863694	99
Es	0.741102	-0.141600	-0.647682	99
Es	-1.434317	1.200326	-0.586294	99
47
Properties=species:S:1:pos:R:3:Z:I:1 energy=-305.26295250452876 field_type=dipole dipole="0.000000 0.000000 0.000000" charge=0
C	-0.934518	-1.762531	-1.640766	6
N	-0.825988	-1.217471	-0.293426	7
C	0.071903	-0.054381	-0.306956	6
C	-0.697128	1.235039	-0.674366	6
N	-0.016407	1.918769	0.460944	7
C	0.131943	0.580729	1.110494	6
C	1.441813	0.443209	1.863694	6
H	-1.624448	-2.612591	-1.635176	1
H	0.034202	-2.117811	-2.008206	1
H	-1.332698	-1.022831	-2.343556	1
H	-0.517838	-1.957351	0.336624	1
H	1.042792	-0.185851	-0.798986	1
H	-1.787758	1.201699	-0.557586	1
H	-0.466928	1.655329	-1.658416	1
H	0.870412	2.345229	0.192454	1
H	-0.723358	0.345299	1.760364	1
H	2.304132	0.708309	1.242004	1
H	1.579372	-0.589461	2.201313	1
H	1.450492	1.086669	2.749554	1
Es	2.029052	0.628759	1.429003	99
Es	0.536045	2.141554	0.281681	99
Es	-0.934508	-1.762485	-1.640657	99
Es	-0.316792	1.676079	-0.065432	99
Es	-0.200866	2.158018	0.629851	99
Es	-1.131885	-1.100001	-0.190264	99
Es	0.141815	0.178218	0.434464	99
Es	0.741135	-0.141640	-0.647802	99
Es	-0.536219	1.529561	-1.357512	99
Es	1.441810	0.443196	1.863693	99
Es	-0.395390	-0.751696	-0.317048	99
Es	-0.697022	1.235096	-0.674267	99
Es	-1.403086	-2.348128	-1.638579	99
Es	0.076434	1.367594	0.791798	99
Es	0.131990	0.580860	1.110421	99
Es	1.530955	-0.263562	2.092279	99
Es	-0.825401	-1.217714	-0.293641	99
Es	0.798988	0.507990	1.494361	99
Es	-0.452844	0.414455	1.546111	99
Es	-0.852181	-1.464681	-0.886240	99
Es	1.444244	0.878687	2.461468	99
Es	-1.434282	1.200260	-0.586248	99
Es	0.071801	-0.054466	-0.306938	99
Es	-1.199298	-1.249308	-2.117641	99
Es	-0.337140	0.546061	-0.584627	99
Es	-0.614336	-1.669278	0.081399	99
Es	-0.016057	1.918337	0.460616	99
Es	-0.261421	-2.003662	-1.898909	99
47
Properties=species:S:1:pos:R:3:Z:I:1 energy=-305.26295250452876 field_type=dipole dipole="0.000000 0.000000 0.000000" charge=0
C	-0.934518	-1.762531	-1.640766	6
N	-0.825988	-1.217471	-0.293426	7
C	0.071903	-0.054381	-0.306956	6
C	-0.697128	1.235039	-0.674366	6
N	-0.016407	1.918769	0.460944	7
C	0.131943	0.580729	1.110494	6
C	1.441813	0.443209	1.863694	6
H	-1.624448	-2.612591	-1.635176	1
H	0.034202	-2.117811	-2.008206	1
H	-1.332698	-1.022831	-2.343556	1
H	-0.517838	-1.957351	0.336624	1
H	1.042792	-0.185851	-0.798986	1
H	-1.787758	1.201699	-0.557586	1
H	-0.466928	1.655329	-1.658416	1
H	0.870412	2.345229	0.192454	1
H	-0.723358	0.345299	1.760364	1
H	2.304132	0.708309	1.242004	1
H	1.579372	-0.589461	2.201313	1
H	1.450492	1.086669	2.749554	1
Es	-0.200761	2.157726	0.629520	99
Es	0.076321	1.367784	0.792012	99
Es	0.798995	0.507985	1.494395	99
Es	-1.403083	-2.348098	-1.638657	99
Es	1.531005	-0.263511	2.092334	99
Es	-0.536194	1.529593	-1.357535	99
Es	2.029046	0.628819	1.428899	99
Es	-1.199279	-1.249298	-2.117611	99
Es	-0.697022	1.235096	-0.674266	99
Es	-0.016057	1.918343	0.460622	99
Es	-0.316899	1.675814	-0.065208	99
Es	-0.452842	0.414419	1.546199	99
Es	0.131990	0.580860	1.110424	99
Es	-0.852209	-1.464747	-0.886132	99
Es	-0.825442	-1.217701	-0.293655	99
Es	-0.395223	-0.751662	-0.317105	99
Es	-0.261382	-2.003653	-1.898895	99
Es	-0.337189	0.546146	-0.584684	99
Es	0.141844	0.178137	0.434517	99
Es	1.444186	0.878699	2.461434	99
Es	-0.934508	-1.762485	-1.640657	99
Es	-0.614797	-1.669343	0.081748	99
Es	-1.434305	1.200244	-0.586210	99
Es	0.741148	-0.141633	-0.647756	99
Es	0.071802	-0.054474	-0.306941	99
Es	0.536127	2.141795	0.281501	99
Es	1.441812	0.443197	1.863694	99
Es	-1.131544	-1.099946	-0.190649	99
47
Properties=species:S:1:pos:R:3:Z:I:1 energy=-305.26295250452876 field_type=dipole dipole="0.000000 0.000000 0.000000" charge=0
C	-0.934518	-1.762531	-1.640766	6
N	-0.825988	-1.217471	-0.293426	7
C	0.071903	-0.054381	-0.306956	6
C	-0.697128	1.235039	-0.674366	6
N	-0.016407	1.918769	0.460944	7
C	0.131943	0.580729	1.110494	6
C	1.441813	0.443209	1.863694	6
H	-1.624448	-2.612591	-1.635176	1
H	0.034202	-2.117811	-2.008206	1
H	-1.332698	-1.022831	-2.343556	1
H	-0.517838	-1.957351	0.336624	1
H	1.042792	-0.185851	-0.798986	1
H	-1.787758	1.201699	-0.557586	1
H	-0.466928	1.655329	-1.658416	1
H	0.870412	2.345229	0.192454	1
H	-0.723358	0.345299	1.760364	1
H	2.304132	0.708309	1.242004	1
H	1.579372	-0.589461	2.201313	1
H	1.450492	1.086669	2.749554	1
Es	1.530977	-0.263365	2.092454	99
Es	0.536250	2.141192	0.281122	99
Es	2.029234	0.628822	1.428965	99
Es	-0.395179	-0.751974	-0.317205	99
Es	-0.852267	-1.464788	-0.886362	99
Es	0.740986	-0.141596	-0.647827	99
Es	-0.452895	0.414400	1.546183	99
Es	0.071806	-0.054474	-0.306943	99
Es	1.444145	0.878574	2.461300	99
Es	0.798843	0.507854	1.494306	99
Es	-0.536182	1.529685	-1.357613	99
Es	-1.403117	-2.348178	-1.638550	99
Es	-0.316938	1.676067	-0.064832	99
Es	-0.200556	2.158205	0.629575	99
Es	-0.614905	-1.669213	0.081870	99
Es	-1.131439	-1.099716	-0.190610	99
Es	-1.434236	1.200174	-0.586176	99
Es	1.441812	0.443196	1.863694	99
Es	-0.016045	1.918336	0.460612	99
Es	0.076102	1.367626	0.792018	99
Es	-0.934509	-1.762486	-1.640659	99
Es	-0.337157	0.546176	-0.584702	99
Es	-0.697023	1.235095	-0.674264	99
Es	-0.261399	-2.003638	-1.898842	99
Es	0.141958	0.178261	0.434698	99
Es	-1.199258	-1.249318	-2.117662	99
Es	0.131994	0.580861	1.110422	99
Es	-0.825464	-1.217672	-0.293633	99
