48
Properties=species:S:1:pos:R:3:Z:I:1 energy=-289.28010737233683 field_type=dipole dipole="0.000000 0.000000 0.000000" charge=0
C	-2.944369	0.710367	-0.694137	6
N	-1.503119	0.669577	-0.900067	7
C	-0.882309	-0.355123	-0.058877	6
C	0.619211	-0.392903	-0.311677	6
C	1.471131	0.774737	0.261472	6
C	2.560991	-0.269953	0.573732	6
C	1.437091	-1.324523	0.622512	6
H	-3.384609	1.473207	-1.343507	1
H	-3.194789	0.964927	0.342253	1
H	-3.409349	-0.247513	-0.948967	1
H	-1.109459	1.581397	-0.668767	1
H	-1.306639	-1.337183	-0.299257	1
H	-1.085679	-0.152593	0.999693	1
H	0.845841	-0.589693	-1.370788	1
H	1.049321	1.248817	1.155652	1
H	1.752961	1.551797	-0.453737	1
H	3.273901	-0.422513	-0.244477	1
H	3.112471	-0.118683	1.504852	1
H	1.690551	-2.305013	0.211423	1
H	1.006851	-1.459133	1.622672	1
Es	0.969829	-0.928743	0.148436	99
Es	1.138146	-1.403166	1.306123	99
Es	2.945590	-0.165682	1.214118	99
Es	-1.248276	0.237487	-0.509121	99
Es	0.779842	-0.526166	-1.030086	99
Es	1.437103	-1.324474	0.622495	99
Es	2.560928	-0.269950	0.573722	99
Es	-2.944246	0.710366	-0.694152	99
Es	1.175730	1.087451	0.877097	99
Es	-1.272827	1.219915	-0.732529	99
Es	2.076077	0.323144	0.433397	99
Es	-1.433437	0.597034	-1.239301	99
Es	-1.019245	-0.215530	0.681613	99
Es	-3.256957	0.052101	-0.863076	99
Es	1.662249	1.315839	-0.228131	99
Es	-1.178827	-1.028206	-0.224023	99
Es	-3.119778	0.882496	0.027328	99
Es	1.608819	-2.004079	0.342645	99
Es	-1.503250	0.669687	-0.899480	99
Es	0.619236	-0.392894	-0.311610	99
Es	3.038887	-0.374897	0.007395	99
Es	-0.137295	-0.369652	-0.184337	99
Es	0.984583	0.260575	-0.058630	99
Es	1.471138	0.774687	0.261471	99
Es	-0.882355	-0.355029	-0.058963	99
Es	2.058413	-0.859273	0.636940	99
Es	-3.246337	1.235275	-1.134174	99
Es	-2.132071	0.690993	-0.781405	99
48
Properties=species:S:1:pos:R:3:Z:I:1 energy=-289.28010737233683 field_type=dipole dipole="0.000000 0.000000 0.000000" charge=0
C	-2.944369	0.710367	-0.694137	6
N	-1.503119	0.669577	-0.900067	7
C	-0.882309	-0.355123	-0.058877	6
C	0.619211	-0.392903	-0.311677	6
C	1.471131	0.774737	0.261472	6
C	2.560991	-0.269953	0.573732	6
C	1.437091	-1.324523	0.622512	6
H	-3.384609	1.473207	-1.343507	1
H	-3.194789	0.964927	0.342253	1
H	-3.409349	-0.247513	-0.948967	1
H	-1.109459	1.581397	-0.668767	1
H	-1.306639	-1.337183	-0.299257	1
H	-1.085679	-0.152593	0.999693	1
H	0.845841	-0.589693	-1.370788	1
H	1.049321	1.248817	1.155652	1
H	1.752961	1.551797	-0.453737	1
H	3.273901	-0.422513	-0.244477	1
H	3.112471	-0.118683	1.504852	1
H	1.690551	-2.305013	0.211423	1
H	1.006851	-1.459133	1.622672	1
Es	-3.119614	0.882675	0.027254	99
Es	2.075566	0.323105	0.433447	99
Es	0.619237	-0.392892	-0.311610	99
Es	1.608865	-2.004133	0.342471	99
Es	3.038957	-0.374796	0.007237	99
Es	-0.137296	-0.369568	-0.184419	99
Es	-1.248599	0.237861	-0.508785	99
Es	1.175805	1.087155	0.877408	99
Es	-2.944247	0.710366	-0.694151	99
Es	-1.019081	-0.215454	0.681750	99
Es	-3.246177	1.235369	-1.134159	99
Es	-1.434299	0.596046	-1.240493	99
Es	2.058111	-0.859463	0.637120	99
Es	1.471138	0.774685	0.261471	99
Es	-1.503260	0.669706	-0.899467	99
Es	0.779679	-0.526142	-1.030174	99
Es	1.662629	1.316185	-0.228373	99
Es	-2.131216	0.691408	-0.780267	99
Es	1.137903	-1.403038	1.306410	99
Es	-0.882354	-0.355029	-0.058962	99
Es	-3.257001	0.051703	-0.863089	99
Es	2.945559	-0.165453	1.213685	99
Es	2.560928	-0.269950	0.573728	99
Es	0.984795	0.260817	-0.058200	99
Es	1.437104	-1.324474	0.622494	99
Es	0.969871	-0.929142	0.148423	99
Es	-1.178745	-1.028557	-0.224242	99
Es	-1.272589	1.220323	-0.732743	99
48
Properties=species:S:1:pos:R:3:Z:I:1 energy=-289.28010737233683 field_type=dipole dipole="0.000000 0.000000 0.000000" charge=0
C	-2.944369	0.710367	-0.694137	6
N	-1.503119	0.669577	-0.900067	7
C	-0.882309	-0.355123	-0.058877	6
C	0.619211	-0.392903	-0.311677	6
C	1.471131	0.774737	0.261472	6
C	2.560991	-0.269953	0.573732	6
C	1.437091	-1.324523	0.622512	6
H	-3.384609	1.473207	-1.343507	1
H	-3.194789	0.964927	0.342253	1
H	-3.409349	-0.247513	-0.948967	1
H	-1.109459	1.581397	-0.668767	1
H	-1.306639	-1.337183	-0.299257	1
H	-1.085679	-0.152593	0.999693	1
H	0.845841	-0.589693	-1.370788	1
H	1.049321	1.248817	1.155652	1
H	1.752961	1.551797	-0.453737	1
H	3.273901	-0.422513	-0.244477	1
H	3.112471	-0.118683	1.504852	1
H	1.690551	-2.305013	0.211423	1
H	1.006851	-1.459133	1.622672	1
Es	1.137729	-1.402945	1.306477	99
Es	0.619236	-0.392894	-0.311612	99
Es	1.662753	1.316346	-0.228743	99
Es	-1.178749	-1.028695	-0.224285	99
Es	-1.248790	0.238046	-0.508952	99
Es	-1.434765	0.595719	-1.241434	99
Es	0.984881	0.260798	-0.057910	99
Es	-1.272668	1.220714	-0.732380	99
Es	3.039149	-0.374650	0.007430	99
Es	-1.018967	-0.215401	0.681793	99
Es	-3.257026	0.051539	-0.863196	99
Es	2.057908	-0.859730	0.637098	99
Es	-3.119534	0.882637	0.027227	99
Es	1.175898	1.087042	0.877584	99
Es	0.779572	-0.526242	-1.030272	99
Es	-1.503291	0.669716	-0.899382	99
Es	0.970078	-0.929096	0.148699	99
Es	-0.882354	-0.355030	-0.058961	99
Es	1.437104	-1.324473	0.622493	99
Es	2.560927	-0.269951	0.573721	99
Es	-2.944250	0.710366	-0.694152	99
Es	2.075342	0.323302	0.433349	99
Es	1.471138	0.774687	0.261471	99
Es	1.608793	-2.004283	0.342229	99
Es	-3.246073	1.235525	-1.134099	99
Es	-2.130514	0.691276	-0.779562	99
Es	2.945354	-0.165400	1.213554	99
Es	-0.137217	-0.369611	-0.184423	99
48
Properties=species:S:1:pos:R:3:Z:I:1 energy=-289.28010737233683 field_type=dipole dipole="0.000000 0.000000 0.000000" charge=0
C	-2.944369	0.710367	-0.694137	6
N	-1.503119	0.669577	-0.900067	7
C	-0.882309	-0.355123	-0.058877	6
C	0.619211	-0.392903	-0.311677	6
C	1.471131	0.774737	0.261472	6
C	2.560991	-0.269953	0.573732	6
C	1.437091	-1.324523	0.622512	6
H	-3.384609	1.473207	-1.343507	1
H	-3.194789	0.964927	0.342253	1
H	-3.409349	-0.247513	-0.948967	1
H	-1.109459	1.581397	-0.668767	1
H	-1.306639	-1.337183	-0.299257	1
H	-1.085679	-0.152593	0.999693	1
H	0.845841	-0.589693	-1.370788	1
H	1.049321	1.248817	1.155652	1
H	1.752961	1.551797	-0.453737	1
H	3.273901	-0.422513	-0.244477	1
H	3.112471	-0.118683	1.504852	1
H	1.690551	-2.305013	0.211423	1
H	1.006851	-1.459133	1.622672	1
Es	-1.503248	0.669680	-0.899537	99
Es	-2.130185	0.691416	-0.778913	99
Es	-1.435763	0.595343	-1.241295	99
Es	1.137604	-1.402960	1.306610	99
Es	1.662981	1.316511	-0.228917	99
Es	-3.119483	0.882668	0.027282	99
Es	-3.245967	1.235583	-1.134096	99
Es	-1.248474	0.237962	-0.508866	99
Es	0.779459	-0.526295	-1.030344	99
Es	0.984894	0.260923	-0.057772	99
Es	-1.178714	-1.028942	-0.224399	99
Es	-0.137216	-0.369499	-0.184354	99
Es	-3.257014	0.051433	-0.863279	99
Es	0.970172	-0.929220	0.148874	99
Es	0.619236	-0.392893	-0.311610	99
Es	-2.944249	0.710366	-0.694151	99
Es	-0.882354	-0.355029	-0.058962	99
Es	3.039174	-0.374516	0.007441	99
Es	2.057834	-0.859896	0.637128	99
Es	2.075044	0.323235	0.433349	99
Es	-1.272404	1.221121	-0.733068	99
Es	-1.018895	-0.215323	0.681825	99
Es	1.608758	-2.004259	0.342068	99
Es	2.945330	-0.165262	1.213351	99
Es	1.471139	0.774684	0.261468	99
Es	1.175976	1.086907	0.877712	99
Es	2.560927	-0.269950	0.573724	99
Es	1.437105	-1.324475	0.622496	99
48
Properties=species:S:1:pos:R:3:Z:I:1 energy=-289.28010737233683 field_type=dipole dipole="0.000000 0.000000 0.000000" charge=0
C	-2.944369	0.710367	-0.694137	6
N	-1.503119	0.669577	-0.900067	7
C	-0.882309	-0.355123	-0.058877	6
C	0.619211	-0.392903	-0.311677	6
C	1.471131	0.774737	0.261472	6
C	2.560991	-0.269953	0.573732	6
C	1.437091	-1.324523	0.622512	6
H	-3.384609	1.473207	-1.343507	1
H	-3.194789	0.964927	0.342253	1
H	-3.409349	-0.247513	-0.948967	1
H	-1.109459	1.581397	-0.668767	1
H	-1.306639	-1.337183	-0.299257	1
H	-1.085679	-0.152593	0.999693	1
H	0.845841	-0.589693	-1.370788	1
H	1.049321	1.248817	1.155652	1
H	1.752961	1.551797	-0.453737	1
H	3.273901	-0.422513	-0.244477	1
H	3.112471	-0.118683	1.504852	1
H	1.690551	-2.305013	0.211423	1
H	1.006851	-1.459133	1.622672	1
Es	1.175933	1.086756	0.877865	99
Es	-1.272150	1.221507	-0.733258	99
Es	-1.178666	-1.029065	-0.224482	99
Es	2.074874	0.323378	0.433336	99
Es	-1.248483	0.237613	-0.508998	99
Es	2.057700	-0.859925	0.637053	99
Es	-0.882354	-0.355029	-0.058962	99
Es	0.970259	-0.929266	0.148974	99
Es	-3.119404	0.882715	0.027329	99
Es	-3.257028	0.051341	-0.863296	99
Es	0.619236	-0.392894	-0.311611	99
Es	0.779395	-0.526284	-1.030506	99
Es	1.608759	-2.004212	0.341911	99
Es	2.945233	-0.165276	1.213301	99
Es	1.137497	-1.402993	1.306765	99
Es	3.039270	-0.374474	0.007445	99
Es	1.437103	-1.324475	0.622494	99
Es	-1.018844	-0.215266	0.681896	99
Es	-2.130020	0.691438	-0.779058	99
Es	1.471139	0.774688	0.261469	99
Es	-1.503260	0.669675	-0.899529	99
Es	1.663066	1.316658	-0.229074	99
Es	-2.944250	0.710366	-0.694152	99
Es	-0.137195	-0.369477	-0.184294	99
Es	0.985032	0.260825	-0.057599	99
Es	2.560928	-0.269951	0.573723	99
Es	-1.436202	0.595312	-1.240879	99
Es	-3.245900	1.235627	-1.134100	99
48
Properties=species:S:1:pos:R:3:Z:I:1 energy=-289.28010737233683 field_type=dipole dipole="0.000000 0.000000 0.000000" charge=0
C	-2.944369	0.710367	-0.694137	6
N	-1.503119	0.669577	-0.900067	7
C	-0.882309	-0.355123	-0.058877	6
C	0.619211	-0.392903	-0.311677	6
C	1.471131	0.774737	0.261472	6
C	2.560991	-0.269953	0.573732	6
C	1.437091	-1.324523	0.622512	6
H	-3.384609	1.473207	-1.343507	1
H	-3.194789	0.964927	0.342253	1
H	-3.409349	-0.247513	-0.948967	1
H	-1.109459	1.581397	-0.668767	1
H	-1.306639	-1.337183	-0.299257	1
H	-1.085679	-0.152593	0.999693	1
H	0.845841	-0.589693	-1.370788	1
H	1.049321	1.248817	1.155652	1
H	1.752961	1.551797	-0.453737	1
H	3.273901	-0.422513	-0.244477	1
H	3.112471	-0.118683	1.504852	1
H	1.690551	-2.305013	0.211423	1
H	1.006851	-1.459133	1.622672	1
Es	2.945077	-0.165299	1.213016	99
Es	2.074748	0.323544	0.433433	99
Es	-1.248646	0.237986	-0.508557	99
Es	-0.882355	-0.355029	-0.058962	99
Es	0.970303	-0.929411	0.149013	99
Es	-1.272129	1.221681	-0.733702	99
Es	2.057598	-0.860009	0.637140	99
Es	-3.256985	0.051242	-0.863283	99
Es	-1.436700	0.594632	-1.241542	99
Es	-2.129460	0.691672	-0.778454	99
Es	1.137436	-1.402867	1.306770	99
Es	-0.137146	-0.369482	-0.184257	99
Es	1.175859	1.086678	0.877909	99
Es	1.437103	-1.324475	0.622495	99
Es	-3.245904	1.235685	-1.134120	99
Es	3.039431	-0.374436	0.007517	99
Es	1.663123	1.316742	-0.229241	99
Es	0.619236	-0.392892	-0.311611	99
Es	-1.018805	-0.215282	0.681884	99
Es	1.608811	-2.004334	0.341900	99
Es	1.471138	0.774686	0.261470	99
Es	-1.503261	0.669685	-0.899465	99
Es	-1.178644	-1.029115	-0.224475	99
Es	0.985225	0.260902	-0.057491	99
Es	2.560928	-0.269951	0.573723	99
Es	-3.119357	0.882709	0.027302	99
Es	-2.944248	0.710366	-0.694151	99
Es	0.779294	-0.526317	-1.030495	99
48
Properties=species:S:1:pos:R:3:Z:I:1 energy=-289.28010737233683 field_type=dipole dipole="0.000000 0.000000 0.000000" charge=0
C	-2.944369	0.710367	-0.694137	6
N	-1.503119	0.669577	-0.900067	7
C	-0.882309	-0.355123	-0.058877	6
C	0.619211	-0.392903	-0.311677	6
C	1.471131	0.774737	0.261472	6
C	2.560991	-0.269953	0.573732	6
C	1.437091	-1.324523	0.622512	6
H	-3.384609	1.473207	-1.343507	1
H	-3.194789	0.964927	0.342253	1
H	-3.409349	-0.247513	-0.948967	1
H	-1.109459	1.581397	-0.668767	1
H	-1.306639	-1.337183	-0.299257	1
H	-1.085679	-0.152593	0.999693	1
H	0.845841	-0.589693	-1.370788	1
H	1.049321	1.248817	1.155652	1
H	1.752961	1.551797	-0.453737	1
H	3.273901	-0.422513	-0.244477	1
H	3.112471	-0.118683	1.504852	1
H	1.690551	-2.305013	0.211423	1
H	1.006851	-1.459133	1.622672	1
Es	-0.882355	-0.355029	-0.058962	99
Es	0.619236	-0.392891	-0.311610	99
Es	2.074474	0.323598	0.433394	99
Es	-2.129758	0.691589	-0.778808	99
Es	-1.503272	0.669708	-0.899440	99
Es	-3.256964	0.051163	-0.863276	99
Es	-1.178616	-1.029197	-0.224582	99
Es	0.985092	0.260952	-0.057446	99
Es	-1.272063	1.221749	-0.733623	99
Es	-1.248604	0.237883	-0.508718	99
Es	-0.137150	-0.369473	-0.184303	99
Es	-2.944249	0.710366	-0.694151	99
Es	-1.436532	0.594763	-1.241113	99
Es	1.663294	1.316834	-0.229346	99
Es	1.608827	-2.004319	0.341733	99
Es	-3.119302	0.882770	0.027324	99
Es	-3.245857	1.235704	-1.134158	99
Es	2.057459	-0.860137	0.637153	99
Es	2.560928	-0.269951	0.573724	99
Es	1.176015	1.086596	0.878053	99
Es	0.779262	-0.526346	-1.030529	99
Es	0.970446	-0.929428	0.149218	99
Es	1.471139	0.774688	0.261471	99
Es	1.137370	-1.402863	1.306947	99
Es	3.039550	-0.374394	0.007512	99
Es	-1.018771	-0.215268	0.681962	99
Es	1.437104	-1.324474	0.622494	99
Es	2.944963	-0.165281	1.212844	99
48
Properties=species:S:1:pos:R:3:Z:I:1 energy=-289.28010737233683 field_type=dipole dipole="0.000000 0.000000 0.000000" charge=0
C	-2.944369	0.710367	-0.694137	6
N	-1.503119	0.669577	-0.900067	7
C	-0.882309	-0.355123	-0.058877	6
C	0.619211	-0.392903	-0.311677	6
C	1.471131	0.774737	0.261472	6
C	2.560991	-0.269953	0.573732	6
C	1.437091	-1.324523	0.622512	6
H	-3.384609	1.473207	-1.343507	1
H	-3.194789	0.964927	0.342253	1
H	-3.409349	-0.247513	-0.948967	1
H	-1.109459	1.581397	-0.668767	1
H	-1.306639	-1.337183	-0.299257	1
H	-1.085679	-0.152593	0.999693	1
H	0.845841	-0.589693	-1.370788	1
H	1.049321	1.248817	1.155652	1
H	1.752961	1.551797	-0.453737	1
H	3.273901	-0.422513	-0.244477	1
H	3.112471	-0.118683	1.504852	1
H	1.690551	-2.305013	0.211423	1
H	1.006851	-1.459133	1.622672	1
Es	-1.018748	-0.215250	0.681948	99
Es	1.471138	0.774687	0.261471	99
Es	1.663267	1.316897	-0.229440	99
Es	0.619235	-0.392892	-0.311610	99
Es	-2.944248	0.710366	-0.694152	99
Es	1.608784	-2.004368	0.341710	99
Es	1.175947	1.086545	0.877993	99
Es	2.057445	-0.860129	0.637198	99
Es	3.039564	-0.374333	0.007444	99
Es	-1.437194	0.594509	-1.241412	99
Es	0.985165	0.260962	-0.057406	99
Es	1.437105	-1.324474	0.622495	99
Es	0.970545	-0.929533	0.149314	99
Es	-1.271901	1.221907	-0.733892	99
Es	-0.137152	-0.369410	-0.184282	99
Es	2.560927	-0.269951	0.573723	99
Es	-2.129431	0.691709	-0.778188	99
Es	-3.245830	1.235781	-1.134132	99
Es	-3.256984	0.051085	-0.863297	99
Es	-1.248488	0.237903	-0.508740	99
Es	-1.178613	-1.029276	-0.224606	99
Es	2.074527	0.323529	0.433537	99
Es	0.779211	-0.526334	-1.030512	99
Es	2.944955	-0.165235	1.212788	99
Es	-3.119238	0.882750	0.027307	99
Es	-1.503246	0.669711	-0.899461	99
Es	1.137283	-1.402814	1.306927	99
Es	-0.882355	-0.355029	-0.058963	99
48
Properties=species:S:1:pos:R:3:Z:I:1 energy=-289.28010737233683 field_type=dipole dipole="0.000000 0.000000 0.000000" charge=0
C	-2.944369	0.710367	-0.694137	6
N	-1.503119	0.669577	-0.900067	7
C	-0.882309	-0.355123	-0.058877	6
C	0.619211	-0.392903	-0.311677	6
C	1.471131	0.774737	0.261472	6
C	2.560991	-0.269953	0.573732	6
C	1.437091	-1.324523	0.622512	6
H	-3.384609	1.473207	-1.343507	1
H	-3.194789	0.964927	0.342253	1
H	-3.409349	-0.247513	-0.948967	1
H	-1.109459	1.581397	-0.668767	1
H	-1.306639	-1.337183	-0.299257	1
H	-1.085679	-0.152593	0.999693	1
H	0.845841	-0.589693	-1.370788	1
H	1.049321	1.248817	1.155652	1
H	1.752961	1.551797	-0.453737	1
H	3.273901	-0.422513	-0.244477	1
H	3.112471	-0.118683	1.504852	1
H	1.690551	-2.305013	0.211423	1
H	1.006851	-1.459133	1.622672	1
Es	-1.437231	0.594482	-1.241389	99
Es	-1.271926	1.221971	-0.733874	99
Es	1.663438	1.316923	-0.229499	99
Es	0.619236	-0.392893	-0.311610	99
Es	-0.137158	-0.369425	-0.184315	99
Es	0.970482	-0.929613	0.149311	99
Es	0.779095	-0.526450	-1.030426	99
Es	-1.018760	-0.215114	0.682046	99
Es	-3.119203	0.882743	0.027278	99
Es	-2.129297	0.691748	-0.778234	99
Es	1.137291	-1.402849	1.306986	99
Es	1.437104	-1.324474	0.622494	99
Es	-1.178602	-1.029296	-0.224603	99
Es	-0.882355	-0.355029	-0.058963	99
Es	1.471139	0.774688	0.261471	99
Es	0.985309	0.261097	-0.057492	99
Es	2.057436	-0.860129	0.637259	99
Es	-3.256978	0.051042	-0.863278	99
Es	1.175969	1.086510	0.878140	99
Es	2.944778	-0.165333	1.212561	99
Es	-3.245835	1.235824	-1.134134	99
Es	2.074250	0.323719	0.433554	99
Es	2.560924	-0.269951	0.573722	99
Es	1.608829	-2.004323	0.341701	99
Es	3.039745	-0.374369	0.007465	99
Es	-1.503231	0.669656	-0.899580	99
Es	-1.248530	0.237790	-0.508677	99
Es	-2.944248	0.710366	-0.694152	99
48
Properties=species:S:1:pos:R:3:Z:I:1 energy=-289.28010737233683 field_type=dipole dipole="0.000000 0.000000 0.000000" charge=0
C	-2.944369	0.710367	-0.694137	6
N	-1.503119	0.669577	-0.900067	7
C	-0.882309	-0.355123	-0.058877	6
C	0.619211	-0.392903	-0.311677	6
C	1.471131	0.774737	0.261472	6
C	2.560991	-0.269953	0.573732	6
C	1.437091	-1.324523	0.622512	6
H	-3.384609	1.473207	-1.343507	1
H	-3.194789	0.964927	0.342253	1
H	-3.409349	-0.247513	-0.948967	1
H	-1.109459	1.581397	-0.668767	1
H	-1.306639	-1.337183	-0.299257	1
H	-1.085679	-0.152593	0.999693	1
H	0.845841	-0.589693	-1.370788	1
H	1.049321	1.248817	1.155652	1
H	1.752961	1.551797	-0.453737	1
H	3.273901	-0.422513	-0.244477	1
H	3.112471	-0.118683	1.504852	1
H	1.690551	-2.305013	0.211423	1
H	1.006851	-1.459133	1.622672	1
Es	0.619235	-0.392892	-0.311611	99
Es	1.437104	-1.324474	0.622493	99
Es	-1.178654	-1.029380	-0.224516	99
Es	-3.245849	1.235826	-1.134162	99
Es	-1.503239	0.669688	-0.899453	99
Es	1.175997	1.086379	0.878135	99
Es	-2.128867	0.691974	-0.777601	99
Es	1.608730	-2.004344	0.341643	99
Es	-1.271733	1.221961	-0.733813	99
Es	2.560928	-0.269951	0.573724	99
Es	0.970630	-0.929635	0.149457	99
Es	2.074258	0.323584	0.433531	99
Es	1.471137	0.774687	0.261470	99
Es	0.779194	-0.526394	-1.030532	99
Es	-0.882355	-0.355029	-0.058963	99
Es	0.985217	0.261073	-0.057249	99
Es	-3.119227	0.882716	0.027307	99
Es	-2.944248	0.710366	-0.694151	99
Es	-1.438032	0.594746	-1.241731	99
Es	-1.248406	0.237417	-0.509135	99
Es	-3.256916	0.051038	-0.863291	99
Es	-1.018605	-0.215114	0.681941	99
Es	1.663428	1.317065	-0.229638	99
Es	2.057407	-0.860207	0.637171	99
Es	3.039708	-0.374258	0.007471	99
Es	-0.137172	-0.369527	-0.184346	99
Es	2.944811	-0.165216	1.212583	99
Es	1.137188	-1.402788	1.307031	99
48
Properties=species:S:1:pos:R:3:Z:I:1 energy=-289.28010737233683 field_type=dipole dipole="0.000000 0.000000 0.000000" charge=0
C	-2.944369	0.710367	-0.694137	6
N	-1.503119	0.669577	-0.900067	7
C	-0.882309	-0.355123	-0.058877	6
C	0.619211	-0.392903	-0.311677	6
C	1.471131	0.774737	0.261472	6
C	2.560991	-0.269953	0.573732	6
C	1.437091	-1.324523	0.622512	6
H	-3.384609	1.473207	-1.343507	1
H	-3.194789	0.964927	0.342253	1
H	-3.409349	-0.247513	-0.948967	1
H	-1.109459	1.581397	-0.668767	1
H	-1.306639	-1.337183	-0.299257	1
H	-1.085679	-0.152593	0.999693	1
H	0.845841	-0.589693	-1.370788	1
H	1.049321	1.248817	1.155652	1
H	1.752961	1.551797	-0.453737	1
H	3.273901	-0.422513	-0.244477	1
H	3.112471	-0.118683	1.504852	1
H	1.690551	-2.305013	0.211423	1
H	1.006851	-1.459133	1.622672	1
Es	-2.944248	0.710366	-0.694152	99
Es	1.175940	1.086356	0.878129	99
Es	-1.178604	-1.029395	-0.224646	99
Es	0.970738	-0.929685	0.149479	99
Es	0.619237	-0.392892	-0.311609	99
Es	-1.437796	0.594249	-1.241435	99
Es	-1.248444	0.237873	-0.508618	99
Es	0.985306	0.260994	-0.057221	99
Es	-1.271750	1.222143	-0.734280	99
Es	1.137112	-1.402787	1.307129	99
Es	2.944766	-0.165201	1.212398	99
Es	-3.245788	1.235889	-1.134140	99
Es	2.057318	-0.860357	0.637241	99
Es	-3.256941	0.050960	-0.863324	99
Es	3.039753	-0.374204	0.007486	99
Es	-1.503241	0.669668	-0.899556	99
Es	2.560927	-0.269951	0.573723	99
Es	0.779125	-0.526365	-1.030579	99
Es	1.471138	0.774685	0.261472	99
Es	-2.129100	0.691915	-0.777793	99
Es	2.074230	0.323713	0.433644	99
Es	-0.882355	-0.355029	-0.058962	99
Es	-0.137131	-0.369449	-0.184257	99
Es	1.608750	-2.004318	0.341553	99
Es	1.663447	1.317086	-0.229695	99
Es	1.437104	-1.324475	0.622494	99
Es	-3.119164	0.882730	0.027303	99
Es	-1.018661	-0.215207	0.681978	99
