37
Properties=species:S:1:pos:R:3:Z:I:1 energy=-268.5609536185232 field_type=dipole dipole="0.000000 0.000000 0.000000" charge=0
C	-3.180084	0.020782	-0.002912	6
C	-1.989924	0.020782	-0.002912	6
C	-0.583924	0.020782	-0.002912	6
C	0.195846	-1.071328	0.002148	6
C	1.637396	-0.656588	0.004208	6
C	1.532306	0.841462	-0.000502	6
C	0.240676	1.204312	-0.004602	6
H	-4.244964	0.020532	-0.002912	1
H	-0.147344	-2.094648	0.005688	1
H	2.154756	-1.020048	-0.888431	1
H	2.150296	-1.014578	0.901648	1
H	2.376116	1.514912	-0.000302	1
H	-0.141154	2.213622	-0.008212	1
Es	-1.309479	0.028970	-0.003208	99
Es	-0.025865	-1.765259	0.004520	99
Es	-3.875550	0.020620	-0.002830	99
Es	0.879139	1.030585	0.315647	99
Es	1.532410	0.841394	-0.000500	99
Es	-2.591391	-0.335042	-0.046023	99
Es	-0.584088	0.020882	-0.002913	99
Es	2.111381	1.288399	-0.000308	99
Es	0.926890	-0.901243	0.003473	99
Es	0.880684	1.028778	-0.321019	99
Es	0.240550	1.204319	-0.004601	99
Es	1.625049	0.093886	0.001648	99
Es	1.970784	-0.893957	-0.590006	99
Es	-0.235076	-0.508752	-0.314684	99
Es	1.968034	-0.889924	0.601526	99
Es	-1.989659	0.020778	-0.002913	99
Es	-2.576432	0.158151	0.323443	99
Es	-0.236094	-0.507039	0.312859	99
Es	-0.231615	0.640186	-0.003758	99
Es	-3.180346	0.020781	-0.002910	99
Es	1.637364	-0.656568	0.004208	99
Es	-0.025467	1.883842	-0.007109	99
Es	0.195934	-1.071388	0.002149	99
Es	-2.580647	0.235961	-0.286033	99
37
Properties=species:S:1:pos:R:3:Z:I:1 energy=-268.5609536185232 field_type=dipole dipole="0.000000 0.000000 0.000000" charge=0
C	-3.180084	0.020782	-0.002912	6
C	-1.989924	0.020782	-0.002912	6
C	-0.583924	0.020782	-0.002912	6
C	0.195846	-1.071328	0.002148	6
C	1.637396	-0.656588	0.004208	6
C	1.532306	0.841462	-0.000502	6
C	0.240676	1.204312	-0.004602	6
H	-4.244964	0.020532	-0.002912	1
H	-0.147344	-2.094648	0.005688	1
H	2.154756	-1.020048	-0.888431	1
H	2.150296	-1.014578	0.901648	1
H	2.376116	1.514912	-0.000302	1
H	-0.141154	2.213622	-0.008212	1
Es	-0.584097	0.020883	-0.002911	99
Es	0.881204	1.026003	0.314279	99
Es	-2.583576	-0.233691	-0.244080	99
Es	-0.238865	-0.502768	0.307873	99
Es	0.882721	1.024168	-0.319400	99
Es	0.195936	-1.071385	0.002149	99
Es	1.532412	0.841394	-0.000497	99
Es	1.970176	-0.888137	0.597904	99
Es	-1.312141	0.024441	-0.003154	99
Es	-2.589846	0.378072	-0.068233	99
Es	-0.229472	0.635375	-0.004208	99
Es	-2.574870	-0.085946	0.303243	99
Es	0.240547	1.204316	-0.004601	99
Es	-0.026737	1.884711	-0.007048	99
Es	-0.238102	-0.505188	-0.309157	99
Es	1.972855	-0.891510	-0.586456	99
Es	-3.180360	0.020785	-0.002914	99
Es	0.926447	-0.903781	0.003184	99
Es	-0.027005	-1.761092	0.004582	99
Es	1.626924	0.092759	0.001918	99
Es	1.637367	-0.656572	0.004208	99
Es	-1.989645	0.020773	-0.002913	99
Es	2.112457	1.288778	-0.000541	99
Es	-3.877821	0.025971	-0.002570	99
37
Properties=species:S:1:pos:R:3:Z:I:1 energy=-268.5609536185232 field_type=dipole dipole="0.000000 0.000000 0.000000" charge=0
C	-3.180084	0.020782	-0.002912	6
C	-1.989924	0.020782	-0.002912	6
C	-0.583924	0.020782	-0.002912	6
C	0.195846	-1.071328	0.002148	6
C	1.637396	-0.656588	0.004208	6
C	1.532306	0.841462	-0.000502	6
C	0.240676	1.204312	-0.004602	6
H	-4.244964	0.020532	-0.002912	1
H	-0.147344	-2.094648	0.005688	1
H	2.154756	-1.020048	-0.888431	1
H	2.150296	-1.014578	0.901648	1
H	2.376116	1.514912	-0.000302	1
H	-0.141154	2.213622	-0.008212	1
Es	0.240547	1.204317	-0.004602	99
Es	1.532415	0.841392	-0.000504	99
Es	-0.241276	-0.499583	0.307424	99
Es	1.627717	0.090661	0.001961	99
Es	-0.584098	0.020883	-0.002912	99
Es	-0.240957	-0.500413	-0.308800	99
Es	2.113611	1.288077	-0.000578	99
Es	-0.028328	1.884695	-0.007002	99
Es	0.883310	1.021545	0.314464	99
Es	0.925616	-0.904888	0.003268	99
Es	-2.589430	-0.320275	-0.132195	99
Es	-2.570272	0.007881	0.232411	99
Es	-3.877956	0.029718	-0.002165	99
Es	0.195938	-1.071388	0.002147	99
Es	1.974006	-0.890157	-0.585041	99
Es	1.637369	-0.656574	0.004210	99
Es	1.971062	-0.886576	0.596364	99
Es	-0.228901	0.631886	-0.004252	99
Es	-1.989643	0.020771	-0.002908	99
Es	-0.026632	-1.756560	0.004679	99
Es	-2.588649	0.369578	-0.109874	99
Es	0.884638	1.019125	-0.319678	99
Es	-3.180365	0.020793	-0.002911	99
Es	-1.313213	0.023449	-0.002849	99
37
Properties=species:S:1:pos:R:3:Z:I:1 energy=-268.5609536185232 field_type=dipole dipole="0.000000 0.000000 0.000000" charge=0
C	-3.180084	0.020782	-0.002912	6
C	-1.989924	0.020782	-0.002912	6
C	-0.583924	0.020782	-0.002912	6
C	0.195846	-1.071328	0.002148	6
C	1.637396	-0.656588	0.004208	6
C	1.532306	0.841462	-0.000502	6
C	0.240676	1.204312	-0.004602	6
H	-4.244964	0.020532	-0.002912	1
H	-0.147344	-2.094648	0.005688	1
H	2.154756	-1.020048	-0.888431	1
H	2.150296	-1.014578	0.901648	1
H	2.376116	1.514912	-0.000302	1
H	-0.141154	2.213622	-0.008212	1
Es	1.627497	0.087923	0.002064	99
Es	1.532415	0.841391	-0.000501	99
Es	-0.025484	-1.751933	0.004473	99
Es	2.114913	1.286995	-0.000401	99
Es	1.971610	-0.885223	0.596220	99
Es	1.975016	-0.889035	-0.584850	99
Es	-0.229106	0.629140	-0.003953	99
Es	0.240547	1.204316	-0.004601	99
Es	-0.243393	-0.495069	0.308733	99
Es	0.924762	-0.904787	0.003198	99
Es	0.886176	1.013434	-0.320286	99
Es	-3.180364	0.020790	-0.002912	99
Es	0.195940	-1.071392	0.002146	99
Es	-0.030067	1.884333	-0.007056	99
Es	-3.877842	0.031519	-0.003031	99
Es	-0.584100	0.020883	-0.002918	99
Es	-2.589484	0.386181	-0.006234	99
Es	-1.989643	0.020767	-0.002911	99
Es	-2.568305	0.016219	0.000780	99
Es	-2.590603	-0.345596	-0.003162	99
Es	-1.313682	0.023318	-0.003124	99
Es	0.885014	1.016727	0.315116	99
Es	1.637367	-0.656571	0.004207	99
Es	-0.242678	-0.495973	-0.310339	99
37
Properties=species:S:1:pos:R:3:Z:I:1 energy=-268.5609536185232 field_type=dipole dipole="0.000000 0.000000 0.000000" charge=0
C	-3.180084	0.020782	-0.002912	6
C	-1.989924	0.020782	-0.002912	6
C	-0.583924	0.020782	-0.002912	6
C	0.195846	-1.071328	0.002148	6
C	1.637396	-0.656588	0.004208	6
C	1.532306	0.841462	-0.000502	6
C	0.240676	1.204312	-0.004602	6
H	-4.244964	0.020532	-0.002912	1
H	-0.147344	-2.094648	0.005688	1
H	2.154756	-1.020048	-0.888431	1
H	2.150296	-1.014578	0.901648	1
H	2.376116	1.514912	-0.000302	1
H	-0.141154	2.213622	-0.008212	1
Es	-1.989645	0.020759	-0.002905	99
Es	-3.877667	0.032562	-0.005026	99
Es	2.005454	-0.908737	-0.562477	99
Es	-0.024954	-1.749240	0.005757	99
Es	0.195938	-1.071387	0.002151	99
Es	-3.180365	0.020801	-0.002911	99
Es	-0.245896	-0.485780	-0.306473	99
Es	-0.584101	0.020884	-0.002917	99
Es	-0.228388	0.627755	-0.007504	99
Es	0.240545	1.204317	-0.004605	99
Es	-2.590478	-0.344626	0.005667	99
Es	-2.568311	0.016247	-0.001974	99
Es	1.941631	-0.864360	0.577036	99
Es	0.885849	1.011538	0.314676	99
Es	-2.589614	0.385065	-0.012233	99
Es	2.115690	1.286489	0.001279	99
Es	-1.313956	0.023041	-0.003112	99
Es	1.637367	-0.656573	0.004208	99
Es	1.627565	0.086280	0.001854	99
Es	-0.242209	-0.498584	0.306586	99
Es	0.886950	1.010906	-0.319831	99
Es	1.532414	0.841390	-0.000494	99
Es	-0.031447	1.884192	-0.008667	99
Es	0.924137	-0.904582	0.002571	99
37
Properties=species:S:1:pos:R:3:Z:I:1 energy=-268.5609536185232 field_type=dipole dipole="0.000000 0.000000 0.000000" charge=0
C	-3.180084	0.020782	-0.002912	6
C	-1.989924	0.020782	-0.002912	6
C	-0.583924	0.020782	-0.002912	6
C	0.195846	-1.071328	0.002148	6
C	1.637396	-0.656588	0.004208	6
C	1.532306	0.841462	-0.000502	6
C	0.240676	1.204312	-0.004602	6
H	-4.244964	0.020532	-0.002912	1
H	-0.147344	-2.094648	0.005688	1
H	2.154756	-1.020048	-0.888431	1
H	2.150296	-1.014578	0.901648	1
H	2.376116	1.514912	-0.000302	1
H	-0.141154	2.213622	-0.008212	1
Es	-0.229290	0.625981	0.001672	99
Es	-3.180365	0.020805	-0.002905	99
Es	-0.023994	-1.746422	0.002463	99
Es	1.532415	0.841390	-0.000510	99
Es	-2.589654	0.383679	0.021624	99
Es	0.885539	1.008066	0.315418	99
Es	-1.989643	0.020759	-0.002917	99
Es	-3.877524	0.033147	0.000379	99
Es	-0.584101	0.020885	-0.002908	99
Es	-0.032589	1.883613	-0.004413	99
Es	-1.314033	0.023184	-0.003270	99
Es	2.116481	1.285400	-0.003223	99
Es	0.923785	-0.903891	0.004254	99
Es	1.637366	-0.656573	0.004208	99
Es	-0.247727	-0.480275	0.305685	99
Es	0.888202	1.008506	-0.320218	99
Es	1.925198	-0.853990	-0.532128	99
Es	0.240547	1.204316	-0.004598	99
Es	-2.568387	0.016983	-0.018123	99
Es	-0.240679	-0.498389	-0.310092	99
Es	1.626803	0.084450	0.002089	99
Es	0.195938	-1.071387	0.002145	99
Es	-2.590378	-0.344059	-0.012285	99
Es	2.022595	-0.917822	0.538313	99
37
Properties=species:S:1:pos:R:3:Z:I:1 energy=-268.5609536185232 field_type=dipole dipole="0.000000 0.000000 0.000000" charge=0
C	-3.180084	0.020782	-0.002912	6
C	-1.989924	0.020782	-0.002912	6
C	-0.583924	0.020782	-0.002912	6
C	0.195846	-1.071328	0.002148	6
C	1.637396	-0.656588	0.004208	6
C	1.532306	0.841462	-0.000502	6
C	0.240676	1.204312	-0.004602	6
H	-4.244964	0.020532	-0.002912	1
H	-0.147344	-2.094648	0.005688	1
H	2.154756	-1.020048	-0.888431	1
H	2.150296	-1.014578	0.901648	1
H	2.376116	1.514912	-0.000302	1
H	-0.141154	2.213622	-0.008212	1
Es	2.035665	-0.927156	-0.499745	99
Es	0.195937	-1.071387	0.002153	99
Es	0.887489	1.004799	-0.321083	99
Es	-1.314062	0.023347	-0.002922	99
Es	-0.247532	-0.478776	-0.307040	99
Es	-0.229665	0.624560	-0.010944	99
Es	-3.180365	0.020805	-0.002920	99
Es	0.240546	1.204316	-0.004604	99
Es	-0.023245	-1.744432	0.006641	99
Es	-0.240949	-0.495205	0.309221	99
Es	0.886816	1.007013	0.315594	99
Es	-2.568392	0.017575	0.018532	99
Es	1.912626	-0.843599	0.517515	99
Es	1.532413	0.841390	-0.000494	99
Es	1.637367	-0.656572	0.004208	99
Es	-2.590308	-0.343670	0.007992	99
Es	-3.877406	0.033478	-0.007194	99
Es	2.117115	1.284549	0.003134	99
Es	-0.584101	0.020885	-0.002912	99
Es	-2.589740	0.382596	-0.035049	99
Es	-0.033709	1.883084	-0.010177	99
Es	-1.989642	0.020762	-0.002903	99
Es	0.923525	-0.902935	0.001801	99
Es	1.626124	0.082932	0.001855	99
37
Properties=species:S:1:pos:R:3:Z:I:1 energy=-268.5609536185232 field_type=dipole dipole="0.000000 0.000000 0.000000" charge=0
C	-3.180084	0.020782	-0.002912	6
C	-1.989924	0.020782	-0.002912	6
C	-0.583924	0.020782	-0.002912	6
C	0.195846	-1.071328	0.002148	6
C	1.637396	-0.656588	0.004208	6
C	1.532306	0.841462	-0.000502	6
C	0.240676	1.204312	-0.004602	6
H	-4.244964	0.020532	-0.002912	1
H	-0.147344	-2.094648	0.005688	1
H	2.154756	-1.020048	-0.888431	1
H	2.150296	-1.014578	0.901648	1
H	2.376116	1.514912	-0.000302	1
H	-0.141154	2.213622	-0.008212	1
Es	-2.590250	-0.343352	-0.014926	99
Es	-0.034358	1.882719	-0.003498	99
Es	-3.180365	0.020808	-0.002902	99
Es	0.240547	1.204312	-0.004597	99
Es	0.195939	-1.071387	0.002147	99
Es	0.888283	1.002037	-0.320868	99
Es	-0.584101	0.020884	-0.002902	99
Es	-0.239393	-0.496523	-0.310751	99
Es	-1.314089	0.023429	-0.003338	99
Es	-0.022594	-1.742778	0.001776	99
Es	0.923292	-0.901897	0.004734	99
Es	-2.589801	0.382988	0.020817	99
Es	1.625615	0.081704	0.002110	99
Es	-0.230334	0.623314	0.003615	99
Es	1.532413	0.841392	-0.000513	99
Es	-0.248937	-0.473829	0.305280	99
Es	-2.568397	0.016874	-0.014859	99
Es	2.039453	-0.927882	0.492249	99
Es	0.886331	1.006112	0.316378	99
Es	1.909155	-0.842212	-0.488003	99
Es	-1.989643	0.020757	-0.002920	99
Es	1.637370	-0.656575	0.004202	99
Es	-3.877329	0.033737	0.001808	99
Es	2.117699	1.283730	-0.004380	99
37
Properties=species:S:1:pos:R:3:Z:I:1 energy=-268.5609536185232 field_type=dipole dipole="0.000000 0.000000 0.000000" charge=0
C	-3.180084	0.020782	-0.002912	6
C	-1.989924	0.020782	-0.002912	6
C	-0.583924	0.020782	-0.002912	6
C	0.195846	-1.071328	0.002148	6
C	1.637396	-0.656588	0.004208	6
C	1.532306	0.841462	-0.000502	6
C	0.240676	1.204312	-0.004602	6
H	-4.244964	0.020532	-0.002912	1
H	-0.147344	-2.094648	0.005688	1
H	2.154756	-1.020048	-0.888431	1
H	2.150296	-1.014578	0.901648	1
H	2.376116	1.514912	-0.000302	1
H	-0.141154	2.213622	-0.008212	1
Es	0.886713	1.006440	0.316297	99
Es	-0.239730	-0.492542	-0.314243	99
Es	-3.180366	0.020805	-0.002904	99
Es	0.195939	-1.071387	0.002143	99
Es	2.118172	1.283065	-0.004821	99
Es	0.240547	1.204316	-0.004599	99
Es	-2.568449	0.017883	-0.028726	99
Es	-3.877257	0.033947	0.002251	99
Es	-0.248473	-0.475020	0.308382	99
Es	-0.230712	0.622333	0.004145	99
Es	2.044900	-0.930854	0.474018	99
Es	-0.022076	-1.741477	0.001869	99
Es	0.888091	0.998895	-0.320755	99
Es	-0.034948	1.882375	-0.003289	99
Es	1.903988	-0.838646	-0.470261	99
Es	1.625007	0.081095	0.001828	99
Es	1.532411	0.841385	-0.000509	99
Es	-0.584101	0.020882	-0.002898	99
Es	-2.589794	0.381794	0.031537	99
Es	-1.314089	0.023618	-0.003516	99
Es	-1.989643	0.020757	-0.002922	99
Es	1.637371	-0.656571	0.004209	99
Es	-2.590219	-0.343274	-0.011728	99
Es	0.923224	-0.901460	0.005149	99
37
Properties=species:S:1:pos:R:3:Z:I:1 energy=-268.5609536185232 field_type=dipole dipole="0.000000 0.000000 0.000000" charge=0
C	-3.180084	0.020782	-0.002912	6
C	-1.989924	0.020782	-0.002912	6
C	-0.583924	0.020782	-0.002912	6
C	0.195846	-1.071328	0.002148	6
C	1.637396	-0.656588	0.004208	6
C	1.532306	0.841462	-0.000502	6
C	0.240676	1.204312	-0.004602	6
H	-4.244964	0.020532	-0.002912	1
H	-0.147344	-2.094648	0.005688	1
H	2.154756	-1.020048	-0.888431	1
H	2.150296	-1.014578	0.901648	1
H	2.376116	1.514912	-0.000302	1
H	-0.141154	2.213622	-0.008212	1
Es	-2.589851	0.381944	0.029097	99
Es	-0.249284	-0.470834	0.306056	99
Es	-1.314089	0.023678	-0.003390	99
Es	-2.590160	-0.343091	-0.011614	99
Es	0.886362	1.002149	0.316846	99
Es	1.624770	0.080541	0.002032	99
Es	-0.021666	-1.740315	0.001546	99
Es	2.118473	1.282528	-0.004981	99
Es	0.240547	1.204314	-0.004595	99
Es	-0.238784	-0.494291	-0.312180	99
Es	1.637367	-0.656572	0.004208	99
Es	-3.877240	0.033951	0.002443	99
Es	0.923136	-0.900945	0.005229	99
Es	-0.230994	0.621498	0.004536	99
Es	0.195938	-1.071409	0.002143	99
Es	2.047861	-0.932769	0.462525	99
Es	1.901149	-0.836374	-0.459345	99
Es	0.888558	1.000810	-0.321222	99
Es	-2.568436	0.017659	-0.026435	99
Es	-0.584101	0.020882	-0.002903	99
Es	-1.989643	0.020758	-0.002923	99
Es	-0.035457	1.882052	-0.003019	99
Es	1.532413	0.841389	-0.000507	99
Es	-3.180363	0.020807	-0.002889	99
37
Properties=species:S:1:pos:R:3:Z:I:1 energy=-268.5609536185232 field_type=dipole dipole="0.000000 0.000000 0.000000" charge=0
C	-3.180084	0.020782	-0.002912	6
C	-1.989924	0.020782	-0.002912	6
C	-0.583924	0.020782	-0.002912	6
C	0.195846	-1.071328	0.002148	6
C	1.637396	-0.656588	0.004208	6
C	1.532306	0.841462	-0.000502	6
C	0.240676	1.204312	-0.004602	6
H	-4.244964	0.020532	-0.002912	1
H	-0.147344	-2.094648	0.005688	1
H	2.154756	-1.020048	-0.888431	1
H	2.150296	-1.014578	0.901648	1
H	2.376116	1.514912	-0.000302	1
H	-0.141154	2.213622	-0.008212	1
Es	-1.314107	0.023717	-0.002731	99
Es	-1.989643	0.020756	-0.002900	99
Es	-2.590117	-0.342672	0.014074	99
Es	0.923104	-0.900677	0.000988	99
Es	1.896179	-0.831739	0.459171	99
Es	0.887883	0.998704	-0.322035	99
Es	-0.584099	0.020891	-0.002944	99
Es	1.637366	-0.656573	0.004209	99
Es	-0.239789	-0.490612	0.311894	99
Es	-2.589888	0.381267	-0.040120	99
Es	0.240548	1.204315	-0.004609	99
Es	-0.247993	-0.472391	-0.309022	99
Es	1.532413	0.841391	-0.000495	99
Es	-3.877177	0.034038	-0.008773	99
Es	2.053004	-0.936938	-0.439414	99
Es	0.195940	-1.071394	0.002155	99
Es	-2.568449	0.017887	0.017716	99
Es	-0.021399	-1.739597	0.006981	99
Es	0.887115	1.002319	0.316302	99
Es	-3.180365	0.020802	-0.002925	99
Es	-0.035655	1.881877	-0.011086	99
Es	1.624289	0.080325	0.002061	99
Es	2.118830	1.281953	0.004507	99
Es	-0.231484	0.620711	-0.012345	99
37
Properties=species:S:1:pos:R:3:Z:I:1 energy=-268.5609536185232 field_type=dipole dipole="0.000000 0.000000 0.000000" charge=0
C	-3.180084	0.020782	-0.002912	6
C	-1.989924	0.020782	-0.002912	6
C	-0.583924	0.020782	-0.002912	6
C	0.195846	-1.071328	0.002148	6
C	1.637396	-0.656588	0.004208	6
C	1.532306	0.841462	-0.000502	6
C	0.240676	1.204312	-0.004602	6
H	-4.244964	0.020532	-0.002912	1
H	-0.147344	-2.094648	0.005688	1
H	2.154756	-1.020048	-0.888431	1
H	2.150296	-1.014578	0.901648	1
H	2.376116	1.514912	-0.000302	1
H	-0.141154	2.213622	-0.008212	1
Es	-0.248338	-0.471817	-0.308829	99
Es	2.055602	-0.938516	-0.427954	99
Es	-1.314086	0.023837	-0.002759	99
Es	0.240546	1.204309	-0.004609	99
Es	2.118959	1.281740	0.004585	99
Es	0.888314	1.001426	-0.321924	99
Es	-0.231390	0.620296	-0.013199	99
Es	-2.568504	0.020139	0.056476	99
Es	-0.021104	-1.738822	0.007095	99
Es	-0.584102	0.020890	-0.002921	99
Es	0.886735	0.998172	0.316283	99
Es	1.532414	0.841392	-0.000494	99
Es	-3.180364	0.020811	-0.002924	99
Es	-1.989644	0.020756	-0.002898	99
Es	-2.590205	-0.343023	-0.010129	99
Es	1.893628	-0.829979	0.448100	99
Es	0.195937	-1.071386	0.002152	99
Es	1.624208	0.079603	0.001954	99
Es	1.637367	-0.656572	0.004209	99
Es	-3.877161	0.034098	-0.008823	99
Es	0.923034	-0.900103	0.000840	99
Es	-0.036150	1.881582	-0.011315	99
Es	-2.589756	0.379281	-0.054780	99
Es	-0.239432	-0.489754	0.312522	99
37
Properties=species:S:1:pos:R:3:Z:I:1 energy=-268.5609536185232 field_type=dipole dipole="0.000000 0.000000 0.000000" charge=0
C	-3.180084	0.020782	-0.002912	6
C	-1.989924	0.020782	-0.002912	6
C	-0.583924	0.020782	-0.002912	6
C	0.195846	-1.071328	0.002148	6
C	1.637396	-0.656588	0.004208	6
C	1.532306	0.841462	-0.000502	6
C	0.240676	1.204312	-0.004602	6
H	-4.244964	0.020532	-0.002912	1
H	-0.147344	-2.094648	0.005688	1
H	2.154756	-1.020048	-0.888431	1
H	2.150296	-1.014578	0.901648	1
H	2.376116	1.514912	-0.000302	1
H	-0.141154	2.213622	-0.008212	1
Es	-2.568537	0.019784	-0.054244	99
Es	-0.020881	-1.738238	0.001451	99
Es	0.888340	0.996492	-0.321482	99
Es	-2.590169	-0.343016	-0.000612	99
Es	0.240548	1.204317	-0.004594	99
Es	1.893622	-0.831008	-0.427304	99
Es	-0.036491	1.881400	-0.002567	99
Es	0.886724	1.001894	0.317105	99
Es	-0.239247	-0.485953	-0.318424	99
Es	2.119338	1.281076	-0.005542	99
Es	-2.589774	0.379573	0.045918	99
Es	1.532413	0.841391	-0.000513	99
Es	-1.314083	0.023899	-0.003491	99
Es	0.923003	-0.899786	0.005563	99
Es	1.623727	0.079479	0.001925	99
Es	-3.877125	0.034240	0.003076	99
Es	-3.180365	0.020807	-0.002899	99
Es	-1.989644	0.020752	-0.002923	99
Es	-0.248393	-0.474380	0.311314	99
Es	0.195940	-1.071391	0.002146	99
Es	1.637367	-0.656572	0.004207	99
Es	-0.231478	0.619896	0.005777	99
Es	2.055772	-0.937180	0.429677	99
Es	-0.584102	0.020884	-0.002904	99
