42
Properties=species:S:1:pos:R:3:Z:I:1 energy=-286.9028592755577 field_type=dipole dipole="0.000000 0.000000 0.000000" charge=0
C	-3.025748	-1.125439	0.038116	6
N	-1.570748	-1.095039	0.081286	7
C	-1.073338	0.278271	0.069526	6
C	0.370662	0.278271	0.069526	6
C	1.560822	0.278271	0.069526	6
C	2.966822	0.278271	0.069526	6
C	3.669562	1.414281	0.011726	6
H	-3.369018	-2.164569	0.054676	1
H	-3.410998	-0.658769	-0.874294	1
H	-3.458308	-0.622239	0.908296	1
H	-1.196328	-1.585099	-0.730574	1
H	-1.441028	0.815251	0.951566	1
H	-1.441138	0.807731	-0.817414	1
H	3.480032	-0.677439	0.120856	1
H	3.184522	2.384400	-0.037444	1
H	4.754232	1.393851	0.015096	1
Es	3.295696	-0.366104	0.103500	99
Es	0.370394	0.278281	0.069517	99
Es	3.669611	1.414351	0.011721	99
Es	2.244312	0.271636	0.069396	99
Es	-1.460110	-1.252324	0.373133	99
Es	-1.073253	0.278151	0.069525	99
Es	0.986517	0.081401	-0.232825	99
Es	-1.357583	-0.480395	0.052040	99
Es	3.294494	0.820472	-0.279305	99
Es	3.348437	2.070672	-0.021789	99
Es	0.995518	0.121359	0.385993	99
Es	0.961619	0.642227	0.045365	99
Es	-2.207111	-1.085899	0.037470	99
Es	-3.025617	-1.125434	0.038118	99
Es	-3.315375	-0.773869	0.629881	99
Es	-3.258970	-1.833214	0.044502	99
Es	2.966677	0.278185	0.069550	99
Es	3.292856	0.852951	0.359956	99
Es	1.561072	0.278262	0.069521	99
Es	-3.293319	-0.796133	-0.592520	99
Es	-1.358735	-1.371595	-0.426612	99
Es	-1.570969	-1.094714	0.080750	99
Es	-0.323976	0.278651	0.067502	99
Es	-1.310285	0.643427	-0.536027	99
Es	-1.310778	0.638603	0.663017	99
Es	4.404069	1.405996	0.013762	99
42
Properties=species:S:1:pos:R:3:Z:I:1 energy=-286.9028592755577 field_type=dipole dipole="0.000000 0.000000 0.000000" charge=0
C	-3.025748	-1.125439	0.038116	6
N	-1.570748	-1.095039	0.081286	7
C	-1.073338	0.278271	0.069526	6
C	0.370662	0.278271	0.069526	6
C	1.560822	0.278271	0.069526	6
C	2.966822	0.278271	0.069526	6
C	3.669562	1.414281	0.011726	6
H	-3.369018	-2.164569	0.054676	1
H	-3.410998	-0.658769	-0.874294	1
H	-3.458308	-0.622239	0.908296	1
H	-1.196328	-1.585099	-0.730574	1
H	-1.441028	0.815251	0.951566	1
H	-1.441138	0.807731	-0.817414	1
H	3.480032	-0.677439	0.120856	1
H	3.184522	2.384400	-0.037444	1
H	4.754232	1.393851	0.015096	1
Es	-1.352371	-0.479595	0.058954	99
Es	0.984879	0.047604	0.331535	99
Es	3.294469	0.820689	-0.274785	99
Es	-0.320485	0.277216	0.067333	99
Es	0.997229	0.160239	-0.255293	99
Es	-3.025616	-1.125434	0.038118	99
Es	1.561085	0.278268	0.069521	99
Es	-3.315230	-0.774331	0.626343	99
Es	3.669614	1.414353	0.011724	99
Es	3.293139	0.852645	0.355554	99
Es	-1.570993	-1.094706	0.080723	99
Es	-2.212356	-1.090918	0.044552	99
Es	-3.262018	-1.833831	0.044445	99
Es	-1.355552	-1.373769	-0.420014	99
Es	0.370394	0.278275	0.069528	99
Es	4.408130	1.406661	0.013870	99
Es	2.242010	0.274118	0.069570	99
Es	-1.463382	-1.244402	0.353094	99
Es	-1.073253	0.278147	0.069525	99
Es	2.966673	0.278179	0.069530	99
Es	3.296079	-0.362461	0.103068	99
Es	-1.311491	0.642034	-0.531301	99
Es	-1.311883	0.637069	0.657775	99
Es	0.961287	0.638134	0.122375	99
Es	-3.293114	-0.796150	-0.589167	99
Es	3.347948	2.066909	-0.021437	99
42
Properties=species:S:1:pos:R:3:Z:I:1 energy=-286.9028592755577 field_type=dipole dipole="0.000000 0.000000 0.000000" charge=0
C	-3.025748	-1.125439	0.038116	6
N	-1.570748	-1.095039	0.081286	7
C	-1.073338	0.278271	0.069526	6
C	0.370662	0.278271	0.069526	6
C	1.560822	0.278271	0.069526	6
C	2.966822	0.278271	0.069526	6
C	3.669562	1.414281	0.011726	6
H	-3.369018	-2.164569	0.054676	1
H	-3.410998	-0.658769	-0.874294	1
H	-3.458308	-0.622239	0.908296	1
H	-1.196328	-1.585099	-0.730574	1
H	-1.441028	0.815251	0.951566	1
H	-1.441138	0.807731	-0.817414	1
H	3.480032	-0.677439	0.120856	1
H	3.184522	2.384400	-0.037444	1
H	4.754232	1.393851	0.015096	1
Es	-0.318984	0.278549	0.068252	99
Es	3.295777	-0.360092	0.103562	99
Es	-2.213779	-1.093549	0.048168	99
Es	3.348229	2.064371	-0.021860	99
Es	0.962173	-0.052128	-0.069025	99
Es	-1.468897	-1.236765	0.340197	99
Es	-3.314825	-0.774391	0.623996	99
Es	4.409673	1.407172	0.013187	99
Es	3.669614	1.414353	0.011728	99
Es	-1.311620	0.640813	-0.528086	99
Es	2.241076	0.274519	0.069007	99
Es	-1.570976	-1.094728	0.080740	99
Es	1.561089	0.278271	0.069522	99
Es	3.294841	0.820732	-0.272806	99
Es	-3.292698	-0.796558	-0.587179	99
Es	-1.349165	-0.479813	0.063418	99
Es	3.292869	0.852334	0.353584	99
Es	2.966672	0.278181	0.069533	99
Es	0.370389	0.278279	0.069521	99
Es	-3.025619	-1.125438	0.038117	99
Es	-1.311930	0.636093	0.654339	99
Es	1.006601	0.314257	0.391017	99
Es	-3.263930	-1.833843	0.044728	99
Es	0.974532	0.583560	-0.123262	99
Es	-1.073253	0.278146	0.069525	99
Es	-1.352665	-1.377382	-0.414781	99
42
Properties=species:S:1:pos:R:3:Z:I:1 energy=-286.9028592755577 field_type=dipole dipole="0.000000 0.000000 0.000000" charge=0
C	-3.025748	-1.125439	0.038116	6
N	-1.570748	-1.095039	0.081286	7
C	-1.073338	0.278271	0.069526	6
C	0.370662	0.278271	0.069526	6
C	1.560822	0.278271	0.069526	6
C	2.966822	0.278271	0.069526	6
C	3.669562	1.414281	0.011726	6
H	-3.369018	-2.164569	0.054676	1
H	-3.410998	-0.658769	-0.874294	1
H	-3.458308	-0.622239	0.908296	1
H	-1.196328	-1.585099	-0.730574	1
H	-1.441028	0.815251	0.951566	1
H	-1.441138	0.807731	-0.817414	1
H	3.480032	-0.677439	0.120856	1
H	3.184522	2.384400	-0.037444	1
H	4.754232	1.393851	0.015096	1
Es	-1.346041	-0.480594	0.067571	99
Es	1.004521	0.363613	0.370595	99
Es	1.561092	0.278279	0.069521	99
Es	3.348980	2.062253	-0.021701	99
Es	0.979980	0.553767	-0.158580	99
Es	3.294979	-0.357962	0.103790	99
Es	-1.311704	0.640282	-0.526013	99
Es	0.370384	0.278267	0.069525	99
Es	2.966673	0.278180	0.069513	99
Es	-1.571001	-1.094683	0.080684	99
Es	-1.073252	0.278148	0.069525	99
Es	-3.025614	-1.125432	0.038121	99
Es	-3.292403	-0.796722	-0.585800	99
Es	-1.348912	-1.382628	-0.408387	99
Es	3.294856	0.820542	-0.272267	99
Es	-3.265570	-1.833713	0.045339	99
Es	-1.311411	0.634951	0.651724	99
Es	2.240532	0.274482	0.069342	99
Es	3.292937	0.852437	0.352614	99
Es	-0.318267	0.279380	0.068116	99
Es	-2.214328	-1.094898	0.049086	99
Es	0.958766	-0.071754	-0.013257	99
Es	4.410486	1.407556	0.013268	99
Es	3.669613	1.414356	0.011722	99
Es	-3.314071	-0.774492	0.621963	99
Es	-1.476033	-1.228671	0.329128	99
42
Properties=species:S:1:pos:R:3:Z:I:1 energy=-286.9028592755577 field_type=dipole dipole="0.000000 0.000000 0.000000" charge=0
C	-3.025748	-1.125439	0.038116	6
N	-1.570748	-1.095039	0.081286	7
C	-1.073338	0.278271	0.069526	6
C	0.370662	0.278271	0.069526	6
C	1.560822	0.278271	0.069526	6
C	2.966822	0.278271	0.069526	6
C	3.669562	1.414281	0.011726	6
H	-3.369018	-2.164569	0.054676	1
H	-3.410998	-0.658769	-0.874294	1
H	-3.458308	-0.622239	0.908296	1
H	-1.196328	-1.585099	-0.730574	1
H	-1.441028	0.815251	0.951566	1
H	-1.441138	0.807731	-0.817414	1
H	3.480032	-0.677439	0.120856	1
H	3.184522	2.384400	-0.037444	1
H	4.754232	1.393851	0.015096	1
Es	3.294102	-0.356372	0.103851	99
Es	-1.342417	-0.482029	0.072663	99
Es	1.561093	0.278276	0.069523	99
Es	2.240196	0.274513	0.069296	99
Es	-1.571010	-1.094678	0.080666	99
Es	-1.311715	0.640048	-0.524404	99
Es	-3.025613	-1.125434	0.038117	99
Es	-1.073252	0.278148	0.069524	99
Es	-3.266853	-1.833555	0.045845	99
Es	0.981295	0.545985	-0.167130	99
Es	3.292447	0.852521	0.352709	99
Es	-1.345604	-1.388140	-0.400996	99
Es	-2.214618	-1.095669	0.049548	99
Es	0.370384	0.278272	0.069526	99
Es	0.958048	-0.075692	0.006631	99
Es	-0.317867	0.279937	0.068269	99
Es	3.669616	1.414352	0.011725	99
Es	-1.483805	-1.220218	0.316751	99
Es	3.349970	2.060307	-0.022121	99
Es	-3.313144	-0.775033	0.620366	99
Es	-1.310494	0.633892	0.649437	99
Es	-3.292362	-0.796387	-0.584796	99
Es	4.410933	1.407870	0.013254	99
Es	3.295280	0.820508	-0.271841	99
Es	2.966670	0.278179	0.069528	99
Es	1.003911	0.375343	0.359201	99
42
Properties=species:S:1:pos:R:3:Z:I:1 energy=-286.9028592755577 field_type=dipole dipole="0.000000 0.000000 0.000000" charge=0
C	-3.025748	-1.125439	0.038116	6
N	-1.570748	-1.095039	0.081286	7
C	-1.073338	0.278271	0.069526	6
C	0.370662	0.278271	0.069526	6
C	1.560822	0.278271	0.069526	6
C	2.966822	0.278271	0.069526	6
C	3.669562	1.414281	0.011726	6
H	-3.369018	-2.164569	0.054676	1
H	-3.410998	-0.658769	-0.874294	1
H	-3.458308	-0.622239	0.908296	1
H	-1.196328	-1.585099	-0.730574	1
H	-1.441028	0.815251	0.951566	1
H	-1.441138	0.807731	-0.817414	1
H	3.480032	-0.677439	0.120856	1
H	3.184522	2.384400	-0.037444	1
H	4.754232	1.393851	0.015096	1
Es	-3.268058	-1.833312	0.046396	99
Es	-1.570964	-1.094726	0.080779	99
Es	-0.317645	0.280329	0.068137	99
Es	3.669616	1.414352	0.011720	99
Es	-1.309582	0.633053	0.647565	99
Es	-2.214753	-1.096012	0.049967	99
Es	-3.292072	-0.796426	-0.583940	99
Es	-1.339141	-0.484049	0.078261	99
Es	-3.025611	-1.125440	0.038116	99
Es	1.561094	0.278277	0.069526	99
Es	-1.311770	0.639804	-0.523248	99
Es	0.957789	-0.076809	0.015102	99
Es	0.370383	0.278269	0.069524	99
Es	2.240011	0.274283	0.069427	99
Es	-1.490302	-1.212929	0.304982	99
Es	4.411202	1.408023	0.013188	99
Es	3.295581	0.820508	-0.272213	99
Es	2.966669	0.278179	0.069526	99
Es	3.293065	-0.354817	0.104105	99
Es	0.980942	0.547972	-0.166848	99
Es	1.004510	0.374595	0.350481	99
Es	-3.312442	-0.775106	0.618940	99
Es	3.351282	2.058357	-0.022510	99
Es	3.291891	0.852846	0.353256	99
Es	-1.343253	-1.392427	-0.394622	99
Es	-1.073252	0.278149	0.069524	99
42
Properties=species:S:1:pos:R:3:Z:I:1 energy=-286.9028592755577 field_type=dipole dipole="0.000000 0.000000 0.000000" charge=0
C	-3.025748	-1.125439	0.038116	6
N	-1.570748	-1.095039	0.081286	7
C	-1.073338	0.278271	0.069526	6
C	0.370662	0.278271	0.069526	6
C	1.560822	0.278271	0.069526	6
C	2.966822	0.278271	0.069526	6
C	3.669562	1.414281	0.011726	6
H	-3.369018	-2.164569	0.054676	1
H	-3.410998	-0.658769	-0.874294	1
H	-3.458308	-0.622239	0.908296	1
H	-1.196328	-1.585099	-0.730574	1
H	-1.441028	0.815251	0.951566	1
H	-1.441138	0.807731	-0.817414	1
H	3.480032	-0.677439	0.120856	1
H	3.184522	2.384400	-0.037444	1
H	4.754232	1.393851	0.015096	1
Es	-1.336322	-0.486339	0.083451	99
Es	3.669616	1.414352	0.011722	99
Es	-1.073252	0.278149	0.069523	99
Es	1.004896	0.372928	0.346906	99
Es	-2.214840	-1.096045	0.049874	99
Es	-1.570914	-1.094794	0.080925	99
Es	0.370382	0.278272	0.069521	99
Es	3.295873	0.820072	-0.273634	99
Es	-3.025613	-1.125423	0.038120	99
Es	-3.292369	-0.795996	-0.583684	99
Es	-1.308366	0.631994	0.645604	99
Es	3.291557	0.853534	0.354249	99
Es	3.291571	-0.353061	0.104783	99
Es	-3.268803	-1.833030	0.047295	99
Es	-3.311519	-0.775672	0.617817	99
Es	3.352818	2.056283	-0.022902	99
Es	2.239916	0.274069	0.069695	99
Es	1.561095	0.278277	0.069527	99
Es	0.980691	0.549313	-0.166473	99
Es	-1.498078	-1.203040	0.290199	99
Es	-0.317522	0.280718	0.068276	99
Es	4.411370	1.408108	0.013099	99
Es	-1.311951	0.639869	-0.522376	99
Es	-1.339359	-1.399345	-0.384184	99
Es	2.966668	0.278178	0.069532	99
Es	0.957645	-0.076429	0.018275	99
42
Properties=species:S:1:pos:R:3:Z:I:1 energy=-286.9028592755577 field_type=dipole dipole="0.000000 0.000000 0.000000" charge=0
C	-3.025748	-1.125439	0.038116	6
N	-1.570748	-1.095039	0.081286	7
C	-1.073338	0.278271	0.069526	6
C	0.370662	0.278271	0.069526	6
C	1.560822	0.278271	0.069526	6
C	2.966822	0.278271	0.069526	6
C	3.669562	1.414281	0.011726	6
H	-3.369018	-2.164569	0.054676	1
H	-3.410998	-0.658769	-0.874294	1
H	-3.458308	-0.622239	0.908296	1
H	-1.196328	-1.585099	-0.730574	1
H	-1.441028	0.815251	0.951566	1
H	-1.441138	0.807731	-0.817414	1
H	3.480032	-0.677439	0.120856	1
H	3.184522	2.384400	-0.037444	1
H	4.754232	1.393851	0.015096	1
Es	-3.025614	-1.125435	0.038113	99
Es	-1.504345	-1.194479	0.275299	99
Es	-3.269743	-1.832799	0.047462	99
Es	-1.307170	0.630918	0.644035	99
Es	-3.292118	-0.795775	-0.582948	99
Es	3.353789	2.054974	-0.022697	99
Es	3.295763	0.819925	-0.274213	99
Es	0.983903	0.529176	-0.184538	99
Es	-1.073253	0.278156	0.069527	99
Es	-2.214869	-1.096278	0.050265	99
Es	1.561095	0.278273	0.069513	99
Es	-1.333371	-0.489208	0.089169	99
Es	2.966668	0.278179	0.069532	99
Es	3.290819	-0.352156	0.104926	99
Es	0.957368	-0.079874	0.047657	99
Es	4.411468	1.408086	0.013242	99
Es	-1.336881	-1.404379	-0.374318	99
Es	-3.310927	-0.775911	0.616873	99
Es	-1.571020	-1.094653	0.080621	99
Es	3.669617	1.414352	0.011723	99
Es	2.239845	0.274026	0.069745	99
Es	-0.317463	0.281047	0.068187	99
Es	1.001955	0.396552	0.335554	99
Es	0.370382	0.278268	0.069521	99
Es	3.291485	0.853849	0.354489	99
Es	-1.312192	0.640113	-0.521599	99
42
Properties=species:S:1:pos:R:3:Z:I:1 energy=-286.9028592755577 field_type=dipole dipole="0.000000 0.000000 0.000000" charge=0
C	-3.025748	-1.125439	0.038116	6
N	-1.570748	-1.095039	0.081286	7
C	-1.073338	0.278271	0.069526	6
C	0.370662	0.278271	0.069526	6
C	1.560822	0.278271	0.069526	6
C	2.966822	0.278271	0.069526	6
C	3.669562	1.414281	0.011726	6
H	-3.369018	-2.164569	0.054676	1
H	-3.410998	-0.658769	-0.874294	1
H	-3.458308	-0.622239	0.908296	1
H	-1.196328	-1.585099	-0.730574	1
H	-1.441028	0.815251	0.951566	1
H	-1.441138	0.807731	-0.817414	1
H	3.480032	-0.677439	0.120856	1
H	3.184522	2.384400	-0.037444	1
H	4.754232	1.393851	0.015096	1
Es	-0.317428	0.281270	0.068202	99
Es	2.966668	0.278179	0.069531	99
Es	1.004691	0.378213	0.335219	99
Es	1.561096	0.278269	0.069511	99
Es	-1.570999	-1.094682	0.080695	99
Es	-1.335977	-1.407115	-0.366849	99
Es	-3.310614	-0.775875	0.616212	99
Es	3.669617	1.414350	0.011718	99
Es	-2.214910	-1.096293	0.050624	99
Es	-1.331014	-0.491896	0.093275	99
Es	2.239812	0.273926	0.069662	99
Es	3.289273	-0.350604	0.105408	99
Es	-3.025614	-1.125435	0.038117	99
Es	-1.073252	0.278150	0.069524	99
Es	3.296142	0.819889	-0.275923	99
Es	0.957354	-0.078214	0.035214	99
Es	-1.508411	-1.188459	0.264063	99
Es	-1.311926	0.639795	-0.521098	99
Es	-3.292140	-0.795931	-0.582974	99
Es	0.981174	0.545882	-0.171676	99
Es	3.290732	0.854710	0.356226	99
Es	0.370382	0.278265	0.069524	99
Es	4.411544	1.407982	0.012979	99
Es	-1.306624	0.630586	0.642897	99
Es	-3.270096	-1.832509	0.048166	99
Es	3.355711	2.052491	-0.023107	99
42
Properties=species:S:1:pos:R:3:Z:I:1 energy=-286.9028592755577 field_type=dipole dipole="0.000000 0.000000 0.000000" charge=0
C	-3.025748	-1.125439	0.038116	6
N	-1.570748	-1.095039	0.081286	7
C	-1.073338	0.278271	0.069526	6
C	0.370662	0.278271	0.069526	6
C	1.560822	0.278271	0.069526	6
C	2.966822	0.278271	0.069526	6
C	3.669562	1.414281	0.011726	6
H	-3.369018	-2.164569	0.054676	1
H	-3.410998	-0.658769	-0.874294	1
H	-3.458308	-0.622239	0.908296	1
H	-1.196328	-1.585099	-0.730574	1
H	-1.441028	0.815251	0.951566	1
H	-1.441138	0.807731	-0.817414	1
H	3.480032	-0.677439	0.120856	1
H	3.184522	2.384400	-0.037444	1
H	4.754232	1.393851	0.015096	1
Es	-1.332980	-1.412532	-0.353697	99
Es	0.370381	0.278271	0.069522	99
Es	-3.025612	-1.125427	0.038111	99
Es	-1.312114	0.640024	-0.520693	99
Es	4.411586	1.407893	0.012893	99
Es	3.287942	-0.349142	0.105921	99
Es	-1.329325	-0.494203	0.097554	99
Es	2.966668	0.278177	0.069523	99
Es	3.669617	1.414352	0.011715	99
Es	0.957255	-0.078246	0.044122	99
Es	3.296703	0.819396	-0.277212	99
Es	3.356828	2.050925	-0.023428	99
Es	-2.214895	-1.096657	0.050903	99
Es	-1.305831	0.629817	0.641931	99
Es	0.982382	0.538042	-0.179289	99
Es	3.290392	0.855256	0.357309	99
Es	-3.310083	-0.776156	0.615564	99
Es	1.003579	0.386088	0.333970	99
Es	1.561095	0.278277	0.069518	99
Es	-0.317407	0.281424	0.068196	99
Es	-1.513666	-1.180037	0.246977	99
Es	-3.270636	-1.832303	0.048580	99
Es	-1.073257	0.278159	0.069528	99
Es	2.239794	0.273846	0.069759	99
Es	-1.571046	-1.094616	0.080546	99
Es	-3.292179	-0.795684	-0.582682	99
42
Properties=species:S:1:pos:R:3:Z:I:1 energy=-286.9028592755577 field_type=dipole dipole="0.000000 0.000000 0.000000" charge=0
C	-3.025748	-1.125439	0.038116	6
N	-1.570748	-1.095039	0.081286	7
C	-1.073338	0.278271	0.069526	6
C	0.370662	0.278271	0.069526	6
C	1.560822	0.278271	0.069526	6
C	2.966822	0.278271	0.069526	6
C	3.669562	1.414281	0.011726	6
H	-3.369018	-2.164569	0.054676	1
H	-3.410998	-0.658769	-0.874294	1
H	-3.458308	-0.622239	0.908296	1
H	-1.196328	-1.585099	-0.730574	1
H	-1.441028	0.815251	0.951566	1
H	-1.441138	0.807731	-0.817414	1
H	3.480032	-0.677439	0.120856	1
H	3.184522	2.384400	-0.037444	1
H	4.754232	1.393851	0.015096	1
Es	0.983306	0.532236	-0.183603	99
Es	1.002621	0.393090	0.329898	99
Es	3.357996	2.049260	-0.023398	99
Es	3.287434	-0.348524	0.106156	99
Es	3.669617	1.414351	0.011721	99
Es	-1.570920	-1.094783	0.080886	99
Es	-1.332385	-1.414880	-0.344645	99
Es	-3.271037	-1.832123	0.048986	99
Es	4.411623	1.407798	0.012853	99
Es	-2.214928	-1.096432	0.051053	99
Es	3.296542	0.819613	-0.278055	99
Es	-1.312091	0.640056	-0.520182	99
Es	0.957283	-0.079358	0.052514	99
Es	-1.516941	-1.174581	0.234774	99
Es	-3.291862	-0.796126	-0.582555	99
Es	1.561095	0.278276	0.069518	99
Es	2.239779	0.273777	0.069677	99
Es	-3.310030	-0.775749	0.615055	99
Es	-1.073256	0.278167	0.069527	99
Es	-1.327464	-0.496880	0.100699	99
Es	3.289902	0.855989	0.357896	99
Es	2.966667	0.278179	0.069529	99
Es	-0.317390	0.281529	0.068181	99
Es	-1.305137	0.629214	0.641002	99
Es	0.370382	0.278267	0.069524	99
Es	-3.025612	-1.125422	0.038130	99
42
Properties=species:S:1:pos:R:3:Z:I:1 energy=-286.9028592755577 field_type=dipole dipole="0.000000 0.000000 0.000000" charge=0
C	-3.025748	-1.125439	0.038116	6
N	-1.570748	-1.095039	0.081286	7
C	-1.073338	0.278271	0.069526	6
C	0.370662	0.278271	0.069526	6
C	1.560822	0.278271	0.069526	6
C	2.966822	0.278271	0.069526	6
C	3.669562	1.414281	0.011726	6
H	-3.369018	-2.164569	0.054676	1
H	-3.410998	-0.658769	-0.874294	1
H	-3.458308	-0.622239	0.908296	1
H	-1.196328	-1.585099	-0.730574	1
H	-1.441028	0.815251	0.951566	1
H	-1.441138	0.807731	-0.817414	1
H	3.480032	-0.677439	0.120856	1
H	3.184522	2.384400	-0.037444	1
H	4.754232	1.393851	0.015096	1
Es	3.359341	2.047121	-0.023614	99
Es	4.411648	1.407781	0.012726	99
Es	-3.270900	-1.831957	0.048611	99
Es	3.286346	-0.347167	0.106328	99
Es	-3.291875	-0.796074	-0.582435	99
Es	-1.331887	-1.416289	-0.339271	99
Es	3.296736	0.819550	-0.279232	99
Es	2.239762	0.273654	0.069628	99
Es	-1.073254	0.278158	0.069528	99
Es	-1.570774	-1.094974	0.081126	99
Es	-3.310186	-0.775821	0.615349	99
Es	-2.214931	-1.096406	0.051281	99
Es	-1.311335	0.639260	-0.519931	99
Es	-0.317374	0.281526	0.068040	99
Es	-3.025612	-1.125427	0.038128	99
Es	2.966667	0.278179	0.069541	99
Es	0.370381	0.278272	0.069524	99
Es	-1.519173	-1.170540	0.225927	99
Es	1.561096	0.278276	0.069523	99
Es	-1.305309	0.629512	0.640382	99
Es	1.004865	0.378817	0.327154	99
Es	0.957213	-0.078065	0.046204	99
Es	3.669618	1.414349	0.011723	99
Es	0.981129	0.545278	-0.174435	99
Es	3.289461	0.856780	0.359115	99
Es	-1.326463	-0.498850	0.104223	99
