40
Properties=species:S:1:pos:R:3:Z:I:1 energy=-269.7394535694882 field_type=dipole dipole="0.000000 0.000000 0.000000" charge=0
C	-2.654627	-0.000265	0.860210	6
C	-1.464467	-0.000265	0.860210	6
C	-0.020468	-0.000265	0.860210	6
C	0.537193	-1.219855	0.098810	6
C	0.859323	-0.668085	-1.254880	6
C	0.860173	0.668975	-1.254830	6
C	0.537343	1.219045	0.101020	6
H	-3.720307	-0.000265	0.856070	1
H	0.338003	-0.000955	1.896310	1
H	-0.177697	-2.046415	0.034760	1
H	1.457093	-1.587995	0.565570	1
H	1.082552	-1.285025	-2.114790	1
H	1.083903	1.287215	-2.113280	1
H	1.458573	1.586975	0.567630	1
H	-0.176587	2.047185	0.036980	1
Es	0.203989	-0.000676	1.560874	99
Es	0.859320	-0.668217	-1.254855	99
Es	0.054539	1.778011	0.060721	99
Es	1.164569	-1.462407	0.415067	99
Es	0.053814	-1.777797	0.058252	99
Es	0.537342	1.218991	0.101013	99
Es	-2.075194	0.316536	1.032942	99
Es	-2.074994	-0.308704	1.048099	99
Es	-0.020569	-0.000265	0.860171	99
Es	0.696494	0.975336	-0.591604	99
Es	0.860167	0.669106	-1.254806	99
Es	-0.771457	-0.000260	0.855779	99
Es	0.234547	-0.614914	0.498690	99
Es	-1.464211	-0.000264	0.860218	99
Es	-2.070907	-0.008583	0.500751	99
Es	0.696170	-0.975120	-0.592659	99
Es	1.012226	1.099399	-1.830898	99
Es	-2.654888	-0.000270	0.860211	99
Es	-3.351899	-0.000307	0.857889	99
Es	0.544067	0.000614	-1.354970	99
Es	1.011236	-1.097790	-1.831781	99
Es	1.174508	0.000244	-1.194857	99
Es	1.165506	1.461228	0.417248	99
Es	0.537192	-1.219800	0.098803	99
Es	0.234508	0.614227	0.499794	99
40
Properties=species:S:1:pos:R:3:Z:I:1 energy=-269.7394535694882 field_type=dipole dipole="0.000000 0.000000 0.000000" charge=0
C	-2.654627	-0.000265	0.860210	6
C	-1.464467	-0.000265	0.860210	6
C	-0.020468	-0.000265	0.860210	6
C	0.537193	-1.219855	0.098810	6
C	0.859323	-0.668085	-1.254880	6
C	0.860173	0.668975	-1.254830	6
C	0.537343	1.219045	0.101020	6
H	-3.720307	-0.000265	0.856070	1
H	0.338003	-0.000955	1.896310	1
H	-0.177697	-2.046415	0.034760	1
H	1.457093	-1.587995	0.565570	1
H	1.082552	-1.285025	-2.114790	1
H	1.083903	1.287215	-2.113280	1
H	1.458573	1.586975	0.567630	1
H	-0.176587	2.047185	0.036980	1
Es	0.694141	-0.975561	-0.591585	99
Es	-0.020565	-0.000265	0.860174	99
Es	0.203741	-0.000782	1.557330	99
Es	-0.773377	-0.000294	0.856723	99
Es	-2.074359	-0.269072	1.096576	99
Es	0.694608	0.975808	-0.590427	99
Es	0.860174	0.669102	-1.254807	99
Es	0.537192	-1.219800	0.098804	99
Es	0.859323	-0.668213	-1.254855	99
Es	0.052325	-1.778524	0.056849	99
Es	1.011493	-1.098042	-1.829517	99
Es	1.167104	-1.461960	0.414344	99
Es	-2.654899	-0.000268	0.860208	99
Es	0.236507	0.613656	0.499602	99
Es	1.012722	1.099579	-1.828515	99
Es	-2.071657	-0.081523	0.523407	99
Es	0.053005	1.778563	0.059273	99
Es	0.537343	1.218991	0.101013	99
Es	1.180598	0.000266	-1.191919	99
Es	-1.464202	-0.000266	0.860209	99
Es	1.168015	1.460949	0.416649	99
Es	-2.074879	0.350171	0.962442	99
Es	0.236371	-0.614250	0.498503	99
Es	-3.353204	-0.000565	0.857298	99
Es	0.538553	0.000617	-1.357685	99
40
Properties=species:S:1:pos:R:3:Z:I:1 energy=-269.7394535694882 field_type=dipole dipole="0.000000 0.000000 0.000000" charge=0
C	-2.654627	-0.000265	0.860210	6
C	-1.464467	-0.000265	0.860210	6
C	-0.020468	-0.000265	0.860210	6
C	0.537193	-1.219855	0.098810	6
C	0.859323	-0.668085	-1.254880	6
C	0.860173	0.668975	-1.254830	6
C	0.537343	1.219045	0.101020	6
H	-3.720307	-0.000265	0.856070	1
H	0.338003	-0.000955	1.896310	1
H	-0.177697	-2.046415	0.034760	1
H	1.457093	-1.587995	0.565570	1
H	1.082552	-1.285025	-2.114790	1
H	1.083903	1.287215	-2.113280	1
H	1.458573	1.586975	0.567630	1
H	-0.176587	2.047185	0.036980	1
Es	0.537192	-1.219800	0.098804	99
Es	0.203182	-0.000796	1.554761	99
Es	0.052199	1.778772	0.058232	99
Es	0.051470	-1.778705	0.056042	99
Es	-2.074378	-0.328134	1.019251	99
Es	-2.654904	-0.000264	0.860214	99
Es	0.237608	-0.613989	0.498442	99
Es	-2.072066	0.009686	0.526673	99
Es	-3.353790	-0.000246	0.857273	99
Es	1.184032	0.000275	-1.189995	99
Es	-1.464199	-0.000265	0.860219	99
Es	0.692702	-0.976002	-0.590609	99
Es	0.535363	0.000626	-1.359655	99
Es	0.860170	0.669102	-1.254805	99
Es	-0.020567	-0.000265	0.860171	99
Es	0.693347	0.976069	-0.589490	99
Es	-0.774475	-0.000142	0.857196	99
Es	0.537343	1.218991	0.101012	99
Es	0.237668	0.613407	0.499599	99
Es	1.168818	-1.461650	0.413743	99
Es	1.012959	1.099600	-1.827015	99
Es	1.169604	1.460683	0.416126	99
Es	-2.074357	0.317520	1.036748	99
Es	0.859319	-0.668213	-1.254856	99
Es	1.011834	-1.097941	-1.827988	99
40
Properties=species:S:1:pos:R:3:Z:I:1 energy=-269.7394535694882 field_type=dipole dipole="0.000000 0.000000 0.000000" charge=0
C	-2.654627	-0.000265	0.860210	6
C	-1.464467	-0.000265	0.860210	6
C	-0.020468	-0.000265	0.860210	6
C	0.537193	-1.219855	0.098810	6
C	0.859323	-0.668085	-1.254880	6
C	0.860173	0.668975	-1.254830	6
C	0.537343	1.219045	0.101020	6
H	-3.720307	-0.000265	0.856070	1
H	0.338003	-0.000955	1.896310	1
H	-0.177697	-2.046415	0.034760	1
H	1.457093	-1.587995	0.565570	1
H	1.082552	-1.285025	-2.114790	1
H	1.083903	1.287215	-2.113280	1
H	1.458573	1.586975	0.567630	1
H	-0.176587	2.047185	0.036980	1
Es	0.692288	0.976339	-0.588742	99
Es	0.238579	0.613206	0.499699	99
Es	-0.020567	-0.000265	0.860170	99
Es	-2.072420	0.004009	0.533748	99
Es	0.537192	-1.219799	0.098803	99
Es	1.170868	1.460455	0.415540	99
Es	0.860169	0.669100	-1.254806	99
Es	0.533163	0.000633	-1.360883	99
Es	-1.464201	-0.000267	0.860208	99
Es	0.537343	1.218991	0.101013	99
Es	0.050901	-1.778637	0.055408	99
Es	1.013134	1.099519	-1.825968	99
Es	0.202658	-0.000811	1.552992	99
Es	-2.654906	-0.000266	0.860207	99
Es	-2.074142	0.322683	1.028374	99
Es	-3.354175	-0.000285	0.857576	99
Es	1.186420	0.000259	-1.188760	99
Es	0.691879	-0.976258	-0.590016	99
Es	0.051598	1.778783	0.057777	99
Es	-0.775171	-0.000235	0.857184	99
Es	0.859315	-0.668210	-1.254857	99
Es	1.011863	-1.097863	-1.826941	99
Es	1.169903	-1.461555	0.413345	99
Es	-2.074148	-0.327464	1.020621	99
Es	0.238533	-0.613741	0.498399	99
40
Properties=species:S:1:pos:R:3:Z:I:1 energy=-269.7394535694882 field_type=dipole dipole="0.000000 0.000000 0.000000" charge=0
C	-2.654627	-0.000265	0.860210	6
C	-1.464467	-0.000265	0.860210	6
C	-0.020468	-0.000265	0.860210	6
C	0.537193	-1.219855	0.098810	6
C	0.859323	-0.668085	-1.254880	6
C	0.860173	0.668975	-1.254830	6
C	0.537343	1.219045	0.101020	6
H	-3.720307	-0.000265	0.856070	1
H	0.338003	-0.000955	1.896310	1
H	-0.177697	-2.046415	0.034760	1
H	1.457093	-1.587995	0.565570	1
H	1.082552	-1.285025	-2.114790	1
H	1.083903	1.287215	-2.113280	1
H	1.458573	1.586975	0.567630	1
H	-0.176587	2.047185	0.036980	1
Es	-1.464193	-0.000265	0.860212	99
Es	0.531681	0.000591	-1.362045	99
Es	0.859318	-0.668205	-1.254853	99
Es	1.012176	-1.097703	-1.826048	99
Es	-0.020568	-0.000265	0.860170	99
Es	0.051214	1.778804	0.057444	99
Es	-0.775677	-0.000128	0.857553	99
Es	0.050491	-1.778638	0.054985	99
Es	1.171778	1.460231	0.414988	99
Es	-3.354399	-0.000191	0.857862	99
Es	-2.654901	-0.000263	0.860208	99
Es	-2.073976	-0.335098	1.006628	99
Es	0.537342	1.218990	0.101013	99
Es	0.239079	-0.613602	0.498582	99
Es	0.202355	-0.000793	1.551485	99
Es	1.170820	-1.461362	0.412813	99
Es	0.860180	0.669102	-1.254804	99
Es	0.239266	0.613031	0.499615	99
Es	-2.072649	0.017549	0.538697	99
Es	1.013265	1.099460	-1.825219	99
Es	0.537192	-1.219799	0.098804	99
Es	-2.074065	0.316527	1.037284	99
Es	1.188156	0.000263	-1.187465	99
Es	0.690915	-0.976445	-0.589479	99
Es	0.691274	0.976526	-0.588336	99
40
Properties=species:S:1:pos:R:3:Z:I:1 energy=-269.7394535694882 field_type=dipole dipole="0.000000 0.000000 0.000000" charge=0
C	-2.654627	-0.000265	0.860210	6
C	-1.464467	-0.000265	0.860210	6
C	-0.020468	-0.000265	0.860210	6
C	0.537193	-1.219855	0.098810	6
C	0.859323	-0.668085	-1.254880	6
C	0.860173	0.668975	-1.254830	6
C	0.537343	1.219045	0.101020	6
H	-3.720307	-0.000265	0.856070	1
H	0.338003	-0.000955	1.896310	1
H	-0.177697	-2.046415	0.034760	1
H	1.457093	-1.587995	0.565570	1
H	1.082552	-1.285025	-2.114790	1
H	1.083903	1.287215	-2.113280	1
H	1.458573	1.586975	0.567630	1
H	-0.176587	2.047185	0.036980	1
Es	-0.775934	-0.000245	0.858428	99
Es	-2.654908	-0.000258	0.860211	99
Es	0.859319	-0.668211	-1.254853	99
Es	0.239685	0.612899	0.499750	99
Es	0.860178	0.669096	-1.254800	99
Es	1.012303	-1.097645	-1.825505	99
Es	-1.464193	-0.000251	0.860200	99
Es	0.201968	-0.000725	1.550580	99
Es	1.171405	-1.461252	0.412479	99
Es	-0.020568	-0.000265	0.860170	99
Es	-2.073390	-0.322453	0.698091	99
Es	0.537193	-1.219797	0.098803	99
Es	0.537343	1.218990	0.101013	99
Es	1.172440	1.460115	0.414663	99
Es	1.013426	1.099338	-1.824632	99
Es	-2.073898	-0.005710	1.174417	99
Es	-3.354555	-0.000371	0.859704	99
Es	0.690765	0.976688	-0.587889	99
Es	0.050248	-1.778566	0.054855	99
Es	0.050927	1.778702	0.057277	99
Es	0.690331	-0.976610	-0.589160	99
Es	-2.073404	0.327409	0.707394	99
Es	0.239657	-0.613423	0.498682	99
Es	0.530671	0.000607	-1.362840	99
Es	1.189068	0.000258	-1.186946	99
40
Properties=species:S:1:pos:R:3:Z:I:1 energy=-269.7394535694882 field_type=dipole dipole="0.000000 0.000000 0.000000" charge=0
C	-2.654627	-0.000265	0.860210	6
C	-1.464467	-0.000265	0.860210	6
C	-0.020468	-0.000265	0.860210	6
C	0.537193	-1.219855	0.098810	6
C	0.859323	-0.668085	-1.254880	6
C	0.860173	0.668975	-1.254830	6
C	0.537343	1.219045	0.101020	6
H	-3.720307	-0.000265	0.856070	1
H	0.338003	-0.000955	1.896310	1
H	-0.177697	-2.046415	0.034760	1
H	1.457093	-1.587995	0.565570	1
H	1.082552	-1.285025	-2.114790	1
H	1.083903	1.287215	-2.113280	1
H	1.458573	1.586975	0.567630	1
H	-0.176587	2.047185	0.036980	1
Es	-1.464195	-0.000260	0.860213	99
Es	-2.073807	0.325089	1.023465	99
Es	0.860170	0.669100	-1.254805	99
Es	0.537343	1.218990	0.101013	99
Es	0.201598	-0.000733	1.549470	99
Es	0.537193	-1.219801	0.098802	99
Es	1.013673	1.099061	-1.823960	99
Es	0.689422	-0.976856	-0.588818	99
Es	-3.354685	-0.000179	0.858518	99
Es	-2.073872	-0.330025	1.014738	99
Es	1.173111	1.459942	0.414168	99
Es	1.172229	-1.461011	0.411924	99
Es	-0.776336	-0.000211	0.857426	99
Es	-0.020568	-0.000266	0.860170	99
Es	0.689958	0.977030	-0.587556	99
Es	-2.654903	-0.000257	0.860196	99
Es	1.190299	0.000265	-1.185967	99
Es	1.012498	-1.097355	-1.824848	99
Es	0.050672	1.778660	0.057109	99
Es	0.240182	-0.613534	0.498777	99
Es	-2.072929	0.003991	0.544207	99
Es	0.240220	0.612787	0.499792	99
Es	0.049954	-1.778508	0.054789	99
Es	0.859319	-0.668211	-1.254858	99
Es	0.529530	0.000611	-1.363872	99
40
Properties=species:S:1:pos:R:3:Z:I:1 energy=-269.7394535694882 field_type=dipole dipole="0.000000 0.000000 0.000000" charge=0
C	-2.654627	-0.000265	0.860210	6
C	-1.464467	-0.000265	0.860210	6
C	-0.020468	-0.000265	0.860210	6
C	0.537193	-1.219855	0.098810	6
C	0.859323	-0.668085	-1.254880	6
C	0.860173	0.668975	-1.254830	6
C	0.537343	1.219045	0.101020	6
H	-3.720307	-0.000265	0.856070	1
H	0.338003	-0.000955	1.896310	1
H	-0.177697	-2.046415	0.034760	1
H	1.457093	-1.587995	0.565570	1
H	1.082552	-1.285025	-2.114790	1
H	1.083903	1.287215	-2.113280	1
H	1.458573	1.586975	0.567630	1
H	-0.176587	2.047185	0.036980	1
Es	-0.776517	-0.000153	0.857539	99
Es	0.860172	0.669098	-1.254803	99
Es	0.240352	-0.613420	0.498696	99
Es	-1.464193	-0.000265	0.860208	99
Es	-2.073808	-0.326045	1.021582	99
Es	0.201419	-0.000822	1.548703	99
Es	0.528770	0.000613	-1.364557	99
Es	0.689275	0.977069	-0.587304	99
Es	1.013864	1.098897	-1.823464	99
Es	0.537192	-1.219799	0.098804	99
Es	1.172713	-1.460885	0.411575	99
Es	0.688906	-0.976821	-0.588583	99
Es	0.240594	0.612909	0.499918	99
Es	0.859325	-0.668205	-1.254854	99
Es	0.537343	1.218991	0.101013	99
Es	-2.072997	-0.003852	0.545421	99
Es	1.012621	-1.097424	-1.824428	99
Es	-2.073808	0.329132	1.015321	99
Es	1.173686	1.459859	0.413806	99
Es	-2.654905	-0.000265	0.860207	99
Es	0.050440	1.778527	0.056976	99
Es	-3.354764	-0.000322	0.858771	99
Es	0.049798	-1.778482	0.054526	99
Es	-0.020567	-0.000265	0.860173	99
Es	1.191164	0.000249	-1.185153	99
40
Properties=species:S:1:pos:R:3:Z:I:1 energy=-269.7394535694882 field_type=dipole dipole="0.000000 0.000000 0.000000" charge=0
C	-2.654627	-0.000265	0.860210	6
C	-1.464467	-0.000265	0.860210	6
C	-0.020468	-0.000265	0.860210	6
C	0.537193	-1.219855	0.098810	6
C	0.859323	-0.668085	-1.254880	6
C	0.860173	0.668975	-1.254830	6
C	0.537343	1.219045	0.101020	6
H	-3.720307	-0.000265	0.856070	1
H	0.338003	-0.000955	1.896310	1
H	-0.177697	-2.046415	0.034760	1
H	1.457093	-1.587995	0.565570	1
H	1.082552	-1.285025	-2.114790	1
H	1.083903	1.287215	-2.113280	1
H	1.458573	1.586975	0.567630	1
H	-0.176587	2.047185	0.036980	1
Es	-2.073753	-0.326373	1.020496	99
Es	0.688492	-0.976924	-0.588327	99
Es	-2.073769	0.329013	1.014950	99
Es	1.013835	1.098736	-1.823007	99
Es	1.173136	-1.460779	0.411178	99
Es	0.201112	-0.000722	1.548002	99
Es	0.049552	-1.778420	0.054498	99
Es	0.050271	1.778513	0.056938	99
Es	-1.464192	-0.000263	0.860205	99
Es	0.537192	-1.219797	0.098802	99
Es	0.527964	0.000622	-1.365134	99
Es	-0.020567	-0.000265	0.860170	99
Es	0.240895	0.612914	0.499946	99
Es	1.191928	0.000253	-1.184906	99
Es	-2.073065	-0.003346	0.546714	99
Es	-0.776689	-0.000227	0.857519	99
Es	0.537342	1.218989	0.101014	99
Es	0.240843	-0.613522	0.498949	99
Es	0.860167	0.669099	-1.254805	99
Es	-2.654906	-0.000263	0.860214	99
Es	1.012722	-1.097204	-1.823980	99
Es	0.689128	0.977145	-0.587204	99
Es	-3.354847	-0.000365	0.859073	99
Es	0.859316	-0.668215	-1.254857	99
Es	1.173969	1.459718	0.413645	99
40
Properties=species:S:1:pos:R:3:Z:I:1 energy=-269.7394535694882 field_type=dipole dipole="0.000000 0.000000 0.000000" charge=0
C	-2.654627	-0.000265	0.860210	6
C	-1.464467	-0.000265	0.860210	6
C	-0.020468	-0.000265	0.860210	6
C	0.537193	-1.219855	0.098810	6
C	0.859323	-0.668085	-1.254880	6
C	0.860173	0.668975	-1.254830	6
C	0.537343	1.219045	0.101020	6
H	-3.720307	-0.000265	0.856070	1
H	0.338003	-0.000955	1.896310	1
H	-0.177697	-2.046415	0.034760	1
H	1.457093	-1.587995	0.565570	1
H	1.082552	-1.285025	-2.114790	1
H	1.083903	1.287215	-2.113280	1
H	1.458573	1.586975	0.567630	1
H	-0.176587	2.047185	0.036980	1
Es	0.859321	-0.668204	-1.254855	99
Es	1.013744	1.099041	-1.823155	99
Es	0.527780	0.000479	-1.365499	99
Es	0.688226	-0.977287	-0.588104	99
Es	0.241204	0.612740	0.500132	99
Es	-2.073223	-0.303094	0.669931	99
Es	0.241125	-0.613411	0.499090	99
Es	0.860165	0.669096	-1.254807	99
Es	1.192494	0.000328	-1.184366	99
Es	1.012788	-1.096749	-1.823438	99
Es	-0.776794	-0.000746	0.858315	99
Es	0.537343	1.218989	0.101013	99
Es	-1.464193	-0.000264	0.860213	99
Es	0.049381	-1.778283	0.054647	99
Es	-2.654907	-0.000263	0.860200	99
Es	1.173322	-1.460772	0.411183	99
Es	-0.020568	-0.000265	0.860169	99
Es	0.050206	1.778662	0.056668	99
Es	0.200869	-0.000819	1.547426	99
Es	1.174416	1.459512	0.412911	99
Es	0.537193	-1.219800	0.098804	99
Es	-3.354858	-0.000644	0.860456	99
Es	0.688480	0.977082	-0.586915	99
Es	-2.073432	0.342762	0.742359	99
Es	-2.074008	-0.039772	1.167716	99
40
Properties=species:S:1:pos:R:3:Z:I:1 energy=-269.7394535694882 field_type=dipole dipole="0.000000 0.000000 0.000000" charge=0
C	-2.654627	-0.000265	0.860210	6
C	-1.464467	-0.000265	0.860210	6
C	-0.020468	-0.000265	0.860210	6
C	0.537193	-1.219855	0.098810	6
C	0.859323	-0.668085	-1.254880	6
C	0.860173	0.668975	-1.254830	6
C	0.537343	1.219045	0.101020	6
H	-3.720307	-0.000265	0.856070	1
H	0.338003	-0.000955	1.896310	1
H	-0.177697	-2.046415	0.034760	1
H	1.457093	-1.587995	0.565570	1
H	1.082552	-1.285025	-2.114790	1
H	1.083903	1.287215	-2.113280	1
H	1.458573	1.586975	0.567630	1
H	-0.176587	2.047185	0.036980	1
Es	0.537192	-1.219799	0.098804	99
Es	-2.654909	-0.000264	0.860224	99
Es	0.199904	-0.000735	1.545839	99
Es	0.688530	0.977806	-0.586248	99
Es	-2.073442	-0.358322	0.788808	99
Es	1.012497	-1.097778	-1.823956	99
Es	-0.020567	-0.000266	0.860169	99
Es	0.860172	0.669096	-1.254806	99
Es	-0.776862	0.000514	0.858624	99
Es	1.014144	1.098103	-1.821934	99
Es	0.049410	-1.778657	0.053912	99
Es	1.174131	-1.460345	0.409698	99
Es	1.193096	0.000128	-1.183918	99
Es	-2.074020	0.092731	1.163513	99
Es	-2.073196	0.263536	0.627817	99
Es	-3.354878	0.000375	0.860432	99
Es	0.241754	0.613199	0.500593	99
Es	0.537343	1.218990	0.101013	99
Es	-1.464193	-0.000265	0.860214	99
Es	1.174615	1.459532	0.412997	99
Es	0.527009	0.000904	-1.365736	99
Es	0.241662	-0.613395	0.499286	99
Es	0.687405	-0.977037	-0.587297	99
Es	0.859316	-0.668206	-1.254853	99
Es	0.049961	1.778471	0.056897	99
40
Properties=species:S:1:pos:R:3:Z:I:1 energy=-269.7394535694882 field_type=dipole dipole="0.000000 0.000000 0.000000" charge=0
C	-2.654627	-0.000265	0.860210	6
C	-1.464467	-0.000265	0.860210	6
C	-0.020468	-0.000265	0.860210	6
C	0.537193	-1.219855	0.098810	6
C	0.859323	-0.668085	-1.254880	6
C	0.860173	0.668975	-1.254830	6
C	0.537343	1.219045	0.101020	6
H	-3.720307	-0.000265	0.856070	1
H	0.338003	-0.000955	1.896310	1
H	-0.177697	-2.046415	0.034760	1
H	1.457093	-1.587995	0.565570	1
H	1.082552	-1.285025	-2.114790	1
H	1.083903	1.287215	-2.113280	1
H	1.458573	1.586975	0.567630	1
H	-0.176587	2.047185	0.036980	1
Es	0.860176	0.669093	-1.254804	99
Es	1.013020	-1.096969	-1.823075	99
Es	-1.464192	-0.000262	0.860194	99
Es	-2.073658	0.331999	1.008329	99
Es	-0.020568	-0.000265	0.860170	99
Es	0.241612	0.612888	0.500209	99
Es	0.526552	0.000668	-1.366676	99
Es	1.193422	0.000233	-1.183550	99
Es	0.537192	-1.219798	0.098804	99
Es	1.174986	1.459391	0.412775	99
Es	-2.654910	-0.000269	0.860220	99
Es	0.241503	-0.613438	0.499130	99
Es	0.687928	0.977337	-0.586753	99
Es	0.537341	1.218989	0.101014	99
Es	-2.073167	-0.009858	0.548786	99
Es	0.049206	-1.778303	0.054284	99
Es	0.200594	-0.000701	1.546455	99
Es	-3.354988	-0.000335	0.859668	99
Es	1.174105	-1.460440	0.410417	99
Es	0.049896	1.778371	0.056882	99
Es	0.687336	-0.977092	-0.587821	99
Es	-0.777117	-0.000242	0.857335	99
Es	0.859315	-0.668210	-1.254855	99
Es	-2.073724	-0.322843	1.024971	99
Es	1.014214	1.098374	-1.822017	99
40
Properties=species:S:1:pos:R:3:Z:I:1 energy=-269.7394535694882 field_type=dipole dipole="0.000000 0.000000 0.000000" charge=0
C	-2.654627	-0.000265	0.860210	6
C	-1.464467	-0.000265	0.860210	6
C	-0.020468	-0.000265	0.860210	6
C	0.537193	-1.219855	0.098810	6
C	0.859323	-0.668085	-1.254880	6
C	0.860173	0.668975	-1.254830	6
C	0.537343	1.219045	0.101020	6
H	-3.720307	-0.000265	0.856070	1
H	0.338003	-0.000955	1.896310	1
H	-0.177697	-2.046415	0.034760	1
H	1.457093	-1.587995	0.565570	1
H	1.082552	-1.285025	-2.114790	1
H	1.083903	1.287215	-2.113280	1
H	1.458573	1.586975	0.567630	1
H	-0.176587	2.047185	0.036980	1
Es	0.687684	0.977349	-0.586524	99
Es	-0.777104	-0.000326	0.858397	99
Es	0.687238	-0.977391	-0.587777	99
Es	0.537193	-1.219799	0.098804	99
Es	0.859323	-0.668211	-1.254855	99
Es	1.012977	-1.096602	-1.822734	99
Es	0.860160	0.669099	-1.254809	99
Es	-2.073332	-0.317048	0.691672	99
Es	0.241691	-0.613402	0.499246	99
Es	0.049105	-1.778175	0.054485	99
Es	1.193797	0.000288	-1.183410	99
Es	0.526438	0.000557	-1.366946	99
Es	0.049827	1.778381	0.056664	99
Es	0.200458	-0.000759	1.546094	99
Es	-2.654910	-0.000266	0.860214	99
Es	0.537343	1.218989	0.101014	99
Es	1.014142	1.098517	-1.822053	99
Es	-0.020568	-0.000265	0.860170	99
Es	1.175145	1.459380	0.412471	99
Es	1.174154	-1.460528	0.410358	99
Es	-3.354950	-0.000356	0.861041	99
Es	-1.464191	-0.000262	0.860210	99
Es	-2.073962	-0.016059	1.167822	99
Es	0.241778	0.612748	0.500298	99
Es	-2.073360	0.332458	0.720240	99
40
Properties=species:S:1:pos:R:3:Z:I:1 energy=-269.7394535694882 field_type=dipole dipole="0.000000 0.000000 0.000000" charge=0
C	-2.654627	-0.000265	0.860210	6
C	-1.464467	-0.000265	0.860210	6
C	-0.020468	-0.000265	0.860210	6
C	0.537193	-1.219855	0.098810	6
C	0.859323	-0.668085	-1.254880	6
C	0.860173	0.668975	-1.254830	6
C	0.537343	1.219045	0.101020	6
H	-3.720307	-0.000265	0.856070	1
H	0.338003	-0.000955	1.896310	1
H	-0.177697	-2.046415	0.034760	1
H	1.457093	-1.587995	0.565570	1
H	1.082552	-1.285025	-2.114790	1
H	1.083903	1.287215	-2.113280	1
H	1.458573	1.586975	0.567630	1
H	-0.176587	2.047185	0.036980	1
Es	-0.020568	-0.000266	0.860169	99
Es	0.200446	-0.000712	1.545731	99
Es	0.687324	0.977455	-0.586291	99
Es	-2.073684	0.327194	1.016107	99
Es	-2.654909	-0.000261	0.860208	99
Es	0.525884	0.000638	-1.367488	99
Es	0.537343	1.218991	0.101013	99
Es	1.013048	-1.096610	-1.822549	99
Es	0.049682	1.778336	0.056689	99
Es	-2.073646	-0.327835	1.016222	99
Es	0.860174	0.669101	-1.254806	99
Es	0.537193	-1.219799	0.098804	99
Es	0.859322	-0.668202	-1.254856	99
Es	1.175507	1.459191	0.412245	99
Es	1.014351	1.098157	-1.821546	99
Es	-3.355032	-0.000300	0.860114	99
Es	1.174555	-1.460242	0.409997	99
Es	-1.464192	-0.000264	0.860208	99
Es	-2.073224	-0.000144	0.549516	99
Es	-0.777307	-0.000164	0.857389	99
Es	1.194227	0.000247	-1.183057	99
Es	0.049089	-1.778264	0.054335	99
Es	0.686833	-0.977318	-0.587626	99
Es	0.241940	0.612831	0.500293	99
Es	0.241720	-0.613440	0.499270	99
40
Properties=species:S:1:pos:R:3:Z:I:1 energy=-269.7394535694882 field_type=dipole dipole="0.000000 0.000000 0.000000" charge=0
C	-2.654627	-0.000265	0.860210	6
C	-1.464467	-0.000265	0.860210	6
C	-0.020468	-0.000265	0.860210	6
C	0.537193	-1.219855	0.098810	6
C	0.859323	-0.668085	-1.254880	6
C	0.860173	0.668975	-1.254830	6
C	0.537343	1.219045	0.101020	6
H	-3.720307	-0.000265	0.856070	1
H	0.338003	-0.000955	1.896310	1
H	-0.177697	-2.046415	0.034760	1
H	1.457093	-1.587995	0.565570	1
H	1.082552	-1.285025	-2.114790	1
H	1.083903	1.287215	-2.113280	1
H	1.458573	1.586975	0.567630	1
H	-0.176587	2.047185	0.036980	1
Es	0.860171	0.669101	-1.254804	99
Es	0.525680	0.000588	-1.367721	99
Es	0.537343	1.218990	0.101013	99
Es	1.175740	1.459128	0.411867	99
Es	-2.073669	-0.332123	1.007162	99
Es	-2.073137	0.010854	0.547778	99
Es	0.686545	-0.977486	-0.587273	99
Es	-3.355069	-0.000207	0.860186	99
Es	0.859320	-0.668205	-1.254855	99
Es	0.199929	-0.000735	1.545062	99
Es	-0.020568	-0.000265	0.860169	99
Es	0.242276	0.612915	0.500483	99
Es	0.242278	-0.613550	0.499410	99
Es	1.174822	-1.460190	0.409702	99
Es	-2.654910	-0.000267	0.860211	99
Es	1.013094	-1.096470	-1.822270	99
Es	1.194679	0.000296	-1.182721	99
Es	-1.464192	-0.000269	0.860203	99
Es	0.537195	-1.219791	0.098791	99
Es	0.049573	1.778316	0.056683	99
Es	1.014280	1.098217	-1.821475	99
Es	-2.073722	0.320396	1.026919	99
Es	0.686953	0.977553	-0.586154	99
Es	0.048807	-1.778169	0.054391	99
Es	-0.777344	-0.000309	0.857335	99
40
Properties=species:S:1:pos:R:3:Z:I:1 energy=-269.7394535694882 field_type=dipole dipole="0.000000 0.000000 0.000000" charge=0
C	-2.654627	-0.000265	0.860210	6
C	-1.464467	-0.000265	0.860210	6
C	-0.020468	-0.000265	0.860210	6
C	0.537193	-1.219855	0.098810	6
C	0.859323	-0.668085	-1.254880	6
C	0.860173	0.668975	-1.254830	6
C	0.537343	1.219045	0.101020	6
H	-3.720307	-0.000265	0.856070	1
H	0.338003	-0.000955	1.896310	1
H	-0.177697	-2.046415	0.034760	1
H	1.457093	-1.587995	0.565570	1
H	1.082552	-1.285025	-2.114790	1
H	1.083903	1.287215	-2.113280	1
H	1.458573	1.586975	0.567630	1
H	-0.176587	2.047185	0.036980	1
Es	1.013216	-1.096657	-1.822332	99
Es	-2.654910	-0.000266	0.860210	99
Es	-2.073674	0.334185	1.001895	99
Es	0.048908	-1.778243	0.054135	99
Es	1.014425	1.097950	-1.821065	99
Es	0.860174	0.669100	-1.254803	99
Es	0.525407	0.000716	-1.368061	99
Es	0.537343	1.218989	0.101013	99
Es	0.199728	-0.000697	1.544635	99
Es	1.194857	0.000224	-1.182333	99
Es	0.049554	1.778227	0.056803	99
Es	-2.073148	-0.017277	0.547942	99
Es	0.686177	-0.977393	-0.587174	99
Es	-3.355070	-0.000409	0.860276	99
Es	0.242375	-0.613517	0.499432	99
Es	0.859322	-0.668211	-1.254857	99
Es	1.175884	1.459058	0.411946	99
Es	-2.073723	-0.317568	1.032015	99
Es	0.537192	-1.219799	0.098804	99
Es	1.175066	-1.460037	0.409397	99
Es	0.686871	0.977687	-0.586136	99
Es	0.242267	0.613031	0.500634	99
Es	-0.777407	-0.000242	0.857346	99
Es	-1.464191	-0.000270	0.860205	99
Es	-0.020568	-0.000264	0.860168	99
40
Properties=species:S:1:pos:R:3:Z:I:1 energy=-269.7394535694882 field_type=dipole dipole="0.000000 0.000000 0.000000" charge=0
C	-2.654627	-0.000265	0.860210	6
C	-1.464467	-0.000265	0.860210	6
C	-0.020468	-0.000265	0.860210	6
C	0.537193	-1.219855	0.098810	6
C	0.859323	-0.668085	-1.254880	6
C	0.860173	0.668975	-1.254830	6
C	0.537343	1.219045	0.101020	6
H	-3.720307	-0.000265	0.856070	1
H	0.338003	-0.000955	1.896310	1
H	-0.177697	-2.046415	0.034760	1
H	1.457093	-1.587995	0.565570	1
H	1.082552	-1.285025	-2.114790	1
H	1.083903	1.287215	-2.113280	1
H	1.458573	1.586975	0.567630	1
H	-0.176587	2.047185	0.036980	1
Es	-2.074005	-0.114032	1.158811	99
Es	0.242877	0.612972	0.500739	99
Es	-2.654910	-0.000260	0.860214	99
Es	1.176441	1.458575	0.410394	99
Es	0.525069	0.000327	-1.367607	99
Es	0.686619	-0.978105	-0.586463	99
Es	1.174984	-1.460101	0.409401	99
Es	0.537192	-1.219799	0.098804	99
Es	-1.464193	-0.000269	0.860210	99
Es	-2.073194	-0.246289	0.613722	99
Es	-2.073414	0.360891	0.807674	99
Es	0.048680	-1.778229	0.054377	99
Es	-0.020568	-0.000265	0.860170	99
Es	0.859320	-0.668204	-1.254858	99
Es	1.195229	0.000432	-1.182458	99
Es	0.537343	1.218990	0.101013	99
Es	0.242940	-0.613965	0.500037	99
Es	1.013197	-1.096005	-1.821615	99
Es	-0.777296	-0.001188	0.858622	99
Es	1.013934	1.098886	-1.821689	99
Es	0.049576	1.778746	0.056173	99
Es	0.686424	0.977760	-0.584880	99
Es	0.198681	-0.000708	1.543028	99
Es	-3.355025	-0.000931	0.861080	99
Es	0.860175	0.669091	-1.254803	99
40
Properties=species:S:1:pos:R:3:Z:I:1 energy=-269.7394535694882 field_type=dipole dipole="0.000000 0.000000 0.000000" charge=0
C	-2.654627	-0.000265	0.860210	6
C	-1.464467	-0.000265	0.860210	6
C	-0.020468	-0.000265	0.860210	6
C	0.537193	-1.219855	0.098810	6
C	0.859323	-0.668085	-1.254880	6
C	0.860173	0.668975	-1.254830	6
C	0.537343	1.219045	0.101020	6
H	-3.720307	-0.000265	0.856070	1
H	0.338003	-0.000955	1.896310	1
H	-0.177697	-2.046415	0.034760	1
H	1.457093	-1.587995	0.565570	1
H	1.082552	-1.285025	-2.114790	1
H	1.083903	1.287215	-2.113280	1
H	1.458573	1.586975	0.567630	1
H	-0.176587	2.047185	0.036980	1
Es	-0.020568	-0.000265	0.860169	99
Es	-2.654911	-0.000265	0.860213	99
Es	-3.355042	0.000168	0.861499	99
Es	1.012942	-1.097125	-1.822567	99
Es	1.175893	1.459106	0.412024	99
Es	0.537343	1.218991	0.101013	99
Es	1.195259	0.000125	-1.182337	99
Es	0.685897	-0.977361	-0.586426	99
Es	0.049431	1.778130	0.057012	99
Es	0.537192	-1.219799	0.098804	99
Es	0.859320	-0.668203	-1.254857	99
Es	-2.073412	-0.352049	0.769962	99
Es	0.242592	0.613175	0.500830	99
Es	0.199471	-0.000751	1.543949	99
Es	-0.777405	0.000444	0.858370	99
Es	1.175444	-1.459844	0.408452	99
Es	0.048755	-1.778407	0.053730	99
Es	0.860173	0.669092	-1.254807	99
Es	0.686979	0.978078	-0.585937	99
Es	0.242611	-0.613294	0.499465	99
Es	-2.074000	0.068930	1.163619	99
Es	1.014535	1.097366	-1.820387	99
Es	-2.073222	0.281349	0.646284	99
Es	0.524988	0.000988	-1.368195	99
Es	-1.464191	-0.000260	0.860210	99
40
Properties=species:S:1:pos:R:3:Z:I:1 energy=-269.7394535694882 field_type=dipole dipole="0.000000 0.000000 0.000000" charge=0
C	-2.654627	-0.000265	0.860210	6
C	-1.464467	-0.000265	0.860210	6
C	-0.020468	-0.000265	0.860210	6
C	0.537193	-1.219855	0.098810	6
C	0.859323	-0.668085	-1.254880	6
C	0.860173	0.668975	-1.254830	6
C	0.537343	1.219045	0.101020	6
H	-3.720307	-0.000265	0.856070	1
H	0.338003	-0.000955	1.896310	1
H	-0.177697	-2.046415	0.034760	1
H	1.457093	-1.587995	0.565570	1
H	1.082552	-1.285025	-2.114790	1
H	1.083903	1.287215	-2.113280	1
H	1.458573	1.586975	0.567630	1
H	-0.176587	2.047185	0.036980	1
Es	0.242652	-0.613797	0.499785	99
Es	0.537194	-1.219796	0.098804	99
Es	0.049482	1.778359	0.056283	99
Es	0.537343	1.218990	0.101013	99
Es	0.859321	-0.668202	-1.254856	99
Es	-0.777421	-0.000791	0.858297	99
Es	1.175223	-1.460118	0.409444	99
Es	0.242683	0.612877	0.500732	99
Es	0.686149	0.977510	-0.585519	99
Es	-2.073310	-0.292033	0.658572	99
Es	-0.020567	-0.000265	0.860170	99
Es	-2.654912	-0.000264	0.860216	99
Es	1.195415	0.000383	-1.181937	99
Es	-1.464191	-0.000268	0.860211	99
Es	-2.073938	-0.054683	1.165684	99
Es	-3.355057	-0.000515	0.861618	99
Es	0.048641	-1.777980	0.054448	99
Es	0.199385	-0.000721	1.543871	99
Es	1.014247	1.098489	-1.821383	99
Es	0.525072	0.000382	-1.368426	99
Es	0.860176	0.669087	-1.254803	99
Es	-2.073385	0.346557	0.755497	99
Es	1.013398	-1.095842	-1.821469	99
Es	0.686017	-0.977874	-0.586952	99
Es	1.176459	1.458831	0.410794	99
40
Properties=species:S:1:pos:R:3:Z:I:1 energy=-269.7394535694882 field_type=dipole dipole="0.000000 0.000000 0.000000" charge=0
C	-2.654627	-0.000265	0.860210	6
C	-1.464467	-0.000265	0.860210	6
C	-0.020468	-0.000265	0.860210	6
C	0.537193	-1.219855	0.098810	6
C	0.859323	-0.668085	-1.254880	6
C	0.860173	0.668975	-1.254830	6
C	0.537343	1.219045	0.101020	6
H	-3.720307	-0.000265	0.856070	1
H	0.338003	-0.000955	1.896310	1
H	-0.177697	-2.046415	0.034760	1
H	1.457093	-1.587995	0.565570	1
H	1.082552	-1.285025	-2.114790	1
H	1.083903	1.287215	-2.113280	1
H	1.458573	1.586975	0.567630	1
H	-0.176587	2.047185	0.036980	1
Es	-3.355066	0.000075	0.861553	99
Es	-0.777507	0.000585	0.858363	99
Es	-1.464192	-0.000262	0.860209	99
Es	-2.073970	0.077636	1.163651	99
Es	0.243002	0.613268	0.501128	99
Es	0.198895	-0.000771	1.543038	99
Es	-2.073274	0.274290	0.639815	99
Es	1.012980	-1.097078	-1.822423	99
Es	-2.073394	-0.353756	0.776394	99
Es	1.195576	0.000122	-1.181954	99
Es	0.049306	1.778157	0.056927	99
Es	0.686497	0.978250	-0.585450	99
Es	0.860171	0.669093	-1.254805	99
Es	0.859320	-0.668202	-1.254856	99
Es	0.048826	-1.778401	0.053647	99
Es	0.524999	0.000952	-1.368327	99
Es	0.685443	-0.977489	-0.586102	99
Es	0.537192	-1.219798	0.098804	99
Es	-0.020565	-0.000265	0.860180	99
Es	1.175811	-1.459665	0.408072	99
Es	1.014513	1.097349	-1.820348	99
Es	1.176247	1.458914	0.411574	99
Es	0.537343	1.218990	0.101013	99
Es	0.242835	-0.613414	0.499774	99
Es	-2.654911	-0.000263	0.860215	99
40
Properties=species:S:1:pos:R:3:Z:I:1 energy=-269.7394535694882 field_type=dipole dipole="0.000000 0.000000 0.000000" charge=0
C	-2.654627	-0.000265	0.860210	6
C	-1.464467	-0.000265	0.860210	6
C	-0.020468	-0.000265	0.860210	6
C	0.537193	-1.219855	0.098810	6
C	0.859323	-0.668085	-1.254880	6
C	0.860173	0.668975	-1.254830	6
C	0.537343	1.219045	0.101020	6
H	-3.720307	-0.000265	0.856070	1
H	0.338003	-0.000955	1.896310	1
H	-0.177697	-2.046415	0.034760	1
H	1.457093	-1.587995	0.565570	1
H	1.082552	-1.285025	-2.114790	1
H	1.083903	1.287215	-2.113280	1
H	1.458573	1.586975	0.567630	1
H	-0.176587	2.047185	0.036980	1
Es	1.176102	-1.459379	0.407480	99
Es	-2.073842	-0.213951	1.127547	99
Es	0.685359	-0.978046	-0.585231	99
Es	-1.464192	-0.000271	0.860211	99
Es	-2.073230	-0.150155	0.566675	99
Es	0.524343	0.000765	-1.368197	99
Es	0.537343	1.218990	0.101013	99
Es	1.013061	-1.096859	-1.821951	99
Es	-3.355076	-0.001292	0.860834	99
Es	0.860172	0.669094	-1.254807	99
Es	0.048657	-1.778572	0.053671	99
Es	-0.020568	-0.000265	0.860169	99
Es	0.686151	0.978450	-0.584331	99
Es	1.014321	1.097816	-1.820481	99
Es	0.049214	1.778512	0.056450	99
Es	-2.654909	-0.000269	0.860216	99
Es	-0.777469	-0.000802	0.858402	99
Es	-2.073503	0.364942	0.886861	99
Es	0.243616	0.613526	0.501489	99
Es	0.859321	-0.668204	-1.254856	99
Es	0.197649	-0.000765	1.541108	99
Es	0.243547	-0.613846	0.500155	99
Es	1.196072	0.000195	-1.181531	99
Es	1.176742	1.458500	0.410392	99
Es	0.537192	-1.219798	0.098804	99
40
Properties=species:S:1:pos:R:3:Z:I:1 energy=-269.7394535694882 field_type=dipole dipole="0.000000 0.000000 0.000000" charge=0
C	-2.654627	-0.000265	0.860210	6
C	-1.464467	-0.000265	0.860210	6
C	-0.020468	-0.000265	0.860210	6
C	0.537193	-1.219855	0.098810	6
C	0.859323	-0.668085	-1.254880	6
C	0.860173	0.668975	-1.254830	6
C	0.537343	1.219045	0.101020	6
H	-3.720307	-0.000265	0.856070	1
H	0.338003	-0.000955	1.896310	1
H	-0.177697	-2.046415	0.034760	1
H	1.457093	-1.587995	0.565570	1
H	1.082552	-1.285025	-2.114790	1
H	1.083903	1.287215	-2.113280	1
H	1.458573	1.586975	0.567630	1
H	-0.176587	2.047185	0.036980	1
Es	1.175834	-1.459795	0.408558	99
Es	-0.777685	-0.000194	0.857286	99
Es	1.196104	0.000240	-1.181549	99
Es	0.048427	-1.778006	0.054201	99
Es	1.014776	1.097589	-1.820301	99
Es	0.860164	0.669091	-1.254807	99
Es	0.537192	-1.219799	0.098803	99
Es	0.049112	1.778114	0.056743	99
Es	-2.073679	0.325941	1.015937	99
Es	1.013350	-1.096020	-1.821247	99
Es	0.242981	-0.613673	0.499795	99
Es	-1.464190	-0.000263	0.860209	99
Es	-0.020569	-0.000265	0.860169	99
Es	-2.073674	-0.325266	1.017991	99
Es	-2.073162	-0.001464	0.547656	99
Es	1.176681	1.458701	0.411015	99
Es	-3.355147	-0.000290	0.860992	99
Es	0.859320	-0.668200	-1.254855	99
Es	-2.654908	-0.000265	0.860213	99
Es	0.199298	-0.000682	1.543317	99
Es	0.685343	-0.977715	-0.586563	99
Es	0.537343	1.218990	0.101012	99
Es	0.685829	0.977891	-0.585572	99
Es	0.524256	0.000659	-1.369582	99
Es	0.243079	0.612996	0.500672	99
40
Properties=species:S:1:pos:R:3:Z:I:1 energy=-269.7394535694882 field_type=dipole dipole="0.000000 0.000000 0.000000" charge=0
C	-2.654627	-0.000265	0.860210	6
C	-1.464467	-0.000265	0.860210	6
C	-0.020468	-0.000265	0.860210	6
C	0.537193	-1.219855	0.098810	6
C	0.859323	-0.668085	-1.254880	6
C	0.860173	0.668975	-1.254830	6
C	0.537343	1.219045	0.101020	6
H	-3.720307	-0.000265	0.856070	1
H	0.338003	-0.000955	1.896310	1
H	-0.177697	-2.046415	0.034760	1
H	1.457093	-1.587995	0.565570	1
H	1.082552	-1.285025	-2.114790	1
H	1.083903	1.287215	-2.113280	1
H	1.458573	1.586975	0.567630	1
H	-0.176587	2.047185	0.036980	1
Es	-2.654909	-0.000266	0.860218	99
Es	0.048506	-1.778504	0.053552	99
Es	-0.020566	-0.000265	0.860176	99
Es	1.012990	-1.096859	-1.821777	99
Es	0.243637	-0.613826	0.500148	99
Es	0.859323	-0.668205	-1.254858	99
Es	-2.073179	0.200246	0.585820	99
Es	1.014637	1.097654	-1.820241	99
Es	-0.777467	0.000575	0.858543	99
Es	-1.464190	-0.000259	0.860213	99
Es	0.524209	0.000841	-1.368621	99
Es	1.176300	-1.459325	0.407225	99
Es	-2.073416	-0.365769	0.848083	99
Es	0.537192	-1.219799	0.098804	99
Es	0.243745	0.613457	0.501622	99
Es	0.686026	0.978528	-0.584279	99
Es	0.685038	-0.978067	-0.584962	99
Es	0.860169	0.669097	-1.254806	99
Es	1.196296	0.000150	-1.181181	99
Es	1.176759	1.458605	0.410348	99
Es	0.537343	1.218989	0.101013	99
Es	-2.073995	0.163084	1.146655	99
Es	0.049196	1.778443	0.056299	99
Es	0.197522	-0.000811	1.540880	99
Es	-3.355092	0.000606	0.861218	99
40
Properties=species:S:1:pos:R:3:Z:I:1 energy=-269.7394535694882 field_type=dipole dipole="0.000000 0.000000 0.000000" charge=0
C	-2.654627	-0.000265	0.860210	6
C	-1.464467	-0.000265	0.860210	6
C	-0.020468	-0.000265	0.860210	6
C	0.537193	-1.219855	0.098810	6
C	0.859323	-0.668085	-1.254880	6
C	0.860173	0.668975	-1.254830	6
C	0.537343	1.219045	0.101020	6
H	-3.720307	-0.000265	0.856070	1
H	0.338003	-0.000955	1.896310	1
H	-0.177697	-2.046415	0.034760	1
H	1.457093	-1.587995	0.565570	1
H	1.082552	-1.285025	-2.114790	1
H	1.083903	1.287215	-2.113280	1
H	1.458573	1.586975	0.567630	1
H	-0.176587	2.047185	0.036980	1
Es	0.860172	0.669092	-1.254805	99
Es	0.049064	1.778147	0.056473	99
Es	-2.073472	-0.360244	0.805750	99
Es	-2.073263	0.244126	0.613809	99
Es	0.686069	0.978501	-0.584593	99
Es	0.537191	-1.219799	0.098804	99
Es	-2.654911	-0.000262	0.860212	99
Es	-2.073881	0.113909	1.160406	99
Es	-0.020568	-0.000265	0.860169	99
Es	1.176767	1.458781	0.410697	99
Es	0.859320	-0.668202	-1.254855	99
Es	0.243623	-0.613595	0.500276	99
Es	0.684961	-0.977882	-0.585320	99
Es	-0.777558	0.000715	0.858426	99
Es	-1.464191	-0.000262	0.860210	99
Es	0.524061	0.000953	-1.368805	99
Es	1.012978	-1.096910	-1.821949	99
Es	-3.355080	0.000366	0.861729	99
Es	0.243753	0.613437	0.501669	99
Es	1.014523	1.097315	-1.819878	99
Es	0.048563	-1.778500	0.053669	99
Es	0.537343	1.218990	0.101013	99
Es	1.196516	0.000148	-1.181262	99
Es	0.197796	-0.000855	1.541292	99
Es	1.176299	-1.459386	0.406955	99
40
Properties=species:S:1:pos:R:3:Z:I:1 energy=-269.7394535694882 field_type=dipole dipole="0.000000 0.000000 0.000000" charge=0
C	-2.654627	-0.000265	0.860210	6
C	-1.464467	-0.000265	0.860210	6
C	-0.020468	-0.000265	0.860210	6
C	0.537193	-1.219855	0.098810	6
C	0.859323	-0.668085	-1.254880	6
C	0.860173	0.668975	-1.254830	6
C	0.537343	1.219045	0.101020	6
H	-3.720307	-0.000265	0.856070	1
H	0.338003	-0.000955	1.896310	1
H	-0.177697	-2.046415	0.034760	1
H	1.457093	-1.587995	0.565570	1
H	1.082552	-1.285025	-2.114790	1
H	1.083903	1.287215	-2.113280	1
H	1.458573	1.586975	0.567630	1
H	-0.176587	2.047185	0.036980	1
Es	0.523996	0.000913	-1.368799	99
Es	0.197648	-0.000846	1.540798	99
Es	1.196616	0.000106	-1.180964	99
Es	0.049087	1.778259	0.056702	99
Es	1.176460	-1.459222	0.406886	99
Es	0.860170	0.669086	-1.254805	99
Es	-1.464191	-0.000262	0.860209	99
Es	1.013027	-1.097070	-1.821795	99
Es	-3.355099	0.000495	0.861455	99
Es	0.243719	-0.613700	0.500162	99
Es	0.859321	-0.668203	-1.254856	99
Es	0.243841	0.613488	0.501617	99
Es	0.048492	-1.778526	0.053614	99
Es	-2.073445	-0.363859	0.828994	99
Es	-2.073988	0.138931	1.153314	99
Es	1.014547	1.097340	-1.819959	99
Es	0.684761	-0.977774	-0.585208	99
Es	0.685897	0.978682	-0.584536	99
Es	-2.073163	0.222551	0.598056	99
Es	-0.777576	0.000676	0.858590	99
Es	0.537343	1.218990	0.101013	99
Es	-0.020568	-0.000265	0.860169	99
Es	0.537192	-1.219799	0.098804	99
Es	1.176899	1.458587	0.410420	99
Es	-2.654910	-0.000261	0.860215	99
40
Properties=species:S:1:pos:R:3:Z:I:1 energy=-269.7394535694882 field_type=dipole dipole="0.000000 0.000000 0.000000" charge=0
C	-2.654627	-0.000265	0.860210	6
C	-1.464467	-0.000265	0.860210	6
C	-0.020468	-0.000265	0.860210	6
C	0.537193	-1.219855	0.098810	6
C	0.859323	-0.668085	-1.254880	6
C	0.860173	0.668975	-1.254830	6
C	0.537343	1.219045	0.101020	6
H	-3.720307	-0.000265	0.856070	1
H	0.338003	-0.000955	1.896310	1
H	-0.177697	-2.046415	0.034760	1
H	1.457093	-1.587995	0.565570	1
H	1.082552	-1.285025	-2.114790	1
H	1.083903	1.287215	-2.113280	1
H	1.458573	1.586975	0.567630	1
H	-0.176587	2.047185	0.036980	1
Es	-2.654910	-0.000264	0.860215	99
Es	0.685793	0.978562	-0.584485	99
Es	1.176937	1.458636	0.410477	99
Es	0.049024	1.778171	0.056587	99
Es	0.243812	0.613544	0.501647	99
Es	1.196727	0.000076	-1.180932	99
Es	-2.073953	0.122395	1.157276	99
Es	0.524030	0.000978	-1.369068	99
Es	0.860171	0.669092	-1.254805	99
Es	1.014610	1.097212	-1.819766	99
Es	0.684594	-0.977908	-0.585303	99
Es	-2.073248	0.237284	0.608760	99
Es	0.859322	-0.668202	-1.254856	99
Es	0.537192	-1.219799	0.098804	99
Es	0.048495	-1.778458	0.053650	99
Es	-1.464191	-0.000262	0.860210	99
Es	-2.073403	-0.361856	0.814059	99
Es	1.176532	-1.459220	0.406875	99
Es	-0.777598	0.000637	0.858547	99
Es	0.537343	1.218987	0.101012	99
Es	-0.020568	-0.000265	0.860170	99
Es	-3.355101	0.000353	0.861722	99
Es	1.013022	-1.096853	-1.821826	99
Es	0.197805	-0.000842	1.541000	99
Es	0.243638	-0.613681	0.500125	99
