50
Properties=species:S:1:pos:R:3:Z:I:1 energy=-306.48120473185986 field_type=dipole dipole="0.000000 0.000000 0.000000" charge=0
C	-2.900314	-0.015498	0.970422	6
N	-1.448214	0.099252	1.021912	7
C	-0.833004	-0.478668	-0.176188	6
C	0.705826	-0.364128	-0.140008	6
C	1.290086	-1.105078	-1.350528	6
C	1.155466	1.109652	-0.111228	6
N	2.612016	1.239402	-0.036228	7
H	-3.333394	0.443332	1.864472	1
H	-3.218884	-1.062438	0.940472	1
H	-3.308994	0.508902	0.100702	1
H	-1.104014	-0.390208	1.848232	1
H	-1.213014	0.029752	-1.071258	1
H	-1.112524	-1.537108	-0.252578	1
H	1.071626	-0.864988	0.767092	1
H	0.981766	-0.633088	-2.289658	1
H	0.950516	-2.146318	-1.368478	1
H	2.384096	-1.121138	-1.320848	1
H	0.724566	1.625062	0.753782	1
H	0.802326	1.628442	-1.009568	1
H	2.942866	0.806722	0.824542	1
H	2.851196	2.228142	0.034942	1
Es	-1.360501	0.439385	1.046692	99
Es	0.933030	0.371054	-0.127558	99
Es	2.027345	-1.118756	-1.328723	99
Es	-0.066318	-0.414878	-0.152590	99
Es	1.983491	1.188329	-0.051861	99
Es	1.072775	-0.778775	-1.989355	99
Es	2.779072	1.093696	-0.314576	99
Es	0.705809	-0.364123	-0.140035	99
Es	-2.900182	-0.015489	0.970427	99
Es	2.741985	1.840959	0.023695	99
Es	-1.448384	0.098654	1.021854	99
Es	-1.248525	-0.223121	1.513940	99
Es	1.155620	1.109621	-0.111236	99
Es	-2.082231	0.019171	0.993898	99
Es	-3.197268	0.293405	1.583824	99
Es	2.795550	0.986932	0.499829	99
Es	0.912475	1.462017	-0.732735	99
Es	0.854603	1.459748	0.482895	99
Es	-3.123135	-0.742381	0.944673	99
Es	-1.096081	-0.126774	-0.788564	99
Es	0.998928	-0.732923	-0.750537	99
Es	1.050466	-1.817405	-1.358763	99
Es	-0.833031	-0.478604	-0.176069	99
Es	-1.194236	-0.175161	0.507176	99
Es	0.956253	-0.706317	0.491747	99
Es	-1.025471	-1.216939	-0.233108	99
Es	2.611755	1.239631	-0.035763	99
Es	1.290058	-1.105070	-1.350507	99
Es	-3.174234	0.338401	0.371443	99
50
Properties=species:S:1:pos:R:3:Z:I:1 energy=-306.48120473185986 field_type=dipole dipole="0.000000 0.000000 0.000000" charge=0
C	-2.900314	-0.015498	0.970422	6
N	-1.448214	0.099252	1.021912	7
C	-0.833004	-0.478668	-0.176188	6
C	0.705826	-0.364128	-0.140008	6
C	1.290086	-1.105078	-1.350528	6
C	1.155466	1.109652	-0.111228	6
N	2.612016	1.239402	-0.036228	7
H	-3.333394	0.443332	1.864472	1
H	-3.218884	-1.062438	0.940472	1
H	-3.308994	0.508902	0.100702	1
H	-1.104014	-0.390208	1.848232	1
H	-1.213014	0.029752	-1.071258	1
H	-1.112524	-1.537108	-0.252578	1
H	1.071626	-0.864988	0.767092	1
H	0.981766	-0.633088	-2.289658	1
H	0.950516	-2.146318	-1.368478	1
H	2.384096	-1.121138	-1.320848	1
H	0.724566	1.625062	0.753782	1
H	0.802326	1.628442	-1.009568	1
H	2.942866	0.806722	0.824542	1
H	2.851196	2.228142	0.034942	1
Es	2.741706	1.841363	0.022873	99
Es	2.777647	1.095541	-0.313055	99
Es	-2.900188	-0.015490	0.970428	99
Es	-1.247637	-0.222862	1.515844	99
Es	1.072602	-0.778270	-1.990373	99
Es	2.026637	-1.119057	-1.328338	99
Es	0.956422	-0.706896	0.492505	99
Es	-3.122903	-0.742529	0.945033	99
Es	2.611752	1.239642	-0.035764	99
Es	0.933076	0.371269	-0.127515	99
Es	2.796825	0.985344	0.500371	99
Es	1.050782	-1.817327	-1.358187	99
Es	-2.081872	0.019216	0.993632	99
Es	-1.025121	-1.216942	-0.232730	99
Es	-3.174473	0.338896	0.370900	99
Es	0.705808	-0.364119	-0.140038	99
Es	-1.448385	0.098637	1.021863	99
Es	0.998913	-0.732905	-0.750412	99
Es	-3.196826	0.293046	1.583737	99
Es	-1.361303	0.439239	1.044775	99
Es	-1.194748	-0.175535	0.507725	99
Es	1.983573	1.187480	-0.052900	99
Es	-0.833030	-0.478605	-0.176071	99
Es	0.912129	1.462508	-0.733416	99
Es	1.290057	-1.105071	-1.350507	99
Es	-0.066238	-0.414938	-0.152627	99
Es	-1.096262	-0.126295	-0.789310	99
Es	1.155620	1.109621	-0.111237	99
Es	0.855052	1.459323	0.482907	99
50
Properties=species:S:1:pos:R:3:Z:I:1 energy=-306.48120473185986 field_type=dipole dipole="0.000000 0.000000 0.000000" charge=0
C	-2.900314	-0.015498	0.970422	6
N	-1.448214	0.099252	1.021912	7
C	-0.833004	-0.478668	-0.176188	6
C	0.705826	-0.364128	-0.140008	6
C	1.290086	-1.105078	-1.350528	6
C	1.155466	1.109652	-0.111228	6
N	2.612016	1.239402	-0.036228	7
H	-3.333394	0.443332	1.864472	1
H	-3.218884	-1.062438	0.940472	1
H	-3.308994	0.508902	0.100702	1
H	-1.104014	-0.390208	1.848232	1
H	-1.213014	0.029752	-1.071258	1
H	-1.112524	-1.537108	-0.252578	1
H	1.071626	-0.864988	0.767092	1
H	0.981766	-0.633088	-2.289658	1
H	0.950516	-2.146318	-1.368478	1
H	2.384096	-1.121138	-1.320848	1
H	0.724566	1.625062	0.753782	1
H	0.802326	1.628442	-1.009568	1
H	2.942866	0.806722	0.824542	1
H	2.851196	2.228142	0.034942	1
Es	-1.195103	-0.175736	0.507822	99
Es	-1.448387	0.098661	1.021861	99
Es	-2.081529	0.018742	0.993861	99
Es	2.026107	-1.118997	-1.328007	99
Es	0.932783	0.371263	-0.127334	99
Es	1.072624	-0.777890	-1.990872	99
Es	2.741323	1.841387	0.022595	99
Es	0.855287	1.459027	0.482679	99
Es	-2.900190	-0.015490	0.970428	99
Es	2.777202	1.096429	-0.312535	99
Es	1.290057	-1.105071	-1.350507	99
Es	0.705808	-0.364123	-0.140036	99
Es	1.051056	-1.817519	-1.357976	99
Es	1.155620	1.109620	-0.111237	99
Es	-1.361971	0.439424	1.043837	99
Es	0.911993	1.462867	-0.733685	99
Es	-3.174705	0.339167	0.370461	99
Es	-0.833031	-0.478606	-0.176068	99
Es	-1.024800	-1.217001	-0.232416	99
Es	-3.122647	-0.742413	0.945245	99
Es	0.998917	-0.732877	-0.750618	99
Es	-1.246984	-0.222528	1.516613	99
Es	-0.066062	-0.414850	-0.152688	99
Es	2.611767	1.239647	-0.035768	99
Es	1.983925	1.187303	-0.053473	99
Es	-3.196639	0.292686	1.583747	99
Es	2.797158	0.984595	0.500973	99
Es	-1.096449	-0.126159	-0.789731	99
Es	0.956484	-0.707272	0.492944	99
50
Properties=species:S:1:pos:R:3:Z:I:1 energy=-306.48120473185986 field_type=dipole dipole="0.000000 0.000000 0.000000" charge=0
C	-2.900314	-0.015498	0.970422	6
N	-1.448214	0.099252	1.021912	7
C	-0.833004	-0.478668	-0.176188	6
C	0.705826	-0.364128	-0.140008	6
C	1.290086	-1.105078	-1.350528	6
C	1.155466	1.109652	-0.111228	6
N	2.612016	1.239402	-0.036228	7
H	-3.333394	0.443332	1.864472	1
H	-3.218884	-1.062438	0.940472	1
H	-3.308994	0.508902	0.100702	1
H	-1.104014	-0.390208	1.848232	1
H	-1.213014	0.029752	-1.071258	1
H	-1.112524	-1.537108	-0.252578	1
H	1.071626	-0.864988	0.767092	1
H	0.981766	-0.633088	-2.289658	1
H	0.950516	-2.146318	-1.368478	1
H	2.384096	-1.121138	-1.320848	1
H	0.724566	1.625062	0.753782	1
H	0.802326	1.628442	-1.009568	1
H	2.942866	0.806722	0.824542	1
H	2.851196	2.228142	0.034942	1
Es	0.998982	-0.732821	-0.750367	99
Es	0.855354	1.458875	0.482783	99
Es	1.290057	-1.105071	-1.350508	99
Es	0.932808	0.371356	-0.127568	99
Es	2.777099	1.097337	-0.311617	99
Es	1.983760	1.186726	-0.054365	99
Es	-0.066127	-0.415048	-0.152753	99
Es	2.025793	-1.119195	-1.327979	99
Es	0.956579	-0.707448	0.493301	99
Es	-1.024827	-1.216982	-0.232376	99
Es	-1.096325	-0.125895	-0.789979	99
Es	1.051191	-1.817406	-1.357766	99
Es	-1.362128	0.439716	1.042849	99
Es	2.797474	0.984150	0.501172	99
Es	0.911946	1.463012	-0.733894	99
Es	1.072532	-0.777736	-1.991247	99
Es	2.741159	1.841407	0.022443	99
Es	-3.174850	0.339399	0.370188	99
Es	-0.833030	-0.478606	-0.176070	99
Es	-2.081156	0.018711	0.993957	99
Es	-3.196439	0.292466	1.583657	99
Es	-1.246774	-0.222277	1.517347	99
Es	2.611749	1.239641	-0.035766	99
Es	-3.122534	-0.742418	0.945443	99
Es	-2.900188	-0.015489	0.970428	99
Es	-1.448361	0.098765	1.021857	99
Es	0.705808	-0.364123	-0.140036	99
Es	-1.195557	-0.176378	0.508219	99
Es	1.155620	1.109620	-0.111236	99
50
Properties=species:S:1:pos:R:3:Z:I:1 energy=-306.48120473185986 field_type=dipole dipole="0.000000 0.000000 0.000000" charge=0
C	-2.900314	-0.015498	0.970422	6
N	-1.448214	0.099252	1.021912	7
C	-0.833004	-0.478668	-0.176188	6
C	0.705826	-0.364128	-0.140008	6
C	1.290086	-1.105078	-1.350528	6
C	1.155466	1.109652	-0.111228	6
N	2.612016	1.239402	-0.036228	7
H	-3.333394	0.443332	1.864472	1
H	-3.218884	-1.062438	0.940472	1
H	-3.308994	0.508902	0.100702	1
H	-1.104014	-0.390208	1.848232	1
H	-1.213014	0.029752	-1.071258	1
H	-1.112524	-1.537108	-0.252578	1
H	1.071626	-0.864988	0.767092	1
H	0.981766	-0.633088	-2.289658	1
H	0.950516	-2.146318	-1.368478	1
H	2.384096	-1.121138	-1.320848	1
H	0.724566	1.625062	0.753782	1
H	0.802326	1.628442	-1.009568	1
H	2.942866	0.806722	0.824542	1
H	2.851196	2.228142	0.034942	1
Es	-1.195836	-0.176784	0.508398	99
Es	-1.024728	-1.216939	-0.232224	99
Es	2.777369	1.097826	-0.311201	99
Es	-1.448396	0.098634	1.021850	99
Es	1.051333	-1.817406	-1.357545	99
Es	-1.362673	0.440014	1.041904	99
Es	1.072457	-0.777676	-1.991529	99
Es	1.155621	1.109621	-0.111235	99
Es	-3.196342	0.292441	1.583642	99
Es	-2.080854	0.018231	0.994128	99
Es	2.611771	1.239620	-0.035794	99
Es	-3.122465	-0.742403	0.945593	99
Es	-0.833031	-0.478605	-0.176070	99
Es	0.705808	-0.364123	-0.140036	99
Es	0.855403	1.458801	0.482777	99
Es	-2.900190	-0.015489	0.970428	99
Es	1.984000	1.186226	-0.055096	99
Es	0.911865	1.463050	-0.734022	99
Es	0.956603	-0.707591	0.493457	99
Es	2.025542	-1.119235	-1.327937	99
Es	1.290056	-1.105071	-1.350506	99
Es	-1.246212	-0.221688	1.518020	99
Es	-3.174866	0.339460	0.369969	99
Es	-0.066052	-0.415088	-0.152768	99
Es	2.797349	0.983982	0.501401	99
Es	-1.096459	-0.125792	-0.790185	99
Es	0.999033	-0.732756	-0.750374	99
Es	2.740706	1.841606	0.022591	99
Es	0.932801	0.371422	-0.127520	99
50
Properties=species:S:1:pos:R:3:Z:I:1 energy=-306.48120473185986 field_type=dipole dipole="0.000000 0.000000 0.000000" charge=0
C	-2.900314	-0.015498	0.970422	6
N	-1.448214	0.099252	1.021912	7
C	-0.833004	-0.478668	-0.176188	6
C	0.705826	-0.364128	-0.140008	6
C	1.290086	-1.105078	-1.350528	6
C	1.155466	1.109652	-0.111228	6
N	2.612016	1.239402	-0.036228	7
H	-3.333394	0.443332	1.864472	1
H	-3.218884	-1.062438	0.940472	1
H	-3.308994	0.508902	0.100702	1
H	-1.104014	-0.390208	1.848232	1
H	-1.213014	0.029752	-1.071258	1
H	-1.112524	-1.537108	-0.252578	1
H	1.071626	-0.864988	0.767092	1
H	0.981766	-0.633088	-2.289658	1
H	0.950516	-2.146318	-1.368478	1
H	2.384096	-1.121138	-1.320848	1
H	0.724566	1.625062	0.753782	1
H	0.802326	1.628442	-1.009568	1
H	2.942866	0.806722	0.824542	1
H	2.851196	2.228142	0.034942	1
Es	-3.174892	0.339576	0.369849	99
Es	0.705807	-0.364123	-0.140036	99
Es	-1.448402	0.098597	1.021861	99
Es	1.983842	1.185996	-0.055577	99
Es	-3.196268	0.292335	1.583681	99
Es	2.797811	0.983514	0.501511	99
Es	-0.065959	-0.415011	-0.152697	99
Es	-1.096475	-0.125750	-0.790296	99
Es	1.290057	-1.105070	-1.350507	99
Es	2.777020	1.098540	-0.310633	99
Es	0.855473	1.458696	0.482855	99
Es	2.740682	1.841492	0.022394	99
Es	2.025231	-1.119166	-1.328040	99
Es	-1.246090	-0.221539	1.518328	99
Es	-2.080771	0.017964	0.994036	99
Es	-2.900189	-0.015489	0.970429	99
Es	0.932743	0.371445	-0.127733	99
Es	-1.195954	-0.176935	0.508760	99
Es	-0.833030	-0.478607	-0.176069	99
Es	0.911846	1.463187	-0.734084	99
Es	2.611759	1.239641	-0.035764	99
Es	-1.362739	0.440245	1.041386	99
Es	1.051595	-1.817491	-1.357497	99
Es	0.998978	-0.732872	-0.750264	99
Es	-3.122444	-0.742324	0.945615	99
Es	1.155621	1.109620	-0.111236	99
Es	-1.024665	-1.216971	-0.232143	99
Es	1.072369	-0.777615	-1.991674	99
Es	0.956660	-0.707596	0.493660	99
50
Properties=species:S:1:pos:R:3:Z:I:1 energy=-306.48120473185986 field_type=dipole dipole="0.000000 0.000000 0.000000" charge=0
C	-2.900314	-0.015498	0.970422	6
N	-1.448214	0.099252	1.021912	7
C	-0.833004	-0.478668	-0.176188	6
C	0.705826	-0.364128	-0.140008	6
C	1.290086	-1.105078	-1.350528	6
C	1.155466	1.109652	-0.111228	6
N	2.612016	1.239402	-0.036228	7
H	-3.333394	0.443332	1.864472	1
H	-3.218884	-1.062438	0.940472	1
H	-3.308994	0.508902	0.100702	1
H	-1.104014	-0.390208	1.848232	1
H	-1.213014	0.029752	-1.071258	1
H	-1.112524	-1.537108	-0.252578	1
H	1.071626	-0.864988	0.767092	1
H	0.981766	-0.633088	-2.289658	1
H	0.950516	-2.146318	-1.368478	1
H	2.384096	-1.121138	-1.320848	1
H	0.724566	1.625062	0.753782	1
H	0.802326	1.628442	-1.009568	1
H	2.942866	0.806722	0.824542	1
H	2.851196	2.228142	0.034942	1
Es	0.705808	-0.364123	-0.140035	99
Es	1.051735	-1.817388	-1.357282	99
Es	-1.448390	0.098628	1.021852	99
Es	-1.245658	-0.221067	1.518914	99
Es	1.983797	1.185834	-0.056002	99
Es	0.956663	-0.707617	0.493688	99
Es	-1.195986	-0.177025	0.508810	99
Es	2.025171	-1.119176	-1.327975	99
Es	-2.080440	0.017542	0.994081	99
Es	1.072307	-0.777772	-1.991914	99
Es	-3.174878	0.339581	0.369761	99
Es	2.797942	0.983216	0.501629	99
Es	-1.024632	-1.216951	-0.232078	99
Es	2.740446	1.841438	0.022502	99
Es	-3.122373	-0.742354	0.945661	99
Es	-2.900189	-0.015489	0.970428	99
Es	1.155620	1.109621	-0.111232	99
Es	0.998959	-0.732774	-0.750276	99
Es	1.290056	-1.105072	-1.350505	99
Es	-1.096505	-0.125666	-0.790414	99
Es	2.611768	1.239654	-0.035750	99
Es	0.932753	0.371469	-0.127587	99
Es	0.855461	1.458701	0.482726	99
Es	-1.363460	0.440261	1.040798	99
Es	0.911881	1.463178	-0.734253	99
Es	-0.065979	-0.415191	-0.152709	99
Es	-3.196277	0.292323	1.583652	99
Es	-0.833031	-0.478605	-0.176070	99
Es	2.777047	1.099112	-0.310304	99
50
Properties=species:S:1:pos:R:3:Z:I:1 energy=-306.48120473185986 field_type=dipole dipole="0.000000 0.000000 0.000000" charge=0
C	-2.900314	-0.015498	0.970422	6
N	-1.448214	0.099252	1.021912	7
C	-0.833004	-0.478668	-0.176188	6
C	0.705826	-0.364128	-0.140008	6
C	1.290086	-1.105078	-1.350528	6
C	1.155466	1.109652	-0.111228	6
N	2.612016	1.239402	-0.036228	7
H	-3.333394	0.443332	1.864472	1
H	-3.218884	-1.062438	0.940472	1
H	-3.308994	0.508902	0.100702	1
H	-1.104014	-0.390208	1.848232	1
H	-1.213014	0.029752	-1.071258	1
H	-1.112524	-1.537108	-0.252578	1
H	1.071626	-0.864988	0.767092	1
H	0.981766	-0.633088	-2.289658	1
H	0.950516	-2.146318	-1.368478	1
H	2.384096	-1.121138	-1.320848	1
H	0.724566	1.625062	0.753782	1
H	0.802326	1.628442	-1.009568	1
H	2.942866	0.806722	0.824542	1
H	2.851196	2.228142	0.034942	1
Es	-1.245636	-0.220951	1.519039	99
Es	1.983848	1.185321	-0.056813	99
Es	-0.065829	-0.415061	-0.152731	99
Es	-3.196210	0.292206	1.583721	99
Es	-0.833029	-0.478606	-0.176072	99
Es	0.911808	1.463205	-0.734287	99
Es	0.705808	-0.364123	-0.140036	99
Es	1.072371	-0.777512	-1.991983	99
Es	-3.174961	0.339668	0.369705	99
Es	-1.096509	-0.125553	-0.790484	99
Es	2.777714	1.099548	-0.310163	99
Es	1.155622	1.109620	-0.111236	99
Es	-2.900188	-0.015489	0.970427	99
Es	2.739947	1.841359	0.022932	99
Es	2.797717	0.983295	0.501800	99
Es	-1.024658	-1.217016	-0.232009	99
Es	-1.196310	-0.177534	0.509096	99
Es	-2.080437	0.017677	0.994087	99
Es	0.932788	0.371565	-0.127637	99
Es	1.290057	-1.105071	-1.350507	99
Es	0.998921	-0.732810	-0.750343	99
Es	-1.448389	0.098628	1.021848	99
Es	-3.122314	-0.742288	0.945657	99
Es	2.611769	1.239652	-0.035741	99
Es	0.855495	1.458633	0.482870	99
Es	1.051684	-1.817445	-1.357313	99
Es	2.025023	-1.119245	-1.327868	99
Es	-1.363105	0.440468	1.040297	99
Es	0.956618	-0.707850	0.493859	99
50
Properties=species:S:1:pos:R:3:Z:I:1 energy=-306.48120473185986 field_type=dipole dipole="0.000000 0.000000 0.000000" charge=0
C	-2.900314	-0.015498	0.970422	6
N	-1.448214	0.099252	1.021912	7
C	-0.833004	-0.478668	-0.176188	6
C	0.705826	-0.364128	-0.140008	6
C	1.290086	-1.105078	-1.350528	6
C	1.155466	1.109652	-0.111228	6
N	2.612016	1.239402	-0.036228	7
H	-3.333394	0.443332	1.864472	1
H	-3.218884	-1.062438	0.940472	1
H	-3.308994	0.508902	0.100702	1
H	-1.104014	-0.390208	1.848232	1
H	-1.213014	0.029752	-1.071258	1
H	-1.112524	-1.537108	-0.252578	1
H	1.071626	-0.864988	0.767092	1
H	0.981766	-0.633088	-2.289658	1
H	0.950516	-2.146318	-1.368478	1
H	2.384096	-1.121138	-1.320848	1
H	0.724566	1.625062	0.753782	1
H	0.802326	1.628442	-1.009568	1
H	2.942866	0.806722	0.824542	1
H	2.851196	2.228142	0.034942	1
Es	2.777648	1.099902	-0.309787	99
Es	-0.833031	-0.478604	-0.176070	99
Es	0.932698	0.371459	-0.127535	99
Es	1.155620	1.109622	-0.111236	99
Es	-2.900187	-0.015489	0.970427	99
Es	-1.448384	0.098633	1.021850	99
Es	2.797796	0.983064	0.501759	99
Es	2.739892	1.841487	0.022962	99
Es	1.290057	-1.105071	-1.350507	99
Es	0.855620	1.458608	0.482837	99
Es	0.705808	-0.364122	-0.140036	99
Es	-2.080388	0.017793	0.994261	99
Es	0.911793	1.463317	-0.734320	99
Es	-1.096540	-0.125543	-0.790540	99
Es	-1.363256	0.440144	1.039634	99
Es	-1.196519	-0.177848	0.509243	99
Es	1.051727	-1.817555	-1.357280	99
Es	-3.174962	0.339691	0.369555	99
Es	-1.245331	-0.220495	1.519556	99
Es	1.072453	-0.777474	-1.992054	99
Es	-0.065836	-0.415071	-0.152671	99
Es	2.611757	1.239639	-0.035749	99
Es	0.956659	-0.707829	0.493874	99
Es	2.024869	-1.119200	-1.327813	99
Es	-1.024589	-1.216990	-0.231996	99
Es	1.983801	1.185073	-0.057167	99
Es	-3.196242	0.292129	1.583674	99
Es	0.998945	-0.732774	-0.750467	99
Es	-3.122264	-0.742206	0.945712	99
50
Properties=species:S:1:pos:R:3:Z:I:1 energy=-306.48120473185986 field_type=dipole dipole="0.000000 0.000000 0.000000" charge=0
C	-2.900314	-0.015498	0.970422	6
N	-1.448214	0.099252	1.021912	7
C	-0.833004	-0.478668	-0.176188	6
C	0.705826	-0.364128	-0.140008	6
C	1.290086	-1.105078	-1.350528	6
C	1.155466	1.109652	-0.111228	6
N	2.612016	1.239402	-0.036228	7
H	-3.333394	0.443332	1.864472	1
H	-3.218884	-1.062438	0.940472	1
H	-3.308994	0.508902	0.100702	1
H	-1.104014	-0.390208	1.848232	1
H	-1.213014	0.029752	-1.071258	1
H	-1.112524	-1.537108	-0.252578	1
H	1.071626	-0.864988	0.767092	1
H	0.981766	-0.633088	-2.289658	1
H	0.950516	-2.146318	-1.368478	1
H	2.384096	-1.121138	-1.320848	1
H	0.724566	1.625062	0.753782	1
H	0.802326	1.628442	-1.009568	1
H	2.942866	0.806722	0.824542	1
H	2.851196	2.228142	0.034942	1
Es	-3.174923	0.339703	0.369672	99
Es	1.051817	-1.817451	-1.357203	99
Es	-1.196749	-0.178041	0.509298	99
Es	-0.065766	-0.415128	-0.152767	99
Es	1.072357	-0.777496	-1.992177	99
Es	0.999025	-0.732745	-0.750204	99
Es	-1.096497	-0.125536	-0.790612	99
Es	-1.245351	-0.220495	1.519701	99
Es	-1.024566	-1.216964	-0.231988	99
Es	0.705808	-0.364123	-0.140036	99
Es	0.911826	1.463292	-0.734446	99
Es	-2.080265	0.018082	0.994218	99
Es	2.611760	1.239651	-0.035735	99
Es	-0.833030	-0.478605	-0.176070	99
Es	1.155620	1.109620	-0.111237	99
Es	2.778156	1.100791	-0.308718	99
Es	2.739537	1.841442	0.023105	99
Es	0.956614	-0.707885	0.494011	99
Es	0.855578	1.458606	0.482844	99
Es	-3.196254	0.292150	1.583780	99
Es	2.024730	-1.119319	-1.327943	99
Es	-3.122250	-0.742272	0.945576	99
Es	-1.448372	0.098606	1.021839	99
Es	1.290057	-1.105071	-1.350507	99
Es	-2.900188	-0.015488	0.970427	99
Es	1.983602	1.184270	-0.058488	99
Es	2.797776	0.982996	0.501934	99
Es	0.932741	0.371567	-0.127603	99
Es	-1.363178	0.440132	1.039443	99
