44
Properties=species:S:1:pos:R:3:Z:I:1 energy=-304.08054285015254 field_type=dipole dipole="0.000000 0.000000 0.000000" charge=0
C	-2.098272	-1.245201	-0.141689	6
N	-0.680732	-0.910061	-0.119039	7
C	-0.460752	0.403069	0.527721	6
C	1.043547	0.809529	0.555461	6
N	1.879628	-0.311871	1.002571	7
C	1.496567	1.233699	-0.781859	6
C	1.871298	1.575629	-1.872159	6
H	-2.236822	-2.207071	-0.644959	1
H	-2.681762	-0.494431	-0.684389	1
H	-2.495722	-1.343961	0.873471	1
H	-0.334592	-0.854001	-1.079379	1
H	-0.815632	0.340999	1.564381	1
H	-1.044362	1.179889	0.017501	1
H	1.169648	1.644019	1.254771	1
H	1.601228	-1.112391	0.426751	1
H	1.569088	-0.580601	1.935091	1
H	2.217648	1.872759	-2.834239	1
Es	1.124669	1.377564	1.015154	99
Es	-0.497955	-1.159589	0.058849	99
Es	0.296101	0.609651	0.516656	99
Es	-0.597292	-0.324662	0.143407	99
Es	1.709375	-0.781415	0.657435	99
Es	2.094985	1.770170	-2.500653	99
Es	1.275741	1.030191	-0.150110	99
Es	1.871355	1.575703	-1.872368	99
Es	1.363726	1.312784	-1.481668	99
Es	1.731196	1.737254	-1.216064	99
Es	1.670775	-0.464765	1.563740	99
Es	-0.862174	0.942465	0.178509	99
Es	-2.192209	-1.898942	-0.488344	99
Es	1.496476	1.233629	-0.781631	99
Es	-0.681030	-0.909629	-0.119326	99
Es	-0.700792	0.358308	1.240661	99
Es	-0.460711	0.402947	0.527659	99
Es	-1.303729	-1.027513	-0.138854	99
Es	-2.098139	-1.245170	-0.141687	99
Es	1.944388	1.168990	-1.321640	99
Es	-0.488279	-0.858971	-0.702768	99
Es	1.879045	-0.311968	1.002594	99
Es	2.228523	-0.232703	0.994439	99
Es	1.043619	0.809445	0.555353	99
Es	1.494288	0.178566	0.802227	99
Es	-2.366268	-1.304493	0.553538	99
Es	-2.503595	-0.722885	-0.513034	99
44
Properties=species:S:1:pos:R:3:Z:I:1 energy=-304.08054285015254 field_type=dipole dipole="0.000000 0.000000 0.000000" charge=0
C	-2.098272	-1.245201	-0.141689	6
N	-0.680732	-0.910061	-0.119039	7
C	-0.460752	0.403069	0.527721	6
C	1.043547	0.809529	0.555461	6
N	1.879628	-0.311871	1.002571	7
C	1.496567	1.233699	-0.781859	6
C	1.871298	1.575629	-1.872159	6
H	-2.236822	-2.207071	-0.644959	1
H	-2.681762	-0.494431	-0.684389	1
H	-2.495722	-1.343961	0.873471	1
H	-0.334592	-0.854001	-1.079379	1
H	-0.815632	0.340999	1.564381	1
H	-1.044362	1.179889	0.017501	1
H	1.169648	1.644019	1.254771	1
H	1.601228	-1.112391	0.426751	1
H	1.569088	-0.580601	1.935091	1
H	2.217648	1.872759	-2.834239	1
Es	1.496475	1.233628	-0.781626	99
Es	1.123622	1.375540	1.015841	99
Es	1.712435	-0.778798	0.655480	99
Es	1.871353	1.575689	-1.872387	99
Es	-2.098137	-1.245169	-0.141686	99
Es	2.220609	-0.234137	0.991732	99
Es	-0.701807	0.358495	1.243859	99
Es	-0.500072	-1.154678	0.058690	99
Es	-1.302806	-1.030183	-0.135936	99
Es	-2.190814	-1.895885	-0.488865	99
Es	-2.502222	-0.724376	-0.514588	99
Es	-0.598226	-0.326019	0.144186	99
Es	2.095281	1.770565	-2.502333	99
Es	-0.486288	-0.859006	-0.707693	99
Es	1.628420	1.070477	-1.457996	99
Es	1.993386	1.502153	-1.206301	99
Es	-0.860401	0.941366	0.177405	99
Es	1.496992	0.179510	0.800787	99
Es	1.671580	-0.466147	1.570546	99
Es	1.417710	1.645886	-1.354748	99
Es	-0.460713	0.402950	0.527660	99
Es	1.043619	0.809446	0.555353	99
Es	-0.681064	-0.909580	-0.119362	99
Es	-2.368186	-1.305576	0.556784	99
Es	0.296263	0.609311	0.516395	99
Es	1.879137	-0.311931	1.002585	99
Es	1.275941	1.031433	-0.151707	99
44
Properties=species:S:1:pos:R:3:Z:I:1 energy=-304.08054285015254 field_type=dipole dipole="0.000000 0.000000 0.000000" charge=0
C	-2.098272	-1.245201	-0.141689	6
N	-0.680732	-0.910061	-0.119039	7
C	-0.460752	0.403069	0.527721	6
C	1.043547	0.809529	0.555461	6
N	1.879628	-0.311871	1.002571	7
C	1.496567	1.233699	-0.781859	6
C	1.871298	1.575629	-1.872159	6
H	-2.236822	-2.207071	-0.644959	1
H	-2.681762	-0.494431	-0.684389	1
H	-2.495722	-1.343961	0.873471	1
H	-0.334592	-0.854001	-1.079379	1
H	-0.815632	0.340999	1.564381	1
H	-1.044362	1.179889	0.017501	1
H	1.169648	1.644019	1.254771	1
H	1.601228	-1.112391	0.426751	1
H	1.569088	-0.580601	1.935091	1
H	2.217648	1.872759	-2.834239	1
Es	1.607586	1.076660	-1.463493	99
Es	-2.369031	-1.306817	0.558327	99
Es	-0.859346	0.940648	0.176884	99
Es	-0.681040	-0.909592	-0.119368	99
Es	2.216518	-0.235592	0.990433	99
Es	1.879036	-0.311964	1.002596	99
Es	1.435351	1.660477	-1.343489	99
Es	1.496473	1.233625	-0.781620	99
Es	1.043617	0.809447	0.555352	99
Es	-0.702266	0.358595	1.245463	99
Es	-2.501675	-0.725188	-0.515255	99
Es	2.095413	1.770963	-2.502917	99
Es	-0.599224	-0.327064	0.143976	99
Es	-0.500761	-1.151069	0.058567	99
Es	1.498848	0.180453	0.800012	99
Es	-0.460713	0.402950	0.527660	99
Es	1.276135	1.031868	-0.152634	99
Es	1.671961	-0.466863	1.573507	99
Es	-0.485340	-0.858728	-0.710106	99
Es	-1.302283	-1.032290	-0.133967	99
Es	0.296344	0.609029	0.516207	99
Es	1.996651	1.481211	-1.211981	99
Es	1.122927	1.374144	1.016078	99
Es	-2.189925	-1.893611	-0.488993	99
Es	-2.098141	-1.245170	-0.141686	99
Es	1.713609	-0.776860	0.654917	99
Es	1.871365	1.575699	-1.872395	99
44
Properties=species:S:1:pos:R:3:Z:I:1 energy=-304.08054285015254 field_type=dipole dipole="0.000000 0.000000 0.000000" charge=0
C	-2.098272	-1.245201	-0.141689	6
N	-0.680732	-0.910061	-0.119039	7
C	-0.460752	0.403069	0.527721	6
C	1.043547	0.809529	0.555461	6
N	1.879628	-0.311871	1.002571	7
C	1.496567	1.233699	-0.781859	6
C	1.871298	1.575629	-1.872159	6
H	-2.236822	-2.207071	-0.644959	1
H	-2.681762	-0.494431	-0.684389	1
H	-2.495722	-1.343961	0.873471	1
H	-0.334592	-0.854001	-1.079379	1
H	-0.815632	0.340999	1.564381	1
H	-1.044362	1.179889	0.017501	1
H	1.169648	1.644019	1.254771	1
H	1.601228	-1.112391	0.426751	1
H	1.569088	-0.580601	1.935091	1
H	2.217648	1.872759	-2.834239	1
Es	1.276246	1.032052	-0.153219	99
Es	-0.858676	0.940183	0.176472	99
Es	1.871361	1.575698	-1.872392	99
Es	-0.681051	-0.909572	-0.119391	99
Es	-1.302078	-1.034380	-0.132124	99
Es	1.043617	0.809446	0.555351	99
Es	-2.501253	-0.725818	-0.516001	99
Es	1.879034	-0.311968	1.002597	99
Es	-2.098138	-1.245170	-0.141686	99
Es	2.095815	1.771258	-2.503111	99
Es	-0.702586	0.358484	1.246408	99
Es	1.122578	1.373118	1.016202	99
Es	1.714651	-0.775532	0.654822	99
Es	0.296309	0.608876	0.516249	99
Es	-0.500327	-1.148711	0.057936	99
Es	2.006830	1.406031	-1.232056	99
Es	-0.599754	-0.328192	0.143815	99
Es	1.672123	-0.467199	1.575243	99
Es	1.494494	1.704373	-1.307664	99
Es	1.496484	1.233634	-0.781615	99
Es	-0.460712	0.402948	0.527662	99
Es	1.500642	0.181683	0.798864	99
Es	2.212926	-0.237302	0.990020	99
Es	1.537940	1.107903	-1.479305	99
Es	-2.189199	-1.891799	-0.488727	99
Es	-0.485530	-0.857352	-0.711541	99
Es	-2.369657	-1.307732	0.559266	99
44
Properties=species:S:1:pos:R:3:Z:I:1 energy=-304.08054285015254 field_type=dipole dipole="0.000000 0.000000 0.000000" charge=0
C	-2.098272	-1.245201	-0.141689	6
N	-0.680732	-0.910061	-0.119039	7
C	-0.460752	0.403069	0.527721	6
C	1.043547	0.809529	0.555461	6
N	1.879628	-0.311871	1.002571	7
C	1.496567	1.233699	-0.781859	6
C	1.871298	1.575629	-1.872159	6
H	-2.236822	-2.207071	-0.644959	1
H	-2.681762	-0.494431	-0.684389	1
H	-2.495722	-1.343961	0.873471	1
H	-0.334592	-0.854001	-1.079379	1
H	-0.815632	0.340999	1.564381	1
H	-1.044362	1.179889	0.017501	1
H	1.169648	1.644019	1.254771	1
H	1.601228	-1.112391	0.426751	1
H	1.569088	-0.580601	1.935091	1
H	2.217648	1.872759	-2.834239	1
Es	-0.681061	-0.909576	-0.119371	99
Es	1.502465	0.182872	0.798071	99
Es	-2.500990	-0.726171	-0.516718	99
Es	1.515939	1.714916	-1.296531	99
Es	-0.499884	-1.144778	0.056903	99
Es	1.672126	-0.467538	1.576338	99
Es	2.209982	-0.238904	0.989880	99
Es	-0.600783	-0.328813	0.143372	99
Es	-0.858309	0.939863	0.176119	99
Es	1.519049	1.119837	-1.482540	99
Es	1.871364	1.575711	-1.872395	99
Es	1.878993	-0.311988	1.002608	99
Es	2.095859	1.771348	-2.503305	99
Es	1.276268	1.032305	-0.153606	99
Es	-2.098142	-1.245172	-0.141687	99
Es	1.496472	1.233627	-0.781617	99
Es	-0.460713	0.402951	0.527662	99
Es	1.715252	-0.774362	0.654613	99
Es	-0.485184	-0.856740	-0.712490	99
Es	-1.301999	-1.037850	-0.129664	99
Es	1.043613	0.809446	0.555352	99
Es	-0.702689	0.358328	1.247033	99
Es	-2.188624	-1.890353	-0.488306	99
Es	1.122309	1.372333	1.016394	99
Es	-2.370096	-1.308515	0.559780	99
Es	2.004366	1.383520	-1.239923	99
Es	0.296507	0.608662	0.516103	99
44
Properties=species:S:1:pos:R:3:Z:I:1 energy=-304.08054285015254 field_type=dipole dipole="0.000000 0.000000 0.000000" charge=0
C	-2.098272	-1.245201	-0.141689	6
N	-0.680732	-0.910061	-0.119039	7
C	-0.460752	0.403069	0.527721	6
C	1.043547	0.809529	0.555461	6
N	1.879628	-0.311871	1.002571	7
C	1.496567	1.233699	-0.781859	6
C	1.871298	1.575629	-1.872159	6
H	-2.236822	-2.207071	-0.644959	1
H	-2.681762	-0.494431	-0.684389	1
H	-2.495722	-1.343961	0.873471	1
H	-0.334592	-0.854001	-1.079379	1
H	-0.815632	0.340999	1.564381	1
H	-1.044362	1.179889	0.017501	1
H	1.169648	1.644019	1.254771	1
H	1.601228	-1.112391	0.426751	1
H	1.569088	-0.580601	1.935091	1
H	2.217648	1.872759	-2.834239	1
Es	1.504496	0.184444	0.797238	99
Es	-2.098138	-1.245171	-0.141686	99
Es	1.496471	1.233636	-0.781613	99
Es	-1.301682	-1.040567	-0.127470	99
Es	1.879041	-0.311990	1.002609	99
Es	-0.600796	-0.329604	0.143370	99
Es	-0.681086	-0.909534	-0.119432	99
Es	2.095785	1.771574	-2.503419	99
Es	1.717692	-0.774097	0.653326	99
Es	-0.485271	-0.856016	-0.713245	99
Es	1.671428	-0.467954	1.576735	99
Es	-0.857814	0.939484	0.176001	99
Es	1.995209	1.465028	-1.217796	99
Es	-0.460712	0.402951	0.527663	99
Es	-2.370505	-1.309182	0.560189	99
Es	1.589444	1.082616	-1.467958	99
Es	1.871372	1.575707	-1.872394	99
Es	-2.188166	-1.888928	-0.487729	99
Es	-2.500773	-0.726692	-0.517399	99
Es	1.043618	0.809446	0.555351	99
Es	1.454941	1.670137	-1.333301	99
Es	-0.500108	-1.141682	0.055229	99
Es	1.276245	1.032733	-0.153831	99
Es	-0.702936	0.358213	1.247495	99
Es	1.122106	1.371743	1.016532	99
Es	0.296517	0.608531	0.516057	99
Es	2.205710	-0.239863	0.991554	99
44
Properties=species:S:1:pos:R:3:Z:I:1 energy=-304.08054285015254 field_type=dipole dipole="0.000000 0.000000 0.000000" charge=0
C	-2.098272	-1.245201	-0.141689	6
N	-0.680732	-0.910061	-0.119039	7
C	-0.460752	0.403069	0.527721	6
C	1.043547	0.809529	0.555461	6
N	1.879628	-0.311871	1.002571	7
C	1.496567	1.233699	-0.781859	6
C	1.871298	1.575629	-1.872159	6
H	-2.236822	-2.207071	-0.644959	1
H	-2.681762	-0.494431	-0.684389	1
H	-2.495722	-1.343961	0.873471	1
H	-0.334592	-0.854001	-1.079379	1
H	-0.815632	0.340999	1.564381	1
H	-1.044362	1.179889	0.017501	1
H	1.169648	1.644019	1.254771	1
H	1.601228	-1.112391	0.426751	1
H	1.569088	-0.580601	1.935091	1
H	2.217648	1.872759	-2.834239	1
Es	1.506124	0.185773	0.796712	99
Es	-2.098140	-1.245170	-0.141685	99
Es	-0.499874	-1.138414	0.053672	99
Es	1.496470	1.233631	-0.781616	99
Es	1.043617	0.809446	0.555351	99
Es	1.276269	1.032863	-0.154049	99
Es	-2.187842	-1.887759	-0.487201	99
Es	-0.485239	-0.855166	-0.713713	99
Es	1.466772	1.679434	-1.325927	99
Es	0.296648	0.608111	0.516020	99
Es	1.996166	1.450828	-1.222097	99
Es	1.871366	1.575704	-1.872396	99
Es	-0.702979	0.358046	1.247824	99
Es	1.576698	1.087560	-1.470982	99
Es	1.671676	-0.468217	1.577328	99
Es	1.879004	-0.311983	1.002608	99
Es	-2.370701	-1.309783	0.560456	99
Es	-0.681074	-0.909550	-0.119394	99
Es	1.717452	-0.773113	0.653465	99
Es	-0.460712	0.402948	0.527661	99
Es	-0.601311	-0.330269	0.143174	99
Es	2.095782	1.771522	-2.503557	99
Es	1.121871	1.371308	1.016741	99
Es	-2.500650	-0.726948	-0.517961	99
Es	2.203732	-0.241483	0.991240	99
Es	-1.301520	-1.043749	-0.125286	99
Es	-0.857516	0.939391	0.175688	99
44
Properties=species:S:1:pos:R:3:Z:I:1 energy=-304.08054285015254 field_type=dipole dipole="0.000000 0.000000 0.000000" charge=0
C	-2.098272	-1.245201	-0.141689	6
N	-0.680732	-0.910061	-0.119039	7
C	-0.460752	0.403069	0.527721	6
C	1.043547	0.809529	0.555461	6
N	1.879628	-0.311871	1.002571	7
C	1.496567	1.233699	-0.781859	6
C	1.871298	1.575629	-1.872159	6
H	-2.236822	-2.207071	-0.644959	1
H	-2.681762	-0.494431	-0.684389	1
H	-2.495722	-1.343961	0.873471	1
H	-0.334592	-0.854001	-1.079379	1
H	-0.815632	0.340999	1.564381	1
H	-1.044362	1.179889	0.017501	1
H	1.169648	1.644019	1.254771	1
H	1.601228	-1.112391	0.426751	1
H	1.569088	-0.580601	1.935091	1
H	2.217648	1.872759	-2.834239	1
Es	-0.703205	0.357941	1.247968	99
Es	1.879008	-0.311985	1.002589	99
Es	-0.681081	-0.909547	-0.119388	99
Es	-1.301389	-1.047576	-0.122102	99
Es	1.043618	0.809445	0.555351	99
Es	-0.601899	-0.330857	0.142093	99
Es	1.275825	1.032370	-0.154502	99
Es	1.900022	1.145661	-1.342895	99
Es	1.121914	1.370852	1.016655	99
Es	1.719601	-0.773090	0.652571	99
Es	-0.857373	0.939071	0.175518	99
Es	-2.098140	-1.245170	-0.141685	99
Es	-0.485057	-0.854862	-0.713993	99
Es	-2.370970	-1.310312	0.560549	99
Es	1.508636	0.187734	0.795688	99
Es	0.296665	0.608002	0.516038	99
Es	1.372777	1.348473	-1.468264	99
Es	1.871361	1.575708	-1.872397	99
Es	2.199588	-0.242846	0.993091	99
Es	-2.500490	-0.727143	-0.518234	99
Es	1.496469	1.233624	-0.781617	99
Es	-0.460712	0.402951	0.527662	99
Es	1.670917	-0.468491	1.577326	99
Es	1.767225	1.724840	-1.207353	99
Es	2.095990	1.771007	-2.503715	99
Es	-2.187619	-1.886896	-0.486937	99
Es	-0.499594	-1.133939	0.052059	99
44
Properties=species:S:1:pos:R:3:Z:I:1 energy=-304.08054285015254 field_type=dipole dipole="0.000000 0.000000 0.000000" charge=0
C	-2.098272	-1.245201	-0.141689	6
N	-0.680732	-0.910061	-0.119039	7
C	-0.460752	0.403069	0.527721	6
C	1.043547	0.809529	0.555461	6
N	1.879628	-0.311871	1.002571	7
C	1.496567	1.233699	-0.781859	6
C	1.871298	1.575629	-1.872159	6
H	-2.236822	-2.207071	-0.644959	1
H	-2.681762	-0.494431	-0.684389	1
H	-2.495722	-1.343961	0.873471	1
H	-0.334592	-0.854001	-1.079379	1
H	-0.815632	0.340999	1.564381	1
H	-1.044362	1.179889	0.017501	1
H	1.169648	1.644019	1.254771	1
H	1.601228	-1.112391	0.426751	1
H	1.569088	-0.580601	1.935091	1
H	2.217648	1.872759	-2.834239	1
Es	-0.499920	-1.131521	0.050600	99
Es	1.603697	1.077701	-1.464078	99
Es	1.511666	0.189704	0.794589	99
Es	1.871368	1.575702	-1.872397	99
Es	-0.857096	0.939097	0.175077	99
Es	0.296695	0.607669	0.516111	99
Es	-2.187221	-1.885633	-0.485899	99
Es	1.446931	1.655405	-1.341323	99
Es	1.989203	1.484822	-1.213490	99
Es	-0.703261	0.357719	1.248194	99
Es	2.095789	1.771135	-2.503817	99
Es	-0.681070	-0.909554	-0.119367	99
Es	1.276146	1.033302	-0.154265	99
Es	-2.500414	-0.727482	-0.519305	99
Es	-1.301222	-1.049960	-0.120225	99
Es	1.721088	-0.773157	0.652060	99
Es	1.671075	-0.468251	1.577810	99
Es	1.878983	-0.311990	1.002612	99
Es	-0.460713	0.402950	0.527662	99
Es	-2.371152	-1.310747	0.560739	99
Es	1.121691	1.370628	1.016840	99
Es	2.194675	-0.244779	0.994155	99
Es	1.496471	1.233622	-0.781616	99
Es	1.043618	0.809444	0.555350	99
Es	-0.601701	-0.331441	0.142008	99
Es	-2.098142	-1.245170	-0.141685	99
Es	-0.485096	-0.854254	-0.714264	99
44
Properties=species:S:1:pos:R:3:Z:I:1 energy=-304.08054285015254 field_type=dipole dipole="0.000000 0.000000 0.000000" charge=0
C	-2.098272	-1.245201	-0.141689	6
N	-0.680732	-0.910061	-0.119039	7
C	-0.460752	0.403069	0.527721	6
C	1.043547	0.809529	0.555461	6
N	1.879628	-0.311871	1.002571	7
C	1.496567	1.233699	-0.781859	6
C	1.871298	1.575629	-1.872159	6
H	-2.236822	-2.207071	-0.644959	1
H	-2.681762	-0.494431	-0.684389	1
H	-2.495722	-1.343961	0.873471	1
H	-0.334592	-0.854001	-1.079379	1
H	-0.815632	0.340999	1.564381	1
H	-1.044362	1.179889	0.017501	1
H	1.169648	1.644019	1.254771	1
H	1.601228	-1.112391	0.426751	1
H	1.569088	-0.580601	1.935091	1
H	2.217648	1.872759	-2.834239	1
Es	2.194971	-0.244383	0.993517	99
Es	1.043618	0.809447	0.555350	99
Es	0.296699	0.607404	0.516038	99
Es	1.996535	1.391234	-1.240768	99
Es	1.510797	0.189264	0.794263	99
Es	1.518524	1.711887	-1.296647	99
Es	-0.857043	0.938965	0.174985	99
Es	1.878951	-0.311995	1.002616	99
Es	1.671286	-0.468545	1.578076	99
Es	-0.602427	-0.332006	0.141068	99
Es	1.121723	1.370265	1.016790	99
Es	-0.499497	-1.129239	0.050130	99
Es	-2.186923	-1.884517	-0.484995	99
Es	-2.371257	-1.311265	0.560804	99
Es	-0.681057	-0.909602	-0.119333	99
Es	1.871362	1.575696	-1.872403	99
Es	-2.098139	-1.245170	-0.141685	99
Es	-0.485320	-0.853638	-0.714484	99
Es	2.095659	1.771082	-2.503920	99
Es	1.276501	1.033277	-0.154280	99
Es	1.524597	1.114964	-1.481486	99
Es	1.721284	-0.772461	0.652670	99
Es	-0.460713	0.402954	0.527664	99
Es	1.496469	1.233619	-0.781616	99
Es	-0.703139	0.357538	1.248364	99
Es	-2.500598	-0.727851	-0.520089	99
Es	-1.300772	-1.051964	-0.118553	99
44
Properties=species:S:1:pos:R:3:Z:I:1 energy=-304.08054285015254 field_type=dipole dipole="0.000000 0.000000 0.000000" charge=0
C	-2.098272	-1.245201	-0.141689	6
N	-0.680732	-0.910061	-0.119039	7
C	-0.460752	0.403069	0.527721	6
C	1.043547	0.809529	0.555461	6
N	1.879628	-0.311871	1.002571	7
C	1.496567	1.233699	-0.781859	6
C	1.871298	1.575629	-1.872159	6
H	-2.236822	-2.207071	-0.644959	1
H	-2.681762	-0.494431	-0.684389	1
H	-2.495722	-1.343961	0.873471	1
H	-0.334592	-0.854001	-1.079379	1
H	-0.815632	0.340999	1.564381	1
H	-1.044362	1.179889	0.017501	1
H	1.169648	1.644019	1.254771	1
H	1.601228	-1.112391	0.426751	1
H	1.569088	-0.580601	1.935091	1
H	2.217648	1.872759	-2.834239	1
Es	1.671229	-0.468547	1.578238	99
Es	1.513601	0.191307	0.793107	99
Es	1.723438	-0.772800	0.651662	99
Es	1.276420	1.033549	-0.154292	99
Es	-2.500316	-0.727822	-0.520615	99
Es	1.878988	-0.311992	1.002618	99
Es	2.095632	1.770959	-2.504003	99
Es	-0.602547	-0.332137	0.141269	99
Es	1.496471	1.233626	-0.781614	99
Es	-0.857003	0.938856	0.174769	99
Es	2.189811	-0.245751	0.995126	99
Es	-0.703156	0.357392	1.248461	99
Es	-0.460712	0.402951	0.527663	99
Es	-2.371396	-1.311574	0.560870	99
Es	-2.098138	-1.245173	-0.141687	99
Es	1.558766	1.096596	-1.474597	99
Es	1.043618	0.809445	0.555350	99
Es	-0.681078	-0.909540	-0.119418	99
Es	-1.299855	-1.056202	-0.115593	99
Es	0.296782	0.607039	0.515931	99
Es	-0.485395	-0.853263	-0.714653	99
Es	1.121689	1.370084	1.017224	99
Es	-0.500362	-1.125366	0.047520	99
Es	1.483161	1.687512	-1.317456	99
Es	1.997822	1.433902	-1.226832	99
Es	1.871372	1.575700	-1.872398	99
Es	-2.186755	-1.883787	-0.484575	99
44
Properties=species:S:1:pos:R:3:Z:I:1 energy=-304.08054285015254 field_type=dipole dipole="0.000000 0.000000 0.000000" charge=0
C	-2.098272	-1.245201	-0.141689	6
N	-0.680732	-0.910061	-0.119039	7
C	-0.460752	0.403069	0.527721	6
C	1.043547	0.809529	0.555461	6
N	1.879628	-0.311871	1.002571	7
C	1.496567	1.233699	-0.781859	6
C	1.871298	1.575629	-1.872159	6
H	-2.236822	-2.207071	-0.644959	1
H	-2.681762	-0.494431	-0.684389	1
H	-2.495722	-1.343961	0.873471	1
H	-0.334592	-0.854001	-1.079379	1
H	-0.815632	0.340999	1.564381	1
H	-1.044362	1.179889	0.017501	1
H	1.169648	1.644019	1.254771	1
H	1.601228	-1.112391	0.426751	1
H	1.569088	-0.580601	1.935091	1
H	2.217648	1.872759	-2.834239	1
Es	1.496469	1.233626	-0.781614	99
Es	1.432536	1.636412	-1.352990	99
Es	-1.299480	-1.058913	-0.112885	99
Es	0.297121	0.606991	0.515769	99
Es	-2.371467	-1.311652	0.560941	99
Es	1.724535	-0.772957	0.651225	99
Es	2.095611	1.770536	-2.504167	99
Es	1.626425	1.072201	-1.457522	99
Es	1.043617	0.809447	0.555350	99
Es	-2.098142	-1.245172	-0.141685	99
Es	1.871373	1.575701	-1.872396	99
Es	-0.460711	0.402950	0.527661	99
Es	-0.485318	-0.852926	-0.714740	99
Es	-0.602863	-0.332723	0.140409	99
Es	-2.186442	-1.883341	-0.484103	99
Es	1.514966	0.191734	0.792873	99
Es	1.981032	1.509535	-1.208244	99
Es	1.671100	-0.468295	1.578400	99
Es	1.121459	1.370082	1.017258	99
Es	1.276131	1.033674	-0.154429	99
Es	2.187316	-0.246313	0.995798	99
Es	1.878960	-0.311993	1.002617	99
Es	-0.500763	-1.122096	0.046056	99
Es	-0.681053	-0.909565	-0.119370	99
Es	-2.500247	-0.728064	-0.521200	99
Es	-0.856829	0.938721	0.174504	99
Es	-0.703248	0.357362	1.248559	99
44
Properties=species:S:1:pos:R:3:Z:I:1 energy=-304.08054285015254 field_type=dipole dipole="0.000000 0.000000 0.000000" charge=0
C	-2.098272	-1.245201	-0.141689	6
N	-0.680732	-0.910061	-0.119039	7
C	-0.460752	0.403069	0.527721	6
C	1.043547	0.809529	0.555461	6
N	1.879628	-0.311871	1.002571	7
C	1.496567	1.233699	-0.781859	6
C	1.871298	1.575629	-1.872159	6
H	-2.236822	-2.207071	-0.644959	1
H	-2.681762	-0.494431	-0.684389	1
H	-2.495722	-1.343961	0.873471	1
H	-0.334592	-0.854001	-1.079379	1
H	-0.815632	0.340999	1.564381	1
H	-1.044362	1.179889	0.017501	1
H	1.169648	1.644019	1.254771	1
H	1.601228	-1.112391	0.426751	1
H	1.569088	-0.580601	1.935091	1
H	2.217648	1.872759	-2.834239	1
Es	-0.703493	0.357210	1.248538	99
Es	1.670535	-0.468479	1.578250	99
Es	1.919557	1.617866	-1.192752	99
Es	1.736565	1.066252	-1.420651	99
Es	1.275898	1.033945	-0.154471	99
Es	-2.098139	-1.245169	-0.141685	99
Es	-0.485007	-0.852944	-0.714801	99
Es	1.496468	1.233625	-0.781615	99
Es	0.297111	0.606699	0.515885	99
Es	1.871369	1.575697	-1.872399	99
Es	1.878953	-0.311989	1.002610	99
Es	1.384166	1.534130	-1.405226	99
Es	1.725317	-0.772693	0.651464	99
Es	-1.299223	-1.059136	-0.112340	99
Es	2.095635	1.770234	-2.504269	99
Es	-0.460712	0.402952	0.527663	99
Es	-0.856647	0.938644	0.174325	99
Es	-2.500298	-0.728413	-0.521575	99
Es	2.187596	-0.245845	0.996021	99
Es	-0.603085	-0.333213	0.139527	99
Es	-0.500806	-1.121199	0.046463	99
Es	-2.371616	-1.311904	0.560962	99
Es	1.514343	0.191430	0.792401	99
Es	-0.681097	-0.909524	-0.119420	99
Es	1.043617	0.809445	0.555349	99
Es	-2.186439	-1.882510	-0.483485	99
Es	1.121519	1.369853	1.017306	99
44
Properties=species:S:1:pos:R:3:Z:I:1 energy=-304.08054285015254 field_type=dipole dipole="0.000000 0.000000 0.000000" charge=0
C	-2.098272	-1.245201	-0.141689	6
N	-0.680732	-0.910061	-0.119039	7
C	-0.460752	0.403069	0.527721	6
C	1.043547	0.809529	0.555461	6
N	1.879628	-0.311871	1.002571	7
C	1.496567	1.233699	-0.781859	6
C	1.871298	1.575629	-1.872159	6
H	-2.236822	-2.207071	-0.644959	1
H	-2.681762	-0.494431	-0.684389	1
H	-2.495722	-1.343961	0.873471	1
H	-0.334592	-0.854001	-1.079379	1
H	-0.815632	0.340999	1.564381	1
H	-1.044362	1.179889	0.017501	1
H	1.169648	1.644019	1.254771	1
H	1.601228	-1.112391	0.426751	1
H	1.569088	-0.580601	1.935091	1
H	2.217648	1.872759	-2.834239	1
Es	0.296942	0.606558	0.516020	99
Es	1.043617	0.809447	0.555350	99
Es	1.121589	1.369679	1.017396	99
Es	1.878893	-0.311991	1.002607	99
Es	2.095599	1.770316	-2.504274	99
Es	1.501281	1.132828	-1.484643	99
Es	1.871367	1.575699	-1.872400	99
Es	1.671075	-0.468290	1.578584	99
Es	1.724512	-0.772393	0.651926	99
Es	1.276440	1.033830	-0.154371	99
Es	1.517571	0.193535	0.791479	99
Es	-2.500390	-0.728687	-0.522398	99
Es	2.184542	-0.248190	0.996002	99
Es	-0.485367	-0.851994	-0.714822	99
Es	-0.500924	-1.119732	0.045237	99
Es	-0.602854	-0.333943	0.139343	99
Es	-1.299044	-1.060725	-0.110729	99
Es	-2.371655	-1.312329	0.560950	99
Es	-2.186063	-1.881655	-0.482718	99
Es	-0.703392	0.356999	1.248601	99
Es	-0.681084	-0.909545	-0.119399	99
Es	-2.098138	-1.245172	-0.141686	99
Es	1.496467	1.233625	-0.781616	99
Es	-0.460713	0.402953	0.527664	99
Es	1.996000	1.364783	-1.248795	99
Es	-0.856683	0.938667	0.174110	99
Es	1.542503	1.720690	-1.285344	99
