43
Properties=species:S:1:pos:R:3:Z:I:1 energy=-270.9520172478667 field_type=dipole dipole="0.000000 0.000000 0.000000" charge=0
C	-1.997691	-1.547190	0.350141	6
C	-0.577311	-1.409790	-0.088589	6
C	0.159089	-0.287910	-0.006529	6
C	1.574399	-0.153060	-0.513649	6
C	1.817709	1.325310	-0.512949	6
C	0.789149	1.995130	0.019771	6
C	-0.306281	1.071390	0.458991	6
H	-2.133101	-2.500540	0.871991	1
H	-2.661661	-1.536370	-0.519659	1
H	-2.305341	-0.750370	1.035521	1
H	-0.123711	-2.303850	-0.510819	1
H	1.679049	-0.559750	-1.523639	1
H	2.281459	-0.647950	0.161111	1
H	2.721829	1.779890	-0.893119	1
H	0.740939	3.069070	0.131561	1
H	-0.405031	1.101420	1.549501	1
H	-1.253491	1.354570	-0.009639	1
Es	2.049350	-0.485573	-0.057634	99
Es	0.872506	-0.240249	-0.259531	99
Es	-0.318695	-0.769698	-0.346174	99
Es	1.817809	1.325225	-0.512987	99
Es	-0.271640	-2.024058	-0.377221	99
Es	-1.997657	-1.547189	0.350129	99
Es	0.745767	2.725520	0.101515	99
Es	-0.092721	0.383421	0.241997	99
Es	1.574381	-0.153023	-0.513636	99
Es	-0.372974	1.088965	1.193273	99
Es	1.644823	-0.430425	-1.195115	99
Es	-2.085454	-2.194289	0.701181	99
Es	1.727214	0.584111	-0.529427	99
Es	0.789040	1.995176	0.019833	99
Es	-0.577390	-1.409870	-0.088587	99
Es	-0.947720	1.259755	0.143518	99
Es	1.448519	1.654778	0.043328	99
Es	1.174491	1.703426	-0.546606	99
Es	0.224362	1.560167	0.249010	99
Es	-1.289100	-1.471521	0.136149	99
Es	-2.439281	-1.537883	-0.241042	99
Es	-2.202479	-1.001891	0.812319	99
Es	-0.108586	-0.945267	0.263930	99
Es	-0.306243	1.071382	0.458975	99
Es	0.159172	-0.287778	-0.006520	99
Es	2.437772	1.624519	-0.774115	99
43
Properties=species:S:1:pos:R:3:Z:I:1 energy=-270.9520172478667 field_type=dipole dipole="0.000000 0.000000 0.000000" charge=0
C	-1.997691	-1.547190	0.350141	6
C	-0.577311	-1.409790	-0.088589	6
C	0.159089	-0.287910	-0.006529	6
C	1.574399	-0.153060	-0.513649	6
C	1.817709	1.325310	-0.512949	6
C	0.789149	1.995130	0.019771	6
C	-0.306281	1.071390	0.458991	6
H	-2.133101	-2.500540	0.871991	1
H	-2.661661	-1.536370	-0.519659	1
H	-2.305341	-0.750370	1.035521	1
H	-0.123711	-2.303850	-0.510819	1
H	1.679049	-0.559750	-1.523639	1
H	2.281459	-0.647950	0.161111	1
H	2.721829	1.779890	-0.893119	1
H	0.740939	3.069070	0.131561	1
H	-0.405031	1.101420	1.549501	1
H	-1.253491	1.354570	-0.009639	1
Es	-0.317680	-0.770619	-0.342936	99
Es	1.727947	0.584654	-0.529723	99
Es	1.176319	1.703820	-0.543489	99
Es	0.872276	-0.242282	-0.258683	99
Es	-2.437545	-1.538511	-0.238429	99
Es	-0.093878	0.381871	0.242936	99
Es	1.817801	1.325228	-0.512996	99
Es	-1.997659	-1.547190	0.350129	99
Es	-0.306242	1.071382	0.458975	99
Es	-2.204207	-1.000799	0.812693	99
Es	2.047611	-0.484761	-0.059851	99
Es	0.746559	2.726521	0.101944	99
Es	-2.086457	-2.194610	0.699854	99
Es	1.645954	-0.431210	-1.194033	99
Es	-0.947874	1.260068	0.145424	99
Es	-0.577391	-1.409881	-0.088574	99
Es	0.159174	-0.287780	-0.006516	99
Es	-0.373105	1.089077	1.190405	99
Es	0.224486	1.560901	0.248716	99
Es	-0.109796	-0.944362	0.261142	99
Es	-0.270665	-2.024451	-0.378170	99
Es	1.446570	1.653932	0.040528	99
Es	0.789040	1.995178	0.019829	99
Es	1.574382	-0.153023	-0.513635	99
Es	2.438568	1.625498	-0.773235	99
Es	-1.288920	-1.470918	0.134254	99
43
Properties=species:S:1:pos:R:3:Z:I:1 energy=-270.9520172478667 field_type=dipole dipole="0.000000 0.000000 0.000000" charge=0
C	-1.997691	-1.547190	0.350141	6
C	-0.577311	-1.409790	-0.088589	6
C	0.159089	-0.287910	-0.006529	6
C	1.574399	-0.153060	-0.513649	6
C	1.817709	1.325310	-0.512949	6
C	0.789149	1.995130	0.019771	6
C	-0.306281	1.071390	0.458991	6
H	-2.133101	-2.500540	0.871991	1
H	-2.661661	-1.536370	-0.519659	1
H	-2.305341	-0.750370	1.035521	1
H	-0.123711	-2.303850	-0.510819	1
H	1.679049	-0.559750	-1.523639	1
H	2.281459	-0.647950	0.161111	1
H	2.721829	1.779890	-0.893119	1
H	0.740939	3.069070	0.131561	1
H	-0.405031	1.101420	1.549501	1
H	-1.253491	1.354570	-0.009639	1
Es	1.445320	1.653387	0.038708	99
Es	-0.306243	1.071382	0.458975	99
Es	-0.094323	0.380701	0.244178	99
Es	0.747170	2.727083	0.102268	99
Es	-2.436105	-1.539050	-0.236760	99
Es	-0.317192	-0.771426	-0.341210	99
Es	0.159176	-0.287779	-0.006515	99
Es	2.439099	1.626055	-0.772466	99
Es	0.872162	-0.243765	-0.258183	99
Es	-0.269947	-2.024719	-0.378592	99
Es	0.224526	1.561660	0.248815	99
Es	-0.110695	-0.943343	0.258735	99
Es	1.817801	1.325229	-0.512985	99
Es	-0.577392	-1.409883	-0.088571	99
Es	-0.948107	1.260168	0.146673	99
Es	-2.087241	-2.194521	0.698893	99
Es	0.789036	1.995177	0.019833	99
Es	-1.288691	-1.470682	0.133522	99
Es	1.574382	-0.153023	-0.513636	99
Es	1.177526	1.704113	-0.541508	99
Es	1.646993	-0.431882	-1.193183	99
Es	2.046286	-0.483900	-0.061082	99
Es	-2.205589	-1.000064	0.812787	99
Es	1.728183	0.584919	-0.530151	99
Es	-0.373212	1.089085	1.187886	99
Es	-1.997658	-1.547189	0.350129	99
43
Properties=species:S:1:pos:R:3:Z:I:1 energy=-270.9520172478667 field_type=dipole dipole="0.000000 0.000000 0.000000" charge=0
C	-1.997691	-1.547190	0.350141	6
C	-0.577311	-1.409790	-0.088589	6
C	0.159089	-0.287910	-0.006529	6
C	1.574399	-0.153060	-0.513649	6
C	1.817709	1.325310	-0.512949	6
C	0.789149	1.995130	0.019771	6
C	-0.306281	1.071390	0.458991	6
H	-2.133101	-2.500540	0.871991	1
H	-2.661661	-1.536370	-0.519659	1
H	-2.305341	-0.750370	1.035521	1
H	-0.123711	-2.303850	-0.510819	1
H	1.679049	-0.559750	-1.523639	1
H	2.281459	-0.647950	0.161111	1
H	2.721829	1.779890	-0.893119	1
H	0.740939	3.069070	0.131561	1
H	-0.405031	1.101420	1.549501	1
H	-1.253491	1.354570	-0.009639	1
Es	0.872307	-0.244809	-0.257562	99
Es	2.439365	1.626492	-0.772048	99
Es	-2.088308	-2.195012	0.697891	99
Es	1.647483	-0.432234	-1.192785	99
Es	0.789038	1.995178	0.019836	99
Es	0.159176	-0.287780	-0.006511	99
Es	-0.316835	-0.771919	-0.339692	99
Es	1.817802	1.325228	-0.512997	99
Es	2.045137	-0.483427	-0.062380	99
Es	-1.997659	-1.547189	0.350129	99
Es	-2.206565	-0.999478	0.812813	99
Es	-0.306242	1.071382	0.458975	99
Es	-2.434452	-1.538879	-0.235134	99
Es	1.728826	0.585162	-0.529947	99
Es	-0.372719	1.088837	1.185481	99
Es	-0.577395	-1.409880	-0.088580	99
Es	1.178327	1.704341	-0.540065	99
Es	-0.948813	1.260472	0.148008	99
Es	-0.269644	-2.024690	-0.379260	99
Es	-0.094801	0.379881	0.245014	99
Es	0.747662	2.727464	0.102552	99
Es	1.574382	-0.153023	-0.513635	99
Es	-1.288685	-1.470556	0.132608	99
Es	1.444430	1.652850	0.037595	99
Es	0.224594	1.562166	0.248773	99
Es	-0.111144	-0.942845	0.257481	99
43
Properties=species:S:1:pos:R:3:Z:I:1 energy=-270.9520172478667 field_type=dipole dipole="0.000000 0.000000 0.000000" charge=0
C	-1.997691	-1.547190	0.350141	6
C	-0.577311	-1.409790	-0.088589	6
C	0.159089	-0.287910	-0.006529	6
C	1.574399	-0.153060	-0.513649	6
C	1.817709	1.325310	-0.512949	6
C	0.789149	1.995130	0.019771	6
C	-0.306281	1.071390	0.458991	6
H	-2.133101	-2.500540	0.871991	1
H	-2.661661	-1.536370	-0.519659	1
H	-2.305341	-0.750370	1.035521	1
H	-0.123711	-2.303850	-0.510819	1
H	1.679049	-0.559750	-1.523639	1
H	2.281459	-0.647950	0.161111	1
H	2.721829	1.779890	-0.893119	1
H	0.740939	3.069070	0.131561	1
H	-0.405031	1.101420	1.549501	1
H	-1.253491	1.354570	-0.009639	1
Es	2.043835	-0.482599	-0.063163	99
Es	-0.949257	1.260665	0.148812	99
Es	1.648329	-0.432931	-1.192520	99
Es	0.872313	-0.245536	-0.257099	99
Es	1.179084	1.704565	-0.538801	99
Es	0.159176	-0.287776	-0.006517	99
Es	2.439671	1.626880	-0.771669	99
Es	-0.111539	-0.942455	0.256413	99
Es	0.748002	2.727763	0.102662	99
Es	1.729163	0.585249	-0.529837	99
Es	-0.306243	1.071383	0.458975	99
Es	-1.997664	-1.547190	0.350123	99
Es	0.789034	1.995179	0.019830	99
Es	0.224623	1.562535	0.248976	99
Es	-1.288604	-1.470473	0.131883	99
Es	-0.316524	-0.772302	-0.338744	99
Es	1.574384	-0.153025	-0.513633	99
Es	1.443660	1.652326	0.036667	99
Es	1.817805	1.325226	-0.512994	99
Es	-0.577390	-1.409884	-0.088568	99
Es	-2.207366	-0.999045	0.812723	99
Es	-0.095031	0.379377	0.245700	99
Es	-0.372526	1.088607	1.183626	99
Es	-2.089021	-2.195119	0.697219	99
Es	-0.269360	-2.024740	-0.379577	99
Es	-2.433285	-1.538946	-0.233926	99
43
Properties=species:S:1:pos:R:3:Z:I:1 energy=-270.9520172478667 field_type=dipole dipole="0.000000 0.000000 0.000000" charge=0
C	-1.997691	-1.547190	0.350141	6
C	-0.577311	-1.409790	-0.088589	6
C	0.159089	-0.287910	-0.006529	6
C	1.574399	-0.153060	-0.513649	6
C	1.817709	1.325310	-0.512949	6
C	0.789149	1.995130	0.019771	6
C	-0.306281	1.071390	0.458991	6
H	-2.133101	-2.500540	0.871991	1
H	-2.661661	-1.536370	-0.519659	1
H	-2.305341	-0.750370	1.035521	1
H	-0.123711	-2.303850	-0.510819	1
H	1.679049	-0.559750	-1.523639	1
H	2.281459	-0.647950	0.161111	1
H	2.721829	1.779890	-0.893119	1
H	0.740939	3.069070	0.131561	1
H	-0.405031	1.101420	1.549501	1
H	-1.253491	1.354570	-0.009639	1
Es	-0.095324	0.378784	0.246242	99
Es	-0.111797	-0.941989	0.255833	99
Es	0.789034	1.995179	0.019830	99
Es	0.872329	-0.246173	-0.256816	99
Es	2.042767	-0.481851	-0.063901	99
Es	-2.089679	-2.195129	0.696518	99
Es	1.443312	1.652325	0.035911	99
Es	-0.372063	1.088513	1.181752	99
Es	1.817804	1.325225	-0.512997	99
Es	-0.316367	-0.772747	-0.338030	99
Es	1.574382	-0.153023	-0.513636	99
Es	-0.269166	-2.024756	-0.379885	99
Es	1.729510	0.585374	-0.529807	99
Es	1.649042	-0.433494	-1.192243	99
Es	1.179346	1.704449	-0.538020	99
Es	-0.577393	-1.409882	-0.088575	99
Es	-2.208180	-0.998749	0.812647	99
Es	2.439834	1.627055	-0.771254	99
Es	-1.288376	-1.470501	0.131603	99
Es	-2.432196	-1.538987	-0.233013	99
Es	0.748251	2.727957	0.102771	99
Es	-0.306244	1.071383	0.458979	99
Es	0.159177	-0.287779	-0.006511	99
Es	0.224711	1.562817	0.249193	99
Es	-1.997658	-1.547189	0.350130	99
Es	-0.949789	1.260920	0.149840	99
43
Properties=species:S:1:pos:R:3:Z:I:1 energy=-270.9520172478667 field_type=dipole dipole="0.000000 0.000000 0.000000" charge=0
C	-1.997691	-1.547190	0.350141	6
C	-0.577311	-1.409790	-0.088589	6
C	0.159089	-0.287910	-0.006529	6
C	1.574399	-0.153060	-0.513649	6
C	1.817709	1.325310	-0.512949	6
C	0.789149	1.995130	0.019771	6
C	-0.306281	1.071390	0.458991	6
H	-2.133101	-2.500540	0.871991	1
H	-2.661661	-1.536370	-0.519659	1
H	-2.305341	-0.750370	1.035521	1
H	-0.123711	-2.303850	-0.510819	1
H	1.679049	-0.559750	-1.523639	1
H	2.281459	-0.647950	0.161111	1
H	2.721829	1.779890	-0.893119	1
H	0.740939	3.069070	0.131561	1
H	-0.405031	1.101420	1.549501	1
H	-1.253491	1.354570	-0.009639	1
Es	0.748486	2.728006	0.103048	99
Es	-0.950324	1.261160	0.150706	99
Es	-0.095509	0.378569	0.246507	99
Es	-0.577396	-1.409883	-0.088575	99
Es	-0.306243	1.071383	0.458976	99
Es	1.442911	1.652035	0.035471	99
Es	1.574384	-0.153024	-0.513635	99
Es	0.159173	-0.287776	-0.006520	99
Es	1.649661	-0.433848	-1.191971	99
Es	-2.090227	-2.195515	0.695848	99
Es	0.224722	1.563096	0.249518	99
Es	-0.371678	1.088084	1.180204	99
Es	2.440012	1.627199	-0.770947	99
Es	-0.268965	-2.024779	-0.380086	99
Es	1.729679	0.585497	-0.529754	99
Es	-1.997659	-1.547189	0.350130	99
Es	-2.208648	-0.998478	0.812691	99
Es	-0.316123	-0.773167	-0.337445	99
Es	-1.288551	-1.470315	0.131088	99
Es	-2.431213	-1.538787	-0.231960	99
Es	1.817801	1.325225	-0.513002	99
Es	2.041960	-0.481296	-0.064419	99
Es	0.789035	1.995176	0.019826	99
Es	1.179724	1.704731	-0.537547	99
Es	0.872317	-0.246793	-0.256550	99
Es	-0.112063	-0.941578	0.254960	99
43
Properties=species:S:1:pos:R:3:Z:I:1 energy=-270.9520172478667 field_type=dipole dipole="0.000000 0.000000 0.000000" charge=0
C	-1.997691	-1.547190	0.350141	6
C	-0.577311	-1.409790	-0.088589	6
C	0.159089	-0.287910	-0.006529	6
C	1.574399	-0.153060	-0.513649	6
C	1.817709	1.325310	-0.512949	6
C	0.789149	1.995130	0.019771	6
C	-0.306281	1.071390	0.458991	6
H	-2.133101	-2.500540	0.871991	1
H	-2.661661	-1.536370	-0.519659	1
H	-2.305341	-0.750370	1.035521	1
H	-0.123711	-2.303850	-0.510819	1
H	1.679049	-0.559750	-1.523639	1
H	2.281459	-0.647950	0.161111	1
H	2.721829	1.779890	-0.893119	1
H	0.740939	3.069070	0.131561	1
H	-0.405031	1.101420	1.549501	1
H	-1.253491	1.354570	-0.009639	1
Es	0.159179	-0.287780	-0.006507	99
Es	-0.268770	-2.024739	-0.380348	99
Es	-1.288562	-1.470290	0.130574	99
Es	-0.316061	-0.773387	-0.336881	99
Es	-0.112290	-0.941285	0.254421	99
Es	0.224791	1.563284	0.249606	99
Es	1.442566	1.651777	0.035026	99
Es	1.180081	1.704886	-0.536975	99
Es	1.730036	0.585450	-0.529738	99
Es	2.440111	1.627386	-0.770608	99
Es	-1.997663	-1.547189	0.350120	99
Es	0.748599	2.728151	0.103084	99
Es	-0.577395	-1.409883	-0.088575	99
Es	-0.950767	1.261333	0.151537	99
Es	-0.371281	1.087937	1.178736	99
Es	1.817809	1.325226	-0.512988	99
Es	-0.095641	0.378253	0.246977	99
Es	-2.090610	-2.195609	0.695392	99
Es	1.574382	-0.153023	-0.513635	99
Es	2.041045	-0.480690	-0.064943	99
Es	-2.430600	-1.538722	-0.231172	99
Es	-2.209001	-0.998337	0.812706	99
Es	0.872326	-0.247183	-0.256250	99
Es	0.789035	1.995179	0.019828	99
Es	-0.306250	1.071386	0.458972	99
Es	1.650197	-0.434399	-1.191798	99
43
Properties=species:S:1:pos:R:3:Z:I:1 energy=-270.9520172478667 field_type=dipole dipole="0.000000 0.000000 0.000000" charge=0
C	-1.997691	-1.547190	0.350141	6
C	-0.577311	-1.409790	-0.088589	6
C	0.159089	-0.287910	-0.006529	6
C	1.574399	-0.153060	-0.513649	6
C	1.817709	1.325310	-0.512949	6
C	0.789149	1.995130	0.019771	6
C	-0.306281	1.071390	0.458991	6
H	-2.133101	-2.500540	0.871991	1
H	-2.661661	-1.536370	-0.519659	1
H	-2.305341	-0.750370	1.035521	1
H	-0.123711	-2.303850	-0.510819	1
H	1.679049	-0.559750	-1.523639	1
H	2.281459	-0.647950	0.161111	1
H	2.721829	1.779890	-0.893119	1
H	0.740939	3.069070	0.131561	1
H	-0.405031	1.101420	1.549501	1
H	-1.253491	1.354570	-0.009639	1
Es	1.650553	-0.434800	-1.191681	99
Es	-1.997658	-1.547189	0.350129	99
Es	-0.095832	0.377971	0.247212	99
Es	-1.288548	-1.470221	0.130436	99
Es	-0.315873	-0.773702	-0.336519	99
Es	0.159177	-0.287779	-0.006510	99
Es	0.789033	1.995179	0.019829	99
Es	-2.091131	-2.195754	0.694923	99
Es	-0.370939	1.087760	1.177537	99
Es	-0.951149	1.261567	0.152238	99
Es	0.748765	2.728229	0.103134	99
Es	-0.306244	1.071382	0.458981	99
Es	1.574390	-0.153029	-0.513628	99
Es	-0.112434	-0.940989	0.253926	99
Es	0.872462	-0.247505	-0.255898	99
Es	-0.268715	-2.024764	-0.380463	99
Es	2.040367	-0.480212	-0.065418	99
Es	0.224772	1.563446	0.249817	99
Es	1.730230	0.585521	-0.529676	99
Es	1.180295	1.704926	-0.536559	99
Es	1.442333	1.651613	0.034710	99
Es	2.440233	1.627486	-0.770395	99
Es	-2.209472	-0.998110	0.812565	99
Es	-0.577394	-1.409883	-0.088575	99
Es	-2.429759	-1.538637	-0.230554	99
Es	1.817804	1.325226	-0.512997	99
43
Properties=species:S:1:pos:R:3:Z:I:1 energy=-270.9520172478667 field_type=dipole dipole="0.000000 0.000000 0.000000" charge=0
C	-1.997691	-1.547190	0.350141	6
C	-0.577311	-1.409790	-0.088589	6
C	0.159089	-0.287910	-0.006529	6
C	1.574399	-0.153060	-0.513649	6
C	1.817709	1.325310	-0.512949	6
C	0.789149	1.995130	0.019771	6
C	-0.306281	1.071390	0.458991	6
H	-2.133101	-2.500540	0.871991	1
H	-2.661661	-1.536370	-0.519659	1
H	-2.305341	-0.750370	1.035521	1
H	-0.123711	-2.303850	-0.510819	1
H	1.679049	-0.559750	-1.523639	1
H	2.281459	-0.647950	0.161111	1
H	2.721829	1.779890	-0.893119	1
H	0.740939	3.069070	0.131561	1
H	-0.405031	1.101420	1.549501	1
H	-1.253491	1.354570	-0.009639	1
Es	2.039707	-0.479846	-0.065711	99
Es	-0.268666	-2.024696	-0.380705	99
Es	1.574382	-0.153023	-0.513636	99
Es	-2.429211	-1.538473	-0.229902	99
Es	1.650996	-0.435139	-1.191572	99
Es	-2.091361	-2.196067	0.694463	99
Es	-0.577396	-1.409882	-0.088579	99
Es	-1.997658	-1.547189	0.350129	99
Es	-0.306244	1.071382	0.458976	99
Es	-0.095846	0.377870	0.247565	99
Es	-0.370664	1.087545	1.176363	99
Es	1.180432	1.704954	-0.536307	99
Es	0.872427	-0.247677	-0.255800	99
Es	2.440288	1.627521	-0.770202	99
Es	-0.951623	1.261620	0.152796	99
Es	0.789033	1.995180	0.019829	99
Es	0.748925	2.728278	0.103363	99
Es	-1.288636	-1.469942	0.130037	99
Es	0.224895	1.563617	0.250111	99
Es	0.159178	-0.287780	-0.006507	99
Es	-0.112468	-0.940975	0.253623	99
Es	-0.315806	-0.773760	-0.336145	99
Es	1.730453	0.585480	-0.529558	99
Es	1.442122	1.651636	0.034285	99
Es	-2.209795	-0.998127	0.812638	99
Es	1.817806	1.325226	-0.512994	99
43
Properties=species:S:1:pos:R:3:Z:I:1 energy=-270.9520172478667 field_type=dipole dipole="0.000000 0.000000 0.000000" charge=0
C	-1.997691	-1.547190	0.350141	6
C	-0.577311	-1.409790	-0.088589	6
C	0.159089	-0.287910	-0.006529	6
C	1.574399	-0.153060	-0.513649	6
C	1.817709	1.325310	-0.512949	6
C	0.789149	1.995130	0.019771	6
C	-0.306281	1.071390	0.458991	6
H	-2.133101	-2.500540	0.871991	1
H	-2.661661	-1.536370	-0.519659	1
H	-2.305341	-0.750370	1.035521	1
H	-0.123711	-2.303850	-0.510819	1
H	1.679049	-0.559750	-1.523639	1
H	2.281459	-0.647950	0.161111	1
H	2.721829	1.779890	-0.893119	1
H	0.740939	3.069070	0.131561	1
H	-0.405031	1.101420	1.549501	1
H	-1.253491	1.354570	-0.009639	1
Es	-2.428557	-1.538373	-0.229506	99
Es	-0.112573	-0.940747	0.253361	99
Es	-0.370401	1.087332	1.175306	99
Es	2.440361	1.627594	-0.770056	99
Es	1.574383	-0.153025	-0.513634	99
Es	-1.997658	-1.547190	0.350129	99
Es	1.817804	1.325226	-0.512997	99
Es	-2.091943	-2.196051	0.694125	99
Es	-0.306246	1.071382	0.458974	99
Es	-0.315685	-0.774033	-0.335864	99
Es	0.224962	1.563743	0.250275	99
Es	1.730593	0.585579	-0.529440	99
Es	0.872485	-0.247943	-0.255728	99
Es	0.748985	2.728293	0.103491	99
Es	1.180608	1.705086	-0.536064	99
Es	0.789031	1.995179	0.019825	99
Es	-0.951975	1.261738	0.153384	99
Es	-2.210026	-0.997856	0.812467	99
Es	1.441974	1.651488	0.034154	99
Es	0.159180	-0.287780	-0.006504	99
Es	-0.577394	-1.409883	-0.088574	99
Es	-1.288579	-1.470205	0.130069	99
Es	-0.268579	-2.024683	-0.380802	99
Es	-0.095957	0.377793	0.247692	99
Es	1.651405	-0.435481	-1.191487	99
Es	2.039067	-0.479450	-0.066035	99
43
Properties=species:S:1:pos:R:3:Z:I:1 energy=-270.9520172478667 field_type=dipole dipole="0.000000 0.000000 0.000000" charge=0
C	-1.997691	-1.547190	0.350141	6
C	-0.577311	-1.409790	-0.088589	6
C	0.159089	-0.287910	-0.006529	6
C	1.574399	-0.153060	-0.513649	6
C	1.817709	1.325310	-0.512949	6
C	0.789149	1.995130	0.019771	6
C	-0.306281	1.071390	0.458991	6
H	-2.133101	-2.500540	0.871991	1
H	-2.661661	-1.536370	-0.519659	1
H	-2.305341	-0.750370	1.035521	1
H	-0.123711	-2.303850	-0.510819	1
H	1.679049	-0.559750	-1.523639	1
H	2.281459	-0.647950	0.161111	1
H	2.721829	1.779890	-0.893119	1
H	0.740939	3.069070	0.131561	1
H	-0.405031	1.101420	1.549501	1
H	-1.253491	1.354570	-0.009639	1
Es	-0.315666	-0.774271	-0.335545	99
Es	-1.997661	-1.547188	0.350128	99
Es	-0.306248	1.071383	0.458981	99
Es	2.440406	1.627653	-0.769905	99
Es	0.872455	-0.248160	-0.255532	99
Es	1.574382	-0.153023	-0.513636	99
Es	0.749007	2.728369	0.103407	99
Es	0.789034	1.995181	0.019842	99
Es	-2.092281	-2.196150	0.693750	99
Es	1.180723	1.705162	-0.535883	99
Es	2.038602	-0.478999	-0.066287	99
Es	0.224935	1.563798	0.250286	99
Es	-0.112736	-0.940441	0.253040	99
Es	1.651791	-0.435804	-1.191347	99
Es	1.817807	1.325226	-0.512994	99
Es	-2.210330	-0.997797	0.812413	99
Es	-1.288503	-1.470145	0.129911	99
Es	-0.370262	1.087379	1.174684	99
Es	1.730761	0.585506	-0.529467	99
Es	-0.577399	-1.409881	-0.088585	99
Es	0.159179	-0.287779	-0.006507	99
Es	-0.952063	1.261865	0.153697	99
Es	-2.428022	-1.538291	-0.228992	99
Es	1.441864	1.651302	0.034105	99
Es	-0.096020	0.377539	0.247946	99
Es	-0.268490	-2.024699	-0.380949	99
43
Properties=species:S:1:pos:R:3:Z:I:1 energy=-270.9520172478667 field_type=dipole dipole="0.000000 0.000000 0.000000" charge=0
C	-1.997691	-1.547190	0.350141	6
C	-0.577311	-1.409790	-0.088589	6
C	0.159089	-0.287910	-0.006529	6
C	1.574399	-0.153060	-0.513649	6
C	1.817709	1.325310	-0.512949	6
C	0.789149	1.995130	0.019771	6
C	-0.306281	1.071390	0.458991	6
H	-2.133101	-2.500540	0.871991	1
H	-2.661661	-1.536370	-0.519659	1
H	-2.305341	-0.750370	1.035521	1
H	-0.123711	-2.303850	-0.510819	1
H	1.679049	-0.559750	-1.523639	1
H	2.281459	-0.647950	0.161111	1
H	2.721829	1.779890	-0.893119	1
H	0.740939	3.069070	0.131561	1
H	-0.405031	1.101420	1.549501	1
H	-1.253491	1.354570	-0.009639	1
Es	-1.288467	-1.470186	0.129861	99
Es	1.652292	-0.436204	-1.191210	99
Es	-0.315667	-0.774404	-0.335461	99
Es	1.180860	1.705207	-0.535654	99
Es	-1.997659	-1.547189	0.350129	99
Es	1.441688	1.651148	0.033921	99
Es	2.440442	1.627760	-0.769787	99
Es	-0.268428	-2.024706	-0.381002	99
Es	2.037956	-0.478550	-0.066545	99
Es	-0.306243	1.071382	0.458975	99
Es	1.730923	0.585503	-0.529365	99
Es	0.224939	1.563988	0.250609	99
Es	-0.952432	1.262022	0.154427	99
Es	-2.210385	-0.997788	0.812454	99
Es	-0.369925	1.087084	1.173684	99
Es	-2.427819	-1.538182	-0.228805	99
Es	0.159179	-0.287781	-0.006505	99
Es	1.817805	1.325226	-0.512996	99
Es	-2.092511	-2.196149	0.693522	99
Es	0.789044	1.995176	0.019844	99
Es	-0.096021	0.377448	0.247906	99
Es	0.749093	2.728431	0.103415	99
Es	0.872450	-0.248345	-0.255484	99
Es	1.574382	-0.153023	-0.513636	99
Es	-0.112834	-0.940255	0.252840	99
Es	-0.577395	-1.409882	-0.088577	99
