44
Properties=species:S:1:pos:R:3:Z:I:1 energy=-304.1219250186634 field_type=dipole dipole="0.000000 0.000000 0.000000" charge=0
C	-2.427419	-0.281313	-0.664499	6
N	-1.005979	-0.506733	-0.756579	7
C	-0.072889	0.466547	-0.561009	6
N	-0.216419	1.735357	-0.671159	7
C	1.273341	-0.031603	-0.195179	6
C	2.009301	0.558867	0.985141	6
C	1.471031	-0.836973	1.069860	6
H	-2.964019	-1.206513	-0.895469	1
H	-2.755859	0.481877	-1.377499	1
H	-2.702559	0.031087	0.347081	1
H	-0.717999	-1.439533	-0.478929	1
H	-1.172239	1.945887	-0.956849	1
H	1.885671	-0.295203	-1.052399	1
H	1.513221	1.339367	1.551430	1
H	3.079961	0.695667	0.889731	1
H	2.180311	-1.655853	1.042641	1
H	0.622541	-1.000933	1.723691	1
Es	-0.216767	1.734978	-0.671228	99
Es	-2.783426	-0.913199	-0.819654	99
Es	1.266695	-0.590406	0.353049	99
Es	0.887681	-0.947535	1.505121	99
Es	1.672414	1.074495	1.369642	99
Es	1.951519	-1.394266	1.048437	99
Es	1.676046	-0.215357	-0.772038	99
Es	-1.005905	-0.506534	-0.755907	99
Es	0.594451	0.199410	-0.365995	99
Es	2.009217	0.558709	0.985050	99
Es	1.655775	0.418118	0.292377	99
Es	-2.645738	0.240940	-1.146177	99
Es	-0.839823	-1.055332	-0.566319	99
Es	-1.611001	-0.394107	-0.703366	99
Es	-0.072942	0.466355	-0.561034	99
Es	2.736473	0.643518	0.918432	99
Es	-0.658580	-0.095694	-0.561778	99
Es	-0.877480	-0.440171	-1.026542	99
Es	1.807287	-0.164110	1.201105	99
Es	0.033393	1.989532	-0.618219	99
Es	-0.807082	1.850093	-0.843943	99
Es	-0.254074	1.250789	-0.353939	99
Es	1.273365	-0.031633	-0.195008	99
Es	-0.105029	1.218401	-0.899467	99
Es	1.471037	-0.836832	1.069747	99
Es	-2.427243	-0.281346	-0.664518	99
Es	-2.615328	-0.064082	0.026853	99
44
Properties=species:S:1:pos:R:3:Z:I:1 energy=-304.1219250186634 field_type=dipole dipole="0.000000 0.000000 0.000000" charge=0
C	-2.427419	-0.281313	-0.664499	6
N	-1.005979	-0.506733	-0.756579	7
C	-0.072889	0.466547	-0.561009	6
N	-0.216419	1.735357	-0.671159	7
C	1.273341	-0.031603	-0.195179	6
C	2.009301	0.558867	0.985141	6
C	1.471031	-0.836973	1.069860	6
H	-2.964019	-1.206513	-0.895469	1
H	-2.755859	0.481877	-1.377499	1
H	-2.702559	0.031087	0.347081	1
H	-0.717999	-1.439533	-0.478929	1
H	-1.172239	1.945887	-0.956849	1
H	1.885671	-0.295203	-1.052399	1
H	1.513221	1.339367	1.551430	1
H	3.079961	0.695667	0.889731	1
H	2.180311	-1.655853	1.042641	1
H	0.622541	-1.000933	1.723691	1
Es	-0.072943	0.466354	-0.561030	99
Es	-0.257437	1.249397	-0.353755	99
Es	-1.005894	-0.506521	-0.755903	99
Es	-0.651028	-0.087326	-0.571521	99
Es	1.673804	-0.214418	-0.770662	99
Es	1.950446	-1.395343	1.048200	99
Es	-2.613661	-0.064355	0.025516	99
Es	-0.839625	-1.059626	-0.568939	99
Es	-2.645056	0.242683	-1.146075	99
Es	1.471038	-0.836838	1.069758	99
Es	1.273364	-0.031632	-0.195007	99
Es	0.595270	0.199615	-0.365927	99
Es	0.036009	1.993934	-0.618800	99
Es	-0.216719	1.735037	-0.671214	99
Es	2.734042	0.643740	0.917851	99
Es	-0.803570	1.847082	-0.844923	99
Es	1.658667	0.422289	0.291704	99
Es	2.009214	0.558702	0.985049	99
Es	-2.783961	-0.915451	-0.819105	99
Es	1.807886	-0.164666	1.202678	99
Es	-0.107306	1.219016	-0.898743	99
Es	-1.610350	-0.393636	-0.705024	99
Es	1.673281	1.075669	1.368712	99
Es	1.264826	-0.595248	0.354932	99
Es	-0.886970	-0.444902	-1.011902	99
Es	0.888851	-0.947474	1.503328	99
Es	-2.427246	-0.281346	-0.664517	99
44
Properties=species:S:1:pos:R:3:Z:I:1 energy=-304.1219250186634 field_type=dipole dipole="0.000000 0.000000 0.000000" charge=0
C	-2.427419	-0.281313	-0.664499	6
N	-1.005979	-0.506733	-0.756579	7
C	-0.072889	0.466547	-0.561009	6
N	-0.216419	1.735357	-0.671159	7
C	1.273341	-0.031603	-0.195179	6
C	2.009301	0.558867	0.985141	6
C	1.471031	-0.836973	1.069860	6
H	-2.964019	-1.206513	-0.895469	1
H	-2.755859	0.481877	-1.377499	1
H	-2.702559	0.031087	0.347081	1
H	-0.717999	-1.439533	-0.478929	1
H	-1.172239	1.945887	-0.956849	1
H	1.885671	-0.295203	-1.052399	1
H	1.513221	1.339367	1.551430	1
H	3.079961	0.695667	0.889731	1
H	2.180311	-1.655853	1.042641	1
H	0.622541	-1.000933	1.723691	1
Es	-0.259410	1.249164	-0.353369	99
Es	1.949852	-1.396312	1.048275	99
Es	2.009222	0.558719	0.985054	99
Es	-0.072943	0.466354	-0.561028	99
Es	-1.005874	-0.506506	-0.755867	99
Es	-0.801249	1.844634	-0.845670	99
Es	-1.609542	-0.393635	-0.706311	99
Es	2.732187	0.643616	0.917505	99
Es	1.263948	-0.597821	0.355528	99
Es	0.036739	1.996909	-0.619356	99
Es	-2.644556	0.243814	-1.146122	99
Es	1.673902	1.076519	1.368352	99
Es	0.889711	-0.947113	1.501936	99
Es	1.273365	-0.031635	-0.195007	99
Es	-0.216751	1.734982	-0.671227	99
Es	1.471041	-0.836834	1.069756	99
Es	1.660345	0.424810	0.291377	99
Es	-2.427245	-0.281346	-0.664518	99
Es	-0.889485	-0.446127	-1.007322	99
Es	0.595682	0.199461	-0.365731	99
Es	-0.649626	-0.084455	-0.573982	99
Es	1.808205	-0.165136	1.203622	99
Es	-2.783964	-0.916723	-0.818725	99
Es	-0.108034	1.219154	-0.898185	99
Es	-0.840310	-1.061475	-0.569444	99
Es	-2.612626	-0.064640	0.024781	99
Es	1.672348	-0.213641	-0.769642	99
44
Properties=species:S:1:pos:R:3:Z:I:1 energy=-304.1219250186634 field_type=dipole dipole="0.000000 0.000000 0.000000" charge=0
C	-2.427419	-0.281313	-0.664499	6
N	-1.005979	-0.506733	-0.756579	7
C	-0.072889	0.466547	-0.561009	6
N	-0.216419	1.735357	-0.671159	7
C	1.273341	-0.031603	-0.195179	6
C	2.009301	0.558867	0.985141	6
C	1.471031	-0.836973	1.069860	6
H	-2.964019	-1.206513	-0.895469	1
H	-2.755859	0.481877	-1.377499	1
H	-2.702559	0.031087	0.347081	1
H	-0.717999	-1.439533	-0.478929	1
H	-1.172239	1.945887	-0.956849	1
H	1.885671	-0.295203	-1.052399	1
H	1.513221	1.339367	1.551430	1
H	3.079961	0.695667	0.889731	1
H	2.180311	-1.655853	1.042641	1
H	0.622541	-1.000933	1.723691	1
Es	-0.799597	1.843096	-0.845843	99
Es	2.009218	0.558710	0.985050	99
Es	0.890547	-0.946708	1.501065	99
Es	-2.783794	-0.917513	-0.818449	99
Es	-1.609082	-0.393621	-0.707625	99
Es	-0.108565	1.220104	-0.898195	99
Es	0.595896	0.199364	-0.365653	99
Es	-0.649102	-0.082953	-0.574839	99
Es	1.949369	-1.397032	1.048364	99
Es	1.471039	-0.836838	1.069755	99
Es	1.674467	1.077265	1.368187	99
Es	1.263245	-0.599291	0.355956	99
Es	1.273367	-0.031635	-0.195000	99
Es	-0.072944	0.466354	-0.561026	99
Es	-0.890649	-0.445865	-1.003053	99
Es	0.037002	1.998741	-0.619760	99
Es	-0.260553	1.248146	-0.353123	99
Es	-2.427250	-0.281345	-0.664517	99
Es	-0.216758	1.734986	-0.671230	99
Es	2.730512	0.643304	0.917365	99
Es	1.661317	0.426275	0.290539	99
Es	1.808740	-0.165347	1.204508	99
Es	1.671435	-0.213229	-0.768781	99
Es	-2.611985	-0.064916	0.024273	99
Es	-1.005936	-0.506569	-0.755980	99
Es	-0.840801	-1.063309	-0.571107	99
Es	-2.644205	0.244562	-1.146202	99
44
Properties=species:S:1:pos:R:3:Z:I:1 energy=-304.1219250186634 field_type=dipole dipole="0.000000 0.000000 0.000000" charge=0
C	-2.427419	-0.281313	-0.664499	6
N	-1.005979	-0.506733	-0.756579	7
C	-0.072889	0.466547	-0.561009	6
N	-0.216419	1.735357	-0.671159	7
C	1.273341	-0.031603	-0.195179	6
C	2.009301	0.558867	0.985141	6
C	1.471031	-0.836973	1.069860	6
H	-2.964019	-1.206513	-0.895469	1
H	-2.755859	0.481877	-1.377499	1
H	-2.702559	0.031087	0.347081	1
H	-0.717999	-1.439533	-0.478929	1
H	-1.172239	1.945887	-0.956849	1
H	1.885671	-0.295203	-1.052399	1
H	1.513221	1.339367	1.551430	1
H	3.079961	0.695667	0.889731	1
H	2.180311	-1.655853	1.042641	1
H	0.622541	-1.000933	1.723691	1
Es	0.596185	0.199315	-0.365403	99
Es	1.262727	-0.600600	0.356066	99
Es	0.036725	2.000235	-0.619482	99
Es	-0.892517	-0.446906	-1.000423	99
Es	1.808794	-0.165391	1.204976	99
Es	-2.611443	-0.065128	0.023943	99
Es	-2.427245	-0.281347	-0.664518	99
Es	1.670630	-0.212820	-0.768164	99
Es	1.949112	-1.397756	1.048803	99
Es	1.662081	0.427369	0.290130	99
Es	-1.608487	-0.393732	-0.707862	99
Es	0.891286	-0.946191	1.500105	99
Es	-0.216763	1.734969	-0.671230	99
Es	-0.261594	1.247346	-0.353160	99
Es	-0.072944	0.466352	-0.561028	99
Es	2.729299	0.642965	0.917179	99
Es	2.009214	0.558705	0.985051	99
Es	1.273366	-0.031634	-0.195001	99
Es	-0.841230	-1.064091	-0.571238	99
Es	-2.783575	-0.918108	-0.818212	99
Es	-0.108452	1.220870	-0.898282	99
Es	-0.798280	1.841786	-0.846193	99
Es	-1.005925	-0.506553	-0.755922	99
Es	-2.643902	0.245172	-1.146297	99
Es	1.675002	1.077845	1.368133	99
Es	1.471040	-0.836839	1.069759	99
Es	-0.648170	-0.081099	-0.577050	99
44
Properties=species:S:1:pos:R:3:Z:I:1 energy=-304.1219250186634 field_type=dipole dipole="0.000000 0.000000 0.000000" charge=0
C	-2.427419	-0.281313	-0.664499	6
N	-1.005979	-0.506733	-0.756579	7
C	-0.072889	0.466547	-0.561009	6
N	-0.216419	1.735357	-0.671159	7
C	1.273341	-0.031603	-0.195179	6
C	2.009301	0.558867	0.985141	6
C	1.471031	-0.836973	1.069860	6
H	-2.964019	-1.206513	-0.895469	1
H	-2.755859	0.481877	-1.377499	1
H	-2.702559	0.031087	0.347081	1
H	-0.717999	-1.439533	-0.478929	1
H	-1.172239	1.945887	-0.956849	1
H	1.885671	-0.295203	-1.052399	1
H	1.513221	1.339367	1.551430	1
H	3.079961	0.695667	0.889731	1
H	2.180311	-1.655853	1.042641	1
H	0.622541	-1.000933	1.723691	1
Es	-0.649085	-0.080968	-0.575822	99
Es	-0.216749	1.734971	-0.671226	99
Es	1.670098	-0.212377	-0.767483	99
Es	-0.072944	0.466355	-0.561025	99
Es	1.675312	1.078199	1.368077	99
Es	1.273367	-0.031635	-0.194998	99
Es	-1.608574	-0.393985	-0.710065	99
Es	1.262544	-0.601509	0.355970	99
Es	-2.643678	0.245590	-1.146275	99
Es	-0.797300	1.840607	-0.846343	99
Es	0.596280	0.199396	-0.365524	99
Es	-0.108783	1.220751	-0.897944	99
Es	1.662667	0.428200	0.290076	99
Es	-2.610982	-0.065314	0.023750	99
Es	1.808909	-0.165797	1.205251	99
Es	-1.005835	-0.506469	-0.755831	99
Es	-2.783466	-0.918493	-0.818094	99
Es	0.891686	-0.945853	1.499473	99
Es	1.948804	-1.398229	1.049055	99
Es	1.471041	-0.836830	1.069756	99
Es	-0.841678	-1.064870	-0.571862	99
Es	-0.262206	1.247560	-0.352774	99
Es	2.728437	0.642845	0.916988	99
Es	-2.427247	-0.281345	-0.664518	99
Es	0.036733	2.001446	-0.620181	99
Es	2.009217	0.558713	0.985049	99
Es	-0.891633	-0.446221	-0.998804	99
44
Properties=species:S:1:pos:R:3:Z:I:1 energy=-304.1219250186634 field_type=dipole dipole="0.000000 0.000000 0.000000" charge=0
C	-2.427419	-0.281313	-0.664499	6
N	-1.005979	-0.506733	-0.756579	7
C	-0.072889	0.466547	-0.561009	6
N	-0.216419	1.735357	-0.671159	7
C	1.273341	-0.031603	-0.195179	6
C	2.009301	0.558867	0.985141	6
C	1.471031	-0.836973	1.069860	6
H	-2.964019	-1.206513	-0.895469	1
H	-2.755859	0.481877	-1.377499	1
H	-2.702559	0.031087	0.347081	1
H	-0.717999	-1.439533	-0.478929	1
H	-1.172239	1.945887	-0.956849	1
H	1.885671	-0.295203	-1.052399	1
H	1.513221	1.339367	1.551430	1
H	3.079961	0.695667	0.889731	1
H	2.180311	-1.655853	1.042641	1
H	0.622541	-1.000933	1.723691	1
Es	1.948576	-1.398597	1.049439	99
Es	-1.608254	-0.393976	-0.710715	99
Es	-1.005923	-0.506555	-0.755955	99
Es	1.262160	-0.602280	0.355819	99
Es	-0.892727	-0.447173	-0.996304	99
Es	2.009223	0.558699	0.985051	99
Es	1.675738	1.078698	1.367996	99
Es	1.273364	-0.031634	-0.195003	99
Es	1.669762	-0.212111	-0.767059	99
Es	-0.842066	-1.065222	-0.571547	99
Es	-0.108788	1.221912	-0.898324	99
Es	1.471040	-0.836835	1.069755	99
Es	-0.796369	1.839687	-0.846239	99
Es	-0.262650	1.246320	-0.352924	99
Es	0.892260	-0.945509	1.498890	99
Es	2.727479	0.642480	0.916967	99
Es	-0.216763	1.734960	-0.671223	99
Es	-2.610619	-0.065426	0.023546	99
Es	-0.072945	0.466352	-0.561025	99
Es	0.596447	0.199379	-0.365510	99
Es	-2.643569	0.245907	-1.146315	99
Es	0.036302	2.002524	-0.619833	99
Es	-0.648304	-0.079565	-0.577849	99
Es	1.663099	0.428570	0.289731	99
Es	1.809024	-0.165713	1.205724	99
Es	-2.783322	-0.918811	-0.817894	99
Es	-2.427241	-0.281345	-0.664520	99
44
Properties=species:S:1:pos:R:3:Z:I:1 energy=-304.1219250186634 field_type=dipole dipole="0.000000 0.000000 0.000000" charge=0
C	-2.427419	-0.281313	-0.664499	6
N	-1.005979	-0.506733	-0.756579	7
C	-0.072889	0.466547	-0.561009	6
N	-0.216419	1.735357	-0.671159	7
C	1.273341	-0.031603	-0.195179	6
C	2.009301	0.558867	0.985141	6
C	1.471031	-0.836973	1.069860	6
H	-2.964019	-1.206513	-0.895469	1
H	-2.755859	0.481877	-1.377499	1
H	-2.702559	0.031087	0.347081	1
H	-0.717999	-1.439533	-0.478929	1
H	-1.172239	1.945887	-0.956849	1
H	1.885671	-0.295203	-1.052399	1
H	1.513221	1.339367	1.551430	1
H	3.079961	0.695667	0.889731	1
H	2.180311	-1.655853	1.042641	1
H	0.622541	-1.000933	1.723691	1
Es	-2.610291	-0.065640	0.023362	99
Es	-0.648885	-0.079536	-0.576835	99
Es	-0.108934	1.221987	-0.897765	99
Es	-0.072944	0.466352	-0.561028	99
Es	1.669460	-0.211899	-0.766770	99
Es	-0.795863	1.839185	-0.846704	99
Es	1.809105	-0.165719	1.205882	99
Es	-0.842367	-1.065598	-0.572038	99
Es	1.948436	-1.398957	1.049497	99
Es	1.663373	0.428932	0.289579	99
Es	-0.216757	1.734983	-0.671235	99
Es	-0.892000	-0.446658	-0.995266	99
Es	-2.643334	0.246316	-1.146274	99
Es	-2.427250	-0.281345	-0.664517	99
Es	2.726871	0.642357	0.916850	99
Es	0.596435	0.199429	-0.365424	99
Es	-1.005969	-0.506610	-0.756085	99
Es	0.036561	2.002976	-0.620145	99
Es	1.273365	-0.031637	-0.195006	99
Es	1.471038	-0.836844	1.069759	99
Es	0.892575	-0.945316	1.498470	99
Es	1.675933	1.079017	1.367908	99
Es	1.262058	-0.602781	0.356114	99
Es	2.009216	0.558706	0.985050	99
Es	-1.608552	-0.394169	-0.712027	99
Es	-0.263203	1.246342	-0.352817	99
Es	-2.783144	-0.919137	-0.817856	99
44
Properties=species:S:1:pos:R:3:Z:I:1 energy=-304.1219250186634 field_type=dipole dipole="0.000000 0.000000 0.000000" charge=0
C	-2.427419	-0.281313	-0.664499	6
N	-1.005979	-0.506733	-0.756579	7
C	-0.072889	0.466547	-0.561009	6
N	-0.216419	1.735357	-0.671159	7
C	1.273341	-0.031603	-0.195179	6
C	2.009301	0.558867	0.985141	6
C	1.471031	-0.836973	1.069860	6
H	-2.964019	-1.206513	-0.895469	1
H	-2.755859	0.481877	-1.377499	1
H	-2.702559	0.031087	0.347081	1
H	-0.717999	-1.439533	-0.478929	1
H	-1.172239	1.945887	-0.956849	1
H	1.885671	-0.295203	-1.052399	1
H	1.513221	1.339367	1.551430	1
H	3.079961	0.695667	0.889731	1
H	2.180311	-1.655853	1.042641	1
H	0.622541	-1.000933	1.723691	1
Es	-1.006017	-0.506676	-0.756298	99
Es	1.663604	0.429704	0.289489	99
Es	-0.216764	1.734969	-0.671231	99
Es	1.676256	1.079201	1.367967	99
Es	2.009215	0.558706	0.985048	99
Es	0.036098	2.003911	-0.620327	99
Es	1.669205	-0.211668	-0.766339	99
Es	-2.783080	-0.919326	-0.817644	99
Es	1.261866	-0.603149	0.356000	99
Es	0.893176	-0.944978	1.498090	99
Es	-0.072947	0.466355	-0.561017	99
Es	1.809030	-0.166052	1.205985	99
Es	-1.608415	-0.394276	-0.712535	99
Es	-0.892334	-0.446948	-0.993930	99
Es	1.948222	-1.399336	1.049690	99
Es	-2.427245	-0.281346	-0.664519	99
Es	-0.795307	1.838329	-0.846330	99
Es	2.726324	0.642174	0.916774	99
Es	-2.643237	0.246332	-1.146396	99
Es	-0.842544	-1.065795	-0.571964	99
Es	-2.610045	-0.065522	0.023299	99
Es	1.471039	-0.836837	1.069756	99
Es	-0.108967	1.222525	-0.898065	99
Es	-0.263264	1.245751	-0.352909	99
Es	1.273365	-0.031640	-0.194997	99
Es	0.596419	0.199291	-0.365373	99
Es	-0.648718	-0.078962	-0.577546	99
44
Properties=species:S:1:pos:R:3:Z:I:1 energy=-304.1219250186634 field_type=dipole dipole="0.000000 0.000000 0.000000" charge=0
C	-2.427419	-0.281313	-0.664499	6
N	-1.005979	-0.506733	-0.756579	7
C	-0.072889	0.466547	-0.561009	6
N	-0.216419	1.735357	-0.671159	7
C	1.273341	-0.031603	-0.195179	6
C	2.009301	0.558867	0.985141	6
C	1.471031	-0.836973	1.069860	6
H	-2.964019	-1.206513	-0.895469	1
H	-2.755859	0.481877	-1.377499	1
H	-2.702559	0.031087	0.347081	1
H	-0.717999	-1.439533	-0.478929	1
H	-1.172239	1.945887	-0.956849	1
H	1.885671	-0.295203	-1.052399	1
H	1.513221	1.339367	1.551430	1
H	3.079961	0.695667	0.889731	1
H	2.180311	-1.655853	1.042641	1
H	0.622541	-1.000933	1.723691	1
Es	-2.782987	-0.919500	-0.817592	99
Es	1.676644	1.079410	1.367969	99
Es	0.036109	2.004233	-0.620737	99
Es	-2.609854	-0.065664	0.023142	99
Es	-0.842757	-1.066026	-0.572028	99
Es	2.725736	0.641985	0.916644	99
Es	-0.892681	-0.447301	-0.992827	99
Es	-0.648636	-0.078338	-0.578224	99
Es	-0.794891	1.838023	-0.846330	99
Es	1.668909	-0.211637	-0.765979	99
Es	-1.608320	-0.394396	-0.713232	99
Es	-0.263559	1.246275	-0.352624	99
Es	1.261812	-0.603382	0.356192	99
Es	1.809238	-0.165952	1.206408	99
Es	-0.072946	0.466352	-0.561024	99
Es	0.596496	0.199383	-0.365402	99
Es	2.009216	0.558707	0.985050	99
Es	1.948117	-1.399555	1.049750	99
Es	1.663727	0.429810	0.288994	99
Es	-2.643122	0.246576	-1.146366	99
Es	-2.427248	-0.281346	-0.664517	99
Es	-1.005941	-0.506573	-0.755967	99
Es	-0.216739	1.734962	-0.671222	99
Es	1.471039	-0.836843	1.069762	99
Es	-0.109050	1.222050	-0.897935	99
Es	0.893256	-0.944882	1.497776	99
Es	1.273367	-0.031636	-0.195000	99
44
Properties=species:S:1:pos:R:3:Z:I:1 energy=-304.1219250186634 field_type=dipole dipole="0.000000 0.000000 0.000000" charge=0
C	-2.427419	-0.281313	-0.664499	6
N	-1.005979	-0.506733	-0.756579	7
C	-0.072889	0.466547	-0.561009	6
N	-0.216419	1.735357	-0.671159	7
C	1.273341	-0.031603	-0.195179	6
C	2.009301	0.558867	0.985141	6
C	1.471031	-0.836973	1.069860	6
H	-2.964019	-1.206513	-0.895469	1
H	-2.755859	0.481877	-1.377499	1
H	-2.702559	0.031087	0.347081	1
H	-0.717999	-1.439533	-0.478929	1
H	-1.172239	1.945887	-0.956849	1
H	1.885671	-0.295203	-1.052399	1
H	1.513221	1.339367	1.551430	1
H	3.079961	0.695667	0.889731	1
H	2.180311	-1.655853	1.042641	1
H	0.622541	-1.000933	1.723691	1
Es	1.676705	1.079581	1.367903	99
Es	-0.892306	-0.446976	-0.992199	99
Es	1.471036	-0.836841	1.069752	99
Es	0.596506	0.199404	-0.365383	99
Es	-0.109092	1.223531	-0.898066	99
Es	1.663963	0.429951	0.289014	99
Es	-0.649038	-0.078381	-0.577662	99
Es	2.009215	0.558703	0.985053	99
Es	1.809332	-0.165984	1.206579	99
Es	-0.263434	1.244793	-0.352877	99
Es	-2.427246	-0.281346	-0.664518	99
Es	1.273367	-0.031638	-0.194997	99
Es	-0.794537	1.837274	-0.846210	99
Es	-2.782855	-0.919650	-0.817581	99
Es	-2.643051	0.246756	-1.146338	99
Es	0.035703	2.004960	-0.620567	99
Es	-2.609747	-0.065780	0.023051	99
Es	1.947906	-1.399869	1.049928	99
Es	-1.608361	-0.394420	-0.714038	99
Es	-0.072946	0.466353	-0.561022	99
Es	1.668734	-0.211394	-0.765777	99
Es	-0.216752	1.735018	-0.671223	99
Es	1.261787	-0.603714	0.356050	99
Es	-1.005904	-0.506533	-0.755897	99
Es	-0.842912	-1.066335	-0.572353	99
Es	2.725363	0.641918	0.916656	99
Es	0.893497	-0.944646	1.497401	99
44
Properties=species:S:1:pos:R:3:Z:I:1 energy=-304.1219250186634 field_type=dipole dipole="0.000000 0.000000 0.000000" charge=0
C	-2.427419	-0.281313	-0.664499	6
N	-1.005979	-0.506733	-0.756579	7
C	-0.072889	0.466547	-0.561009	6
N	-0.216419	1.735357	-0.671159	7
C	1.273341	-0.031603	-0.195179	6
C	2.009301	0.558867	0.985141	6
C	1.471031	-0.836973	1.069860	6
H	-2.964019	-1.206513	-0.895469	1
H	-2.755859	0.481877	-1.377499	1
H	-2.702559	0.031087	0.347081	1
H	-0.717999	-1.439533	-0.478929	1
H	-1.172239	1.945887	-0.956849	1
H	1.885671	-0.295203	-1.052399	1
H	1.513221	1.339367	1.551430	1
H	3.079961	0.695667	0.889731	1
H	2.180311	-1.655853	1.042641	1
H	0.622541	-1.000933	1.723691	1
Es	1.664205	0.430327	0.289050	99
Es	-0.109203	1.222436	-0.897790	99
Es	-2.427247	-0.281346	-0.664518	99
Es	-0.648089	-0.077554	-0.579436	99
Es	-0.794370	1.837232	-0.846341	99
Es	1.947676	-1.400133	1.050285	99
Es	1.809304	-0.166065	1.206421	99
Es	1.668625	-0.211396	-0.765479	99
Es	0.893938	-0.944293	1.497111	99
Es	-0.216767	1.734970	-0.671230	99
Es	-2.782740	-0.919734	-0.817557	99
Es	-1.608046	-0.394394	-0.713454	99
Es	1.261559	-0.604027	0.355927	99
Es	2.725008	0.641754	0.916629	99
Es	2.009216	0.558708	0.985049	99
Es	-0.072944	0.466352	-0.561027	99
Es	-0.263684	1.245968	-0.352443	99
Es	-0.843187	-1.066309	-0.572018	99
Es	1.273367	-0.031632	-0.194999	99
Es	1.471038	-0.836840	1.069756	99
Es	-0.894107	-0.448256	-0.991497	99
Es	1.676927	1.079732	1.367987	99
Es	-2.642934	0.246940	-1.146375	99
Es	-1.005449	-0.506151	-0.755702	99
Es	0.035939	2.004988	-0.621188	99
Es	-2.609591	-0.065893	0.023027	99
Es	0.596487	0.199352	-0.365508	99
44
Properties=species:S:1:pos:R:3:Z:I:1 energy=-304.1219250186634 field_type=dipole dipole="0.000000 0.000000 0.000000" charge=0
C	-2.427419	-0.281313	-0.664499	6
N	-1.005979	-0.506733	-0.756579	7
C	-0.072889	0.466547	-0.561009	6
N	-0.216419	1.735357	-0.671159	7
C	1.273341	-0.031603	-0.195179	6
C	2.009301	0.558867	0.985141	6
C	1.471031	-0.836973	1.069860	6
H	-2.964019	-1.206513	-0.895469	1
H	-2.755859	0.481877	-1.377499	1
H	-2.702559	0.031087	0.347081	1
H	-0.717999	-1.439533	-0.478929	1
H	-1.172239	1.945887	-0.956849	1
H	1.885671	-0.295203	-1.052399	1
H	1.513221	1.339367	1.551430	1
H	3.079961	0.695667	0.889731	1
H	2.180311	-1.655853	1.042641	1
H	0.622541	-1.000933	1.723691	1
Es	1.676994	1.079846	1.367923	99
Es	1.273367	-0.031635	-0.194997	99
Es	-0.109421	1.222530	-0.897418	99
Es	-0.216751	1.735023	-0.671232	99
Es	-0.648616	-0.077589	-0.578738	99
Es	-2.782688	-0.919872	-0.817485	99
Es	1.471038	-0.836840	1.069757	99
Es	1.668325	-0.211268	-0.765173	99
Es	-2.642901	0.247040	-1.146349	99
Es	-2.427244	-0.281346	-0.664518	99
Es	0.894021	-0.944296	1.496896	99
Es	-0.263893	1.245924	-0.352406	99
Es	1.261611	-0.604300	0.355929	99
Es	0.035921	2.005461	-0.621514	99
Es	-1.607909	-0.394501	-0.713557	99
Es	0.596665	0.199314	-0.365470	99
Es	-1.005817	-0.506418	-0.755704	99
Es	-0.893545	-0.447505	-0.991499	99
Es	2.009217	0.558712	0.985051	99
Es	1.809403	-0.166041	1.206731	99
Es	2.724681	0.641746	0.916560	99
Es	-0.794015	1.836678	-0.846441	99
Es	-2.609468	-0.065923	0.022900	99
Es	-0.843118	-1.066623	-0.572611	99
Es	1.664319	0.430451	0.288693	99
Es	-0.072946	0.466352	-0.561023	99
Es	1.947705	-1.400185	1.050374	99
44
Properties=species:S:1:pos:R:3:Z:I:1 energy=-304.1219250186634 field_type=dipole dipole="0.000000 0.000000 0.000000" charge=0
C	-2.427419	-0.281313	-0.664499	6
N	-1.005979	-0.506733	-0.756579	7
C	-0.072889	0.466547	-0.561009	6
N	-0.216419	1.735357	-0.671159	7
C	1.273341	-0.031603	-0.195179	6
C	2.009301	0.558867	0.985141	6
C	1.471031	-0.836973	1.069860	6
H	-2.964019	-1.206513	-0.895469	1
H	-2.755859	0.481877	-1.377499	1
H	-2.702559	0.031087	0.347081	1
H	-0.717999	-1.439533	-0.478929	1
H	-1.172239	1.945887	-0.956849	1
H	1.885671	-0.295203	-1.052399	1
H	1.513221	1.339367	1.551430	1
H	3.079961	0.695667	0.889731	1
H	2.180311	-1.655853	1.042641	1
H	0.622541	-1.000933	1.723691	1
Es	1.471039	-0.836838	1.069758	99
Es	1.261522	-0.604376	0.355913	99
Es	1.809342	-0.166250	1.206872	99
Es	1.668255	-0.211158	-0.765029	99
Es	0.035884	2.005590	-0.621416	99
Es	2.009211	0.558689	0.985051	99
Es	-0.843166	-1.066749	-0.572732	99
Es	-0.072945	0.466352	-0.561027	99
Es	1.273371	-0.031645	-0.194987	99
Es	-1.607795	-0.394611	-0.713699	99
Es	-0.264439	1.246638	-0.352217	99
Es	-2.642899	0.247160	-1.146328	99
Es	-0.109027	1.221918	-0.897192	99
Es	2.724328	0.641598	0.916653	99
Es	0.596630	0.199355	-0.365476	99
Es	-2.782707	-0.919926	-0.817368	99
Es	-0.893701	-0.447537	-0.990459	99
Es	0.894249	-0.944156	1.496666	99
Es	-0.648491	-0.077170	-0.579223	99
Es	-0.793700	1.836539	-0.846956	99
Es	-0.216768	1.734948	-0.671239	99
Es	1.664549	0.430719	0.288558	99
Es	1.947550	-1.400385	1.050436	99
Es	-2.427242	-0.281347	-0.664518	99
Es	1.677164	1.079960	1.367900	99
Es	-2.609300	-0.065994	0.022786	99
Es	-1.005980	-0.506589	-0.756049	99
44
Properties=species:S:1:pos:R:3:Z:I:1 energy=-304.1219250186634 field_type=dipole dipole="0.000000 0.000000 0.000000" charge=0
C	-2.427419	-0.281313	-0.664499	6
N	-1.005979	-0.506733	-0.756579	7
C	-0.072889	0.466547	-0.561009	6
N	-0.216419	1.735357	-0.671159	7
C	1.273341	-0.031603	-0.195179	6
C	2.009301	0.558867	0.985141	6
C	1.471031	-0.836973	1.069860	6
H	-2.964019	-1.206513	-0.895469	1
H	-2.755859	0.481877	-1.377499	1
H	-2.702559	0.031087	0.347081	1
H	-0.717999	-1.439533	-0.478929	1
H	-1.172239	1.945887	-0.956849	1
H	1.885671	-0.295203	-1.052399	1
H	1.513221	1.339367	1.551430	1
H	3.079961	0.695667	0.889731	1
H	2.180311	-1.655853	1.042641	1
H	0.622541	-1.000933	1.723691	1
Es	-1.607735	-0.394577	-0.714252	99
Es	-0.109216	1.222513	-0.897415	99
Es	-0.264124	1.245984	-0.352431	99
Es	1.471040	-0.836837	1.069757	99
Es	-2.427246	-0.281346	-0.664518	99
Es	1.809551	-0.166126	1.206858	99
Es	-0.216739	1.734974	-0.671224	99
Es	0.894374	-0.943991	1.496566	99
Es	-0.793724	1.836401	-0.846570	99
Es	2.009214	0.558701	0.985051	99
Es	-0.843528	-1.066649	-0.572236	99
Es	1.664630	0.430818	0.288398	99
Es	-2.609172	-0.066036	0.022741	99
Es	2.724007	0.641537	0.916583	99
Es	-2.642901	0.247245	-1.146320	99
Es	1.677298	1.080090	1.367878	99
Es	-0.893618	-0.447920	-0.990340	99
Es	0.035732	2.005795	-0.621353	99
Es	-2.782633	-0.920010	-0.817319	99
Es	-0.072945	0.466352	-0.561025	99
Es	1.947437	-1.400541	1.050556	99
Es	1.261500	-0.604629	0.356013	99
Es	-0.648458	-0.077014	-0.579404	99
Es	-1.005909	-0.506542	-0.755931	99
Es	1.668092	-0.211140	-0.764836	99
Es	1.273365	-0.031639	-0.195000	99
Es	0.596641	0.199320	-0.365549	99
44
Properties=species:S:1:pos:R:3:Z:I:1 energy=-304.1219250186634 field_type=dipole dipole="0.000000 0.000000 0.000000" charge=0
C	-2.427419	-0.281313	-0.664499	6
N	-1.005979	-0.506733	-0.756579	7
C	-0.072889	0.466547	-0.561009	6
N	-0.216419	1.735357	-0.671159	7
C	1.273341	-0.031603	-0.195179	6
C	2.009301	0.558867	0.985141	6
C	1.471031	-0.836973	1.069860	6
H	-2.964019	-1.206513	-0.895469	1
H	-2.755859	0.481877	-1.377499	1
H	-2.702559	0.031087	0.347081	1
H	-0.717999	-1.439533	-0.478929	1
H	-1.172239	1.945887	-0.956849	1
H	1.885671	-0.295203	-1.052399	1
H	1.513221	1.339367	1.551430	1
H	3.079961	0.695667	0.889731	1
H	2.180311	-1.655853	1.042641	1
H	0.622541	-1.000933	1.723691	1
Es	-0.893883	-0.448561	-0.988649	99
Es	-0.843762	-1.066669	-0.571855	99
Es	1.668100	-0.210925	-0.765057	99
Es	-0.793520	1.835947	-0.846356	99
Es	1.261371	-0.604845	0.355915	99
Es	0.894536	-0.943981	1.496526	99
Es	2.723772	0.641373	0.916599	99
Es	-2.642850	0.247266	-1.146344	99
Es	-2.427246	-0.281346	-0.664518	99
Es	1.664691	0.430751	0.288585	99
Es	-0.109207	1.223006	-0.897641	99
Es	-1.005603	-0.506291	-0.755748	99
Es	0.035427	2.006272	-0.621419	99
Es	-2.609025	-0.066007	0.022784	99
Es	1.809443	-0.166094	1.206793	99
Es	0.596647	0.199378	-0.365256	99
Es	1.471040	-0.836835	1.069758	99
Es	-0.648226	-0.076535	-0.580251	99
Es	-0.264045	1.245471	-0.352447	99
Es	-0.072945	0.466353	-0.561024	99
Es	1.947479	-1.400579	1.050532	99
Es	1.273372	-0.031641	-0.194987	99
Es	2.009216	0.558705	0.985050	99
Es	1.677423	1.080285	1.367895	99
Es	-1.607981	-0.394606	-0.715689	99
Es	-2.782530	-0.920123	-0.817290	99
Es	-0.216761	1.734966	-0.671228	99
44
Properties=species:S:1:pos:R:3:Z:I:1 energy=-304.1219250186634 field_type=dipole dipole="0.000000 0.000000 0.000000" charge=0
C	-2.427419	-0.281313	-0.664499	6
N	-1.005979	-0.506733	-0.756579	7
C	-0.072889	0.466547	-0.561009	6
N	-0.216419	1.735357	-0.671159	7
C	1.273341	-0.031603	-0.195179	6
C	2.009301	0.558867	0.985141	6
C	1.471031	-0.836973	1.069860	6
H	-2.964019	-1.206513	-0.895469	1
H	-2.755859	0.481877	-1.377499	1
H	-2.702559	0.031087	0.347081	1
H	-0.717999	-1.439533	-0.478929	1
H	-1.172239	1.945887	-0.956849	1
H	1.885671	-0.295203	-1.052399	1
H	1.513221	1.339367	1.551430	1
H	3.079961	0.695667	0.889731	1
H	2.180311	-1.655853	1.042641	1
H	0.622541	-1.000933	1.723691	1
Es	1.664675	0.430950	0.288373	99
Es	-0.072945	0.466353	-0.561025	99
Es	-0.793079	1.835825	-0.846288	99
Es	1.273368	-0.031632	-0.194997	99
Es	-0.109292	1.222516	-0.897769	99
Es	-2.427244	-0.281346	-0.664518	99
Es	1.261414	-0.604714	0.356008	99
Es	-0.893169	-0.448108	-0.987659	99
Es	-2.609043	-0.066033	0.022675	99
Es	-0.843670	-1.066664	-0.571869	99
Es	-0.264377	1.245930	-0.352216	99
Es	-0.648391	-0.076547	-0.580022	99
Es	0.596664	0.199374	-0.365516	99
Es	0.035434	2.006396	-0.621594	99
Es	-1.608315	-0.394680	-0.716010	99
Es	0.894667	-0.943765	1.496238	99
Es	2.723561	0.641355	0.916532	99
Es	2.009215	0.558707	0.985050	99
Es	-1.006044	-0.506706	-0.756497	99
Es	1.668077	-0.210985	-0.764745	99
Es	1.809516	-0.166312	1.206954	99
Es	1.947295	-1.400831	1.050744	99
Es	1.677522	1.080321	1.367945	99
Es	-2.782515	-0.920204	-0.817300	99
Es	-0.216759	1.735015	-0.671231	99
Es	-2.642671	0.247359	-1.146342	99
Es	1.471040	-0.836839	1.069759	99
44
Properties=species:S:1:pos:R:3:Z:I:1 energy=-304.1219250186634 field_type=dipole dipole="0.000000 0.000000 0.000000" charge=0
C	-2.427419	-0.281313	-0.664499	6
N	-1.005979	-0.506733	-0.756579	7
C	-0.072889	0.466547	-0.561009	6
N	-0.216419	1.735357	-0.671159	7
C	1.273341	-0.031603	-0.195179	6
C	2.009301	0.558867	0.985141	6
C	1.471031	-0.836973	1.069860	6
H	-2.964019	-1.206513	-0.895469	1
H	-2.755859	0.481877	-1.377499	1
H	-2.702559	0.031087	0.347081	1
H	-0.717999	-1.439533	-0.478929	1
H	-1.172239	1.945887	-0.956849	1
H	1.885671	-0.295203	-1.052399	1
H	1.513221	1.339367	1.551430	1
H	3.079961	0.695667	0.889731	1
H	2.180311	-1.655853	1.042641	1
H	0.622541	-1.000933	1.723691	1
Es	-0.216775	1.734980	-0.671233	99
Es	-2.609028	-0.066018	0.022591	99
Es	-2.427246	-0.281346	-0.664518	99
Es	2.009215	0.558706	0.985050	99
Es	-1.006006	-0.506653	-0.756194	99
Es	-0.072945	0.466351	-0.561025	99
Es	-0.109353	1.222659	-0.897739	99
Es	-0.648611	-0.076488	-0.579868	99
Es	1.664814	0.431011	0.288463	99
Es	1.261414	-0.604953	0.356011	99
Es	2.723351	0.641283	0.916451	99
Es	0.894875	-0.943649	1.496021	99
Es	1.677661	1.080433	1.367943	99
Es	-0.893263	-0.448132	-0.988376	99
Es	1.667987	-0.210916	-0.764573	99
Es	-2.782453	-0.920256	-0.817191	99
Es	1.273364	-0.031637	-0.195001	99
Es	-1.608057	-0.394727	-0.715766	99
Es	-0.792957	1.835477	-0.846156	99
Es	-2.642695	0.247363	-1.146405	99
Es	0.035320	2.006771	-0.621817	99
Es	-0.843707	-1.066680	-0.571783	99
Es	-0.264268	1.245784	-0.352244	99
Es	1.471038	-0.836838	1.069757	99
Es	1.947166	-1.400972	1.050847	99
Es	0.596541	0.199414	-0.365516	99
Es	1.809550	-0.166230	1.206948	99
44
Properties=species:S:1:pos:R:3:Z:I:1 energy=-304.1219250186634 field_type=dipole dipole="0.000000 0.000000 0.000000" charge=0
C	-2.427419	-0.281313	-0.664499	6
N	-1.005979	-0.506733	-0.756579	7
C	-0.072889	0.466547	-0.561009	6
N	-0.216419	1.735357	-0.671159	7
C	1.273341	-0.031603	-0.195179	6
C	2.009301	0.558867	0.985141	6
C	1.471031	-0.836973	1.069860	6
H	-2.964019	-1.206513	-0.895469	1
H	-2.755859	0.481877	-1.377499	1
H	-2.702559	0.031087	0.347081	1
H	-0.717999	-1.439533	-0.478929	1
H	-1.172239	1.945887	-0.956849	1
H	1.885671	-0.295203	-1.052399	1
H	1.513221	1.339367	1.551430	1
H	3.079961	0.695667	0.889731	1
H	2.180311	-1.655853	1.042641	1
H	0.622541	-1.000933	1.723691	1
Es	0.035069	2.006800	-0.621441	99
Es	1.947170	-1.401060	1.050728	99
Es	2.009221	0.558698	0.985064	99
Es	0.894897	-0.943653	1.495995	99
Es	1.664746	0.431088	0.288330	99
Es	-0.072945	0.466354	-0.561022	99
Es	-0.792821	1.835395	-0.846642	99
Es	-2.608903	-0.065979	0.022648	99
Es	1.471039	-0.836837	1.069755	99
Es	0.596634	0.199414	-0.365392	99
Es	-2.782497	-0.920262	-0.817184	99
Es	-0.648033	-0.076051	-0.580975	99
Es	-2.427243	-0.281346	-0.664519	99
Es	-2.642590	0.247359	-1.146433	99
Es	-1.608137	-0.394811	-0.716467	99
Es	-0.894316	-0.448946	-0.986974	99
Es	2.723134	0.641231	0.916350	99
Es	1.809611	-0.166314	1.207085	99
Es	-0.264541	1.245289	-0.352235	99
Es	1.261337	-0.604757	0.356247	99
Es	-1.005434	-0.506119	-0.755640	99
Es	1.667940	-0.211004	-0.764737	99
Es	-0.216760	1.734958	-0.671226	99
Es	-0.843815	-1.066845	-0.572011	99
Es	1.677819	1.080509	1.367972	99
Es	-0.109017	1.223258	-0.897596	99
Es	1.273368	-0.031633	-0.195002	99
