44
Properties=species:S:1:pos:R:3:Z:I:1 energy=-304.0785988278846 field_type=dipole dipole="0.000000 0.000000 0.000000" charge=0
C	-2.419239	-0.403414	0.446569	6
N	-0.955349	-0.527893	0.470399	7
C	-0.612509	-1.958713	0.501399	6
N	-0.331709	0.191466	-0.503861	7
C	0.799371	0.689847	-0.117031	6
C	1.631651	1.496616	-1.031921	6
C	2.803851	1.990706	-0.620461	6
H	-2.706569	0.652766	0.497399	1
H	-2.870899	-0.898293	1.313389	1
H	-2.846879	-0.828744	-0.468401	1
H	-1.069889	-2.453084	1.365529	1
H	0.471051	-2.088824	0.599049	1
H	-0.934909	-2.469913	-0.412691	1
H	1.194951	0.539766	0.904809	1
H	1.247261	1.660766	-2.031770	1
H	3.185201	1.823457	0.381899	1
H	3.414621	2.583486	-1.294311	1
Es	2.346007	1.461869	-0.914547	99
Es	-0.495466	0.241025	-0.844733	99
Es	-0.642647	-0.186832	-0.026448	99
Es	0.295331	0.163835	-0.423586	99
Es	2.051638	1.993867	-0.712604	99
Es	-2.716255	-0.750057	1.037082	99
Es	-0.955587	-0.528190	0.469694	99
Es	-2.419104	-0.403433	0.446586	99
Es	-1.592203	-0.487236	0.416635	99
Es	0.128029	-2.044345	0.565036	99
Es	3.222800	2.392301	-1.068534	99
Es	-0.331467	0.191374	-0.503315	99
Es	-0.849806	-0.396733	0.780878	99
Es	1.631551	1.496552	-1.031901	99
Es	-2.714599	-0.702074	-0.182047	99
Es	2.803942	1.990744	-0.620426	99
Es	1.213699	1.091167	-0.579636	99
Es	-0.933503	-2.286710	1.087764	99
Es	-0.838464	-2.311380	-0.127442	99
Es	-0.800781	-1.142759	0.439662	99
Es	-2.613697	0.315211	0.479383	99
Es	1.074916	0.588902	0.571071	99
Es	3.062509	1.877600	0.057072	99
Es	-0.612539	-1.958578	0.501407	99
Es	0.042888	0.645365	-0.240614	99
Es	1.374065	1.607032	-1.701333	99
Es	0.799442	0.689855	-0.117076	99
44
Properties=species:S:1:pos:R:3:Z:I:1 energy=-304.0785988278846 field_type=dipole dipole="0.000000 0.000000 0.000000" charge=0
C	-2.419239	-0.403414	0.446569	6
N	-0.955349	-0.527893	0.470399	7
C	-0.612509	-1.958713	0.501399	6
N	-0.331709	0.191466	-0.503861	7
C	0.799371	0.689847	-0.117031	6
C	1.631651	1.496616	-1.031921	6
C	2.803851	1.990706	-0.620461	6
H	-2.706569	0.652766	0.497399	1
H	-2.870899	-0.898293	1.313389	1
H	-2.846879	-0.828744	-0.468401	1
H	-1.069889	-2.453084	1.365529	1
H	0.471051	-2.088824	0.599049	1
H	-0.934909	-2.469913	-0.412691	1
H	1.194951	0.539766	0.904809	1
H	1.247261	1.660766	-2.031770	1
H	3.185201	1.823457	0.381899	1
H	3.414621	2.583486	-1.294311	1
Es	-0.612540	-1.958577	0.501406	99
Es	3.224641	2.394067	-1.068079	99
Es	-2.613938	0.311902	0.479784	99
Es	-2.419103	-0.403428	0.446585	99
Es	1.073812	0.589149	0.569836	99
Es	2.050940	1.995175	-0.711905	99
Es	-2.716235	-0.702348	-0.182935	99
Es	-0.955593	-0.528190	0.469706	99
Es	-2.716374	-0.748106	1.037023	99
Es	0.295989	0.162330	-0.422921	99
Es	-0.934627	-2.284583	1.086136	99
Es	-0.331443	0.191380	-0.503298	99
Es	2.803946	1.990743	-0.620430	99
Es	1.631546	1.496547	-1.031903	99
Es	-0.801521	-1.137294	0.435638	99
Es	0.799442	0.689861	-0.117074	99
Es	3.060548	1.877956	0.054440	99
Es	-0.840593	-2.310644	-0.126566	99
Es	0.131279	-2.044855	0.565680	99
Es	-1.593687	-0.490274	0.413079	99
Es	0.043419	0.645274	-0.238974	99
Es	-0.851895	-0.405005	0.782966	99
Es	1.213162	1.090402	-0.579556	99
Es	-0.642324	-0.182724	-0.024128	99
Es	-0.490565	0.242320	-0.842381	99
Es	1.375612	1.606503	-1.698776	99
Es	2.346800	1.460789	-0.915327	99
44
Properties=species:S:1:pos:R:3:Z:I:1 energy=-304.0785988278846 field_type=dipole dipole="0.000000 0.000000 0.000000" charge=0
C	-2.419239	-0.403414	0.446569	6
N	-0.955349	-0.527893	0.470399	7
C	-0.612509	-1.958713	0.501399	6
N	-0.331709	0.191466	-0.503861	7
C	0.799371	0.689847	-0.117031	6
C	1.631651	1.496616	-1.031921	6
C	2.803851	1.990706	-0.620461	6
H	-2.706569	0.652766	0.497399	1
H	-2.870899	-0.898293	1.313389	1
H	-2.846879	-0.828744	-0.468401	1
H	-1.069889	-2.453084	1.365529	1
H	0.471051	-2.088824	0.599049	1
H	-0.934909	-2.469913	-0.412691	1
H	1.194951	0.539766	0.904809	1
H	1.247261	1.660766	-2.031770	1
H	3.185201	1.823457	0.381899	1
H	3.414621	2.583486	-1.294311	1
Es	0.799444	0.689858	-0.117075	99
Es	-2.717962	-0.703215	-0.183620	99
Es	0.133225	-2.044086	0.566362	99
Es	1.072804	0.588961	0.568810	99
Es	-0.854191	-0.414005	0.782145	99
Es	-0.331441	0.191374	-0.503292	99
Es	2.803945	1.990748	-0.620426	99
Es	1.212512	1.089812	-0.579921	99
Es	-0.802969	-1.130327	0.433033	99
Es	-0.485704	0.243008	-0.839792	99
Es	1.631549	1.496546	-1.031901	99
Es	-0.955593	-0.528174	0.469717	99
Es	-0.934223	-2.282276	1.084843	99
Es	-2.419105	-0.403435	0.446585	99
Es	3.058270	1.877779	0.052209	99
Es	-2.715904	-0.745941	1.036846	99
Es	-2.613910	0.308184	0.480085	99
Es	2.050895	1.995993	-0.711633	99
Es	-0.842787	-2.310870	-0.126189	99
Es	1.377332	1.606574	-1.696535	99
Es	0.296186	0.161970	-0.422055	99
Es	2.346996	1.460015	-0.915941	99
Es	-0.641873	-0.177670	-0.020766	99
Es	-0.612542	-1.958576	0.501407	99
Es	0.043641	0.645031	-0.238044	99
Es	3.226572	2.395531	-1.066641	99
Es	-1.594466	-0.494441	0.409817	99
44
Properties=species:S:1:pos:R:3:Z:I:1 energy=-304.0785988278846 field_type=dipole dipole="0.000000 0.000000 0.000000" charge=0
C	-2.419239	-0.403414	0.446569	6
N	-0.955349	-0.527893	0.470399	7
C	-0.612509	-1.958713	0.501399	6
N	-0.331709	0.191466	-0.503861	7
C	0.799371	0.689847	-0.117031	6
C	1.631651	1.496616	-1.031921	6
C	2.803851	1.990706	-0.620461	6
H	-2.706569	0.652766	0.497399	1
H	-2.870899	-0.898293	1.313389	1
H	-2.846879	-0.828744	-0.468401	1
H	-1.069889	-2.453084	1.365529	1
H	0.471051	-2.088824	0.599049	1
H	-0.934909	-2.469913	-0.412691	1
H	1.194951	0.539766	0.904809	1
H	1.247261	1.660766	-2.031770	1
H	3.185201	1.823457	0.381899	1
H	3.414621	2.583486	-1.294311	1
Es	0.044177	0.644320	-0.237121	99
Es	1.631549	1.496549	-1.031903	99
Es	-0.804828	-1.122474	0.431737	99
Es	-2.714895	-0.743586	1.036382	99
Es	3.056204	1.877459	0.050176	99
Es	-0.331440	0.191389	-0.503330	99
Es	1.211805	1.089447	-0.580569	99
Es	2.346908	1.459843	-0.916297	99
Es	0.134321	-2.042630	0.566835	99
Es	-0.932717	-2.279662	1.083703	99
Es	-0.845415	-2.311951	-0.125628	99
Es	-0.641019	-0.171564	-0.014796	99
Es	-0.481421	0.243629	-0.836848	99
Es	-0.857261	-0.423025	0.777151	99
Es	2.051035	1.996217	-0.711421	99
Es	1.071896	0.588638	0.567859	99
Es	-2.613547	0.304417	0.480349	99
Es	-2.719844	-0.704584	-0.183895	99
Es	-2.419107	-0.403436	0.446585	99
Es	2.803945	1.990745	-0.620428	99
Es	0.799445	0.689857	-0.117076	99
Es	3.228352	2.396617	-1.064965	99
Es	-1.594225	-0.499929	0.406340	99
Es	-0.612541	-1.958577	0.501407	99
Es	0.295942	0.161969	-0.421393	99
Es	1.379015	1.606884	-1.694513	99
Es	-0.955635	-0.528193	0.469688	99
44
Properties=species:S:1:pos:R:3:Z:I:1 energy=-304.0785988278846 field_type=dipole dipole="0.000000 0.000000 0.000000" charge=0
C	-2.419239	-0.403414	0.446569	6
N	-0.955349	-0.527893	0.470399	7
C	-0.612509	-1.958713	0.501399	6
N	-0.331709	0.191466	-0.503861	7
C	0.799371	0.689847	-0.117031	6
C	1.631651	1.496616	-1.031921	6
C	2.803851	1.990706	-0.620461	6
H	-2.706569	0.652766	0.497399	1
H	-2.870899	-0.898293	1.313389	1
H	-2.846879	-0.828744	-0.468401	1
H	-1.069889	-2.453084	1.365529	1
H	0.471051	-2.088824	0.599049	1
H	-0.934909	-2.469913	-0.412691	1
H	1.194951	0.539766	0.904809	1
H	1.247261	1.660766	-2.031770	1
H	3.185201	1.823457	0.381899	1
H	3.414621	2.583486	-1.294311	1
Es	-0.848201	-2.313150	-0.124709	99
Es	2.346233	1.460011	-0.916350	99
Es	-0.612539	-1.958580	0.501406	99
Es	-0.331456	0.191366	-0.503286	99
Es	3.230004	2.397346	-1.063091	99
Es	0.134946	-2.040873	0.567124	99
Es	2.051713	1.996197	-0.711600	99
Es	-0.479063	0.244189	-0.834738	99
Es	-2.721664	-0.706132	-0.183742	99
Es	-0.955614	-0.528199	0.469668	99
Es	-0.859736	-0.431596	0.767981	99
Es	1.631548	1.496549	-1.031900	99
Es	-1.593374	-0.505424	0.403946	99
Es	0.799444	0.689859	-0.117075	99
Es	3.054434	1.876936	0.048298	99
Es	-0.930760	-2.277198	1.082301	99
Es	1.071171	0.588325	0.567204	99
Es	0.295901	0.162278	-0.420932	99
Es	-0.807509	-1.114451	0.431153	99
Es	-2.713781	-0.741176	1.035660	99
Es	2.803946	1.990746	-0.620428	99
Es	0.044491	0.643434	-0.236756	99
Es	1.211235	1.089296	-0.581182	99
Es	-0.639030	-0.165789	-0.005003	99
Es	1.380313	1.607184	-1.692941	99
Es	-2.419106	-0.403436	0.446583	99
Es	-2.612845	0.300657	0.480438	99
44
Properties=species:S:1:pos:R:3:Z:I:1 energy=-304.0785988278846 field_type=dipole dipole="0.000000 0.000000 0.000000" charge=0
C	-2.419239	-0.403414	0.446569	6
N	-0.955349	-0.527893	0.470399	7
C	-0.612509	-1.958713	0.501399	6
N	-0.331709	0.191466	-0.503861	7
C	0.799371	0.689847	-0.117031	6
C	1.631651	1.496616	-1.031921	6
C	2.803851	1.990706	-0.620461	6
H	-2.706569	0.652766	0.497399	1
H	-2.870899	-0.898293	1.313389	1
H	-2.846879	-0.828744	-0.468401	1
H	-1.069889	-2.453084	1.365529	1
H	0.471051	-2.088824	0.599049	1
H	-0.934909	-2.469913	-0.412691	1
H	1.194951	0.539766	0.904809	1
H	1.247261	1.660766	-2.031770	1
H	3.185201	1.823457	0.381899	1
H	3.414621	2.583486	-1.294311	1
Es	-0.861418	-0.437661	0.758008	99
Es	1.631548	1.496549	-1.031901	99
Es	2.052543	1.995779	-0.711754	99
Es	-2.713000	-0.739395	1.035086	99
Es	-0.331439	0.191367	-0.503273	99
Es	-1.592006	-0.510652	0.401908	99
Es	2.803945	1.990748	-0.620427	99
Es	-0.928647	-2.274953	1.080579	99
Es	-0.478041	0.244795	-0.833496	99
Es	-2.419109	-0.403435	0.446585	99
Es	3.231239	2.397748	-1.061645	99
Es	1.070807	0.587904	0.566588	99
Es	0.045311	0.642630	-0.235997	99
Es	-2.611942	0.297279	0.480433	99
Es	3.053186	1.876583	0.046705	99
Es	0.799446	0.689858	-0.117075	99
Es	-0.810237	-1.107195	0.431403	99
Es	-0.850942	-2.314322	-0.123380	99
Es	0.135241	-2.039368	0.567349	99
Es	1.210812	1.089066	-0.581751	99
Es	2.345386	1.460454	-0.916216	99
Es	-0.637180	-0.161820	0.005557	99
Es	0.295217	0.162723	-0.421202	99
Es	-0.955639	-0.528194	0.469669	99
Es	-2.723040	-0.707176	-0.183468	99
Es	-0.612540	-1.958579	0.501407	99
Es	1.381201	1.607636	-1.691661	99
44
Properties=species:S:1:pos:R:3:Z:I:1 energy=-304.0785988278846 field_type=dipole dipole="0.000000 0.000000 0.000000" charge=0
C	-2.419239	-0.403414	0.446569	6
N	-0.955349	-0.527893	0.470399	7
C	-0.612509	-1.958713	0.501399	6
N	-0.331709	0.191466	-0.503861	7
C	0.799371	0.689847	-0.117031	6
C	1.631651	1.496616	-1.031921	6
C	2.803851	1.990706	-0.620461	6
H	-2.706569	0.652766	0.497399	1
H	-2.870899	-0.898293	1.313389	1
H	-2.846879	-0.828744	-0.468401	1
H	-1.069889	-2.453084	1.365529	1
H	0.471051	-2.088824	0.599049	1
H	-0.934909	-2.469913	-0.412691	1
H	1.194951	0.539766	0.904809	1
H	1.247261	1.660766	-2.031770	1
H	3.185201	1.823457	0.381899	1
H	3.414621	2.583486	-1.294311	1
Es	-0.812851	-1.101540	0.431239	99
Es	-2.723827	-0.707420	-0.183494	99
Es	-1.590664	-0.514436	0.400321	99
Es	2.053957	1.995117	-0.712391	99
Es	-2.712664	-0.738524	1.034867	99
Es	-0.853542	-2.315578	-0.121598	99
Es	1.070574	0.587564	0.566129	99
Es	-0.862522	-0.442748	0.747489	99
Es	3.231948	2.397952	-1.060771	99
Es	-0.955664	-0.528188	0.469649	99
Es	-2.419109	-0.403435	0.446584	99
Es	-0.926547	-2.272910	1.078901	99
Es	2.803945	1.990747	-0.620426	99
Es	-0.477607	0.245583	-0.832931	99
Es	0.295249	0.163106	-0.420853	99
Es	-0.635596	-0.158616	0.017014	99
Es	3.052511	1.876282	0.045775	99
Es	0.135342	-2.037739	0.567262	99
Es	-2.610989	0.294178	0.480487	99
Es	-0.612539	-1.958580	0.501407	99
Es	1.631548	1.496548	-1.031901	99
Es	0.045457	0.641690	-0.235773	99
Es	1.210547	1.089002	-0.582134	99
Es	1.381744	1.607927	-1.690755	99
Es	0.799446	0.689859	-0.117076	99
Es	-0.331436	0.191381	-0.503294	99
Es	2.343989	1.461147	-0.915698	99
44
Properties=species:S:1:pos:R:3:Z:I:1 energy=-304.0785988278846 field_type=dipole dipole="0.000000 0.000000 0.000000" charge=0
C	-2.419239	-0.403414	0.446569	6
N	-0.955349	-0.527893	0.470399	7
C	-0.612509	-1.958713	0.501399	6
N	-0.331709	0.191466	-0.503861	7
C	0.799371	0.689847	-0.117031	6
C	1.631651	1.496616	-1.031921	6
C	2.803851	1.990706	-0.620461	6
H	-2.706569	0.652766	0.497399	1
H	-2.870899	-0.898293	1.313389	1
H	-2.846879	-0.828744	-0.468401	1
H	-1.069889	-2.453084	1.365529	1
H	0.471051	-2.088824	0.599049	1
H	-0.934909	-2.469913	-0.412691	1
H	1.194951	0.539766	0.904809	1
H	1.247261	1.660766	-2.031770	1
H	3.185201	1.823457	0.381899	1
H	3.414621	2.583486	-1.294311	1
Es	1.070282	0.587260	0.565668	99
Es	-0.634732	-0.156808	0.025486	99
Es	-2.610090	0.291382	0.480601	99
Es	3.232673	2.398027	-1.059930	99
Es	2.056288	1.993676	-0.713611	99
Es	-0.477275	0.245951	-0.832440	99
Es	-0.814393	-1.098005	0.432247	99
Es	0.135341	-2.036345	0.567355	99
Es	3.051916	1.875976	0.044775	99
Es	-0.863567	-0.445119	0.738541	99
Es	-0.331439	0.191371	-0.503279	99
Es	-1.589577	-0.517258	0.399348	99
Es	2.803945	1.990745	-0.620425	99
Es	1.382081	1.608211	-1.690007	99
Es	-2.724614	-0.707749	-0.183337	99
Es	0.295240	0.163416	-0.420724	99
Es	1.631546	1.496547	-1.031899	99
Es	0.045521	0.641221	-0.235684	99
Es	-0.855570	-2.316353	-0.120026	99
Es	-2.419110	-0.403436	0.446580	99
Es	-0.924913	-2.271409	1.077229	99
Es	-2.712195	-0.737702	1.034367	99
Es	-0.612538	-1.958582	0.501407	99
Es	1.210458	1.089032	-0.582205	99
Es	-0.955678	-0.528180	0.469652	99
Es	2.341651	1.462644	-0.914585	99
Es	0.799447	0.689855	-0.117077	99
44
Properties=species:S:1:pos:R:3:Z:I:1 energy=-304.0785988278846 field_type=dipole dipole="0.000000 0.000000 0.000000" charge=0
C	-2.419239	-0.403414	0.446569	6
N	-0.955349	-0.527893	0.470399	7
C	-0.612509	-1.958713	0.501399	6
N	-0.331709	0.191466	-0.503861	7
C	0.799371	0.689847	-0.117031	6
C	1.631651	1.496616	-1.031921	6
C	2.803851	1.990706	-0.620461	6
H	-2.706569	0.652766	0.497399	1
H	-2.870899	-0.898293	1.313389	1
H	-2.846879	-0.828744	-0.468401	1
H	-1.069889	-2.453084	1.365529	1
H	0.471051	-2.088824	0.599049	1
H	-0.934909	-2.469913	-0.412691	1
H	1.194951	0.539766	0.904809	1
H	1.247261	1.660766	-2.031770	1
H	3.185201	1.823457	0.381899	1
H	3.414621	2.583486	-1.294311	1
Es	1.070243	0.587083	0.565420	99
Es	-2.609378	0.289605	0.480312	99
Es	1.631544	1.496551	-1.031898	99
Es	0.296031	0.164096	-0.419684	99
Es	-1.588573	-0.519736	0.398693	99
Es	2.060109	1.990571	-0.715866	99
Es	-0.815925	-1.094909	0.432588	99
Es	-0.857565	-2.317218	-0.118238	99
Es	3.233225	2.398077	-1.059183	99
Es	0.044742	0.640442	-0.236538	99
Es	1.210181	1.088966	-0.582601	99
Es	-2.712114	-0.736954	1.034289	99
Es	0.799445	0.689858	-0.117076	99
Es	-0.331434	0.191371	-0.503276	99
Es	0.135298	-2.035411	0.567344	99
Es	-0.955674	-0.528196	0.469581	99
Es	-0.612541	-1.958576	0.501407	99
Es	1.382406	1.608428	-1.689302	99
Es	2.337848	1.465806	-0.912532	99
Es	3.051457	1.875709	0.044008	99
Es	-0.476948	0.246283	-0.831763	99
Es	-0.923252	-2.269951	1.075459	99
Es	-0.864015	-0.447151	0.731429	99
Es	-0.634222	-0.155628	0.032478	99
Es	2.803944	1.990749	-0.620426	99
Es	-2.725009	-0.708074	-0.183180	99
Es	-2.419121	-0.403420	0.446585	99
44
Properties=species:S:1:pos:R:3:Z:I:1 energy=-304.0785988278846 field_type=dipole dipole="0.000000 0.000000 0.000000" charge=0
C	-2.419239	-0.403414	0.446569	6
N	-0.955349	-0.527893	0.470399	7
C	-0.612509	-1.958713	0.501399	6
N	-0.331709	0.191466	-0.503861	7
C	0.799371	0.689847	-0.117031	6
C	1.631651	1.496616	-1.031921	6
C	2.803851	1.990706	-0.620461	6
H	-2.706569	0.652766	0.497399	1
H	-2.870899	-0.898293	1.313389	1
H	-2.846879	-0.828744	-0.468401	1
H	-1.069889	-2.453084	1.365529	1
H	0.471051	-2.088824	0.599049	1
H	-0.934909	-2.469913	-0.412691	1
H	1.194951	0.539766	0.904809	1
H	1.247261	1.660766	-2.031770	1
H	3.185201	1.823457	0.381899	1
H	3.414621	2.583486	-1.294311	1
Es	-2.419111	-0.403433	0.446585	99
Es	3.233821	2.398030	-1.058330	99
Es	-0.864268	-0.447878	0.727423	99
Es	-0.476024	0.246294	-0.830405	99
Es	0.296527	0.165087	-0.418427	99
Es	-1.588447	-0.520095	0.398714	99
Es	0.799444	0.689859	-0.117075	99
Es	3.050922	1.875622	0.043199	99
Es	0.135272	-2.034882	0.567402	99
Es	-2.711531	-0.736260	1.033639	99
Es	0.044264	0.639363	-0.237583	99
Es	1.210131	1.088907	-0.582747	99
Es	-2.725671	-0.708611	-0.182734	99
Es	-2.609106	0.288775	0.480452	99
Es	-0.858901	-2.317921	-0.116886	99
Es	2.067799	1.982845	-0.720898	99
Es	1.382625	1.608475	-1.688522	99
Es	-0.816305	-1.094370	0.432849	99
Es	-0.922079	-2.268959	1.074042	99
Es	-0.331425	0.191384	-0.503307	99
Es	-0.634758	-0.155069	0.034771	99
Es	2.803945	1.990747	-0.620427	99
Es	2.330190	1.473661	-0.907922	99
Es	-0.612542	-1.958576	0.501408	99
Es	1.070051	0.587014	0.565053	99
Es	-0.955671	-0.528187	0.469657	99
Es	1.631548	1.496549	-1.031901	99
44
Properties=species:S:1:pos:R:3:Z:I:1 energy=-304.0785988278846 field_type=dipole dipole="0.000000 0.000000 0.000000" charge=0
C	-2.419239	-0.403414	0.446569	6
N	-0.955349	-0.527893	0.470399	7
C	-0.612509	-1.958713	0.501399	6
N	-0.331709	0.191466	-0.503861	7
C	0.799371	0.689847	-0.117031	6
C	1.631651	1.496616	-1.031921	6
C	2.803851	1.990706	-0.620461	6
H	-2.706569	0.652766	0.497399	1
H	-2.870899	-0.898293	1.313389	1
H	-2.846879	-0.828744	-0.468401	1
H	-1.069889	-2.453084	1.365529	1
H	0.471051	-2.088824	0.599049	1
H	-0.934909	-2.469913	-0.412691	1
H	1.194951	0.539766	0.904809	1
H	1.247261	1.660766	-2.031770	1
H	3.185201	1.823457	0.381899	1
H	3.414621	2.583486	-1.294311	1
Es	-2.711477	-0.736129	1.033588	99
Es	-0.816790	-1.093338	0.433536	99
Es	1.209988	1.088908	-0.583014	99
Es	-0.331446	0.191367	-0.503275	99
Es	0.799446	0.689857	-0.117076	99
Es	-2.608696	0.287659	0.480428	99
Es	-0.955693	-0.528184	0.469601	99
Es	-1.587898	-0.521318	0.398284	99
Es	3.234201	2.398038	-1.057789	99
Es	-0.475813	0.246746	-0.829909	99
Es	1.382948	1.608480	-1.687961	99
Es	-2.725828	-0.708581	-0.182737	99
Es	-0.612541	-1.958581	0.501407	99
Es	3.050588	1.875540	0.042586	99
Es	-0.864716	-0.448346	0.723524	99
Es	2.803945	1.990747	-0.620426	99
Es	-0.860873	-2.318968	-0.114689	99
Es	2.327923	1.476312	-0.906541	99
Es	1.631547	1.496549	-1.031900	99
Es	0.296619	0.167407	-0.416603	99
Es	2.070023	1.980304	-0.722319	99
Es	0.044329	0.636674	-0.239317	99
Es	1.069888	0.586943	0.564810	99
Es	0.135170	-2.034072	0.567374	99
Es	-0.920290	-2.267577	1.071929	99
Es	-2.419109	-0.403435	0.446585	99
Es	-0.634746	-0.154633	0.037934	99
44
Properties=species:S:1:pos:R:3:Z:I:1 energy=-304.0785988278846 field_type=dipole dipole="0.000000 0.000000 0.000000" charge=0
C	-2.419239	-0.403414	0.446569	6
N	-0.955349	-0.527893	0.470399	7
C	-0.612509	-1.958713	0.501399	6
N	-0.331709	0.191466	-0.503861	7
C	0.799371	0.689847	-0.117031	6
C	1.631651	1.496616	-1.031921	6
C	2.803851	1.990706	-0.620461	6
H	-2.706569	0.652766	0.497399	1
H	-2.870899	-0.898293	1.313389	1
H	-2.846879	-0.828744	-0.468401	1
H	-1.069889	-2.453084	1.365529	1
H	0.471051	-2.088824	0.599049	1
H	-0.934909	-2.469913	-0.412691	1
H	1.194951	0.539766	0.904809	1
H	1.247261	1.660766	-2.031770	1
H	3.185201	1.823457	0.381899	1
H	3.414621	2.583486	-1.294311	1
Es	2.320231	1.485815	-0.901702	99
Es	2.803945	1.990746	-0.620428	99
Es	0.799446	0.689857	-0.117076	99
Es	-1.587927	-0.521399	0.398535	99
Es	-0.817381	-1.092461	0.432919	99
Es	-0.918870	-2.266385	1.069970	99
Es	-2.711302	-0.735904	1.033369	99
Es	-0.475165	0.246481	-0.828741	99
Es	-0.955674	-0.528190	0.469620	99
Es	-0.635208	-0.154356	0.038834	99
Es	1.631547	1.496550	-1.031900	99
Es	1.069697	0.586861	0.564449	99
Es	3.050410	1.875379	0.042148	99
Es	-0.864273	-0.449360	0.722127	99
Es	-2.419102	-0.403436	0.446583	99
Es	3.234467	2.398020	-1.057371	99
Es	-0.612541	-1.958578	0.501407	99
Es	1.383126	1.608544	-1.687356	99
Es	0.044200	0.638494	-0.238116	99
Es	-0.331434	0.191373	-0.503280	99
Es	-2.608667	0.287558	0.480436	99
Es	0.135223	-2.034115	0.567344	99
Es	1.209975	1.088898	-0.583076	99
Es	-2.726004	-0.708804	-0.182568	99
Es	2.077735	1.970890	-0.727414	99
Es	0.296722	0.165780	-0.418007	99
Es	-0.862478	-2.319891	-0.112677	99
44
Properties=species:S:1:pos:R:3:Z:I:1 energy=-304.0785988278846 field_type=dipole dipole="0.000000 0.000000 0.000000" charge=0
C	-2.419239	-0.403414	0.446569	6
N	-0.955349	-0.527893	0.470399	7
C	-0.612509	-1.958713	0.501399	6
N	-0.331709	0.191466	-0.503861	7
C	0.799371	0.689847	-0.117031	6
C	1.631651	1.496616	-1.031921	6
C	2.803851	1.990706	-0.620461	6
H	-2.706569	0.652766	0.497399	1
H	-2.870899	-0.898293	1.313389	1
H	-2.846879	-0.828744	-0.468401	1
H	-1.069889	-2.453084	1.365529	1
H	0.471051	-2.088824	0.599049	1
H	-0.934909	-2.469913	-0.412691	1
H	1.194951	0.539766	0.904809	1
H	1.247261	1.660766	-2.031770	1
H	3.185201	1.823457	0.381899	1
H	3.414621	2.583486	-1.294311	1
Es	-0.817600	-1.092368	0.432727	99
Es	0.799446	0.689858	-0.117074	99
Es	-0.918442	-2.266121	1.069440	99
Es	1.209836	1.088922	-0.583301	99
Es	-0.955679	-0.528187	0.469622	99
Es	-0.634976	-0.153953	0.042075	99
Es	2.082135	1.965219	-0.730383	99
Es	0.296620	0.168366	-0.415846	99
Es	-2.608639	0.287491	0.480430	99
Es	2.803945	1.990748	-0.620427	99
Es	1.383402	1.608503	-1.686842	99
Es	-0.864256	-0.450206	0.718869	99
Es	3.049952	1.875475	0.041473	99
Es	-1.587947	-0.521418	0.398605	99
Es	1.069535	0.586890	0.564221	99
Es	-0.475127	0.246545	-0.828732	99
Es	3.234890	2.398010	-1.056706	99
Es	-0.612540	-1.958579	0.501407	99
Es	-0.862884	-2.320187	-0.112159	99
Es	0.044301	0.635809	-0.240058	99
Es	2.315888	1.491414	-0.898826	99
Es	-2.710801	-0.735247	1.032818	99
Es	-0.331435	0.191393	-0.503335	99
Es	1.631547	1.496549	-1.031900	99
Es	0.135148	-2.033658	0.567323	99
Es	-2.726494	-0.709488	-0.181976	99
Es	-2.419126	-0.403413	0.446584	99
44
Properties=species:S:1:pos:R:3:Z:I:1 energy=-304.0785988278846 field_type=dipole dipole="0.000000 0.000000 0.000000" charge=0
C	-2.419239	-0.403414	0.446569	6
N	-0.955349	-0.527893	0.470399	7
C	-0.612509	-1.958713	0.501399	6
N	-0.331709	0.191466	-0.503861	7
C	0.799371	0.689847	-0.117031	6
C	1.631651	1.496616	-1.031921	6
C	2.803851	1.990706	-0.620461	6
H	-2.706569	0.652766	0.497399	1
H	-2.870899	-0.898293	1.313389	1
H	-2.846879	-0.828744	-0.468401	1
H	-1.069889	-2.453084	1.365529	1
H	0.471051	-2.088824	0.599049	1
H	-0.934909	-2.469913	-0.412691	1
H	1.194951	0.539766	0.904809	1
H	1.247261	1.660766	-2.031770	1
H	3.185201	1.823457	0.381899	1
H	3.414621	2.583486	-1.294311	1
Es	-2.711661	-0.736900	1.033885	99
Es	-2.607799	0.285018	0.480146	99
Es	-0.866867	-2.322060	-0.106500	99
Es	-2.725242	-0.708475	-0.183133	99
Es	1.383260	1.609156	-1.688150	99
Es	2.803943	1.990750	-0.620426	99
Es	2.337551	1.503356	-0.908384	99
Es	-0.475749	0.246242	-0.830074	99
Es	3.050542	1.875613	0.041376	99
Es	-2.419109	-0.403437	0.446581	99
Es	1.069521	0.586892	0.564350	99
Es	0.295411	0.164464	-0.420243	99
Es	1.210157	1.088693	-0.583398	99
Es	0.799445	0.689857	-0.117076	99
Es	-0.331450	0.191366	-0.503279	99
Es	-0.816070	-1.093014	0.437417	99
Es	-0.867780	-0.446886	0.709157	99
Es	2.060249	1.952435	-0.718239	99
Es	-0.914766	-2.263611	1.064160	99
Es	0.045144	0.640393	-0.235914	99
Es	-0.955661	-0.528192	0.469644	99
Es	0.134894	-2.032611	0.567485	99
Es	-0.633710	-0.153413	0.049682	99
Es	-0.612541	-1.958579	0.501408	99
Es	-1.586538	-0.524080	0.397150	99
Es	1.631548	1.496548	-1.031901	99
Es	3.233977	2.398845	-1.057698	99
44
Properties=species:S:1:pos:R:3:Z:I:1 energy=-304.0785988278846 field_type=dipole dipole="0.000000 0.000000 0.000000" charge=0
C	-2.419239	-0.403414	0.446569	6
N	-0.955349	-0.527893	0.470399	7
C	-0.612509	-1.958713	0.501399	6
N	-0.331709	0.191466	-0.503861	7
C	0.799371	0.689847	-0.117031	6
C	1.631651	1.496616	-1.031921	6
C	2.803851	1.990706	-0.620461	6
H	-2.706569	0.652766	0.497399	1
H	-2.870899	-0.898293	1.313389	1
H	-2.846879	-0.828744	-0.468401	1
H	-1.069889	-2.453084	1.365529	1
H	0.471051	-2.088824	0.599049	1
H	-0.934909	-2.469913	-0.412691	1
H	1.194951	0.539766	0.904809	1
H	1.247261	1.660766	-2.031770	1
H	3.185201	1.823457	0.381899	1
H	3.414621	2.583486	-1.294311	1
Es	-2.419107	-0.403438	0.446581	99
Es	0.284215	0.173681	-0.422728	99
Es	1.069672	0.586594	0.564465	99
Es	-0.867680	-2.322399	-0.105266	99
Es	-0.475940	0.246427	-0.828660	99
Es	1.383176	1.609396	-1.687996	99
Es	1.210017	1.088775	-0.583426	99
Es	-2.725458	-0.708602	-0.182984	99
Es	0.134941	-2.032531	0.567376	99
Es	1.631551	1.496544	-1.031902	99
Es	3.234126	2.398692	-1.057711	99
Es	-1.586700	-0.523843	0.397394	99
Es	-0.914076	-2.263089	1.063022	99
Es	-0.868801	-0.445950	0.704842	99
Es	2.803943	1.990750	-0.620425	99
Es	-0.612537	-1.958585	0.501406	99
Es	-0.955657	-0.528192	0.469663	99
Es	0.056510	0.631432	-0.234723	99
Es	-2.711497	-0.736664	1.033671	99
Es	2.338037	1.502192	-0.908794	99
Es	2.059823	1.953480	-0.717842	99
Es	3.050569	1.875472	0.041257	99
Es	-2.607905	0.285316	0.480192	99
Es	-0.814948	-1.094965	0.438656	99
Es	-0.633583	-0.153355	0.052319	99
Es	0.799446	0.689856	-0.117077	99
Es	-0.331436	0.191374	-0.503282	99
44
Properties=species:S:1:pos:R:3:Z:I:1 energy=-304.0785988278846 field_type=dipole dipole="0.000000 0.000000 0.000000" charge=0
C	-2.419239	-0.403414	0.446569	6
N	-0.955349	-0.527893	0.470399	7
C	-0.612509	-1.958713	0.501399	6
N	-0.331709	0.191466	-0.503861	7
C	0.799371	0.689847	-0.117031	6
C	1.631651	1.496616	-1.031921	6
C	2.803851	1.990706	-0.620461	6
H	-2.706569	0.652766	0.497399	1
H	-2.870899	-0.898293	1.313389	1
H	-2.846879	-0.828744	-0.468401	1
H	-1.069889	-2.453084	1.365529	1
H	0.471051	-2.088824	0.599049	1
H	-0.934909	-2.469913	-0.412691	1
H	1.194951	0.539766	0.904809	1
H	1.247261	1.660766	-2.031770	1
H	3.185201	1.823457	0.381899	1
H	3.414621	2.583486	-1.294311	1
Es	-2.608050	0.286009	0.480372	99
Es	0.044271	0.636997	-0.238977	99
Es	-0.955629	-0.528196	0.469678	99
Es	-0.916124	-2.264361	1.066077	99
Es	0.134898	-2.032144	0.567296	99
Es	0.799448	0.689852	-0.117078	99
Es	-0.816805	-1.094010	0.434585	99
Es	-0.612540	-1.958578	0.501407	99
Es	-2.710501	-0.734626	1.032449	99
Es	-0.635461	-0.153304	0.046034	99
Es	0.296844	0.166935	-0.417174	99
Es	3.049647	1.875278	0.040683	99
Es	-0.865666	-0.449409	0.711738	99
Es	3.235376	2.397888	-1.056016	99
Es	-2.727001	-0.709780	-0.181663	99
Es	1.209764	1.088936	-0.583466	99
Es	2.092331	1.951264	-0.737158	99
Es	-0.331430	0.191384	-0.503310	99
Es	1.069260	0.586786	0.563777	99
Es	-1.587746	-0.521859	0.398517	99
Es	-0.865495	-2.321434	-0.108698	99
Es	2.305640	1.505502	-0.892182	99
Es	2.803945	1.990746	-0.620427	99
Es	1.631549	1.496548	-1.031902	99
Es	-0.474402	0.246705	-0.827066	99
Es	1.383684	1.608676	-1.686050	99
Es	-2.419108	-0.403435	0.446583	99
44
Properties=species:S:1:pos:R:3:Z:I:1 energy=-304.0785988278846 field_type=dipole dipole="0.000000 0.000000 0.000000" charge=0
C	-2.419239	-0.403414	0.446569	6
N	-0.955349	-0.527893	0.470399	7
C	-0.612509	-1.958713	0.501399	6
N	-0.331709	0.191466	-0.503861	7
C	0.799371	0.689847	-0.117031	6
C	1.631651	1.496616	-1.031921	6
C	2.803851	1.990706	-0.620461	6
H	-2.706569	0.652766	0.497399	1
H	-2.870899	-0.898293	1.313389	1
H	-2.846879	-0.828744	-0.468401	1
H	-1.069889	-2.453084	1.365529	1
H	0.471051	-2.088824	0.599049	1
H	-0.934909	-2.469913	-0.412691	1
H	1.194951	0.539766	0.904809	1
H	1.247261	1.660766	-2.031770	1
H	3.185201	1.823457	0.381899	1
H	3.414621	2.583486	-1.294311	1
Es	-0.865819	-2.321782	-0.108144	99
Es	-0.331437	0.191372	-0.503278	99
Es	1.209638	1.088984	-0.583714	99
Es	-0.612540	-1.958577	0.501407	99
Es	-1.587605	-0.522165	0.398362	99
Es	-2.419117	-0.403430	0.446582	99
Es	-2.710064	-0.734231	1.031960	99
Es	-2.727318	-0.710367	-0.181166	99
Es	1.631547	1.496551	-1.031900	99
Es	0.134965	-2.032473	0.567287	99
Es	2.090242	1.954248	-0.735758	99
Es	0.046228	0.626963	-0.245431	99
Es	1.069134	0.586893	0.563580	99
Es	3.049393	1.875531	0.040360	99
Es	3.235446	2.398038	-1.055741	99
Es	0.294743	0.177052	-0.410236	99
Es	-0.636129	-0.153242	0.044936	99
Es	-0.955657	-0.528192	0.469649	99
Es	-2.608170	0.286257	0.480392	99
Es	-0.817565	-1.092630	0.433810	99
Es	-0.865107	-0.450166	0.712665	99
Es	0.799445	0.689857	-0.117076	99
Es	-0.915753	-2.264097	1.065488	99
Es	2.307786	1.502402	-0.893507	99
Es	-0.473516	0.246400	-0.826362	99
Es	1.383983	1.608426	-1.685709	99
Es	2.803946	1.990745	-0.620427	99
