39
Properties=species:S:1:pos:R:3:Z:I:1 energy=-285.722958812371 field_type=dipole dipole="0.000000 0.000000 0.000000" charge=0
N	-0.114710	0.026186	-1.351153	7
C	-0.037700	-1.090344	-0.361243	6
C	1.202950	-0.652554	0.389937	6
C	1.168340	0.695256	0.419137	6
C	-0.093380	1.101846	-0.313273	6
C	-1.293850	0.631796	0.477417	6
C	-1.259310	-0.716904	0.448137	6
H	0.747750	0.060276	-1.888443	1
H	-0.024790	-2.074394	-0.828613	1
H	1.914490	-1.301054	0.872807	1
H	1.846510	1.357646	0.930427	1
H	-0.131410	2.104776	-0.737673	1
H	-1.996270	1.258276	1.000057	1
H	-1.928620	-1.400804	0.942477	1
Es	-1.129867	-0.044898	0.743048	99
Es	1.168305	0.695360	0.419124	99
Es	1.059487	0.012241	0.676212	99
Es	0.598292	-0.928224	0.036217	99
Es	1.410508	0.033138	0.127434	99
Es	-0.649779	-0.959152	0.061979	99
Es	-1.293802	0.631910	0.477397	99
Es	-1.499900	-0.042792	0.212534	99
Es	-0.025265	-1.766848	-0.671898	99
Es	0.550215	0.955073	0.077226	99
Es	-0.059624	-0.476886	-0.928016	99
Es	1.621604	1.151985	0.759912	99
Es	1.679189	-1.099966	0.711060	99
Es	-1.259259	-0.717013	0.448112	99
Es	0.423610	0.046846	-1.663118	99
Es	-1.703485	-1.188908	0.776892	99
Es	1.202926	-0.652661	0.389909	99
Es	-0.037699	-1.090221	-0.361282	99
Es	-0.697642	0.921342	0.103014	99
Es	-0.115890	1.790999	-0.594369	99
Es	-1.760959	1.065681	0.825795	99
Es	-0.425472	0.023142	-1.565150	99
Es	-0.084586	0.512630	-0.906394	99
Es	-0.114216	0.026192	-1.350800	99
Es	-0.093372	1.101725	-0.313316	99
39
Properties=species:S:1:pos:R:3:Z:I:1 energy=-285.722958812371 field_type=dipole dipole="0.000000 0.000000 0.000000" charge=0
N	-0.114710	0.026186	-1.351153	7
C	-0.037700	-1.090344	-0.361243	6
C	1.202950	-0.652554	0.389937	6
C	1.168340	0.695256	0.419137	6
C	-0.093380	1.101846	-0.313273	6
C	-1.293850	0.631796	0.477417	6
C	-1.259310	-0.716904	0.448137	6
H	0.747750	0.060276	-1.888443	1
H	-0.024790	-2.074394	-0.828613	1
H	1.914490	-1.301054	0.872807	1
H	1.846510	1.357646	0.930427	1
H	-0.131410	2.104776	-0.737673	1
H	-1.996270	1.258276	1.000057	1
H	-1.928620	-1.400804	0.942477	1
Es	1.056314	0.012084	0.679053	99
Es	1.202924	-0.652663	0.389915	99
Es	-1.293806	0.631914	0.477393	99
Es	-0.408973	0.022917	-1.560618	99
Es	-1.497750	-0.042736	0.212339	99
Es	1.622156	1.153504	0.758257	99
Es	-0.025124	-1.770868	-0.671593	99
Es	-0.114179	0.026193	-1.350842	99
Es	-0.065678	-0.484665	-0.929336	99
Es	0.548177	0.953503	0.076544	99
Es	-0.091864	0.520593	-0.907508	99
Es	0.420448	0.046853	-1.663089	99
Es	1.168308	0.695365	0.419119	99
Es	-1.127846	-0.044853	0.743922	99
Es	-1.761723	1.066876	0.824996	99
Es	-0.647027	-0.957340	0.062234	99
Es	1.679735	-1.101485	0.709430	99
Es	-0.694891	0.919759	0.103262	99
Es	-0.115835	1.794930	-0.593971	99
Es	-0.093373	1.101726	-0.313316	99
Es	1.408319	0.033090	0.126907	99
Es	-1.259261	-0.717019	0.448108	99
Es	0.596122	-0.926661	0.035545	99
Es	-1.704152	-1.190102	0.776053	99
Es	-0.037698	-1.090221	-0.361281	99
39
Properties=species:S:1:pos:R:3:Z:I:1 energy=-285.722958812371 field_type=dipole dipole="0.000000 0.000000 0.000000" charge=0
N	-0.114710	0.026186	-1.351153	7
C	-0.037700	-1.090344	-0.361243	6
C	1.202950	-0.652554	0.389937	6
C	1.168340	0.695256	0.419137	6
C	-0.093380	1.101846	-0.313273	6
C	-1.293850	0.631796	0.477417	6
C	-1.259310	-0.716904	0.448137	6
H	0.747750	0.060276	-1.888443	1
H	-0.024790	-2.074394	-0.828613	1
H	1.914490	-1.301054	0.872807	1
H	1.846510	1.357646	0.930427	1
H	-0.131410	2.104776	-0.737673	1
H	-1.996270	1.258276	1.000057	1
H	-1.928620	-1.400804	0.942477	1
Es	1.168303	0.695364	0.419126	99
Es	-0.093372	1.101726	-0.313316	99
Es	-0.037698	-1.090222	-0.361281	99
Es	-1.127046	-0.044837	0.744460	99
Es	-1.762141	1.067976	0.824286	99
Es	-0.644776	-0.956226	0.062343	99
Es	-0.395964	0.023739	-1.556289	99
Es	-1.259261	-0.717021	0.448107	99
Es	-1.293805	0.631914	0.477393	99
Es	1.202920	-0.652663	0.389914	99
Es	-0.025045	-1.772941	-0.670917	99
Es	-0.692426	0.918608	0.103319	99
Es	-0.114266	0.026188	-1.350844	99
Es	-0.115954	1.797037	-0.593135	99
Es	1.680325	-1.102679	0.708137	99
Es	-1.704517	-1.191102	0.775364	99
Es	-1.496022	-0.042683	0.211642	99
Es	1.622572	1.154849	0.757106	99
Es	-0.096686	0.525706	-0.909587	99
Es	0.594351	-0.925451	0.035255	99
Es	-0.071197	-0.490382	-0.931957	99
Es	0.417545	0.046637	-1.660992	99
Es	1.406198	0.033028	0.127040	99
Es	0.546532	0.952118	0.076086	99
Es	1.054750	0.012010	0.680263	99
39
Properties=species:S:1:pos:R:3:Z:I:1 energy=-285.722958812371 field_type=dipole dipole="0.000000 0.000000 0.000000" charge=0
N	-0.114710	0.026186	-1.351153	7
C	-0.037700	-1.090344	-0.361243	6
C	1.202950	-0.652554	0.389937	6
C	1.168340	0.695256	0.419137	6
C	-0.093380	1.101846	-0.313273	6
C	-1.293850	0.631796	0.477417	6
C	-1.259310	-0.716904	0.448137	6
H	0.747750	0.060276	-1.888443	1
H	-0.024790	-2.074394	-0.828613	1
H	1.914490	-1.301054	0.872807	1
H	1.846510	1.357646	0.930427	1
H	-0.131410	2.104776	-0.737673	1
H	-1.996270	1.258276	1.000057	1
H	-1.928620	-1.400804	0.942477	1
Es	0.593108	-0.924356	0.035231	99
Es	1.168303	0.695367	0.419127	99
Es	-0.101698	0.529961	-0.912593	99
Es	0.545136	0.950874	0.075889	99
Es	1.202925	-0.652665	0.389912	99
Es	-1.762386	1.068986	0.823559	99
Es	-0.037698	-1.090223	-0.361284	99
Es	-1.494607	-0.042633	0.210997	99
Es	1.404583	0.032979	0.127215	99
Es	1.622800	1.156056	0.756171	99
Es	-0.642906	-0.955123	0.062351	99
Es	-1.126711	-0.044844	0.744920	99
Es	-0.384298	0.023618	-1.551303	99
Es	-1.293809	0.631919	0.477388	99
Es	-1.704690	-1.192220	0.774540	99
Es	1.680579	-1.103741	0.707237	99
Es	-0.025205	-1.774143	-0.670302	99
Es	-0.093373	1.101726	-0.313316	99
Es	-0.075557	-0.494447	-0.934897	99
Es	-1.259261	-0.717022	0.448107	99
Es	1.054203	0.011999	0.680749	99
Es	0.414763	0.046526	-1.658270	99
Es	-0.116053	1.798268	-0.592414	99
Es	-0.114240	0.026192	-1.350852	99
Es	-0.690588	0.917642	0.103362	99
39
Properties=species:S:1:pos:R:3:Z:I:1 energy=-285.722958812371 field_type=dipole dipole="0.000000 0.000000 0.000000" charge=0
N	-0.114710	0.026186	-1.351153	7
C	-0.037700	-1.090344	-0.361243	6
C	1.202950	-0.652554	0.389937	6
C	1.168340	0.695256	0.419137	6
C	-0.093380	1.101846	-0.313273	6
C	-1.293850	0.631796	0.477417	6
C	-1.259310	-0.716904	0.448137	6
H	0.747750	0.060276	-1.888443	1
H	-0.024790	-2.074394	-0.828613	1
H	1.914490	-1.301054	0.872807	1
H	1.846510	1.357646	0.930427	1
H	-0.131410	2.104776	-0.737673	1
H	-1.996270	1.258276	1.000057	1
H	-1.928620	-1.400804	0.942477	1
Es	1.622984	1.157015	0.755467	99
Es	0.544421	0.949822	0.075948	99
Es	-0.116349	1.799036	-0.591789	99
Es	1.168306	0.695368	0.419125	99
Es	-0.641536	-0.954357	0.062253	99
Es	1.403060	0.032938	0.127472	99
Es	-1.762578	1.069776	0.822877	99
Es	0.412285	0.046410	-1.655205	99
Es	-1.293806	0.631918	0.477393	99
Es	1.053790	0.012001	0.680812	99
Es	1.680904	-1.104627	0.706438	99
Es	-1.704798	-1.193007	0.773901	99
Es	-0.688928	0.917044	0.103098	99
Es	-1.259263	-0.717022	0.448105	99
Es	1.202926	-0.652669	0.389912	99
Es	-0.093373	1.101725	-0.313316	99
Es	0.592146	-0.923413	0.035228	99
Es	-0.114194	0.026193	-1.350905	99
Es	-0.037695	-1.090221	-0.361280	99
Es	-1.126471	-0.044843	0.745223	99
Es	-0.025243	-1.774962	-0.669715	99
Es	-0.079480	-0.497564	-0.938161	99
Es	-1.493448	-0.042585	0.210616	99
Es	-0.374443	0.023843	-1.546440	99
Es	-0.105896	0.532879	-0.915535	99
39
Properties=species:S:1:pos:R:3:Z:I:1 energy=-285.722958812371 field_type=dipole dipole="0.000000 0.000000 0.000000" charge=0
N	-0.114710	0.026186	-1.351153	7
C	-0.037700	-1.090344	-0.361243	6
C	1.202950	-0.652554	0.389937	6
C	1.168340	0.695256	0.419137	6
C	-0.093380	1.101846	-0.313273	6
C	-1.293850	0.631796	0.477417	6
C	-1.259310	-0.716904	0.448137	6
H	0.747750	0.060276	-1.888443	1
H	-0.024790	-2.074394	-0.828613	1
H	1.914490	-1.301054	0.872807	1
H	1.846510	1.357646	0.930427	1
H	-0.131410	2.104776	-0.737673	1
H	-1.996270	1.258276	1.000057	1
H	-1.928620	-1.400804	0.942477	1
Es	-0.365855	0.023926	-1.541538	99
Es	-0.114275	0.026191	-1.350859	99
Es	-1.126306	-0.044831	0.745325	99
Es	1.402050	0.032919	0.127572	99
Es	-0.687937	0.916355	0.102984	99
Es	-0.109054	0.535346	-0.918652	99
Es	1.168307	0.695367	0.419120	99
Es	-1.762660	1.070517	0.822337	99
Es	-1.293809	0.631917	0.477389	99
Es	-1.492397	-0.042551	0.210271	99
Es	0.591479	-0.922673	0.035379	99
Es	-1.704909	-1.193625	0.773344	99
Es	-0.082968	-0.499907	-0.941144	99
Es	1.053693	0.011989	0.680836	99
Es	-0.037697	-1.090221	-0.361279	99
Es	1.680994	-1.105271	0.705759	99
Es	-1.259259	-0.717019	0.448105	99
Es	-0.640302	-0.953786	0.061980	99
Es	-0.093374	1.101723	-0.313316	99
Es	1.623142	1.157588	0.754886	99
Es	0.543683	0.949234	0.076006	99
Es	1.202925	-0.652666	0.389911	99
Es	-0.025507	-1.775519	-0.669182	99
Es	-0.116566	1.799508	-0.591294	99
Es	0.409923	0.046181	-1.652417	99
39
Properties=species:S:1:pos:R:3:Z:I:1 energy=-285.722958812371 field_type=dipole dipole="0.000000 0.000000 0.000000" charge=0
N	-0.114710	0.026186	-1.351153	7
C	-0.037700	-1.090344	-0.361243	6
C	1.202950	-0.652554	0.389937	6
C	1.168340	0.695256	0.419137	6
C	-0.093380	1.101846	-0.313273	6
C	-1.293850	0.631796	0.477417	6
C	-1.259310	-0.716904	0.448137	6
H	0.747750	0.060276	-1.888443	1
H	-0.024790	-2.074394	-0.828613	1
H	1.914490	-1.301054	0.872807	1
H	1.846510	1.357646	0.930427	1
H	-0.131410	2.104776	-0.737673	1
H	-1.996270	1.258276	1.000057	1
H	-1.928620	-1.400804	0.942477	1
Es	-0.639408	-0.953114	0.061976	99
Es	-0.687066	0.915922	0.102740	99
Es	-1.259262	-0.717021	0.448107	99
Es	-0.037698	-1.090221	-0.361281	99
Es	1.623268	1.158033	0.754494	99
Es	-1.293806	0.631915	0.477390	99
Es	-1.762651	1.071121	0.821888	99
Es	-0.093373	1.101726	-0.313317	99
Es	-1.704825	-1.194296	0.772806	99
Es	1.401084	0.032907	0.127499	99
Es	-1.126060	-0.044860	0.745313	99
Es	0.407985	0.046024	-1.649311	99
Es	0.591253	-0.922030	0.035288	99
Es	1.202923	-0.652665	0.389914	99
Es	1.168309	0.695368	0.419117	99
Es	-0.025742	-1.775887	-0.668813	99
Es	-0.114143	0.026193	-1.350813	99
Es	-0.086756	-0.501911	-0.944437	99
Es	1.681128	-1.105739	0.705398	99
Es	-0.116765	1.799866	-0.590929	99
Es	-1.491705	-0.042541	0.210135	99
Es	0.543234	0.948696	0.076060	99
Es	1.053692	0.011971	0.680709	99
Es	-0.357777	0.024075	-1.536704	99
Es	-0.112521	0.537165	-0.921707	99
39
Properties=species:S:1:pos:R:3:Z:I:1 energy=-285.722958812371 field_type=dipole dipole="0.000000 0.000000 0.000000" charge=0
N	-0.114710	0.026186	-1.351153	7
C	-0.037700	-1.090344	-0.361243	6
C	1.202950	-0.652554	0.389937	6
C	1.168340	0.695256	0.419137	6
C	-0.093380	1.101846	-0.313273	6
C	-1.293850	0.631796	0.477417	6
C	-1.259310	-0.716904	0.448137	6
H	0.747750	0.060276	-1.888443	1
H	-0.024790	-2.074394	-0.828613	1
H	1.914490	-1.301054	0.872807	1
H	1.846510	1.357646	0.930427	1
H	-0.131410	2.104776	-0.737673	1
H	-1.996270	1.258276	1.000057	1
H	-1.928620	-1.400804	0.942477	1
Es	-0.115416	0.538413	-0.924078	99
Es	0.590770	-0.921568	0.035412	99
Es	1.202928	-0.652665	0.389905	99
Es	-1.293810	0.631920	0.477385	99
Es	-1.762651	1.071629	0.821464	99
Es	1.168311	0.695368	0.419114	99
Es	0.406310	0.046041	-1.646771	99
Es	-0.638600	-0.952692	0.061765	99
Es	-0.088764	-0.503097	-0.946794	99
Es	-0.037697	-1.090222	-0.361280	99
Es	-0.114147	0.026195	-1.350891	99
Es	-1.259257	-0.717020	0.448111	99
Es	0.543173	0.947960	0.075990	99
Es	-1.491028	-0.042508	0.210228	99
Es	1.053560	0.012012	0.680291	99
Es	-1.126019	-0.044815	0.745042	99
Es	-0.093373	1.101725	-0.313316	99
Es	1.400512	0.032869	0.127948	99
Es	1.681124	-1.106244	0.704846	99
Es	1.623192	1.158612	0.754030	99
Es	-0.686137	0.915538	0.102627	99
Es	-0.025947	-1.776166	-0.668505	99
Es	-0.351973	0.024086	-1.532769	99
Es	-1.704797	-1.194793	0.772337	99
Es	-0.116942	1.800116	-0.590567	99
39
Properties=species:S:1:pos:R:3:Z:I:1 energy=-285.722958812371 field_type=dipole dipole="0.000000 0.000000 0.000000" charge=0
N	-0.114710	0.026186	-1.351153	7
C	-0.037700	-1.090344	-0.361243	6
C	1.202950	-0.652554	0.389937	6
C	1.168340	0.695256	0.419137	6
C	-0.093380	1.101846	-0.313273	6
C	-1.293850	0.631796	0.477417	6
C	-1.259310	-0.716904	0.448137	6
H	0.747750	0.060276	-1.888443	1
H	-0.024790	-2.074394	-0.828613	1
H	1.914490	-1.301054	0.872807	1
H	1.846510	1.357646	0.930427	1
H	-0.131410	2.104776	-0.737673	1
H	-1.996270	1.258276	1.000057	1
H	-1.928620	-1.400804	0.942477	1
Es	0.405179	0.046077	-1.644211	99
Es	-1.490517	-0.042499	0.209736	99
Es	-0.118035	0.539307	-0.926194	99
Es	-0.114122	0.026194	-1.350833	99
Es	-0.685600	0.915208	0.102415	99
Es	0.542910	0.947509	0.076109	99
Es	1.399939	0.032835	0.127877	99
Es	0.590564	-0.921095	0.035506	99
Es	-0.346504	0.024153	-1.529141	99
Es	1.681143	-1.106581	0.704591	99
Es	1.053524	0.011985	0.679853	99
Es	-1.704716	-1.195228	0.771999	99
Es	-1.125813	-0.044823	0.745105	99
Es	-1.293806	0.631917	0.477391	99
Es	-0.093373	1.101726	-0.313316	99
Es	1.202922	-0.652668	0.389918	99
Es	-0.025983	-1.776364	-0.668258	99
Es	-0.117062	1.800313	-0.590281	99
Es	-0.091096	-0.504179	-0.949227	99
Es	-0.638228	-0.952296	0.061673	99
Es	1.623203	1.158983	0.753716	99
Es	-1.762558	1.072095	0.821149	99
Es	-0.037699	-1.090222	-0.361280	99
Es	1.168308	0.695367	0.419117	99
Es	-1.259258	-0.717019	0.448109	99
39
Properties=species:S:1:pos:R:3:Z:I:1 energy=-285.722958812371 field_type=dipole dipole="0.000000 0.000000 0.000000" charge=0
N	-0.114710	0.026186	-1.351153	7
C	-0.037700	-1.090344	-0.361243	6
C	1.202950	-0.652554	0.389937	6
C	1.168340	0.695256	0.419137	6
C	-0.093380	1.101846	-0.313273	6
C	-1.293850	0.631796	0.477417	6
C	-1.259310	-0.716904	0.448137	6
H	0.747750	0.060276	-1.888443	1
H	-0.024790	-2.074394	-0.828613	1
H	1.914490	-1.301054	0.872807	1
H	1.846510	1.357646	0.930427	1
H	-0.131410	2.104776	-0.737673	1
H	-1.996270	1.258276	1.000057	1
H	-1.928620	-1.400804	0.942477	1
Es	-0.684897	0.915058	0.102440	99
Es	-1.293805	0.631915	0.477392	99
Es	1.168291	0.695366	0.419111	99
Es	-0.342777	0.024153	-1.526230	99
Es	-1.259259	-0.717020	0.448105	99
Es	-0.114107	0.026195	-1.350849	99
Es	-0.026028	-1.776525	-0.668006	99
Es	-1.762582	1.072415	0.820844	99
Es	1.053342	0.012023	0.679113	99
Es	1.202925	-0.652666	0.389909	99
Es	-1.489998	-0.042491	0.209797	99
Es	-0.637571	-0.952051	0.061698	99
Es	0.543066	0.946955	0.076029	99
Es	1.399641	0.032830	0.127897	99
Es	-0.117154	1.800442	-0.590086	99
Es	0.403826	0.045869	-1.641801	99
Es	-0.092986	-0.504802	-0.950760	99
Es	1.622999	1.159447	0.753450	99
Es	0.590621	-0.920616	0.035324	99
Es	-0.037699	-1.090222	-0.361280	99
Es	-0.119856	0.540054	-0.928102	99
Es	-0.093375	1.101726	-0.313314	99
Es	-1.125714	-0.044826	0.744907	99
Es	1.681070	-1.106918	0.704281	99
Es	-1.704650	-1.195616	0.771656	99
39
Properties=species:S:1:pos:R:3:Z:I:1 energy=-285.722958812371 field_type=dipole dipole="0.000000 0.000000 0.000000" charge=0
N	-0.114710	0.026186	-1.351153	7
C	-0.037700	-1.090344	-0.361243	6
C	1.202950	-0.652554	0.389937	6
C	1.168340	0.695256	0.419137	6
C	-0.093380	1.101846	-0.313273	6
C	-1.293850	0.631796	0.477417	6
C	-1.259310	-0.716904	0.448137	6
H	0.747750	0.060276	-1.888443	1
H	-0.024790	-2.074394	-0.828613	1
H	1.914490	-1.301054	0.872807	1
H	1.846510	1.357646	0.930427	1
H	-0.131410	2.104776	-0.737673	1
H	-1.996270	1.258276	1.000057	1
H	-1.928620	-1.400804	0.942477	1
Es	-1.704546	-1.195777	0.771534	99
Es	-1.489880	-0.042477	0.209573	99
Es	-0.114224	0.026198	-1.351065	99
Es	1.053051	0.012045	0.677569	99
Es	-0.026249	-1.776628	-0.667869	99
Es	-0.120305	0.540290	-0.928900	99
Es	-0.093694	-0.505009	-0.951982	99
Es	0.542591	0.947030	0.075978	99
Es	-0.684496	0.914992	0.102283	99
Es	1.168306	0.695368	0.419119	99
Es	-0.037698	-1.090222	-0.361282	99
Es	-0.093372	1.101726	-0.313317	99
Es	1.681004	-1.107167	0.704118	99
Es	1.623088	1.159429	0.753399	99
Es	-1.293808	0.631917	0.477391	99
Es	-0.340730	0.024219	-1.524307	99
Es	0.402891	0.045835	-1.639141	99
Es	-0.636960	-0.952047	0.061466	99
Es	-1.125403	-0.044813	0.744908	99
Es	1.399337	0.032818	0.127722	99
Es	0.590391	-0.920545	0.035466	99
Es	-0.117218	1.800559	-0.589868	99
Es	1.202923	-0.652666	0.389910	99
Es	-1.259261	-0.717022	0.448105	99
Es	-1.762416	1.072642	0.820710	99
