42
Properties=species:S:1:pos:R:3:Z:I:1 energy=-286.8890621580493 field_type=dipole dipole="0.000000 0.000000 0.000000" charge=0
N	-1.967820	0.489302	-0.353461	7
C	-0.514080	0.482712	-0.495311	6
C	0.087390	1.520172	0.478019	6
C	1.155070	0.455122	0.818149	6
C	0.106690	-0.620198	0.414269	6
C	0.635880	-1.780848	-0.274421	6
C	1.073040	-2.745078	-0.838901	6
H	-2.417250	-0.312738	-0.795641	1
H	-2.412160	1.313682	-0.756091	1
H	-0.137360	0.537402	-1.522291	1
H	-0.536670	1.791392	1.338869	1
H	0.469380	2.435762	0.018189	1
H	2.041440	0.505012	0.173519	1
H	1.479320	0.433802	1.862289	1
H	-0.524980	-0.901698	1.269769	1
H	1.462110	-3.603798	-1.336961	1
Es	0.378744	-1.234141	0.057758	99
Es	-0.514207	0.482683	-0.495234	99
Es	0.684345	-0.174335	0.637418	99
Es	0.672436	1.051642	0.688969	99
Es	-1.967723	0.489304	-0.354070	99
Es	-2.216971	0.986610	-0.622322	99
Es	-0.235668	-0.159506	-0.088269	99
Es	0.528083	-2.410223	-0.596411	99
Es	0.348441	2.153270	0.161314	99
Es	-0.341696	1.690028	1.057564	99
Es	0.106776	-0.620247	0.414182	99
Es	1.327656	-3.305538	-1.165521	99
Es	0.992266	-2.059405	-0.825290	99
Es	1.379765	0.435948	1.533967	99
Es	-1.349851	0.484425	-0.469138	99
Es	-0.255430	1.068388	-0.047375	99
Es	1.073142	-2.745267	-0.839029	99
Es	-2.223609	0.007280	-0.645294	99
Es	0.635794	-1.780656	-0.274314	99
Es	-2.038935	0.481279	-0.015295	99
Es	0.087431	1.520114	0.477998	99
Es	-0.245853	0.515455	-1.192534	99
Es	1.747639	0.484862	0.368973	99
Es	1.059387	-2.350501	-0.277439	99
Es	-0.314608	-0.811929	0.974567	99
Es	1.154996	0.455102	0.818123	99
42
Properties=species:S:1:pos:R:3:Z:I:1 energy=-286.8890621580493 field_type=dipole dipole="0.000000 0.000000 0.000000" charge=0
N	-1.967820	0.489302	-0.353461	7
C	-0.514080	0.482712	-0.495311	6
C	0.087390	1.520172	0.478019	6
C	1.155070	0.455122	0.818149	6
C	0.106690	-0.620198	0.414269	6
C	0.635880	-1.780848	-0.274421	6
C	1.073040	-2.745078	-0.838901	6
H	-2.417250	-0.312738	-0.795641	1
H	-2.412160	1.313682	-0.756091	1
H	-0.137360	0.537402	-1.522291	1
H	-0.536670	1.791392	1.338869	1
H	0.469380	2.435762	0.018189	1
H	2.041440	0.505012	0.173519	1
H	1.479320	0.433802	1.862289	1
H	-0.524980	-0.901698	1.269769	1
H	1.462110	-3.603798	-1.336961	1
Es	-0.514206	0.482684	-0.495232	99
Es	1.379519	0.435172	1.531911	99
Es	-0.342868	1.691415	1.058908	99
Es	-0.254249	1.070213	-0.047324	99
Es	0.671805	1.054009	0.688609	99
Es	-0.246735	0.514687	-1.192259	99
Es	1.049602	-2.060274	-0.781062	99
Es	-1.967747	0.489298	-0.354027	99
Es	-0.313655	-0.809354	0.973620	99
Es	-2.220644	0.992550	-0.613984	99
Es	-0.235831	-0.159500	-0.086418	99
Es	-1.352032	0.485297	-0.472000	99
Es	1.747966	0.484234	0.370240	99
Es	1.154991	0.455102	0.818121	99
Es	0.348326	2.151218	0.161386	99
Es	0.531760	-2.370687	-0.657742	99
Es	1.327978	-3.307264	-1.166396	99
Es	-2.223773	0.006432	-0.647407	99
Es	-2.031693	0.475176	-0.018884	99
Es	0.087432	1.520117	0.477998	99
Es	0.106776	-0.620248	0.414185	99
Es	0.682447	-0.174649	0.637917	99
Es	0.379913	-1.236171	0.056653	99
Es	0.998325	-2.388885	-0.260184	99
Es	1.073153	-2.745276	-0.839023	99
Es	0.635793	-1.780651	-0.274306	99
42
Properties=species:S:1:pos:R:3:Z:I:1 energy=-286.8890621580493 field_type=dipole dipole="0.000000 0.000000 0.000000" charge=0
N	-1.967820	0.489302	-0.353461	7
C	-0.514080	0.482712	-0.495311	6
C	0.087390	1.520172	0.478019	6
C	1.155070	0.455122	0.818149	6
C	0.106690	-0.620198	0.414269	6
C	0.635880	-1.780848	-0.274421	6
C	1.073040	-2.745078	-0.838901	6
H	-2.417250	-0.312738	-0.795641	1
H	-2.412160	1.313682	-0.756091	1
H	-0.137360	0.537402	-1.522291	1
H	-0.536670	1.791392	1.338869	1
H	0.469380	2.435762	0.018189	1
H	2.041440	0.505012	0.173519	1
H	1.479320	0.433802	1.862289	1
H	-0.524980	-0.901698	1.269769	1
H	1.462110	-3.603798	-1.336961	1
Es	-2.026592	0.470040	-0.024232	99
Es	0.671488	1.055925	0.688863	99
Es	0.680801	-0.175001	0.638146	99
Es	-0.514205	0.482683	-0.495231	99
Es	-0.247375	0.514115	-1.192324	99
Es	1.073132	-2.745290	-0.839028	99
Es	-0.253718	1.071404	-0.047319	99
Es	1.748292	0.483745	0.370962	99
Es	0.106777	-0.620247	0.414183	99
Es	1.154989	0.455102	0.818118	99
Es	0.770329	-2.127853	-0.874686	99
Es	-0.313046	-0.807868	0.973015	99
Es	0.087431	1.520117	0.477997	99
Es	-0.235911	-0.159696	-0.085067	99
Es	-2.223139	0.005819	-0.649793	99
Es	1.173000	-2.210500	-0.429914	99
Es	-1.353210	0.486368	-0.472774	99
Es	1.379258	0.434453	1.529892	99
Es	0.348286	2.148886	0.161446	99
Es	0.380732	-1.237325	0.056324	99
Es	0.635785	-1.780647	-0.274312	99
Es	1.328105	-3.307785	-1.167050	99
Es	-1.967740	0.489280	-0.354059	99
Es	-2.223904	0.997081	-0.605451	99
Es	0.636423	-2.481353	-0.394422	99
Es	-0.343640	1.693190	1.060013	99
42
Properties=species:S:1:pos:R:3:Z:I:1 energy=-286.8890621580493 field_type=dipole dipole="0.000000 0.000000 0.000000" charge=0
N	-1.967820	0.489302	-0.353461	7
C	-0.514080	0.482712	-0.495311	6
C	0.087390	1.520172	0.478019	6
C	1.155070	0.455122	0.818149	6
C	0.106690	-0.620198	0.414269	6
C	0.635880	-1.780848	-0.274421	6
C	1.073040	-2.745078	-0.838901	6
H	-2.417250	-0.312738	-0.795641	1
H	-2.412160	1.313682	-0.756091	1
H	-0.137360	0.537402	-1.522291	1
H	-0.536670	1.791392	1.338869	1
H	0.469380	2.435762	0.018189	1
H	2.041440	0.505012	0.173519	1
H	1.479320	0.433802	1.862289	1
H	-0.524980	-0.901698	1.269769	1
H	1.462110	-3.603798	-1.336961	1
Es	1.179026	-2.162631	-0.508862	99
Es	-0.514205	0.482682	-0.495234	99
Es	0.694770	-2.171968	-0.857979	99
Es	-0.344080	1.695198	1.060701	99
Es	-2.226741	1.000673	-0.597319	99
Es	1.328072	-3.308033	-1.167469	99
Es	0.348118	2.146456	0.161565	99
Es	-0.312771	-0.806798	0.972593	99
Es	1.379107	0.433815	1.527950	99
Es	-0.247786	0.513753	-1.192306	99
Es	1.073141	-2.745286	-0.839036	99
Es	-0.235714	-0.160015	-0.084110	99
Es	-1.354755	0.487217	-0.473326	99
Es	-2.022114	0.465967	-0.029854	99
Es	1.748420	0.483561	0.371511	99
Es	-2.221935	0.005086	-0.651901	99
Es	-1.967740	0.489299	-0.354063	99
Es	0.679820	-0.175384	0.638152	99
Es	1.154986	0.455100	0.818118	99
Es	0.106776	-0.620249	0.414185	99
Es	0.671259	1.057638	0.689682	99
Es	0.381240	-1.238024	0.056038	99
Es	-0.253738	1.072169	-0.047342	99
Es	0.635792	-1.780647	-0.274303	99
Es	0.087431	1.520118	0.477999	99
Es	0.705972	-2.485052	-0.332090	99
42
Properties=species:S:1:pos:R:3:Z:I:1 energy=-286.8890621580493 field_type=dipole dipole="0.000000 0.000000 0.000000" charge=0
N	-1.967820	0.489302	-0.353461	7
C	-0.514080	0.482712	-0.495311	6
C	0.087390	1.520172	0.478019	6
C	1.155070	0.455122	0.818149	6
C	0.106690	-0.620198	0.414269	6
C	0.635880	-1.780848	-0.274421	6
C	1.073040	-2.745078	-0.838901	6
H	-2.417250	-0.312738	-0.795641	1
H	-2.412160	1.313682	-0.756091	1
H	-0.137360	0.537402	-1.522291	1
H	-0.536670	1.791392	1.338869	1
H	0.469380	2.435762	0.018189	1
H	2.041440	0.505012	0.173519	1
H	1.479320	0.433802	1.862289	1
H	-0.524980	-0.901698	1.269769	1
H	1.462110	-3.603798	-1.336961	1
Es	0.671170	1.058810	0.690731	99
Es	1.001540	-2.062050	-0.812744	99
Es	1.748755	0.483293	0.371942	99
Es	1.036116	-2.361895	-0.275943	99
Es	0.087430	1.520118	0.477998	99
Es	-0.248106	0.513485	-1.192446	99
Es	0.542354	-2.395639	-0.610087	99
Es	-1.967720	0.489292	-0.354066	99
Es	-0.235823	-0.159746	-0.083453	99
Es	-0.514204	0.482683	-0.495230	99
Es	0.678904	-0.176138	0.637640	99
Es	-1.356260	0.487921	-0.473602	99
Es	1.073139	-2.745287	-0.839039	99
Es	-0.312195	-0.806036	0.972899	99
Es	-0.344444	1.697278	1.061043	99
Es	-2.017728	0.462011	-0.037684	99
Es	0.347965	2.144046	0.161792	99
Es	1.378684	0.433095	1.526017	99
Es	1.328056	-3.308163	-1.167705	99
Es	0.381395	-1.238417	0.055708	99
Es	0.635789	-1.780640	-0.274308	99
Es	0.106777	-0.620248	0.414182	99
Es	-2.229733	1.004030	-0.587075	99
Es	1.154982	0.455099	0.818119	99
Es	-2.220417	0.004683	-0.654122	99
Es	-0.254078	1.073059	-0.047271	99
42
Properties=species:S:1:pos:R:3:Z:I:1 energy=-286.8890621580493 field_type=dipole dipole="0.000000 0.000000 0.000000" charge=0
N	-1.967820	0.489302	-0.353461	7
C	-0.514080	0.482712	-0.495311	6
C	0.087390	1.520172	0.478019	6
C	1.155070	0.455122	0.818149	6
C	0.106690	-0.620198	0.414269	6
C	0.635880	-1.780848	-0.274421	6
C	1.073040	-2.745078	-0.838901	6
H	-2.417250	-0.312738	-0.795641	1
H	-2.412160	1.313682	-0.756091	1
H	-0.137360	0.537402	-1.522291	1
H	-0.536670	1.791392	1.338869	1
H	0.469380	2.435762	0.018189	1
H	2.041440	0.505012	0.173519	1
H	1.479320	0.433802	1.862289	1
H	-0.524980	-0.901698	1.269769	1
H	1.462110	-3.603798	-1.336961	1
Es	0.087428	1.520118	0.477998	99
Es	1.154988	0.455101	0.818119	99
Es	1.748671	0.483306	0.372282	99
Es	-2.231883	1.005805	-0.578331	99
Es	0.347725	2.142020	0.162164	99
Es	-2.219311	0.004105	-0.655499	99
Es	-0.312153	-0.805410	0.972893	99
Es	0.671018	1.060230	0.691837	99
Es	0.635790	-1.780641	-0.274306	99
Es	1.328160	-3.308007	-1.168137	99
Es	0.381891	-1.238579	0.055688	99
Es	-0.514205	0.482681	-0.495231	99
Es	1.378588	0.432604	1.524518	99
Es	-2.013815	0.459929	-0.044340	99
Es	1.170984	-2.142894	-0.549862	99
Es	0.744867	-2.481511	-0.306206	99
Es	0.663752	-2.195429	-0.842576	99
Es	-0.235641	-0.159652	-0.082898	99
Es	1.073155	-2.745280	-0.839044	99
Es	-1.357687	0.488537	-0.474377	99
Es	0.106777	-0.620248	0.414182	99
Es	-1.967761	0.489273	-0.354055	99
Es	0.678304	-0.176821	0.637322	99
Es	-0.254443	1.073216	-0.047400	99
Es	-0.248287	0.513205	-1.192685	99
Es	-0.344564	1.698984	1.061242	99
42
Properties=species:S:1:pos:R:3:Z:I:1 energy=-286.8890621580493 field_type=dipole dipole="0.000000 0.000000 0.000000" charge=0
N	-1.967820	0.489302	-0.353461	7
C	-0.514080	0.482712	-0.495311	6
C	0.087390	1.520172	0.478019	6
C	1.155070	0.455122	0.818149	6
C	0.106690	-0.620198	0.414269	6
C	0.635880	-1.780848	-0.274421	6
C	1.073040	-2.745078	-0.838901	6
H	-2.417250	-0.312738	-0.795641	1
H	-2.412160	1.313682	-0.756091	1
H	-0.137360	0.537402	-1.522291	1
H	-0.536670	1.791392	1.338869	1
H	0.469380	2.435762	0.018189	1
H	2.041440	0.505012	0.173519	1
H	1.479320	0.433802	1.862289	1
H	-0.524980	-0.901698	1.269769	1
H	1.462110	-3.603798	-1.336961	1
Es	1.378281	0.432115	1.522610	99
Es	1.073141	-2.745287	-0.839040	99
Es	-2.217399	0.003625	-0.657261	99
Es	-0.248532	0.513026	-1.192810	99
Es	-0.344624	1.701000	1.061198	99
Es	-0.254873	1.073856	-0.047299	99
Es	1.047900	-2.353180	-0.281314	99
Es	0.087431	1.520119	0.477999	99
Es	0.106777	-0.620250	0.414183	99
Es	-0.514207	0.482681	-0.495230	99
Es	0.381783	-1.238902	0.055666	99
Es	0.347379	2.139772	0.162511	99
Es	-2.233783	1.007125	-0.569770	99
Es	0.635784	-1.780638	-0.274313	99
Es	0.980965	-2.062781	-0.825938	99
Es	1.328035	-3.308161	-1.168149	99
Es	0.671259	1.060990	0.693093	99
Es	1.748921	0.482852	0.372259	99
Es	1.154989	0.455102	0.818119	99
Es	-2.011661	0.458175	-0.051954	99
Es	0.551340	-2.403544	-0.591444	99
Es	-1.358746	0.489260	-0.473514	99
Es	-0.311854	-0.804887	0.973271	99
Es	0.677455	-0.177110	0.637111	99
Es	-1.967710	0.489304	-0.354083	99
Es	-0.235702	-0.159620	-0.082600	99
42
Properties=species:S:1:pos:R:3:Z:I:1 energy=-286.8890621580493 field_type=dipole dipole="0.000000 0.000000 0.000000" charge=0
N	-1.967820	0.489302	-0.353461	7
C	-0.514080	0.482712	-0.495311	6
C	0.087390	1.520172	0.478019	6
C	1.155070	0.455122	0.818149	6
C	0.106690	-0.620198	0.414269	6
C	0.635880	-1.780848	-0.274421	6
C	1.073040	-2.745078	-0.838901	6
H	-2.417250	-0.312738	-0.795641	1
H	-2.412160	1.313682	-0.756091	1
H	-0.137360	0.537402	-1.522291	1
H	-0.536670	1.791392	1.338869	1
H	0.469380	2.435762	0.018189	1
H	2.041440	0.505012	0.173519	1
H	1.479320	0.433802	1.862289	1
H	-0.524980	-0.901698	1.269769	1
H	1.462110	-3.603798	-1.336961	1
Es	-1.360471	0.489765	-0.473645	99
Es	-2.008994	0.457263	-0.059024	99
Es	0.553397	-2.397679	-0.599924	99
Es	1.328088	-3.308092	-1.168302	99
Es	0.671260	1.061338	0.693583	99
Es	1.037763	-2.360629	-0.276532	99
Es	-0.248629	0.512970	-1.192839	99
Es	1.073133	-2.745288	-0.839045	99
Es	0.347085	2.138190	0.163028	99
Es	-0.344606	1.702335	1.061094	99
Es	-2.235367	1.007822	-0.561398	99
Es	-0.235790	-0.159490	-0.082347	99
Es	-0.255515	1.074356	-0.047404	99
Es	-0.514203	0.482683	-0.495229	99
Es	1.377976	0.431945	1.521740	99
Es	1.749104	0.482813	0.372467	99
Es	-1.967723	0.489273	-0.354068	99
Es	0.677186	-0.177534	0.636894	99
Es	-0.311554	-0.804663	0.973418	99
Es	-2.215684	0.003126	-0.658543	99
Es	0.635792	-1.780638	-0.274308	99
Es	0.106767	-0.620249	0.414176	99
Es	0.087430	1.520119	0.477999	99
Es	0.989043	-2.061270	-0.822126	99
Es	0.381877	-1.238929	0.055515	99
Es	1.154985	0.455101	0.818118	99
42
Properties=species:S:1:pos:R:3:Z:I:1 energy=-286.8890621580493 field_type=dipole dipole="0.000000 0.000000 0.000000" charge=0
N	-1.967820	0.489302	-0.353461	7
C	-0.514080	0.482712	-0.495311	6
C	0.087390	1.520172	0.478019	6
C	1.155070	0.455122	0.818149	6
C	0.106690	-0.620198	0.414269	6
C	0.635880	-1.780848	-0.274421	6
C	1.073040	-2.745078	-0.838901	6
H	-2.417250	-0.312738	-0.795641	1
H	-2.412160	1.313682	-0.756091	1
H	-0.137360	0.537402	-1.522291	1
H	-0.536670	1.791392	1.338869	1
H	0.469380	2.435762	0.018189	1
H	2.041440	0.505012	0.173519	1
H	1.479320	0.433802	1.862289	1
H	-0.524980	-0.901698	1.269769	1
H	1.462110	-3.603798	-1.336961	1
Es	1.328148	-3.308094	-1.168327	99
Es	0.676679	-0.177976	0.636399	99
Es	0.635788	-1.780641	-0.274305	99
Es	-2.007579	0.456925	-0.064262	99
Es	0.381926	-1.239045	0.055520	99
Es	-0.235451	-0.159389	-0.082131	99
Es	-1.967713	0.489285	-0.354072	99
Es	1.377726	0.431599	1.520392	99
Es	-1.361960	0.490234	-0.473024	99
Es	1.073141	-2.745286	-0.839042	99
Es	0.346901	2.137073	0.163231	99
Es	-0.311665	-0.804131	0.973919	99
Es	1.749186	0.482646	0.372537	99
Es	1.154986	0.455101	0.818118	99
Es	-0.344567	1.703399	1.060961	99
Es	-0.514202	0.482683	-0.495230	99
Es	1.037997	-2.360908	-0.275642	99
Es	-0.256174	1.074646	-0.047314	99
Es	0.087433	1.520119	0.478000	99
Es	0.555076	-2.396842	-0.600263	99
Es	-2.236258	1.008048	-0.555545	99
Es	-0.248642	0.512801	-1.192937	99
Es	-2.213705	0.002553	-0.659832	99
Es	0.987149	-2.061776	-0.822736	99
Es	0.671347	1.061866	0.694702	99
Es	0.106782	-0.620247	0.414183	99
42
Properties=species:S:1:pos:R:3:Z:I:1 energy=-286.8890621580493 field_type=dipole dipole="0.000000 0.000000 0.000000" charge=0
N	-1.967820	0.489302	-0.353461	7
C	-0.514080	0.482712	-0.495311	6
C	0.087390	1.520172	0.478019	6
C	1.155070	0.455122	0.818149	6
C	0.106690	-0.620198	0.414269	6
C	0.635880	-1.780848	-0.274421	6
C	1.073040	-2.745078	-0.838901	6
H	-2.417250	-0.312738	-0.795641	1
H	-2.412160	1.313682	-0.756091	1
H	-0.137360	0.537402	-1.522291	1
H	-0.536670	1.791392	1.338869	1
H	0.469380	2.435762	0.018189	1
H	2.041440	0.505012	0.173519	1
H	1.479320	0.433802	1.862289	1
H	-0.524980	-0.901698	1.269769	1
H	1.462110	-3.603798	-1.336961	1
Es	1.004845	-2.060301	-0.812006	99
Es	-0.514201	0.482682	-0.495228	99
Es	0.559060	-2.382425	-0.621408	99
Es	-0.344437	1.704623	1.060782	99
Es	-2.006150	0.457137	-0.071207	99
Es	0.676482	-0.178040	0.636300	99
Es	0.346490	2.135608	0.163763	99
Es	1.154983	0.455101	0.818118	99
Es	0.087431	1.520118	0.477999	99
Es	-2.213005	0.002104	-0.660063	99
Es	-0.311547	-0.804003	0.973822	99
Es	-1.967729	0.489288	-0.354097	99
Es	0.382083	-1.239030	0.055454	99
Es	-1.362459	0.490409	-0.472792	99
Es	1.073142	-2.745287	-0.839043	99
Es	0.671544	1.062415	0.695225	99
Es	0.106777	-0.620251	0.414182	99
Es	-0.256383	1.074752	-0.047567	99
Es	-0.235589	-0.159350	-0.081942	99
Es	0.635789	-1.780640	-0.274304	99
Es	1.328191	-3.308060	-1.168403	99
Es	1.016243	-2.376899	-0.265108	99
Es	1.377514	0.431435	1.519686	99
Es	1.749249	0.482627	0.372726	99
Es	-0.248680	0.512595	-1.193010	99
Es	-2.237294	1.008030	-0.548577	99
42
Properties=species:S:1:pos:R:3:Z:I:1 energy=-286.8890621580493 field_type=dipole dipole="0.000000 0.000000 0.000000" charge=0
N	-1.967820	0.489302	-0.353461	7
C	-0.514080	0.482712	-0.495311	6
C	0.087390	1.520172	0.478019	6
C	1.155070	0.455122	0.818149	6
C	0.106690	-0.620198	0.414269	6
C	0.635880	-1.780848	-0.274421	6
C	1.073040	-2.745078	-0.838901	6
H	-2.417250	-0.312738	-0.795641	1
H	-2.412160	1.313682	-0.756091	1
H	-0.137360	0.537402	-1.522291	1
H	-0.536670	1.791392	1.338869	1
H	0.469380	2.435762	0.018189	1
H	2.041440	0.505012	0.173519	1
H	1.479320	0.433802	1.862289	1
H	-0.524980	-0.901698	1.269769	1
H	1.462110	-3.603798	-1.336961	1
Es	0.675721	-0.178823	0.635568	99
Es	0.382329	-1.239207	0.055805	99
Es	1.117897	-2.283135	-0.347761	99
Es	-2.209274	0.002143	-0.662471	99
Es	0.635791	-1.780639	-0.274303	99
Es	0.873970	-2.083186	-0.869694	99
Es	-0.514200	0.482685	-0.495227	99
Es	0.346405	2.134797	0.163898	99
Es	1.377548	0.431219	1.519001	99
Es	1.154984	0.455102	0.818118	99
Es	1.749181	0.482452	0.372408	99
Es	-0.248753	0.512702	-1.193226	99
Es	0.087430	1.520120	0.477998	99
Es	0.671400	1.062531	0.695922	99
Es	-1.967716	0.489298	-0.354078	99
Es	-0.344409	1.705413	1.060683	99
Es	0.588053	-2.453088	-0.481592	99
Es	-0.257339	1.074964	-0.047277	99
Es	-0.235476	-0.158969	-0.081910	99
Es	-0.311234	-0.803488	0.974778	99
Es	-2.005936	0.456350	-0.071396	99
Es	1.073135	-2.745290	-0.839041	99
Es	0.106777	-0.620250	0.414182	99
Es	-2.237385	1.008090	-0.547215	99
Es	-1.364956	0.490915	-0.471586	99
Es	1.328406	-3.308064	-1.168282	99
42
Properties=species:S:1:pos:R:3:Z:I:1 energy=-286.8890621580493 field_type=dipole dipole="0.000000 0.000000 0.000000" charge=0
N	-1.967820	0.489302	-0.353461	7
C	-0.514080	0.482712	-0.495311	6
C	0.087390	1.520172	0.478019	6
C	1.155070	0.455122	0.818149	6
C	0.106690	-0.620198	0.414269	6
C	0.635880	-1.780848	-0.274421	6
C	1.073040	-2.745078	-0.838901	6
H	-2.417250	-0.312738	-0.795641	1
H	-2.412160	1.313682	-0.756091	1
H	-0.137360	0.537402	-1.522291	1
H	-0.536670	1.791392	1.338869	1
H	0.469380	2.435762	0.018189	1
H	2.041440	0.505012	0.173519	1
H	1.479320	0.433802	1.862289	1
H	-0.524980	-0.901698	1.269769	1
H	1.462110	-3.603798	-1.336961	1
Es	-0.257524	1.075035	-0.047559	99
Es	0.106778	-0.620249	0.414183	99
Es	-2.005312	0.456534	-0.076942	99
Es	1.328469	-3.307911	-1.168503	99
Es	0.635790	-1.780640	-0.274305	99
Es	1.073142	-2.745288	-0.839042	99
Es	0.675921	-0.178803	0.635596	99
Es	-1.365542	0.490926	-0.471142	99
Es	-0.248755	0.512470	-1.193229	99
Es	0.671643	1.062878	0.695951	99
Es	-0.235770	-0.158856	-0.081740	99
Es	1.749079	0.482626	0.372758	99
Es	1.377471	0.431173	1.518892	99
Es	0.382486	-1.239192	0.055820	99
Es	-0.311013	-0.803600	0.974337	99
Es	-0.514198	0.482683	-0.495225	99
Es	-2.208668	0.002084	-0.663094	99
Es	-2.237876	1.007856	-0.541495	99
Es	0.345989	2.133424	0.164470	99
Es	1.154987	0.455103	0.818119	99
Es	1.153876	-2.210444	-0.447642	99
Es	0.087432	1.520121	0.477998	99
Es	-0.344067	1.706612	1.060436	99
Es	0.765942	-2.126910	-0.877386	99
Es	0.659782	-2.482282	-0.373875	99
Es	-1.967712	0.489294	-0.354081	99
42
Properties=species:S:1:pos:R:3:Z:I:1 energy=-286.8890621580493 field_type=dipole dipole="0.000000 0.000000 0.000000" charge=0
N	-1.967820	0.489302	-0.353461	7
C	-0.514080	0.482712	-0.495311	6
C	0.087390	1.520172	0.478019	6
C	1.155070	0.455122	0.818149	6
C	0.106690	-0.620198	0.414269	6
C	0.635880	-1.780848	-0.274421	6
C	1.073040	-2.745078	-0.838901	6
H	-2.417250	-0.312738	-0.795641	1
H	-2.412160	1.313682	-0.756091	1
H	-0.137360	0.537402	-1.522291	1
H	-0.536670	1.791392	1.338869	1
H	0.469380	2.435762	0.018189	1
H	2.041440	0.505012	0.173519	1
H	1.479320	0.433802	1.862289	1
H	-0.524980	-0.901698	1.269769	1
H	1.462110	-3.603798	-1.336961	1
Es	0.611168	-2.467337	-0.439057	99
Es	-2.238156	1.007787	-0.540034	99
Es	-2.004012	0.456617	-0.077617	99
Es	0.675264	-0.179932	0.634860	99
Es	0.671661	1.062927	0.696541	99
Es	0.087427	1.520119	0.477999	99
Es	0.382458	-1.239267	0.055832	99
Es	-0.258226	1.075372	-0.047335	99
Es	0.345809	2.132708	0.164553	99
Es	1.136285	-2.254724	-0.383204	99
Es	1.377308	0.431049	1.518081	99
Es	1.328528	-3.308015	-1.168323	99
Es	0.635790	-1.780642	-0.274301	99
Es	-0.235629	-0.158155	-0.081642	99
Es	0.832274	-2.097418	-0.876808	99
Es	0.106779	-0.620250	0.414183	99
Es	-0.310801	-0.803048	0.975230	99
Es	1.073145	-2.745287	-0.839042	99
Es	-0.248759	0.512263	-1.193437	99
Es	1.154986	0.455100	0.818118	99
Es	-0.344127	1.707327	1.060233	99
Es	-1.967712	0.489288	-0.354051	99
Es	-1.366923	0.491187	-0.471531	99
Es	-0.514203	0.482682	-0.495231	99
Es	1.749104	0.482529	0.372786	99
Es	-2.207088	0.001762	-0.663503	99
42
Properties=species:S:1:pos:R:3:Z:I:1 energy=-286.8890621580493 field_type=dipole dipole="0.000000 0.000000 0.000000" charge=0
N	-1.967820	0.489302	-0.353461	7
C	-0.514080	0.482712	-0.495311	6
C	0.087390	1.520172	0.478019	6
C	1.155070	0.455122	0.818149	6
C	0.106690	-0.620198	0.414269	6
C	0.635880	-1.780848	-0.274421	6
C	1.073040	-2.745078	-0.838901	6
H	-2.417250	-0.312738	-0.795641	1
H	-2.412160	1.313682	-0.756091	1
H	-0.137360	0.537402	-1.522291	1
H	-0.536670	1.791392	1.338869	1
H	0.469380	2.435762	0.018189	1
H	2.041440	0.505012	0.173519	1
H	1.479320	0.433802	1.862289	1
H	-0.524980	-0.901698	1.269769	1
H	1.462110	-3.603798	-1.336961	1
Es	1.073143	-2.745287	-0.839042	99
Es	0.671498	1.063577	0.697859	99
Es	1.328382	-3.307839	-1.168732	99
Es	1.151355	-2.138550	-0.575106	99
Es	-0.248947	0.512542	-1.193178	99
Es	0.635790	-1.780638	-0.274305	99
Es	1.154982	0.455101	0.818116	99
Es	-0.514202	0.482683	-0.495227	99
Es	-0.235100	-0.159065	-0.081628	99
Es	0.346219	2.133832	0.164140	99
Es	0.653117	-2.203556	-0.836897	99
Es	-1.967719	0.489298	-0.353973	99
Es	0.382615	-1.238874	0.055263	99
Es	1.376912	0.431029	1.516581	99
Es	-2.238590	1.007304	-0.533740	99
Es	-2.206921	0.001323	-0.663496	99
Es	-0.258232	1.074986	-0.047390	99
Es	0.106777	-0.620251	0.414182	99
Es	1.749292	0.482747	0.373028	99
Es	-0.311272	-0.802981	0.975153	99
Es	0.775170	-2.477882	-0.286297	99
Es	0.087428	1.520119	0.477998	99
Es	-0.344330	1.706298	1.060582	99
Es	0.675346	-0.179911	0.634955	99
Es	-2.003529	0.457484	-0.084518	99
Es	-1.366834	0.491152	-0.471027	99
42
Properties=species:S:1:pos:R:3:Z:I:1 energy=-286.8890621580493 field_type=dipole dipole="0.000000 0.000000 0.000000" charge=0
N	-1.967820	0.489302	-0.353461	7
C	-0.514080	0.482712	-0.495311	6
C	0.087390	1.520172	0.478019	6
C	1.155070	0.455122	0.818149	6
C	0.106690	-0.620198	0.414269	6
C	0.635880	-1.780848	-0.274421	6
C	1.073040	-2.745078	-0.838901	6
H	-2.417250	-0.312738	-0.795641	1
H	-2.412160	1.313682	-0.756091	1
H	-0.137360	0.537402	-1.522291	1
H	-0.536670	1.791392	1.338869	1
H	0.469380	2.435762	0.018189	1
H	2.041440	0.505012	0.173519	1
H	1.479320	0.433802	1.862289	1
H	-0.524980	-0.901698	1.269769	1
H	1.462110	-3.603798	-1.336961	1
Es	-2.238871	1.007223	-0.532432	99
Es	-0.514198	0.482683	-0.495226	99
Es	-1.368749	0.491262	-0.469735	99
Es	0.675191	-0.180166	0.634854	99
Es	-0.235725	-0.158300	-0.081811	99
Es	0.955820	-2.413145	-0.250773	99
Es	0.087431	1.520119	0.478000	99
Es	0.106779	-0.620251	0.414181	99
Es	-0.258783	1.075772	-0.047499	99
Es	1.059250	-2.064777	-0.765305	99
Es	0.565140	-2.341841	-0.682162	99
Es	1.749077	0.482525	0.373022	99
Es	-1.967720	0.489297	-0.354037	99
Es	0.345377	2.131195	0.165152	99
Es	0.672071	1.063212	0.697588	99
Es	1.328324	-3.307963	-1.168583	99
Es	-0.310330	-0.803028	0.975013	99
Es	1.154986	0.455102	0.818118	99
Es	-2.003809	0.457434	-0.086034	99
Es	0.635788	-1.780639	-0.274307	99
Es	-0.343885	1.708704	1.059799	99
Es	-2.204195	0.001279	-0.664545	99
Es	-0.249001	0.512546	-1.193117	99
Es	0.382217	-1.239141	0.055344	99
Es	1.073131	-2.745296	-0.839032	99
Es	1.377031	0.430836	1.516827	99
42
Properties=species:S:1:pos:R:3:Z:I:1 energy=-286.8890621580493 field_type=dipole dipole="0.000000 0.000000 0.000000" charge=0
N	-1.967820	0.489302	-0.353461	7
C	-0.514080	0.482712	-0.495311	6
C	0.087390	1.520172	0.478019	6
C	1.155070	0.455122	0.818149	6
C	0.106690	-0.620198	0.414269	6
C	0.635880	-1.780848	-0.274421	6
C	1.073040	-2.745078	-0.838901	6
H	-2.417250	-0.312738	-0.795641	1
H	-2.412160	1.313682	-0.756091	1
H	-0.137360	0.537402	-1.522291	1
H	-0.536670	1.791392	1.338869	1
H	0.469380	2.435762	0.018189	1
H	2.041440	0.505012	0.173519	1
H	1.479320	0.433802	1.862289	1
H	-0.524980	-0.901698	1.269769	1
H	1.462110	-3.603798	-1.336961	1
Es	0.671836	1.063299	0.698294	99
Es	0.345667	2.131884	0.164791	99
Es	0.635787	-1.780639	-0.274308	99
Es	0.106778	-0.620251	0.414183	99
Es	1.328588	-3.308036	-1.168285	99
Es	-0.514200	0.482682	-0.495225	99
Es	0.674257	-0.181094	0.634062	99
Es	0.590998	-2.451827	-0.481926	99
Es	-2.238978	1.007039	-0.531000	99
Es	1.376706	0.430765	1.516008	99
Es	-0.234873	-0.157988	-0.081697	99
Es	1.116294	-2.284504	-0.346596	99
Es	-1.967733	0.489284	-0.354099	99
Es	1.749441	0.482391	0.372812	99
Es	1.073142	-2.745288	-0.839040	99
Es	-0.344119	1.708087	1.060064	99
Es	0.872507	-2.083089	-0.870584	99
Es	-2.003236	0.457272	-0.086516	99
Es	0.382533	-1.239219	0.055694	99
Es	-1.369760	0.491415	-0.469691	99
Es	-0.310724	-0.802387	0.976284	99
Es	-0.248957	0.512489	-1.193327	99
Es	-0.259418	1.075724	-0.047264	99
Es	0.087430	1.520121	0.477997	99
Es	1.154981	0.455101	0.818116	99
Es	-2.202600	0.001409	-0.665446	99
42
Properties=species:S:1:pos:R:3:Z:I:1 energy=-286.8890621580493 field_type=dipole dipole="0.000000 0.000000 0.000000" charge=0
N	-1.967820	0.489302	-0.353461	7
C	-0.514080	0.482712	-0.495311	6
C	0.087390	1.520172	0.478019	6
C	1.155070	0.455122	0.818149	6
C	0.106690	-0.620198	0.414269	6
C	0.635880	-1.780848	-0.274421	6
C	1.073040	-2.745078	-0.838901	6
H	-2.417250	-0.312738	-0.795641	1
H	-2.412160	1.313682	-0.756091	1
H	-0.137360	0.537402	-1.522291	1
H	-0.536670	1.791392	1.338869	1
H	0.469380	2.435762	0.018189	1
H	2.041440	0.505012	0.173519	1
H	1.479320	0.433802	1.862289	1
H	-0.524980	-0.901698	1.269769	1
H	1.462110	-3.603798	-1.336961	1
Es	1.328375	-3.307991	-1.168520	99
Es	1.073138	-2.745289	-0.839041	99
Es	-1.967733	0.489306	-0.353885	99
Es	-2.002654	0.458631	-0.093924	99
Es	0.106779	-0.620251	0.414183	99
Es	-0.343771	1.709395	1.059631	99
Es	-1.368592	0.491351	-0.470084	99
Es	-2.239610	1.006194	-0.524602	99
Es	0.675073	-0.180038	0.635100	99
Es	-0.249032	0.512542	-1.193056	99
Es	0.345150	2.130399	0.165466	99
Es	0.635788	-1.780640	-0.274306	99
Es	1.154984	0.455102	0.818117	99
Es	1.001510	-2.386942	-0.259130	99
Es	1.011539	-2.059780	-0.807644	99
Es	0.672213	1.063256	0.698278	99
Es	0.087429	1.520119	0.478000	99
Es	-0.235557	-0.158542	-0.081706	99
Es	-2.204337	0.000935	-0.664280	99
Es	0.567133	-2.372930	-0.631665	99
Es	-0.259111	1.076023	-0.047512	99
Es	-0.514200	0.482682	-0.495226	99
Es	-0.310468	-0.802947	0.974947	99
Es	1.749360	0.482443	0.372954	99
Es	0.382224	-1.239206	0.055381	99
Es	1.376718	0.430820	1.515824	99
42
Properties=species:S:1:pos:R:3:Z:I:1 energy=-286.8890621580493 field_type=dipole dipole="0.000000 0.000000 0.000000" charge=0
N	-1.967820	0.489302	-0.353461	7
C	-0.514080	0.482712	-0.495311	6
C	0.087390	1.520172	0.478019	6
C	1.155070	0.455122	0.818149	6
C	0.106690	-0.620198	0.414269	6
C	0.635880	-1.780848	-0.274421	6
C	1.073040	-2.745078	-0.838901	6
H	-2.417250	-0.312738	-0.795641	1
H	-2.412160	1.313682	-0.756091	1
H	-0.137360	0.537402	-1.522291	1
H	-0.536670	1.791392	1.338869	1
H	0.469380	2.435762	0.018189	1
H	2.041440	0.505012	0.173519	1
H	1.479320	0.433802	1.862289	1
H	-0.524980	-0.901698	1.269769	1
H	1.462110	-3.603798	-1.336961	1
Es	-0.234920	-0.158181	-0.081600	99
Es	-2.001856	0.458601	-0.091224	99
Es	0.106784	-0.620251	0.414186	99
Es	-1.967735	0.489275	-0.354091	99
Es	0.382662	-1.238906	0.055198	99
Es	-2.239173	1.006625	-0.526678	99
Es	-0.343985	1.708459	1.060042	99
Es	-1.370419	0.491353	-0.469964	99
Es	0.671895	1.063860	0.699352	99
Es	-0.310761	-0.802357	0.975953	99
Es	-0.249104	0.512388	-1.193276	99
Es	-0.514201	0.482683	-0.495228	99
Es	0.802736	-2.472007	-0.273608	99
Es	1.145077	-2.122820	-0.606487	99
Es	1.328558	-3.307787	-1.168734	99
Es	0.635789	-1.780639	-0.274306	99
Es	0.345657	2.131547	0.164849	99
Es	0.087428	1.520119	0.478000	99
Es	1.749265	0.482628	0.373148	99
Es	1.376522	0.430763	1.514726	99
Es	0.631774	-2.225246	-0.818097	99
Es	1.154982	0.455102	0.818117	99
Es	0.674400	-0.181388	0.634186	99
Es	1.073144	-2.745286	-0.839043	99
Es	-0.259918	1.075626	-0.047383	99
Es	-2.202249	0.000482	-0.664739	99
42
Properties=species:S:1:pos:R:3:Z:I:1 energy=-286.8890621580493 field_type=dipole dipole="0.000000 0.000000 0.000000" charge=0
N	-1.967820	0.489302	-0.353461	7
C	-0.514080	0.482712	-0.495311	6
C	0.087390	1.520172	0.478019	6
C	1.155070	0.455122	0.818149	6
C	0.106690	-0.620198	0.414269	6
C	0.635880	-1.780848	-0.274421	6
C	1.073040	-2.745078	-0.838901	6
H	-2.417250	-0.312738	-0.795641	1
H	-2.412160	1.313682	-0.756091	1
H	-0.137360	0.537402	-1.522291	1
H	-0.536670	1.791392	1.338869	1
H	0.469380	2.435762	0.018189	1
H	2.041440	0.505012	0.173519	1
H	1.479320	0.433802	1.862289	1
H	-0.524980	-0.901698	1.269769	1
H	1.462110	-3.603798	-1.336961	1
Es	1.328420	-3.308016	-1.168464	99
Es	0.674721	-0.180577	0.634845	99
Es	-0.235254	-0.158239	-0.081567	99
Es	0.998366	-2.059863	-0.816946	99
Es	-1.967719	0.489282	-0.354094	99
Es	0.344994	2.129911	0.165619	99
Es	-1.369819	0.491387	-0.469234	99
Es	-0.514202	0.482682	-0.495229	99
Es	-0.310497	-0.802658	0.975317	99
Es	1.073141	-2.745288	-0.839040	99
Es	-0.343770	1.709840	1.059473	99
Es	1.376370	0.430713	1.514689	99
Es	0.106779	-0.620251	0.414182	99
Es	1.014015	-2.378624	-0.263537	99
Es	1.154986	0.455103	0.818117	99
Es	-0.259463	1.076011	-0.047544	99
Es	1.749495	0.482351	0.373044	99
Es	-2.202479	0.000708	-0.664902	99
Es	0.635788	-1.780643	-0.274299	99
Es	-0.249047	0.512430	-1.193164	99
Es	0.672360	1.063618	0.699259	99
Es	0.087429	1.520119	0.477999	99
Es	0.382182	-1.239204	0.055294	99
Es	-2.239786	1.005737	-0.521124	99
Es	0.567828	-2.381117	-0.618015	99
Es	-2.002489	0.459232	-0.097377	99
42
Properties=species:S:1:pos:R:3:Z:I:1 energy=-286.8890621580493 field_type=dipole dipole="0.000000 0.000000 0.000000" charge=0
N	-1.967820	0.489302	-0.353461	7
C	-0.514080	0.482712	-0.495311	6
C	0.087390	1.520172	0.478019	6
C	1.155070	0.455122	0.818149	6
C	0.106690	-0.620198	0.414269	6
C	0.635880	-1.780848	-0.274421	6
C	1.073040	-2.745078	-0.838901	6
H	-2.417250	-0.312738	-0.795641	1
H	-2.412160	1.313682	-0.756091	1
H	-0.137360	0.537402	-1.522291	1
H	-0.536670	1.791392	1.338869	1
H	0.469380	2.435762	0.018189	1
H	2.041440	0.505012	0.173519	1
H	1.479320	0.433802	1.862289	1
H	-0.524980	-0.901698	1.269769	1
H	1.462110	-3.603798	-1.336961	1
Es	-2.239438	1.006349	-0.524706	99
Es	-0.248988	0.512407	-1.193355	99
Es	0.601779	-2.459301	-0.460757	99
Es	1.154986	0.455103	0.818117	99
Es	1.376491	0.430710	1.514702	99
Es	-0.343752	1.709963	1.059515	99
Es	-2.198918	0.001104	-0.666575	99
Es	-2.002162	0.458054	-0.092697	99
Es	0.087428	1.520119	0.478000	99
Es	-0.260674	1.076073	-0.047400	99
Es	0.382632	-1.239274	0.055718	99
Es	1.073146	-2.745288	-0.839038	99
Es	0.635789	-1.780640	-0.274303	99
Es	0.673814	-0.181169	0.634248	99
Es	0.106779	-0.620251	0.414182	99
Es	1.125067	-2.270947	-0.363590	99
Es	0.345049	2.129821	0.165586	99
Es	0.672134	1.063638	0.699264	99
Es	-0.514200	0.482683	-0.495226	99
Es	-1.372551	0.491407	-0.468885	99
Es	-1.967738	0.489307	-0.353876	99
Es	1.749479	0.482029	0.372628	99
Es	-0.310459	-0.802127	0.976353	99
Es	0.852876	-2.089180	-0.874797	99
Es	1.328717	-3.308016	-1.168259	99
Es	-0.234936	-0.157931	-0.081550	99
42
Properties=species:S:1:pos:R:3:Z:I:1 energy=-286.8890621580493 field_type=dipole dipole="0.000000 0.000000 0.000000" charge=0
N	-1.967820	0.489302	-0.353461	7
C	-0.514080	0.482712	-0.495311	6
C	0.087390	1.520172	0.478019	6
C	1.155070	0.455122	0.818149	6
C	0.106690	-0.620198	0.414269	6
C	0.635880	-1.780848	-0.274421	6
C	1.073040	-2.745078	-0.838901	6
H	-2.417250	-0.312738	-0.795641	1
H	-2.412160	1.313682	-0.756091	1
H	-0.137360	0.537402	-1.522291	1
H	-0.536670	1.791392	1.338869	1
H	0.469380	2.435762	0.018189	1
H	2.041440	0.505012	0.173519	1
H	1.479320	0.433802	1.862289	1
H	-0.524980	-0.901698	1.269769	1
H	1.462110	-3.603798	-1.336961	1
Es	0.672289	1.063736	0.698800	99
Es	1.154984	0.455102	0.818118	99
Es	0.635788	-1.780641	-0.274304	99
Es	-0.309984	-0.802230	0.976187	99
Es	-0.235392	-0.157521	-0.081551	99
Es	0.828688	-2.097526	-0.878637	99
Es	-2.239512	1.006040	-0.522402	99
Es	0.106778	-0.620250	0.414182	99
Es	-0.514202	0.482682	-0.495228	99
Es	-2.199020	0.001237	-0.666778	99
Es	1.073143	-2.745289	-0.839039	99
Es	0.344547	2.128565	0.166182	99
Es	0.617786	-2.468935	-0.431257	99
Es	-0.343409	1.711041	1.059183	99
Es	-0.260505	1.076134	-0.047600	99
Es	-1.372416	0.491392	-0.468610	99
Es	0.382597	-1.239357	0.055827	99
Es	1.133309	-2.252990	-0.389169	99
Es	-2.002288	0.458296	-0.094870	99
Es	1.376565	0.430626	1.515256	99
Es	-0.249043	0.512253	-1.193398	99
Es	1.749307	0.482334	0.372979	99
Es	0.673993	-0.181466	0.633856	99
Es	0.087429	1.520119	0.477998	99
Es	-1.967717	0.489289	-0.354070	99
Es	1.328634	-3.307999	-1.168354	99
42
Properties=species:S:1:pos:R:3:Z:I:1 energy=-286.8890621580493 field_type=dipole dipole="0.000000 0.000000 0.000000" charge=0
N	-1.967820	0.489302	-0.353461	7
C	-0.514080	0.482712	-0.495311	6
C	0.087390	1.520172	0.478019	6
C	1.155070	0.455122	0.818149	6
C	0.106690	-0.620198	0.414269	6
C	0.635880	-1.780848	-0.274421	6
C	1.073040	-2.745078	-0.838901	6
H	-2.417250	-0.312738	-0.795641	1
H	-2.412160	1.313682	-0.756091	1
H	-0.137360	0.537402	-1.522291	1
H	-0.536670	1.791392	1.338869	1
H	0.469380	2.435762	0.018189	1
H	2.041440	0.505012	0.173519	1
H	1.479320	0.433802	1.862289	1
H	-0.524980	-0.901698	1.269769	1
H	1.462110	-3.603798	-1.336961	1
Es	-2.200870	0.000677	-0.665517	99
Es	-1.967695	0.489279	-0.354062	99
Es	1.328486	-3.307994	-1.168471	99
Es	0.635788	-1.780641	-0.274303	99
Es	-0.249086	0.512452	-1.193016	99
Es	-0.235174	-0.158372	-0.081634	99
Es	1.749474	0.482550	0.373259	99
Es	1.010489	-2.381100	-0.261974	99
Es	-0.343442	1.711213	1.058993	99
Es	-2.002524	0.460011	-0.102775	99
Es	0.997692	-2.059262	-0.818122	99
Es	1.376138	0.430589	1.513830	99
Es	0.087434	1.520124	0.477995	99
Es	0.571971	-2.379289	-0.618358	99
Es	0.674620	-0.180895	0.634334	99
Es	-1.370834	0.491387	-0.468420	99
Es	0.672533	1.063742	0.700095	99
Es	0.382242	-1.239198	0.055287	99
Es	1.154983	0.455102	0.818116	99
Es	-2.240105	1.004941	-0.516003	99
Es	-0.514201	0.482682	-0.495227	99
Es	-0.259708	1.076113	-0.047580	99
Es	0.344605	2.128516	0.166121	99
Es	1.073143	-2.745287	-0.839042	99
Es	-0.310394	-0.802449	0.975588	99
Es	0.106786	-0.620250	0.414186	99
42
Properties=species:S:1:pos:R:3:Z:I:1 energy=-286.8890621580493 field_type=dipole dipole="0.000000 0.000000 0.000000" charge=0
N	-1.967820	0.489302	-0.353461	7
C	-0.514080	0.482712	-0.495311	6
C	0.087390	1.520172	0.478019	6
C	1.155070	0.455122	0.818149	6
C	0.106690	-0.620198	0.414269	6
C	0.635880	-1.780848	-0.274421	6
C	1.073040	-2.745078	-0.838901	6
H	-2.417250	-0.312738	-0.795641	1
H	-2.412160	1.313682	-0.756091	1
H	-0.137360	0.537402	-1.522291	1
H	-0.536670	1.791392	1.338869	1
H	0.469380	2.435762	0.018189	1
H	2.041440	0.505012	0.173519	1
H	1.479320	0.433802	1.862289	1
H	-0.524980	-0.901698	1.269769	1
H	1.462110	-3.603798	-1.336961	1
Es	-0.260232	1.076219	-0.047486	99
Es	-1.967715	0.489302	-0.354066	99
Es	0.674332	-0.180863	0.634542	99
Es	0.672648	1.063797	0.700137	99
Es	1.011309	-2.380483	-0.262399	99
Es	0.635788	-1.780641	-0.274303	99
Es	1.328526	-3.308008	-1.168422	99
Es	-0.310311	-0.802464	0.975591	99
Es	-2.199413	0.000340	-0.665643	99
Es	1.073141	-2.745285	-0.839045	99
Es	1.154979	0.455101	0.818115	99
Es	1.376075	0.430591	1.513672	99
Es	0.106780	-0.620251	0.414183	99
Es	0.569073	-2.379308	-0.620160	99
Es	-2.240194	1.004870	-0.515614	99
Es	-0.514200	0.482682	-0.495226	99
Es	-2.001958	0.460279	-0.103105	99
Es	0.382283	-1.239212	0.055322	99
Es	0.344568	2.128596	0.166057	99
Es	1.749578	0.482302	0.373103	99
Es	-0.235289	-0.158212	-0.081579	99
Es	-0.343522	1.711104	1.059040	99
Es	0.087427	1.520119	0.477999	99
Es	0.999818	-2.059803	-0.815957	99
Es	-1.372081	0.491449	-0.468342	99
Es	-0.249062	0.512420	-1.193111	99
42
Properties=species:S:1:pos:R:3:Z:I:1 energy=-286.8890621580493 field_type=dipole dipole="0.000000 0.000000 0.000000" charge=0
N	-1.967820	0.489302	-0.353461	7
C	-0.514080	0.482712	-0.495311	6
C	0.087390	1.520172	0.478019	6
C	1.155070	0.455122	0.818149	6
C	0.106690	-0.620198	0.414269	6
C	0.635880	-1.780848	-0.274421	6
C	1.073040	-2.745078	-0.838901	6
H	-2.417250	-0.312738	-0.795641	1
H	-2.412160	1.313682	-0.756091	1
H	-0.137360	0.537402	-1.522291	1
H	-0.536670	1.791392	1.338869	1
H	0.469380	2.435762	0.018189	1
H	2.041440	0.505012	0.173519	1
H	1.479320	0.433802	1.862289	1
H	-0.524980	-0.901698	1.269769	1
H	1.462110	-3.603798	-1.336961	1
Es	1.328440	-3.307979	-1.168541	99
Es	1.154983	0.455102	0.818116	99
Es	1.749465	0.482412	0.373262	99
Es	-0.343370	1.711694	1.058842	99
Es	0.566525	-2.373922	-0.630427	99
Es	0.674114	-0.181615	0.634220	99
Es	-0.514199	0.482683	-0.495226	99
Es	1.073142	-2.745288	-0.839042	99
Es	1.376036	0.430556	1.513393	99
Es	-2.198060	0.000540	-0.666326	99
Es	-2.002370	0.459994	-0.102468	99
Es	0.106778	-0.620251	0.414182	99
Es	-2.239959	1.005097	-0.516281	99
Es	-0.249120	0.512474	-1.193065	99
Es	0.672696	1.063738	0.700330	99
Es	0.635787	-1.780640	-0.274305	99
Es	0.087434	1.520119	0.478001	99
Es	0.382229	-1.239273	0.055334	99
Es	-0.234913	-0.157854	-0.081693	99
Es	1.011129	-2.059862	-0.807762	99
Es	0.344413	2.127961	0.166364	99
Es	-1.372953	0.491290	-0.467627	99
Es	-0.260550	1.076422	-0.047517	99
Es	1.002670	-2.385844	-0.260173	99
Es	-1.967710	0.489282	-0.354090	99
Es	-0.310287	-0.802195	0.975800	99
