47
Properties=species:S:1:pos:R:3:Z:I:1 energy=-305.286200939358 field_type=dipole dipole="0.000000 0.000000 0.000000" charge=0
N	-0.874797	-2.130314	-1.467269	7
C	-0.690257	-1.653794	-0.101079	6
C	0.156103	-0.389404	-0.091279	6
C	-0.497837	0.911206	-0.635619	6
C	0.091173	1.676436	0.565481	6
N	1.401263	2.217896	0.202771	7
C	0.275513	0.324326	1.282571	6
H	-1.437387	-2.980144	-1.455099	1
H	0.026593	-2.394504	-1.862989	1
H	-0.202447	-2.436203	0.490721	1
H	-1.672717	-1.467594	0.346431	1
H	1.146373	-0.572544	-0.534309	1
H	-1.595147	0.891966	-0.626569	1
H	-0.174757	1.221287	-1.634679	1
H	-0.574677	2.393527	1.051541	1
H	2.004773	1.586316	-0.321409	1
H	1.948013	2.539056	0.999811	1
H	1.217043	0.164836	1.817921	1
H	-0.546827	0.097646	1.973051	1
Es	-1.202765	-2.654641	-1.444685	99
Es	-1.245374	0.890302	-0.615165	99
Es	-0.347343	-2.192127	0.318765	99
Es	-1.364958	-1.522086	0.206246	99
Es	-0.272623	1.128453	-1.314402	99
Es	-0.297116	0.161297	1.746906	99
Es	1.401357	2.217408	0.203134	99
Es	-1.027723	-1.884716	-1.669450	99
Es	-0.690261	-1.653835	-0.101222	99
Es	-0.193224	0.217474	-0.438560	99
Es	0.925947	0.221260	1.652587	99
Es	-0.267275	-1.025157	-0.099524	99
Es	-0.497816	0.911180	-0.635567	99
Es	-0.228818	1.368552	-0.070348	99
Es	-0.355827	2.178822	0.903345	99
Es	0.156088	-0.389374	-0.091250	99
Es	0.836938	-0.516259	-0.398769	99
Es	0.855336	1.962606	0.378223	99
Es	0.192964	1.027593	1.011380	99
Es	-0.783919	-1.947772	-0.871511	99
Es	-0.874540	-2.130716	-1.466938	99
Es	-0.321614	-2.302063	-1.686805	99
Es	1.725204	2.382658	0.703137	99
Es	0.242315	-0.109176	0.636932	99
Es	0.091318	1.676440	0.565432	99
Es	1.356702	2.493325	-0.002015	99
Es	1.750620	1.804502	-0.089329	99
Es	0.275502	0.324296	1.282538	99
47
Properties=species:S:1:pos:R:3:Z:I:1 energy=-305.286200939358 field_type=dipole dipole="0.000000 0.000000 0.000000" charge=0
N	-0.874797	-2.130314	-1.467269	7
C	-0.690257	-1.653794	-0.101079	6
C	0.156103	-0.389404	-0.091279	6
C	-0.497837	0.911206	-0.635619	6
C	0.091173	1.676436	0.565481	6
N	1.401263	2.217896	0.202771	7
C	0.275513	0.324326	1.282571	6
H	-1.437387	-2.980144	-1.455099	1
H	0.026593	-2.394504	-1.862989	1
H	-0.202447	-2.436203	0.490721	1
H	-1.672717	-1.467594	0.346431	1
H	1.146373	-0.572544	-0.534309	1
H	-1.595147	0.891966	-0.626569	1
H	-0.174757	1.221287	-1.634679	1
H	-0.574677	2.393527	1.051541	1
H	2.004773	1.586316	-0.321409	1
H	1.948013	2.539056	0.999811	1
H	1.217043	0.164836	1.817921	1
H	-0.546827	0.097646	1.973051	1
Es	-0.228606	1.368008	-0.070589	99
Es	-1.246025	0.890392	-0.614973	99
Es	-1.202705	-2.653443	-1.444791	99
Es	0.853754	1.963839	0.377235	99
Es	1.724717	2.381935	0.703098	99
Es	0.091320	1.676437	0.565434	99
Es	1.358219	2.492505	0.000518	99
Es	0.193243	1.027000	1.010963	99
Es	1.401361	2.217424	0.203123	99
Es	0.837778	-0.516740	-0.399233	99
Es	-0.320554	-2.302511	-1.687544	99
Es	-0.267251	-1.025026	-0.099478	99
Es	-0.690262	-1.653836	-0.101224	99
Es	0.275493	0.324296	1.282535	99
Es	-0.784127	-1.948540	-0.871531	99
Es	-1.365574	-1.521663	0.206704	99
Es	-0.356158	2.178962	0.903499	99
Es	-1.028331	-1.884604	-1.668650	99
Es	-0.272228	1.128491	-1.314358	99
Es	-0.346877	-2.191841	0.318554	99
Es	-0.874539	-2.130716	-1.466934	99
Es	0.156088	-0.389371	-0.091250	99
Es	0.926382	0.221265	1.652522	99
Es	-0.193422	0.217524	-0.438080	99
Es	0.241675	-0.108927	0.636928	99
Es	-0.497816	0.911180	-0.635566	99
Es	1.751309	1.804656	-0.090917	99
Es	-0.297765	0.161551	1.747088	99
47
Properties=species:S:1:pos:R:3:Z:I:1 energy=-305.286200939358 field_type=dipole dipole="0.000000 0.000000 0.000000" charge=0
N	-0.874797	-2.130314	-1.467269	7
C	-0.690257	-1.653794	-0.101079	6
C	0.156103	-0.389404	-0.091279	6
C	-0.497837	0.911206	-0.635619	6
C	0.091173	1.676436	0.565481	6
N	1.401263	2.217896	0.202771	7
C	0.275513	0.324326	1.282571	6
H	-1.437387	-2.980144	-1.455099	1
H	0.026593	-2.394504	-1.862989	1
H	-0.202447	-2.436203	0.490721	1
H	-1.672717	-1.467594	0.346431	1
H	1.146373	-0.572544	-0.534309	1
H	-1.595147	0.891966	-0.626569	1
H	-0.174757	1.221287	-1.634679	1
H	-0.574677	2.393527	1.051541	1
H	2.004773	1.586316	-0.321409	1
H	1.948013	2.539056	0.999811	1
H	1.217043	0.164836	1.817921	1
H	-0.546827	0.097646	1.973051	1
Es	-0.346505	-2.191704	0.318400	99
Es	1.401330	2.217511	0.203060	99
Es	1.724505	2.381085	0.702967	99
Es	-1.365969	-1.521397	0.206992	99
Es	-0.784259	-1.948404	-0.871431	99
Es	-1.246575	0.890401	-0.614793	99
Es	-0.356440	2.179088	0.903589	99
Es	-0.298192	0.161605	1.747267	99
Es	0.853173	1.964257	0.376929	99
Es	1.358752	2.492486	0.002153	99
Es	0.156088	-0.389373	-0.091251	99
Es	-0.874537	-2.130723	-1.466934	99
Es	-0.193568	0.217705	-0.437988	99
Es	-0.690260	-1.653837	-0.101223	99
Es	-0.319846	-2.302449	-1.688753	99
Es	0.193371	1.026539	1.010749	99
Es	-0.497817	0.911179	-0.635567	99
Es	-1.029539	-1.885402	-1.668068	99
Es	-1.201885	-2.652699	-1.444272	99
Es	-0.271871	1.128606	-1.314329	99
Es	0.241367	-0.108728	0.636974	99
Es	0.091316	1.676437	0.565433	99
Es	0.838184	-0.517000	-0.399433	99
Es	-0.267191	-1.025009	-0.099566	99
Es	1.751653	1.804925	-0.092151	99
Es	-0.228339	1.367446	-0.070622	99
Es	0.926654	0.221402	1.652412	99
Es	0.275497	0.324298	1.282537	99
47
Properties=species:S:1:pos:R:3:Z:I:1 energy=-305.286200939358 field_type=dipole dipole="0.000000 0.000000 0.000000" charge=0
N	-0.874797	-2.130314	-1.467269	7
C	-0.690257	-1.653794	-0.101079	6
C	0.156103	-0.389404	-0.091279	6
C	-0.497837	0.911206	-0.635619	6
C	0.091173	1.676436	0.565481	6
N	1.401263	2.217896	0.202771	7
C	0.275513	0.324326	1.282571	6
H	-1.437387	-2.980144	-1.455099	1
H	0.026593	-2.394504	-1.862989	1
H	-0.202447	-2.436203	0.490721	1
H	-1.672717	-1.467594	0.346431	1
H	1.146373	-0.572544	-0.534309	1
H	-1.595147	0.891966	-0.626569	1
H	-0.174757	1.221287	-1.634679	1
H	-0.574677	2.393527	1.051541	1
H	2.004773	1.586316	-0.321409	1
H	1.948013	2.539056	0.999811	1
H	1.217043	0.164836	1.817921	1
H	-0.546827	0.097646	1.973051	1
Es	0.851781	1.965349	0.376151	99
Es	0.275495	0.324298	1.282537	99
Es	-0.497816	0.911180	-0.635567	99
Es	-1.366188	-1.521219	0.207106	99
Es	-0.267201	-1.024968	-0.099558	99
Es	0.156088	-0.389372	-0.091251	99
Es	-0.784186	-1.949040	-0.871302	99
Es	-1.201110	-2.652175	-1.444120	99
Es	0.091320	1.676441	0.565433	99
Es	-1.246695	0.890549	-0.614598	99
Es	-0.874556	-2.130729	-1.466951	99
Es	-0.193734	0.217716	-0.437696	99
Es	-0.228297	1.367163	-0.070787	99
Es	0.193438	1.026321	1.010722	99
Es	-0.356562	2.179115	0.903541	99
Es	1.724323	2.380494	0.702929	99
Es	-0.298452	0.161594	1.747342	99
Es	-0.690261	-1.653836	-0.101222	99
Es	0.241201	-0.108680	0.636982	99
Es	1.359966	2.491720	0.004111	99
Es	-1.030444	-1.885016	-1.668140	99
Es	-0.319608	-2.302638	-1.688986	99
Es	1.401372	2.217399	0.203147	99
Es	-0.346305	-2.191619	0.318366	99
Es	0.926852	0.221396	1.652329	99
Es	-0.271775	1.128695	-1.314416	99
Es	1.751998	1.805287	-0.093423	99
Es	0.838454	-0.517178	-0.399598	99
47
Properties=species:S:1:pos:R:3:Z:I:1 energy=-305.286200939358 field_type=dipole dipole="0.000000 0.000000 0.000000" charge=0
N	-0.874797	-2.130314	-1.467269	7
C	-0.690257	-1.653794	-0.101079	6
C	0.156103	-0.389404	-0.091279	6
C	-0.497837	0.911206	-0.635619	6
C	0.091173	1.676436	0.565481	6
N	1.401263	2.217896	0.202771	7
C	0.275513	0.324326	1.282571	6
H	-1.437387	-2.980144	-1.455099	1
H	0.026593	-2.394504	-1.862989	1
H	-0.202447	-2.436203	0.490721	1
H	-1.672717	-1.467594	0.346431	1
H	1.146373	-0.572544	-0.534309	1
H	-1.595147	0.891966	-0.626569	1
H	-0.174757	1.221287	-1.634679	1
H	-0.574677	2.393527	1.051541	1
H	2.004773	1.586316	-0.321409	1
H	1.948013	2.539056	0.999811	1
H	1.217043	0.164836	1.817921	1
H	-0.546827	0.097646	1.973051	1
Es	-1.366392	-1.520981	0.207227	99
Es	1.401344	2.217431	0.203122	99
Es	-0.319106	-2.302914	-1.689420	99
Es	-1.200674	-2.651595	-1.443695	99
Es	0.193504	1.025940	1.010583	99
Es	-0.298762	0.161740	1.747345	99
Es	-0.271585	1.128713	-1.314314	99
Es	-0.690261	-1.653835	-0.101221	99
Es	0.852152	1.964916	0.376379	99
Es	0.091321	1.676440	0.565434	99
Es	1.359546	2.492034	0.004440	99
Es	-1.031007	-1.885565	-1.667946	99
Es	-0.228302	1.366934	-0.071030	99
Es	1.752140	1.805535	-0.093903	99
Es	0.927110	0.221468	1.652369	99
Es	-0.497816	0.911180	-0.635566	99
Es	-0.346079	-2.191566	0.318342	99
Es	-0.356595	2.179149	0.903648	99
Es	-1.247049	0.890551	-0.614539	99
Es	0.275494	0.324298	1.282537	99
Es	0.838709	-0.517376	-0.399671	99
Es	-0.874640	-2.130558	-1.467049	99
Es	0.156089	-0.389374	-0.091250	99
Es	-0.267174	-1.024994	-0.099556	99
Es	-0.193731	0.217763	-0.437667	99
Es	1.724283	2.380267	0.702899	99
Es	-0.784348	-1.948872	-0.871409	99
Es	0.240928	-0.108483	0.636993	99
47
Properties=species:S:1:pos:R:3:Z:I:1 energy=-305.286200939358 field_type=dipole dipole="0.000000 0.000000 0.000000" charge=0
N	-0.874797	-2.130314	-1.467269	7
C	-0.690257	-1.653794	-0.101079	6
C	0.156103	-0.389404	-0.091279	6
C	-0.497837	0.911206	-0.635619	6
C	0.091173	1.676436	0.565481	6
N	1.401263	2.217896	0.202771	7
C	0.275513	0.324326	1.282571	6
H	-1.437387	-2.980144	-1.455099	1
H	0.026593	-2.394504	-1.862989	1
H	-0.202447	-2.436203	0.490721	1
H	-1.672717	-1.467594	0.346431	1
H	1.146373	-0.572544	-0.534309	1
H	-1.595147	0.891966	-0.626569	1
H	-0.174757	1.221287	-1.634679	1
H	-0.574677	2.393527	1.051541	1
H	2.004773	1.586316	-0.321409	1
H	1.948013	2.539056	0.999811	1
H	1.217043	0.164836	1.817921	1
H	-0.546827	0.097646	1.973051	1
Es	-0.267179	-1.024950	-0.099601	99
Es	-0.298848	0.161766	1.747372	99
Es	-1.247144	0.890568	-0.614401	99
Es	-0.874575	-2.130662	-1.466971	99
Es	-0.356706	2.179201	0.903649	99
Es	-0.319004	-2.303014	-1.689640	99
Es	0.091320	1.676440	0.565433	99
Es	0.838871	-0.517501	-0.399760	99
Es	-0.193896	0.217860	-0.437523	99
Es	-1.200789	-2.651243	-1.443967	99
Es	-1.366509	-1.520866	0.207339	99
Es	-0.690261	-1.653836	-0.101221	99
Es	0.927155	0.221467	1.652355	99
Es	1.724115	2.379554	0.702980	99
Es	-0.271489	1.128727	-1.314426	99
Es	-0.345887	-2.191490	0.318314	99
Es	-1.031065	-1.885223	-1.667677	99
Es	-0.497817	0.911180	-0.635568	99
Es	0.275495	0.324296	1.282537	99
Es	1.752129	1.805443	-0.094154	99
Es	0.193554	1.025818	1.010574	99
Es	1.401383	2.217436	0.203115	99
Es	-0.784267	-1.949309	-0.871302	99
Es	-0.228210	1.366782	-0.071040	99
Es	0.240789	-0.108542	0.636978	99
Es	0.156088	-0.389373	-0.091250	99
Es	0.851391	1.965711	0.375782	99
Es	1.360453	2.492007	0.005154	99
47
Properties=species:S:1:pos:R:3:Z:I:1 energy=-305.286200939358 field_type=dipole dipole="0.000000 0.000000 0.000000" charge=0
N	-0.874797	-2.130314	-1.467269	7
C	-0.690257	-1.653794	-0.101079	6
C	0.156103	-0.389404	-0.091279	6
C	-0.497837	0.911206	-0.635619	6
C	0.091173	1.676436	0.565481	6
N	1.401263	2.217896	0.202771	7
C	0.275513	0.324326	1.282571	6
H	-1.437387	-2.980144	-1.455099	1
H	0.026593	-2.394504	-1.862989	1
H	-0.202447	-2.436203	0.490721	1
H	-1.672717	-1.467594	0.346431	1
H	1.146373	-0.572544	-0.534309	1
H	-1.595147	0.891966	-0.626569	1
H	-0.174757	1.221287	-1.634679	1
H	-0.574677	2.393527	1.051541	1
H	2.004773	1.586316	-0.321409	1
H	1.948013	2.539056	0.999811	1
H	1.217043	0.164836	1.817921	1
H	-0.546827	0.097646	1.973051	1
Es	-0.690262	-1.653835	-0.101222	99
Es	-0.497816	0.911180	-0.635567	99
Es	-0.874562	-2.130675	-1.466953	99
Es	0.851323	1.965678	0.375817	99
Es	-1.200540	-2.651001	-1.443731	99
Es	0.927291	0.221495	1.652302	99
Es	-0.318846	-2.303402	-1.689335	99
Es	-0.193942	0.217867	-0.437514	99
Es	1.401367	2.217411	0.203142	99
Es	-0.784494	-1.948943	-0.871366	99
Es	-1.247293	0.890604	-0.614306	99
Es	-0.228200	1.366580	-0.071122	99
Es	-1.366613	-1.520729	0.207399	99
Es	-0.267139	-1.024864	-0.099596	99
Es	-1.031200	-1.885373	-1.668170	99
Es	-0.356750	2.179233	0.903651	99
Es	0.156088	-0.389374	-0.091251	99
Es	0.838988	-0.517695	-0.399829	99
Es	1.360331	2.491430	0.005358	99
Es	0.091319	1.676438	0.565433	99
Es	1.752305	1.805516	-0.094365	99
Es	-0.271390	1.128790	-1.314426	99
Es	0.240665	-0.108434	0.637112	99
Es	0.275494	0.324298	1.282537	99
Es	1.724150	2.380086	0.702874	99
Es	0.193610	1.025659	1.010489	99
Es	-0.299024	0.161781	1.747420	99
Es	-0.345765	-2.191476	0.318303	99
47
Properties=species:S:1:pos:R:3:Z:I:1 energy=-305.286200939358 field_type=dipole dipole="0.000000 0.000000 0.000000" charge=0
N	-0.874797	-2.130314	-1.467269	7
C	-0.690257	-1.653794	-0.101079	6
C	0.156103	-0.389404	-0.091279	6
C	-0.497837	0.911206	-0.635619	6
C	0.091173	1.676436	0.565481	6
N	1.401263	2.217896	0.202771	7
C	0.275513	0.324326	1.282571	6
H	-1.437387	-2.980144	-1.455099	1
H	0.026593	-2.394504	-1.862989	1
H	-0.202447	-2.436203	0.490721	1
H	-1.672717	-1.467594	0.346431	1
H	1.146373	-0.572544	-0.534309	1
H	-1.595147	0.891966	-0.626569	1
H	-0.174757	1.221287	-1.634679	1
H	-0.574677	2.393527	1.051541	1
H	2.004773	1.586316	-0.321409	1
H	1.948013	2.539056	0.999811	1
H	1.217043	0.164836	1.817921	1
H	-0.546827	0.097646	1.973051	1
Es	-0.874556	-2.130722	-1.466953	99
Es	0.240558	-0.108398	0.637097	99
Es	1.752284	1.805718	-0.094844	99
Es	0.927356	0.221446	1.652323	99
Es	0.156088	-0.389373	-0.091250	99
Es	-1.032085	-1.885262	-1.667974	99
Es	0.275495	0.324299	1.282537	99
Es	-0.345706	-2.191392	0.318252	99
Es	0.839083	-0.517697	-0.399918	99
Es	1.360917	2.491955	0.006065	99
Es	1.401371	2.217366	0.203175	99
Es	-0.194100	0.217871	-0.437518	99
Es	-1.247390	0.890602	-0.614286	99
Es	-1.199877	-2.650724	-1.443476	99
Es	-0.356771	2.179137	0.903689	99
Es	-0.318716	-2.303286	-1.689864	99
Es	0.091320	1.676439	0.565433	99
Es	-0.267064	-1.024825	-0.099559	99
Es	-0.784323	-1.949387	-0.871317	99
Es	-1.366700	-1.520742	0.207457	99
Es	-0.497816	0.911180	-0.635567	99
Es	1.724009	2.379005	0.702935	99
Es	-0.690261	-1.653834	-0.101220	99
Es	-0.228153	1.366535	-0.071113	99
Es	-0.271363	1.128770	-1.314392	99
Es	0.850979	1.966129	0.375517	99
Es	0.193613	1.025615	1.010462	99
Es	-0.299095	0.161821	1.747391	99
47
Properties=species:S:1:pos:R:3:Z:I:1 energy=-305.286200939358 field_type=dipole dipole="0.000000 0.000000 0.000000" charge=0
N	-0.874797	-2.130314	-1.467269	7
C	-0.690257	-1.653794	-0.101079	6
C	0.156103	-0.389404	-0.091279	6
C	-0.497837	0.911206	-0.635619	6
C	0.091173	1.676436	0.565481	6
N	1.401263	2.217896	0.202771	7
C	0.275513	0.324326	1.282571	6
H	-1.437387	-2.980144	-1.455099	1
H	0.026593	-2.394504	-1.862989	1
H	-0.202447	-2.436203	0.490721	1
H	-1.672717	-1.467594	0.346431	1
H	1.146373	-0.572544	-0.534309	1
H	-1.595147	0.891966	-0.626569	1
H	-0.174757	1.221287	-1.634679	1
H	-0.574677	2.393527	1.051541	1
H	2.004773	1.586316	-0.321409	1
H	1.948013	2.539056	0.999811	1
H	1.217043	0.164836	1.817921	1
H	-0.546827	0.097646	1.973051	1
Es	-0.267095	-1.024862	-0.099555	99
Es	1.360955	2.491722	0.006371	99
Es	-1.247475	0.890644	-0.614220	99
Es	0.240461	-0.108364	0.637049	99
Es	1.752389	1.805760	-0.095056	99
Es	0.927455	0.221485	1.652300	99
Es	0.275494	0.324297	1.282538	99
Es	1.401377	2.217409	0.203152	99
Es	-0.271264	1.128820	-1.314423	99
Es	-0.345603	-2.191374	0.318266	99
Es	0.850788	1.966142	0.375510	99
Es	-0.299194	0.161849	1.747422	99
Es	1.723987	2.379074	0.702863	99
Es	-0.784314	-1.949994	-0.871194	99
Es	-0.318648	-2.303616	-1.689800	99
Es	-0.356828	2.179240	0.903639	99
Es	0.091319	1.676439	0.565433	99
Es	-0.874549	-2.130700	-1.466960	99
Es	0.156089	-0.389375	-0.091251	99
Es	-0.690261	-1.653836	-0.101221	99
Es	-1.366746	-1.520627	0.207502	99
Es	-0.497816	0.911179	-0.635567	99
Es	-0.194134	0.217907	-0.437422	99
Es	0.193638	1.025424	1.010471	99
Es	0.839206	-0.517758	-0.399922	99
Es	-1.200439	-2.650271	-1.444035	99
Es	-1.031592	-1.884774	-1.667600	99
Es	-0.228101	1.366406	-0.071207	99
47
Properties=species:S:1:pos:R:3:Z:I:1 energy=-305.286200939358 field_type=dipole dipole="0.000000 0.000000 0.000000" charge=0
N	-0.874797	-2.130314	-1.467269	7
C	-0.690257	-1.653794	-0.101079	6
C	0.156103	-0.389404	-0.091279	6
C	-0.497837	0.911206	-0.635619	6
C	0.091173	1.676436	0.565481	6
N	1.401263	2.217896	0.202771	7
C	0.275513	0.324326	1.282571	6
H	-1.437387	-2.980144	-1.455099	1
H	0.026593	-2.394504	-1.862989	1
H	-0.202447	-2.436203	0.490721	1
H	-1.672717	-1.467594	0.346431	1
H	1.146373	-0.572544	-0.534309	1
H	-1.595147	0.891966	-0.626569	1
H	-0.174757	1.221287	-1.634679	1
H	-0.574677	2.393527	1.051541	1
H	2.004773	1.586316	-0.321409	1
H	1.948013	2.539056	0.999811	1
H	1.217043	0.164836	1.817921	1
H	-0.546827	0.097646	1.973051	1
Es	-1.247583	0.890657	-0.614178	99
Es	0.839208	-0.517864	-0.399972	99
Es	1.752592	1.805774	-0.095009	99
Es	-1.199712	-2.650178	-1.443389	99
Es	0.927534	0.221512	1.652319	99
Es	1.723977	2.379692	0.702641	99
Es	-0.299312	0.161853	1.747402	99
Es	-0.271166	1.128796	-1.314439	99
Es	-0.690261	-1.653837	-0.101222	99
Es	-0.497817	0.911179	-0.635567	99
Es	-0.194244	0.217958	-0.437467	99
Es	-1.032385	-1.885060	-1.668036	99
Es	1.360820	2.491259	0.006355	99
Es	-1.366787	-1.520537	0.207526	99
Es	-0.356832	2.179212	0.903704	99
Es	0.850766	1.966028	0.375655	99
Es	-0.784389	-1.949633	-0.871359	99
Es	-0.345554	-2.191399	0.318257	99
Es	0.275494	0.324297	1.282536	99
Es	0.193666	1.025308	1.010448	99
Es	0.091319	1.676440	0.565433	99
Es	0.156088	-0.389374	-0.091250	99
Es	-0.318492	-2.303706	-1.689895	99
Es	-0.874535	-2.130717	-1.466915	99
Es	1.401367	2.217356	0.203170	99
Es	-0.267036	-1.024834	-0.099536	99
Es	0.240459	-0.108241	0.637093	99
Es	-0.228088	1.366305	-0.071222	99
47
Properties=species:S:1:pos:R:3:Z:I:1 energy=-305.286200939358 field_type=dipole dipole="0.000000 0.000000 0.000000" charge=0
N	-0.874797	-2.130314	-1.467269	7
C	-0.690257	-1.653794	-0.101079	6
C	0.156103	-0.389404	-0.091279	6
C	-0.497837	0.911206	-0.635619	6
C	0.091173	1.676436	0.565481	6
N	1.401263	2.217896	0.202771	7
C	0.275513	0.324326	1.282571	6
H	-1.437387	-2.980144	-1.455099	1
H	0.026593	-2.394504	-1.862989	1
H	-0.202447	-2.436203	0.490721	1
H	-1.672717	-1.467594	0.346431	1
H	1.146373	-0.572544	-0.534309	1
H	-1.595147	0.891966	-0.626569	1
H	-0.174757	1.221287	-1.634679	1
H	-0.574677	2.393527	1.051541	1
H	2.004773	1.586316	-0.321409	1
H	1.948013	2.539056	0.999811	1
H	1.217043	0.164836	1.817921	1
H	-0.546827	0.097646	1.973051	1
Es	0.240279	-0.108300	0.636954	99
Es	0.091322	1.676441	0.565433	99
Es	-0.784607	-1.949846	-0.871149	99
Es	1.361300	2.491478	0.007093	99
Es	1.723783	2.378844	0.702930	99
Es	0.927556	0.221530	1.652314	99
Es	0.850494	1.966480	0.375113	99
Es	-1.199188	-2.650230	-1.443512	99
Es	-0.345426	-2.191401	0.318254	99
Es	-1.366819	-1.520556	0.207539	99
Es	-0.194175	0.217908	-0.437393	99
Es	-0.356866	2.179143	0.903710	99
Es	-0.690261	-1.653835	-0.101221	99
Es	-0.299315	0.161957	1.747445	99
Es	-0.318364	-2.303365	-1.689933	99
Es	-1.247586	0.890661	-0.614152	99
Es	-1.032767	-1.885163	-1.667989	99
Es	0.275495	0.324297	1.282538	99
Es	-0.874581	-2.130646	-1.466988	99
Es	0.839374	-0.517854	-0.399940	99
Es	0.193674	1.025231	1.010392	99
Es	0.156088	-0.389373	-0.091250	99
Es	1.752630	1.805956	-0.095516	99
Es	-0.267184	-1.024834	-0.099554	99
Es	-0.497816	0.911180	-0.635567	99
Es	-0.271195	1.128830	-1.314436	99
Es	-0.228120	1.366314	-0.071197	99
Es	1.401374	2.217399	0.203164	99
47
Properties=species:S:1:pos:R:3:Z:I:1 energy=-305.286200939358 field_type=dipole dipole="0.000000 0.000000 0.000000" charge=0
N	-0.874797	-2.130314	-1.467269	7
C	-0.690257	-1.653794	-0.101079	6
C	0.156103	-0.389404	-0.091279	6
C	-0.497837	0.911206	-0.635619	6
C	0.091173	1.676436	0.565481	6
N	1.401263	2.217896	0.202771	7
C	0.275513	0.324326	1.282571	6
H	-1.437387	-2.980144	-1.455099	1
H	0.026593	-2.394504	-1.862989	1
H	-0.202447	-2.436203	0.490721	1
H	-1.672717	-1.467594	0.346431	1
H	1.146373	-0.572544	-0.534309	1
H	-1.595147	0.891966	-0.626569	1
H	-0.174757	1.221287	-1.634679	1
H	-0.574677	2.393527	1.051541	1
H	2.004773	1.586316	-0.321409	1
H	1.948013	2.539056	0.999811	1
H	1.217043	0.164836	1.817921	1
H	-0.546827	0.097646	1.973051	1
Es	0.240364	-0.108336	0.637242	99
Es	-0.784229	-1.950228	-0.871292	99
Es	-1.366892	-1.520413	0.207592	99
Es	-0.228095	1.366096	-0.071296	99
Es	-0.271127	1.128901	-1.314409	99
Es	-0.690261	-1.653836	-0.101221	99
Es	0.091319	1.676438	0.565432	99
Es	1.401359	2.217419	0.203118	99
Es	-1.199436	-2.649988	-1.443528	99
Es	-0.345553	-2.191392	0.318181	99
Es	1.752582	1.805759	-0.095157	99
Es	-0.874576	-2.130742	-1.466950	99
Es	-0.318488	-2.303742	-1.689908	99
Es	-0.267049	-1.024802	-0.099652	99
Es	0.839290	-0.517967	-0.400070	99
Es	0.193600	1.025187	1.010300	99
Es	0.850572	1.966193	0.375550	99
Es	-0.194059	0.218110	-0.437365	99
Es	-0.356860	2.179266	0.903795	99
Es	0.927659	0.221632	1.652260	99
Es	0.275495	0.324298	1.282538	99
Es	0.156088	-0.389374	-0.091251	99
Es	1.361211	2.491611	0.006713	99
Es	1.723861	2.379031	0.702602	99
Es	-0.299424	0.161857	1.747475	99
Es	-0.497816	0.911180	-0.635567	99
Es	-1.247753	0.890586	-0.614073	99
Es	-1.032683	-1.884497	-1.667975	99
47
Properties=species:S:1:pos:R:3:Z:I:1 energy=-305.286200939358 field_type=dipole dipole="0.000000 0.000000 0.000000" charge=0
N	-0.874797	-2.130314	-1.467269	7
C	-0.690257	-1.653794	-0.101079	6
C	0.156103	-0.389404	-0.091279	6
C	-0.497837	0.911206	-0.635619	6
C	0.091173	1.676436	0.565481	6
N	1.401263	2.217896	0.202771	7
C	0.275513	0.324326	1.282571	6
H	-1.437387	-2.980144	-1.455099	1
H	0.026593	-2.394504	-1.862989	1
H	-0.202447	-2.436203	0.490721	1
H	-1.672717	-1.467594	0.346431	1
H	1.146373	-0.572544	-0.534309	1
H	-1.595147	0.891966	-0.626569	1
H	-0.174757	1.221287	-1.634679	1
H	-0.574677	2.393527	1.051541	1
H	2.004773	1.586316	-0.321409	1
H	1.948013	2.539056	0.999811	1
H	1.217043	0.164836	1.817921	1
H	-0.546827	0.097646	1.973051	1
Es	-0.874538	-2.130718	-1.466936	99
Es	0.849539	1.967251	0.374435	99
Es	-1.032603	-1.885137	-1.668160	99
Es	1.362516	2.492242	0.008427	99
Es	-1.366966	-1.520494	0.207531	99
Es	1.723739	2.376836	0.703142	99
Es	-0.271064	1.128832	-1.314444	99
Es	1.752329	1.806274	-0.096303	99
Es	0.839328	-0.517939	-0.400045	99
Es	-0.690261	-1.653836	-0.101219	99
Es	-0.318391	-2.303829	-1.689889	99
Es	-0.299395	0.161992	1.747500	99
Es	-0.356860	2.179243	0.903660	99
Es	0.275494	0.324298	1.282537	99
Es	1.401359	2.217494	0.203085	99
Es	-0.345442	-2.191327	0.318237	99
Es	-0.267037	-1.024766	-0.099602	99
Es	0.927622	0.221559	1.652259	99
Es	-1.247756	0.890613	-0.614086	99
Es	-0.784412	-1.949635	-0.871189	99
Es	0.156088	-0.389373	-0.091250	99
Es	-0.497816	0.911178	-0.635567	99
Es	0.240276	-0.108376	0.637201	99
Es	-0.228066	1.366203	-0.071325	99
Es	0.193744	1.025094	1.010384	99
Es	-1.199411	-2.649941	-1.443384	99
Es	-0.194225	0.218087	-0.437341	99
Es	0.091307	1.676423	0.565426	99
47
Properties=species:S:1:pos:R:3:Z:I:1 energy=-305.286200939358 field_type=dipole dipole="0.000000 0.000000 0.000000" charge=0
N	-0.874797	-2.130314	-1.467269	7
C	-0.690257	-1.653794	-0.101079	6
C	0.156103	-0.389404	-0.091279	6
C	-0.497837	0.911206	-0.635619	6
C	0.091173	1.676436	0.565481	6
N	1.401263	2.217896	0.202771	7
C	0.275513	0.324326	1.282571	6
H	-1.437387	-2.980144	-1.455099	1
H	0.026593	-2.394504	-1.862989	1
H	-0.202447	-2.436203	0.490721	1
H	-1.672717	-1.467594	0.346431	1
H	1.146373	-0.572544	-0.534309	1
H	-1.595147	0.891966	-0.626569	1
H	-0.174757	1.221287	-1.634679	1
H	-0.574677	2.393527	1.051541	1
H	2.004773	1.586316	-0.321409	1
H	1.948013	2.539056	0.999811	1
H	1.217043	0.164836	1.817921	1
H	-0.546827	0.097646	1.973051	1
Es	0.240150	-0.108119	0.637127	99
Es	0.275495	0.324297	1.282536	99
Es	0.850648	1.966038	0.375569	99
Es	0.156088	-0.389373	-0.091250	99
Es	1.723997	2.378873	0.702684	99
Es	1.401372	2.217465	0.203107	99
Es	-0.194362	0.217991	-0.437369	99
Es	0.927749	0.221430	1.652285	99
Es	1.752747	1.806438	-0.096363	99
Es	-1.366920	-1.520381	0.207664	99
Es	-0.267018	-1.024777	-0.099583	99
Es	1.360838	2.491291	0.007822	99
Es	0.193679	1.025215	1.010411	99
Es	-1.032889	-1.884627	-1.667710	99
Es	-1.199311	-2.649572	-1.443596	99
Es	-1.247801	0.890717	-0.614060	99
Es	-0.271022	1.128842	-1.314423	99
Es	0.839442	-0.518032	-0.400035	99
Es	-0.784326	-1.950503	-0.871053	99
Es	-0.299481	0.161908	1.747390	99
Es	-0.345286	-2.191302	0.318228	99
Es	-0.318362	-2.303860	-1.690247	99
Es	-0.497816	0.911180	-0.635568	99
Es	-0.356902	2.179190	0.903676	99
Es	-0.228098	1.366007	-0.071393	99
Es	-0.690261	-1.653835	-0.101220	99
Es	-0.874572	-2.130695	-1.466977	99
Es	0.091320	1.676439	0.565432	99
