37
Properties=species:S:1:pos:R:3:Z:I:1 energy=-317.77789032584155 field_type=dipole dipole="0.000000 0.000000 0.000000" charge=0
N	-3.467985	-0.496821	0.064167	7
C	-2.306265	-0.465801	0.097047	6
C	-0.877925	-0.363771	0.127757	6
N	-0.187465	-1.459391	0.139037	7
N	1.107705	-1.050071	0.208197	7
C	1.253255	0.352529	-0.178433	6
C	-0.121615	0.911589	0.149967	6
H	1.751315	-1.677271	-0.279693	1
H	1.451985	0.429289	-1.253393	1
H	2.053985	0.855489	0.370017	1
H	-0.487595	1.618469	-0.597643	1
H	-0.169395	1.345759	1.152977	1
Es	-2.925960	-0.714981	0.280507	99
Es	-0.878094	-0.363785	0.127772	99
Es	1.253195	0.352396	-0.178384	99
Es	0.464155	-1.238093	0.123664	99
Es	-0.154759	1.193898	0.822744	99
Es	-2.305902	-0.465782	0.097064	99
Es	1.169378	-0.448290	0.014436	99
Es	0.570830	0.658898	-0.013124	99
Es	1.104520	-1.072825	0.519576	99
Es	-0.552098	-0.922883	-0.158891	99
Es	-0.121624	0.911502	0.149957	99
Es	-0.545832	0.283762	0.135148	99
Es	1.797389	0.689331	0.192415	99
Es	-1.631262	-0.410259	0.117282	99
Es	1.478761	-1.420352	-0.101489	99
Es	-0.187241	-1.458772	0.139048	99
Es	-2.915587	-0.541450	-0.221064	99
Es	-3.467525	-0.496806	0.064179	99
Es	-0.276100	-1.815598	0.133661	99
Es	1.385085	0.403973	-0.916321	99
Es	-0.368734	1.382402	-0.349795	99
Es	-2.943661	-0.189525	0.177929	99
Es	1.107291	-1.050035	0.207449	99
Es	-3.834329	-0.507875	0.053649	99
Es	-0.551204	-0.935531	0.408934	99
37
Properties=species:S:1:pos:R:3:Z:I:1 energy=-317.77789032584155 field_type=dipole dipole="0.000000 0.000000 0.000000" charge=0
N	-3.467985	-0.496821	0.064167	7
C	-2.306265	-0.465801	0.097047	6
C	-0.877925	-0.363771	0.127757	6
N	-0.187465	-1.459391	0.139037	7
N	1.107705	-1.050071	0.208197	7
C	1.253255	0.352529	-0.178433	6
C	-0.121615	0.911589	0.149967	6
H	1.751315	-1.677271	-0.279693	1
H	1.451985	0.429289	-1.253393	1
H	2.053985	0.855489	0.370017	1
H	-0.487595	1.618469	-0.597643	1
H	-0.169395	1.345759	1.152977	1
Es	1.384843	0.401500	-0.910641	99
Es	-2.914856	-0.739395	-0.082474	99
Es	0.572301	0.660808	-0.014037	99
Es	1.496471	-1.428522	-0.080010	99
Es	-2.305892	-0.465804	0.097053	99
Es	-1.632695	-0.413775	0.117342	99
Es	-3.839804	-0.498187	0.052689	99
Es	-0.546462	0.283014	0.137223	99
Es	1.107315	-1.050033	0.207446	99
Es	-0.121624	0.911500	0.149957	99
Es	-3.467528	-0.496806	0.064179	99
Es	-2.933645	-0.500524	0.368821	99
Es	-0.276235	-1.805554	0.133641	99
Es	-0.371192	1.382815	-0.347454	99
Es	0.464212	-1.244426	0.128920	99
Es	-2.932559	-0.211302	-0.048668	99
Es	-0.878096	-0.363783	0.127776	99
Es	1.090422	-1.063798	0.488383	99
Es	1.801002	0.688254	0.190273	99
Es	-0.553230	-0.922182	-0.159147	99
Es	1.171816	-0.447700	0.017162	99
Es	-0.187254	-1.458767	0.139044	99
Es	-0.552412	-0.937773	0.409354	99
Es	1.253194	0.352397	-0.178384	99
Es	-0.157401	1.191361	0.817898	99
37
Properties=species:S:1:pos:R:3:Z:I:1 energy=-317.77789032584155 field_type=dipole dipole="0.000000 0.000000 0.000000" charge=0
N	-3.467985	-0.496821	0.064167	7
C	-2.306265	-0.465801	0.097047	6
C	-0.877925	-0.363771	0.127757	6
N	-0.187465	-1.459391	0.139037	7
N	1.107705	-1.050071	0.208197	7
C	1.253255	0.352529	-0.178433	6
C	-0.121615	0.911589	0.149967	6
H	1.751315	-1.677271	-0.279693	1
H	1.451985	0.429289	-1.253393	1
H	2.053985	0.855489	0.370017	1
H	-0.487595	1.618469	-0.597643	1
H	-0.169395	1.345759	1.152977	1
Es	1.173121	-0.446579	0.020921	99
Es	-2.938575	-0.300155	0.305869	99
Es	-3.467526	-0.496806	0.064179	99
Es	-0.121625	0.911501	0.149955	99
Es	-2.919540	-0.786836	0.109581	99
Es	1.082350	-1.061608	0.464699	99
Es	-0.158193	1.189194	0.814043	99
Es	-0.372844	1.383457	-0.346110	99
Es	-0.274771	-1.797178	0.133101	99
Es	-1.633334	-0.415063	0.116830	99
Es	-3.841162	-0.493344	0.050884	99
Es	-0.878102	-0.363776	0.127778	99
Es	-0.546785	0.282189	0.139152	99
Es	1.505578	-1.431006	-0.063356	99
Es	1.383910	0.399760	-0.906137	99
Es	-0.554546	-0.939370	0.411154	99
Es	1.253196	0.352399	-0.178384	99
Es	-0.553736	-0.923041	-0.160398	99
Es	0.464292	-1.248202	0.130874	99
Es	-2.921886	-0.366948	-0.175827	99
Es	1.107341	-1.050033	0.207467	99
Es	0.572789	0.661728	-0.014732	99
Es	1.803847	0.687607	0.188694	99
Es	-2.305884	-0.465811	0.097053	99
Es	-0.187224	-1.458762	0.139054	99
37
Properties=species:S:1:pos:R:3:Z:I:1 energy=-317.77789032584155 field_type=dipole dipole="0.000000 0.000000 0.000000" charge=0
N	-3.467985	-0.496821	0.064167	7
C	-2.306265	-0.465801	0.097047	6
C	-0.877925	-0.363771	0.127757	6
N	-0.187465	-1.459391	0.139037	7
N	1.107705	-1.050071	0.208197	7
C	1.253255	0.352529	-0.178433	6
C	-0.121615	0.911589	0.149967	6
H	1.751315	-1.677271	-0.279693	1
H	1.451985	0.429289	-1.253393	1
H	2.053985	0.855489	0.370017	1
H	-0.487595	1.618469	-0.597643	1
H	-0.169395	1.345759	1.152977	1
Es	1.382881	0.398929	-0.902257	99
Es	-0.373799	1.384194	-0.344959	99
Es	-0.158560	1.187274	0.811024	99
Es	-0.273203	-1.789966	0.133293	99
Es	-2.932532	-0.532362	0.345683	99
Es	-0.878101	-0.363775	0.127760	99
Es	-3.841764	-0.491075	0.051863	99
Es	1.107361	-1.050024	0.207488	99
Es	0.464107	-1.251197	0.133387	99
Es	-2.913173	-0.722004	-0.104210	99
Es	1.253194	0.352394	-0.178387	99
Es	1.173888	-0.445842	0.024223	99
Es	-0.121624	0.911501	0.149956	99
Es	-0.554777	-0.922937	-0.162552	99
Es	1.510584	-1.431346	-0.051985	99
Es	-2.933768	-0.200688	-0.003223	99
Es	-3.467527	-0.496806	0.064179	99
Es	0.573054	0.662151	-0.015017	99
Es	-0.187265	-1.458779	0.139042	99
Es	-2.305880	-0.465817	0.097063	99
Es	1.806017	0.686925	0.187393	99
Es	1.078065	-1.061511	0.446308	99
Es	-0.547580	0.281131	0.140496	99
Es	-1.633765	-0.415632	0.117246	99
Es	-0.555140	-0.941423	0.412533	99
37
Properties=species:S:1:pos:R:3:Z:I:1 energy=-317.77789032584155 field_type=dipole dipole="0.000000 0.000000 0.000000" charge=0
N	-3.467985	-0.496821	0.064167	7
C	-2.306265	-0.465801	0.097047	6
C	-0.877925	-0.363771	0.127757	6
N	-0.187465	-1.459391	0.139037	7
N	1.107705	-1.050071	0.208197	7
C	1.253255	0.352529	-0.178433	6
C	-0.121615	0.911589	0.149967	6
H	1.751315	-1.677271	-0.279693	1
H	1.451985	0.429289	-1.253393	1
H	2.053985	0.855489	0.370017	1
H	-0.487595	1.618469	-0.597643	1
H	-0.169395	1.345759	1.152977	1
Es	-0.187220	-1.458732	0.139043	99
Es	0.463964	-1.252721	0.134308	99
Es	-0.554991	-0.923684	-0.164283	99
Es	-0.121624	0.911502	0.149959	99
Es	-2.921983	-0.397153	-0.166761	99
Es	-3.841936	-0.489146	0.050961	99
Es	-1.634002	-0.415846	0.116887	99
Es	-0.271419	-1.783951	0.132687	99
Es	-0.556668	-0.943080	0.414105	99
Es	-0.374533	1.384766	-0.343899	99
Es	-0.878104	-0.363774	0.127786	99
Es	-0.158603	1.185799	0.808825	99
Es	-0.548155	0.280270	0.141795	99
Es	1.075250	-1.061873	0.433281	99
Es	1.381827	0.398167	-0.899230	99
Es	-3.467527	-0.496806	0.064179	99
Es	1.253195	0.352397	-0.178387	99
Es	1.807856	0.686296	0.185980	99
Es	1.174127	-0.445710	0.026977	99
Es	-2.305881	-0.465810	0.097059	99
Es	1.513814	-1.430827	-0.043774	99
Es	1.107496	-1.050045	0.207764	99
Es	-2.918970	-0.784121	0.123652	99
Es	0.573139	0.662273	-0.015288	99
Es	-2.938360	-0.274873	0.282721	99
37
Properties=species:S:1:pos:R:3:Z:I:1 energy=-317.77789032584155 field_type=dipole dipole="0.000000 0.000000 0.000000" charge=0
N	-3.467985	-0.496821	0.064167	7
C	-2.306265	-0.465801	0.097047	6
C	-0.877925	-0.363771	0.127757	6
N	-0.187465	-1.459391	0.139037	7
N	1.107705	-1.050071	0.208197	7
C	1.253255	0.352529	-0.178433	6
C	-0.121615	0.911589	0.149967	6
H	1.751315	-1.677271	-0.279693	1
H	1.451985	0.429289	-1.253393	1
H	2.053985	0.855489	0.370017	1
H	-0.487595	1.618469	-0.597643	1
H	-0.169395	1.345759	1.152977	1
Es	-3.841981	-0.487509	0.052203	99
Es	1.253197	0.352401	-0.178388	99
Es	-0.548604	0.279516	0.142977	99
Es	-0.187247	-1.458750	0.139043	99
Es	-0.121629	0.911500	0.149962	99
Es	-0.878102	-0.363773	0.127780	99
Es	-0.557943	-0.944515	0.415320	99
Es	-3.467527	-0.496806	0.064179	99
Es	0.573248	0.662527	-0.015429	99
Es	1.515994	-1.430146	-0.037052	99
Es	-1.634149	-0.415835	0.117379	99
Es	-0.269819	-1.778699	0.132219	99
Es	-2.932697	-0.217550	-0.031528	99
Es	-0.158729	1.184737	0.807019	99
Es	-2.305879	-0.465824	0.097061	99
Es	-2.933666	-0.491987	0.339203	99
Es	-0.375048	1.385070	-0.343229	99
Es	-2.912920	-0.747896	-0.069616	99
Es	0.463808	-1.254136	0.135156	99
Es	1.809585	0.685653	0.184380	99
Es	-0.555042	-0.924261	-0.165894	99
Es	1.174838	-0.444838	0.030809	99
Es	1.380704	0.397659	-0.895980	99
Es	1.107090	-1.050055	0.207317	99
Es	1.073211	-1.063165	0.421454	99
37
Properties=species:S:1:pos:R:3:Z:I:1 energy=-317.77789032584155 field_type=dipole dipole="0.000000 0.000000 0.000000" charge=0
N	-3.467985	-0.496821	0.064167	7
C	-2.306265	-0.465801	0.097047	6
C	-0.877925	-0.363771	0.127757	6
N	-0.187465	-1.459391	0.139037	7
N	1.107705	-1.050071	0.208197	7
C	1.253255	0.352529	-0.178433	6
C	-0.121615	0.911589	0.149967	6
H	1.751315	-1.677271	-0.279693	1
H	1.451985	0.429289	-1.253393	1
H	2.053985	0.855489	0.370017	1
H	-0.487595	1.618469	-0.597643	1
H	-0.169395	1.345759	1.152977	1
Es	1.253194	0.352395	-0.178388	99
Es	1.379752	0.397350	-0.893050	99
Es	-2.937621	-0.313425	0.309377	99
Es	-0.121624	0.911502	0.149960	99
Es	0.463622	-1.255162	0.136363	99
Es	-2.916287	-0.788648	0.069097	99
Es	1.517512	-1.429475	-0.031550	99
Es	1.107358	-1.050042	0.207468	99
Es	-0.187244	-1.458738	0.139044	99
Es	0.573308	0.662656	-0.015473	99
Es	-0.158265	1.183089	0.804188	99
Es	-1.634254	-0.416016	0.116920	99
Es	1.071897	-1.063384	0.412993	99
Es	-0.558623	-0.945148	0.416564	99
Es	-0.376043	1.386115	-0.342369	99
Es	-2.305879	-0.465828	0.097062	99
Es	-0.268682	-1.774900	0.132157	99
Es	-3.467527	-0.496806	0.064179	99
Es	1.174793	-0.445019	0.031660	99
Es	-2.925359	-0.355868	-0.139290	99
Es	-0.548989	0.278946	0.143973	99
Es	1.810923	0.685142	0.182784	99
Es	-3.841968	-0.486456	0.051634	99
Es	-0.555194	-0.925188	-0.166747	99
Es	-0.878105	-0.363774	0.127791	99
37
Properties=species:S:1:pos:R:3:Z:I:1 energy=-317.77789032584155 field_type=dipole dipole="0.000000 0.000000 0.000000" charge=0
N	-3.467985	-0.496821	0.064167	7
C	-2.306265	-0.465801	0.097047	6
C	-0.877925	-0.363771	0.127757	6
N	-0.187465	-1.459391	0.139037	7
N	1.107705	-1.050071	0.208197	7
C	1.253255	0.352529	-0.178433	6
C	-0.121615	0.911589	0.149967	6
H	1.751315	-1.677271	-0.279693	1
H	1.451985	0.429289	-1.253393	1
H	2.053985	0.855489	0.370017	1
H	-0.487595	1.618469	-0.597643	1
H	-0.169395	1.345759	1.152977	1
Es	-0.549363	0.278171	0.145141	99
Es	0.573312	0.662574	-0.015436	99
Es	1.175144	-0.444486	0.034848	99
Es	0.463542	-1.255962	0.136521	99
Es	-1.634339	-0.416060	0.116933	99
Es	-2.923849	-0.390028	-0.147921	99
Es	1.070673	-1.064451	0.406835	99
Es	-2.938119	-0.280810	0.285018	99
Es	-3.467527	-0.496806	0.064179	99
Es	1.107369	-1.050044	0.207467	99
Es	-0.558988	-0.947544	0.417462	99
Es	1.518514	-1.428556	-0.029319	99
Es	-0.555848	-0.924678	-0.168495	99
Es	-0.187231	-1.458730	0.139046	99
Es	-0.267247	-1.770470	0.131962	99
Es	-0.121623	0.911504	0.149965	99
Es	-3.842049	-0.486209	0.051819	99
Es	1.812040	0.684368	0.181585	99
Es	-2.305878	-0.465830	0.097056	99
Es	1.379029	0.397065	-0.891003	99
Es	-0.158252	1.182243	0.803057	99
Es	1.253197	0.352401	-0.178386	99
Es	-2.917197	-0.786966	0.102005	99
Es	-0.878105	-0.363773	0.127787	99
Es	-0.376512	1.386398	-0.341780	99
37
Properties=species:S:1:pos:R:3:Z:I:1 energy=-317.77789032584155 field_type=dipole dipole="0.000000 0.000000 0.000000" charge=0
N	-3.467985	-0.496821	0.064167	7
C	-2.306265	-0.465801	0.097047	6
C	-0.877925	-0.363771	0.127757	6
N	-0.187465	-1.459391	0.139037	7
N	1.107705	-1.050071	0.208197	7
C	1.253255	0.352529	-0.178433	6
C	-0.121615	0.911589	0.149967	6
H	1.751315	-1.677271	-0.279693	1
H	1.451985	0.429289	-1.253393	1
H	2.053985	0.855489	0.370017	1
H	-0.487595	1.618469	-0.597643	1
H	-0.169395	1.345759	1.152977	1
Es	-2.305879	-0.465827	0.097060	99
Es	-0.549454	0.277749	0.145829	99
Es	1.253195	0.352398	-0.178384	99
Es	1.175325	-0.444400	0.036499	99
Es	1.519345	-1.427903	-0.026422	99
Es	-0.187260	-1.458767	0.139039	99
Es	-2.933787	-0.210097	-0.009921	99
Es	-1.634379	-0.415924	0.117415	99
Es	1.069577	-1.064956	0.400728	99
Es	-0.376973	1.386313	-0.341491	99
Es	1.812781	0.683614	0.181002	99
Es	-0.158235	1.181839	0.802405	99
Es	-3.842021	-0.485475	0.052568	99
Es	-0.266051	-1.767072	0.131541	99
Es	-0.560772	-0.947178	0.418453	99
Es	-2.933683	-0.501198	0.320300	99
Es	1.378600	0.397002	-0.889385	99
Es	0.463447	-1.256120	0.136602	99
Es	-0.554943	-0.926697	-0.169540	99
Es	-3.467526	-0.496806	0.064180	99
Es	-0.878106	-0.363773	0.127787	99
Es	1.107598	-1.050070	0.208238	99
Es	0.573252	0.662421	-0.015658	99
Es	-0.121624	0.911500	0.149958	99
Es	-2.911735	-0.747256	-0.072458	99
37
Properties=species:S:1:pos:R:3:Z:I:1 energy=-317.77789032584155 field_type=dipole dipole="0.000000 0.000000 0.000000" charge=0
N	-3.467985	-0.496821	0.064167	7
C	-2.306265	-0.465801	0.097047	6
C	-0.877925	-0.363771	0.127757	6
N	-0.187465	-1.459391	0.139037	7
N	1.107705	-1.050071	0.208197	7
C	1.253255	0.352529	-0.178433	6
C	-0.121615	0.911589	0.149967	6
H	1.751315	-1.677271	-0.279693	1
H	1.451985	0.429289	-1.253393	1
H	2.053985	0.855489	0.370017	1
H	-0.487595	1.618469	-0.597643	1
H	-0.169395	1.345759	1.152977	1
Es	-3.842099	-0.485620	0.052787	99
Es	-0.265430	-1.764759	0.132019	99
Es	1.377868	0.396682	-0.887231	99
Es	1.520036	-1.427352	-0.023263	99
Es	-3.467527	-0.496806	0.064179	99
Es	-0.121624	0.911502	0.149964	99
Es	-2.935449	-0.193599	0.044768	99
Es	-0.377807	1.387575	-0.340615	99
Es	1.253198	0.352388	-0.178433	99
Es	-2.932619	-0.545182	0.303049	99
Es	-0.560915	-0.946634	0.419621	99
Es	1.813750	0.683191	0.179284	99
Es	-0.157825	1.180158	0.799792	99
Es	-2.305878	-0.465833	0.097059	99
Es	-2.911035	-0.719356	-0.109968	99
Es	-0.549772	0.277234	0.145728	99
Es	1.107532	-1.050038	0.207859	99
Es	0.463352	-1.257045	0.137495	99
Es	1.070043	-1.064182	0.399345	99
Es	-0.554982	-0.928087	-0.169822	99
Es	1.174242	-0.445125	0.034151	99
Es	0.573394	0.662722	-0.015294	99
Es	-0.187223	-1.458724	0.139046	99
Es	-0.878106	-0.363772	0.127768	99
Es	-1.634430	-0.416019	0.117059	99
37
Properties=species:S:1:pos:R:3:Z:I:1 energy=-317.77789032584155 field_type=dipole dipole="0.000000 0.000000 0.000000" charge=0
N	-3.467985	-0.496821	0.064167	7
C	-2.306265	-0.465801	0.097047	6
C	-0.877925	-0.363771	0.127757	6
N	-0.187465	-1.459391	0.139037	7
N	1.107705	-1.050071	0.208197	7
C	1.253255	0.352529	-0.178433	6
C	-0.121615	0.911589	0.149967	6
H	1.751315	-1.677271	-0.279693	1
H	1.451985	0.429289	-1.253393	1
H	2.053985	0.855489	0.370017	1
H	-0.487595	1.618469	-0.597643	1
H	-0.169395	1.345759	1.152977	1
Es	-0.121624	0.911501	0.149957	99
Es	-2.938100	-0.265527	0.271177	99
Es	-0.187217	-1.458803	0.139051	99
Es	-2.305878	-0.465833	0.097056	99
Es	-0.561496	-0.948322	0.420227	99
Es	-1.634462	-0.416083	0.116931	99
Es	-0.378058	1.387822	-0.340106	99
Es	-0.264396	-1.761588	0.131585	99
Es	-0.157674	1.179679	0.799179	99
Es	-0.555168	-0.927993	-0.171096	99
Es	0.573289	0.662466	-0.015367	99
Es	-0.878103	-0.363772	0.127783	99
Es	1.377422	0.396634	-0.885935	99
Es	-2.924675	-0.405167	-0.133092	99
Es	1.520506	-1.426663	-0.022773	99
Es	1.174497	-0.444938	0.036226	99
Es	-2.916304	-0.787395	0.100678	99
Es	0.463272	-1.257331	0.137927	99
Es	1.253195	0.352393	-0.178383	99
Es	1.107345	-1.050038	0.207444	99
Es	1.069621	-1.064856	0.396242	99
Es	-3.467526	-0.496806	0.064180	99
Es	1.814371	0.682531	0.178430	99
Es	-0.550044	0.276783	0.146713	99
Es	-3.842098	-0.485374	0.052313	99
37
Properties=species:S:1:pos:R:3:Z:I:1 energy=-317.77789032584155 field_type=dipole dipole="0.000000 0.000000 0.000000" charge=0
N	-3.467985	-0.496821	0.064167	7
C	-2.306265	-0.465801	0.097047	6
C	-0.877925	-0.363771	0.127757	6
N	-0.187465	-1.459391	0.139037	7
N	1.107705	-1.050071	0.208197	7
C	1.253255	0.352529	-0.178433	6
C	-0.121615	0.911589	0.149967	6
H	1.751315	-1.677271	-0.279693	1
H	1.451985	0.429289	-1.253393	1
H	2.053985	0.855489	0.370017	1
H	-0.487595	1.618469	-0.597643	1
H	-0.169395	1.345759	1.152977	1
Es	-0.878107	-0.363772	0.127786	99
Es	-2.305878	-0.465833	0.097058	99
Es	-3.467528	-0.496806	0.064179	99
Es	1.173982	-0.445241	0.035231	99
Es	-0.550441	0.276189	0.147064	99
Es	-0.378283	1.387647	-0.340045	99
Es	-0.560685	-0.950584	0.420924	99
Es	-0.121623	0.911504	0.149966	99
Es	0.463212	-1.257496	0.138281	99
Es	-2.935181	-0.194817	0.037980	99
Es	-1.634459	-0.415861	0.117205	99
Es	-2.910659	-0.735589	-0.090532	99
Es	-0.157677	1.179511	0.798692	99
Es	1.814749	0.681972	0.178133	99
Es	1.520912	-1.426165	-0.021485	99
Es	-0.263585	-1.759364	0.131896	99
Es	-0.556303	-0.926751	-0.172316	99
Es	-2.933280	-0.528156	0.290432	99
Es	0.573272	0.662342	-0.015460	99
Es	1.253195	0.352396	-0.178384	99
Es	1.106797	-1.050099	0.207383	99
Es	1.070327	-1.064447	0.395428	99
Es	-3.842087	-0.485076	0.052920	99
Es	1.377235	0.396559	-0.885043	99
Es	-0.187214	-1.458746	0.139055	99
37
Properties=species:S:1:pos:R:3:Z:I:1 energy=-317.77789032584155 field_type=dipole dipole="0.000000 0.000000 0.000000" charge=0
N	-3.467985	-0.496821	0.064167	7
C	-2.306265	-0.465801	0.097047	6
C	-0.877925	-0.363771	0.127757	6
N	-0.187465	-1.459391	0.139037	7
N	1.107705	-1.050071	0.208197	7
C	1.253255	0.352529	-0.178433	6
C	-0.121615	0.911589	0.149967	6
H	1.751315	-1.677271	-0.279693	1
H	1.451985	0.429289	-1.253393	1
H	2.053985	0.855489	0.370017	1
H	-0.487595	1.618469	-0.597643	1
H	-0.169395	1.345759	1.152977	1
Es	1.253195	0.352394	-0.178384	99
Es	-0.550518	0.275941	0.147559	99
Es	1.521296	-1.425683	-0.020036	99
Es	-0.263081	-1.757546	0.131511	99
Es	0.463163	-1.257832	0.138431	99
Es	-0.157504	1.178593	0.797568	99
Es	1.173779	-0.445131	0.035732	99
Es	-2.915585	-0.787937	0.096932	99
Es	-0.878106	-0.363773	0.127782	99
Es	0.573299	0.662423	-0.015402	99
Es	-2.938069	-0.256958	0.262266	99
Es	-2.305878	-0.465840	0.097054	99
Es	1.069306	-1.064670	0.392358	99
Es	1.815274	0.681389	0.177169	99
Es	1.376887	0.396377	-0.883889	99
Es	-0.561752	-0.950112	0.421421	99
Es	-0.555536	-0.927950	-0.172722	99
Es	-3.467526	-0.496805	0.064179	99
Es	-2.925357	-0.413146	-0.120761	99
Es	1.107579	-1.050066	0.208151	99
Es	-0.121626	0.911499	0.149956	99
Es	-0.187221	-1.458853	0.139050	99
Es	-1.634502	-0.416061	0.116959	99
Es	-0.378670	1.388303	-0.339285	99
Es	-3.842154	-0.485238	0.052747	99
37
Properties=species:S:1:pos:R:3:Z:I:1 energy=-317.77789032584155 field_type=dipole dipole="0.000000 0.000000 0.000000" charge=0
N	-3.467985	-0.496821	0.064167	7
C	-2.306265	-0.465801	0.097047	6
C	-0.877925	-0.363771	0.127757	6
N	-0.187465	-1.459391	0.139037	7
N	1.107705	-1.050071	0.208197	7
C	1.253255	0.352529	-0.178433	6
C	-0.121615	0.911589	0.149967	6
H	1.751315	-1.677271	-0.279693	1
H	1.451985	0.429289	-1.253393	1
H	2.053985	0.855489	0.370017	1
H	-0.487595	1.618469	-0.597643	1
H	-0.169395	1.345759	1.152977	1
Es	1.173878	-0.444790	0.036686	99
Es	1.107676	-1.050168	0.209788	99
Es	-0.262342	-1.755603	0.131500	99
Es	-0.187268	-1.458774	0.139039	99
Es	0.573248	0.662244	-0.015333	99
Es	-0.157400	1.178494	0.796982	99
Es	-2.915662	-0.787477	0.101303	99
Es	-2.938030	-0.250680	0.255442	99
Es	-0.562962	-0.948822	0.422089	99
Es	1.521520	-1.425377	-0.019430	99
Es	-1.634512	-0.415986	0.116825	99
Es	-3.467527	-0.496806	0.064179	99
Es	-0.878106	-0.363772	0.127782	99
Es	-0.121624	0.911501	0.149957	99
Es	-3.842188	-0.485338	0.052899	99
Es	1.815699	0.680859	0.176537	99
Es	1.068857	-1.064897	0.389085	99
Es	-2.305878	-0.465836	0.097056	99
Es	-2.925281	-0.419743	-0.118457	99
Es	-0.379211	1.388127	-0.339440	99
Es	1.253195	0.352397	-0.178384	99
Es	1.376604	0.396314	-0.882968	99
Es	-0.550481	0.275630	0.147896	99
Es	-0.554671	-0.930311	-0.172914	99
Es	0.463160	-1.257867	0.138229	99
37
Properties=species:S:1:pos:R:3:Z:I:1 energy=-317.77789032584155 field_type=dipole dipole="0.000000 0.000000 0.000000" charge=0
N	-3.467985	-0.496821	0.064167	7
C	-2.306265	-0.465801	0.097047	6
C	-0.877925	-0.363771	0.127757	6
N	-0.187465	-1.459391	0.139037	7
N	1.107705	-1.050071	0.208197	7
C	1.253255	0.352529	-0.178433	6
C	-0.121615	0.911589	0.149967	6
H	1.751315	-1.677271	-0.279693	1
H	1.451985	0.429289	-1.253393	1
H	2.053985	0.855489	0.370017	1
H	-0.487595	1.618469	-0.597643	1
H	-0.169395	1.345759	1.152977	1
Es	-0.878106	-0.363773	0.127783	99
Es	-0.187218	-1.458721	0.139048	99
Es	-0.121624	0.911501	0.149957	99
Es	1.253195	0.352393	-0.178387	99
Es	-0.551008	0.275076	0.148250	99
Es	-0.157304	1.178187	0.796463	99
Es	1.107596	-1.050045	0.208302	99
Es	-0.261819	-1.753848	0.131630	99
Es	0.463119	-1.258131	0.138437	99
Es	-2.915392	-0.787753	0.099516	99
Es	1.521798	-1.424980	-0.018565	99
Es	-2.305879	-0.465841	0.097054	99
Es	1.376432	0.396096	-0.882426	99
Es	-2.937988	-0.246577	0.250413	99
Es	-1.634519	-0.415928	0.117024	99
Es	-0.562275	-0.950866	0.422700	99
Es	-3.467525	-0.496804	0.064180	99
Es	1.815997	0.680477	0.175973	99
Es	0.573227	0.662197	-0.015275	99
Es	-2.925601	-0.423755	-0.111790	99
Es	1.068793	-1.065070	0.389019	99
Es	-0.555590	-0.929012	-0.174153	99
Es	1.173733	-0.444705	0.037180	99
Es	-0.379171	1.388311	-0.339034	99
Es	-3.842178	-0.485109	0.053047	99
37
Properties=species:S:1:pos:R:3:Z:I:1 energy=-317.77789032584155 field_type=dipole dipole="0.000000 0.000000 0.000000" charge=0
N	-3.467985	-0.496821	0.064167	7
C	-2.306265	-0.465801	0.097047	6
C	-0.877925	-0.363771	0.127757	6
N	-0.187465	-1.459391	0.139037	7
N	1.107705	-1.050071	0.208197	7
C	1.253255	0.352529	-0.178433	6
C	-0.121615	0.911589	0.149967	6
H	1.751315	-1.677271	-0.279693	1
H	1.451985	0.429289	-1.253393	1
H	2.053985	0.855489	0.370017	1
H	-0.487595	1.618469	-0.597643	1
H	-0.169395	1.345759	1.152977	1
Es	1.173913	-0.444693	0.037702	99
Es	1.107360	-1.050039	0.207462	99
Es	-0.878106	-0.363775	0.127806	99
Es	1.376025	0.396305	-0.880704	99
Es	-2.910235	-0.734640	-0.091642	99
Es	-2.305878	-0.465838	0.097058	99
Es	-0.157056	1.177274	0.795021	99
Es	0.463111	-1.258236	0.138580	99
Es	-0.561962	-0.951695	0.422994	99
Es	0.573230	0.662235	-0.015249	99
Es	-0.121624	0.911501	0.149956	99
Es	-3.842090	-0.484528	0.053365	99
Es	-3.467528	-0.496806	0.064179	99
Es	-0.551080	0.275038	0.148596	99
Es	-0.187240	-1.458992	0.139052	99
Es	-1.634503	-0.415774	0.117167	99
Es	-0.379545	1.389058	-0.338409	99
Es	1.068630	-1.065438	0.387189	99
Es	1.522086	-1.424641	-0.016931	99
Es	-2.933265	-0.531325	0.276134	99
Es	1.816404	0.680156	0.174994	99
Es	-2.935597	-0.192878	0.053011	99
Es	-0.555957	-0.928456	-0.174245	99
Es	1.253193	0.352388	-0.178382	99
Es	-0.261594	-1.752882	0.131641	99
37
Properties=species:S:1:pos:R:3:Z:I:1 energy=-317.77789032584155 field_type=dipole dipole="0.000000 0.000000 0.000000" charge=0
N	-3.467985	-0.496821	0.064167	7
C	-2.306265	-0.465801	0.097047	6
C	-0.877925	-0.363771	0.127757	6
N	-0.187465	-1.459391	0.139037	7
N	1.107705	-1.050071	0.208197	7
C	1.253255	0.352529	-0.178433	6
C	-0.121615	0.911589	0.149967	6
H	1.751315	-1.677271	-0.279693	1
H	1.451985	0.429289	-1.253393	1
H	2.053985	0.855489	0.370017	1
H	-0.487595	1.618469	-0.597643	1
H	-0.169395	1.345759	1.152977	1
Es	-2.935237	-0.196046	0.036633	99
Es	1.375977	0.396090	-0.880350	99
Es	-0.379720	1.388904	-0.338332	99
Es	0.573161	0.662088	-0.015481	99
Es	-3.467526	-0.496806	0.064179	99
Es	-0.157113	1.177213	0.795212	99
Es	-1.634501	-0.415652	0.117297	99
Es	1.174610	-0.443860	0.041382	99
Es	-2.305877	-0.465835	0.097058	99
Es	-0.187234	-1.458718	0.139044	99
Es	-0.121627	0.911509	0.149973	99
Es	1.522270	-1.424266	-0.016849	99
Es	-2.910313	-0.744029	-0.077856	99
Es	0.463129	-1.258114	0.138165	99
Es	-0.261181	-1.751793	0.131445	99
Es	1.107456	-1.050041	0.207650	99
Es	-3.842055	-0.484254	0.053229	99
Es	-2.933583	-0.519034	0.278857	99
Es	-0.878106	-0.363772	0.127793	99
Es	-0.563086	-0.950793	0.423053	99
Es	1.067573	-1.066344	0.383631	99
Es	-0.555000	-0.929789	-0.174831	99
Es	1.816607	0.679699	0.174829	99
Es	-0.551130	0.274563	0.149002	99
Es	1.253198	0.352400	-0.178387	99
37
Properties=species:S:1:pos:R:3:Z:I:1 energy=-317.77789032584155 field_type=dipole dipole="0.000000 0.000000 0.000000" charge=0
N	-3.467985	-0.496821	0.064167	7
C	-2.306265	-0.465801	0.097047	6
C	-0.877925	-0.363771	0.127757	6
N	-0.187465	-1.459391	0.139037	7
N	1.107705	-1.050071	0.208197	7
C	1.253255	0.352529	-0.178433	6
C	-0.121615	0.911589	0.149967	6
H	1.751315	-1.677271	-0.279693	1
H	1.451985	0.429289	-1.253393	1
H	2.053985	0.855489	0.370017	1
H	-0.487595	1.618469	-0.597643	1
H	-0.169395	1.345759	1.152977	1
Es	1.522457	-1.424082	-0.015520	99
Es	-0.156760	1.176287	0.793383	99
Es	-2.935678	-0.192570	0.056242	99
Es	-3.467527	-0.496806	0.064179	99
Es	-2.305878	-0.465837	0.097058	99
Es	-2.910170	-0.733634	-0.092790	99
Es	0.573241	0.662255	-0.015323	99
Es	1.816902	0.679496	0.173951	99
Es	-0.380277	1.389595	-0.337665	99
Es	1.107063	-1.050034	0.207362	99
Es	-0.878106	-0.363773	0.127769	99
Es	-2.933230	-0.532628	0.274002	99
Es	-0.121626	0.911500	0.149960	99
Es	-0.562414	-0.951601	0.423517	99
Es	-0.555789	-0.929434	-0.175087	99
Es	-1.634517	-0.415739	0.117135	99
Es	-0.187215	-1.458724	0.139048	99
Es	1.174315	-0.444392	0.039932	99
Es	1.068183	-1.066125	0.383051	99
Es	0.463067	-1.258386	0.138755	99
Es	1.253195	0.352398	-0.178384	99
Es	-0.551106	0.274629	0.149351	99
Es	1.375623	0.396340	-0.878963	99
Es	-3.842094	-0.484414	0.053546	99
Es	-0.260968	-1.751005	0.131837	99
