47
Properties=species:S:1:pos:R:3:Z:I:1 energy=-305.284737292046 field_type=dipole dipole="0.000000 0.000000 0.000000" charge=0
N	-3.091966	0.451841	-0.117941	7
C	-1.745376	0.178061	-0.604661	6
C	-0.832996	-0.250859	0.544049	6
C	0.556114	-0.573499	0.009229	6
C	1.455314	0.609551	-0.423411	6
C	2.576643	-0.169739	0.282979	6
N	1.532173	-0.818599	1.106269	7
H	-3.662606	0.814421	-0.880301	1
H	-3.058696	1.185421	0.589279	1
H	-1.346496	1.074211	-1.092541	1
H	-1.792676	-0.610999	-1.363191	1
H	-1.252406	-1.138459	1.035299	1
H	-0.785236	0.544161	1.299839	1
H	0.540664	-1.390259	-0.726421	1
H	1.215374	1.569811	0.048549	1
H	1.576243	0.755481	-1.499501	1
H	3.120564	-0.864119	-0.368121	1
H	3.294724	0.434521	0.843179	1
H	1.700644	-1.800949	1.317419	1
Es	3.078702	0.242221	0.667552	99
Es	-1.776531	-0.365338	-1.126835	99
Es	1.455325	0.609502	-0.423395	99
Es	-3.422823	0.687545	-0.585287	99
Es	-3.240848	0.162017	0.019291	99
Es	1.537376	0.712802	-1.164336	99
Es	0.937262	0.057441	-0.268398	99
Es	-0.833002	-0.250853	0.543998	99
Es	-3.091719	0.452333	-0.118169	99
Es	1.532314	-0.818886	1.105779	99
Es	2.945584	-0.651139	-0.172316	99
Es	0.545110	-1.134931	-0.503237	99
Es	-0.799569	0.299953	1.052538	99
Es	2.039044	-0.584442	0.776538	99
Es	0.556211	-0.573495	0.009334	99
Es	1.085462	-0.778070	0.643289	99
Es	-3.056590	0.910631	0.295346	99
Es	-2.507202	0.359048	-0.336379	99
Es	-1.291791	-0.035233	-0.031593	99
Es	-1.457244	0.798667	-0.942971	99
Es	1.639139	-1.423483	1.215507	99
Es	2.080230	0.278746	-0.113907	99
Es	-1.745492	0.178083	-0.604596	99
Es	2.576515	-0.169791	0.283038	99
Es	1.449851	-0.618277	1.390135	99
Es	-1.115326	-0.859724	0.873978	99
Es	1.287756	1.256972	-0.094799	99
Es	-0.147821	-0.409926	0.269665	99
47
Properties=species:S:1:pos:R:3:Z:I:1 energy=-305.284737292046 field_type=dipole dipole="0.000000 0.000000 0.000000" charge=0
N	-3.091966	0.451841	-0.117941	7
C	-1.745376	0.178061	-0.604661	6
C	-0.832996	-0.250859	0.544049	6
C	0.556114	-0.573499	0.009229	6
C	1.455314	0.609551	-0.423411	6
C	2.576643	-0.169739	0.282979	6
N	1.532173	-0.818599	1.106269	7
H	-3.662606	0.814421	-0.880301	1
H	-3.058696	1.185421	0.589279	1
H	-1.346496	1.074211	-1.092541	1
H	-1.792676	-0.610999	-1.363191	1
H	-1.252406	-1.138459	1.035299	1
H	-0.785236	0.544161	1.299839	1
H	0.540664	-1.390259	-0.726421	1
H	1.215374	1.569811	0.048549	1
H	1.576243	0.755481	-1.499501	1
H	3.120564	-0.864119	-0.368121	1
H	3.294724	0.434521	0.843179	1
H	1.700644	-1.800949	1.317419	1
Es	1.537668	0.712600	-1.164620	99
Es	1.639194	-1.423938	1.215060	99
Es	2.576520	-0.169794	0.283036	99
Es	2.079596	0.278678	-0.113765	99
Es	-3.422306	0.687684	-0.585936	99
Es	-2.508200	0.359319	-0.336005	99
Es	-3.240852	0.160966	0.019572	99
Es	1.287791	1.257233	-0.094499	99
Es	0.556212	-0.573496	0.009334	99
Es	1.455323	0.609501	-0.423395	99
Es	2.945564	-0.651218	-0.172438	99
Es	-3.055827	0.911273	0.295320	99
Es	-1.745495	0.178084	-0.604595	99
Es	-1.291772	-0.035278	-0.031670	99
Es	3.078692	0.242168	0.667524	99
Es	-3.091725	0.452323	-0.118165	99
Es	-0.147844	-0.409899	0.269616	99
Es	-1.776642	-0.365529	-1.127020	99
Es	-1.457186	0.798857	-0.942811	99
Es	1.086607	-0.778428	0.643191	99
Es	-0.833002	-0.250853	0.543997	99
Es	-1.115265	-0.860058	0.873870	99
Es	-0.799344	0.300253	1.052740	99
Es	2.038626	-0.584673	0.776450	99
Es	0.544856	-1.135115	-0.503464	99
Es	1.449013	-0.617227	1.390945	99
Es	1.532321	-0.818891	1.105765	99
Es	0.937397	0.057825	-0.268271	99
47
Properties=species:S:1:pos:R:3:Z:I:1 energy=-305.284737292046 field_type=dipole dipole="0.000000 0.000000 0.000000" charge=0
N	-3.091966	0.451841	-0.117941	7
C	-1.745376	0.178061	-0.604661	6
C	-0.832996	-0.250859	0.544049	6
C	0.556114	-0.573499	0.009229	6
C	1.455314	0.609551	-0.423411	6
C	2.576643	-0.169739	0.282979	6
N	1.532173	-0.818599	1.106269	7
H	-3.662606	0.814421	-0.880301	1
H	-3.058696	1.185421	0.589279	1
H	-1.346496	1.074211	-1.092541	1
H	-1.792676	-0.610999	-1.363191	1
H	-1.252406	-1.138459	1.035299	1
H	-0.785236	0.544161	1.299839	1
H	0.540664	-1.390259	-0.726421	1
H	1.215374	1.569811	0.048549	1
H	1.576243	0.755481	-1.499501	1
H	3.120564	-0.864119	-0.368121	1
H	3.294724	0.434521	0.843179	1
H	1.700644	-1.800949	1.317419	1
Es	1.639418	-1.424258	1.215568	99
Es	2.079415	0.278804	-0.113898	99
Es	-0.833002	-0.250854	0.543998	99
Es	1.287789	1.257417	-0.094245	99
Es	2.576520	-0.169794	0.283036	99
Es	2.945718	-0.651192	-0.172538	99
Es	-2.508112	0.358968	-0.335952	99
Es	-3.055867	0.911411	0.295722	99
Es	-1.745495	0.178083	-0.604595	99
Es	-0.147777	-0.409759	0.269685	99
Es	-3.091724	0.452322	-0.118165	99
Es	-1.291788	-0.034997	-0.031755	99
Es	-1.457215	0.799072	-0.942734	99
Es	0.937586	0.058037	-0.268084	99
Es	3.078522	0.242082	0.667560	99
Es	1.455326	0.609502	-0.423395	99
Es	-3.421369	0.688104	-0.585760	99
Es	-1.115199	-0.860445	0.873696	99
Es	-0.799186	0.300262	1.052953	99
Es	2.037948	-0.585272	0.776194	99
Es	1.086969	-0.778657	0.642969	99
Es	0.556211	-0.573496	0.009334	99
Es	-3.241604	0.160656	0.018943	99
Es	-1.776669	-0.365753	-1.127115	99
Es	1.532299	-0.818876	1.105801	99
Es	1.449010	-0.616098	1.390883	99
Es	1.537570	0.712472	-1.164750	99
Es	0.544629	-1.135372	-0.503590	99
47
Properties=species:S:1:pos:R:3:Z:I:1 energy=-305.284737292046 field_type=dipole dipole="0.000000 0.000000 0.000000" charge=0
N	-3.091966	0.451841	-0.117941	7
C	-1.745376	0.178061	-0.604661	6
C	-0.832996	-0.250859	0.544049	6
C	0.556114	-0.573499	0.009229	6
C	1.455314	0.609551	-0.423411	6
C	2.576643	-0.169739	0.282979	6
N	1.532173	-0.818599	1.106269	7
H	-3.662606	0.814421	-0.880301	1
H	-3.058696	1.185421	0.589279	1
H	-1.346496	1.074211	-1.092541	1
H	-1.792676	-0.610999	-1.363191	1
H	-1.252406	-1.138459	1.035299	1
H	-0.785236	0.544161	1.299839	1
H	0.540664	-1.390259	-0.726421	1
H	1.215374	1.569811	0.048549	1
H	1.576243	0.755481	-1.499501	1
H	3.120564	-0.864119	-0.368121	1
H	3.294724	0.434521	0.843179	1
H	1.700644	-1.800949	1.317419	1
Es	0.937803	0.058275	-0.268006	99
Es	-1.115270	-0.860457	0.873781	99
Es	-3.055686	0.911611	0.295908	99
Es	1.449064	-0.615332	1.391093	99
Es	-0.147990	-0.410056	0.269742	99
Es	3.078491	0.242036	0.667481	99
Es	1.639471	-1.424642	1.215571	99
Es	-0.798941	0.300570	1.052931	99
Es	1.537673	0.712347	-1.165051	99
Es	2.945740	-0.651190	-0.172508	99
Es	1.087337	-0.778557	0.643004	99
Es	-1.745496	0.178083	-0.604594	99
Es	0.556212	-0.573495	0.009334	99
Es	-0.833002	-0.250853	0.543998	99
Es	1.532316	-0.818897	1.105774	99
Es	-1.776832	-0.365841	-1.127092	99
Es	0.544614	-1.135440	-0.503609	99
Es	2.576519	-0.169794	0.283036	99
Es	-3.241685	0.159962	0.018798	99
Es	2.079071	0.278824	-0.113902	99
Es	-3.091728	0.452325	-0.118180	99
Es	1.287740	1.257486	-0.094031	99
Es	-3.420931	0.688262	-0.585854	99
Es	2.037429	-0.585706	0.776069	99
Es	1.455326	0.609501	-0.423395	99
Es	-2.508438	0.359321	-0.335914	99
Es	-1.291640	-0.035104	-0.031788	99
Es	-1.457243	0.799134	-0.942828	99
47
Properties=species:S:1:pos:R:3:Z:I:1 energy=-305.284737292046 field_type=dipole dipole="0.000000 0.000000 0.000000" charge=0
N	-3.091966	0.451841	-0.117941	7
C	-1.745376	0.178061	-0.604661	6
C	-0.832996	-0.250859	0.544049	6
C	0.556114	-0.573499	0.009229	6
C	1.455314	0.609551	-0.423411	6
C	2.576643	-0.169739	0.282979	6
N	1.532173	-0.818599	1.106269	7
H	-3.662606	0.814421	-0.880301	1
H	-3.058696	1.185421	0.589279	1
H	-1.346496	1.074211	-1.092541	1
H	-1.792676	-0.610999	-1.363191	1
H	-1.252406	-1.138459	1.035299	1
H	-0.785236	0.544161	1.299839	1
H	0.540664	-1.390259	-0.726421	1
H	1.215374	1.569811	0.048549	1
H	1.576243	0.755481	-1.499501	1
H	3.120564	-0.864119	-0.368121	1
H	3.294724	0.434521	0.843179	1
H	1.700644	-1.800949	1.317419	1
Es	-1.115096	-0.860652	0.873815	99
Es	3.078423	0.241971	0.667414	99
Es	-1.457230	0.799219	-0.942780	99
Es	2.945797	-0.651221	-0.172477	99
Es	2.576517	-0.169793	0.283037	99
Es	-3.242063	0.159537	0.018456	99
Es	-1.745496	0.178082	-0.604596	99
Es	0.556212	-0.573496	0.009334	99
Es	1.287731	1.257683	-0.093961	99
Es	1.537732	0.712219	-1.165004	99
Es	1.449095	-0.614845	1.390954	99
Es	-3.420394	0.688609	-0.585785	99
Es	-2.508649	0.359316	-0.335921	99
Es	2.078843	0.278859	-0.113988	99
Es	-0.148198	-0.409864	0.269660	99
Es	-0.833003	-0.250854	0.543997	99
Es	-1.776875	-0.365896	-1.127142	99
Es	1.087567	-0.778666	0.643155	99
Es	1.532308	-0.818880	1.105789	99
Es	0.937841	0.058229	-0.268030	99
Es	-1.291655	-0.035296	-0.031849	99
Es	1.455327	0.609502	-0.423395	99
Es	-0.798860	0.300819	1.052959	99
Es	2.037265	-0.585927	0.775938	99
Es	1.639498	-1.424855	1.215852	99
Es	-3.055514	0.911697	0.296155	99
Es	-3.091738	0.452301	-0.118161	99
Es	0.544535	-1.135428	-0.503660	99
47
Properties=species:S:1:pos:R:3:Z:I:1 energy=-305.284737292046 field_type=dipole dipole="0.000000 0.000000 0.000000" charge=0
N	-3.091966	0.451841	-0.117941	7
C	-1.745376	0.178061	-0.604661	6
C	-0.832996	-0.250859	0.544049	6
C	0.556114	-0.573499	0.009229	6
C	1.455314	0.609551	-0.423411	6
C	2.576643	-0.169739	0.282979	6
N	1.532173	-0.818599	1.106269	7
H	-3.662606	0.814421	-0.880301	1
H	-3.058696	1.185421	0.589279	1
H	-1.346496	1.074211	-1.092541	1
H	-1.792676	-0.610999	-1.363191	1
H	-1.252406	-1.138459	1.035299	1
H	-0.785236	0.544161	1.299839	1
H	0.540664	-1.390259	-0.726421	1
H	1.215374	1.569811	0.048549	1
H	1.576243	0.755481	-1.499501	1
H	3.120564	-0.864119	-0.368121	1
H	3.294724	0.434521	0.843179	1
H	1.700644	-1.800949	1.317419	1
Es	1.449149	-0.614533	1.391229	99
Es	1.532315	-0.818884	1.105758	99
Es	1.537678	0.712224	-1.165067	99
Es	2.576518	-0.169794	0.283036	99
Es	3.078355	0.241816	0.667399	99
Es	-1.457228	0.799296	-0.942804	99
Es	-3.241861	0.159303	0.018352	99
Es	-1.745495	0.178083	-0.604594	99
Es	0.556212	-0.573495	0.009334	99
Es	1.639540	-1.425016	1.215669	99
Es	0.544420	-1.135479	-0.503760	99
Es	1.287691	1.257737	-0.093744	99
Es	1.087683	-0.778651	0.643104	99
Es	-3.420381	0.688776	-0.586110	99
Es	2.078756	0.278972	-0.113975	99
Es	-1.115049	-0.860831	0.873808	99
Es	-0.833002	-0.250853	0.543999	99
Es	-1.291655	-0.035250	-0.031856	99
Es	-0.798904	0.300767	1.052956	99
Es	-0.148032	-0.409754	0.269711	99
Es	2.945840	-0.651237	-0.172604	99
Es	1.455326	0.609501	-0.423395	99
Es	-3.091730	0.452324	-0.118164	99
Es	-3.055492	0.911524	0.296316	99
Es	0.938010	0.058414	-0.267974	99
Es	2.036988	-0.586153	0.775913	99
Es	-1.776981	-0.365969	-1.127150	99
Es	-2.508748	0.359532	-0.335621	99
47
Properties=species:S:1:pos:R:3:Z:I:1 energy=-305.284737292046 field_type=dipole dipole="0.000000 0.000000 0.000000" charge=0
N	-3.091966	0.451841	-0.117941	7
C	-1.745376	0.178061	-0.604661	6
C	-0.832996	-0.250859	0.544049	6
C	0.556114	-0.573499	0.009229	6
C	1.455314	0.609551	-0.423411	6
C	2.576643	-0.169739	0.282979	6
N	1.532173	-0.818599	1.106269	7
H	-3.662606	0.814421	-0.880301	1
H	-3.058696	1.185421	0.589279	1
H	-1.346496	1.074211	-1.092541	1
H	-1.792676	-0.610999	-1.363191	1
H	-1.252406	-1.138459	1.035299	1
H	-0.785236	0.544161	1.299839	1
H	0.540664	-1.390259	-0.726421	1
H	1.215374	1.569811	0.048549	1
H	1.576243	0.755481	-1.499501	1
H	3.120564	-0.864119	-0.368121	1
H	3.294724	0.434521	0.843179	1
H	1.700644	-1.800949	1.317419	1
Es	-3.242251	0.159181	0.018165	99
Es	1.532305	-0.818854	1.105785	99
Es	1.639553	-1.425274	1.215831	99
Es	2.078701	0.279145	-0.114132	99
Es	-1.291673	-0.035348	-0.031866	99
Es	-1.745494	0.178084	-0.604594	99
Es	1.455325	0.609501	-0.423395	99
Es	1.287630	1.257711	-0.093707	99
Es	-0.148065	-0.409712	0.269708	99
Es	-3.091718	0.452317	-0.118168	99
Es	3.078275	0.241801	0.667418	99
Es	1.537638	0.712164	-1.165232	99
Es	-3.055534	0.911626	0.296379	99
Es	2.576518	-0.169794	0.283036	99
Es	0.556211	-0.573494	0.009332	99
Es	0.938127	0.058323	-0.267891	99
Es	2.945931	-0.651248	-0.172466	99
Es	-2.508705	0.359427	-0.335655	99
Es	-0.833003	-0.250854	0.543997	99
Es	-1.457202	0.799338	-0.942740	99
Es	2.036732	-0.586281	0.776024	99
Es	1.448825	-0.614048	1.391147	99
Es	-1.115007	-0.860891	0.873819	99
Es	-1.776992	-0.365962	-1.127205	99
Es	0.544378	-1.135569	-0.503724	99
Es	1.088249	-0.778681	0.642924	99
Es	-3.419962	0.688901	-0.585988	99
Es	-0.798867	0.300861	1.052964	99
47
Properties=species:S:1:pos:R:3:Z:I:1 energy=-305.284737292046 field_type=dipole dipole="0.000000 0.000000 0.000000" charge=0
N	-3.091966	0.451841	-0.117941	7
C	-1.745376	0.178061	-0.604661	6
C	-0.832996	-0.250859	0.544049	6
C	0.556114	-0.573499	0.009229	6
C	1.455314	0.609551	-0.423411	6
C	2.576643	-0.169739	0.282979	6
N	1.532173	-0.818599	1.106269	7
H	-3.662606	0.814421	-0.880301	1
H	-3.058696	1.185421	0.589279	1
H	-1.346496	1.074211	-1.092541	1
H	-1.792676	-0.610999	-1.363191	1
H	-1.252406	-1.138459	1.035299	1
H	-0.785236	0.544161	1.299839	1
H	0.540664	-1.390259	-0.726421	1
H	1.215374	1.569811	0.048549	1
H	1.576243	0.755481	-1.499501	1
H	3.120564	-0.864119	-0.368121	1
H	3.294724	0.434521	0.843179	1
H	1.700644	-1.800949	1.317419	1
Es	2.945635	-0.650119	-0.172240	99
Es	-0.833003	-0.250853	0.543998	99
Es	-3.166018	0.308798	-0.051991	99
Es	0.556212	-0.573495	0.009333	99
Es	-3.421028	0.688321	-0.587049	99
Es	1.455325	0.609502	-0.423395	99
Es	2.077406	0.280043	-0.115263	99
Es	-0.798172	0.301336	1.051260	99
Es	1.638089	-1.427395	1.220073	99
Es	0.543742	-1.135981	-0.502297	99
Es	1.289129	1.257898	-0.093606	99
Es	1.532315	-0.818898	1.105763	99
Es	0.937092	0.058517	-0.268631	99
Es	3.078403	0.242008	0.666692	99
Es	-1.115963	-0.863467	0.875053	99
Es	-0.148470	-0.409487	0.269738	99
Es	-1.456223	0.801126	-0.943785	99
Es	-1.777346	-0.366469	-1.125611	99
Es	1.446099	-0.616829	1.383885	99
Es	-1.291297	-0.035258	-0.032041	99
Es	2.038964	-0.582688	0.778020	99
Es	1.539078	0.712553	-1.164858	99
Es	-3.166444	0.309647	-0.052448	99
Es	-1.745495	0.178083	-0.604594	99
Es	2.576516	-0.169795	0.283036	99
Es	-2.507123	0.353573	-0.334526	99
Es	-3.056746	0.910262	0.300814	99
Es	1.089248	-0.778559	0.644435	99
47
Properties=species:S:1:pos:R:3:Z:I:1 energy=-305.284737292046 field_type=dipole dipole="0.000000 0.000000 0.000000" charge=0
N	-3.091966	0.451841	-0.117941	7
C	-1.745376	0.178061	-0.604661	6
C	-0.832996	-0.250859	0.544049	6
C	0.556114	-0.573499	0.009229	6
C	1.455314	0.609551	-0.423411	6
C	2.576643	-0.169739	0.282979	6
N	1.532173	-0.818599	1.106269	7
H	-3.662606	0.814421	-0.880301	1
H	-3.058696	1.185421	0.589279	1
H	-1.346496	1.074211	-1.092541	1
H	-1.792676	-0.610999	-1.363191	1
H	-1.252406	-1.138459	1.035299	1
H	-0.785236	0.544161	1.299839	1
H	0.540664	-1.390259	-0.726421	1
H	1.215374	1.569811	0.048549	1
H	1.576243	0.755481	-1.499501	1
H	3.120564	-0.864119	-0.368121	1
H	3.294724	0.434521	0.843179	1
H	1.700644	-1.800949	1.317419	1
Es	-1.745495	0.178083	-0.604594	99
Es	0.556212	-0.573495	0.009333	99
Es	2.078540	0.278999	-0.114126	99
Es	2.945997	-0.651277	-0.172456	99
Es	-1.777050	-0.366205	-1.127260	99
Es	-3.419734	0.689044	-0.586179	99
Es	-3.091724	0.452332	-0.118151	99
Es	1.448681	-0.613441	1.391308	99
Es	-1.457224	0.799391	-0.942717	99
Es	0.544329	-1.135497	-0.503721	99
Es	-3.055217	0.911803	0.296134	99
Es	-0.148142	-0.409768	0.269757	99
Es	-2.508861	0.359422	-0.335463	99
Es	1.537691	0.712024	-1.165198	99
Es	-1.115037	-0.861028	0.873832	99
Es	2.036422	-0.586512	0.775865	99
Es	-0.798786	0.300898	1.052963	99
Es	1.287555	1.257921	-0.093590	99
Es	2.576519	-0.169794	0.283036	99
Es	0.938217	0.058599	-0.268061	99
Es	1.639658	-1.425446	1.215836	99
Es	-1.291666	-0.035119	-0.031953	99
Es	-3.242438	0.158871	0.018398	99
Es	1.088663	-0.778969	0.643011	99
Es	1.455325	0.609502	-0.423395	99
Es	1.532299	-0.818851	1.105821	99
Es	-0.833002	-0.250852	0.543998	99
Es	3.078192	0.241737	0.667340	99
47
Properties=species:S:1:pos:R:3:Z:I:1 energy=-305.284737292046 field_type=dipole dipole="0.000000 0.000000 0.000000" charge=0
N	-3.091966	0.451841	-0.117941	7
C	-1.745376	0.178061	-0.604661	6
C	-0.832996	-0.250859	0.544049	6
C	0.556114	-0.573499	0.009229	6
C	1.455314	0.609551	-0.423411	6
C	2.576643	-0.169739	0.282979	6
N	1.532173	-0.818599	1.106269	7
H	-3.662606	0.814421	-0.880301	1
H	-3.058696	1.185421	0.589279	1
H	-1.346496	1.074211	-1.092541	1
H	-1.792676	-0.610999	-1.363191	1
H	-1.252406	-1.138459	1.035299	1
H	-0.785236	0.544161	1.299839	1
H	0.540664	-1.390259	-0.726421	1
H	1.215374	1.569811	0.048549	1
H	1.576243	0.755481	-1.499501	1
H	3.120564	-0.864119	-0.368121	1
H	3.294724	0.434521	0.843179	1
H	1.700644	-1.800949	1.317419	1
Es	-3.242315	0.158649	0.018131	99
Es	3.078120	0.241747	0.667285	99
Es	2.078686	0.278993	-0.113962	99
Es	1.287545	1.257827	-0.093635	99
Es	-1.777080	-0.366050	-1.127075	99
Es	-3.091748	0.452329	-0.118178	99
Es	0.556212	-0.573496	0.009334	99
Es	2.946049	-0.651274	-0.172554	99
Es	-0.798670	0.301037	1.053075	99
Es	-1.114996	-0.861065	0.873749	99
Es	1.455325	0.609502	-0.423395	99
Es	2.576518	-0.169795	0.283036	99
Es	1.448754	-0.613220	1.391397	99
Es	0.544323	-1.135607	-0.503750	99
Es	-1.457221	0.799405	-0.942906	99
Es	1.088540	-0.778918	0.643013	99
Es	2.036181	-0.586637	0.775882	99
Es	-0.148289	-0.409769	0.269724	99
Es	-1.291530	-0.035305	-0.031901	99
Es	0.938354	0.058744	-0.267886	99
Es	-0.833002	-0.250853	0.543998	99
Es	1.639689	-1.425516	1.215824	99
Es	1.532319	-0.818917	1.105771	99
Es	-2.509030	0.359614	-0.335511	99
Es	-1.745495	0.178083	-0.604595	99
Es	1.537617	0.712018	-1.165325	99
Es	-3.055317	0.911646	0.296431	99
Es	-3.419617	0.689195	-0.586210	99
47
Properties=species:S:1:pos:R:3:Z:I:1 energy=-305.284737292046 field_type=dipole dipole="0.000000 0.000000 0.000000" charge=0
N	-3.091966	0.451841	-0.117941	7
C	-1.745376	0.178061	-0.604661	6
C	-0.832996	-0.250859	0.544049	6
C	0.556114	-0.573499	0.009229	6
C	1.455314	0.609551	-0.423411	6
C	2.576643	-0.169739	0.282979	6
N	1.532173	-0.818599	1.106269	7
H	-3.662606	0.814421	-0.880301	1
H	-3.058696	1.185421	0.589279	1
H	-1.346496	1.074211	-1.092541	1
H	-1.792676	-0.610999	-1.363191	1
H	-1.252406	-1.138459	1.035299	1
H	-0.785236	0.544161	1.299839	1
H	0.540664	-1.390259	-0.726421	1
H	1.215374	1.569811	0.048549	1
H	1.576243	0.755481	-1.499501	1
H	3.120564	-0.864119	-0.368121	1
H	3.294724	0.434521	0.843179	1
H	1.700644	-1.800949	1.317419	1
Es	-2.509280	0.359804	-0.335307	99
Es	0.938269	0.058697	-0.267951	99
Es	-3.091707	0.452372	-0.118186	99
Es	1.448704	-0.612976	1.391597	99
Es	-1.457233	0.799440	-0.942828	99
Es	-1.745495	0.178083	-0.604595	99
Es	1.537713	0.711987	-1.165310	99
Es	0.556213	-0.573496	0.009334	99
Es	-3.419918	0.689085	-0.586536	99
Es	1.532314	-0.818888	1.105775	99
Es	2.078502	0.279114	-0.114044	99
Es	1.455325	0.609503	-0.423395	99
Es	1.639615	-1.425630	1.215704	99
Es	2.946110	-0.651292	-0.172531	99
Es	-1.291603	-0.035208	-0.031936	99
Es	-1.777087	-0.366108	-1.127159	99
Es	1.287565	1.257927	-0.093524	99
Es	-0.798707	0.300937	1.053001	99
Es	2.576520	-0.169794	0.283035	99
Es	-0.833002	-0.250854	0.543998	99
Es	-3.241996	0.158469	0.018552	99
Es	1.088847	-0.778846	0.643098	99
Es	-1.114996	-0.861088	0.873810	99
Es	3.078050	0.241634	0.667282	99
Es	-3.055071	0.911694	0.296173	99
Es	-0.148131	-0.409754	0.269759	99
Es	0.544289	-1.135636	-0.503779	99
Es	2.036116	-0.586806	0.775729	99
