41
Properties=species:S:1:pos:R:3:Z:I:1 energy=-302.88570070078134 field_type=dipole dipole="0.000000 0.000000 0.000000" charge=0
N	-1.930526	-2.351457	0.320111	7
C	-0.476776	-2.329387	0.264971	6
C	0.005244	-0.968217	0.264971	6
C	0.402524	0.153682	0.264971	6
C	1.003434	1.451692	0.325691	6
C	0.961444	2.338372	-0.890629	6
N	0.147944	2.633632	0.281211	7
H	-2.256986	-3.304317	0.179971	1
H	-2.298076	-1.800977	-0.454629	1
H	-0.141256	-2.850427	-0.638069	1
H	-0.078656	-2.878287	1.124341	1
H	1.880494	1.530313	0.961501	1
H	0.420534	2.003732	-1.766589	1
H	1.803994	2.990433	-1.080659	1
H	0.556664	3.381213	0.842831	1
Es	-1.930323	-2.351658	0.319640	99
Es	0.490013	2.077476	0.435015	99
Es	-0.476876	-2.329273	0.264971	99
Es	1.537557	2.781050	-1.017225	99
Es	1.123201	1.739867	-0.375519	99
Es	1.003257	1.451802	0.325622	99
Es	-0.004919	-0.318962	-0.030523	99
Es	-1.287054	-2.343100	0.273673	99
Es	-0.234454	-2.670024	-0.351920	99
Es	1.591049	1.496469	0.754989	99
Es	-0.201828	-2.686820	0.843990	99
Es	0.467546	2.633940	-0.287173	99
Es	0.417239	3.074602	0.611499	99
Es	0.675894	0.791623	0.295484	99
Es	0.961347	2.338373	-0.890386	99
Es	0.538490	-0.526751	0.210342	99
Es	0.005144	-0.968458	0.264950	99
Es	-2.048119	-2.226572	0.624485	99
Es	0.148585	2.633627	0.281189	99
Es	0.598300	2.111865	-1.483043	99
Es	0.078264	-0.361004	0.594869	99
Es	-2.136915	-2.033836	-0.163002	99
Es	-0.202463	2.593170	0.264556	99
Es	0.402614	0.153937	0.264969	99
Es	-2.110799	-2.932354	0.216425	99
Es	-0.228514	-1.622942	0.263057	99
41
Properties=species:S:1:pos:R:3:Z:I:1 energy=-302.88570070078134 field_type=dipole dipole="0.000000 0.000000 0.000000" charge=0
N	-1.930526	-2.351457	0.320111	7
C	-0.476776	-2.329387	0.264971	6
C	0.005244	-0.968217	0.264971	6
C	0.402524	0.153682	0.264971	6
C	1.003434	1.451692	0.325691	6
C	0.961444	2.338372	-0.890629	6
N	0.147944	2.633632	0.281211	7
H	-2.256986	-3.304317	0.179971	1
H	-2.298076	-1.800977	-0.454629	1
H	-0.141256	-2.850427	-0.638069	1
H	-0.078656	-2.878287	1.124341	1
H	1.880494	1.530313	0.961501	1
H	0.420534	2.003732	-1.766589	1
H	1.803994	2.990433	-1.080659	1
H	0.556664	3.381213	0.842831	1
Es	0.673897	0.790383	0.293680	99
Es	0.402609	0.153952	0.264958	99
Es	1.003254	1.451804	0.325622	99
Es	0.148580	2.633642	0.281194	99
Es	-0.476877	-2.329272	0.264972	99
Es	0.018041	-0.328242	-0.043106	99
Es	-0.203449	-2.688769	0.842472	99
Es	1.124589	1.738718	-0.371538	99
Es	0.414473	3.080490	0.612249	99
Es	0.462665	2.632047	-0.289450	99
Es	-0.236428	-2.670671	-0.349791	99
Es	-2.137372	-2.028720	-0.160299	99
Es	0.961349	2.338367	-0.890383	99
Es	-2.115292	-2.939512	0.222248	99
Es	1.536817	2.784054	-1.018501	99
Es	-2.038962	-2.226408	0.615652	99
Es	-1.288907	-2.342491	0.273816	99
Es	0.060535	-0.354373	0.584193	99
Es	0.533258	-0.524186	0.234224	99
Es	-0.188394	2.596456	0.260380	99
Es	0.598517	2.112786	-1.480620	99
Es	-1.930311	-2.351692	0.319558	99
Es	1.588278	1.497885	0.753102	99
Es	0.485860	2.069664	0.437354	99
Es	0.005149	-0.968470	0.264950	99
Es	-0.225647	-1.621396	0.263999	99
41
Properties=species:S:1:pos:R:3:Z:I:1 energy=-302.88570070078134 field_type=dipole dipole="0.000000 0.000000 0.000000" charge=0
N	-1.930526	-2.351457	0.320111	7
C	-0.476776	-2.329387	0.264971	6
C	0.005244	-0.968217	0.264971	6
C	0.402524	0.153682	0.264971	6
C	1.003434	1.451692	0.325691	6
C	0.961444	2.338372	-0.890629	6
N	0.147944	2.633632	0.281211	7
H	-2.256986	-3.304317	0.179971	1
H	-2.298076	-1.800977	-0.454629	1
H	-0.141256	-2.850427	-0.638069	1
H	-0.078656	-2.878287	1.124341	1
H	1.880494	1.530313	0.961501	1
H	0.420534	2.003732	-1.766589	1
H	1.803994	2.990433	-1.080659	1
H	0.556664	3.381213	0.842831	1
Es	0.598924	2.113881	-1.478500	99
Es	0.005144	-0.968470	0.264951	99
Es	-0.224578	-1.620493	0.264107	99
Es	0.412731	3.084481	0.612070	99
Es	-2.033630	-2.228584	0.609531	99
Es	-1.930313	-2.351672	0.319609	99
Es	-2.117087	-2.942378	0.225431	99
Es	0.961346	2.338370	-0.890381	99
Es	0.402617	0.153952	0.264958	99
Es	0.068268	-0.357272	0.587987	99
Es	1.585865	1.498488	0.751438	99
Es	1.125263	1.737361	-0.369791	99
Es	0.148600	2.633639	0.281196	99
Es	-0.176305	2.598889	0.257609	99
Es	0.014767	-0.327059	-0.036273	99
Es	0.480113	2.064701	0.439141	99
Es	0.459521	2.629771	-0.290122	99
Es	-2.138231	-2.024657	-0.157981	99
Es	-0.204572	-2.689706	0.841589	99
Es	-1.289787	-2.342019	0.274260	99
Es	1.003248	1.451807	0.325626	99
Es	-0.476876	-2.329272	0.264972	99
Es	0.673565	0.789471	0.293349	99
Es	0.528849	-0.522501	0.224033	99
Es	-0.237532	-2.670991	-0.348669	99
Es	1.536324	2.786311	-1.019205	99
41
Properties=species:S:1:pos:R:3:Z:I:1 energy=-302.88570070078134 field_type=dipole dipole="0.000000 0.000000 0.000000" charge=0
N	-1.930526	-2.351457	0.320111	7
C	-0.476776	-2.329387	0.264971	6
C	0.005244	-0.968217	0.264971	6
C	0.402524	0.153682	0.264971	6
C	1.003434	1.451692	0.325691	6
C	0.961444	2.338372	-0.890629	6
N	0.147944	2.633632	0.281211	7
H	-2.256986	-3.304317	0.179971	1
H	-2.298076	-1.800977	-0.454629	1
H	-0.141256	-2.850427	-0.638069	1
H	-0.078656	-2.878287	1.124341	1
H	1.880494	1.530313	0.961501	1
H	0.420534	2.003732	-1.766589	1
H	1.803994	2.990433	-1.080659	1
H	0.556664	3.381213	0.842831	1
Es	0.673306	0.788955	0.293458	99
Es	1.535765	2.787920	-1.019360	99
Es	0.402611	0.153957	0.264962	99
Es	-0.224334	-1.619874	0.264590	99
Es	0.412182	3.086858	0.611389	99
Es	-2.117944	-2.943734	0.227458	99
Es	0.961345	2.338374	-0.890383	99
Es	0.306281	-0.437595	-0.079899	99
Es	-1.290441	-2.341968	0.274776	99
Es	1.584043	1.498804	0.750172	99
Es	-1.930297	-2.351678	0.319583	99
Es	1.003250	1.451805	0.325634	99
Es	-0.109305	-0.288215	0.336257	99
Es	-2.138751	-2.021648	-0.156439	99
Es	0.599184	2.114693	-1.477217	99
Es	-2.030298	-2.230588	0.605342	99
Es	0.148589	2.633634	0.281191	99
Es	0.457876	2.627790	-0.290082	99
Es	-0.238347	-2.671035	-0.347713	99
Es	-0.166535	2.601079	0.255683	99
Es	0.473966	2.061450	0.440355	99
Es	-0.205156	-2.690319	0.841137	99
Es	0.415301	-0.481192	0.518605	99
Es	-0.476876	-2.329271	0.264971	99
Es	0.005158	-0.968477	0.264954	99
Es	1.125661	1.736321	-0.368488	99
41
Properties=species:S:1:pos:R:3:Z:I:1 energy=-302.88570070078134 field_type=dipole dipole="0.000000 0.000000 0.000000" charge=0
N	-1.930526	-2.351457	0.320111	7
C	-0.476776	-2.329387	0.264971	6
C	0.005244	-0.968217	0.264971	6
C	0.402524	0.153682	0.264971	6
C	1.003434	1.451692	0.325691	6
C	0.961444	2.338372	-0.890629	6
N	0.147944	2.633632	0.281211	7
H	-2.256986	-3.304317	0.179971	1
H	-2.298076	-1.800977	-0.454629	1
H	-0.141256	-2.850427	-0.638069	1
H	-0.078656	-2.878287	1.124341	1
H	1.880494	1.530313	0.961501	1
H	0.420534	2.003732	-1.766589	1
H	1.803994	2.990433	-1.080659	1
H	0.556664	3.381213	0.842831	1
Es	-2.118867	-2.944529	0.228370	99
Es	0.005145	-0.968475	0.264947	99
Es	1.126046	1.735072	-0.367683	99
Es	-1.291150	-2.341987	0.275537	99
Es	1.582201	1.498914	0.748982	99
Es	0.674004	0.788265	0.293206	99
Es	-1.930297	-2.351694	0.319565	99
Es	0.468192	2.059422	0.440874	99
Es	0.067123	-0.356951	0.588253	99
Es	0.456305	2.625828	-0.289222	99
Es	1.535330	2.789386	-1.019545	99
Es	0.402613	0.153959	0.264952	99
Es	0.599758	2.115492	-1.475611	99
Es	0.411534	3.089238	0.610429	99
Es	1.003255	1.451807	0.325627	99
Es	0.019561	-0.328650	-0.033302	99
Es	0.525237	-0.521261	0.221213	99
Es	0.148614	2.633627	0.281187	99
Es	-0.223851	-1.619518	0.264170	99
Es	-0.476880	-2.329270	0.264972	99
Es	-0.157663	2.602317	0.253999	99
Es	-2.139067	-2.018894	-0.154402	99
Es	-0.238712	-2.671344	-0.347271	99
Es	0.961338	2.338370	-0.890378	99
Es	-0.205801	-2.690349	0.840266	99
Es	-2.027733	-2.232727	0.601800	99
41
Properties=species:S:1:pos:R:3:Z:I:1 energy=-302.88570070078134 field_type=dipole dipole="0.000000 0.000000 0.000000" charge=0
N	-1.930526	-2.351457	0.320111	7
C	-0.476776	-2.329387	0.264971	6
C	0.005244	-0.968217	0.264971	6
C	0.402524	0.153682	0.264971	6
C	1.003434	1.451692	0.325691	6
C	0.961444	2.338372	-0.890629	6
N	0.147944	2.633632	0.281211	7
H	-2.256986	-3.304317	0.179971	1
H	-2.298076	-1.800977	-0.454629	1
H	-0.141256	-2.850427	-0.638069	1
H	-0.078656	-2.878287	1.124341	1
H	1.880494	1.530313	0.961501	1
H	0.420534	2.003732	-1.766589	1
H	1.803994	2.990433	-1.080659	1
H	0.556664	3.381213	0.842831	1
Es	-1.291241	-2.341546	0.276239	99
Es	0.411718	3.090749	0.609297	99
Es	-2.119094	-2.945049	0.229088	99
Es	0.600129	2.116084	-1.474509	99
Es	-0.018236	-0.314758	0.005769	99
Es	-0.238962	-2.671730	-0.346837	99
Es	-1.930308	-2.351680	0.319586	99
Es	1.580721	1.498858	0.748053	99
Es	1.534850	2.790466	-1.019541	99
Es	0.148610	2.633636	0.281195	99
Es	0.005133	-0.968472	0.264953	99
Es	0.454951	2.624347	-0.288681	99
Es	-0.206420	-2.690291	0.839975	99
Es	0.517005	-0.518318	0.164501	99
Es	-2.026302	-2.234438	0.598968	99
Es	-0.223959	-1.619209	0.264038	99
Es	1.126344	1.734331	-0.366958	99
Es	-2.139473	-2.017138	-0.153076	99
Es	1.003252	1.451800	0.325622	99
Es	-0.149967	2.603392	0.253155	99
Es	0.674142	0.787942	0.293056	99
Es	-0.476877	-2.329271	0.264971	99
Es	0.961353	2.338368	-0.890390	99
Es	0.462714	2.057911	0.441509	99
Es	0.402611	0.153960	0.264946	99
Es	0.113542	-0.373896	0.606007	99
41
Properties=species:S:1:pos:R:3:Z:I:1 energy=-302.88570070078134 field_type=dipole dipole="0.000000 0.000000 0.000000" charge=0
N	-1.930526	-2.351457	0.320111	7
C	-0.476776	-2.329387	0.264971	6
C	0.005244	-0.968217	0.264971	6
C	0.402524	0.153682	0.264971	6
C	1.003434	1.451692	0.325691	6
C	0.961444	2.338372	-0.890629	6
N	0.147944	2.633632	0.281211	7
H	-2.256986	-3.304317	0.179971	1
H	-2.298076	-1.800977	-0.454629	1
H	-0.141256	-2.850427	-0.638069	1
H	-0.078656	-2.878287	1.124341	1
H	1.880494	1.530313	0.961501	1
H	0.420534	2.003732	-1.766589	1
H	1.803994	2.990433	-1.080659	1
H	0.556664	3.381213	0.842831	1
Es	0.402609	0.153962	0.264944	99
Es	0.600409	2.116739	-1.473605	99
Es	1.534402	2.791409	-1.019353	99
Es	-2.025259	-2.236355	0.595792	99
Es	-0.206636	-2.690311	0.839562	99
Es	-1.930289	-2.351704	0.319550	99
Es	-2.139558	-2.015193	-0.151907	99
Es	0.454156	2.622941	-0.287982	99
Es	0.674294	0.787741	0.293216	99
Es	0.005139	-0.968476	0.264951	99
Es	-0.239157	-2.671783	-0.346536	99
Es	0.457469	2.057052	0.441735	99
Es	0.102352	-0.369895	0.603136	99
Es	1.579843	1.498887	0.747423	99
Es	0.148413	2.633650	0.281181	99
Es	1.126331	1.733269	-0.366577	99
Es	-0.142897	2.604113	0.252412	99
Es	-2.119389	-2.945397	0.229666	99
Es	1.003247	1.451804	0.325628	99
Es	-0.223787	-1.619066	0.263997	99
Es	-1.291593	-2.341366	0.277761	99
Es	-0.009459	-0.317828	0.001417	99
Es	0.961346	2.338374	-0.890385	99
Es	-0.476877	-2.329271	0.264971	99
Es	0.519313	-0.519221	0.171787	99
Es	0.411814	3.091973	0.608154	99
41
Properties=species:S:1:pos:R:3:Z:I:1 energy=-302.88570070078134 field_type=dipole dipole="0.000000 0.000000 0.000000" charge=0
N	-1.930526	-2.351457	0.320111	7
C	-0.476776	-2.329387	0.264971	6
C	0.005244	-0.968217	0.264971	6
C	0.402524	0.153682	0.264971	6
C	1.003434	1.451692	0.325691	6
C	0.961444	2.338372	-0.890629	6
N	0.147944	2.633632	0.281211	7
H	-2.256986	-3.304317	0.179971	1
H	-2.298076	-1.800977	-0.454629	1
H	-0.141256	-2.850427	-0.638069	1
H	-0.078656	-2.878287	1.124341	1
H	1.880494	1.530313	0.961501	1
H	0.420534	2.003732	-1.766589	1
H	1.803994	2.990433	-1.080659	1
H	0.556664	3.381213	0.842831	1
Es	0.377389	-0.467710	0.544145	99
Es	0.674256	0.787681	0.293670	99
Es	1.003255	1.451796	0.325623	99
Es	-2.023425	-2.237935	0.594085	99
Es	1.126620	1.732735	-0.366541	99
Es	0.346004	-0.452894	-0.063657	99
Es	1.534089	2.791933	-1.019428	99
Es	-1.930297	-2.351709	0.319536	99
Es	-1.291815	-2.341468	0.277312	99
Es	0.402607	0.153963	0.264957	99
Es	-0.476878	-2.329272	0.264973	99
Es	-0.138903	2.604515	0.251540	99
Es	-2.140408	-2.013302	-0.150276	99
Es	0.148611	2.633625	0.281186	99
Es	-0.206830	-2.690576	0.839524	99
Es	-2.119721	-2.945549	0.230102	99
Es	-0.223817	-1.618948	0.264577	99
Es	1.578852	1.498854	0.746896	99
Es	0.961346	2.338372	-0.890382	99
Es	0.454025	2.622239	-0.287080	99
Es	-0.239418	-2.671695	-0.346292	99
Es	0.411596	3.092736	0.607468	99
Es	0.454185	2.056373	0.442063	99
Es	0.005141	-0.968477	0.264956	99
Es	-0.110931	-0.286449	0.294736	99
Es	0.600704	2.117209	-1.472757	99
41
Properties=species:S:1:pos:R:3:Z:I:1 energy=-302.88570070078134 field_type=dipole dipole="0.000000 0.000000 0.000000" charge=0
N	-1.930526	-2.351457	0.320111	7
C	-0.476776	-2.329387	0.264971	6
C	0.005244	-0.968217	0.264971	6
C	0.402524	0.153682	0.264971	6
C	1.003434	1.451692	0.325691	6
C	0.961444	2.338372	-0.890629	6
N	0.147944	2.633632	0.281211	7
H	-2.256986	-3.304317	0.179971	1
H	-2.298076	-1.800977	-0.454629	1
H	-0.141256	-2.850427	-0.638069	1
H	-0.078656	-2.878287	1.124341	1
H	1.880494	1.530313	0.961501	1
H	0.420534	2.003732	-1.766589	1
H	1.803994	2.990433	-1.080659	1
H	0.556664	3.381213	0.842831	1
Es	0.453351	2.620907	-0.285762	99
Es	0.006120	-0.323405	-0.012561	99
Es	0.411613	3.093968	0.606172	99
Es	0.402608	0.153963	0.264953	99
Es	-0.476876	-2.329271	0.264971	99
Es	-0.223683	-1.618867	0.263984	99
Es	-0.207220	-2.690185	0.838992	99
Es	1.533704	2.792660	-1.019197	99
Es	0.005137	-0.968475	0.264952	99
Es	-2.140873	-2.011860	-0.148705	99
Es	-0.239333	-2.672086	-0.346219	99
Es	-0.132197	2.604818	0.250726	99
Es	1.577941	1.498752	0.746161	99
Es	0.601069	2.117781	-1.471881	99
Es	-2.120158	-2.945658	0.230246	99
Es	-1.930310	-2.351711	0.319537	99
Es	-2.022304	-2.239413	0.592043	99
Es	-1.291934	-2.341442	0.277749	99
Es	1.126700	1.731850	-0.366342	99
Es	0.520998	-0.519863	0.191725	99
Es	0.961347	2.338369	-0.890378	99
Es	0.148569	2.633648	0.281196	99
Es	1.003252	1.451797	0.325624	99
Es	0.448862	2.056066	0.442364	99
Es	0.674747	0.787379	0.293219	99
Es	0.085106	-0.363671	0.597365	99
41
Properties=species:S:1:pos:R:3:Z:I:1 energy=-302.88570070078134 field_type=dipole dipole="0.000000 0.000000 0.000000" charge=0
N	-1.930526	-2.351457	0.320111	7
C	-0.476776	-2.329387	0.264971	6
C	0.005244	-0.968217	0.264971	6
C	0.402524	0.153682	0.264971	6
C	1.003434	1.451692	0.325691	6
C	0.961444	2.338372	-0.890629	6
N	0.147944	2.633632	0.281211	7
H	-2.256986	-3.304317	0.179971	1
H	-2.298076	-1.800977	-0.454629	1
H	-0.141256	-2.850427	-0.638069	1
H	-0.078656	-2.878287	1.124341	1
H	1.880494	1.530313	0.961501	1
H	0.420534	2.003732	-1.766589	1
H	1.803994	2.990433	-1.080659	1
H	0.556664	3.381213	0.842831	1
Es	-1.930313	-2.351709	0.319532	99
Es	1.577506	1.498698	0.745859	99
Es	-2.119932	-2.945869	0.230214	99
Es	-0.476877	-2.329271	0.264973	99
Es	0.513954	-0.517303	0.145576	99
Es	1.126582	1.731588	-0.365927	99
Es	0.961346	2.338373	-0.890383	99
Es	0.148538	2.633654	0.281203	99
Es	-2.022711	-2.240895	0.589396	99
Es	-0.021584	-0.313323	0.022676	99
Es	0.452821	2.620293	-0.285572	99
Es	-0.239692	-2.672127	-0.346067	99
Es	0.119920	-0.376332	0.608252	99
Es	1.003256	1.451795	0.325625	99
Es	-0.127994	2.604883	0.250816	99
Es	0.005140	-0.968477	0.264950	99
Es	0.674700	0.787335	0.293189	99
Es	-0.223642	-1.618801	0.263792	99
Es	-2.140763	-2.011035	-0.148211	99
Es	0.402606	0.153964	0.264955	99
Es	0.411831	3.094460	0.605502	99
Es	1.533187	2.793346	-1.018821	99
Es	0.601069	2.118068	-1.471663	99
Es	-0.207415	-2.690385	0.839013	99
Es	-1.291385	-2.340420	0.279950	99
Es	0.446086	2.055537	0.442110	99
41
Properties=species:S:1:pos:R:3:Z:I:1 energy=-302.88570070078134 field_type=dipole dipole="0.000000 0.000000 0.000000" charge=0
N	-1.930526	-2.351457	0.320111	7
C	-0.476776	-2.329387	0.264971	6
C	0.005244	-0.968217	0.264971	6
C	0.402524	0.153682	0.264971	6
C	1.003434	1.451692	0.325691	6
C	0.961444	2.338372	-0.890629	6
N	0.147944	2.633632	0.281211	7
H	-2.256986	-3.304317	0.179971	1
H	-2.298076	-1.800977	-0.454629	1
H	-0.141256	-2.850427	-0.638069	1
H	-0.078656	-2.878287	1.124341	1
H	1.880494	1.530313	0.961501	1
H	0.420534	2.003732	-1.766589	1
H	1.803994	2.990433	-1.080659	1
H	0.556664	3.381213	0.842831	1
Es	-2.141521	-2.009466	-0.146907	99
Es	-1.930288	-2.351709	0.319523	99
Es	1.532948	2.793775	-1.018649	99
Es	-1.291939	-2.340936	0.279368	99
Es	0.674752	0.787262	0.293328	99
Es	-0.124853	2.605143	0.249843	99
Es	0.442743	2.055558	0.442080	99
Es	-2.021100	-2.242074	0.587940	99
Es	1.126326	1.730937	-0.365711	99
Es	0.505909	-0.514276	0.120446	99
Es	0.961345	2.338373	-0.890379	99
Es	-2.120240	-2.945912	0.230925	99
Es	-0.239604	-2.672195	-0.345864	99
Es	-0.035210	-0.308489	0.042927	99
Es	-0.476878	-2.329270	0.264972	99
Es	0.601248	2.118457	-1.471117	99
Es	1.003250	1.451798	0.325627	99
Es	0.411841	3.095003	0.604773	99
Es	0.453446	2.619387	-0.284553	99
Es	0.402609	0.153963	0.264951	99
Es	1.577243	1.498729	0.745647	99
Es	-0.223673	-1.618704	0.263873	99
Es	0.141698	-0.384234	0.613012	99
Es	-0.207563	-2.690237	0.838734	99
Es	0.005135	-0.968476	0.264947	99
Es	0.148612	2.633641	0.281199	99
41
Properties=species:S:1:pos:R:3:Z:I:1 energy=-302.88570070078134 field_type=dipole dipole="0.000000 0.000000 0.000000" charge=0
N	-1.930526	-2.351457	0.320111	7
C	-0.476776	-2.329387	0.264971	6
C	0.005244	-0.968217	0.264971	6
C	0.402524	0.153682	0.264971	6
C	1.003434	1.451692	0.325691	6
C	0.961444	2.338372	-0.890629	6
N	0.147944	2.633632	0.281211	7
H	-2.256986	-3.304317	0.179971	1
H	-2.298076	-1.800977	-0.454629	1
H	-0.141256	-2.850427	-0.638069	1
H	-0.078656	-2.878287	1.124341	1
H	1.880494	1.530313	0.961501	1
H	0.420534	2.003732	-1.766589	1
H	1.803994	2.990433	-1.080659	1
H	0.556664	3.381213	0.842831	1
Es	0.601635	2.118814	-1.470334	99
Es	-1.930305	-2.351685	0.319579	99
Es	1.576095	1.498587	0.745049	99
Es	-0.207653	-2.689942	0.838398	99
Es	0.073951	-0.359660	0.593312	99
Es	0.005140	-0.968478	0.264950	99
Es	-2.141737	-2.008210	-0.145668	99
Es	0.675106	0.787101	0.293240	99
Es	0.961348	2.338369	-0.890380	99
Es	1.532897	2.793899	-1.018779	99
Es	-0.223484	-1.618733	0.263897	99
Es	0.016207	-0.326989	-0.017406	99
Es	0.402608	0.153963	0.264951	99
Es	0.439807	2.055603	0.442259	99
Es	1.126901	1.730419	-0.365750	99
Es	0.452209	2.619263	-0.284042	99
Es	0.521911	-0.520247	0.200611	99
Es	-0.476878	-2.329271	0.264974	99
Es	-2.020341	-2.243206	0.586822	99
Es	0.411848	3.095555	0.604045	99
Es	-1.292230	-2.341104	0.279747	99
Es	-0.119900	2.605000	0.250078	99
Es	-0.239652	-2.672479	-0.345981	99
Es	0.147926	2.633614	0.281127	99
Es	1.003258	1.451793	0.325627	99
Es	-2.120432	-2.945929	0.230607	99
41
Properties=species:S:1:pos:R:3:Z:I:1 energy=-302.88570070078134 field_type=dipole dipole="0.000000 0.000000 0.000000" charge=0
N	-1.930526	-2.351457	0.320111	7
C	-0.476776	-2.329387	0.264971	6
C	0.005244	-0.968217	0.264971	6
C	0.402524	0.153682	0.264971	6
C	1.003434	1.451692	0.325691	6
C	0.961444	2.338372	-0.890629	6
N	0.147944	2.633632	0.281211	7
H	-2.256986	-3.304317	0.179971	1
H	-2.298076	-1.800977	-0.454629	1
H	-0.141256	-2.850427	-0.638069	1
H	-0.078656	-2.878287	1.124341	1
H	1.880494	1.530313	0.961501	1
H	0.420534	2.003732	-1.766589	1
H	1.803994	2.990433	-1.080659	1
H	0.556664	3.381213	0.842831	1
Es	-0.207769	-2.690132	0.838506	99
Es	-0.223669	-1.618655	0.263786	99
Es	-2.020227	-2.244393	0.584704	99
Es	-0.027696	-0.311083	0.035506	99
Es	0.452548	2.618498	-0.283832	99
Es	1.003250	1.451799	0.325629	99
Es	1.576167	1.498586	0.744925	99
Es	-2.141791	-2.007363	-0.145157	99
Es	0.961347	2.338367	-0.890376	99
Es	1.532321	2.794528	-1.018417	99
Es	-0.118246	2.605059	0.249806	99
Es	-2.120378	-2.946014	0.230799	99
Es	0.509373	-0.515615	0.129983	99
Es	0.148600	2.633626	0.281194	99
Es	0.402610	0.153963	0.264952	99
Es	-1.930345	-2.351617	0.319737	99
Es	-0.239746	-2.672399	-0.345868	99
Es	-0.476879	-2.329270	0.264970	99
Es	0.601580	2.119004	-1.470204	99
Es	0.437809	2.055483	0.442138	99
Es	1.126560	1.730161	-0.365461	99
Es	-1.292065	-2.340681	0.280875	99
Es	0.130639	-0.380271	0.611027	99
Es	0.674995	0.787108	0.293269	99
Es	0.005137	-0.968476	0.264946	99
Es	0.412114	3.095834	0.603501	99
41
Properties=species:S:1:pos:R:3:Z:I:1 energy=-302.88570070078134 field_type=dipole dipole="0.000000 0.000000 0.000000" charge=0
N	-1.930526	-2.351457	0.320111	7
C	-0.476776	-2.329387	0.264971	6
C	0.005244	-0.968217	0.264971	6
C	0.402524	0.153682	0.264971	6
C	1.003434	1.451692	0.325691	6
C	0.961444	2.338372	-0.890629	6
N	0.147944	2.633632	0.281211	7
H	-2.256986	-3.304317	0.179971	1
H	-2.298076	-1.800977	-0.454629	1
H	-0.141256	-2.850427	-0.638069	1
H	-0.078656	-2.878287	1.124341	1
H	1.880494	1.530313	0.961501	1
H	0.420534	2.003732	-1.766589	1
H	1.803994	2.990433	-1.080659	1
H	0.556664	3.381213	0.842831	1
Es	-1.930301	-2.351720	0.319521	99
Es	0.005143	-0.968478	0.264961	99
Es	1.003251	1.451798	0.325624	99
Es	1.575642	1.498531	0.744569	99
Es	0.402607	0.153965	0.264950	99
Es	-1.292260	-2.340749	0.281200	99
Es	0.097460	-0.368290	0.602878	99
Es	-0.476877	-2.329271	0.264971	99
Es	0.675192	0.787026	0.293320	99
Es	0.517649	-0.518718	0.167793	99
Es	0.451970	2.618408	-0.283431	99
Es	1.532287	2.794677	-1.018351	99
Es	-0.115751	2.605002	0.249822	99
Es	1.126543	1.729656	-0.365378	99
Es	-0.208102	-2.689923	0.838317	99
Es	-0.223509	-1.618642	0.263859	99
Es	0.412291	3.096088	0.602995	99
Es	0.148614	2.633630	0.281198	99
Es	0.601883	2.119307	-1.469663	99
Es	0.435878	2.055551	0.441974	99
Es	-2.120592	-2.946023	0.230829	99
Es	0.961348	2.338370	-0.890383	99
Es	-0.002946	-0.319922	0.005788	99
Es	-2.019737	-2.245027	0.583830	99
Es	-2.141719	-2.006510	-0.144424	99
Es	-0.239727	-2.672688	-0.345836	99
41
Properties=species:S:1:pos:R:3:Z:I:1 energy=-302.88570070078134 field_type=dipole dipole="0.000000 0.000000 0.000000" charge=0
N	-1.930526	-2.351457	0.320111	7
C	-0.476776	-2.329387	0.264971	6
C	0.005244	-0.968217	0.264971	6
C	0.402524	0.153682	0.264971	6
C	1.003434	1.451692	0.325691	6
C	0.961444	2.338372	-0.890629	6
N	0.147944	2.633632	0.281211	7
H	-2.256986	-3.304317	0.179971	1
H	-2.298076	-1.800977	-0.454629	1
H	-0.141256	-2.850427	-0.638069	1
H	-0.078656	-2.878287	1.124341	1
H	1.880494	1.530313	0.961501	1
H	0.420534	2.003732	-1.766589	1
H	1.803994	2.990433	-1.080659	1
H	0.556664	3.381213	0.842831	1
Es	0.412273	3.096391	0.602510	99
Es	1.575071	1.498475	0.744261	99
Es	0.452035	2.618013	-0.282415	99
Es	1.532130	2.794860	-1.018314	99
Es	0.432425	2.056053	0.441761	99
Es	0.675200	0.787003	0.293353	99
Es	0.518952	-0.519192	0.176466	99
Es	-1.930305	-2.351719	0.319527	99
Es	-2.019507	-2.245333	0.583450	99
Es	-0.476877	-2.329270	0.264972	99
Es	-0.112192	2.604998	0.249319	99
Es	0.601955	2.119669	-1.469221	99
Es	-2.120664	-2.946026	0.230786	99
Es	0.402608	0.153964	0.264950	99
Es	0.091328	-0.366049	0.600549	99
Es	0.001943	-0.321704	-0.000519	99
Es	-0.223524	-1.618629	0.263879	99
Es	-2.141662	-2.006115	-0.144107	99
Es	-0.207965	-2.689733	0.838113	99
Es	1.003260	1.451793	0.325616	99
Es	-1.292720	-2.341037	0.281390	99
Es	0.961344	2.338370	-0.890379	99
Es	0.148599	2.633636	0.281194	99
Es	0.005140	-0.968478	0.264949	99
Es	-0.239617	-2.672691	-0.345749	99
Es	1.127008	1.728798	-0.365405	99
41
Properties=species:S:1:pos:R:3:Z:I:1 energy=-302.88570070078134 field_type=dipole dipole="0.000000 0.000000 0.000000" charge=0
N	-1.930526	-2.351457	0.320111	7
C	-0.476776	-2.329387	0.264971	6
C	0.005244	-0.968217	0.264971	6
C	0.402524	0.153682	0.264971	6
C	1.003434	1.451692	0.325691	6
C	0.961444	2.338372	-0.890629	6
N	0.147944	2.633632	0.281211	7
H	-2.256986	-3.304317	0.179971	1
H	-2.298076	-1.800977	-0.454629	1
H	-0.141256	-2.850427	-0.638069	1
H	-0.078656	-2.878287	1.124341	1
H	1.880494	1.530313	0.961501	1
H	0.420534	2.003732	-1.766589	1
H	1.803994	2.990433	-1.080659	1
H	0.556664	3.381213	0.842831	1
Es	-2.018470	-2.246578	0.582254	99
Es	-0.208071	-2.689514	0.837875	99
Es	1.574111	1.498369	0.743647	99
Es	0.148577	2.633644	0.281196	99
Es	0.402608	0.153964	0.264948	99
Es	0.411986	3.096767	0.602118	99
Es	1.532026	2.795033	-1.018278	99
Es	0.961347	2.338367	-0.890377	99
Es	0.675410	0.786896	0.293336	99
Es	-0.111422	2.604960	0.248708	99
Es	-1.292525	-2.340941	0.281126	99
Es	0.521185	-0.519921	0.227987	99
Es	0.602350	2.119955	-1.468574	99
Es	-0.476878	-2.329271	0.264972	99
Es	0.053300	-0.352118	0.583645	99
Es	-0.223365	-1.618634	0.263845	99
Es	1.003255	1.451793	0.325625	99
Es	-0.239712	-2.672938	-0.345784	99
Es	1.127509	1.728755	-0.366057	99
Es	0.452326	2.617494	-0.281516	99
Es	0.037526	-0.334842	-0.035057	99
Es	0.005143	-0.968478	0.264951	99
Es	0.431739	2.056005	0.442506	99
Es	-2.142745	-2.004933	-0.142326	99
Es	-2.120672	-2.946076	0.230624	99
Es	-1.930303	-2.351712	0.319543	99
41
Properties=species:S:1:pos:R:3:Z:I:1 energy=-302.88570070078134 field_type=dipole dipole="0.000000 0.000000 0.000000" charge=0
N	-1.930526	-2.351457	0.320111	7
C	-0.476776	-2.329387	0.264971	6
C	0.005244	-0.968217	0.264971	6
C	0.402524	0.153682	0.264971	6
C	1.003434	1.451692	0.325691	6
C	0.961444	2.338372	-0.890629	6
N	0.147944	2.633632	0.281211	7
H	-2.256986	-3.304317	0.179971	1
H	-2.298076	-1.800977	-0.454629	1
H	-0.141256	-2.850427	-0.638069	1
H	-0.078656	-2.878287	1.124341	1
H	1.880494	1.530313	0.961501	1
H	0.420534	2.003732	-1.766589	1
H	1.803994	2.990433	-1.080659	1
H	0.556664	3.381213	0.842831	1
Es	0.451974	2.617642	-0.282948	99
Es	0.399520	-0.475282	0.513097	99
Es	0.602021	2.119820	-1.468919	99
Es	0.432457	2.055696	0.442085	99
Es	-0.106895	-0.288978	0.339361	99
Es	-2.141865	-2.004557	-0.143038	99
Es	0.319599	-0.442725	-0.077142	99
Es	1.003249	1.451797	0.325627	99
Es	-1.930297	-2.351711	0.319512	99
Es	0.675073	0.787039	0.293803	99
Es	-0.111303	2.604777	0.249585	99
Es	0.402609	0.153964	0.264950	99
Es	-0.208247	-2.690155	0.838425	99
Es	1.575018	1.498495	0.744152	99
Es	0.412105	3.096621	0.602224	99
Es	-2.120626	-2.946125	0.231174	99
Es	-0.223467	-1.618599	0.264433	99
Es	0.148614	2.633632	0.281193	99
Es	1.126691	1.728970	-0.365478	99
Es	-1.292780	-2.340780	0.281904	99
Es	-0.239882	-2.672587	-0.345674	99
Es	-0.476879	-2.329271	0.264969	99
Es	0.961346	2.338370	-0.890382	99
Es	0.005141	-0.968478	0.264954	99
Es	-2.018656	-2.246801	0.581263	99
Es	1.531716	2.795273	-1.018196	99
41
Properties=species:S:1:pos:R:3:Z:I:1 energy=-302.88570070078134 field_type=dipole dipole="0.000000 0.000000 0.000000" charge=0
N	-1.930526	-2.351457	0.320111	7
C	-0.476776	-2.329387	0.264971	6
C	0.005244	-0.968217	0.264971	6
C	0.402524	0.153682	0.264971	6
C	1.003434	1.451692	0.325691	6
C	0.961444	2.338372	-0.890629	6
N	0.147944	2.633632	0.281211	7
H	-2.256986	-3.304317	0.179971	1
H	-2.298076	-1.800977	-0.454629	1
H	-0.141256	-2.850427	-0.638069	1
H	-0.078656	-2.878287	1.124341	1
H	1.880494	1.530313	0.961501	1
H	0.420534	2.003732	-1.766589	1
H	1.803994	2.990433	-1.080659	1
H	0.556664	3.381213	0.842831	1
Es	0.402606	0.153965	0.264951	99
Es	0.675524	0.786839	0.293420	99
Es	0.058695	-0.342753	-0.049959	99
Es	-0.109692	2.604893	0.248508	99
Es	-2.143066	-2.003426	-0.140833	99
Es	1.003252	1.451796	0.325621	99
Es	0.430574	2.056216	0.441980	99
Es	-0.208293	-2.689015	0.837663	99
Es	0.517974	-0.518621	0.252333	99
Es	1.127256	1.727822	-0.365961	99
Es	0.602607	2.120530	-1.467734	99
Es	0.961347	2.338370	-0.890380	99
Es	-2.120891	-2.946079	0.230685	99
Es	1.531804	2.795312	-1.018188	99
Es	1.573632	1.498286	0.743128	99
Es	-0.223294	-1.618625	0.263959	99
Es	-0.476877	-2.329270	0.264971	99
Es	-1.930288	-2.351717	0.319515	99
Es	0.035261	-0.345485	0.574070	99
Es	-0.239529	-2.673375	-0.345731	99
Es	-1.292681	-2.340864	0.282179	99
Es	0.005141	-0.968478	0.264949	99
Es	0.452341	2.617226	-0.280704	99
Es	0.148595	2.633640	0.281189	99
Es	-2.017805	-2.248241	0.579745	99
Es	0.412041	3.097105	0.601559	99
41
Properties=species:S:1:pos:R:3:Z:I:1 energy=-302.88570070078134 field_type=dipole dipole="0.000000 0.000000 0.000000" charge=0
N	-1.930526	-2.351457	0.320111	7
C	-0.476776	-2.329387	0.264971	6
C	0.005244	-0.968217	0.264971	6
C	0.402524	0.153682	0.264971	6
C	1.003434	1.451692	0.325691	6
C	0.961444	2.338372	-0.890629	6
N	0.147944	2.633632	0.281211	7
H	-2.256986	-3.304317	0.179971	1
H	-2.298076	-1.800977	-0.454629	1
H	-0.141256	-2.850427	-0.638069	1
H	-0.078656	-2.878287	1.124341	1
H	1.880494	1.530313	0.961501	1
H	0.420534	2.003732	-1.766589	1
H	1.803994	2.990433	-1.080659	1
H	0.556664	3.381213	0.842831	1
Es	-0.239776	-2.672981	-0.345672	99
Es	-2.142460	-2.003265	-0.141326	99
Es	1.003251	1.451796	0.325625	99
Es	0.602225	2.120126	-1.468498	99
Es	-1.930286	-2.351704	0.319536	99
Es	0.514880	-0.517704	0.153885	99
Es	0.451439	2.616983	-0.281724	99
Es	-0.476877	-2.329271	0.264971	99
Es	0.412488	3.097264	0.600895	99
Es	0.961347	2.338371	-0.890381	99
Es	-0.223608	-1.618526	0.263724	99
Es	1.126516	1.728341	-0.364948	99
Es	-2.017894	-2.248281	0.579115	99
Es	-2.120917	-2.946113	0.231150	99
Es	-0.105722	2.604542	0.249423	99
Es	-1.292885	-2.340823	0.282642	99
Es	1.574388	1.498391	0.743671	99
Es	-0.008845	-0.317718	0.016597	99
Es	0.675275	0.786905	0.293428	99
Es	-0.208301	-2.689575	0.837865	99
Es	0.005140	-0.968478	0.264949	99
Es	0.106300	-0.371553	0.606021	99
Es	0.427986	2.056040	0.441682	99
Es	0.402609	0.153964	0.264951	99
Es	0.148477	2.633646	0.281187	99
Es	1.531482	2.795671	-1.017833	99
