45
Properties=species:S:1:pos:R:3:Z:I:1 energy=-288.1142354881005 field_type=dipole dipole="0.000000 0.000000 0.000000" charge=0
N	-1.358872	-0.250946	1.804792	7
C	-0.328002	-0.004846	0.791752	6
C	-0.719501	-0.695706	-0.536138	6
C	0.352458	-0.613536	-1.593878	6
C	0.970438	-1.676076	-2.127228	6
C	-0.194192	1.487324	0.645492	6
C	0.931898	2.176014	0.874432	6
H	-1.047092	0.156584	2.685942	1
H	-1.429892	-1.253406	1.970192	1
H	0.613628	-0.437666	1.153362	1
H	-1.636162	-0.247916	-0.942008	1
H	-0.954292	-1.750386	-0.336758	1
H	0.617578	0.381364	-1.946538	1
H	0.735838	-2.689726	-1.819528	1
H	1.728248	-1.547726	-2.894458	1
H	-1.086092	2.026994	0.331882	1
H	1.847758	1.685344	1.188752	1
H	0.956248	3.254304	0.749942	1
Es	-1.379426	-0.860618	1.904675	99
Es	0.900663	-1.140980	-1.633606	99
Es	-0.719444	-0.695686	-0.536141	99
Es	0.814109	-2.367684	-1.919717	99
Es	1.555967	1.847313	1.088494	99
Es	-0.255385	0.748692	0.710372	99
Es	-0.328138	-0.004838	0.791796	99
Es	-0.802107	1.843471	0.430312	99
Es	-1.672933	-0.116350	1.705601	99
Es	-0.517275	-0.338196	0.114027	99
Es	0.956433	2.907495	0.792307	99
Es	0.970488	-1.676163	-2.127270	99
Es	0.329245	-0.297686	1.031474	99
Es	-0.194274	1.487250	0.645478	99
Es	0.352382	-0.613454	-1.593805	99
Es	0.931984	2.176064	0.874444	99
Es	0.437756	-1.176226	-2.094018	99
Es	-0.898583	-0.154594	1.374862	99
Es	0.467424	1.797993	0.451787	99
Es	1.485736	-1.597468	-2.648701	99
Es	-1.358361	-0.251167	1.804946	99
Es	-0.173158	-0.652674	-1.059551	99
Es	0.525919	0.063415	-1.826621	99
Es	0.292648	1.871805	1.078744	99
Es	-1.331910	-0.385436	-0.812494	99
Es	-1.151637	-0.014366	2.334413	99
Es	-0.872307	-1.416536	-0.392390	99
45
Properties=species:S:1:pos:R:3:Z:I:1 energy=-288.1142354881005 field_type=dipole dipole="0.000000 0.000000 0.000000" charge=0
N	-1.358872	-0.250946	1.804792	7
C	-0.328002	-0.004846	0.791752	6
C	-0.719501	-0.695706	-0.536138	6
C	0.352458	-0.613536	-1.593878	6
C	0.970438	-1.676076	-2.127228	6
C	-0.194192	1.487324	0.645492	6
C	0.931898	2.176014	0.874432	6
H	-1.047092	0.156584	2.685942	1
H	-1.429892	-1.253406	1.970192	1
H	0.613628	-0.437666	1.153362	1
H	-1.636162	-0.247916	-0.942008	1
H	-0.954292	-1.750386	-0.336758	1
H	0.617578	0.381364	-1.946538	1
H	0.735838	-2.689726	-1.819528	1
H	1.728248	-1.547726	-2.894458	1
H	-1.086092	2.026994	0.331882	1
H	1.847758	1.685344	1.188752	1
H	0.956248	3.254304	0.749942	1
Es	-0.719443	-0.695684	-0.536140	99
Es	0.466478	1.799356	0.451886	99
Es	0.955877	2.908125	0.794141	99
Es	-0.194261	1.487258	0.645471	99
Es	-1.358367	-0.251152	1.804922	99
Es	-0.802122	1.843720	0.431133	99
Es	-1.331461	-0.385350	-0.813009	99
Es	0.812771	-2.367865	-1.921272	99
Es	-0.173399	-0.652561	-1.059691	99
Es	0.438104	-1.175320	-2.095729	99
Es	-0.897698	-0.156148	1.377191	99
Es	0.352384	-0.613456	-1.593806	99
Es	-0.517458	-0.338287	0.114297	99
Es	-1.381149	-0.861685	1.904245	99
Es	-1.670967	-0.115050	1.702668	99
Es	0.970480	-1.676163	-2.127277	99
Es	0.900430	-1.141855	-1.632036	99
Es	0.526995	0.063513	-1.825129	99
Es	-0.254909	0.748723	0.709195	99
Es	0.931978	2.176067	0.874469	99
Es	-1.152455	-0.013016	2.334957	99
Es	-0.328140	-0.004838	0.791796	99
Es	1.556027	1.847069	1.087466	99
Es	-0.872519	-1.416894	-0.392637	99
Es	0.328886	-0.297876	1.031670	99
Es	0.293744	1.870369	1.078379	99
Es	1.486007	-1.597625	-2.647742	99
45
Properties=species:S:1:pos:R:3:Z:I:1 energy=-288.1142354881005 field_type=dipole dipole="0.000000 0.000000 0.000000" charge=0
N	-1.358872	-0.250946	1.804792	7
C	-0.328002	-0.004846	0.791752	6
C	-0.719501	-0.695706	-0.536138	6
C	0.352458	-0.613536	-1.593878	6
C	0.970438	-1.676076	-2.127228	6
C	-0.194192	1.487324	0.645492	6
C	0.931898	2.176014	0.874432	6
H	-1.047092	0.156584	2.685942	1
H	-1.429892	-1.253406	1.970192	1
H	0.613628	-0.437666	1.153362	1
H	-1.636162	-0.247916	-0.942008	1
H	-0.954292	-1.750386	-0.336758	1
H	0.617578	0.381364	-1.946538	1
H	0.735838	-2.689726	-1.819528	1
H	1.728248	-1.547726	-2.894458	1
H	-1.086092	2.026994	0.331882	1
H	1.847758	1.685344	1.188752	1
H	0.956248	3.254304	0.749942	1
Es	-0.254640	0.748697	0.708305	99
Es	-0.896208	-0.157339	1.378960	99
Es	-1.669518	-0.113997	1.700478	99
Es	0.970479	-1.676158	-2.127275	99
Es	0.465618	1.800695	0.452152	99
Es	0.294625	1.869242	1.077876	99
Es	1.486333	-1.597638	-2.646884	99
Es	-1.153555	-0.012371	2.335142	99
Es	-1.331160	-0.385539	-0.813004	99
Es	-0.802155	1.843958	0.432097	99
Es	0.527892	0.063442	-1.823958	99
Es	-0.173780	-0.652317	-1.060205	99
Es	0.438422	-1.174595	-2.097141	99
Es	0.900045	-1.142591	-1.630905	99
Es	0.352382	-0.613452	-1.593803	99
Es	-0.328139	-0.004838	0.791796	99
Es	-1.358358	-0.251160	1.804933	99
Es	0.328661	-0.297918	1.031740	99
Es	-0.517630	-0.338345	0.114462	99
Es	-0.719444	-0.695685	-0.536141	99
Es	0.931987	2.176068	0.874452	99
Es	-0.872581	-1.417133	-0.392720	99
Es	-0.194272	1.487252	0.645478	99
Es	1.556199	1.846654	1.086423	99
Es	-1.382671	-0.862140	1.904151	99
Es	0.811825	-2.367960	-1.922454	99
Es	0.955456	2.908548	0.795463	99
45
Properties=species:S:1:pos:R:3:Z:I:1 energy=-288.1142354881005 field_type=dipole dipole="0.000000 0.000000 0.000000" charge=0
N	-1.358872	-0.250946	1.804792	7
C	-0.328002	-0.004846	0.791752	6
C	-0.719501	-0.695706	-0.536138	6
C	0.352458	-0.613536	-1.593878	6
C	0.970438	-1.676076	-2.127228	6
C	-0.194192	1.487324	0.645492	6
C	0.931898	2.176014	0.874432	6
H	-1.047092	0.156584	2.685942	1
H	-1.429892	-1.253406	1.970192	1
H	0.613628	-0.437666	1.153362	1
H	-1.636162	-0.247916	-0.942008	1
H	-0.954292	-1.750386	-0.336758	1
H	0.617578	0.381364	-1.946538	1
H	0.735838	-2.689726	-1.819528	1
H	1.728248	-1.547726	-2.894458	1
H	-1.086092	2.026994	0.331882	1
H	1.847758	1.685344	1.188752	1
H	0.956248	3.254304	0.749942	1
Es	-0.872759	-1.417239	-0.392707	99
Es	0.899095	-1.143399	-1.630169	99
Es	0.931991	2.176068	0.874446	99
Es	-0.719444	-0.695686	-0.536142	99
Es	-0.254292	0.748783	0.707660	99
Es	-1.384318	-0.862739	1.903770	99
Es	0.528769	0.063308	-1.823041	99
Es	0.438865	-1.173937	-2.098332	99
Es	1.487082	-1.597480	-2.645909	99
Es	-0.517713	-0.338478	0.114452	99
Es	0.970484	-1.676164	-2.127272	99
Es	-0.802359	1.844209	0.432878	99
Es	-0.194275	1.487253	0.645475	99
Es	-1.154294	-0.011975	2.335343	99
Es	-0.328137	-0.004838	0.791797	99
Es	0.295497	1.868220	1.077291	99
Es	0.954908	2.908851	0.796536	99
Es	-0.895077	-0.158506	1.381155	99
Es	0.352383	-0.613455	-1.593807	99
Es	1.556386	1.846464	1.085747	99
Es	0.810982	-2.367989	-1.923466	99
Es	-0.174102	-0.652287	-1.060509	99
Es	-1.330932	-0.385521	-0.813070	99
Es	0.328426	-0.297934	1.031821	99
Es	-1.358375	-0.251149	1.804929	99
Es	0.465043	1.801524	0.452318	99
Es	-1.668016	-0.112527	1.698221	99
45
Properties=species:S:1:pos:R:3:Z:I:1 energy=-288.1142354881005 field_type=dipole dipole="0.000000 0.000000 0.000000" charge=0
N	-1.358872	-0.250946	1.804792	7
C	-0.328002	-0.004846	0.791752	6
C	-0.719501	-0.695706	-0.536138	6
C	0.352458	-0.613536	-1.593878	6
C	0.970438	-1.676076	-2.127228	6
C	-0.194192	1.487324	0.645492	6
C	0.931898	2.176014	0.874432	6
H	-1.047092	0.156584	2.685942	1
H	-1.429892	-1.253406	1.970192	1
H	0.613628	-0.437666	1.153362	1
H	-1.636162	-0.247916	-0.942008	1
H	-0.954292	-1.750386	-0.336758	1
H	0.617578	0.381364	-1.946538	1
H	0.735838	-2.689726	-1.819528	1
H	1.728248	-1.547726	-2.894458	1
H	-1.086092	2.026994	0.331882	1
H	1.847758	1.685344	1.188752	1
H	0.956248	3.254304	0.749942	1
Es	-1.155149	-0.011324	2.335393	99
Es	0.529440	0.063224	-1.822327	99
Es	0.439429	-1.173270	-2.098877	99
Es	-1.384719	-0.862960	1.903853	99
Es	1.487431	-1.597490	-2.645426	99
Es	0.970488	-1.676162	-2.127270	99
Es	0.810135	-2.367862	-1.924379	99
Es	-0.174525	-0.652300	-1.060997	99
Es	0.352387	-0.613452	-1.593797	99
Es	-1.667312	-0.112256	1.696717	99
Es	-1.358356	-0.251156	1.804923	99
Es	-0.194271	1.487250	0.645472	99
Es	-1.330727	-0.385598	-0.813101	99
Es	0.954574	2.909047	0.797442	99
Es	1.556487	1.846285	1.084960	99
Es	-0.254216	0.748887	0.707240	99
Es	-0.894358	-0.159240	1.382161	99
Es	0.898771	-1.144142	-1.629355	99
Es	0.328327	-0.298061	1.031875	99
Es	-0.328141	-0.004837	0.791795	99
Es	0.296223	1.867336	1.076887	99
Es	-0.517838	-0.338397	0.114559	99
Es	-0.802456	1.844489	0.433786	99
Es	0.464533	1.802308	0.452297	99
Es	-0.719445	-0.695685	-0.536141	99
Es	-0.872884	-1.417326	-0.392731	99
Es	0.931986	2.176068	0.874454	99
45
Properties=species:S:1:pos:R:3:Z:I:1 energy=-288.1142354881005 field_type=dipole dipole="0.000000 0.000000 0.000000" charge=0
N	-1.358872	-0.250946	1.804792	7
C	-0.328002	-0.004846	0.791752	6
C	-0.719501	-0.695706	-0.536138	6
C	0.352458	-0.613536	-1.593878	6
C	0.970438	-1.676076	-2.127228	6
C	-0.194192	1.487324	0.645492	6
C	0.931898	2.176014	0.874432	6
H	-1.047092	0.156584	2.685942	1
H	-1.429892	-1.253406	1.970192	1
H	0.613628	-0.437666	1.153362	1
H	-1.636162	-0.247916	-0.942008	1
H	-0.954292	-1.750386	-0.336758	1
H	0.617578	0.381364	-1.946538	1
H	0.735838	-2.689726	-1.819528	1
H	1.728248	-1.547726	-2.894458	1
H	-1.086092	2.026994	0.331882	1
H	1.847758	1.685344	1.188752	1
H	0.956248	3.254304	0.749942	1
Es	-0.254086	0.748913	0.706745	99
Es	-1.386420	-0.863161	1.903535	99
Es	-0.872962	-1.417332	-0.392695	99
Es	0.529953	0.063079	-1.821782	99
Es	-0.719445	-0.695684	-0.536141	99
Es	0.352382	-0.613455	-1.593806	99
Es	-1.155830	-0.011109	2.335611	99
Es	0.931987	2.176072	0.874455	99
Es	-0.893216	-0.160268	1.383603	99
Es	0.898345	-1.144701	-1.628800	99
Es	-0.328140	-0.004837	0.791796	99
Es	0.328184	-0.298014	1.031970	99
Es	0.439999	-1.172728	-2.099475	99
Es	0.809356	-2.367842	-1.925091	99
Es	-1.330661	-0.385614	-0.813125	99
Es	-0.802539	1.844741	0.434545	99
Es	-0.194272	1.487251	0.645475	99
Es	-0.174816	-0.652315	-1.061326	99
Es	0.954325	2.909200	0.798086	99
Es	-0.517919	-0.338567	0.114503	99
Es	0.463946	1.803149	0.452698	99
Es	1.487861	-1.597441	-2.644808	99
Es	-1.665802	-0.111170	1.695068	99
Es	0.296794	1.866586	1.076575	99
Es	0.970483	-1.676164	-2.127273	99
Es	-1.358356	-0.251153	1.804945	99
Es	1.556662	1.845943	1.084127	99
45
Properties=species:S:1:pos:R:3:Z:I:1 energy=-288.1142354881005 field_type=dipole dipole="0.000000 0.000000 0.000000" charge=0
N	-1.358872	-0.250946	1.804792	7
C	-0.328002	-0.004846	0.791752	6
C	-0.719501	-0.695706	-0.536138	6
C	0.352458	-0.613536	-1.593878	6
C	0.970438	-1.676076	-2.127228	6
C	-0.194192	1.487324	0.645492	6
C	0.931898	2.176014	0.874432	6
H	-1.047092	0.156584	2.685942	1
H	-1.429892	-1.253406	1.970192	1
H	0.613628	-0.437666	1.153362	1
H	-1.636162	-0.247916	-0.942008	1
H	-0.954292	-1.750386	-0.336758	1
H	0.617578	0.381364	-1.946538	1
H	0.735838	-2.689726	-1.819528	1
H	1.728248	-1.547726	-2.894458	1
H	-1.086092	2.026994	0.331882	1
H	1.847758	1.685344	1.188752	1
H	0.956248	3.254304	0.749942	1
Es	-0.328136	-0.004837	0.791794	99
Es	-0.892305	-0.160718	1.384599	99
Es	-0.802684	1.844919	0.435097	99
Es	-1.663962	-0.110650	1.693927	99
Es	-0.719444	-0.695684	-0.536145	99
Es	1.556861	1.845745	1.083458	99
Es	0.328127	-0.298162	1.032045	99
Es	-0.194272	1.487249	0.645474	99
Es	0.897963	-1.145243	-1.628305	99
Es	0.352383	-0.613455	-1.593804	99
Es	0.970488	-1.676163	-2.127267	99
Es	-0.253918	0.749017	0.706475	99
Es	0.953885	2.909316	0.798886	99
Es	-1.358369	-0.251155	1.804939	99
Es	0.931987	2.176069	0.874457	99
Es	-1.330521	-0.385713	-0.813195	99
Es	0.440405	-1.172240	-2.100000	99
Es	-0.872996	-1.417399	-0.392740	99
Es	-0.518159	-0.338498	0.114598	99
Es	-1.156867	-0.010683	2.335801	99
Es	-1.387949	-0.863544	1.903192	99
Es	0.808790	-2.367723	-1.925676	99
Es	0.463579	1.803800	0.452847	99
Es	-0.175148	-0.652263	-1.061597	99
Es	0.297392	1.865885	1.076136	99
Es	0.530423	0.062926	-1.821287	99
Es	1.488263	-1.597419	-2.644294	99
45
Properties=species:S:1:pos:R:3:Z:I:1 energy=-288.1142354881005 field_type=dipole dipole="0.000000 0.000000 0.000000" charge=0
N	-1.358872	-0.250946	1.804792	7
C	-0.328002	-0.004846	0.791752	6
C	-0.719501	-0.695706	-0.536138	6
C	0.352458	-0.613536	-1.593878	6
C	0.970438	-1.676076	-2.127228	6
C	-0.194192	1.487324	0.645492	6
C	0.931898	2.176014	0.874432	6
H	-1.047092	0.156584	2.685942	1
H	-1.429892	-1.253406	1.970192	1
H	0.613628	-0.437666	1.153362	1
H	-1.636162	-0.247916	-0.942008	1
H	-0.954292	-1.750386	-0.336758	1
H	0.617578	0.381364	-1.946538	1
H	0.735838	-2.689726	-1.819528	1
H	1.728248	-1.547726	-2.894458	1
H	-1.086092	2.026994	0.331882	1
H	1.847758	1.685344	1.188752	1
H	0.956248	3.254304	0.749942	1
Es	0.440736	-1.171797	-2.100627	99
Es	0.931991	2.176070	0.874452	99
Es	-0.328137	-0.004838	0.791796	99
Es	-0.175290	-0.652233	-1.061803	99
Es	0.463026	1.804416	0.453201	99
Es	0.352385	-0.613454	-1.593808	99
Es	-0.873152	-1.417414	-0.392726	99
Es	0.328014	-0.298130	1.032029	99
Es	-0.719444	-0.695684	-0.536140	99
Es	0.297945	1.865260	1.075813	99
Es	1.557023	1.845536	1.082771	99
Es	-0.518374	-0.338652	0.114591	99
Es	0.953616	2.909383	0.799407	99
Es	-1.358392	-0.251127	1.804894	99
Es	0.970484	-1.676164	-2.127275	99
Es	-0.253803	0.749006	0.706009	99
Es	-0.891910	-0.161091	1.385267	99
Es	1.488760	-1.597365	-2.643755	99
Es	-0.194272	1.487252	0.645481	99
Es	0.530920	0.062699	-1.820760	99
Es	-1.663036	-0.110080	1.693369	99
Es	-0.802714	1.845217	0.435843	99
Es	-1.388851	-0.863825	1.902898	99
Es	0.897448	-1.145785	-1.627865	99
Es	-1.157031	-0.010576	2.335833	99
Es	-1.330379	-0.385680	-0.813256	99
Es	0.808252	-2.367568	-1.926220	99
45
Properties=species:S:1:pos:R:3:Z:I:1 energy=-288.1142354881005 field_type=dipole dipole="0.000000 0.000000 0.000000" charge=0
N	-1.358872	-0.250946	1.804792	7
C	-0.328002	-0.004846	0.791752	6
C	-0.719501	-0.695706	-0.536138	6
C	0.352458	-0.613536	-1.593878	6
C	0.970438	-1.676076	-2.127228	6
C	-0.194192	1.487324	0.645492	6
C	0.931898	2.176014	0.874432	6
H	-1.047092	0.156584	2.685942	1
H	-1.429892	-1.253406	1.970192	1
H	0.613628	-0.437666	1.153362	1
H	-1.636162	-0.247916	-0.942008	1
H	-0.954292	-1.750386	-0.336758	1
H	0.617578	0.381364	-1.946538	1
H	0.735838	-2.689726	-1.819528	1
H	1.728248	-1.547726	-2.894458	1
H	-1.086092	2.026994	0.331882	1
H	1.847758	1.685344	1.188752	1
H	0.956248	3.254304	0.749942	1
Es	-0.328135	-0.004840	0.791801	99
Es	1.557199	1.845291	1.082187	99
Es	0.807603	-2.367481	-1.926721	99
Es	-0.518594	-0.338482	0.114585	99
Es	-0.175509	-0.652443	-1.062177	99
Es	0.327924	-0.298277	1.031957	99
Es	-1.158105	-0.009629	2.336087	99
Es	0.298368	1.864631	1.075342	99
Es	0.352380	-0.613455	-1.593809	99
Es	0.931988	2.176070	0.874455	99
Es	-0.253686	0.749199	0.706038	99
Es	0.531348	0.062632	-1.820278	99
Es	0.462791	1.805028	0.453374	99
Es	0.896979	-1.146219	-1.627529	99
Es	0.441347	-1.171314	-2.101087	99
Es	1.489145	-1.597360	-2.643237	99
Es	-1.358353	-0.251137	1.804887	99
Es	-1.661767	-0.110202	1.691930	99
Es	0.970482	-1.676164	-2.127274	99
Es	-0.802872	1.845417	0.436411	99
Es	-1.389483	-0.863962	1.902849	99
Es	-0.194273	1.487250	0.645475	99
Es	-0.873117	-1.417288	-0.392620	99
Es	-1.330402	-0.385834	-0.813291	99
Es	-0.891294	-0.161814	1.386214	99
Es	-0.719446	-0.695685	-0.536142	99
Es	0.953298	2.909443	0.799989	99
45
Properties=species:S:1:pos:R:3:Z:I:1 energy=-288.1142354881005 field_type=dipole dipole="0.000000 0.000000 0.000000" charge=0
N	-1.358872	-0.250946	1.804792	7
C	-0.328002	-0.004846	0.791752	6
C	-0.719501	-0.695706	-0.536138	6
C	0.352458	-0.613536	-1.593878	6
C	0.970438	-1.676076	-2.127228	6
C	-0.194192	1.487324	0.645492	6
C	0.931898	2.176014	0.874432	6
H	-1.047092	0.156584	2.685942	1
H	-1.429892	-1.253406	1.970192	1
H	0.613628	-0.437666	1.153362	1
H	-1.636162	-0.247916	-0.942008	1
H	-0.954292	-1.750386	-0.336758	1
H	0.617578	0.381364	-1.946538	1
H	0.735838	-2.689726	-1.819528	1
H	1.728248	-1.547726	-2.894458	1
H	-1.086092	2.026994	0.331882	1
H	1.847758	1.685344	1.188752	1
H	0.956248	3.254304	0.749942	1
Es	0.441648	-1.171051	-2.101327	99
Es	-0.719444	-0.695686	-0.536141	99
Es	0.807173	-2.367416	-1.927246	99
Es	-1.391379	-0.863984	1.902502	99
Es	-1.358335	-0.251148	1.804897	99
Es	0.931989	2.176071	0.874455	99
Es	-0.518700	-0.338975	0.114605	99
Es	1.489436	-1.597196	-2.642884	99
Es	0.298755	1.864088	1.074904	99
Es	-0.873268	-1.417360	-0.392719	99
Es	-1.330307	-0.385665	-0.813306	99
Es	-0.889878	-0.162441	1.387291	99
Es	1.557328	1.845096	1.081689	99
Es	-0.194272	1.487248	0.645472	99
Es	0.896450	-1.146714	-1.627210	99
Es	0.462510	1.805557	0.453606	99
Es	0.531909	0.062446	-1.819943	99
Es	-0.328137	-0.004837	0.791796	99
Es	-1.660208	-0.109182	1.690899	99
Es	-0.253717	0.749206	0.705738	99
Es	0.352383	-0.613454	-1.593806	99
Es	0.327930	-0.298086	1.032145	99
Es	-1.158925	-0.009820	2.336087	99
Es	0.953027	2.909471	0.800528	99
Es	-0.803018	1.845630	0.436902	99
Es	0.970485	-1.676163	-2.127273	99
Es	-0.175623	-0.652256	-1.062247	99
45
Properties=species:S:1:pos:R:3:Z:I:1 energy=-288.1142354881005 field_type=dipole dipole="0.000000 0.000000 0.000000" charge=0
N	-1.358872	-0.250946	1.804792	7
C	-0.328002	-0.004846	0.791752	6
C	-0.719501	-0.695706	-0.536138	6
C	0.352458	-0.613536	-1.593878	6
C	0.970438	-1.676076	-2.127228	6
C	-0.194192	1.487324	0.645492	6
C	0.931898	2.176014	0.874432	6
H	-1.047092	0.156584	2.685942	1
H	-1.429892	-1.253406	1.970192	1
H	0.613628	-0.437666	1.153362	1
H	-1.636162	-0.247916	-0.942008	1
H	-0.954292	-1.750386	-0.336758	1
H	0.617578	0.381364	-1.946538	1
H	0.735838	-2.689726	-1.819528	1
H	1.728248	-1.547726	-2.894458	1
H	-1.086092	2.026994	0.331882	1
H	1.847758	1.685344	1.188752	1
H	0.956248	3.254304	0.749942	1
Es	0.896267	-1.147103	-1.626959	99
Es	0.352382	-0.613453	-1.593805	99
Es	0.442091	-1.170621	-2.101562	99
Es	-0.328137	-0.004838	0.791797	99
Es	-1.658895	-0.109018	1.690056	99
Es	0.299214	1.863645	1.074660	99
Es	0.931990	2.176068	0.874451	99
Es	0.327858	-0.298149	1.032143	99
Es	-1.392455	-0.864025	1.902372	99
Es	-0.803064	1.845815	0.437350	99
Es	-1.358313	-0.251140	1.804872	99
Es	0.462139	1.805977	0.453899	99
Es	-0.719444	-0.695685	-0.536141	99
Es	-0.888946	-0.162923	1.387958	99
Es	0.806691	-2.367282	-1.927601	99
Es	0.970483	-1.676163	-2.127274	99
Es	-0.194272	1.487250	0.645473	99
Es	0.952718	2.909489	0.801000	99
Es	-0.253644	0.749294	0.705587	99
Es	-0.175987	-0.652358	-1.062559	99
Es	1.489759	-1.597213	-2.642505	99
Es	-0.873299	-1.417322	-0.392732	99
Es	1.557492	1.844931	1.081138	99
Es	0.532127	0.062296	-1.819644	99
Es	-1.330249	-0.385754	-0.813302	99
Es	-0.518838	-0.338922	0.114624	99
Es	-1.159856	-0.009419	2.336119	99
45
Properties=species:S:1:pos:R:3:Z:I:1 energy=-288.1142354881005 field_type=dipole dipole="0.000000 0.000000 0.000000" charge=0
N	-1.358872	-0.250946	1.804792	7
C	-0.328002	-0.004846	0.791752	6
C	-0.719501	-0.695706	-0.536138	6
C	0.352458	-0.613536	-1.593878	6
C	0.970438	-1.676076	-2.127228	6
C	-0.194192	1.487324	0.645492	6
C	0.931898	2.176014	0.874432	6
H	-1.047092	0.156584	2.685942	1
H	-1.429892	-1.253406	1.970192	1
H	0.613628	-0.437666	1.153362	1
H	-1.636162	-0.247916	-0.942008	1
H	-0.954292	-1.750386	-0.336758	1
H	0.617578	0.381364	-1.946538	1
H	0.735838	-2.689726	-1.819528	1
H	1.728248	-1.547726	-2.894458	1
H	-1.086092	2.026994	0.331882	1
H	1.847758	1.685344	1.188752	1
H	0.956248	3.254304	0.749942	1
Es	0.327856	-0.298186	1.032093	99
Es	-1.358368	-0.251141	1.804902	99
Es	-0.194273	1.487249	0.645476	99
Es	0.970485	-1.676163	-2.127273	99
Es	0.952508	2.909560	0.801216	99
Es	0.931990	2.176069	0.874452	99
Es	-0.719446	-0.695685	-0.536141	99
Es	-0.803069	1.845942	0.437736	99
Es	-1.160627	-0.009255	2.336155	99
Es	1.557565	1.844872	1.080811	99
Es	-1.330288	-0.385822	-0.813324	99
Es	1.490175	-1.597149	-2.642049	99
Es	0.442371	-1.170378	-2.102093	99
Es	-0.519162	-0.339014	0.114663	99
Es	-0.328137	-0.004838	0.791796	99
Es	-0.176064	-0.652325	-1.062597	99
Es	-0.873248	-1.417294	-0.392635	99
Es	-0.887911	-0.163341	1.388758	99
Es	0.461866	1.806117	0.454164	99
Es	0.532536	0.062098	-1.819290	99
Es	-0.253732	0.749405	0.705486	99
Es	-1.393546	-0.864102	1.902096	99
Es	0.299587	1.863375	1.074420	99
Es	-1.657646	-0.108597	1.689144	99
Es	0.895664	-1.147379	-1.626880	99
Es	0.806346	-2.367188	-1.927865	99
Es	0.352384	-0.613454	-1.593805	99
45
Properties=species:S:1:pos:R:3:Z:I:1 energy=-288.1142354881005 field_type=dipole dipole="0.000000 0.000000 0.000000" charge=0
N	-1.358872	-0.250946	1.804792	7
C	-0.328002	-0.004846	0.791752	6
C	-0.719501	-0.695706	-0.536138	6
C	0.352458	-0.613536	-1.593878	6
C	0.970438	-1.676076	-2.127228	6
C	-0.194192	1.487324	0.645492	6
C	0.931898	2.176014	0.874432	6
H	-1.047092	0.156584	2.685942	1
H	-1.429892	-1.253406	1.970192	1
H	0.613628	-0.437666	1.153362	1
H	-1.636162	-0.247916	-0.942008	1
H	-0.954292	-1.750386	-0.336758	1
H	0.617578	0.381364	-1.946538	1
H	0.735838	-2.689726	-1.819528	1
H	1.728248	-1.547726	-2.894458	1
H	-1.086092	2.026994	0.331882	1
H	1.847758	1.685344	1.188752	1
H	0.956248	3.254304	0.749942	1
Es	-0.328137	-0.004837	0.791796	99
Es	-1.358312	-0.251141	1.804875	99
Es	0.805945	-2.367056	-1.928189	99
Es	0.895425	-1.147694	-1.626544	99
Es	-1.394779	-0.864139	1.901800	99
Es	0.931989	2.176070	0.874453	99
Es	0.352382	-0.613454	-1.593805	99
Es	1.557649	1.844666	1.080477	99
Es	0.327842	-0.298213	1.032155	99
Es	0.299884	1.862876	1.073993	99
Es	-0.873337	-1.417277	-0.392604	99
Es	-1.161543	-0.009075	2.336094	99
Es	0.442720	-1.170142	-2.102300	99
Es	0.970488	-1.676164	-2.127271	99
Es	-0.519327	-0.338897	0.114734	99
Es	0.952254	2.909591	0.801726	99
Es	-0.803137	1.846118	0.438222	99
Es	0.532803	0.061901	-1.819097	99
Es	0.461700	1.806612	0.454274	99
Es	1.490431	-1.597140	-2.641771	99
Es	-0.887010	-0.163674	1.389389	99
Es	-0.719445	-0.695685	-0.536141	99
Es	-0.194273	1.487250	0.645479	99
Es	-0.176239	-0.652299	-1.062749	99
Es	-1.330152	-0.385914	-0.813443	99
Es	-0.253703	0.749430	0.705333	99
Es	-1.656304	-0.108338	1.688529	99
45
Properties=species:S:1:pos:R:3:Z:I:1 energy=-288.1142354881005 field_type=dipole dipole="0.000000 0.000000 0.000000" charge=0
N	-1.358872	-0.250946	1.804792	7
C	-0.328002	-0.004846	0.791752	6
C	-0.719501	-0.695706	-0.536138	6
C	0.352458	-0.613536	-1.593878	6
C	0.970438	-1.676076	-2.127228	6
C	-0.194192	1.487324	0.645492	6
C	0.931898	2.176014	0.874432	6
H	-1.047092	0.156584	2.685942	1
H	-1.429892	-1.253406	1.970192	1
H	0.613628	-0.437666	1.153362	1
H	-1.636162	-0.247916	-0.942008	1
H	-0.954292	-1.750386	-0.336758	1
H	0.617578	0.381364	-1.946538	1
H	0.735838	-2.689726	-1.819528	1
H	1.728248	-1.547726	-2.894458	1
H	-1.086092	2.026994	0.331882	1
H	1.847758	1.685344	1.188752	1
H	0.956248	3.254304	0.749942	1
Es	-0.194274	1.487249	0.645478	99
Es	-1.161590	-0.009213	2.335926	99
Es	1.490640	-1.597022	-2.641562	99
Es	-0.873431	-1.417314	-0.392653	99
Es	-1.655166	-0.107664	1.688405	99
Es	0.300219	1.862607	1.073800	99
Es	0.442915	-1.169869	-2.102390	99
Es	0.970485	-1.676163	-2.127273	99
Es	-0.719445	-0.695686	-0.536141	99
Es	0.805713	-2.366980	-1.928488	99
Es	-0.803311	1.846105	0.438617	99
Es	0.352383	-0.613454	-1.593804	99
Es	-0.253482	0.749532	0.705298	99
Es	-0.886321	-0.164064	1.389617	99
Es	0.461387	1.806912	0.454532	99
Es	0.895183	-1.148052	-1.626403	99
Es	-0.328138	-0.004837	0.791794	99
Es	-1.358299	-0.251153	1.804890	99
Es	0.931989	2.176070	0.874453	99
Es	-1.330082	-0.385833	-0.813373	99
Es	0.952004	2.909580	0.802025	99
Es	0.533055	0.061786	-1.818793	99
Es	-0.519482	-0.339108	0.114753	99
Es	-1.396280	-0.864125	1.901478	99
Es	1.557777	1.844597	1.080035	99
Es	-0.176383	-0.652296	-1.062937	99
Es	0.327748	-0.298228	1.032134	99
45
Properties=species:S:1:pos:R:3:Z:I:1 energy=-288.1142354881005 field_type=dipole dipole="0.000000 0.000000 0.000000" charge=0
N	-1.358872	-0.250946	1.804792	7
C	-0.328002	-0.004846	0.791752	6
C	-0.719501	-0.695706	-0.536138	6
C	0.352458	-0.613536	-1.593878	6
C	0.970438	-1.676076	-2.127228	6
C	-0.194192	1.487324	0.645492	6
C	0.931898	2.176014	0.874432	6
H	-1.047092	0.156584	2.685942	1
H	-1.429892	-1.253406	1.970192	1
H	0.613628	-0.437666	1.153362	1
H	-1.636162	-0.247916	-0.942008	1
H	-0.954292	-1.750386	-0.336758	1
H	0.617578	0.381364	-1.946538	1
H	0.735838	-2.689726	-1.819528	1
H	1.728248	-1.547726	-2.894458	1
H	-1.086092	2.026994	0.331882	1
H	1.847758	1.685344	1.188752	1
H	0.956248	3.254304	0.749942	1
Es	-0.176406	-0.652348	-1.062985	99
Es	0.931989	2.176070	0.874454	99
Es	-0.719445	-0.695686	-0.536142	99
Es	0.951899	2.909648	0.802192	99
Es	0.327776	-0.298197	1.032101	99
Es	-0.873379	-1.417237	-0.392595	99
Es	-1.396797	-0.864040	1.901490	99
Es	-0.253747	0.749589	0.705363	99
Es	-0.885099	-0.164325	1.390218	99
Es	0.970486	-1.676164	-2.127273	99
Es	-1.653912	-0.108152	1.687375	99
Es	-0.803289	1.846223	0.438929	99
Es	0.533312	0.061719	-1.818609	99
Es	-0.519829	-0.339276	0.114771	99
Es	0.352383	-0.613454	-1.593805	99
Es	1.557796	1.844479	1.079763	99
Es	0.894821	-1.148339	-1.626366	99
Es	0.443209	-1.169688	-2.102434	99
Es	0.805385	-2.366871	-1.928712	99
Es	-1.163077	-0.008364	2.335846	99
Es	1.490925	-1.596972	-2.641330	99
Es	0.461186	1.806901	0.454912	99
Es	0.300560	1.862440	1.073532	99
Es	-1.330174	-0.385852	-0.813446	99
Es	-1.358353	-0.251141	1.804895	99
Es	-0.194273	1.487250	0.645475	99
Es	-0.328136	-0.004838	0.791797	99
45
Properties=species:S:1:pos:R:3:Z:I:1 energy=-288.1142354881005 field_type=dipole dipole="0.000000 0.000000 0.000000" charge=0
N	-1.358872	-0.250946	1.804792	7
C	-0.328002	-0.004846	0.791752	6
C	-0.719501	-0.695706	-0.536138	6
C	0.352458	-0.613536	-1.593878	6
C	0.970438	-1.676076	-2.127228	6
C	-0.194192	1.487324	0.645492	6
C	0.931898	2.176014	0.874432	6
H	-1.047092	0.156584	2.685942	1
H	-1.429892	-1.253406	1.970192	1
H	0.613628	-0.437666	1.153362	1
H	-1.636162	-0.247916	-0.942008	1
H	-0.954292	-1.750386	-0.336758	1
H	0.617578	0.381364	-1.946538	1
H	0.735838	-2.689726	-1.819528	1
H	1.728248	-1.547726	-2.894458	1
H	-1.086092	2.026994	0.331882	1
H	1.847758	1.685344	1.188752	1
H	0.956248	3.254304	0.749942	1
Es	-1.358315	-0.251136	1.804864	99
Es	0.352382	-0.613455	-1.593806	99
Es	-0.519807	-0.339465	0.114911	99
Es	0.931989	2.176070	0.874453	99
Es	-1.396967	-0.863771	1.900227	99
Es	0.951848	2.909544	0.802318	99
Es	1.557855	1.844520	1.079749	99
Es	-0.328140	-0.004839	0.791801	99
Es	-1.653565	-0.108401	1.687194	99
Es	0.894950	-1.148304	-1.626227	99
Es	-0.176237	-0.652148	-1.063066	99
Es	1.490829	-1.597104	-2.641503	99
Es	-0.803293	1.846102	0.439144	99
Es	0.327810	-0.298067	1.032156	99
Es	-1.163375	-0.008012	2.335976	99
Es	-0.719447	-0.695684	-0.536142	99
Es	-0.253726	0.749492	0.705242	99
Es	0.461278	1.807229	0.454529	99
Es	-1.330212	-0.386103	-0.812188	99
Es	-0.194273	1.487249	0.645476	99
Es	0.805251	-2.366765	-1.928759	99
Es	0.533385	0.061621	-1.818541	99
Es	-0.885063	-0.164414	1.390307	99
Es	0.970487	-1.676164	-2.127270	99
Es	-0.873339	-1.417150	-0.392618	99
Es	0.443122	-1.169738	-2.102502	99
Es	0.300389	1.862271	1.073691	99
45
Properties=species:S:1:pos:R:3:Z:I:1 energy=-288.1142354881005 field_type=dipole dipole="0.000000 0.000000 0.000000" charge=0
N	-1.358872	-0.250946	1.804792	7
C	-0.328002	-0.004846	0.791752	6
C	-0.719501	-0.695706	-0.536138	6
C	0.352458	-0.613536	-1.593878	6
C	0.970438	-1.676076	-2.127228	6
C	-0.194192	1.487324	0.645492	6
C	0.931898	2.176014	0.874432	6
H	-1.047092	0.156584	2.685942	1
H	-1.429892	-1.253406	1.970192	1
H	0.613628	-0.437666	1.153362	1
H	-1.636162	-0.247916	-0.942008	1
H	-0.954292	-1.750386	-0.336758	1
H	0.617578	0.381364	-1.946538	1
H	0.735838	-2.689726	-1.819528	1
H	1.728248	-1.547726	-2.894458	1
H	-1.086092	2.026994	0.331882	1
H	1.847758	1.685344	1.188752	1
H	0.956248	3.254304	0.749942	1
Es	0.327652	-0.298107	1.032135	99
Es	0.894872	-1.148371	-1.626234	99
Es	-0.873518	-1.417052	-0.392574	99
Es	-1.329868	-0.386518	-0.811528	99
Es	-0.520132	-0.339191	0.115041	99
Es	0.931989	2.176070	0.874454	99
Es	-1.397228	-0.863642	1.899164	99
Es	-0.253581	0.749574	0.705259	99
Es	-0.803338	1.846057	0.439132	99
Es	0.443184	-1.169629	-2.102576	99
Es	0.970484	-1.676165	-2.127274	99
Es	-1.163421	-0.007716	2.336009	99
Es	-0.176305	-0.652205	-1.062943	99
Es	-1.653106	-0.108592	1.687301	99
Es	-0.194270	1.487246	0.645473	99
Es	0.533494	0.061380	-1.818544	99
Es	-1.358321	-0.251131	1.804861	99
Es	1.490966	-1.597135	-2.641475	99
Es	0.352379	-0.613454	-1.593803	99
Es	-0.719445	-0.695686	-0.536142	99
Es	0.461139	1.806958	0.454751	99
Es	1.557832	1.844545	1.079724	99
Es	0.300554	1.862415	1.073696	99
Es	-0.885199	-0.164329	1.390203	99
Es	-0.328139	-0.004839	0.791800	99
Es	0.951900	2.909537	0.802275	99
Es	0.805244	-2.366646	-1.928769	99
