42
Properties=species:S:1:pos:R:3:Z:I:1 energy=-286.91093901857414 field_type=dipole dipole="0.000000 0.000000 0.000000" charge=0
N	-2.850263	-1.065587	0.330229	7
C	-1.390363	-1.026777	0.382529	6
C	-0.871823	0.410683	0.261939	6
C	0.629647	0.460923	0.322699	6
C	1.402916	0.914463	-0.673751	6
C	2.818577	0.942793	-0.556721	6
C	4.013717	0.968483	-0.461821	6
H	-3.161553	-2.034967	0.383789	1
H	-3.169613	-0.715407	-0.572381	1
H	-0.985523	-1.645627	-0.426661	1
H	-1.060463	-1.467447	1.330219	1
H	-1.271303	1.020893	1.081459	1
H	-1.234123	0.858063	-0.672371	1
H	1.088227	0.113483	1.247099	1
H	0.966256	1.274333	-1.600611	1
H	5.075686	0.991693	-0.375641	1
Es	1.076708	0.400650	-0.324796	99
Es	-3.025894	-0.866604	-0.228517	99
Es	-1.100339	-1.448560	-0.178246	99
Es	2.134955	0.931462	-0.619067	99
Es	-1.129076	0.819339	0.817445	99
Es	3.407172	0.678754	-0.279313	99
Es	-1.118006	-0.299480	0.321308	99
Es	1.043162	0.996041	-0.077753	99
Es	4.706773	0.983392	-0.405468	99
Es	2.818315	0.942802	-0.556737	99
Es	-3.023143	-1.657759	0.346272	99
Es	-1.161998	-1.326390	1.032690	99
Es	-2.215976	-1.059125	0.332009	99
Es	4.013965	0.968484	-0.461796	99
Es	1.403083	0.914500	-0.673813	99
Es	1.121694	1.156991	-1.297311	99
Es	0.931739	0.222106	0.948631	99
Es	-2.850023	-1.065894	0.329800	99
Es	-0.112762	0.431943	0.284036	99
Es	0.629569	0.460895	0.322760	99
Es	-1.390495	-1.026727	0.382523	99
Es	-2.993957	-0.874349	0.590787	99
Es	-1.115609	0.710409	-0.381865	99
Es	-0.871767	0.410654	0.261935	99
Es	3.393980	1.284035	-0.379976	99
Es	3.450720	0.900538	-0.860347	99
42
Properties=species:S:1:pos:R:3:Z:I:1 energy=-286.91093901857414 field_type=dipole dipole="0.000000 0.000000 0.000000" charge=0
N	-2.850263	-1.065587	0.330229	7
C	-1.390363	-1.026777	0.382529	6
C	-0.871823	0.410683	0.261939	6
C	0.629647	0.460923	0.322699	6
C	1.402916	0.914463	-0.673751	6
C	2.818577	0.942793	-0.556721	6
C	4.013717	0.968483	-0.461821	6
H	-3.161553	-2.034967	0.383789	1
H	-3.169613	-0.715407	-0.572381	1
H	-0.985523	-1.645627	-0.426661	1
H	-1.060463	-1.467447	1.330219	1
H	-1.271303	1.020893	1.081459	1
H	-1.234123	0.858063	-0.672371	1
H	1.088227	0.113483	1.247099	1
H	0.966256	1.274333	-1.600611	1
H	5.075686	0.991693	-0.375641	1
Es	-1.390496	-1.026727	0.382523	99
Es	4.013972	0.968488	-0.461801	99
Es	1.043221	0.992629	-0.079484	99
Es	1.076118	0.404297	-0.323557	99
Es	1.403089	0.914504	-0.673818	99
Es	4.708916	0.984992	-0.409512	99
Es	0.629565	0.460891	0.322762	99
Es	3.387493	1.143190	-0.218244	99
Es	-3.029058	-0.867893	-0.225461	99
Es	-1.100010	-1.447460	-0.177142	99
Es	2.818314	0.942785	-0.556739	99
Es	2.136968	0.930253	-0.615369	99
Es	-1.160775	-1.325859	1.031012	99
Es	-3.029768	-1.654868	0.352893	99
Es	-2.990592	-0.876762	0.580149	99
Es	-0.871762	0.410652	0.261936	99
Es	-1.117245	0.709206	-0.379189	99
Es	3.417829	0.612900	-0.466504	99
Es	-1.130508	0.817232	0.814693	99
Es	1.120993	1.155612	-1.294466	99
Es	3.446282	1.106929	-0.834651	99
Es	-2.850008	-1.065893	0.329797	99
Es	-0.110877	0.432416	0.284425	99
Es	0.932194	0.223163	0.946038	99
Es	-2.212112	-1.058473	0.333351	99
Es	-1.118953	-0.298096	0.321550	99
42
Properties=species:S:1:pos:R:3:Z:I:1 energy=-286.91093901857414 field_type=dipole dipole="0.000000 0.000000 0.000000" charge=0
N	-2.850263	-1.065587	0.330229	7
C	-1.390363	-1.026777	0.382529	6
C	-0.871823	0.410683	0.261939	6
C	0.629647	0.460923	0.322699	6
C	1.402916	0.914463	-0.673751	6
C	2.818577	0.942793	-0.556721	6
C	4.013717	0.968483	-0.461821	6
H	-3.161553	-2.034967	0.383789	1
H	-3.169613	-0.715407	-0.572381	1
H	-0.985523	-1.645627	-0.426661	1
H	-1.060463	-1.467447	1.330219	1
H	-1.271303	1.020893	1.081459	1
H	-1.234123	0.858063	-0.672371	1
H	1.088227	0.113483	1.247099	1
H	0.966256	1.274333	-1.600611	1
H	5.075686	0.991693	-0.375641	1
Es	0.629566	0.460893	0.322762	99
Es	4.709517	0.986612	-0.411810	99
Es	1.042890	0.991284	-0.079952	99
Es	-1.390497	-1.026726	0.382523	99
Es	3.449797	0.997645	-0.865932	99
Es	-3.036326	-1.652358	0.361603	99
Es	1.076451	0.405619	-0.323105	99
Es	3.410850	0.649039	-0.329599	99
Es	-2.850014	-1.065906	0.329761	99
Es	-1.131108	0.816194	0.813203	99
Es	2.818313	0.942786	-0.556736	99
Es	-2.985837	-0.876399	0.570388	99
Es	-1.118097	0.707960	-0.377147	99
Es	-3.029943	-0.870714	-0.223353	99
Es	-2.210642	-1.058720	0.333091	99
Es	4.013975	0.968492	-0.461807	99
Es	2.138040	0.929761	-0.613721	99
Es	-0.871763	0.410652	0.261936	99
Es	-1.119291	-0.297320	0.321577	99
Es	0.931956	0.224483	0.944005	99
Es	3.390861	1.215393	-0.323976	99
Es	-1.099747	-1.447223	-0.176453	99
Es	1.120985	1.154264	-1.292444	99
Es	-0.110063	0.432702	0.284500	99
Es	-1.160173	-1.324811	1.029695	99
Es	1.403092	0.914503	-0.673819	99
42
Properties=species:S:1:pos:R:3:Z:I:1 energy=-286.91093901857414 field_type=dipole dipole="0.000000 0.000000 0.000000" charge=0
N	-2.850263	-1.065587	0.330229	7
C	-1.390363	-1.026777	0.382529	6
C	-0.871823	0.410683	0.261939	6
C	0.629647	0.460923	0.322699	6
C	1.402916	0.914463	-0.673751	6
C	2.818577	0.942793	-0.556721	6
C	4.013717	0.968483	-0.461821	6
H	-3.161553	-2.034967	0.383789	1
H	-3.169613	-0.715407	-0.572381	1
H	-0.985523	-1.645627	-0.426661	1
H	-1.060463	-1.467447	1.330219	1
H	-1.271303	1.020893	1.081459	1
H	-1.234123	0.858063	-0.672371	1
H	1.088227	0.113483	1.247099	1
H	0.966256	1.274333	-1.600611	1
H	5.075686	0.991693	-0.375641	1
Es	4.013979	0.968489	-0.461806	99
Es	-3.045616	-1.649139	0.372788	99
Es	-1.160066	-1.324181	1.028570	99
Es	3.440239	1.176964	-0.793382	99
Es	1.403094	0.914491	-0.673826	99
Es	-2.849994	-1.065919	0.329762	99
Es	-0.871764	0.410648	0.261937	99
Es	-1.118151	0.707033	-0.375299	99
Es	1.121577	1.153485	-1.290142	99
Es	-1.099750	-1.447211	-0.175715	99
Es	0.629564	0.460889	0.322760	99
Es	2.818310	0.942772	-0.556731	99
Es	-1.390499	-1.026724	0.382523	99
Es	1.043186	0.991437	-0.079553	99
Es	3.421701	0.665527	-0.568478	99
Es	1.076292	0.405915	-0.323143	99
Es	0.931115	0.224973	0.941709	99
Es	-2.977219	-0.879307	0.557726	99
Es	4.709821	0.985590	-0.413937	99
Es	-3.030643	-0.870545	-0.220768	99
Es	2.138710	0.929347	-0.613647	99
Es	3.389466	1.020916	-0.156661	99
Es	-0.109683	0.432789	0.284504	99
Es	-1.131432	0.815784	0.812084	99
Es	-1.119553	-0.296586	0.321375	99
Es	-2.209895	-1.059332	0.332538	99
42
Properties=species:S:1:pos:R:3:Z:I:1 energy=-286.91093901857414 field_type=dipole dipole="0.000000 0.000000 0.000000" charge=0
N	-2.850263	-1.065587	0.330229	7
C	-1.390363	-1.026777	0.382529	6
C	-0.871823	0.410683	0.261939	6
C	0.629647	0.460923	0.322699	6
C	1.402916	0.914463	-0.673751	6
C	2.818577	0.942793	-0.556721	6
C	4.013717	0.968483	-0.461821	6
H	-3.161553	-2.034967	0.383789	1
H	-3.169613	-0.715407	-0.572381	1
H	-0.985523	-1.645627	-0.426661	1
H	-1.060463	-1.467447	1.330219	1
H	-1.271303	1.020893	1.081459	1
H	-1.234123	0.858063	-0.672371	1
H	1.088227	0.113483	1.247099	1
H	0.966256	1.274333	-1.600611	1
H	5.075686	0.991693	-0.375641	1
Es	-2.209448	-1.059653	0.331893	99
Es	1.042369	0.991711	-0.078897	99
Es	1.122511	1.152433	-1.288307	99
Es	-1.099029	-1.447357	-0.175853	99
Es	2.139074	0.929438	-0.613905	99
Es	-1.390501	-1.026723	0.382525	99
Es	-2.968861	-0.884220	0.544123	99
Es	-2.849956	-1.065980	0.329695	99
Es	-3.054884	-1.643258	0.385391	99
Es	1.077225	0.405537	-0.323706	99
Es	4.709947	0.985575	-0.414694	99
Es	-0.109494	0.433168	0.284496	99
Es	0.629562	0.460891	0.322762	99
Es	-1.160453	-1.323378	1.027330	99
Es	3.421592	0.688191	-0.578223	99
Es	2.818305	0.942782	-0.556734	99
Es	3.439978	1.179847	-0.790238	99
Es	0.929985	0.226144	0.939906	99
Es	-1.117636	0.705906	-0.373690	99
Es	-3.030575	-0.871214	-0.218484	99
Es	4.013980	0.968488	-0.461807	99
Es	3.389843	0.995151	-0.149767	99
Es	-0.871764	0.410651	0.261936	99
Es	-1.132236	0.815863	0.811450	99
Es	-1.119840	-0.296389	0.321814	99
Es	1.403094	0.914501	-0.673822	99
42
Properties=species:S:1:pos:R:3:Z:I:1 energy=-286.91093901857414 field_type=dipole dipole="0.000000 0.000000 0.000000" charge=0
N	-2.850263	-1.065587	0.330229	7
C	-1.390363	-1.026777	0.382529	6
C	-0.871823	0.410683	0.261939	6
C	0.629647	0.460923	0.322699	6
C	1.402916	0.914463	-0.673751	6
C	2.818577	0.942793	-0.556721	6
C	4.013717	0.968483	-0.461821	6
H	-3.161553	-2.034967	0.383789	1
H	-3.169613	-0.715407	-0.572381	1
H	-0.985523	-1.645627	-0.426661	1
H	-1.060463	-1.467447	1.330219	1
H	-1.271303	1.020893	1.081459	1
H	-1.234123	0.858063	-0.672371	1
H	1.088227	0.113483	1.247099	1
H	0.966256	1.274333	-1.600611	1
H	5.075686	0.991693	-0.375641	1
Es	-3.028091	-0.873503	-0.216626	99
Es	-1.119418	-0.295944	0.321839	99
Es	-2.849956	-1.065993	0.329690	99
Es	1.403094	0.914500	-0.673821	99
Es	-1.161261	-1.322554	1.026017	99
Es	1.123705	1.150323	-1.287076	99
Es	-1.097986	-1.447696	-0.176175	99
Es	2.818304	0.942787	-0.556724	99
Es	3.397100	1.195830	-0.409777	99
Es	-3.064064	-1.635468	0.397272	99
Es	1.078209	0.404854	-0.323392	99
Es	4.013981	0.968493	-0.461811	99
Es	-1.133799	0.815851	0.811732	99
Es	-1.116884	0.704851	-0.372195	99
Es	-1.390501	-1.026722	0.382524	99
Es	4.709999	0.986495	-0.414440	99
Es	-2.962634	-0.889946	0.530327	99
Es	-0.109412	0.433478	0.284231	99
Es	3.404238	0.710775	-0.240539	99
Es	-2.209181	-1.059456	0.332336	99
Es	1.041349	0.992792	-0.078961	99
Es	0.928795	0.227767	0.938517	99
Es	3.450115	0.955513	-0.868211	99
Es	-0.871762	0.410651	0.261934	99
Es	2.139287	0.929535	-0.614248	99
Es	0.629562	0.460894	0.322763	99
42
Properties=species:S:1:pos:R:3:Z:I:1 energy=-286.91093901857414 field_type=dipole dipole="0.000000 0.000000 0.000000" charge=0
N	-2.850263	-1.065587	0.330229	7
C	-1.390363	-1.026777	0.382529	6
C	-0.871823	0.410683	0.261939	6
C	0.629647	0.460923	0.322699	6
C	1.402916	0.914463	-0.673751	6
C	2.818577	0.942793	-0.556721	6
C	4.013717	0.968483	-0.461821	6
H	-3.161553	-2.034967	0.383789	1
H	-3.169613	-0.715407	-0.572381	1
H	-0.985523	-1.645627	-0.426661	1
H	-1.060463	-1.467447	1.330219	1
H	-1.271303	1.020893	1.081459	1
H	-1.234123	0.858063	-0.672371	1
H	1.088227	0.113483	1.247099	1
H	0.966256	1.274333	-1.600611	1
H	5.075686	0.991693	-0.375641	1
Es	0.927735	0.227960	0.936941	99
Es	-1.390501	-1.026725	0.382529	99
Es	1.124679	1.150179	-1.285490	99
Es	0.629562	0.460898	0.322763	99
Es	4.013981	0.968489	-0.461815	99
Es	-0.871761	0.410652	0.261931	99
Es	-2.209094	-1.060253	0.331141	99
Es	1.403095	0.914494	-0.673825	99
Es	-1.134438	0.816019	0.811467	99
Es	-3.074815	-1.621542	0.413538	99
Es	2.818306	0.942780	-0.556730	99
Es	-1.097664	-1.448053	-0.175892	99
Es	1.078380	0.404416	-0.324151	99
Es	3.420589	0.697184	-0.567869	99
Es	3.389445	0.998992	-0.150826	99
Es	4.710103	0.985169	-0.414930	99
Es	2.139396	0.929557	-0.614563	99
Es	-0.109346	0.433534	0.284209	99
Es	-1.119417	-0.295592	0.321597	99
Es	-3.030971	-0.867997	-0.213808	99
Es	-2.849954	-1.066046	0.329661	99
Es	-1.161766	-1.322073	1.025134	99
Es	-1.116154	0.704345	-0.371091	99
Es	1.041221	0.993428	-0.078019	99
Es	-2.949211	-0.908515	0.512693	99
Es	3.441392	1.166808	-0.799406	99
42
Properties=species:S:1:pos:R:3:Z:I:1 energy=-286.91093901857414 field_type=dipole dipole="0.000000 0.000000 0.000000" charge=0
N	-2.850263	-1.065587	0.330229	7
C	-1.390363	-1.026777	0.382529	6
C	-0.871823	0.410683	0.261939	6
C	0.629647	0.460923	0.322699	6
C	1.402916	0.914463	-0.673751	6
C	2.818577	0.942793	-0.556721	6
C	4.013717	0.968483	-0.461821	6
H	-3.161553	-2.034967	0.383789	1
H	-3.169613	-0.715407	-0.572381	1
H	-0.985523	-1.645627	-0.426661	1
H	-1.060463	-1.467447	1.330219	1
H	-1.271303	1.020893	1.081459	1
H	-1.234123	0.858063	-0.672371	1
H	1.088227	0.113483	1.247099	1
H	0.966256	1.274333	-1.600611	1
H	5.075686	0.991693	-0.375641	1
Es	-0.109301	0.433514	0.284315	99
Es	3.389202	1.182203	-0.279639	99
Es	2.139469	0.929012	-0.614288	99
Es	1.079514	0.405171	-0.322998	99
Es	-1.161462	-1.321679	1.025567	99
Es	0.629562	0.460895	0.322763	99
Es	4.013981	0.968490	-0.461811	99
Es	-1.390501	-1.026723	0.382524	99
Es	1.403095	0.914496	-0.673822	99
Es	0.927899	0.229061	0.937433	99
Es	-0.871762	0.410651	0.261934	99
Es	-1.135484	0.815295	0.812256	99
Es	-1.096904	-1.447507	-0.176734	99
Es	1.040139	0.993349	-0.078963	99
Es	-3.027928	-0.870748	-0.213294	99
Es	3.449189	1.032824	-0.859888	99
Es	-2.208908	-1.059912	0.332468	99
Es	-2.935148	-0.942355	0.478707	99
Es	4.710126	0.985920	-0.414272	99
Es	1.124447	1.148394	-1.286322	99
Es	3.412990	0.647709	-0.379391	99
Es	-2.850014	-1.065895	0.329807	99
Es	2.818304	0.942781	-0.556725	99
Es	-1.119238	-0.295560	0.321345	99
Es	-3.092090	-1.585383	0.445533	99
Es	-1.116388	0.704103	-0.371315	99
42
Properties=species:S:1:pos:R:3:Z:I:1 energy=-286.91093901857414 field_type=dipole dipole="0.000000 0.000000 0.000000" charge=0
N	-2.850263	-1.065587	0.330229	7
C	-1.390363	-1.026777	0.382529	6
C	-0.871823	0.410683	0.261939	6
C	0.629647	0.460923	0.322699	6
C	1.402916	0.914463	-0.673751	6
C	2.818577	0.942793	-0.556721	6
C	4.013717	0.968483	-0.461821	6
H	-3.161553	-2.034967	0.383789	1
H	-3.169613	-0.715407	-0.572381	1
H	-0.985523	-1.645627	-0.426661	1
H	-1.060463	-1.467447	1.330219	1
H	-1.271303	1.020893	1.081459	1
H	-1.234123	0.858063	-0.672371	1
H	1.088227	0.113483	1.247099	1
H	0.966256	1.274333	-1.600611	1
H	5.075686	0.991693	-0.375641	1
Es	-0.871763	0.410653	0.261935	99
Es	-1.119270	-0.295179	0.321720	99
Es	3.420252	0.681356	-0.554516	99
Es	0.925935	0.229096	0.934658	99
Es	2.818304	0.942780	-0.556725	99
Es	-1.390499	-1.026726	0.382522	99
Es	-0.109301	0.433616	0.284069	99
Es	-1.096868	-1.448837	-0.175530	99
Es	3.442535	1.154964	-0.805643	99
Es	-2.850009	-1.066105	0.329728	99
Es	-1.135459	0.816459	0.811029	99
Es	-3.030765	-0.863962	-0.209279	99
Es	4.013982	0.968490	-0.461812	99
Es	-1.162787	-1.321164	1.023838	99
Es	1.040356	0.994541	-0.077113	99
Es	2.139485	0.929674	-0.614897	99
Es	-2.932928	-0.943201	0.482039	99
Es	-3.091535	-1.590464	0.439576	99
Es	-2.208924	-1.060556	0.331299	99
Es	0.629562	0.460893	0.322761	99
Es	-1.115145	0.703392	-0.369773	99
Es	4.710197	0.984824	-0.414589	99
Es	1.079228	0.403022	-0.324978	99
Es	3.388642	1.026672	-0.158013	99
Es	1.126470	1.149369	-1.283292	99
Es	1.403095	0.914498	-0.673822	99
42
Properties=species:S:1:pos:R:3:Z:I:1 energy=-286.91093901857414 field_type=dipole dipole="0.000000 0.000000 0.000000" charge=0
N	-2.850263	-1.065587	0.330229	7
C	-1.390363	-1.026777	0.382529	6
C	-0.871823	0.410683	0.261939	6
C	0.629647	0.460923	0.322699	6
C	1.402916	0.914463	-0.673751	6
C	2.818577	0.942793	-0.556721	6
C	4.013717	0.968483	-0.461821	6
H	-3.161553	-2.034967	0.383789	1
H	-3.169613	-0.715407	-0.572381	1
H	-0.985523	-1.645627	-0.426661	1
H	-1.060463	-1.467447	1.330219	1
H	-1.271303	1.020893	1.081459	1
H	-1.234123	0.858063	-0.672371	1
H	1.088227	0.113483	1.247099	1
H	0.966256	1.274333	-1.600611	1
H	5.075686	0.991693	-0.375641	1
Es	3.403590	0.720984	-0.235326	99
Es	2.818303	0.942783	-0.556726	99
Es	-2.932785	-0.947541	0.476470	99
Es	-2.208808	-1.059802	0.332309	99
Es	-3.096262	-1.582925	0.442788	99
Es	3.450150	0.932295	-0.864979	99
Es	-1.119074	-0.295045	0.321865	99
Es	0.629561	0.460900	0.322763	99
Es	-0.871762	0.410652	0.261935	99
Es	4.710226	0.985561	-0.413994	99
Es	1.403095	0.914497	-0.673827	99
Es	3.397707	1.209113	-0.417977	99
Es	-3.026345	-0.868163	-0.207950	99
Es	4.013982	0.968494	-0.461809	99
Es	-2.849998	-1.065919	0.329776	99
Es	-1.136499	0.816589	0.810955	99
Es	1.079909	0.401915	-0.323535	99
Es	1.127201	1.147219	-1.283008	99
Es	1.039952	0.996301	-0.077778	99
Es	2.139497	0.929723	-0.615293	99
Es	-1.114306	0.702869	-0.368885	99
Es	-1.096063	-1.449220	-0.175556	99
Es	-0.109292	0.433727	0.284014	99
Es	-1.163626	-1.320627	1.022768	99
Es	0.924938	0.230442	0.933666	99
Es	-1.390502	-1.026717	0.382523	99
42
Properties=species:S:1:pos:R:3:Z:I:1 energy=-286.91093901857414 field_type=dipole dipole="0.000000 0.000000 0.000000" charge=0
N	-2.850263	-1.065587	0.330229	7
C	-1.390363	-1.026777	0.382529	6
C	-0.871823	0.410683	0.261939	6
C	0.629647	0.460923	0.322699	6
C	1.402916	0.914463	-0.673751	6
C	2.818577	0.942793	-0.556721	6
C	4.013717	0.968483	-0.461821	6
H	-3.161553	-2.034967	0.383789	1
H	-3.169613	-0.715407	-0.572381	1
H	-0.985523	-1.645627	-0.426661	1
H	-1.060463	-1.467447	1.330219	1
H	-1.271303	1.020893	1.081459	1
H	-1.234123	0.858063	-0.672371	1
H	1.088227	0.113483	1.247099	1
H	0.966256	1.274333	-1.600611	1
H	5.075686	0.991693	-0.375641	1
Es	4.013981	0.968492	-0.461811	99
Es	-1.390501	-1.026720	0.382524	99
Es	0.629562	0.460894	0.322762	99
Es	-2.208815	-1.059995	0.332040	99
Es	1.403095	0.914496	-0.673823	99
Es	-2.850008	-1.065912	0.329781	99
Es	3.388668	1.027253	-0.159514	99
Es	1.127773	1.148063	-1.281949	99
Es	0.924543	0.230085	0.932904	99
Es	-3.100984	-1.568807	0.452766	99
Es	3.420344	0.678830	-0.554526	99
Es	-1.136430	0.816832	0.810553	99
Es	1.080368	0.402402	-0.325059	99
Es	4.710269	0.984709	-0.414121	99
Es	-0.109283	0.433797	0.284051	99
Es	-1.096338	-1.449556	-0.175049	99
Es	-1.114050	0.702710	-0.368573	99
Es	3.442424	1.156717	-0.804156	99
Es	-1.118838	-0.294743	0.321922	99
Es	2.139518	0.929890	-0.615199	99
Es	-1.163933	-1.320636	1.022241	99
Es	-2.924782	-0.967916	0.463940	99
Es	-0.871761	0.410650	0.261933	99
Es	-3.029635	-0.861640	-0.205095	99
Es	1.039298	0.995428	-0.076624	99
Es	2.818304	0.942784	-0.556730	99
42
Properties=species:S:1:pos:R:3:Z:I:1 energy=-286.91093901857414 field_type=dipole dipole="0.000000 0.000000 0.000000" charge=0
N	-2.850263	-1.065587	0.330229	7
C	-1.390363	-1.026777	0.382529	6
C	-0.871823	0.410683	0.261939	6
C	0.629647	0.460923	0.322699	6
C	1.402916	0.914463	-0.673751	6
C	2.818577	0.942793	-0.556721	6
C	4.013717	0.968483	-0.461821	6
H	-3.161553	-2.034967	0.383789	1
H	-3.169613	-0.715407	-0.572381	1
H	-0.985523	-1.645627	-0.426661	1
H	-1.060463	-1.467447	1.330219	1
H	-1.271303	1.020893	1.081459	1
H	-1.234123	0.858063	-0.672371	1
H	1.088227	0.113483	1.247099	1
H	0.966256	1.274333	-1.600611	1
H	5.075686	0.991693	-0.375641	1
Es	-0.871762	0.410650	0.261935	99
Es	-1.135884	0.816759	0.810065	99
Es	3.444295	1.134139	-0.817386	99
Es	2.139528	0.930004	-0.615160	99
Es	-1.096474	-1.449386	-0.175014	99
Es	-2.918330	-0.989720	0.449295	99
Es	0.924215	0.230084	0.932352	99
Es	4.013980	0.968502	-0.461820	99
Es	-2.208784	-1.059888	0.332026	99
Es	0.629562	0.460899	0.322763	99
Es	1.403095	0.914494	-0.673823	99
Es	1.040224	0.995902	-0.076540	99
Es	1.127895	1.148522	-1.281549	99
Es	-0.109269	0.433874	0.284109	99
Es	-1.119297	-0.295007	0.322123	99
Es	-2.849951	-1.066204	0.329599	99
Es	-3.030113	-0.858608	-0.201638	99
Es	-1.390502	-1.026724	0.382527	99
Es	2.818305	0.942772	-0.556727	99
Es	4.710283	0.984792	-0.413931	99
Es	-3.107051	-1.549911	0.464118	99
Es	3.419288	0.662031	-0.527152	99
Es	-1.163654	-1.320684	1.022580	99
Es	3.387838	1.066645	-0.173801	99
Es	-1.114294	0.702777	-0.368708	99
Es	1.079646	0.401392	-0.325050	99
