44
Properties=species:S:1:pos:R:3:Z:I:1 energy=-304.0925895332433 field_type=dipole dipole="0.000000 0.000000 0.000000" charge=0
N	-1.846956	-1.480988	-0.573762	7
C	-0.390007	-1.368938	-0.465432	6
C	0.123293	0.089852	-0.408032	6
C	-0.436576	0.827602	0.832448	6
N	-0.054286	2.248032	0.887098	7
C	1.567294	0.089852	-0.408032	6
C	2.757453	0.089852	-0.408032	6
H	-2.101806	-2.463968	-0.671732	1
H	-2.161206	-1.021198	-1.429122	1
H	0.056573	-1.883558	-1.325652	1
H	-0.067246	-1.915458	0.429758	1
H	-0.231616	0.611502	-1.307452	1
H	-0.088986	0.339162	1.751268	1
H	-1.530866	0.784812	0.835448	1
H	0.963554	2.317162	0.905438	1
H	-0.381976	2.643891	1.767788	1
H	3.823363	0.092392	-0.412002	1
Es	2.175737	-0.156815	-0.142065	99
Es	-1.846678	-1.481215	-0.574250	99
Es	-0.054081	2.247735	0.887539	99
Es	-0.128083	0.455079	0.200615	99
Es	-1.981619	-2.076962	-0.648352	99
Es	0.875298	0.088467	-0.405309	99
Es	2.173648	0.440123	-0.323873	99
Es	-0.185691	2.429055	0.609841	99
Es	-0.192629	0.475793	1.460371	99
Es	-2.018716	-1.212925	-1.104640	99
Es	-1.175854	0.796980	0.828443	99
Es	-1.213943	-1.432623	-0.547007	99
Es	0.123396	0.089818	-0.407996	99
Es	-2.011245	-1.339135	-0.295521	99
Es	3.454000	0.091339	-0.409834	99
Es	-0.072269	-1.714700	-1.059873	99
Es	-0.390145	-1.368872	-0.465440	99
Es	2.757720	0.089853	-0.408038	99
Es	-0.123682	-0.624946	-0.429885	99
Es	1.567039	0.089855	-0.408031	99
Es	-0.436479	0.827720	0.832385	99
Es	-0.245834	2.468099	1.430633	99
Es	2.175061	-0.014095	-0.748502	99
Es	-0.201481	1.625788	0.877044	99
Es	-0.169943	-1.737108	0.148747	99
Es	-0.101449	0.435877	-1.013979	99
Es	0.559160	2.275713	0.915969	99
44
Properties=species:S:1:pos:R:3:Z:I:1 energy=-304.0925895332433 field_type=dipole dipole="0.000000 0.000000 0.000000" charge=0
N	-1.846956	-1.480988	-0.573762	7
C	-0.390007	-1.368938	-0.465432	6
C	0.123293	0.089852	-0.408032	6
C	-0.436576	0.827602	0.832448	6
N	-0.054286	2.248032	0.887098	7
C	1.567294	0.089852	-0.408032	6
C	2.757453	0.089852	-0.408032	6
H	-2.101806	-2.463968	-0.671732	1
H	-2.161206	-1.021198	-1.429122	1
H	0.056573	-1.883558	-1.325652	1
H	-0.067246	-1.915458	0.429758	1
H	-0.231616	0.611502	-1.307452	1
H	-0.088986	0.339162	1.751268	1
H	-1.530866	0.784812	0.835448	1
H	0.963554	2.317162	0.905438	1
H	-0.381976	2.643891	1.767788	1
H	3.823363	0.092392	-0.412002	1
Es	3.455654	0.091206	-0.409420	99
Es	-0.436484	0.827718	0.832387	99
Es	2.174292	0.443609	-0.391803	99
Es	-0.169383	-1.736269	0.147775	99
Es	-0.071594	-1.714317	-1.059230	99
Es	1.567029	0.089849	-0.408025	99
Es	0.123396	0.089819	-0.407999	99
Es	-0.186392	2.424518	0.614732	99
Es	-0.248915	2.468317	1.427891	99
Es	-0.390147	-1.368870	-0.465440	99
Es	-2.021190	-1.213208	-1.102544	99
Es	-1.982483	-2.073885	-0.649148	99
Es	-0.202615	1.626865	0.876679	99
Es	-2.012537	-1.342799	-0.298597	99
Es	-1.179250	0.796399	0.828604	99
Es	0.564792	2.277465	0.914126	99
Es	2.757726	0.089850	-0.408026	99
Es	-0.128121	0.455055	0.200547	99
Es	-1.846693	-1.481210	-0.574204	99
Es	-1.211118	-1.431728	-0.545276	99
Es	2.174255	-0.075988	-0.720071	99
Es	-0.124334	-0.623976	-0.429641	99
Es	-0.191214	0.476805	1.458603	99
Es	0.877773	0.088760	-0.405879	99
Es	2.175670	-0.098494	-0.102524	99
Es	-0.102796	0.434662	-1.012082	99
Es	-0.054083	2.247745	0.887556	99
44
Properties=species:S:1:pos:R:3:Z:I:1 energy=-304.0925895332433 field_type=dipole dipole="0.000000 0.000000 0.000000" charge=0
N	-1.846956	-1.480988	-0.573762	7
C	-0.390007	-1.368938	-0.465432	6
C	0.123293	0.089852	-0.408032	6
C	-0.436576	0.827602	0.832448	6
N	-0.054286	2.248032	0.887098	7
C	1.567294	0.089852	-0.408032	6
C	2.757453	0.089852	-0.408032	6
H	-2.101806	-2.463968	-0.671732	1
H	-2.161206	-1.021198	-1.429122	1
H	0.056573	-1.883558	-1.325652	1
H	-0.067246	-1.915458	0.429758	1
H	-0.231616	0.611502	-1.307452	1
H	-0.088986	0.339162	1.751268	1
H	-1.530866	0.784812	0.835448	1
H	0.963554	2.317162	0.905438	1
H	-0.381976	2.643891	1.767788	1
H	3.823363	0.092392	-0.412002	1
Es	-0.127964	0.454885	0.200338	99
Es	-1.983266	-2.071830	-0.648717	99
Es	2.175371	-0.182600	-0.181587	99
Es	-1.209839	-1.431756	-0.544848	99
Es	-0.390145	-1.368872	-0.465441	99
Es	-0.436481	0.827719	0.832383	99
Es	-0.190649	0.477538	1.457459	99
Es	-1.846651	-1.481228	-0.574258	99
Es	-2.013158	-1.343625	-0.300257	99
Es	0.123395	0.089821	-0.407996	99
Es	-0.054052	2.247710	0.887567	99
Es	-0.124579	-0.623168	-0.429442	99
Es	3.456339	0.091035	-0.409082	99
Es	0.567456	2.278019	0.913311	99
Es	-0.203052	1.627781	0.876765	99
Es	2.173286	0.419535	-0.278631	99
Es	-0.071309	-1.714138	-1.058782	99
Es	-1.180952	0.796101	0.828692	99
Es	-0.187284	2.422719	0.617032	99
Es	1.567023	0.089856	-0.408031	99
Es	-0.169090	-1.735717	0.147180	99
Es	-0.249939	2.467649	1.426330	99
Es	-0.103540	0.433886	-1.011095	99
Es	0.879095	0.088817	-0.405930	99
Es	2.757731	0.089851	-0.408024	99
Es	2.175519	0.032214	-0.754330	99
Es	-2.022027	-1.214304	-1.101615	99
44
Properties=species:S:1:pos:R:3:Z:I:1 energy=-304.0925895332433 field_type=dipole dipole="0.000000 0.000000 0.000000" charge=0
N	-1.846956	-1.480988	-0.573762	7
C	-0.390007	-1.368938	-0.465432	6
C	0.123293	0.089852	-0.408032	6
C	-0.436576	0.827602	0.832448	6
N	-0.054286	2.248032	0.887098	7
C	1.567294	0.089852	-0.408032	6
C	2.757453	0.089852	-0.408032	6
H	-2.101806	-2.463968	-0.671732	1
H	-2.161206	-1.021198	-1.429122	1
H	0.056573	-1.883558	-1.325652	1
H	-0.067246	-1.915458	0.429758	1
H	-0.231616	0.611502	-1.307452	1
H	-0.088986	0.339162	1.751268	1
H	-1.530866	0.784812	0.835448	1
H	0.963554	2.317162	0.905438	1
H	-0.381976	2.643891	1.767788	1
H	3.823363	0.092392	-0.412002	1
Es	-2.023864	-1.213633	-1.100408	99
Es	-0.127914	0.454736	0.200311	99
Es	-1.846685	-1.481208	-0.574204	99
Es	-0.124776	-0.622588	-0.429460	99
Es	0.123397	0.089818	-0.407997	99
Es	-2.012719	-1.345995	-0.301024	99
Es	-0.436482	0.827719	0.832385	99
Es	-0.071062	-1.714036	-1.058471	99
Es	3.456735	0.090962	-0.408682	99
Es	0.879901	0.088731	-0.406043	99
Es	1.567018	0.089866	-0.408023	99
Es	-0.251282	2.467661	1.425045	99
Es	-1.209027	-1.431880	-0.544767	99
Es	2.176673	0.141591	-0.752126	99
Es	-0.390146	-1.368871	-0.465440	99
Es	-0.203213	1.628641	0.876772	99
Es	-1.182010	0.795813	0.828827	99
Es	-1.983232	-2.070019	-0.649179	99
Es	-0.168882	-1.735188	0.146755	99
Es	-0.187108	2.421100	0.618155	99
Es	-0.054064	2.247720	0.887550	99
Es	2.757732	0.089850	-0.408026	99
Es	-0.103988	0.433382	-1.010319	99
Es	2.174555	-0.236138	-0.278213	99
Es	0.568978	2.278017	0.913435	99
Es	2.172928	0.363747	-0.184427	99
Es	-0.190225	0.478099	1.456566	99
44
Properties=species:S:1:pos:R:3:Z:I:1 energy=-304.0925895332433 field_type=dipole dipole="0.000000 0.000000 0.000000" charge=0
N	-1.846956	-1.480988	-0.573762	7
C	-0.390007	-1.368938	-0.465432	6
C	0.123293	0.089852	-0.408032	6
C	-0.436576	0.827602	0.832448	6
N	-0.054286	2.248032	0.887098	7
C	1.567294	0.089852	-0.408032	6
C	2.757453	0.089852	-0.408032	6
H	-2.101806	-2.463968	-0.671732	1
H	-2.161206	-1.021198	-1.429122	1
H	0.056573	-1.883558	-1.325652	1
H	-0.067246	-1.915458	0.429758	1
H	-0.231616	0.611502	-1.307452	1
H	-0.088986	0.339162	1.751268	1
H	-1.530866	0.784812	0.835448	1
H	0.963554	2.317162	0.905438	1
H	-0.381976	2.643891	1.767788	1
H	3.823363	0.092392	-0.412002	1
Es	-1.208489	-1.432062	-0.544909	99
Es	-0.203732	1.629060	0.876366	99
Es	-0.168905	-1.734790	0.146357	99
Es	-0.124972	-0.622429	-0.429173	99
Es	-2.012312	-1.347321	-0.301675	99
Es	-0.104282	0.432932	-1.009615	99
Es	2.757735	0.089849	-0.408024	99
Es	-1.182714	0.795736	0.828809	99
Es	0.570096	2.278150	0.913171	99
Es	3.456981	0.090792	-0.408789	99
Es	2.173369	-0.150771	-0.659964	99
Es	-1.846657	-1.481232	-0.574249	99
Es	-0.252426	2.467998	1.423944	99
Es	0.880524	0.089005	-0.406120	99
Es	-0.127818	0.454726	0.200119	99
Es	-0.390148	-1.368870	-0.465442	99
Es	-0.070758	-1.714008	-1.058302	99
Es	-0.186412	2.419548	0.619923	99
Es	-2.025001	-1.213292	-1.099428	99
Es	1.567018	0.089854	-0.408029	99
Es	-1.983470	-2.068666	-0.649282	99
Es	-0.189981	0.478458	1.455961	99
Es	-0.054065	2.247723	0.887547	99
Es	2.175449	0.427418	-0.487265	99
Es	0.123397	0.089818	-0.407998	99
Es	2.175295	-0.007450	-0.067325	99
Es	-0.436483	0.827720	0.832386	99
44
Properties=species:S:1:pos:R:3:Z:I:1 energy=-304.0925895332433 field_type=dipole dipole="0.000000 0.000000 0.000000" charge=0
N	-1.846956	-1.480988	-0.573762	7
C	-0.390007	-1.368938	-0.465432	6
C	0.123293	0.089852	-0.408032	6
C	-0.436576	0.827602	0.832448	6
N	-0.054286	2.248032	0.887098	7
C	1.567294	0.089852	-0.408032	6
C	2.757453	0.089852	-0.408032	6
H	-2.101806	-2.463968	-0.671732	1
H	-2.161206	-1.021198	-1.429122	1
H	0.056573	-1.883558	-1.325652	1
H	-0.067246	-1.915458	0.429758	1
H	-0.231616	0.611502	-1.307452	1
H	-0.088986	0.339162	1.751268	1
H	-1.530866	0.784812	0.835448	1
H	0.963554	2.317162	0.905438	1
H	-0.381976	2.643891	1.767788	1
H	3.823363	0.092392	-0.412002	1
Es	-0.127552	0.454564	0.200137	99
Es	2.173200	-0.174058	-0.632606	99
Es	-0.124979	-0.622017	-0.429020	99
Es	0.570832	2.278011	0.913325	99
Es	-0.168909	-1.734529	0.145941	99
Es	-0.054048	2.247700	0.887575	99
Es	-1.183250	0.795626	0.828734	99
Es	0.880948	0.088973	-0.406183	99
Es	-1.983016	-2.067258	-0.649978	99
Es	-0.189795	0.478819	1.455492	99
Es	-0.070648	-1.713992	-1.058076	99
Es	3.457136	0.090718	-0.408647	99
Es	-0.390146	-1.368872	-0.465439	99
Es	-2.012829	-1.348714	-0.301923	99
Es	-0.204430	1.629331	0.875494	99
Es	-0.104623	0.432744	-1.009126	99
Es	0.123395	0.089817	-0.407998	99
Es	2.175101	0.026728	-0.060188	99
Es	-0.253458	2.468256	1.423037	99
Es	2.175809	0.416533	-0.521807	99
Es	-1.846658	-1.481222	-0.574243	99
Es	1.567015	0.089857	-0.408020	99
Es	-0.185382	2.418592	0.621465	99
Es	2.757738	0.089849	-0.408024	99
Es	-2.025614	-1.213259	-1.098784	99
Es	-1.208113	-1.432018	-0.544531	99
Es	-0.436486	0.827720	0.832384	99
44
Properties=species:S:1:pos:R:3:Z:I:1 energy=-304.0925895332433 field_type=dipole dipole="0.000000 0.000000 0.000000" charge=0
N	-1.846956	-1.480988	-0.573762	7
C	-0.390007	-1.368938	-0.465432	6
C	0.123293	0.089852	-0.408032	6
C	-0.436576	0.827602	0.832448	6
N	-0.054286	2.248032	0.887098	7
C	1.567294	0.089852	-0.408032	6
C	2.757453	0.089852	-0.408032	6
H	-2.101806	-2.463968	-0.671732	1
H	-2.161206	-1.021198	-1.429122	1
H	0.056573	-1.883558	-1.325652	1
H	-0.067246	-1.915458	0.429758	1
H	-0.231616	0.611502	-1.307452	1
H	-0.088986	0.339162	1.751268	1
H	-1.530866	0.784812	0.835448	1
H	0.963554	2.317162	0.905438	1
H	-0.381976	2.643891	1.767788	1
H	3.823363	0.092392	-0.412002	1
Es	-0.436482	0.827721	0.832384	99
Es	-0.255471	2.469860	1.421733	99
Es	-2.010919	-1.349938	-0.303461	99
Es	-2.027434	-1.212461	-1.098225	99
Es	-0.390150	-1.368868	-0.465440	99
Es	-0.183943	2.416122	0.622196	99
Es	3.457258	0.090707	-0.408560	99
Es	0.881280	0.089033	-0.406389	99
Es	0.571414	2.277958	0.913563	99
Es	-0.168785	-1.734265	0.145780	99
Es	-0.054047	2.247700	0.887581	99
Es	-0.127410	0.454526	0.200132	99
Es	-0.204421	1.629824	0.875753	99
Es	1.567018	0.089849	-0.408036	99
Es	-1.183618	0.795489	0.828711	99
Es	-0.189586	0.479067	1.455105	99
Es	0.123397	0.089818	-0.407998	99
Es	2.757736	0.089850	-0.408023	99
Es	2.174897	0.057580	-0.056659	99
Es	-1.207762	-1.432440	-0.544655	99
Es	-0.104990	0.432431	-1.008668	99
Es	-0.070517	-1.713867	-1.057970	99
Es	-0.125108	-0.621814	-0.428885	99
Es	-1.983699	-2.066365	-0.648742	99
Es	-1.846629	-1.481253	-0.574301	99
Es	2.173026	-0.191983	-0.609283	99
Es	2.176183	0.403619	-0.548647	99
44
Properties=species:S:1:pos:R:3:Z:I:1 energy=-304.0925895332433 field_type=dipole dipole="0.000000 0.000000 0.000000" charge=0
N	-1.846956	-1.480988	-0.573762	7
C	-0.390007	-1.368938	-0.465432	6
C	0.123293	0.089852	-0.408032	6
C	-0.436576	0.827602	0.832448	6
N	-0.054286	2.248032	0.887098	7
C	1.567294	0.089852	-0.408032	6
C	2.757453	0.089852	-0.408032	6
H	-2.101806	-2.463968	-0.671732	1
H	-2.161206	-1.021198	-1.429122	1
H	0.056573	-1.883558	-1.325652	1
H	-0.067246	-1.915458	0.429758	1
H	-0.231616	0.611502	-1.307452	1
H	-0.088986	0.339162	1.751268	1
H	-1.530866	0.784812	0.835448	1
H	0.963554	2.317162	0.905438	1
H	-0.381976	2.643891	1.767788	1
H	3.823363	0.092392	-0.412002	1
Es	0.571852	2.277862	0.913547	99
Es	-0.436484	0.827718	0.832386	99
Es	-0.104960	0.432071	-1.008224	99
Es	0.881552	0.089008	-0.406485	99
Es	-2.010828	-1.350740	-0.303901	99
Es	-2.028047	-1.212642	-1.098066	99
Es	-0.184502	2.416341	0.622718	99
Es	1.567018	0.089855	-0.408035	99
Es	2.173017	-0.240708	-0.505991	99
Es	-1.846762	-1.481129	-0.574059	99
Es	0.123397	0.089818	-0.407996	99
Es	-0.070199	-1.714060	-1.057833	99
Es	-0.054021	2.247691	0.887606	99
Es	2.174079	0.169568	-0.066028	99
Es	-0.125280	-0.621609	-0.428763	99
Es	-0.189502	0.479358	1.454712	99
Es	2.757737	0.089850	-0.408028	99
Es	-1.183932	0.795405	0.828725	99
Es	-0.255141	2.468994	1.421327	99
Es	2.177009	0.340352	-0.642552	99
Es	-0.204700	1.630105	0.875664	99
Es	-0.390150	-1.368868	-0.465440	99
Es	-1.207562	-1.432527	-0.544691	99
Es	3.457354	0.090712	-0.408366	99
Es	-1.983414	-2.065342	-0.648656	99
Es	-0.127322	0.454626	0.199911	99
Es	-0.168971	-1.733808	0.145509	99
44
Properties=species:S:1:pos:R:3:Z:I:1 energy=-304.0925895332433 field_type=dipole dipole="0.000000 0.000000 0.000000" charge=0
N	-1.846956	-1.480988	-0.573762	7
C	-0.390007	-1.368938	-0.465432	6
C	0.123293	0.089852	-0.408032	6
C	-0.436576	0.827602	0.832448	6
N	-0.054286	2.248032	0.887098	7
C	1.567294	0.089852	-0.408032	6
C	2.757453	0.089852	-0.408032	6
H	-2.101806	-2.463968	-0.671732	1
H	-2.161206	-1.021198	-1.429122	1
H	0.056573	-1.883558	-1.325652	1
H	-0.067246	-1.915458	0.429758	1
H	-0.231616	0.611502	-1.307452	1
H	-0.088986	0.339162	1.751268	1
H	-1.530866	0.784812	0.835448	1
H	0.963554	2.317162	0.905438	1
H	-0.381976	2.643891	1.767788	1
H	3.823363	0.092392	-0.412002	1
Es	-0.127021	0.454113	0.199860	99
Es	-0.182940	2.414875	0.624388	99
Es	-0.105272	0.432175	-1.007744	99
Es	-2.029077	-1.211955	-1.097081	99
Es	-0.256396	2.469874	1.420423	99
Es	-0.205374	1.630134	0.874898	99
Es	0.572256	2.277910	0.913536	99
Es	-0.168882	-1.733674	0.145233	99
Es	-0.436487	0.827717	0.832387	99
Es	3.457422	0.090952	-0.408325	99
Es	2.757737	0.089849	-0.408024	99
Es	2.174458	-0.052946	-0.723745	99
Es	-0.189432	0.479707	1.454358	99
Es	-0.054062	2.247739	0.887564	99
Es	2.175562	-0.111826	-0.121142	99
Es	-1.184208	0.795335	0.828740	99
Es	-0.125305	-0.621390	-0.428888	99
Es	-0.390150	-1.368867	-0.465441	99
Es	-1.982835	-2.064395	-0.649505	99
Es	-0.070200	-1.713944	-1.057671	99
Es	0.123398	0.089818	-0.407997	99
Es	-2.010839	-1.352397	-0.303759	99
Es	-1.207387	-1.432424	-0.544633	99
Es	1.567015	0.089857	-0.408030	99
Es	0.881818	0.088986	-0.406344	99
Es	-1.846638	-1.481242	-0.574281	99
Es	2.174077	0.433919	-0.369782	99
44
Properties=species:S:1:pos:R:3:Z:I:1 energy=-304.0925895332433 field_type=dipole dipole="0.000000 0.000000 0.000000" charge=0
N	-1.846956	-1.480988	-0.573762	7
C	-0.390007	-1.368938	-0.465432	6
C	0.123293	0.089852	-0.408032	6
C	-0.436576	0.827602	0.832448	6
N	-0.054286	2.248032	0.887098	7
C	1.567294	0.089852	-0.408032	6
C	2.757453	0.089852	-0.408032	6
H	-2.101806	-2.463968	-0.671732	1
H	-2.161206	-1.021198	-1.429122	1
H	0.056573	-1.883558	-1.325652	1
H	-0.067246	-1.915458	0.429758	1
H	-0.231616	0.611502	-1.307452	1
H	-0.088986	0.339162	1.751268	1
H	-1.530866	0.784812	0.835448	1
H	0.963554	2.317162	0.905438	1
H	-0.381976	2.643891	1.767788	1
H	3.823363	0.092392	-0.412002	1
Es	1.567023	0.089869	-0.408024	99
Es	-0.189461	0.479997	1.454157	99
Es	-0.390150	-1.368868	-0.465439	99
Es	-0.168955	-1.733553	0.145037	99
Es	2.174749	0.433452	-0.430306	99
Es	-2.029593	-1.212068	-1.097156	99
Es	-1.184400	0.795329	0.828635	99
Es	-0.258519	2.471622	1.419146	99
Es	-0.070132	-1.713967	-1.057529	99
Es	0.123399	0.089818	-0.407998	99
Es	-0.125253	-0.621184	-0.428456	99
Es	-0.105496	0.431865	-1.007664	99
Es	-0.054052	2.247703	0.887574	99
Es	0.572548	2.277807	0.913941	99
Es	2.175466	-0.060161	-0.090366	99
Es	2.757738	0.089850	-0.408025	99
Es	-0.205361	1.630427	0.874882	99
Es	2.173872	-0.104218	-0.693992	99
Es	3.457474	0.090986	-0.408229	99
Es	-2.009722	-1.352172	-0.305091	99
Es	-0.126704	0.454145	0.199753	99
Es	-0.181150	2.412574	0.625210	99
Es	-0.436485	0.827718	0.832386	99
Es	0.881968	0.088972	-0.406423	99
Es	-1.207241	-1.432809	-0.544638	99
Es	-1.846636	-1.481236	-0.574271	99
Es	-1.983690	-2.064000	-0.648118	99
44
Properties=species:S:1:pos:R:3:Z:I:1 energy=-304.0925895332433 field_type=dipole dipole="0.000000 0.000000 0.000000" charge=0
N	-1.846956	-1.480988	-0.573762	7
C	-0.390007	-1.368938	-0.465432	6
C	0.123293	0.089852	-0.408032	6
C	-0.436576	0.827602	0.832448	6
N	-0.054286	2.248032	0.887098	7
C	1.567294	0.089852	-0.408032	6
C	2.757453	0.089852	-0.408032	6
H	-2.101806	-2.463968	-0.671732	1
H	-2.161206	-1.021198	-1.429122	1
H	0.056573	-1.883558	-1.325652	1
H	-0.067246	-1.915458	0.429758	1
H	-0.231616	0.611502	-1.307452	1
H	-0.088986	0.339162	1.751268	1
H	-1.530866	0.784812	0.835448	1
H	0.963554	2.317162	0.905438	1
H	-0.381976	2.643891	1.767788	1
H	3.823363	0.092392	-0.412002	1
Es	-2.007607	-1.354772	-0.306218	99
Es	-1.184567	0.795213	0.828710	99
Es	-0.105563	0.431680	-1.007362	99
Es	-0.125328	-0.621039	-0.428329	99
Es	2.174768	-0.023543	-0.735179	99
Es	0.572804	2.277793	0.913950	99
Es	-1.207109	-1.432728	-0.544689	99
Es	2.173834	0.427841	-0.339414	99
Es	-2.032085	-1.210181	-1.095983	99
Es	-0.126811	0.454316	0.199739	99
Es	2.175497	-0.135171	-0.140124	99
Es	-1.846646	-1.481227	-0.574256	99
Es	0.123398	0.089817	-0.407996	99
Es	-0.189243	0.480023	1.453818	99
Es	3.457514	0.091082	-0.408161	99
Es	-0.054035	2.247742	0.887538	99
Es	-0.390150	-1.368870	-0.465432	99
Es	0.882102	0.088841	-0.406470	99
Es	-0.179814	2.411599	0.626902	99
Es	-0.259630	2.472017	1.418592	99
Es	-0.205913	1.630669	0.873854	99
Es	1.567015	0.089854	-0.408031	99
Es	2.757739	0.089853	-0.408022	99
Es	-1.983533	-2.063396	-0.648036	99
Es	-0.436483	0.827718	0.832383	99
Es	-0.169067	-1.733218	0.144766	99
Es	-0.069848	-1.714015	-1.057556	99
44
Properties=species:S:1:pos:R:3:Z:I:1 energy=-304.0925895332433 field_type=dipole dipole="0.000000 0.000000 0.000000" charge=0
N	-1.846956	-1.480988	-0.573762	7
C	-0.390007	-1.368938	-0.465432	6
C	0.123293	0.089852	-0.408032	6
C	-0.436576	0.827602	0.832448	6
N	-0.054286	2.248032	0.887098	7
C	1.567294	0.089852	-0.408032	6
C	2.757453	0.089852	-0.408032	6
H	-2.101806	-2.463968	-0.671732	1
H	-2.161206	-1.021198	-1.429122	1
H	0.056573	-1.883558	-1.325652	1
H	-0.067246	-1.915458	0.429758	1
H	-0.231616	0.611502	-1.307452	1
H	-0.088986	0.339162	1.751268	1
H	-1.530866	0.784812	0.835448	1
H	0.963554	2.317162	0.905438	1
H	-0.381976	2.643891	1.767788	1
H	3.823363	0.092392	-0.412002	1
Es	-0.390150	-1.368870	-0.465435	99
Es	-0.069738	-1.713962	-1.057529	99
Es	-1.846620	-1.481255	-0.574305	99
Es	-2.033139	-1.209513	-1.095542	99
Es	0.882209	0.088891	-0.406539	99
Es	-2.006906	-1.355841	-0.306503	99
Es	0.572963	2.277606	0.913637	99
Es	-0.436485	0.827718	0.832385	99
Es	-0.205799	1.630897	0.874157	99
Es	-1.184689	0.795206	0.828635	99
Es	-0.180796	2.412101	0.626631	99
Es	-0.126500	0.454087	0.199667	99
Es	-1.983386	-2.062490	-0.647985	99
Es	-0.054086	2.247740	0.887511	99
Es	3.457541	0.090944	-0.408078	99
Es	0.123398	0.089818	-0.407997	99
Es	-1.207007	-1.433135	-0.544812	99
Es	2.173436	-0.252842	-0.427343	99
Es	-0.258935	2.471146	1.418802	99
Es	-0.189251	0.480288	1.453692	99
Es	2.177252	0.277070	-0.693165	99
Es	-0.125408	-0.621016	-0.428180	99
Es	2.757739	0.089849	-0.408024	99
Es	-0.169058	-1.733065	0.144664	99
Es	1.567016	0.089852	-0.408029	99
Es	2.173419	0.245056	-0.094171	99
Es	-0.105781	0.431620	-1.007155	99
44
Properties=species:S:1:pos:R:3:Z:I:1 energy=-304.0925895332433 field_type=dipole dipole="0.000000 0.000000 0.000000" charge=0
N	-1.846956	-1.480988	-0.573762	7
C	-0.390007	-1.368938	-0.465432	6
C	0.123293	0.089852	-0.408032	6
C	-0.436576	0.827602	0.832448	6
N	-0.054286	2.248032	0.887098	7
C	1.567294	0.089852	-0.408032	6
C	2.757453	0.089852	-0.408032	6
H	-2.101806	-2.463968	-0.671732	1
H	-2.161206	-1.021198	-1.429122	1
H	0.056573	-1.883558	-1.325652	1
H	-0.067246	-1.915458	0.429758	1
H	-0.231616	0.611502	-1.307452	1
H	-0.088986	0.339162	1.751268	1
H	-1.530866	0.784812	0.835448	1
H	0.963554	2.317162	0.905438	1
H	-0.381976	2.643891	1.767788	1
H	3.823363	0.092392	-0.412002	1
Es	-0.125576	-0.620905	-0.428125	99
Es	2.173657	0.215725	-0.081732	99
Es	-0.126296	0.454065	0.199479	99
Es	-2.034051	-1.209261	-1.095215	99
Es	-1.184795	0.795119	0.828691	99
Es	0.882299	0.088872	-0.406574	99
Es	-1.982853	-2.061717	-0.648097	99
Es	-0.260753	2.472580	1.417784	99
Es	-0.178785	2.410377	0.628094	99
Es	-0.436486	0.827718	0.832385	99
Es	-0.054049	2.247708	0.887560	99
Es	-0.189097	0.480325	1.453445	99
Es	-1.846615	-1.481259	-0.574320	99
Es	2.177127	0.301976	-0.675849	99
Es	1.567016	0.089857	-0.408025	99
Es	-0.390148	-1.368869	-0.465442	99
Es	-0.105897	0.431755	-1.006900	99
Es	2.757738	0.089851	-0.408020	99
Es	-2.006668	-1.356913	-0.306742	99
Es	3.457569	0.090972	-0.407951	99
Es	2.173324	-0.248493	-0.457131	99
Es	0.123398	0.089819	-0.407997	99
Es	0.573101	2.277653	0.913901	99
Es	-0.206194	1.630945	0.873435	99
Es	-0.069687	-1.713994	-1.057437	99
Es	-1.206930	-1.433061	-0.544740	99
Es	-0.169112	-1.732946	0.144515	99
44
Properties=species:S:1:pos:R:3:Z:I:1 energy=-304.0925895332433 field_type=dipole dipole="0.000000 0.000000 0.000000" charge=0
N	-1.846956	-1.480988	-0.573762	7
C	-0.390007	-1.368938	-0.465432	6
C	0.123293	0.089852	-0.408032	6
C	-0.436576	0.827602	0.832448	6
N	-0.054286	2.248032	0.887098	7
C	1.567294	0.089852	-0.408032	6
C	2.757453	0.089852	-0.408032	6
H	-2.101806	-2.463968	-0.671732	1
H	-2.161206	-1.021198	-1.429122	1
H	0.056573	-1.883558	-1.325652	1
H	-0.067246	-1.915458	0.429758	1
H	-0.231616	0.611502	-1.307452	1
H	-0.088986	0.339162	1.751268	1
H	-1.530866	0.784812	0.835448	1
H	0.963554	2.317162	0.905438	1
H	-0.381976	2.643891	1.767788	1
H	3.823363	0.092392	-0.412002	1
Es	-2.035896	-1.207790	-1.094102	99
Es	-0.436485	0.827717	0.832385	99
Es	-1.184875	0.795148	0.828615	99
Es	-0.125405	-0.620769	-0.428077	99
Es	-0.390150	-1.368868	-0.465440	99
Es	2.174621	0.083005	-0.056783	99
Es	-0.177129	2.408821	0.629573	99
Es	-0.169129	-1.732999	0.144311	99
Es	2.176396	0.388371	-0.572108	99
Es	2.757740	0.089847	-0.408025	99
Es	-2.004850	-1.358592	-0.307713	99
Es	0.123398	0.089819	-0.407997	99
Es	-0.262446	2.473555	1.417154	99
Es	0.573238	2.277735	0.913887	99
Es	-1.982953	-2.061336	-0.647924	99
Es	-0.054036	2.247698	0.887591	99
Es	1.567015	0.089855	-0.408032	99
Es	2.173091	-0.202194	-0.585776	99
Es	-0.206467	1.631068	0.872570	99
Es	-0.069765	-1.713954	-1.057308	99
Es	-1.846630	-1.481243	-0.574285	99
Es	3.457592	0.091050	-0.408083	99
Es	-0.105863	0.431444	-1.006642	99
Es	0.882397	0.089045	-0.406466	99
Es	-0.189067	0.480520	1.453376	99
Es	-1.206844	-1.433194	-0.545055	99
Es	-0.126258	0.454141	0.199347	99
44
Properties=species:S:1:pos:R:3:Z:I:1 energy=-304.0925895332433 field_type=dipole dipole="0.000000 0.000000 0.000000" charge=0
N	-1.846956	-1.480988	-0.573762	7
C	-0.390007	-1.368938	-0.465432	6
C	0.123293	0.089852	-0.408032	6
C	-0.436576	0.827602	0.832448	6
N	-0.054286	2.248032	0.887098	7
C	1.567294	0.089852	-0.408032	6
C	2.757453	0.089852	-0.408032	6
H	-2.101806	-2.463968	-0.671732	1
H	-2.161206	-1.021198	-1.429122	1
H	0.056573	-1.883558	-1.325652	1
H	-0.067246	-1.915458	0.429758	1
H	-0.231616	0.611502	-1.307452	1
H	-0.088986	0.339162	1.751268	1
H	-1.530866	0.784812	0.835448	1
H	0.963554	2.317162	0.905438	1
H	-0.381976	2.643891	1.767788	1
H	3.823363	0.092392	-0.412002	1
Es	0.882482	0.088823	-0.406488	99
Es	2.176361	0.136480	-0.749555	99
Es	1.567014	0.089855	-0.408031	99
Es	2.172998	0.359801	-0.190663	99
Es	-0.069350	-1.714050	-1.057343	99
Es	-0.206582	1.631296	0.872246	99
Es	0.123399	0.089818	-0.407996	99
Es	-1.206826	-1.432997	-0.544936	99
Es	-0.105926	0.431406	-1.006423	99
Es	-0.436486	0.827717	0.832383	99
Es	-0.262808	2.473658	1.416758	99
Es	-1.184963	0.794987	0.828623	99
Es	-2.004712	-1.358983	-0.308154	99
Es	-0.169315	-1.732566	0.144154	99
Es	0.573371	2.277780	0.913776	99
Es	-1.846601	-1.481269	-0.574343	99
Es	-0.125984	0.454163	0.199060	99
Es	-0.390151	-1.368867	-0.465440	99
Es	-0.054054	2.247713	0.887563	99
Es	2.757739	0.089850	-0.408021	99
Es	-0.176713	2.408312	0.630333	99
Es	-1.982453	-2.060492	-0.647205	99
Es	-0.125928	-0.621040	-0.427602	99
Es	3.457611	0.091319	-0.407852	99
Es	-2.036651	-1.208360	-1.094463	99
Es	-0.188985	0.480643	1.453159	99
Es	2.174751	-0.227099	-0.274546	99
44
Properties=species:S:1:pos:R:3:Z:I:1 energy=-304.0925895332433 field_type=dipole dipole="0.000000 0.000000 0.000000" charge=0
N	-1.846956	-1.480988	-0.573762	7
C	-0.390007	-1.368938	-0.465432	6
C	0.123293	0.089852	-0.408032	6
C	-0.436576	0.827602	0.832448	6
N	-0.054286	2.248032	0.887098	7
C	1.567294	0.089852	-0.408032	6
C	2.757453	0.089852	-0.408032	6
H	-2.101806	-2.463968	-0.671732	1
H	-2.161206	-1.021198	-1.429122	1
H	0.056573	-1.883558	-1.325652	1
H	-0.067246	-1.915458	0.429758	1
H	-0.231616	0.611502	-1.307452	1
H	-0.088986	0.339162	1.751268	1
H	-1.530866	0.784812	0.835448	1
H	0.963554	2.317162	0.905438	1
H	-0.381976	2.643891	1.767788	1
H	3.823363	0.092392	-0.412002	1
Es	-0.169278	-1.732416	0.144175	99
Es	-0.208088	1.630941	0.870711	99
Es	3.457629	0.091261	-0.407869	99
Es	0.573435	2.277383	0.914126	99
Es	-2.038305	-1.206817	-1.093441	99
Es	-2.002268	-1.360102	-0.310038	99
Es	2.174213	-0.246027	-0.356518	99
Es	-0.173865	2.406900	0.632747	99
Es	1.567014	0.089855	-0.408031	99
Es	-0.106125	0.431353	-1.006484	99
Es	0.882507	0.088896	-0.406531	99
Es	-1.206771	-1.433246	-0.544961	99
Es	-1.185019	0.795079	0.828580	99
Es	-0.188930	0.480757	1.453154	99
Es	-0.069305	-1.714074	-1.057305	99
Es	-0.264431	2.475450	1.415549	99
Es	2.757740	0.089851	-0.408020	99
Es	-1.846598	-1.481281	-0.574345	99
Es	0.123399	0.089817	-0.407996	99
Es	-1.983327	-2.060656	-0.646265	99
Es	2.176741	0.216920	-0.728438	99
Es	-0.436485	0.827717	0.832384	99
Es	-0.054037	2.247695	0.887591	99
Es	-0.390149	-1.368869	-0.465446	99
Es	-0.125828	-0.620909	-0.427610	99
Es	-0.125784	0.454192	0.199029	99
Es	2.173153	0.298230	-0.129752	99
44
Properties=species:S:1:pos:R:3:Z:I:1 energy=-304.0925895332433 field_type=dipole dipole="0.000000 0.000000 0.000000" charge=0
N	-1.846956	-1.480988	-0.573762	7
C	-0.390007	-1.368938	-0.465432	6
C	0.123293	0.089852	-0.408032	6
C	-0.436576	0.827602	0.832448	6
N	-0.054286	2.248032	0.887098	7
C	1.567294	0.089852	-0.408032	6
C	2.757453	0.089852	-0.408032	6
H	-2.101806	-2.463968	-0.671732	1
H	-2.161206	-1.021198	-1.429122	1
H	0.056573	-1.883558	-1.325652	1
H	-0.067246	-1.915458	0.429758	1
H	-0.231616	0.611502	-1.307452	1
H	-0.088986	0.339162	1.751268	1
H	-1.530866	0.784812	0.835448	1
H	0.963554	2.317162	0.905438	1
H	-0.381976	2.643891	1.767788	1
H	3.823363	0.092392	-0.412002	1
Es	-2.001758	-1.361636	-0.310011	99
Es	-1.206755	-1.433541	-0.545078	99
Es	-0.265622	2.476351	1.414860	99
Es	-0.436487	0.827717	0.832384	99
Es	-2.039771	-1.206108	-1.093033	99
Es	-0.169264	-1.732126	0.144262	99
Es	-0.069152	-1.714140	-1.057268	99
Es	-0.188865	0.480911	1.453051	99
Es	-0.207974	1.631136	0.870571	99
Es	-0.054004	2.247708	0.887596	99
Es	2.173774	0.191007	-0.072688	99
Es	1.567014	0.089851	-0.408027	99
Es	-0.126041	-0.620985	-0.427720	99
Es	2.173367	-0.241041	-0.481011	99
Es	2.176968	0.319264	-0.660937	99
Es	-1.185066	0.794988	0.828588	99
Es	2.757741	0.089848	-0.408027	99
Es	-0.125625	0.454061	0.198937	99
Es	-1.846539	-1.481403	-0.574507	99
Es	0.573511	2.277479	0.914049	99
Es	0.123399	0.089817	-0.407996	99
Es	0.882559	0.088816	-0.406455	99
Es	-0.390149	-1.368868	-0.465440	99
Es	-0.106222	0.431386	-1.006317	99
Es	-0.172958	2.405531	0.633573	99
Es	3.457636	0.091310	-0.407950	99
Es	-1.982479	-2.059433	-0.646410	99
44
Properties=species:S:1:pos:R:3:Z:I:1 energy=-304.0925895332433 field_type=dipole dipole="0.000000 0.000000 0.000000" charge=0
N	-1.846956	-1.480988	-0.573762	7
C	-0.390007	-1.368938	-0.465432	6
C	0.123293	0.089852	-0.408032	6
C	-0.436576	0.827602	0.832448	6
N	-0.054286	2.248032	0.887098	7
C	1.567294	0.089852	-0.408032	6
C	2.757453	0.089852	-0.408032	6
H	-2.101806	-2.463968	-0.671732	1
H	-2.161206	-1.021198	-1.429122	1
H	0.056573	-1.883558	-1.325652	1
H	-0.067246	-1.915458	0.429758	1
H	-0.231616	0.611502	-1.307452	1
H	-0.088986	0.339162	1.751268	1
H	-1.530866	0.784812	0.835448	1
H	0.963554	2.317162	0.905438	1
H	-0.381976	2.643891	1.767788	1
H	3.823363	0.092392	-0.412002	1
Es	-0.053987	2.247633	0.887675	99
Es	-0.069018	-1.713977	-1.057410	99
Es	3.457647	0.091456	-0.407828	99
Es	-1.983240	-2.059695	-0.645131	99
Es	-0.126138	-0.621071	-0.427373	99
Es	-2.041304	-1.205392	-1.092199	99
Es	-0.188952	0.481235	1.452938	99
Es	0.882610	0.088895	-0.406441	99
Es	1.567014	0.089853	-0.408030	99
Es	2.175296	-0.177719	-0.186628	99
Es	-0.106239	0.431307	-1.006141	99
Es	-0.390152	-1.368865	-0.465440	99
Es	-1.206700	-1.433425	-0.545222	99
Es	-0.169332	-1.732156	0.144003	99
Es	-0.209585	1.631175	0.867464	99
Es	-1.999521	-1.362207	-0.312013	99
Es	0.573599	2.277559	0.913931	99
Es	2.173568	0.403350	-0.275763	99
Es	-1.185122	0.794955	0.828593	99
Es	2.757739	0.089855	-0.408023	99
Es	-0.125301	0.453958	0.198876	99
Es	-0.436487	0.827715	0.832382	99
Es	-0.170242	2.404700	0.637116	99
Es	0.123398	0.089819	-0.407997	99
Es	-1.846581	-1.481308	-0.574400	99
Es	-0.266981	2.476820	1.414441	99
Es	2.175250	0.043429	-0.752386	99
44
Properties=species:S:1:pos:R:3:Z:I:1 energy=-304.0925895332433 field_type=dipole dipole="0.000000 0.000000 0.000000" charge=0
N	-1.846956	-1.480988	-0.573762	7
C	-0.390007	-1.368938	-0.465432	6
C	0.123293	0.089852	-0.408032	6
C	-0.436576	0.827602	0.832448	6
N	-0.054286	2.248032	0.887098	7
C	1.567294	0.089852	-0.408032	6
C	2.757453	0.089852	-0.408032	6
H	-2.101806	-2.463968	-0.671732	1
H	-2.161206	-1.021198	-1.429122	1
H	0.056573	-1.883558	-1.325652	1
H	-0.067246	-1.915458	0.429758	1
H	-0.231616	0.611502	-1.307452	1
H	-0.088986	0.339162	1.751268	1
H	-1.530866	0.784812	0.835448	1
H	0.963554	2.317162	0.905438	1
H	-0.381976	2.643891	1.767788	1
H	3.823363	0.092392	-0.412002	1
Es	-1.206695	-1.433332	-0.544853	99
Es	-0.268567	2.478497	1.413178	99
Es	-0.126041	-0.620932	-0.426810	99
Es	0.882628	0.088817	-0.406430	99
Es	0.123399	0.089817	-0.407996	99
Es	-0.106714	0.431418	-1.006294	99
Es	-1.185138	0.794909	0.828545	99
Es	-0.390151	-1.368868	-0.465438	99
Es	2.173586	0.210462	-0.079088	99
Es	0.573621	2.277402	0.914224	99
Es	-0.209761	1.631079	0.867568	99
Es	-2.042527	-1.204542	-1.091672	99
Es	3.457654	0.091368	-0.407908	99
Es	-0.169301	-1.732327	0.143871	99
Es	-1.846719	-1.481164	-0.574127	99
Es	2.173672	-0.242184	-0.456892	99
Es	-0.168670	2.403039	0.637997	99
Es	-0.054014	2.247675	0.887631	99
Es	1.567016	0.089852	-0.408020	99
Es	-1.982532	-2.059186	-0.645650	99
Es	2.757740	0.089851	-0.408021	99
Es	-0.124996	0.453980	0.198615	99
Es	-1.998884	-1.363822	-0.312620	99
Es	-0.436487	0.827718	0.832386	99
Es	2.176851	0.300966	-0.678711	99
Es	-0.188687	0.481174	1.453012	99
Es	-0.069046	-1.713770	-1.057502	99
44
Properties=species:S:1:pos:R:3:Z:I:1 energy=-304.0925895332433 field_type=dipole dipole="0.000000 0.000000 0.000000" charge=0
N	-1.846956	-1.480988	-0.573762	7
C	-0.390007	-1.368938	-0.465432	6
C	0.123293	0.089852	-0.408032	6
C	-0.436576	0.827602	0.832448	6
N	-0.054286	2.248032	0.887098	7
C	1.567294	0.089852	-0.408032	6
C	2.757453	0.089852	-0.408032	6
H	-2.101806	-2.463968	-0.671732	1
H	-2.161206	-1.021198	-1.429122	1
H	0.056573	-1.883558	-1.325652	1
H	-0.067246	-1.915458	0.429758	1
H	-0.231616	0.611502	-1.307452	1
H	-0.088986	0.339162	1.751268	1
H	-1.530866	0.784812	0.835448	1
H	0.963554	2.317162	0.905438	1
H	-0.381976	2.643891	1.767788	1
H	3.823363	0.092392	-0.412002	1
Es	-0.106894	0.431448	-1.006229	99
Es	-0.390149	-1.368869	-0.465445	99
Es	-2.043977	-1.204108	-1.091155	99
Es	1.567014	0.089855	-0.408031	99
Es	-0.210368	1.630985	0.866913	99
Es	-0.068899	-1.713955	-1.057380	99
Es	2.173446	0.223372	-0.083740	99
Es	-0.126160	-0.620970	-0.427026	99
Es	2.173819	-0.242871	-0.442850	99
Es	-1.206653	-1.433540	-0.545175	99
Es	-1.846586	-1.481294	-0.574377	99
Es	-1.996344	-1.363720	-0.314968	99
Es	-0.169292	-1.731963	0.144096	99
Es	0.123399	0.089817	-0.407996	99
Es	-0.436486	0.827717	0.832386	99
Es	-0.269782	2.479614	1.412305	99
Es	-1.185164	0.794932	0.828564	99
Es	-0.124613	0.453938	0.198495	99
Es	0.573658	2.277290	0.914285	99
Es	-1.983815	-2.059359	-0.643310	99
Es	-0.167105	2.401793	0.639548	99
Es	0.882655	0.088740	-0.406443	99
Es	-0.054007	2.247689	0.887618	99
Es	2.176847	0.288747	-0.688149	99
Es	2.757740	0.089853	-0.408024	99
Es	3.457659	0.091418	-0.407901	99
Es	-0.188707	0.481339	1.452984	99
44
Properties=species:S:1:pos:R:3:Z:I:1 energy=-304.0925895332433 field_type=dipole dipole="0.000000 0.000000 0.000000" charge=0
N	-1.846956	-1.480988	-0.573762	7
C	-0.390007	-1.368938	-0.465432	6
C	0.123293	0.089852	-0.408032	6
C	-0.436576	0.827602	0.832448	6
N	-0.054286	2.248032	0.887098	7
C	1.567294	0.089852	-0.408032	6
C	2.757453	0.089852	-0.408032	6
H	-2.101806	-2.463968	-0.671732	1
H	-2.161206	-1.021198	-1.429122	1
H	0.056573	-1.883558	-1.325652	1
H	-0.067246	-1.915458	0.429758	1
H	-0.231616	0.611502	-1.307452	1
H	-0.088986	0.339162	1.751268	1
H	-1.530866	0.784812	0.835448	1
H	0.963554	2.317162	0.905438	1
H	-0.381976	2.643891	1.767788	1
H	3.823363	0.092392	-0.412002	1
Es	-0.390151	-1.368860	-0.465441	99
Es	-1.206630	-1.433675	-0.545175	99
Es	0.123399	0.089817	-0.407996	99
Es	-0.210558	1.631466	0.865493	99
Es	-0.126723	-0.621244	-0.426949	99
Es	-1.983085	-2.058291	-0.642840	99
Es	-1.996473	-1.363820	-0.314931	99
Es	-0.436485	0.827719	0.832382	99
Es	2.757740	0.089850	-0.408021	99
Es	1.567014	0.089856	-0.408030	99
Es	0.882697	0.088677	-0.406375	99
Es	2.173210	0.339302	-0.172384	99
Es	-0.068839	-1.713896	-1.057376	99
Es	0.573694	2.277294	0.914349	99
Es	-0.106802	0.431664	-1.005889	99
Es	-0.169273	-1.731860	0.144003	99
Es	-0.124151	0.453858	0.198175	99
Es	-2.044563	-1.205043	-1.091737	99
Es	-0.054043	2.247707	0.887574	99
Es	-1.185191	0.794796	0.828477	99
Es	2.176076	0.159871	-0.749029	99
Es	-0.271078	2.479816	1.411978	99
Es	2.174835	-0.230038	-0.293453	99
Es	-0.188710	0.481478	1.452924	99
Es	3.457661	0.091697	-0.407726	99
Es	-0.165680	2.400986	0.641234	99
Es	-1.846654	-1.481225	-0.574246	99
44
Properties=species:S:1:pos:R:3:Z:I:1 energy=-304.0925895332433 field_type=dipole dipole="0.000000 0.000000 0.000000" charge=0
N	-1.846956	-1.480988	-0.573762	7
C	-0.390007	-1.368938	-0.465432	6
C	0.123293	0.089852	-0.408032	6
C	-0.436576	0.827602	0.832448	6
N	-0.054286	2.248032	0.887098	7
C	1.567294	0.089852	-0.408032	6
C	2.757453	0.089852	-0.408032	6
H	-2.101806	-2.463968	-0.671732	1
H	-2.161206	-1.021198	-1.429122	1
H	0.056573	-1.883558	-1.325652	1
H	-0.067246	-1.915458	0.429758	1
H	-0.231616	0.611502	-1.307452	1
H	-0.088986	0.339162	1.751268	1
H	-1.530866	0.784812	0.835448	1
H	0.963554	2.317162	0.905438	1
H	-0.381976	2.643891	1.767788	1
H	3.823363	0.092392	-0.412002	1
Es	-0.054036	2.247696	0.887591	99
Es	1.567014	0.089855	-0.408031	99
Es	-0.188463	0.481471	1.452875	99
Es	2.175057	0.042822	-0.753772	99
Es	-1.983183	-2.058145	-0.642520	99
Es	-1.206607	-1.433541	-0.545186	99
Es	0.123399	0.089816	-0.407995	99
Es	0.882714	0.088828	-0.406433	99
Es	-1.846590	-1.481284	-0.574368	99
Es	-0.163112	2.399475	0.644469	99
Es	3.457671	0.091792	-0.407834	99
Es	-0.212092	1.631154	0.863548	99
Es	-0.106740	0.431389	-1.005851	99
Es	0.573741	2.277371	0.914340	99
Es	-0.126689	-0.621367	-0.426778	99
Es	-1.185226	0.794817	0.828544	99
Es	-0.436488	0.827718	0.832385	99
Es	2.757740	0.089850	-0.408019	99
Es	-2.046049	-1.203943	-1.090614	99
Es	-0.272247	2.481329	1.410624	99
Es	-0.068597	-1.713695	-1.057646	99
Es	-0.169306	-1.731850	0.143978	99
Es	2.175271	-0.174174	-0.181585	99
Es	2.173790	0.400295	-0.279461	99
Es	-1.994987	-1.365054	-0.316222	99
Es	-0.390152	-1.368866	-0.465440	99
Es	-0.124594	0.454141	0.198395	99
