44
Properties=species:S:1:pos:R:3:Z:I:1 energy=-304.15325208925776 field_type=dipole dipole="0.000000 0.000000 0.000000" charge=0
N	-0.657417	-2.843416	-0.160474	7
C	-0.959427	-1.716966	0.380306	6
N	-0.323897	-0.537576	0.162696	7
C	-0.701937	0.729804	0.761006	6
C	0.071723	1.764294	-0.050924	6
C	1.329263	1.011054	-0.452404	6
C	0.808663	-0.394666	-0.740494	6
H	-1.299587	-3.565956	0.180966	1
H	-1.800847	-1.640686	1.092036	1
H	-0.393947	0.749964	1.812236	1
H	-1.780657	0.908614	0.703586	1
H	-0.498327	2.043424	-0.945454	1
H	0.281983	2.673104	0.519436	1
H	1.836343	1.454764	-1.313264	1
H	2.033893	0.986254	0.387336	1
H	0.469353	-0.476966	-1.779314	1
H	1.584813	-1.145046	-0.557274	1
Es	1.332582	-0.903263	-0.613453	99
Es	-0.389953	-2.908297	-0.398064	99
Es	-1.053410	-3.268760	0.055978	99
Es	-0.505971	-0.006370	0.421066	99
Es	1.081029	0.306646	-0.606101	99
Es	-0.961854	-2.355625	-0.154801	99
Es	0.575633	-0.447546	-1.452489	99
Es	-0.701886	0.729659	0.760918	99
Es	0.212117	2.383662	0.341850	99
Es	1.674644	1.312425	-1.041169	99
Es	-0.491451	0.745372	1.486404	99
Es	-0.300849	-0.856595	0.421908	99
Es	-0.670215	-0.842265	0.034982	99
Es	-0.319850	1.948809	-0.663357	99
Es	-0.324075	-0.537608	0.162541	99
Es	-1.534363	-1.650412	0.869548	99
Es	-1.442688	0.844743	0.725032	99
Es	-0.329105	1.256441	0.367951	99
Es	1.806964	0.992355	0.126805	99
Es	-0.959380	-1.716772	0.380328	99
Es	-0.610651	-2.463573	0.271812	99
Es	0.808525	-0.394639	-0.740365	99
Es	0.151127	-0.489583	-0.225393	99
Es	-0.657726	-2.843242	-0.160156	99
Es	1.329224	1.011043	-0.452399	99
Es	0.710565	1.412938	-0.254881	99
Es	0.071718	1.764253	-0.050905	99
44
Properties=species:S:1:pos:R:3:Z:I:1 energy=-304.15325208925776 field_type=dipole dipole="0.000000 0.000000 0.000000" charge=0
N	-0.657417	-2.843416	-0.160474	7
C	-0.959427	-1.716966	0.380306	6
N	-0.323897	-0.537576	0.162696	7
C	-0.701937	0.729804	0.761006	6
C	0.071723	1.764294	-0.050924	6
C	1.329263	1.011054	-0.452404	6
C	0.808663	-0.394666	-0.740494	6
H	-1.299587	-3.565956	0.180966	1
H	-1.800847	-1.640686	1.092036	1
H	-0.393947	0.749964	1.812236	1
H	-1.780657	0.908614	0.703586	1
H	-0.498327	2.043424	-0.945454	1
H	0.281983	2.673104	0.519436	1
H	1.836343	1.454764	-1.313264	1
H	2.033893	0.986254	0.387336	1
H	0.469353	-0.476966	-1.779314	1
H	1.584813	-1.145046	-0.557274	1
Es	1.329224	1.011044	-0.452399	99
Es	1.806760	0.993701	0.125738	99
Es	-0.323648	-0.537741	0.163090	99
Es	-0.392757	-2.904769	-0.395613	99
Es	0.212565	2.386356	0.342617	99
Es	-1.441979	0.844752	0.725651	99
Es	1.081839	0.306057	-0.607047	99
Es	-0.959384	-1.716771	0.380324	99
Es	-0.701884	0.729656	0.760914	99
Es	-0.329156	1.256777	0.366870	99
Es	-0.441753	-1.016222	0.391143	99
Es	0.575107	-0.448462	-1.451237	99
Es	-0.489510	-0.012208	0.445071	99
Es	-1.533366	-1.650279	0.869783	99
Es	-0.609221	-2.463988	0.273604	99
Es	0.709744	1.413606	-0.255527	99
Es	-1.053850	-3.272467	0.052936	99
Es	1.331314	-0.903732	-0.614103	99
Es	0.071717	1.764252	-0.050904	99
Es	0.169542	-0.498341	-0.201579	99
Es	-0.318740	1.947035	-0.662236	99
Es	-0.492141	0.745751	1.485526	99
Es	-0.657775	-2.843263	-0.160139	99
Es	1.674083	1.312691	-1.039038	99
Es	-0.960967	-2.355248	-0.156589	99
Es	-0.563590	-0.669746	0.017093	99
Es	0.808523	-0.394642	-0.740362	99
44
Properties=species:S:1:pos:R:3:Z:I:1 energy=-304.15325208925776 field_type=dipole dipole="0.000000 0.000000 0.000000" charge=0
N	-0.657417	-2.843416	-0.160474	7
C	-0.959427	-1.716966	0.380306	6
N	-0.323897	-0.537576	0.162696	7
C	-0.701937	0.729804	0.761006	6
C	0.071723	1.764294	-0.050924	6
C	1.329263	1.011054	-0.452404	6
C	0.808663	-0.394666	-0.740494	6
H	-1.299587	-3.565956	0.180966	1
H	-1.800847	-1.640686	1.092036	1
H	-0.393947	0.749964	1.812236	1
H	-1.780657	0.908614	0.703586	1
H	-0.498327	2.043424	-0.945454	1
H	0.281983	2.673104	0.519436	1
H	1.836343	1.454764	-1.313264	1
H	2.033893	0.986254	0.387336	1
H	0.469353	-0.476966	-1.779314	1
H	1.584813	-1.145046	-0.557274	1
Es	-0.959384	-1.716769	0.380323	99
Es	1.806348	0.993879	0.125328	99
Es	1.081189	0.305942	-0.607051	99
Es	-0.276437	-0.707310	0.334554	99
Es	-1.440055	0.844582	0.725702	99
Es	-0.318926	1.946795	-0.662735	99
Es	0.212599	2.386483	0.342772	99
Es	-0.518390	-0.003750	0.412358	99
Es	-0.329391	1.257392	0.366358	99
Es	-0.324628	-0.537671	0.162027	99
Es	0.709379	1.414047	-0.254997	99
Es	1.331831	-0.905275	-0.613580	99
Es	-0.964437	-2.351348	-0.159224	99
Es	1.329224	1.011043	-0.452399	99
Es	1.674292	1.312762	-1.038811	99
Es	-0.701887	0.729660	0.760918	99
Es	-0.394137	-2.903618	-0.391150	99
Es	0.808525	-0.394639	-0.740366	99
Es	-0.607124	-2.466876	0.272270	99
Es	-0.666144	-0.995417	0.146421	99
Es	-0.657771	-2.843253	-0.160140	99
Es	-0.492593	0.745900	1.486336	99
Es	0.071717	1.764253	-0.050905	99
Es	0.574959	-0.448102	-1.450471	99
Es	0.135792	-0.489931	-0.242475	99
Es	-1.533802	-1.649678	0.868583	99
Es	-1.050050	-3.275304	0.053942	99
44
Properties=species:S:1:pos:R:3:Z:I:1 energy=-304.15325208925776 field_type=dipole dipole="0.000000 0.000000 0.000000" charge=0
N	-0.657417	-2.843416	-0.160474	7
C	-0.959427	-1.716966	0.380306	6
N	-0.323897	-0.537576	0.162696	7
C	-0.701937	0.729804	0.761006	6
C	0.071723	1.764294	-0.050924	6
C	1.329263	1.011054	-0.452404	6
C	0.808663	-0.394666	-0.740494	6
H	-1.299587	-3.565956	0.180966	1
H	-1.800847	-1.640686	1.092036	1
H	-0.393947	0.749964	1.812236	1
H	-1.780657	0.908614	0.703586	1
H	-0.498327	2.043424	-0.945454	1
H	0.281983	2.673104	0.519436	1
H	1.836343	1.454764	-1.313264	1
H	2.033893	0.986254	0.387336	1
H	0.469353	-0.476966	-1.779314	1
H	1.584813	-1.145046	-0.557274	1
Es	-0.324818	-0.537811	0.161918	99
Es	0.808525	-0.394640	-0.740365	99
Es	-1.439689	0.844800	0.725462	99
Es	1.673584	1.312242	-1.037805	99
Es	-0.651602	-1.019732	0.177305	99
Es	-0.657778	-2.843272	-0.160139	99
Es	-0.290525	-0.682614	0.303302	99
Es	0.136541	-0.490654	-0.243091	99
Es	-0.701884	0.729660	0.760917	99
Es	-0.492508	0.746248	1.486718	99
Es	0.708914	1.414211	-0.255132	99
Es	1.807017	0.994173	0.125430	99
Es	1.329224	1.011044	-0.452400	99
Es	0.071718	1.764253	-0.050906	99
Es	1.080874	0.305868	-0.607388	99
Es	-0.396491	-2.902607	-0.389618	99
Es	-0.959386	-1.716769	0.380322	99
Es	-1.048816	-3.276531	0.052942	99
Es	0.574527	-0.448193	-1.450602	99
Es	-0.605071	-2.467118	0.273614	99
Es	-0.518757	-0.003256	0.412766	99
Es	0.212745	2.386638	0.343479	99
Es	-0.319278	1.946613	-0.663063	99
Es	-0.329250	1.257462	0.365840	99
Es	-0.965555	-2.351078	-0.161205	99
Es	-1.533355	-1.649452	0.868441	99
Es	1.331793	-0.905687	-0.613154	99
44
Properties=species:S:1:pos:R:3:Z:I:1 energy=-304.15325208925776 field_type=dipole dipole="0.000000 0.000000 0.000000" charge=0
N	-0.657417	-2.843416	-0.160474	7
C	-0.959427	-1.716966	0.380306	6
N	-0.323897	-0.537576	0.162696	7
C	-0.701937	0.729804	0.761006	6
C	0.071723	1.764294	-0.050924	6
C	1.329263	1.011054	-0.452404	6
C	0.808663	-0.394666	-0.740494	6
H	-1.299587	-3.565956	0.180966	1
H	-1.800847	-1.640686	1.092036	1
H	-0.393947	0.749964	1.812236	1
H	-1.780657	0.908614	0.703586	1
H	-0.498327	2.043424	-0.945454	1
H	0.281983	2.673104	0.519436	1
H	1.836343	1.454764	-1.313264	1
H	2.033893	0.986254	0.387336	1
H	0.469353	-0.476966	-1.779314	1
H	1.584813	-1.145046	-0.557274	1
Es	1.081276	0.305780	-0.608214	99
Es	-0.539016	-1.059422	0.319484	99
Es	0.573842	-0.448922	-1.451146	99
Es	-0.463975	-0.626184	0.087325	99
Es	-0.701885	0.729657	0.760917	99
Es	-0.491824	0.746880	1.486588	99
Es	-0.328757	1.256759	0.365246	99
Es	0.071718	1.764251	-0.050905	99
Es	-0.657765	-2.843245	-0.160142	99
Es	0.708597	1.414268	-0.256150	99
Es	-0.323386	-0.538181	0.163705	99
Es	-0.399825	-2.900904	-0.390137	99
Es	-0.959383	-1.716770	0.380325	99
Es	0.171416	-0.500783	-0.202483	99
Es	-0.603058	-2.464531	0.277754	99
Es	0.808526	-0.394639	-0.740367	99
Es	1.329223	1.011044	-0.452401	99
Es	-1.532309	-1.649618	0.869177	99
Es	1.671965	1.311264	-1.035846	99
Es	-0.319455	1.945885	-0.662808	99
Es	-0.963943	-2.354653	-0.162062	99
Es	1.808474	0.994914	0.125801	99
Es	0.212825	2.387436	0.344356	99
Es	1.331048	-0.904944	-0.613252	99
Es	-1.050340	-3.277069	0.048802	99
Es	-0.492640	-0.009951	0.444913	99
Es	-1.440649	0.845475	0.725109	99
44
Properties=species:S:1:pos:R:3:Z:I:1 energy=-304.15325208925776 field_type=dipole dipole="0.000000 0.000000 0.000000" charge=0
N	-0.657417	-2.843416	-0.160474	7
C	-0.959427	-1.716966	0.380306	6
N	-0.323897	-0.537576	0.162696	7
C	-0.701937	0.729804	0.761006	6
C	0.071723	1.764294	-0.050924	6
C	1.329263	1.011054	-0.452404	6
C	0.808663	-0.394666	-0.740494	6
H	-1.299587	-3.565956	0.180966	1
H	-1.800847	-1.640686	1.092036	1
H	-0.393947	0.749964	1.812236	1
H	-1.780657	0.908614	0.703586	1
H	-0.498327	2.043424	-0.945454	1
H	0.281983	2.673104	0.519436	1
H	1.836343	1.454764	-1.313264	1
H	2.033893	0.986254	0.387336	1
H	0.469353	-0.476966	-1.779314	1
H	1.584813	-1.145046	-0.557274	1
Es	1.671650	1.310988	-1.035119	99
Es	0.808525	-0.394639	-0.740365	99
Es	1.329224	1.011043	-0.452399	99
Es	0.212771	2.387784	0.344542	99
Es	-1.440416	0.845535	0.725136	99
Es	-0.319416	1.945543	-0.662715	99
Es	1.808608	0.995195	0.125648	99
Es	-0.491768	0.747117	1.486606	99
Es	0.071719	1.764254	-0.050904	99
Es	-0.323741	-0.537628	0.162909	99
Es	1.081473	0.305673	-0.608378	99
Es	-0.959385	-1.716771	0.380323	99
Es	-0.541485	-1.060082	0.316760	99
Es	-0.400292	-2.900061	-0.388659	99
Es	-0.602982	-2.464122	0.278008	99
Es	-0.492481	-0.009817	0.444841	99
Es	1.330806	-0.905263	-0.613272	99
Es	-0.964393	-2.354938	-0.163192	99
Es	-0.701885	0.729668	0.760920	99
Es	-1.532028	-1.649659	0.869150	99
Es	0.171122	-0.500689	-0.202961	99
Es	-0.657782	-2.843257	-0.160128	99
Es	0.573566	-0.448938	-1.450946	99
Es	-0.328792	1.256787	0.364947	99
Es	-0.460755	-0.626324	0.091069	99
Es	-1.049551	-3.278106	0.048094	99
Es	0.708389	1.414501	-0.256328	99
44
Properties=species:S:1:pos:R:3:Z:I:1 energy=-304.15325208925776 field_type=dipole dipole="0.000000 0.000000 0.000000" charge=0
N	-0.657417	-2.843416	-0.160474	7
C	-0.959427	-1.716966	0.380306	6
N	-0.323897	-0.537576	0.162696	7
C	-0.701937	0.729804	0.761006	6
C	0.071723	1.764294	-0.050924	6
C	1.329263	1.011054	-0.452404	6
C	0.808663	-0.394666	-0.740494	6
H	-1.299587	-3.565956	0.180966	1
H	-1.800847	-1.640686	1.092036	1
H	-0.393947	0.749964	1.812236	1
H	-1.780657	0.908614	0.703586	1
H	-0.498327	2.043424	-0.945454	1
H	0.281983	2.673104	0.519436	1
H	1.836343	1.454764	-1.313264	1
H	2.033893	0.986254	0.387336	1
H	0.469353	-0.476966	-1.779314	1
H	1.584813	-1.145046	-0.557274	1
Es	1.671422	1.310773	-1.034698	99
Es	-0.328595	1.256888	0.364762	99
Es	0.708224	1.414585	-0.256347	99
Es	-0.401658	-2.899123	-0.388308	99
Es	-0.323638	-0.537695	0.163067	99
Es	0.212765	2.387853	0.344784	99
Es	-0.601823	-2.464757	0.278671	99
Es	-0.319664	1.945370	-0.662817	99
Es	-0.701884	0.729660	0.760918	99
Es	1.330824	-0.905413	-0.612973	99
Es	-0.959383	-1.716769	0.380325	99
Es	1.808799	0.995256	0.125626	99
Es	-0.491772	0.747299	1.486752	99
Es	-0.964559	-2.354612	-0.163136	99
Es	1.081253	0.305723	-0.608502	99
Es	1.329223	1.011043	-0.452399	99
Es	-0.547915	-1.061110	0.310488	99
Es	0.071717	1.764253	-0.050906	99
Es	-1.049059	-3.278846	0.047161	99
Es	0.808518	-0.394641	-0.740368	99
Es	-0.493905	-0.008931	0.443097	99
Es	-1.440162	0.845666	0.725022	99
Es	0.573500	-0.449020	-1.450989	99
Es	0.170037	-0.500237	-0.205262	99
Es	-0.657785	-2.843262	-0.160130	99
Es	-0.451843	-0.626531	0.100864	99
Es	-1.531937	-1.649624	0.868885	99
44
Properties=species:S:1:pos:R:3:Z:I:1 energy=-304.15325208925776 field_type=dipole dipole="0.000000 0.000000 0.000000" charge=0
N	-0.657417	-2.843416	-0.160474	7
C	-0.959427	-1.716966	0.380306	6
N	-0.323897	-0.537576	0.162696	7
C	-0.701937	0.729804	0.761006	6
C	0.071723	1.764294	-0.050924	6
C	1.329263	1.011054	-0.452404	6
C	0.808663	-0.394666	-0.740494	6
H	-1.299587	-3.565956	0.180966	1
H	-1.800847	-1.640686	1.092036	1
H	-0.393947	0.749964	1.812236	1
H	-1.780657	0.908614	0.703586	1
H	-0.498327	2.043424	-0.945454	1
H	0.281983	2.673104	0.519436	1
H	1.836343	1.454764	-1.313264	1
H	2.033893	0.986254	0.387336	1
H	0.469353	-0.476966	-1.779314	1
H	1.584813	-1.145046	-0.557274	1
Es	1.080504	0.305870	-0.608510	99
Es	-0.657811	-2.843222	-0.160097	99
Es	-0.402529	-2.899154	-0.385296	99
Es	1.809159	0.995093	0.126168	99
Es	0.808524	-0.394639	-0.740365	99
Es	-0.491609	0.747488	1.487418	99
Es	-0.503710	-0.004787	0.432256	99
Es	-1.531897	-1.649331	0.868515	99
Es	-1.439837	0.845736	0.724660	99
Es	0.212887	2.387083	0.345137	99
Es	-0.328295	1.257130	0.364642	99
Es	-0.959384	-1.716770	0.380323	99
Es	0.708001	1.414548	-0.256181	99
Es	0.071718	1.764254	-0.050906	99
Es	-0.966944	-2.352407	-0.166003	99
Es	-0.588232	-1.059778	0.267050	99
Es	-0.390963	-0.634098	0.171190	99
Es	-0.600843	-2.466357	0.278377	99
Es	-0.320505	1.945692	-0.663797	99
Es	1.329223	1.011043	-0.452399	99
Es	-0.701884	0.729660	0.760918	99
Es	0.158904	-0.495851	-0.224202	99
Es	1.671290	1.310350	-1.034518	99
Es	-0.323035	-0.539364	0.165001	99
Es	-1.046514	-3.279677	0.047748	99
Es	1.331254	-0.906026	-0.612312	99
Es	0.573227	-0.448690	-1.451228	99
44
Properties=species:S:1:pos:R:3:Z:I:1 energy=-304.15325208925776 field_type=dipole dipole="0.000000 0.000000 0.000000" charge=0
N	-0.657417	-2.843416	-0.160474	7
C	-0.959427	-1.716966	0.380306	6
N	-0.323897	-0.537576	0.162696	7
C	-0.701937	0.729804	0.761006	6
C	0.071723	1.764294	-0.050924	6
C	1.329263	1.011054	-0.452404	6
C	0.808663	-0.394666	-0.740494	6
H	-1.299587	-3.565956	0.180966	1
H	-1.800847	-1.640686	1.092036	1
H	-0.393947	0.749964	1.812236	1
H	-1.780657	0.908614	0.703586	1
H	-0.498327	2.043424	-0.945454	1
H	0.281983	2.673104	0.519436	1
H	1.836343	1.454764	-1.313264	1
H	2.033893	0.986254	0.387336	1
H	0.469353	-0.476966	-1.779314	1
H	1.584813	-1.145046	-0.557274	1
Es	0.808524	-0.394639	-0.740366	99
Es	-0.637772	-1.034567	0.200295	99
Es	0.212452	2.387851	0.344326	99
Es	-0.657764	-2.843270	-0.160169	99
Es	-1.532606	-1.649454	0.867742	99
Es	1.672574	1.310953	-1.035103	99
Es	0.708175	1.415127	-0.255650	99
Es	-0.400208	-2.897675	-0.383763	99
Es	-1.438563	0.845030	0.725371	99
Es	-0.967047	-2.351189	-0.164913	99
Es	-0.701885	0.729659	0.760917	99
Es	-0.329139	1.258221	0.364705	99
Es	-0.516590	-0.002826	0.415393	99
Es	1.080868	0.305538	-0.608231	99
Es	0.071718	1.764254	-0.050905	99
Es	1.329222	1.011044	-0.452400	99
Es	1.331419	-0.907126	-0.612772	99
Es	-0.319398	1.945427	-0.662647	99
Es	-1.044786	-3.281835	0.048973	99
Es	0.132143	-0.490317	-0.246230	99
Es	-0.492745	0.746945	1.486869	99
Es	1.807530	0.994967	0.124589	99
Es	-0.603785	-2.467053	0.275441	99
Es	-0.959386	-1.716769	0.380322	99
Es	-0.325652	-0.538377	0.161496	99
Es	0.573759	-0.448232	-1.449693	99
Es	-0.300360	-0.667891	0.279992	99
44
Properties=species:S:1:pos:R:3:Z:I:1 energy=-304.15325208925776 field_type=dipole dipole="0.000000 0.000000 0.000000" charge=0
N	-0.657417	-2.843416	-0.160474	7
C	-0.959427	-1.716966	0.380306	6
N	-0.323897	-0.537576	0.162696	7
C	-0.701937	0.729804	0.761006	6
C	0.071723	1.764294	-0.050924	6
C	1.329263	1.011054	-0.452404	6
C	0.808663	-0.394666	-0.740494	6
H	-1.299587	-3.565956	0.180966	1
H	-1.800847	-1.640686	1.092036	1
H	-0.393947	0.749964	1.812236	1
H	-1.780657	0.908614	0.703586	1
H	-0.498327	2.043424	-0.945454	1
H	0.281983	2.673104	0.519436	1
H	1.836343	1.454764	-1.313264	1
H	2.033893	0.986254	0.387336	1
H	0.469353	-0.476966	-1.779314	1
H	1.584813	-1.145046	-0.557274	1
Es	0.212782	2.388074	0.345182	99
Es	-0.324531	-0.537562	0.162052	99
Es	-0.657777	-2.843263	-0.160137	99
Es	-0.491760	0.747650	1.487154	99
Es	-1.439509	0.845719	0.724869	99
Es	-1.047185	-3.280653	0.046064	99
Es	1.671067	1.310330	-1.033768	99
Es	-0.328524	1.257199	0.364294	99
Es	0.168436	-0.499460	-0.208318	99
Es	-1.531486	-1.649683	0.868763	99
Es	-0.558531	-1.062284	0.299196	99
Es	-0.402699	-2.897562	-0.385997	99
Es	0.071718	1.764254	-0.050905	99
Es	-0.320007	1.944986	-0.662903	99
Es	1.329223	1.011043	-0.452400	99
Es	-0.965728	-2.354217	-0.164670	99
Es	0.707931	1.414750	-0.256565	99
Es	-0.601512	-2.465017	0.278855	99
Es	1.081003	0.305679	-0.608738	99
Es	0.808525	-0.394640	-0.740365	99
Es	-0.495677	-0.007717	0.440696	99
Es	0.573057	-0.449084	-1.450792	99
Es	1.808946	0.995552	0.125551	99
Es	-0.701884	0.729659	0.760918	99
Es	1.330773	-0.905935	-0.612662	99
Es	-0.436571	-0.627249	0.117888	99
Es	-0.959383	-1.716769	0.380325	99
44
Properties=species:S:1:pos:R:3:Z:I:1 energy=-304.15325208925776 field_type=dipole dipole="0.000000 0.000000 0.000000" charge=0
N	-0.657417	-2.843416	-0.160474	7
C	-0.959427	-1.716966	0.380306	6
N	-0.323897	-0.537576	0.162696	7
C	-0.701937	0.729804	0.761006	6
C	0.071723	1.764294	-0.050924	6
C	1.329263	1.011054	-0.452404	6
C	0.808663	-0.394666	-0.740494	6
H	-1.299587	-3.565956	0.180966	1
H	-1.800847	-1.640686	1.092036	1
H	-0.393947	0.749964	1.812236	1
H	-1.780657	0.908614	0.703586	1
H	-0.498327	2.043424	-0.945454	1
H	0.281983	2.673104	0.519436	1
H	1.836343	1.454764	-1.313264	1
H	2.033893	0.986254	0.387336	1
H	0.469353	-0.476966	-1.779314	1
H	1.584813	-1.145046	-0.557274	1
Es	0.808525	-0.394640	-0.740365	99
Es	-0.701886	0.729662	0.760920	99
Es	1.081192	0.305652	-0.608857	99
Es	0.212635	2.388359	0.345192	99
Es	-0.657771	-2.843271	-0.160145	99
Es	1.330602	-0.906044	-0.612699	99
Es	-0.494941	-0.008125	0.441567	99
Es	0.168186	-0.499341	-0.208464	99
Es	0.707877	1.414979	-0.256538	99
Es	-0.440882	-0.624716	0.111727	99
Es	-0.323416	-0.539952	0.165089	99
Es	-0.403783	-2.896709	-0.386259	99
Es	-0.491880	0.747652	1.487025	99
Es	-0.319726	1.944787	-0.662684	99
Es	-0.555795	-1.062138	0.301567	99
Es	-1.439400	0.845738	0.724925	99
Es	-0.959384	-1.716767	0.380326	99
Es	1.670974	1.310135	-1.033383	99
Es	1.329223	1.011043	-0.452400	99
Es	-0.600684	-2.466160	0.278823	99
Es	-1.531456	-1.649760	0.868637	99
Es	-0.965505	-2.353362	-0.163646	99
Es	1.808970	0.995572	0.125274	99
Es	0.071718	1.764254	-0.050906	99
Es	-0.328621	1.257333	0.364144	99
Es	0.573034	-0.449139	-1.450647	99
Es	-1.047107	-3.281246	0.045364	99
44
Properties=species:S:1:pos:R:3:Z:I:1 energy=-304.15325208925776 field_type=dipole dipole="0.000000 0.000000 0.000000" charge=0
N	-0.657417	-2.843416	-0.160474	7
C	-0.959427	-1.716966	0.380306	6
N	-0.323897	-0.537576	0.162696	7
C	-0.701937	0.729804	0.761006	6
C	0.071723	1.764294	-0.050924	6
C	1.329263	1.011054	-0.452404	6
C	0.808663	-0.394666	-0.740494	6
H	-1.299587	-3.565956	0.180966	1
H	-1.800847	-1.640686	1.092036	1
H	-0.393947	0.749964	1.812236	1
H	-1.780657	0.908614	0.703586	1
H	-0.498327	2.043424	-0.945454	1
H	0.281983	2.673104	0.519436	1
H	1.836343	1.454764	-1.313264	1
H	2.033893	0.986254	0.387336	1
H	0.469353	-0.476966	-1.779314	1
H	1.584813	-1.145046	-0.557274	1
Es	-1.531598	-1.649464	0.868256	99
Es	-0.600233	-2.467081	0.278878	99
Es	-0.397682	-0.633573	0.164424	99
Es	-0.657794	-2.843248	-0.160120	99
Es	-0.502188	-0.005115	0.433678	99
Es	1.809344	0.995418	0.125686	99
Es	0.808524	-0.394639	-0.740366	99
Es	1.330940	-0.906483	-0.612195	99
Es	0.707707	1.414925	-0.256385	99
Es	-0.967081	-2.351990	-0.166148	99
Es	-1.045413	-3.281448	0.045917	99
Es	-0.491653	0.747846	1.487487	99
Es	0.572784	-0.448841	-1.450881	99
Es	-0.959385	-1.716769	0.380322	99
Es	-0.404014	-2.897160	-0.383918	99
Es	-0.323237	-0.538311	0.163965	99
Es	1.080634	0.305782	-0.608837	99
Es	-1.439282	0.845880	0.724640	99
Es	-0.701884	0.729659	0.760917	99
Es	0.071717	1.764254	-0.050905	99
Es	0.159588	-0.495863	-0.222976	99
Es	-0.328417	1.257299	0.364166	99
Es	1.329224	1.011043	-0.452399	99
Es	0.212821	2.387559	0.345448	99
Es	-0.320430	1.945260	-0.663512	99
Es	-0.583090	-1.060998	0.271717	99
Es	1.670798	1.309854	-1.033269	99
44
Properties=species:S:1:pos:R:3:Z:I:1 energy=-304.15325208925776 field_type=dipole dipole="0.000000 0.000000 0.000000" charge=0
N	-0.657417	-2.843416	-0.160474	7
C	-0.959427	-1.716966	0.380306	6
N	-0.323897	-0.537576	0.162696	7
C	-0.701937	0.729804	0.761006	6
C	0.071723	1.764294	-0.050924	6
C	1.329263	1.011054	-0.452404	6
C	0.808663	-0.394666	-0.740494	6
H	-1.299587	-3.565956	0.180966	1
H	-1.800847	-1.640686	1.092036	1
H	-0.393947	0.749964	1.812236	1
H	-1.780657	0.908614	0.703586	1
H	-0.498327	2.043424	-0.945454	1
H	0.281983	2.673104	0.519436	1
H	1.836343	1.454764	-1.313264	1
H	2.033893	0.986254	0.387336	1
H	0.469353	-0.476966	-1.779314	1
H	1.584813	-1.145046	-0.557274	1
Es	-0.701884	0.729660	0.760918	99
Es	-0.633204	-1.038470	0.206778	99
Es	-0.967483	-2.351618	-0.166182	99
Es	0.212296	2.388272	0.344673	99
Es	1.807709	0.995236	0.124218	99
Es	0.071718	1.764254	-0.050905	99
Es	-0.657757	-2.843224	-0.160147	99
Es	1.331213	-0.907504	-0.612581	99
Es	0.131443	-0.490241	-0.246597	99
Es	-1.532279	-1.649566	0.867594	99
Es	-0.325712	-0.538412	0.161493	99
Es	-0.603956	-2.466579	0.275788	99
Es	-0.515853	-0.002722	0.416142	99
Es	-0.959385	-1.716769	0.380322	99
Es	1.672161	1.310326	-1.033974	99
Es	-0.329247	1.258553	0.364074	99
Es	-1.043688	-3.282942	0.048059	99
Es	1.329223	1.011044	-0.452401	99
Es	0.808524	-0.394640	-0.740365	99
Es	0.573493	-0.448412	-1.449366	99
Es	1.080826	0.305537	-0.608566	99
Es	-0.304421	-0.664069	0.272720	99
Es	-0.492669	0.747281	1.486900	99
Es	-1.438167	0.844955	0.725477	99
Es	-0.319420	1.944986	-0.662473	99
Es	-0.400695	-2.896740	-0.382123	99
Es	0.707915	1.415598	-0.255887	99
44
Properties=species:S:1:pos:R:3:Z:I:1 energy=-304.15325208925776 field_type=dipole dipole="0.000000 0.000000 0.000000" charge=0
N	-0.657417	-2.843416	-0.160474	7
C	-0.959427	-1.716966	0.380306	6
N	-0.323897	-0.537576	0.162696	7
C	-0.701937	0.729804	0.761006	6
C	0.071723	1.764294	-0.050924	6
C	1.329263	1.011054	-0.452404	6
C	0.808663	-0.394666	-0.740494	6
H	-1.299587	-3.565956	0.180966	1
H	-1.800847	-1.640686	1.092036	1
H	-0.393947	0.749964	1.812236	1
H	-1.780657	0.908614	0.703586	1
H	-0.498327	2.043424	-0.945454	1
H	0.281983	2.673104	0.519436	1
H	1.836343	1.454764	-1.313264	1
H	2.033893	0.986254	0.387336	1
H	0.469353	-0.476966	-1.779314	1
H	1.584813	-1.145046	-0.557274	1
Es	-0.967434	-2.351326	-0.166074	99
Es	1.329223	1.011043	-0.452399	99
Es	0.212161	2.388363	0.344674	99
Es	0.808525	-0.394639	-0.740366	99
Es	0.707986	1.415734	-0.255956	99
Es	0.130272	-0.490013	-0.247508	99
Es	0.071718	1.764254	-0.050906	99
Es	-0.400610	-2.896408	-0.381939	99
Es	-0.959389	-1.716768	0.380317	99
Es	-1.532196	-1.649600	0.867520	99
Es	-0.516157	-0.002773	0.415880	99
Es	-0.303004	-0.666136	0.274926	99
Es	-0.657787	-2.843256	-0.160126	99
Es	-1.437979	0.844989	0.725493	99
Es	-1.043587	-3.283247	0.047854	99
Es	-0.634460	-1.037412	0.204938	99
Es	-0.324411	-0.537564	0.162175	99
Es	0.573435	-0.448337	-1.449190	99
Es	-0.329157	1.258661	0.364104	99
Es	1.807602	0.995291	0.124019	99
Es	1.080897	0.305482	-0.608457	99
Es	1.331112	-0.907727	-0.612635	99
Es	1.672189	1.310290	-1.033892	99
Es	-0.604132	-2.466881	0.275667	99
Es	-0.701884	0.729658	0.760916	99
Es	-0.319377	1.944926	-0.662281	99
Es	-0.492857	0.747194	1.486835	99
44
Properties=species:S:1:pos:R:3:Z:I:1 energy=-304.15325208925776 field_type=dipole dipole="0.000000 0.000000 0.000000" charge=0
N	-0.657417	-2.843416	-0.160474	7
C	-0.959427	-1.716966	0.380306	6
N	-0.323897	-0.537576	0.162696	7
C	-0.701937	0.729804	0.761006	6
C	0.071723	1.764294	-0.050924	6
C	1.329263	1.011054	-0.452404	6
C	0.808663	-0.394666	-0.740494	6
H	-1.299587	-3.565956	0.180966	1
H	-1.800847	-1.640686	1.092036	1
H	-0.393947	0.749964	1.812236	1
H	-1.780657	0.908614	0.703586	1
H	-0.498327	2.043424	-0.945454	1
H	0.281983	2.673104	0.519436	1
H	1.836343	1.454764	-1.313264	1
H	2.033893	0.986254	0.387336	1
H	0.469353	-0.476966	-1.779314	1
H	1.584813	-1.145046	-0.557274	1
Es	-0.319575	1.944868	-0.662497	99
Es	0.071716	1.764254	-0.050906	99
Es	-0.701887	0.729658	0.760916	99
Es	0.133966	-0.490589	-0.245410	99
Es	-0.323904	-0.537561	0.162690	99
Es	0.808522	-0.394640	-0.740363	99
Es	1.808140	0.995200	0.124408	99
Es	-0.492542	0.747401	1.487020	99
Es	-0.514850	-0.002739	0.417713	99
Es	1.080538	0.305662	-0.608615	99
Es	1.331200	-0.907558	-0.612472	99
Es	-0.313888	-0.661180	0.262263	99
Es	-1.043815	-3.283120	0.047255	99
Es	0.707994	1.415761	-0.256113	99
Es	-0.967363	-2.349851	-0.165675	99
Es	0.212113	2.388295	0.344891	99
Es	-0.402108	-2.896392	-0.382116	99
Es	1.329224	1.011043	-0.452400	99
Es	-1.438039	0.845131	0.725416	99
Es	-0.602586	-2.468569	0.276087	99
Es	-0.329121	1.258553	0.363890	99
Es	-0.959386	-1.716769	0.380322	99
Es	-1.532063	-1.649523	0.867499	99
Es	-0.628896	-1.041807	0.213014	99
Es	1.671841	1.309906	-1.033595	99
Es	0.573244	-0.448398	-1.449501	99
Es	-0.657775	-2.843237	-0.160132	99
44
Properties=species:S:1:pos:R:3:Z:I:1 energy=-304.15325208925776 field_type=dipole dipole="0.000000 0.000000 0.000000" charge=0
N	-0.657417	-2.843416	-0.160474	7
C	-0.959427	-1.716966	0.380306	6
N	-0.323897	-0.537576	0.162696	7
C	-0.701937	0.729804	0.761006	6
C	0.071723	1.764294	-0.050924	6
C	1.329263	1.011054	-0.452404	6
C	0.808663	-0.394666	-0.740494	6
H	-1.299587	-3.565956	0.180966	1
H	-1.800847	-1.640686	1.092036	1
H	-0.393947	0.749964	1.812236	1
H	-1.780657	0.908614	0.703586	1
H	-0.498327	2.043424	-0.945454	1
H	0.281983	2.673104	0.519436	1
H	1.836343	1.454764	-1.313264	1
H	2.033893	0.986254	0.387336	1
H	0.469353	-0.476966	-1.779314	1
H	1.584813	-1.145046	-0.557274	1
Es	-1.045690	-3.282846	0.044135	99
Es	1.330526	-0.906422	-0.612578	99
Es	-0.965893	-2.354384	-0.164699	99
Es	0.707661	1.415422	-0.256544	99
Es	-0.701884	0.729658	0.760918	99
Es	-0.323728	-0.537641	0.162931	99
Es	0.212519	2.388625	0.345459	99
Es	-0.436356	-0.627622	0.119476	99
Es	0.166672	-0.498745	-0.210905	99
Es	0.572783	-0.449210	-1.450320	99
Es	-0.657752	-2.843281	-0.160158	99
Es	-0.328687	1.257488	0.363668	99
Es	-0.404879	-2.895157	-0.384588	99
Es	-1.531253	-1.649827	0.868512	99
Es	-0.495451	-0.007638	0.440713	99
Es	1.670630	1.309636	-1.032263	99
Es	0.808523	-0.394640	-0.740364	99
Es	1.809045	0.995730	0.124824	99
Es	1.329223	1.011043	-0.452399	99
Es	-0.491759	0.747973	1.487125	99
Es	1.081176	0.305580	-0.609243	99
Es	-1.439027	0.845838	0.724941	99
Es	-0.557759	-1.062609	0.298874	99
Es	-0.600540	-2.465122	0.279272	99
Es	-0.959384	-1.716769	0.380323	99
Es	0.071718	1.764254	-0.050906	99
Es	-0.319735	1.944464	-0.662616	99
44
Properties=species:S:1:pos:R:3:Z:I:1 energy=-304.15325208925776 field_type=dipole dipole="0.000000 0.000000 0.000000" charge=0
N	-0.657417	-2.843416	-0.160474	7
C	-0.959427	-1.716966	0.380306	6
N	-0.323897	-0.537576	0.162696	7
C	-0.701937	0.729804	0.761006	6
C	0.071723	1.764294	-0.050924	6
C	1.329263	1.011054	-0.452404	6
C	0.808663	-0.394666	-0.740494	6
H	-1.299587	-3.565956	0.180966	1
H	-1.800847	-1.640686	1.092036	1
H	-0.393947	0.749964	1.812236	1
H	-1.780657	0.908614	0.703586	1
H	-0.498327	2.043424	-0.945454	1
H	0.281983	2.673104	0.519436	1
H	1.836343	1.454764	-1.313264	1
H	2.033893	0.986254	0.387336	1
H	0.469353	-0.476966	-1.779314	1
H	1.584813	-1.145046	-0.557274	1
Es	0.212194	2.388553	0.344830	99
Es	0.132141	-0.490521	-0.246172	99
Es	-0.401456	-2.895713	-0.381334	99
Es	-0.603712	-2.467212	0.276075	99
Es	-0.308381	-0.660285	0.266380	99
Es	-0.326755	-0.539390	0.161181	99
Es	-0.492702	0.747468	1.487031	99
Es	1.080848	0.305486	-0.608675	99
Es	0.573329	-0.448425	-1.449293	99
Es	-0.959380	-1.716771	0.380329	99
Es	1.671826	1.309977	-1.033341	99
Es	-0.629677	-1.041164	0.211922	99
Es	-0.967684	-2.351147	-0.166268	99
Es	-1.532062	-1.649552	0.867467	99
Es	-0.657766	-2.843225	-0.160137	99
Es	-1.042958	-3.283875	0.047022	99
Es	-0.701884	0.729659	0.760917	99
Es	0.808524	-0.394640	-0.740364	99
Es	-0.514850	-0.002515	0.416919	99
Es	-0.319466	1.944688	-0.662291	99
Es	0.707810	1.415739	-0.256051	99
Es	1.331019	-0.907731	-0.612462	99
Es	1.329223	1.011043	-0.452400	99
Es	-0.329188	1.258654	0.363834	99
Es	-1.437924	0.845075	0.725338	99
Es	0.071718	1.764254	-0.050905	99
Es	1.807912	0.995367	0.124037	99
44
Properties=species:S:1:pos:R:3:Z:I:1 energy=-304.15325208925776 field_type=dipole dipole="0.000000 0.000000 0.000000" charge=0
N	-0.657417	-2.843416	-0.160474	7
C	-0.959427	-1.716966	0.380306	6
N	-0.323897	-0.537576	0.162696	7
C	-0.701937	0.729804	0.761006	6
C	0.071723	1.764294	-0.050924	6
C	1.329263	1.011054	-0.452404	6
C	0.808663	-0.394666	-0.740494	6
H	-1.299587	-3.565956	0.180966	1
H	-1.800847	-1.640686	1.092036	1
H	-0.393947	0.749964	1.812236	1
H	-1.780657	0.908614	0.703586	1
H	-0.498327	2.043424	-0.945454	1
H	0.281983	2.673104	0.519436	1
H	1.836343	1.454764	-1.313264	1
H	2.033893	0.986254	0.387336	1
H	0.469353	-0.476966	-1.779314	1
H	1.584813	-1.145046	-0.557274	1
Es	-0.320162	1.944578	-0.662908	99
Es	-1.531241	-1.649673	0.868221	99
Es	-0.491777	0.748028	1.487451	99
Es	0.071718	1.764254	-0.050905	99
Es	-0.959384	-1.716769	0.380324	99
Es	-0.600092	-2.466702	0.279321	99
Es	0.212558	2.388332	0.345667	99
Es	1.329222	1.011042	-0.452398	99
Es	-0.498659	-0.006108	0.436846	99
Es	-0.657768	-2.843272	-0.160143	99
Es	1.080941	0.305565	-0.609153	99
Es	-0.570773	-1.062565	0.285040	99
Es	-0.323245	-0.538328	0.163969	99
Es	-0.966702	-2.352789	-0.165329	99
Es	-0.405183	-2.895092	-0.383615	99
Es	-0.701884	0.729659	0.760918	99
Es	1.809284	0.995773	0.125152	99
Es	0.707588	1.415243	-0.256702	99
Es	1.330585	-0.906685	-0.612208	99
Es	0.162936	-0.497069	-0.217542	99
Es	0.572620	-0.449037	-1.450555	99
Es	-1.044851	-3.283082	0.044062	99
Es	-0.328503	1.257646	0.363646	99
Es	-1.438810	0.845892	0.724723	99
Es	0.808525	-0.394639	-0.740366	99
Es	1.670465	1.309449	-1.032168	99
Es	-0.416709	-0.629854	0.142241	99
