41
Properties=species:S:1:pos:R:3:Z:I:1 energy=-302.9284703082205 field_type=dipole dipole="0.000000 0.000000 0.000000" charge=0
N	-1.889220	-1.599834	0.619376	7
N	-0.659010	-1.645014	0.057016	7
C	-0.032370	-0.506104	-0.007554	6
C	1.343040	-0.437694	-0.629504	6
C	1.591900	1.031366	-0.533374	6
C	0.599650	1.702176	0.061236	6
C	-0.534380	0.831466	0.494236	6
H	-2.209250	-2.556364	0.794866	1
H	-2.572140	-1.222564	-0.044374	1
H	1.315530	-0.783934	-1.664544	1
H	2.060770	-1.013394	-0.039794	1
H	2.494840	1.494246	-0.911854	1
H	0.602990	2.772366	0.222166	1
H	-0.644300	0.822266	1.581556	1
H	-1.468050	1.111016	0.000546	1
Es	-1.160624	1.015632	0.159453	99
Es	-0.516695	-1.982134	-0.052205	99
Es	-2.080240	-2.181306	0.705900	99
Es	-0.282583	-1.183880	0.290084	99
Es	0.655848	-0.484612	-0.320961	99
Es	-0.603952	0.821948	1.215324	99
Es	1.342998	-0.437640	-0.629476	99
Es	-0.534329	0.831438	0.494190	99
Es	1.323808	-0.664843	-1.322262	99
Es	-2.281344	-1.373023	0.202808	99
Es	-0.659270	-1.644492	0.057206	99
Es	0.013754	1.298164	0.290662	99
Es	0.599540	1.702222	0.061298	99
Es	-1.288854	-1.611460	0.325880	99
Es	0.956515	1.423139	-0.528408	99
Es	0.593645	2.430394	0.174957	99
Es	1.591987	1.031285	-0.533429	99
Es	1.504306	0.294389	-0.599968	99
Es	1.243948	1.334864	0.052170	99
Es	-0.032363	-0.506062	-0.007603	99
Es	-1.878355	-1.404563	0.916165	99
Es	-1.889168	-1.600164	0.618831	99
Es	-0.526121	-1.104009	-0.233401	99
Es	2.209529	1.339146	-0.793215	99
Es	1.821567	-0.818520	-0.233196	99
Es	-0.305242	0.155854	0.246691	99
41
Properties=species:S:1:pos:R:3:Z:I:1 energy=-302.9284703082205 field_type=dipole dipole="0.000000 0.000000 0.000000" charge=0
N	-1.889220	-1.599834	0.619376	7
N	-0.659010	-1.645014	0.057016	7
C	-0.032370	-0.506104	-0.007554	6
C	1.343040	-0.437694	-0.629504	6
C	1.591900	1.031366	-0.533374	6
C	0.599650	1.702176	0.061236	6
C	-0.534380	0.831466	0.494236	6
H	-2.209250	-2.556364	0.794866	1
H	-2.572140	-1.222564	-0.044374	1
H	1.315530	-0.783934	-1.664544	1
H	2.060770	-1.013394	-0.039794	1
H	2.494840	1.494246	-0.911854	1
H	0.602990	2.772366	0.222166	1
H	-0.644300	0.822266	1.581556	1
H	-1.468050	1.111016	0.000546	1
Es	0.013697	1.299117	0.290602	99
Es	1.820751	-0.818016	-0.235522	99
Es	1.591988	1.031284	-0.533428	99
Es	0.958167	1.422720	-0.524918	99
Es	-2.280277	-1.371794	0.206002	99
Es	-0.032361	-0.506063	-0.007601	99
Es	2.210985	1.340243	-0.792753	99
Es	-1.160853	1.015298	0.161246	99
Es	0.654631	-0.486534	-0.320438	99
Es	-2.082322	-2.182481	0.706318	99
Es	1.342999	-0.437641	-0.629475	99
Es	-0.534327	0.831437	0.494190	99
Es	1.325096	-0.664788	-1.319951	99
Es	1.505223	0.295081	-0.600059	99
Es	-0.659278	-1.644485	0.057212	99
Es	1.242069	1.334844	0.048722	99
Es	-1.287634	-1.609594	0.326376	99
Es	-0.514910	-1.982472	-0.055410	99
Es	-0.525460	-1.104100	-0.227933	99
Es	-0.284225	-1.183035	0.287241	99
Es	-1.889180	-1.600158	0.618822	99
Es	0.594445	2.430920	0.174340	99
Es	-0.306289	0.154327	0.247730	99
Es	-0.604266	0.821847	1.212457	99
Es	0.599539	1.702225	0.061297	99
Es	-1.879904	-1.406413	0.912428	99
41
Properties=species:S:1:pos:R:3:Z:I:1 energy=-302.9284703082205 field_type=dipole dipole="0.000000 0.000000 0.000000" charge=0
N	-1.889220	-1.599834	0.619376	7
N	-0.659010	-1.645014	0.057016	7
C	-0.032370	-0.506104	-0.007554	6
C	1.343040	-0.437694	-0.629504	6
C	1.591900	1.031366	-0.533374	6
C	0.599650	1.702176	0.061236	6
C	-0.534380	0.831466	0.494236	6
H	-2.209250	-2.556364	0.794866	1
H	-2.572140	-1.222564	-0.044374	1
H	1.315530	-0.783934	-1.664544	1
H	2.060770	-1.013394	-0.039794	1
H	2.494840	1.494246	-0.911854	1
H	0.602990	2.772366	0.222166	1
H	-0.644300	0.822266	1.581556	1
H	-1.468050	1.111016	0.000546	1
Es	1.505970	0.295542	-0.600318	99
Es	-2.084223	-2.183159	0.706212	99
Es	0.653919	-0.487894	-0.320212	99
Es	1.820007	-0.817592	-0.237118	99
Es	1.325885	-0.664704	-1.318322	99
Es	-1.889163	-1.600179	0.618813	99
Es	-0.032363	-0.506062	-0.007605	99
Es	-1.287133	-1.608312	0.326329	99
Es	-2.278924	-1.371072	0.208427	99
Es	-0.525022	-1.104503	-0.224075	99
Es	2.211794	1.340935	-0.792355	99
Es	-0.285932	-1.181978	0.284756	99
Es	0.013577	1.299664	0.290537	99
Es	-0.604144	0.821758	1.210408	99
Es	0.599539	1.702223	0.061301	99
Es	-0.307056	0.153337	0.248416	99
Es	-0.513155	-1.983155	-0.057090	99
Es	1.591991	1.031282	-0.533429	99
Es	0.959193	1.422555	-0.522816	99
Es	-0.534328	0.831437	0.494190	99
Es	-0.659270	-1.644487	0.057215	99
Es	-1.880642	-1.407273	0.910306	99
Es	0.595002	2.431164	0.174059	99
Es	1.240887	1.334591	0.046739	99
Es	-1.161104	1.015295	0.162611	99
Es	1.342999	-0.437642	-0.629481	99
41
Properties=species:S:1:pos:R:3:Z:I:1 energy=-302.9284703082205 field_type=dipole dipole="0.000000 0.000000 0.000000" charge=0
N	-1.889220	-1.599834	0.619376	7
N	-0.659010	-1.645014	0.057016	7
C	-0.032370	-0.506104	-0.007554	6
C	1.343040	-0.437694	-0.629504	6
C	1.591900	1.031366	-0.533374	6
C	0.599650	1.702176	0.061236	6
C	-0.534380	0.831466	0.494236	6
H	-2.209250	-2.556364	0.794866	1
H	-2.572140	-1.222564	-0.044374	1
H	1.315530	-0.783934	-1.664544	1
H	2.060770	-1.013394	-0.039794	1
H	2.494840	1.494246	-0.911854	1
H	0.602990	2.772366	0.222166	1
H	-0.644300	0.822266	1.581556	1
H	-1.468050	1.111016	0.000546	1
Es	-0.534328	0.831437	0.494189	99
Es	-2.085766	-2.183410	0.705863	99
Es	0.595493	2.431317	0.173940	99
Es	1.240153	1.334506	0.045389	99
Es	-0.659285	-1.644497	0.057214	99
Es	-1.161451	1.015340	0.163669	99
Es	-0.511825	-1.983186	-0.059168	99
Es	-0.524744	-1.104497	-0.220564	99
Es	-1.286745	-1.607716	0.326414	99
Es	-1.881308	-1.407978	0.908838	99
Es	1.342999	-0.437640	-0.629476	99
Es	-2.277718	-1.370702	0.210285	99
Es	0.959819	1.422315	-0.521391	99
Es	1.506334	0.295619	-0.600334	99
Es	0.653458	-0.488784	-0.319992	99
Es	-0.287048	-1.181628	0.282958	99
Es	2.212249	1.341326	-0.792327	99
Es	-0.032356	-0.506061	-0.007594	99
Es	-0.603962	0.821605	1.208539	99
Es	1.819549	-0.817144	-0.238270	99
Es	0.599532	1.702225	0.061288	99
Es	-1.889158	-1.600176	0.618817	99
Es	0.013511	1.300261	0.290845	99
Es	1.326450	-0.664546	-1.317289	99
Es	1.591992	1.031282	-0.533427	99
Es	-0.307542	0.152502	0.249080	99
41
Properties=species:S:1:pos:R:3:Z:I:1 energy=-302.9284703082205 field_type=dipole dipole="0.000000 0.000000 0.000000" charge=0
N	-1.889220	-1.599834	0.619376	7
N	-0.659010	-1.645014	0.057016	7
C	-0.032370	-0.506104	-0.007554	6
C	1.343040	-0.437694	-0.629504	6
C	1.591900	1.031366	-0.533374	6
C	0.599650	1.702176	0.061236	6
C	-0.534380	0.831466	0.494236	6
H	-2.209250	-2.556364	0.794866	1
H	-2.572140	-1.222564	-0.044374	1
H	1.315530	-0.783934	-1.664544	1
H	2.060770	-1.013394	-0.039794	1
H	2.494840	1.494246	-0.911854	1
H	0.602990	2.772366	0.222166	1
H	-0.644300	0.822266	1.581556	1
H	-1.468050	1.111016	0.000546	1
Es	1.818622	-0.816361	-0.239114	99
Es	-0.524452	-1.104922	-0.218258	99
Es	1.327226	-0.664877	-1.316459	99
Es	2.212642	1.341559	-0.792163	99
Es	-1.286647	-1.607101	0.326267	99
Es	-1.881396	-1.408848	0.907901	99
Es	-0.510550	-1.983451	-0.060082	99
Es	-0.534327	0.831437	0.494188	99
Es	1.591997	1.031282	-0.533411	99
Es	0.013513	1.300522	0.290781	99
Es	0.595623	2.431338	0.173810	99
Es	-2.276714	-1.369983	0.212159	99
Es	0.960210	1.422229	-0.520545	99
Es	0.599534	1.702225	0.061296	99
Es	-0.032357	-0.506060	-0.007597	99
Es	0.653112	-0.489651	-0.319708	99
Es	-0.308061	0.151983	0.249638	99
Es	1.506880	0.295838	-0.600394	99
Es	1.239750	1.334529	0.044454	99
Es	-0.603524	0.821579	1.207089	99
Es	1.342999	-0.437641	-0.629475	99
Es	-1.161880	1.015332	0.164704	99
Es	-0.659285	-1.644494	0.057217	99
Es	-0.288261	-1.180845	0.281261	99
Es	-2.087193	-2.183661	0.705141	99
Es	-1.889156	-1.600189	0.618797	99
41
Properties=species:S:1:pos:R:3:Z:I:1 energy=-302.9284703082205 field_type=dipole dipole="0.000000 0.000000 0.000000" charge=0
N	-1.889220	-1.599834	0.619376	7
N	-0.659010	-1.645014	0.057016	7
C	-0.032370	-0.506104	-0.007554	6
C	1.343040	-0.437694	-0.629504	6
C	1.591900	1.031366	-0.533374	6
C	0.599650	1.702176	0.061236	6
C	-0.534380	0.831466	0.494236	6
H	-2.209250	-2.556364	0.794866	1
H	-2.572140	-1.222564	-0.044374	1
H	1.315530	-0.783934	-1.664544	1
H	2.060770	-1.013394	-0.039794	1
H	2.494840	1.494246	-0.911854	1
H	0.602990	2.772366	0.222166	1
H	-0.644300	0.822266	1.581556	1
H	-1.468050	1.111016	0.000546	1
Es	-2.088436	-2.183748	0.704016	99
Es	-1.881972	-1.409071	0.907725	99
Es	-1.286399	-1.606415	0.326542	99
Es	1.818384	-0.816029	-0.239621	99
Es	-0.524245	-1.105172	-0.216275	99
Es	0.960470	1.422030	-0.519780	99
Es	1.507076	0.295954	-0.600729	99
Es	2.212878	1.341764	-0.792161	99
Es	-0.659286	-1.644486	0.057216	99
Es	-0.509960	-1.983546	-0.061154	99
Es	0.595891	2.431347	0.173623	99
Es	-0.308527	0.151389	0.250054	99
Es	-0.603225	0.821489	1.205564	99
Es	-0.288821	-1.180627	0.280096	99
Es	0.599539	1.702223	0.061305	99
Es	1.343003	-0.437646	-0.629471	99
Es	1.591993	1.031282	-0.533427	99
Es	-2.275373	-1.370020	0.213461	99
Es	0.652828	-0.490134	-0.319790	99
Es	-1.889154	-1.600184	0.618790	99
Es	1.327595	-0.664847	-1.315670	99
Es	1.239411	1.334464	0.043864	99
Es	0.013546	1.300849	0.291158	99
Es	-1.162230	1.015527	0.165566	99
Es	-0.032357	-0.506060	-0.007596	99
Es	-0.534328	0.831437	0.494192	99
41
Properties=species:S:1:pos:R:3:Z:I:1 energy=-302.9284703082205 field_type=dipole dipole="0.000000 0.000000 0.000000" charge=0
N	-1.889220	-1.599834	0.619376	7
N	-0.659010	-1.645014	0.057016	7
C	-0.032370	-0.506104	-0.007554	6
C	1.343040	-0.437694	-0.629504	6
C	1.591900	1.031366	-0.533374	6
C	0.599650	1.702176	0.061236	6
C	-0.534380	0.831466	0.494236	6
H	-2.209250	-2.556364	0.794866	1
H	-2.572140	-1.222564	-0.044374	1
H	1.315530	-0.783934	-1.664544	1
H	2.060770	-1.013394	-0.039794	1
H	2.494840	1.494246	-0.911854	1
H	0.602990	2.772366	0.222166	1
H	-0.644300	0.822266	1.581556	1
H	-1.468050	1.111016	0.000546	1
Es	-2.089341	-2.183777	0.703626	99
Es	-0.509084	-1.983533	-0.062130	99
Es	-1.162709	1.015658	0.166595	99
Es	-0.524038	-1.105549	-0.214334	99
Es	1.239173	1.334518	0.043280	99
Es	1.818134	-0.816007	-0.240434	99
Es	2.213073	1.341904	-0.792173	99
Es	0.596054	2.431342	0.173527	99
Es	0.599535	1.702224	0.061299	99
Es	-0.534328	0.831437	0.494191	99
Es	-0.602617	0.821369	1.204458	99
Es	1.507396	0.296021	-0.600722	99
Es	1.327632	-0.664551	-1.314996	99
Es	-0.308875	0.151068	0.250188	99
Es	1.591992	1.031282	-0.533429	99
Es	-1.881987	-1.409429	0.907151	99
Es	0.960729	1.421883	-0.519185	99
Es	-0.659300	-1.644501	0.057224	99
Es	-0.289501	-1.180179	0.279130	99
Es	-1.889174	-1.600191	0.618705	99
Es	-0.032355	-0.506061	-0.007592	99
Es	-2.274636	-1.369834	0.214921	99
Es	1.342999	-0.437640	-0.629476	99
Es	0.013402	1.301055	0.291222	99
Es	0.652613	-0.490613	-0.319670	99
Es	-1.286484	-1.606127	0.326121	99
41
Properties=species:S:1:pos:R:3:Z:I:1 energy=-302.9284703082205 field_type=dipole dipole="0.000000 0.000000 0.000000" charge=0
N	-1.889220	-1.599834	0.619376	7
N	-0.659010	-1.645014	0.057016	7
C	-0.032370	-0.506104	-0.007554	6
C	1.343040	-0.437694	-0.629504	6
C	1.591900	1.031366	-0.533374	6
C	0.599650	1.702176	0.061236	6
C	-0.534380	0.831466	0.494236	6
H	-2.209250	-2.556364	0.794866	1
H	-2.572140	-1.222564	-0.044374	1
H	1.315530	-0.783934	-1.664544	1
H	2.060770	-1.013394	-0.039794	1
H	2.494840	1.494246	-0.911854	1
H	0.602990	2.772366	0.222166	1
H	-0.644300	0.822266	1.581556	1
H	-1.468050	1.111016	0.000546	1
Es	-1.882573	-1.409114	0.906328	99
Es	-1.286244	-1.605466	0.326386	99
Es	1.591993	1.031282	-0.533429	99
Es	0.652381	-0.490904	-0.319620	99
Es	-0.601958	0.821153	1.203156	99
Es	1.507803	0.295965	-0.600688	99
Es	1.238988	1.334474	0.042995	99
Es	-0.534327	0.831437	0.494193	99
Es	-0.032356	-0.506060	-0.007595	99
Es	-0.659295	-1.644505	0.057203	99
Es	-0.309144	0.150844	0.250388	99
Es	2.213205	1.341969	-0.792133	99
Es	0.599534	1.702224	0.061298	99
Es	0.960871	1.421818	-0.518801	99
Es	1.328323	-0.664939	-1.314787	99
Es	1.817353	-0.815292	-0.240706	99
Es	0.596141	2.431371	0.173373	99
Es	-2.090207	-2.183840	0.703664	99
Es	-0.290226	-1.179595	0.278142	99
Es	-0.523852	-1.106075	-0.213013	99
Es	-1.163372	1.015743	0.167612	99
Es	0.013369	1.301297	0.291308	99
Es	-1.889156	-1.600210	0.618766	99
Es	-2.273575	-1.370322	0.215466	99
Es	-0.508371	-1.983847	-0.062535	99
Es	1.342999	-0.437640	-0.629475	99
41
Properties=species:S:1:pos:R:3:Z:I:1 energy=-302.9284703082205 field_type=dipole dipole="0.000000 0.000000 0.000000" charge=0
N	-1.889220	-1.599834	0.619376	7
N	-0.659010	-1.645014	0.057016	7
C	-0.032370	-0.506104	-0.007554	6
C	1.343040	-0.437694	-0.629504	6
C	1.591900	1.031366	-0.533374	6
C	0.599650	1.702176	0.061236	6
C	-0.534380	0.831466	0.494236	6
H	-2.209250	-2.556364	0.794866	1
H	-2.572140	-1.222564	-0.044374	1
H	1.315530	-0.783934	-1.664544	1
H	2.060770	-1.013394	-0.039794	1
H	2.494840	1.494246	-0.911854	1
H	0.602990	2.772366	0.222166	1
H	-0.644300	0.822266	1.581556	1
H	-1.468050	1.111016	0.000546	1
Es	0.599534	1.702225	0.061299	99
Es	-0.659288	-1.644486	0.057217	99
Es	1.508033	0.296156	-0.600732	99
Es	-2.273088	-1.370169	0.216421	99
Es	-0.032355	-0.506060	-0.007594	99
Es	0.596390	2.431338	0.173467	99
Es	-2.090853	-2.183738	0.703247	99
Es	-1.164049	1.016010	0.168570	99
Es	-0.290827	-1.179703	0.277177	99
Es	1.591993	1.031281	-0.533429	99
Es	1.238713	1.334411	0.042626	99
Es	0.013336	1.301421	0.291597	99
Es	-0.309323	0.150508	0.250725	99
Es	1.328490	-0.664910	-1.314320	99
Es	-0.507777	-1.983844	-0.062878	99
Es	-1.286362	-1.605371	0.326089	99
Es	-1.889157	-1.600144	0.618819	99
Es	1.342998	-0.437642	-0.629477	99
Es	0.652301	-0.491312	-0.319597	99
Es	-0.534328	0.831437	0.494190	99
Es	-1.882462	-1.409418	0.906151	99
Es	2.213366	1.342014	-0.792262	99
Es	-0.523690	-1.105881	-0.211941	99
Es	-0.601311	0.820977	1.201820	99
Es	0.961078	1.421751	-0.518438	99
Es	1.816942	-0.815083	-0.241251	99
41
Properties=species:S:1:pos:R:3:Z:I:1 energy=-302.9284703082205 field_type=dipole dipole="0.000000 0.000000 0.000000" charge=0
N	-1.889220	-1.599834	0.619376	7
N	-0.659010	-1.645014	0.057016	7
C	-0.032370	-0.506104	-0.007554	6
C	1.343040	-0.437694	-0.629504	6
C	1.591900	1.031366	-0.533374	6
C	0.599650	1.702176	0.061236	6
C	-0.534380	0.831466	0.494236	6
H	-2.209250	-2.556364	0.794866	1
H	-2.572140	-1.222564	-0.044374	1
H	1.315530	-0.783934	-1.664544	1
H	2.060770	-1.013394	-0.039794	1
H	2.494840	1.494246	-0.911854	1
H	0.602990	2.772366	0.222166	1
H	-0.644300	0.822266	1.581556	1
H	-1.468050	1.111016	0.000546	1
Es	-1.889153	-1.600219	0.618744	99
Es	-2.272096	-1.370444	0.217194	99
Es	-1.164764	1.016185	0.169701	99
Es	-0.659296	-1.644487	0.057228	99
Es	-0.600551	0.820688	1.200630	99
Es	2.213436	1.342079	-0.792219	99
Es	-0.507160	-1.983810	-0.063337	99
Es	-1.882622	-1.409024	0.905606	99
Es	1.591993	1.031281	-0.533428	99
Es	1.343000	-0.437642	-0.629475	99
Es	-0.291343	-1.179502	0.276462	99
Es	0.599533	1.702225	0.061295	99
Es	0.961084	1.421661	-0.518261	99
Es	-0.534328	0.831437	0.494191	99
Es	1.816624	-0.814852	-0.241550	99
Es	0.013293	1.301595	0.291704	99
Es	1.328643	-0.664986	-1.314155	99
Es	-2.091775	-2.183727	0.703256	99
Es	-0.309576	0.150467	0.250723	99
Es	-0.523557	-1.106110	-0.210817	99
Es	1.508358	0.296102	-0.600721	99
Es	-0.032356	-0.506059	-0.007595	99
Es	-1.286409	-1.605346	0.326044	99
Es	0.652209	-0.491457	-0.319504	99
Es	0.596541	2.431309	0.173408	99
Es	1.238574	1.334405	0.042372	99
41
Properties=species:S:1:pos:R:3:Z:I:1 energy=-302.9284703082205 field_type=dipole dipole="0.000000 0.000000 0.000000" charge=0
N	-1.889220	-1.599834	0.619376	7
N	-0.659010	-1.645014	0.057016	7
C	-0.032370	-0.506104	-0.007554	6
C	1.343040	-0.437694	-0.629504	6
C	1.591900	1.031366	-0.533374	6
C	0.599650	1.702176	0.061236	6
C	-0.534380	0.831466	0.494236	6
H	-2.209250	-2.556364	0.794866	1
H	-2.572140	-1.222564	-0.044374	1
H	1.315530	-0.783934	-1.664544	1
H	2.060770	-1.013394	-0.039794	1
H	2.494840	1.494246	-0.911854	1
H	0.602990	2.772366	0.222166	1
H	-0.644300	0.822266	1.581556	1
H	-1.468050	1.111016	0.000546	1
Es	-1.881702	-1.411309	0.905128	99
Es	1.329355	-0.665604	-1.314116	99
Es	0.961165	1.421522	-0.518047	99
Es	1.815828	-0.813991	-0.241624	99
Es	-0.600014	0.820524	1.199651	99
Es	2.213500	1.342105	-0.792425	99
Es	-1.286302	-1.604976	0.326067	99
Es	-0.659279	-1.644476	0.057212	99
Es	-0.534328	0.831437	0.494191	99
Es	1.342998	-0.437640	-0.629476	99
Es	0.652106	-0.491801	-0.319521	99
Es	-0.291898	-1.178874	0.275665	99
Es	-0.309905	0.150279	0.250789	99
Es	-0.523470	-1.106563	-0.209739	99
Es	-2.272528	-1.368590	0.218853	99
Es	-1.165206	1.016440	0.170630	99
Es	-0.032355	-0.506060	-0.007593	99
Es	-2.092413	-2.183667	0.702130	99
Es	1.508457	0.296200	-0.600682	99
Es	0.599534	1.702224	0.061297	99
Es	-0.506577	-1.983905	-0.063725	99
Es	0.013357	1.301630	0.291858	99
Es	0.596541	2.431220	0.173411	99
Es	1.591993	1.031282	-0.533429	99
Es	1.238601	1.334543	0.042221	99
Es	-1.889158	-1.600179	0.618772	99
41
Properties=species:S:1:pos:R:3:Z:I:1 energy=-302.9284703082205 field_type=dipole dipole="0.000000 0.000000 0.000000" charge=0
N	-1.889220	-1.599834	0.619376	7
N	-0.659010	-1.645014	0.057016	7
C	-0.032370	-0.506104	-0.007554	6
C	1.343040	-0.437694	-0.629504	6
C	1.591900	1.031366	-0.533374	6
C	0.599650	1.702176	0.061236	6
C	-0.534380	0.831466	0.494236	6
H	-2.209250	-2.556364	0.794866	1
H	-2.572140	-1.222564	-0.044374	1
H	1.315530	-0.783934	-1.664544	1
H	2.060770	-1.013394	-0.039794	1
H	2.494840	1.494246	-0.911854	1
H	0.602990	2.772366	0.222166	1
H	-0.644300	0.822266	1.581556	1
H	-1.468050	1.111016	0.000546	1
Es	-0.523335	-1.106459	-0.208882	99
Es	-1.166126	1.016619	0.172019	99
Es	1.815664	-0.813908	-0.241884	99
Es	-0.292126	-1.179007	0.275331	99
Es	0.599534	1.702225	0.061297	99
Es	0.013303	1.301770	0.291967	99
Es	1.343000	-0.437643	-0.629481	99
Es	-0.032356	-0.506059	-0.007595	99
Es	1.508637	0.296187	-0.600628	99
Es	-1.882389	-1.409975	0.905295	99
Es	-0.534328	0.831437	0.494191	99
Es	-0.506290	-1.983829	-0.064138	99
Es	-1.889158	-1.600211	0.618772	99
Es	1.238532	1.334594	0.042059	99
Es	-2.092925	-2.183609	0.702156	99
Es	-1.286382	-1.604978	0.325976	99
Es	-2.271318	-1.369892	0.218878	99
Es	1.329397	-0.665564	-1.313901	99
Es	1.591992	1.031282	-0.533430	99
Es	0.961170	1.421506	-0.518005	99
Es	-0.310050	0.150107	0.250868	99
Es	-0.659291	-1.644490	0.057212	99
Es	2.213573	1.342058	-0.792438	99
Es	-0.599097	0.820319	1.198126	99
Es	0.652052	-0.491882	-0.319615	99
Es	0.596620	2.431171	0.173349	99
41
Properties=species:S:1:pos:R:3:Z:I:1 energy=-302.9284703082205 field_type=dipole dipole="0.000000 0.000000 0.000000" charge=0
N	-1.889220	-1.599834	0.619376	7
N	-0.659010	-1.645014	0.057016	7
C	-0.032370	-0.506104	-0.007554	6
C	1.343040	-0.437694	-0.629504	6
C	1.591900	1.031366	-0.533374	6
C	0.599650	1.702176	0.061236	6
C	-0.534380	0.831466	0.494236	6
H	-2.209250	-2.556364	0.794866	1
H	-2.572140	-1.222564	-0.044374	1
H	1.315530	-0.783934	-1.664544	1
H	2.060770	-1.013394	-0.039794	1
H	2.494840	1.494246	-0.911854	1
H	0.602990	2.772366	0.222166	1
H	-0.644300	0.822266	1.581556	1
H	-1.468050	1.111016	0.000546	1
Es	-1.889195	-1.600243	0.618592	99
Es	2.213574	1.342117	-0.792602	99
Es	-0.032356	-0.506059	-0.007595	99
Es	1.591993	1.031281	-0.533428	99
Es	-1.166712	1.016827	0.173104	99
Es	-0.659291	-1.644505	0.057221	99
Es	0.013239	1.301839	0.291952	99
Es	1.342998	-0.437639	-0.629475	99
Es	1.329414	-0.665407	-1.313618	99
Es	-0.292436	-1.178854	0.274778	99
Es	0.961292	1.421425	-0.517735	99
Es	-0.534328	0.831437	0.494191	99
Es	-0.310246	0.150053	0.250931	99
Es	0.599534	1.702224	0.061298	99
Es	-2.270117	-1.371198	0.218970	99
Es	0.596640	2.431110	0.173230	99
Es	-0.505968	-1.983835	-0.064277	99
Es	0.651922	-0.492108	-0.319693	99
Es	1.815647	-0.813903	-0.242132	99
Es	-1.883339	-1.408757	0.905297	99
Es	-1.286219	-1.604844	0.326217	99
Es	1.508730	0.296228	-0.600721	99
Es	1.238551	1.334572	0.042125	99
Es	-2.093342	-2.183497	0.702152	99
Es	-0.598456	0.820130	1.196971	99
Es	-0.523227	-1.106625	-0.208256	99
41
Properties=species:S:1:pos:R:3:Z:I:1 energy=-302.9284703082205 field_type=dipole dipole="0.000000 0.000000 0.000000" charge=0
N	-1.889220	-1.599834	0.619376	7
N	-0.659010	-1.645014	0.057016	7
C	-0.032370	-0.506104	-0.007554	6
C	1.343040	-0.437694	-0.629504	6
C	1.591900	1.031366	-0.533374	6
C	0.599650	1.702176	0.061236	6
C	-0.534380	0.831466	0.494236	6
H	-2.209250	-2.556364	0.794866	1
H	-2.572140	-1.222564	-0.044374	1
H	1.315530	-0.783934	-1.664544	1
H	2.060770	-1.013394	-0.039794	1
H	2.494840	1.494246	-0.911854	1
H	0.602990	2.772366	0.222166	1
H	-0.644300	0.822266	1.581556	1
H	-1.468050	1.111016	0.000546	1
Es	1.591992	1.031282	-0.533430	99
Es	-0.032356	-0.506059	-0.007596	99
Es	-0.597676	0.819929	1.195746	99
Es	-1.286302	-1.604706	0.325991	99
Es	1.342998	-0.437640	-0.629476	99
Es	2.213670	1.342145	-0.792604	99
Es	0.651899	-0.492225	-0.319622	99
Es	0.013269	1.301838	0.292011	99
Es	-1.167525	1.017046	0.174297	99
Es	-2.093663	-2.183514	0.702564	99
Es	-0.523175	-1.106818	-0.207490	99
Es	1.815869	-0.813970	-0.242303	99
Es	-0.659292	-1.644478	0.057215	99
Es	-1.889167	-1.600231	0.618675	99
Es	-0.310398	0.150049	0.250922	99
Es	1.238394	1.334391	0.042086	99
Es	-2.268466	-1.373530	0.218533	99
Es	-0.505354	-1.984004	-0.064507	99
Es	0.596642	2.431056	0.173083	99
Es	1.508667	0.296284	-0.600871	99
Es	-0.534328	0.831437	0.494191	99
Es	-0.293036	-1.178558	0.274268	99
Es	-1.884637	-1.406462	0.905493	99
Es	1.329331	-0.665207	-1.313250	99
Es	0.599533	1.702224	0.061296	99
Es	0.961414	1.421494	-0.517726	99
