44
Properties=species:S:1:pos:R:3:Z:I:1 energy=-307.9073629641579 field_type=dipole dipole="0.000000 0.000000 0.000000" charge=0
C	-2.466951	0.544595	0.283994	6
C	-1.593611	0.960485	-0.863546	6
C	-0.978271	0.652245	0.472804	6
O	-0.286911	-0.607465	0.569044	8
C	1.130839	-0.388795	0.683504	6
C	1.987379	-1.533975	0.217004	6
C	1.902129	-0.279325	-0.601366	6
H	-3.090071	1.296865	0.750694	1
H	-2.903311	-0.446755	0.260084	1
H	-1.623961	1.996105	-1.178886	1
H	-1.443011	0.250675	-1.668236	1
H	-0.631701	1.483435	1.079854	1
H	1.491349	0.163455	1.546094	1
H	1.488148	-2.420265	-0.156886	1
H	2.904409	-1.731245	0.757534	1
H	2.763238	0.378175	-0.618406	1
H	1.350308	-0.318205	-1.533286	1
Es	-1.489942	0.479213	-1.401788	99
Es	-2.466791	0.544649	0.283917	99
Es	2.065105	-0.979872	-0.316146	99
Es	1.987330	-1.533801	0.216977	99
Es	-0.286753	-0.607124	0.569142	99
Es	2.611056	-1.661156	0.584781	99
Es	1.130689	-0.388890	0.683345	99
Es	-2.183093	0.770413	-0.398729	99
Es	-1.750375	0.548241	0.560357	99
Es	-1.617600	1.666401	-1.073966	99
Es	-0.328961	-0.744995	0.298926	99
Es	2.489653	0.165337	-0.608531	99
Es	0.249683	-0.491258	0.608825	99
Es	-2.756120	-0.122607	0.265039	99
Es	1.367968	-0.003467	1.269967	99
Es	1.648901	-2.126015	-0.036021	99
Es	-0.978294	0.652032	0.472708	99
Es	-0.372626	-0.731409	0.835927	99
Es	-1.593641	0.960451	-0.863385	99
Es	1.526617	-0.307484	-1.225591	99
Es	1.456816	-0.143692	0.008397	99
Es	-0.729532	1.213285	0.885718	99
Es	1.902101	-0.279423	-0.601223	99
Es	-0.523072	-0.109164	0.534128	99
Es	-1.110048	0.861550	-0.276955	99
Es	1.515141	-1.065029	0.604867	99
Es	-2.885205	1.060144	0.599594	99
44
Properties=species:S:1:pos:R:3:Z:I:1 energy=-307.9073629641579 field_type=dipole dipole="0.000000 0.000000 0.000000" charge=0
C	-2.466951	0.544595	0.283994	6
C	-1.593611	0.960485	-0.863546	6
C	-0.978271	0.652245	0.472804	6
O	-0.286911	-0.607465	0.569044	8
C	1.130839	-0.388795	0.683504	6
C	1.987379	-1.533975	0.217004	6
C	1.902129	-0.279325	-0.601366	6
H	-3.090071	1.296865	0.750694	1
H	-2.903311	-0.446755	0.260084	1
H	-1.623961	1.996105	-1.178886	1
H	-1.443011	0.250675	-1.668236	1
H	-0.631701	1.483435	1.079854	1
H	1.491349	0.163455	1.546094	1
H	1.488148	-2.420265	-0.156886	1
H	2.904409	-1.731245	0.757534	1
H	2.763238	0.378175	-0.618406	1
H	1.350308	-0.318205	-1.533286	1
Es	-1.751325	0.547946	0.561410	99
Es	1.456866	-0.142995	0.008763	99
Es	0.250466	-0.491592	0.607689	99
Es	2.065403	-0.980172	-0.317905	99
Es	2.489481	0.164760	-0.608799	99
Es	-2.755389	-0.121783	0.265351	99
Es	-0.523286	-0.109201	0.532883	99
Es	-2.466793	0.544648	0.283925	99
Es	1.367735	-0.003989	1.269593	99
Es	-1.617217	1.666235	-1.074117	99
Es	-2.183662	0.769723	-0.399046	99
Es	-2.885790	1.060091	0.599857	99
Es	1.526878	-0.307371	-1.225512	99
Es	2.611303	-1.661806	0.584735	99
Es	1.514217	-1.065098	0.606018	99
Es	-1.109337	0.862328	-0.278044	99
Es	1.902101	-0.279422	-0.601222	99
Es	-0.286813	-0.607268	0.569025	99
Es	1.649468	-2.124747	-0.035282	99
Es	-0.729916	1.212406	0.885178	99
Es	-1.489531	0.479649	-1.401410	99
Es	-0.978289	0.652033	0.472709	99
Es	1.987330	-1.533799	0.216977	99
Es	-1.593648	0.960451	-0.863382	99
Es	1.130691	-0.388914	0.683360	99
Es	-0.326678	-0.739656	0.301329	99
Es	-0.375259	-0.736129	0.836197	99
44
Properties=species:S:1:pos:R:3:Z:I:1 energy=-307.9073629641579 field_type=dipole dipole="0.000000 0.000000 0.000000" charge=0
C	-2.466951	0.544595	0.283994	6
C	-1.593611	0.960485	-0.863546	6
C	-0.978271	0.652245	0.472804	6
O	-0.286911	-0.607465	0.569044	8
C	1.130839	-0.388795	0.683504	6
C	1.987379	-1.533975	0.217004	6
C	1.902129	-0.279325	-0.601366	6
H	-3.090071	1.296865	0.750694	1
H	-2.903311	-0.446755	0.260084	1
H	-1.623961	1.996105	-1.178886	1
H	-1.443011	0.250675	-1.668236	1
H	-0.631701	1.483435	1.079854	1
H	1.491349	0.163455	1.546094	1
H	1.488148	-2.420265	-0.156886	1
H	2.904409	-1.731245	0.757534	1
H	2.763238	0.378175	-0.618406	1
H	1.350308	-0.318205	-1.533286	1
Es	-1.489257	0.479993	-1.401259	99
Es	-1.751445	0.547908	0.562110	99
Es	2.611506	-1.662274	0.584714	99
Es	0.250385	-0.491263	0.604971	99
Es	-1.593636	0.960452	-0.863381	99
Es	-1.617304	1.666044	-1.074141	99
Es	1.130693	-0.388907	0.683354	99
Es	-0.524395	-0.109015	0.532464	99
Es	-2.184256	0.769027	-0.399443	99
Es	1.513457	-1.065376	0.606587	99
Es	-2.754798	-0.121156	0.265645	99
Es	-0.286735	-0.607202	0.569047	99
Es	-0.730077	1.211866	0.884697	99
Es	2.489431	0.164394	-0.608887	99
Es	-0.324486	-0.734509	0.304116	99
Es	2.065448	-0.980173	-0.318883	99
Es	1.902099	-0.279419	-0.601221	99
Es	-2.886239	1.060075	0.600044	99
Es	-0.978301	0.652030	0.472714	99
Es	1.457022	-0.142590	0.009144	99
Es	1.650021	-2.123786	-0.035078	99
Es	-0.376289	-0.741749	0.836642	99
Es	-1.108943	0.862835	-0.278538	99
Es	1.367657	-0.004527	1.269471	99
Es	1.526913	-0.307201	-1.225510	99
Es	-2.466793	0.544648	0.283918	99
Es	1.987327	-1.533797	0.216979	99
44
Properties=species:S:1:pos:R:3:Z:I:1 energy=-307.9073629641579 field_type=dipole dipole="0.000000 0.000000 0.000000" charge=0
C	-2.466951	0.544595	0.283994	6
C	-1.593611	0.960485	-0.863546	6
C	-0.978271	0.652245	0.472804	6
O	-0.286911	-0.607465	0.569044	8
C	1.130839	-0.388795	0.683504	6
C	1.987379	-1.533975	0.217004	6
C	1.902129	-0.279325	-0.601366	6
H	-3.090071	1.296865	0.750694	1
H	-2.903311	-0.446755	0.260084	1
H	-1.623961	1.996105	-1.178886	1
H	-1.443011	0.250675	-1.668236	1
H	-0.631701	1.483435	1.079854	1
H	1.491349	0.163455	1.546094	1
H	1.488148	-2.420265	-0.156886	1
H	2.904409	-1.731245	0.757534	1
H	2.763238	0.378175	-0.618406	1
H	1.350308	-0.318205	-1.533286	1
Es	-1.108606	0.863352	-0.278990	99
Es	-0.377025	-0.741485	0.836938	99
Es	-1.617254	1.665956	-1.074341	99
Es	-2.886661	1.059997	0.600201	99
Es	-2.754331	-0.120663	0.265664	99
Es	-1.489047	0.480087	-1.400987	99
Es	0.251356	-0.492313	0.603770	99
Es	1.902100	-0.279422	-0.601221	99
Es	-0.978297	0.652027	0.472717	99
Es	-0.325097	-0.733859	0.306301	99
Es	2.065453	-0.980379	-0.319555	99
Es	-1.593630	0.960450	-0.863381	99
Es	-1.751779	0.547762	0.562641	99
Es	1.527203	-0.307279	-1.225534	99
Es	-0.730279	1.211383	0.884421	99
Es	1.367584	-0.004698	1.269296	99
Es	-0.523962	-0.108888	0.531249	99
Es	-2.184483	0.768699	-0.399517	99
Es	1.650296	-2.122830	-0.034684	99
Es	-0.286751	-0.607144	0.569029	99
Es	2.489345	0.164054	-0.609001	99
Es	1.512859	-1.065314	0.607224	99
Es	2.611733	-1.662817	0.584714	99
Es	1.130695	-0.388909	0.683354	99
Es	1.987328	-1.533800	0.216975	99
Es	-2.466790	0.544647	0.283925	99
Es	1.457047	-0.142286	0.009070	99
44
Properties=species:S:1:pos:R:3:Z:I:1 energy=-307.9073629641579 field_type=dipole dipole="0.000000 0.000000 0.000000" charge=0
C	-2.466951	0.544595	0.283994	6
C	-1.593611	0.960485	-0.863546	6
C	-0.978271	0.652245	0.472804	6
O	-0.286911	-0.607465	0.569044	8
C	1.130839	-0.388795	0.683504	6
C	1.987379	-1.533975	0.217004	6
C	1.902129	-0.279325	-0.601366	6
H	-3.090071	1.296865	0.750694	1
H	-2.903311	-0.446755	0.260084	1
H	-1.623961	1.996105	-1.178886	1
H	-1.443011	0.250675	-1.668236	1
H	-0.631701	1.483435	1.079854	1
H	1.491349	0.163455	1.546094	1
H	1.488148	-2.420265	-0.156886	1
H	2.904409	-1.731245	0.757534	1
H	2.763238	0.378175	-0.618406	1
H	1.350308	-0.318205	-1.533286	1
Es	-2.466790	0.544646	0.283916	99
Es	-2.886896	1.059917	0.600390	99
Es	-1.108376	0.863645	-0.278958	99
Es	2.489180	0.163802	-0.609002	99
Es	1.457162	-0.142115	0.009341	99
Es	-0.730482	1.210861	0.884087	99
Es	2.611796	-1.663175	0.584671	99
Es	-1.593642	0.960448	-0.863376	99
Es	-0.524330	-0.108779	0.531236	99
Es	1.527198	-0.307144	-1.225629	99
Es	-0.323405	-0.731263	0.306804	99
Es	-2.184942	0.768503	-0.400184	99
Es	1.650477	-2.122298	-0.034692	99
Es	2.065676	-0.980425	-0.319912	99
Es	-1.488859	0.480249	-1.400962	99
Es	0.251508	-0.492406	0.604708	99
Es	1.367526	-0.004867	1.269151	99
Es	-0.978300	0.652028	0.472719	99
Es	1.902100	-0.279422	-0.601223	99
Es	-1.617090	1.665857	-1.074281	99
Es	1.987322	-1.533792	0.216978	99
Es	-1.751900	0.547647	0.563179	99
Es	1.512572	-1.065355	0.607556	99
Es	1.130695	-0.388914	0.683357	99
Es	-2.753973	-0.120099	0.265800	99
Es	-0.286730	-0.607085	0.569119	99
Es	-0.378490	-0.744137	0.835486	99
44
Properties=species:S:1:pos:R:3:Z:I:1 energy=-307.9073629641579 field_type=dipole dipole="0.000000 0.000000 0.000000" charge=0
C	-2.466951	0.544595	0.283994	6
C	-1.593611	0.960485	-0.863546	6
C	-0.978271	0.652245	0.472804	6
O	-0.286911	-0.607465	0.569044	8
C	1.130839	-0.388795	0.683504	6
C	1.987379	-1.533975	0.217004	6
C	1.902129	-0.279325	-0.601366	6
H	-3.090071	1.296865	0.750694	1
H	-2.903311	-0.446755	0.260084	1
H	-1.623961	1.996105	-1.178886	1
H	-1.443011	0.250675	-1.668236	1
H	-0.631701	1.483435	1.079854	1
H	1.491349	0.163455	1.546094	1
H	1.488148	-2.420265	-0.156886	1
H	2.904409	-1.731245	0.757534	1
H	2.763238	0.378175	-0.618406	1
H	1.350308	-0.318205	-1.533286	1
Es	-1.752069	0.547455	0.563441	99
Es	1.987324	-1.533793	0.216976	99
Es	2.065489	-0.980540	-0.320465	99
Es	-2.184825	0.768422	-0.400137	99
Es	1.367438	-0.005065	1.269009	99
Es	2.612013	-1.663309	0.584572	99
Es	1.650813	-2.121779	-0.034409	99
Es	-0.524199	-0.108831	0.529664	99
Es	-1.108002	0.863900	-0.279199	99
Es	-0.730581	1.210740	0.884045	99
Es	1.457182	-0.141902	0.009523	99
Es	-2.753832	-0.119867	0.265689	99
Es	-0.286771	-0.607189	0.569033	99
Es	1.130697	-0.388909	0.683352	99
Es	0.251936	-0.492896	0.601566	99
Es	1.512219	-1.065601	0.607923	99
Es	-1.617256	1.665680	-1.074369	99
Es	-2.887067	1.059863	0.600445	99
Es	-2.466797	0.544649	0.283919	99
Es	-0.377122	-0.741717	0.837755	99
Es	1.527275	-0.307073	-1.225624	99
Es	-0.325269	-0.732944	0.309353	99
Es	-1.488918	0.480367	-1.400873	99
Es	-0.978301	0.652032	0.472711	99
Es	1.902099	-0.279421	-0.601222	99
Es	2.489180	0.163610	-0.609031	99
Es	-1.593649	0.960447	-0.863369	99
44
Properties=species:S:1:pos:R:3:Z:I:1 energy=-307.9073629641579 field_type=dipole dipole="0.000000 0.000000 0.000000" charge=0
C	-2.466951	0.544595	0.283994	6
C	-1.593611	0.960485	-0.863546	6
C	-0.978271	0.652245	0.472804	6
O	-0.286911	-0.607465	0.569044	8
C	1.130839	-0.388795	0.683504	6
C	1.987379	-1.533975	0.217004	6
C	1.902129	-0.279325	-0.601366	6
H	-3.090071	1.296865	0.750694	1
H	-2.903311	-0.446755	0.260084	1
H	-1.623961	1.996105	-1.178886	1
H	-1.443011	0.250675	-1.668236	1
H	-0.631701	1.483435	1.079854	1
H	1.491349	0.163455	1.546094	1
H	1.488148	-2.420265	-0.156886	1
H	2.904409	-1.731245	0.757534	1
H	2.763238	0.378175	-0.618406	1
H	1.350308	-0.318205	-1.533286	1
Es	-2.887259	1.059847	0.600459	99
Es	1.651027	-2.121294	-0.034353	99
Es	-1.107700	0.864090	-0.279233	99
Es	-0.730697	1.210497	0.883882	99
Es	-0.978292	0.652035	0.472715	99
Es	0.252086	-0.492926	0.601731	99
Es	1.511828	-1.065590	0.607995	99
Es	-2.184988	0.768216	-0.400312	99
Es	1.987329	-1.533803	0.216979	99
Es	-0.286740	-0.607153	0.569034	99
Es	-2.753608	-0.119614	0.265778	99
Es	-1.752270	0.547450	0.563647	99
Es	1.130692	-0.388907	0.683355	99
Es	-1.488853	0.480474	-1.400808	99
Es	1.457295	-0.141850	0.009675	99
Es	-2.466791	0.544648	0.283922	99
Es	-0.524723	-0.108699	0.530128	99
Es	-1.593649	0.960450	-0.863378	99
Es	-1.617223	1.665592	-1.074389	99
Es	2.612061	-1.663581	0.584632	99
Es	2.489117	0.163429	-0.609026	99
Es	1.527231	-0.306901	-1.225642	99
Es	1.367461	-0.005217	1.269030	99
Es	1.902095	-0.279420	-0.601216	99
Es	-0.324389	-0.731178	0.309786	99
Es	2.065594	-0.980672	-0.320872	99
Es	-0.377628	-0.743596	0.836760	99
44
Properties=species:S:1:pos:R:3:Z:I:1 energy=-307.9073629641579 field_type=dipole dipole="0.000000 0.000000 0.000000" charge=0
C	-2.466951	0.544595	0.283994	6
C	-1.593611	0.960485	-0.863546	6
C	-0.978271	0.652245	0.472804	6
O	-0.286911	-0.607465	0.569044	8
C	1.130839	-0.388795	0.683504	6
C	1.987379	-1.533975	0.217004	6
C	1.902129	-0.279325	-0.601366	6
H	-3.090071	1.296865	0.750694	1
H	-2.903311	-0.446755	0.260084	1
H	-1.623961	1.996105	-1.178886	1
H	-1.443011	0.250675	-1.668236	1
H	-0.631701	1.483435	1.079854	1
H	1.491349	0.163455	1.546094	1
H	1.488148	-2.420265	-0.156886	1
H	2.904409	-1.731245	0.757534	1
H	2.763238	0.378175	-0.618406	1
H	1.350308	-0.318205	-1.533286	1
Es	-1.593647	0.960446	-0.863367	99
Es	-2.184940	0.768031	-0.400256	99
Es	-0.524395	-0.108685	0.530798	99
Es	1.130695	-0.388908	0.683353	99
Es	-0.378887	-0.745633	0.835956	99
Es	1.987331	-1.533800	0.216979	99
Es	1.651159	-2.120918	-0.034196	99
Es	-0.286747	-0.607157	0.569005	99
Es	-1.617317	1.665578	-1.074445	99
Es	-0.323274	-0.729224	0.309005	99
Es	-0.730679	1.210331	0.883533	99
Es	1.367442	-0.005315	1.268977	99
Es	1.902098	-0.279424	-0.601218	99
Es	-2.887533	1.059762	0.600554	99
Es	-2.466793	0.544650	0.283917	99
Es	1.457193	-0.141658	0.009752	99
Es	-1.752386	0.547451	0.564126	99
Es	-1.488876	0.480501	-1.400752	99
Es	0.251909	-0.492789	0.602707	99
Es	2.065687	-0.980840	-0.321016	99
Es	1.511712	-1.065618	0.607996	99
Es	-1.107637	0.864213	-0.279565	99
Es	1.527361	-0.306974	-1.225688	99
Es	2.612132	-1.663771	0.584654	99
Es	2.488993	0.163394	-0.609018	99
Es	-0.978303	0.652035	0.472706	99
Es	-2.753294	-0.119349	0.265780	99
44
Properties=species:S:1:pos:R:3:Z:I:1 energy=-307.9073629641579 field_type=dipole dipole="0.000000 0.000000 0.000000" charge=0
C	-2.466951	0.544595	0.283994	6
C	-1.593611	0.960485	-0.863546	6
C	-0.978271	0.652245	0.472804	6
O	-0.286911	-0.607465	0.569044	8
C	1.130839	-0.388795	0.683504	6
C	1.987379	-1.533975	0.217004	6
C	1.902129	-0.279325	-0.601366	6
H	-3.090071	1.296865	0.750694	1
H	-2.903311	-0.446755	0.260084	1
H	-1.623961	1.996105	-1.178886	1
H	-1.443011	0.250675	-1.668236	1
H	-0.631701	1.483435	1.079854	1
H	1.491349	0.163455	1.546094	1
H	1.488148	-2.420265	-0.156886	1
H	2.904409	-1.731245	0.757534	1
H	2.763238	0.378175	-0.618406	1
H	1.350308	-0.318205	-1.533286	1
Es	-0.323522	-0.729953	0.311606	99
Es	-1.593646	0.960450	-0.863380	99
Es	2.488965	0.163243	-0.609020	99
Es	-2.466790	0.544648	0.283921	99
Es	0.252277	-0.492937	0.601137	99
Es	-2.887559	1.059837	0.600596	99
Es	1.902100	-0.279421	-0.601222	99
Es	1.367438	-0.005388	1.268992	99
Es	1.457219	-0.141657	0.009931	99
Es	1.651331	-2.120789	-0.034156	99
Es	-0.524853	-0.108847	0.528574	99
Es	-0.378483	-0.744587	0.837102	99
Es	-0.978300	0.652032	0.472711	99
Es	-1.617270	1.665524	-1.074366	99
Es	1.987325	-1.533794	0.216981	99
Es	1.511445	-1.065552	0.608104	99
Es	1.527383	-0.306935	-1.225739	99
Es	2.065783	-0.980865	-0.321286	99
Es	-1.107575	0.864320	-0.279515	99
Es	-2.753288	-0.119098	0.265751	99
Es	-1.752310	0.547210	0.564079	99
Es	-1.488782	0.480588	-1.400785	99
Es	-0.286752	-0.607144	0.569038	99
Es	-2.185118	0.767892	-0.400387	99
Es	1.130699	-0.388913	0.683363	99
Es	-0.730824	1.210240	0.883633	99
Es	2.612117	-1.663774	0.584615	99
44
Properties=species:S:1:pos:R:3:Z:I:1 energy=-307.9073629641579 field_type=dipole dipole="0.000000 0.000000 0.000000" charge=0
C	-2.466951	0.544595	0.283994	6
C	-1.593611	0.960485	-0.863546	6
C	-0.978271	0.652245	0.472804	6
O	-0.286911	-0.607465	0.569044	8
C	1.130839	-0.388795	0.683504	6
C	1.987379	-1.533975	0.217004	6
C	1.902129	-0.279325	-0.601366	6
H	-3.090071	1.296865	0.750694	1
H	-2.903311	-0.446755	0.260084	1
H	-1.623961	1.996105	-1.178886	1
H	-1.443011	0.250675	-1.668236	1
H	-0.631701	1.483435	1.079854	1
H	1.491349	0.163455	1.546094	1
H	1.488148	-2.420265	-0.156886	1
H	2.904409	-1.731245	0.757534	1
H	2.763238	0.378175	-0.618406	1
H	1.350308	-0.318205	-1.533286	1
Es	-1.107637	0.864440	-0.279462	99
Es	1.367423	-0.005445	1.268874	99
Es	-1.488636	0.480599	-1.400734	99
Es	-1.593647	0.960449	-0.863379	99
Es	1.511296	-1.065594	0.608374	99
Es	1.987327	-1.533795	0.216978	99
Es	1.457355	-0.141619	0.009738	99
Es	-2.185112	0.767877	-0.400665	99
Es	-2.753146	-0.118964	0.265748	99
Es	2.488905	0.163181	-0.609014	99
Es	-1.752362	0.547228	0.564382	99
Es	0.252483	-0.493307	0.601326	99
Es	2.612243	-1.663976	0.584612	99
Es	-0.978306	0.652030	0.472717	99
Es	-0.730836	1.210144	0.883488	99
Es	1.902101	-0.279421	-0.601221	99
Es	-1.617352	1.665471	-1.074414	99
Es	1.651371	-2.120445	-0.033998	99
Es	1.527403	-0.306940	-1.225797	99
Es	2.065703	-0.980930	-0.321373	99
Es	-0.286713	-0.607189	0.569052	99
Es	-0.378899	-0.746432	0.835622	99
Es	-2.887665	1.059723	0.600641	99
Es	1.130693	-0.388909	0.683355	99
Es	-2.466789	0.544646	0.283918	99
Es	-0.524793	-0.108520	0.530611	99
Es	-0.323404	-0.727973	0.310900	99
44
Properties=species:S:1:pos:R:3:Z:I:1 energy=-307.9073629641579 field_type=dipole dipole="0.000000 0.000000 0.000000" charge=0
C	-2.466951	0.544595	0.283994	6
C	-1.593611	0.960485	-0.863546	6
C	-0.978271	0.652245	0.472804	6
O	-0.286911	-0.607465	0.569044	8
C	1.130839	-0.388795	0.683504	6
C	1.987379	-1.533975	0.217004	6
C	1.902129	-0.279325	-0.601366	6
H	-3.090071	1.296865	0.750694	1
H	-2.903311	-0.446755	0.260084	1
H	-1.623961	1.996105	-1.178886	1
H	-1.443011	0.250675	-1.668236	1
H	-0.631701	1.483435	1.079854	1
H	1.491349	0.163455	1.546094	1
H	1.488148	-2.420265	-0.156886	1
H	2.904409	-1.731245	0.757534	1
H	2.763238	0.378175	-0.618406	1
H	1.350308	-0.318205	-1.533286	1
Es	-2.466792	0.544648	0.283922	99
Es	1.511258	-1.065614	0.608119	99
Es	-1.488718	0.480565	-1.400806	99
Es	1.987329	-1.533800	0.216978	99
Es	-1.107572	0.864535	-0.279584	99
Es	1.651433	-2.120264	-0.034079	99
Es	-0.286792	-0.607202	0.569073	99
Es	1.130694	-0.388909	0.683355	99
Es	-0.730945	1.210001	0.883435	99
Es	1.457229	-0.141619	0.010132	99
Es	1.367455	-0.005509	1.268919	99
Es	-0.524877	-0.108502	0.531187	99
Es	1.527404	-0.306875	-1.225706	99
Es	1.902100	-0.279422	-0.601222	99
Es	-0.978294	0.652028	0.472715	99
Es	-1.752369	0.547110	0.564620	99
Es	2.612298	-1.664102	0.584680	99
Es	-0.380035	-0.749019	0.834627	99
Es	2.488847	0.163164	-0.609065	99
Es	0.252369	-0.493159	0.601892	99
Es	-2.185167	0.768010	-0.400767	99
Es	2.065829	-0.980975	-0.321551	99
Es	-1.617239	1.665383	-1.074373	99
Es	-1.593646	0.960448	-0.863376	99
Es	-0.322017	-0.725491	0.310737	99
Es	-2.753031	-0.118724	0.265718	99
Es	-2.887746	1.059622	0.600696	99
44
Properties=species:S:1:pos:R:3:Z:I:1 energy=-307.9073629641579 field_type=dipole dipole="0.000000 0.000000 0.000000" charge=0
C	-2.466951	0.544595	0.283994	6
C	-1.593611	0.960485	-0.863546	6
C	-0.978271	0.652245	0.472804	6
O	-0.286911	-0.607465	0.569044	8
C	1.130839	-0.388795	0.683504	6
C	1.987379	-1.533975	0.217004	6
C	1.902129	-0.279325	-0.601366	6
H	-3.090071	1.296865	0.750694	1
H	-2.903311	-0.446755	0.260084	1
H	-1.623961	1.996105	-1.178886	1
H	-1.443011	0.250675	-1.668236	1
H	-0.631701	1.483435	1.079854	1
H	1.491349	0.163455	1.546094	1
H	1.488148	-2.420265	-0.156886	1
H	2.904409	-1.731245	0.757534	1
H	2.763238	0.378175	-0.618406	1
H	1.350308	-0.318205	-1.533286	1
Es	1.130693	-0.388908	0.683355	99
Es	0.252408	-0.493164	0.600967	99
Es	-2.887854	1.059713	0.600665	99
Es	-1.107362	0.864607	-0.279493	99
Es	-1.488704	0.480652	-1.400680	99
Es	1.651564	-2.119992	-0.033919	99
Es	1.527330	-0.306925	-1.225734	99
Es	-0.978299	0.652031	0.472711	99
Es	-2.466792	0.544647	0.283916	99
Es	-1.593647	0.960448	-0.863378	99
Es	-0.286771	-0.607160	0.569097	99
Es	1.511060	-1.065649	0.608250	99
Es	-1.617241	1.665404	-1.074446	99
Es	-2.752918	-0.118674	0.265832	99
Es	1.987326	-1.533796	0.216978	99
Es	1.457369	-0.141430	0.010105	99
Es	-0.322649	-0.726717	0.311521	99
Es	-2.185384	0.767746	-0.400815	99
Es	-0.731031	1.209877	0.883435	99
Es	-0.524986	-0.108571	0.530351	99
Es	2.065701	-0.981024	-0.321684	99
Es	1.367431	-0.005585	1.268916	99
Es	-1.752309	0.547196	0.564486	99
Es	2.488939	0.163012	-0.609158	99
Es	1.902101	-0.279422	-0.601222	99
Es	2.612332	-1.664212	0.584650	99
Es	-0.379302	-0.747778	0.835572	99
44
Properties=species:S:1:pos:R:3:Z:I:1 energy=-307.9073629641579 field_type=dipole dipole="0.000000 0.000000 0.000000" charge=0
C	-2.466951	0.544595	0.283994	6
C	-1.593611	0.960485	-0.863546	6
C	-0.978271	0.652245	0.472804	6
O	-0.286911	-0.607465	0.569044	8
C	1.130839	-0.388795	0.683504	6
C	1.987379	-1.533975	0.217004	6
C	1.902129	-0.279325	-0.601366	6
H	-3.090071	1.296865	0.750694	1
H	-2.903311	-0.446755	0.260084	1
H	-1.623961	1.996105	-1.178886	1
H	-1.443011	0.250675	-1.668236	1
H	-0.631701	1.483435	1.079854	1
H	1.491349	0.163455	1.546094	1
H	1.488148	-2.420265	-0.156886	1
H	2.904409	-1.731245	0.757534	1
H	2.763238	0.378175	-0.618406	1
H	1.350308	-0.318205	-1.533286	1
Es	-2.752830	-0.118619	0.265726	99
Es	-1.593647	0.960450	-0.863380	99
Es	0.252571	-0.493375	0.600399	99
Es	1.130694	-0.388909	0.683355	99
Es	-2.466786	0.544648	0.283919	99
Es	-1.107382	0.864647	-0.279507	99
Es	2.065723	-0.981047	-0.321764	99
Es	-0.525116	-0.108541	0.529488	99
Es	-0.322831	-0.727037	0.312681	99
Es	1.987328	-1.533800	0.216980	99
Es	-0.978301	0.652033	0.472710	99
Es	1.651639	-2.119875	-0.033865	99
Es	2.488867	0.162955	-0.609104	99
Es	1.367456	-0.005664	1.268976	99
Es	-1.752300	0.547175	0.564570	99
Es	-2.185412	0.767855	-0.400811	99
Es	-2.887934	1.059625	0.600772	99
Es	-0.286739	-0.607067	0.569368	99
Es	-0.379199	-0.747379	0.835600	99
Es	1.527467	-0.306935	-1.225789	99
Es	-0.731015	1.209836	0.883358	99
Es	-1.617253	1.665351	-1.074350	99
Es	1.510947	-1.065619	0.608321	99
Es	2.612342	-1.664242	0.584583	99
Es	-1.488679	0.480641	-1.400795	99
Es	1.457294	-0.141357	0.010062	99
Es	1.902103	-0.279422	-0.601225	99
44
Properties=species:S:1:pos:R:3:Z:I:1 energy=-307.9073629641579 field_type=dipole dipole="0.000000 0.000000 0.000000" charge=0
C	-2.466951	0.544595	0.283994	6
C	-1.593611	0.960485	-0.863546	6
C	-0.978271	0.652245	0.472804	6
O	-0.286911	-0.607465	0.569044	8
C	1.130839	-0.388795	0.683504	6
C	1.987379	-1.533975	0.217004	6
C	1.902129	-0.279325	-0.601366	6
H	-3.090071	1.296865	0.750694	1
H	-2.903311	-0.446755	0.260084	1
H	-1.623961	1.996105	-1.178886	1
H	-1.443011	0.250675	-1.668236	1
H	-0.631701	1.483435	1.079854	1
H	1.491349	0.163455	1.546094	1
H	1.488148	-2.420265	-0.156886	1
H	2.904409	-1.731245	0.757534	1
H	2.763238	0.378175	-0.618406	1
H	1.350308	-0.318205	-1.533286	1
Es	-1.488745	0.480681	-1.400641	99
Es	1.987327	-1.533795	0.216978	99
Es	-2.466790	0.544648	0.283922	99
Es	1.457327	-0.141139	0.009899	99
Es	1.130694	-0.388912	0.683357	99
Es	-0.286722	-0.607125	0.568943	99
Es	1.510980	-1.065792	0.608516	99
Es	-2.185379	0.767663	-0.400656	99
Es	-1.593647	0.960449	-0.863378	99
Es	1.651698	-2.119741	-0.033800	99
Es	-2.752782	-0.118499	0.265729	99
Es	2.065594	-0.981084	-0.321669	99
Es	1.367397	-0.005678	1.268853	99
Es	-1.752354	0.547127	0.564683	99
Es	0.252770	-0.493634	0.599114	99
Es	-0.378194	-0.744844	0.837373	99
Es	-0.324311	-0.729104	0.313457	99
Es	-1.617361	1.665346	-1.074492	99
Es	-1.107202	0.864754	-0.279668	99
Es	1.902101	-0.279422	-0.601223	99
Es	-0.731020	1.209766	0.883246	99
Es	2.488862	0.162920	-0.609090	99
Es	-0.978299	0.652032	0.472710	99
Es	1.527489	-0.306954	-1.225829	99
Es	-2.888000	1.059671	0.600770	99
Es	2.612389	-1.664303	0.584514	99
Es	-0.524815	-0.108702	0.528660	99
44
Properties=species:S:1:pos:R:3:Z:I:1 energy=-307.9073629641579 field_type=dipole dipole="0.000000 0.000000 0.000000" charge=0
C	-2.466951	0.544595	0.283994	6
C	-1.593611	0.960485	-0.863546	6
C	-0.978271	0.652245	0.472804	6
O	-0.286911	-0.607465	0.569044	8
C	1.130839	-0.388795	0.683504	6
C	1.987379	-1.533975	0.217004	6
C	1.902129	-0.279325	-0.601366	6
H	-3.090071	1.296865	0.750694	1
H	-2.903311	-0.446755	0.260084	1
H	-1.623961	1.996105	-1.178886	1
H	-1.443011	0.250675	-1.668236	1
H	-0.631701	1.483435	1.079854	1
H	1.491349	0.163455	1.546094	1
H	1.488148	-2.420265	-0.156886	1
H	2.904409	-1.731245	0.757534	1
H	2.763238	0.378175	-0.618406	1
H	1.350308	-0.318205	-1.533286	1
Es	1.510820	-1.065640	0.608500	99
Es	-2.185520	0.767626	-0.400873	99
Es	-1.107384	0.864754	-0.279595	99
Es	-2.466792	0.544647	0.283923	99
Es	2.488809	0.162841	-0.609058	99
Es	1.651740	-2.119627	-0.033727	99
Es	1.987326	-1.533795	0.216978	99
Es	-0.322455	-0.726466	0.312661	99
Es	-0.978298	0.652038	0.472699	99
Es	-1.752333	0.547135	0.564858	99
Es	1.367409	-0.005731	1.268827	99
Es	-1.617251	1.665331	-1.074399	99
Es	-1.488570	0.480664	-1.400720	99
Es	2.065762	-0.981129	-0.322004	99
Es	-0.525269	-0.108664	0.529662	99
Es	1.130695	-0.388911	0.683354	99
Es	1.902102	-0.279420	-0.601226	99
Es	1.457328	-0.141322	0.010236	99
Es	0.252550	-0.493113	0.600507	99
Es	-0.731034	1.209718	0.883155	99
Es	-0.379372	-0.747989	0.835728	99
Es	-1.593650	0.960447	-0.863378	99
Es	-2.752813	-0.118393	0.265815	99
Es	-0.286722	-0.607097	0.569031	99
Es	-2.887948	1.059679	0.600691	99
Es	1.527463	-0.306906	-1.225901	99
Es	2.612413	-1.664349	0.584535	99
44
Properties=species:S:1:pos:R:3:Z:I:1 energy=-307.9073629641579 field_type=dipole dipole="0.000000 0.000000 0.000000" charge=0
C	-2.466951	0.544595	0.283994	6
C	-1.593611	0.960485	-0.863546	6
C	-0.978271	0.652245	0.472804	6
O	-0.286911	-0.607465	0.569044	8
C	1.130839	-0.388795	0.683504	6
C	1.987379	-1.533975	0.217004	6
C	1.902129	-0.279325	-0.601366	6
H	-3.090071	1.296865	0.750694	1
H	-2.903311	-0.446755	0.260084	1
H	-1.623961	1.996105	-1.178886	1
H	-1.443011	0.250675	-1.668236	1
H	-0.631701	1.483435	1.079854	1
H	1.491349	0.163455	1.546094	1
H	1.488148	-2.420265	-0.156886	1
H	2.904409	-1.731245	0.757534	1
H	2.763238	0.378175	-0.618406	1
H	1.350308	-0.318205	-1.533286	1
Es	-1.107034	0.864799	-0.279524	99
Es	-2.752656	-0.118347	0.265898	99
Es	1.527425	-0.306768	-1.225825	99
Es	1.651757	-2.119597	-0.033741	99
Es	2.612356	-1.664378	0.584620	99
Es	1.987326	-1.533795	0.216976	99
Es	2.488733	0.162890	-0.609045	99
Es	-2.887985	1.059553	0.600822	99
Es	1.457463	-0.141344	0.010118	99
Es	-0.376450	-0.743464	0.838171	99
Es	-0.525269	-0.108766	0.528921	99
Es	-1.488615	0.480825	-1.400462	99
Es	-0.286809	-0.607246	0.569046	99
Es	-1.752464	0.547163	0.564635	99
Es	0.252801	-0.493706	0.597040	99
Es	2.065815	-0.981101	-0.322059	99
Es	-0.325602	-0.730217	0.314392	99
Es	-1.593649	0.960450	-0.863379	99
Es	-1.617248	1.665325	-1.074569	99
Es	-2.466793	0.544648	0.283922	99
Es	1.367373	-0.005726	1.268732	99
Es	1.902101	-0.279427	-0.601219	99
Es	-2.185712	0.767580	-0.401126	99
Es	-0.731136	1.209649	0.883259	99
Es	1.130693	-0.388904	0.683355	99
Es	-0.978301	0.652032	0.472711	99
Es	1.510888	-1.065801	0.608610	99
44
Properties=species:S:1:pos:R:3:Z:I:1 energy=-307.9073629641579 field_type=dipole dipole="0.000000 0.000000 0.000000" charge=0
C	-2.466951	0.544595	0.283994	6
C	-1.593611	0.960485	-0.863546	6
C	-0.978271	0.652245	0.472804	6
O	-0.286911	-0.607465	0.569044	8
C	1.130839	-0.388795	0.683504	6
C	1.987379	-1.533975	0.217004	6
C	1.902129	-0.279325	-0.601366	6
H	-3.090071	1.296865	0.750694	1
H	-2.903311	-0.446755	0.260084	1
H	-1.623961	1.996105	-1.178886	1
H	-1.443011	0.250675	-1.668236	1
H	-0.631701	1.483435	1.079854	1
H	1.491349	0.163455	1.546094	1
H	1.488148	-2.420265	-0.156886	1
H	2.904409	-1.731245	0.757534	1
H	2.763238	0.378175	-0.618406	1
H	1.350308	-0.318205	-1.533286	1
Es	2.488736	0.162833	-0.609012	99
Es	1.987326	-1.533796	0.216980	99
Es	1.527565	-0.306811	-1.225861	99
Es	-0.286793	-0.607173	0.569035	99
Es	1.651893	-2.119411	-0.033738	99
Es	-2.752626	-0.118253	0.265740	99
Es	-0.731235	1.209580	0.883300	99
Es	-2.185559	0.767526	-0.400805	99
Es	-1.617362	1.665277	-1.074519	99
Es	1.130692	-0.388907	0.683355	99
Es	-2.888139	1.059606	0.600759	99
Es	-1.488634	0.480720	-1.400591	99
Es	-2.466787	0.544649	0.283921	99
Es	-1.106959	0.864997	-0.279696	99
Es	1.902099	-0.279421	-0.601223	99
Es	-1.593647	0.960449	-0.863379	99
Es	-0.323350	-0.727558	0.313760	99
Es	-0.378910	-0.746303	0.836656	99
Es	1.510648	-1.065753	0.608794	99
Es	1.457318	-0.141450	0.010125	99
Es	-0.978300	0.652031	0.472713	99
Es	2.612408	-1.664445	0.584537	99
Es	-1.752356	0.547051	0.564720	99
Es	0.252858	-0.493626	0.599472	99
Es	2.065829	-0.981186	-0.322172	99
Es	1.367369	-0.005622	1.268709	99
Es	-0.525077	-0.108677	0.528697	99
44
Properties=species:S:1:pos:R:3:Z:I:1 energy=-307.9073629641579 field_type=dipole dipole="0.000000 0.000000 0.000000" charge=0
C	-2.466951	0.544595	0.283994	6
C	-1.593611	0.960485	-0.863546	6
C	-0.978271	0.652245	0.472804	6
O	-0.286911	-0.607465	0.569044	8
C	1.130839	-0.388795	0.683504	6
C	1.987379	-1.533975	0.217004	6
C	1.902129	-0.279325	-0.601366	6
H	-3.090071	1.296865	0.750694	1
H	-2.903311	-0.446755	0.260084	1
H	-1.623961	1.996105	-1.178886	1
H	-1.443011	0.250675	-1.668236	1
H	-0.631701	1.483435	1.079854	1
H	1.491349	0.163455	1.546094	1
H	1.488148	-2.420265	-0.156886	1
H	2.904409	-1.731245	0.757534	1
H	2.763238	0.378175	-0.618406	1
H	1.350308	-0.318205	-1.533286	1
Es	-0.322968	-0.725572	0.313593	99
Es	1.902100	-0.279421	-0.601222	99
Es	-1.617291	1.665263	-1.074398	99
Es	1.527483	-0.306804	-1.225941	99
Es	0.253022	-0.494311	0.599681	99
Es	-0.380217	-0.747981	0.835811	99
Es	-0.731173	1.209587	0.883194	99
Es	2.065847	-0.981174	-0.322223	99
Es	1.457372	-0.141355	0.010305	99
Es	-1.107139	0.864886	-0.279518	99
Es	1.651920	-2.119304	-0.033677	99
Es	-1.488589	0.480723	-1.400712	99
Es	2.612445	-1.664493	0.584558	99
Es	1.367410	-0.005702	1.268803	99
Es	1.987327	-1.533795	0.216978	99
Es	-1.593649	0.960448	-0.863376	99
Es	2.488675	0.162738	-0.609029	99
Es	-0.524318	-0.108315	0.529366	99
Es	-2.888154	1.059583	0.600830	99
Es	-1.752299	0.547048	0.564785	99
Es	-0.978300	0.652032	0.472712	99
Es	-2.466791	0.544648	0.283921	99
Es	-2.185666	0.767607	-0.400991	99
Es	-0.286777	-0.607134	0.569145	99
Es	1.510625	-1.065765	0.608596	99
Es	-2.752583	-0.118200	0.265734	99
Es	1.130693	-0.388907	0.683355	99
44
Properties=species:S:1:pos:R:3:Z:I:1 energy=-307.9073629641579 field_type=dipole dipole="0.000000 0.000000 0.000000" charge=0
C	-2.466951	0.544595	0.283994	6
C	-1.593611	0.960485	-0.863546	6
C	-0.978271	0.652245	0.472804	6
O	-0.286911	-0.607465	0.569044	8
C	1.130839	-0.388795	0.683504	6
C	1.987379	-1.533975	0.217004	6
C	1.902129	-0.279325	-0.601366	6
H	-3.090071	1.296865	0.750694	1
H	-2.903311	-0.446755	0.260084	1
H	-1.623961	1.996105	-1.178886	1
H	-1.443011	0.250675	-1.668236	1
H	-0.631701	1.483435	1.079854	1
H	1.491349	0.163455	1.546094	1
H	1.488148	-2.420265	-0.156886	1
H	2.904409	-1.731245	0.757534	1
H	2.763238	0.378175	-0.618406	1
H	1.350308	-0.318205	-1.533286	1
Es	2.488646	0.162909	-0.609024	99
Es	-0.323525	-0.728077	0.313973	99
Es	-1.593647	0.960448	-0.863373	99
Es	1.527644	-0.306932	-1.225869	99
Es	1.457262	-0.141338	0.010113	99
Es	1.367391	-0.005753	1.268766	99
Es	-0.378776	-0.745754	0.836701	99
Es	1.651862	-2.119208	-0.033543	99
Es	1.130696	-0.388910	0.683355	99
Es	-0.525038	-0.108497	0.528363	99
Es	2.612450	-1.664569	0.584585	99
Es	2.065910	-0.981325	-0.322242	99
Es	-1.617317	1.665317	-1.074487	99
Es	-0.286792	-0.607156	0.569107	99
Es	-2.752515	-0.118110	0.265742	99
Es	-2.888243	1.059608	0.600806	99
Es	-2.466793	0.544648	0.283921	99
Es	-1.752501	0.547052	0.565138	99
Es	1.510646	-1.065617	0.608627	99
Es	-0.731118	1.209477	0.882983	99
Es	0.252804	-0.493828	0.599453	99
Es	-1.107084	0.864930	-0.279784	99
Es	-0.978301	0.652032	0.472712	99
Es	-1.488609	0.480737	-1.400602	99
Es	1.902105	-0.279421	-0.601230	99
Es	1.987328	-1.533796	0.216978	99
Es	-2.185478	0.767463	-0.400890	99
