47
Properties=species:S:1:pos:R:3:Z:I:1 energy=-309.13021841002376 field_type=dipole dipole="0.000000 0.000000 0.000000" charge=0
C	-2.153448	-0.797258	-0.207579	6
C	-0.676588	-0.866988	-0.399729	6
C	-0.066319	-0.575158	-1.745739	6
C	0.112151	0.403582	-0.609869	6
C	1.469671	0.582562	0.012501	6
C	1.381092	1.121192	1.438791	6
O	0.957672	0.105102	2.341460	8
H	-2.383698	-0.496818	0.819300	1
H	-2.603418	-1.778488	-0.385439	1
H	-2.623418	-0.078228	-0.886419	1
H	-0.231918	-1.664748	0.185451	1
H	-0.719708	-0.290878	-2.562989	1
H	0.781771	-1.176758	-2.054719	1
H	-0.426348	1.343142	-0.686189	1
H	2.029422	1.296332	-0.602359	1
H	2.020152	-0.365278	0.008051	1
H	0.688532	1.965872	1.514991	1
H	2.368562	1.456712	1.770161	1
H	0.075841	-0.183898	2.050331	1
Es	1.469630	0.582578	0.012505	99
Es	0.900234	1.707712	1.476917	99
Es	0.514469	-0.979523	-1.950334	99
Es	-1.416249	-0.821437	-0.314924	99
Es	-0.266181	1.039146	-0.658210	99
Es	-0.364346	-1.402813	0.000515	99
Es	1.850965	1.075745	-0.405381	99
Es	0.957546	0.105123	2.341014	99
Es	-0.312529	-0.177383	-0.309413	99
Es	0.784871	0.477202	-0.295498	99
Es	-0.066348	-0.575113	-1.745576	99
Es	1.841558	-0.064158	0.011745	99
Es	2.058755	1.352026	1.663358	99
Es	-2.153432	-0.797256	-0.207574	99
Es	0.112110	0.403427	-0.609933	99
Es	1.417479	0.853056	0.717077	99
Es	0.918161	0.240467	2.614149	99
Es	-0.676525	-0.866879	-0.399836	99
Es	-0.516472	-0.381850	-2.295921	99
Es	1.381011	1.121005	1.438906	99
Es	1.095231	0.486874	1.986651	99
Es	-2.458323	-1.465929	-0.328684	99
Es	0.483817	-0.036804	2.169016	99
Es	-2.467751	-0.303823	-0.671507	99
Es	-0.441396	-0.882096	-1.147561	99
Es	0.123158	0.020263	-1.295043	99
Es	-2.306436	-0.591864	0.496762	99
Es	1.147108	-0.133902	2.298668	99
47
Properties=species:S:1:pos:R:3:Z:I:1 energy=-309.13021841002376 field_type=dipole dipole="0.000000 0.000000 0.000000" charge=0
C	-2.153448	-0.797258	-0.207579	6
C	-0.676588	-0.866988	-0.399729	6
C	-0.066319	-0.575158	-1.745739	6
C	0.112151	0.403582	-0.609869	6
C	1.469671	0.582562	0.012501	6
C	1.381092	1.121192	1.438791	6
O	0.957672	0.105102	2.341460	8
H	-2.383698	-0.496818	0.819300	1
H	-2.603418	-1.778488	-0.385439	1
H	-2.623418	-0.078228	-0.886419	1
H	-0.231918	-1.664748	0.185451	1
H	-0.719708	-0.290878	-2.562989	1
H	0.781771	-1.176758	-2.054719	1
H	-0.426348	1.343142	-0.686189	1
H	2.029422	1.296332	-0.602359	1
H	2.020152	-0.365278	0.008051	1
H	0.688532	1.965872	1.514991	1
H	2.368562	1.456712	1.770161	1
H	0.075841	-0.183898	2.050331	1
Es	1.469633	0.582577	0.012504	99
Es	0.785012	0.477019	-0.295419	99
Es	0.112109	0.403422	-0.609935	99
Es	1.840430	-0.063668	0.011986	99
Es	0.923569	0.234666	2.621445	99
Es	1.851746	1.076276	-0.406549	99
Es	0.957513	0.105203	2.341205	99
Es	-2.466669	-0.304151	-0.670770	99
Es	-0.442873	-0.884987	-1.147614	99
Es	-0.265516	1.038837	-0.658426	99
Es	1.140730	-0.127860	2.291370	99
Es	-2.306019	-0.590956	0.496868	99
Es	-2.458952	-1.467210	-0.329312	99
Es	-2.153431	-0.797256	-0.207575	99
Es	1.381016	1.121009	1.438905	99
Es	-0.515398	-0.382331	-2.295384	99
Es	0.513285	-0.978842	-1.950566	99
Es	-0.676520	-0.866873	-0.399841	99
Es	-0.066347	-0.575110	-1.745575	99
Es	1.095933	0.488527	1.986765	99
Es	-1.416416	-0.821248	-0.315246	99
Es	-0.365075	-1.402528	0.000132	99
Es	-0.312648	-0.176975	-0.308303	99
Es	1.417061	0.852818	0.716880	99
Es	0.900804	1.707104	1.477021	99
Es	0.483892	-0.038902	2.168939	99
Es	0.124779	0.022682	-1.295205	99
Es	2.058469	1.352550	1.663584	99
47
Properties=species:S:1:pos:R:3:Z:I:1 energy=-309.13021841002376 field_type=dipole dipole="0.000000 0.000000 0.000000" charge=0
C	-2.153448	-0.797258	-0.207579	6
C	-0.676588	-0.866988	-0.399729	6
C	-0.066319	-0.575158	-1.745739	6
C	0.112151	0.403582	-0.609869	6
C	1.469671	0.582562	0.012501	6
C	1.381092	1.121192	1.438791	6
O	0.957672	0.105102	2.341460	8
H	-2.383698	-0.496818	0.819300	1
H	-2.603418	-1.778488	-0.385439	1
H	-2.623418	-0.078228	-0.886419	1
H	-0.231918	-1.664748	0.185451	1
H	-0.719708	-0.290878	-2.562989	1
H	0.781771	-1.176758	-2.054719	1
H	-0.426348	1.343142	-0.686189	1
H	2.029422	1.296332	-0.602359	1
H	2.020152	-0.365278	0.008051	1
H	0.688532	1.965872	1.514991	1
H	2.368562	1.456712	1.770161	1
H	0.075841	-0.183898	2.050331	1
Es	0.125638	0.024430	-1.295636	99
Es	1.097001	0.489549	1.986208	99
Es	-0.444030	-0.886382	-1.147494	99
Es	1.137769	-0.123373	2.290903	99
Es	1.416711	0.852731	0.716829	99
Es	0.901206	1.706769	1.477100	99
Es	-0.265142	1.038595	-0.658377	99
Es	0.924699	0.232106	2.623218	99
Es	-0.365417	-1.402573	-0.000388	99
Es	-1.416562	-0.821199	-0.315232	99
Es	-2.153429	-0.797255	-0.207574	99
Es	0.484490	-0.041947	2.168315	99
Es	-0.312607	-0.176737	-0.307573	99
Es	1.469632	0.582579	0.012506	99
Es	-0.066346	-0.575110	-1.745571	99
Es	2.058310	1.352791	1.663734	99
Es	1.381012	1.121013	1.438902	99
Es	-0.676524	-0.866877	-0.399835	99
Es	-2.305819	-0.590439	0.496882	99
Es	0.512542	-0.978469	-1.950595	99
Es	-0.514602	-0.382860	-2.294934	99
Es	1.852134	1.076562	-0.407136	99
Es	0.957477	0.105216	2.341166	99
Es	1.839788	-0.063462	0.012035	99
Es	0.785285	0.477011	-0.295525	99
Es	-2.465886	-0.304305	-0.670299	99
Es	-2.459324	-1.467997	-0.329815	99
Es	0.112112	0.403429	-0.609927	99
47
Properties=species:S:1:pos:R:3:Z:I:1 energy=-309.13021841002376 field_type=dipole dipole="0.000000 0.000000 0.000000" charge=0
C	-2.153448	-0.797258	-0.207579	6
C	-0.676588	-0.866988	-0.399729	6
C	-0.066319	-0.575158	-1.745739	6
C	0.112151	0.403582	-0.609869	6
C	1.469671	0.582562	0.012501	6
C	1.381092	1.121192	1.438791	6
O	0.957672	0.105102	2.341460	8
H	-2.383698	-0.496818	0.819300	1
H	-2.603418	-1.778488	-0.385439	1
H	-2.623418	-0.078228	-0.886419	1
H	-0.231918	-1.664748	0.185451	1
H	-0.719708	-0.290878	-2.562989	1
H	0.781771	-1.176758	-2.054719	1
H	-0.426348	1.343142	-0.686189	1
H	2.029422	1.296332	-0.602359	1
H	2.020152	-0.365278	0.008051	1
H	0.688532	1.965872	1.514991	1
H	2.368562	1.456712	1.770161	1
H	0.075841	-0.183898	2.050331	1
Es	-2.305587	-0.589857	0.496825	99
Es	-0.312608	-0.176541	-0.307046	99
Es	0.957441	0.105268	2.341205	99
Es	1.416589	0.852559	0.716767	99
Es	1.097781	0.490314	1.986323	99
Es	-0.066349	-0.575109	-1.745567	99
Es	-2.459613	-1.468653	-0.330018	99
Es	0.512053	-0.978241	-1.950835	99
Es	1.469632	0.582580	0.012504	99
Es	-0.264832	1.038715	-0.658399	99
Es	-2.153431	-0.797256	-0.207575	99
Es	-2.465335	-0.304588	-0.669962	99
Es	0.485445	-0.044398	2.167070	99
Es	0.785249	0.476825	-0.295422	99
Es	-0.676527	-0.866874	-0.399830	99
Es	1.134784	-0.119127	2.289285	99
Es	1.381013	1.121009	1.438905	99
Es	0.126364	0.025579	-1.295758	99
Es	1.839395	-0.063406	0.012046	99
Es	-0.513990	-0.383135	-2.294322	99
Es	0.901403	1.706611	1.477087	99
Es	0.925894	0.229434	2.626048	99
Es	2.058144	1.352944	1.663762	99
Es	-0.444747	-0.887526	-1.147601	99
Es	-0.365755	-1.402515	-0.000677	99
Es	-1.416723	-0.821110	-0.315437	99
Es	0.112111	0.403428	-0.609931	99
Es	1.852315	1.076864	-0.407559	99
47
Properties=species:S:1:pos:R:3:Z:I:1 energy=-309.13021841002376 field_type=dipole dipole="0.000000 0.000000 0.000000" charge=0
C	-2.153448	-0.797258	-0.207579	6
C	-0.676588	-0.866988	-0.399729	6
C	-0.066319	-0.575158	-1.745739	6
C	0.112151	0.403582	-0.609869	6
C	1.469671	0.582562	0.012501	6
C	1.381092	1.121192	1.438791	6
O	0.957672	0.105102	2.341460	8
H	-2.383698	-0.496818	0.819300	1
H	-2.603418	-1.778488	-0.385439	1
H	-2.623418	-0.078228	-0.886419	1
H	-0.231918	-1.664748	0.185451	1
H	-0.719708	-0.290878	-2.562989	1
H	0.781771	-1.176758	-2.054719	1
H	-0.426348	1.343142	-0.686189	1
H	2.029422	1.296332	-0.602359	1
H	2.020152	-0.365278	0.008051	1
H	0.688532	1.965872	1.514991	1
H	2.368562	1.456712	1.770161	1
H	0.075841	-0.183898	2.050331	1
Es	-0.264558	1.038648	-0.658431	99
Es	0.112114	0.403428	-0.609932	99
Es	1.097503	0.491140	1.986520	99
Es	0.511634	-0.978027	-1.950987	99
Es	-0.312685	-0.176425	-0.306531	99
Es	-0.365944	-1.402451	-0.000905	99
Es	-2.459796	-1.468998	-0.330322	99
Es	1.839156	-0.063359	0.012120	99
Es	-2.305509	-0.589484	0.496919	99
Es	0.785321	0.476747	-0.295417	99
Es	0.486476	-0.046437	2.166240	99
Es	-2.153430	-0.797255	-0.207575	99
Es	-0.676525	-0.866877	-0.399834	99
Es	2.057962	1.353274	1.663968	99
Es	1.416524	0.852511	0.716581	99
Es	-0.066347	-0.575109	-1.745566	99
Es	1.469634	0.582575	0.012504	99
Es	1.381014	1.121009	1.438905	99
Es	-1.416823	-0.821057	-0.315647	99
Es	-0.445192	-0.888267	-1.147482	99
Es	0.901533	1.706255	1.477043	99
Es	0.957507	0.105176	2.341091	99
Es	1.134900	-0.117362	2.290049	99
Es	0.924889	0.228932	2.626073	99
Es	1.852411	1.077080	-0.407899	99
Es	-0.513606	-0.383505	-2.293830	99
Es	0.126879	0.026522	-1.296159	99
Es	-2.464924	-0.304889	-0.669607	99
47
Properties=species:S:1:pos:R:3:Z:I:1 energy=-309.13021841002376 field_type=dipole dipole="0.000000 0.000000 0.000000" charge=0
C	-2.153448	-0.797258	-0.207579	6
C	-0.676588	-0.866988	-0.399729	6
C	-0.066319	-0.575158	-1.745739	6
C	0.112151	0.403582	-0.609869	6
C	1.469671	0.582562	0.012501	6
C	1.381092	1.121192	1.438791	6
O	0.957672	0.105102	2.341460	8
H	-2.383698	-0.496818	0.819300	1
H	-2.603418	-1.778488	-0.385439	1
H	-2.623418	-0.078228	-0.886419	1
H	-0.231918	-1.664748	0.185451	1
H	-0.719708	-0.290878	-2.562989	1
H	0.781771	-1.176758	-2.054719	1
H	-0.426348	1.343142	-0.686189	1
H	2.029422	1.296332	-0.602359	1
H	2.020152	-0.365278	0.008051	1
H	0.688532	1.965872	1.514991	1
H	2.368562	1.456712	1.770161	1
H	0.075841	-0.183898	2.050331	1
Es	0.785449	0.476767	-0.295470	99
Es	0.127348	0.027121	-1.296206	99
Es	1.416249	0.852521	0.716553	99
Es	2.057899	1.353292	1.663966	99
Es	0.957527	0.105215	2.341256	99
Es	1.098048	0.490498	1.985689	99
Es	1.135436	-0.116584	2.292730	99
Es	-2.153430	-0.797255	-0.207573	99
Es	-2.305393	-0.589220	0.496798	99
Es	-1.416929	-0.820969	-0.315563	99
Es	1.469633	0.582579	0.012503	99
Es	-0.312590	-0.176322	-0.306333	99
Es	0.922426	0.230634	2.625080	99
Es	0.901784	1.706161	1.477143	99
Es	1.838817	-0.063292	0.012169	99
Es	-0.066346	-0.575110	-1.745564	99
Es	0.511228	-0.977850	-1.950932	99
Es	0.487739	-0.048338	2.165265	99
Es	-2.464603	-0.304976	-0.669423	99
Es	1.852615	1.077155	-0.408172	99
Es	-0.513144	-0.383644	-2.293623	99
Es	1.381014	1.121010	1.438904	99
Es	-0.264455	1.038629	-0.658482	99
Es	-2.459936	-1.469389	-0.330449	99
Es	-0.366128	-1.402284	-0.001014	99
Es	-0.676526	-0.866875	-0.399830	99
Es	0.112111	0.403430	-0.609929	99
Es	-0.445724	-0.889109	-1.147604	99
47
Properties=species:S:1:pos:R:3:Z:I:1 energy=-309.13021841002376 field_type=dipole dipole="0.000000 0.000000 0.000000" charge=0
C	-2.153448	-0.797258	-0.207579	6
C	-0.676588	-0.866988	-0.399729	6
C	-0.066319	-0.575158	-1.745739	6
C	0.112151	0.403582	-0.609869	6
C	1.469671	0.582562	0.012501	6
C	1.381092	1.121192	1.438791	6
O	0.957672	0.105102	2.341460	8
H	-2.383698	-0.496818	0.819300	1
H	-2.603418	-1.778488	-0.385439	1
H	-2.623418	-0.078228	-0.886419	1
H	-0.231918	-1.664748	0.185451	1
H	-0.719708	-0.290878	-2.562989	1
H	0.781771	-1.176758	-2.054719	1
H	-0.426348	1.343142	-0.686189	1
H	2.029422	1.296332	-0.602359	1
H	2.020152	-0.365278	0.008051	1
H	0.688532	1.965872	1.514991	1
H	2.368562	1.456712	1.770161	1
H	0.075841	-0.183898	2.050331	1
Es	0.511143	-0.977739	-1.951124	99
Es	-0.066353	-0.575117	-1.745569	99
Es	1.133304	-0.114437	2.291698	99
Es	1.381013	1.121009	1.438905	99
Es	-2.153431	-0.797256	-0.207575	99
Es	-0.446030	-0.889484	-1.147888	99
Es	-0.512911	-0.383764	-2.293230	99
Es	-2.305338	-0.588957	0.496839	99
Es	-0.676525	-0.866878	-0.399834	99
Es	0.785453	0.476781	-0.295512	99
Es	2.057771	1.353273	1.663936	99
Es	-2.460108	-1.469568	-0.330632	99
Es	1.469633	0.582578	0.012503	99
Es	1.416145	0.852459	0.716495	99
Es	0.901835	1.706192	1.477211	99
Es	0.112111	0.403427	-0.609930	99
Es	0.924393	0.228322	2.625591	99
Es	-0.312568	-0.176232	-0.305804	99
Es	1.099090	0.491240	1.986128	99
Es	1.838689	-0.063378	0.012133	99
Es	0.486993	-0.049038	2.165423	99
Es	1.852610	1.077301	-0.408311	99
Es	-1.416790	-0.820896	-0.315719	99
Es	0.127514	0.027545	-1.296212	99
Es	-0.366339	-1.402422	-0.001172	99
Es	-0.264318	1.038691	-0.658488	99
Es	-2.464300	-0.305171	-0.669202	99
Es	0.957431	0.105315	2.341225	99
47
Properties=species:S:1:pos:R:3:Z:I:1 energy=-309.13021841002376 field_type=dipole dipole="0.000000 0.000000 0.000000" charge=0
C	-2.153448	-0.797258	-0.207579	6
C	-0.676588	-0.866988	-0.399729	6
C	-0.066319	-0.575158	-1.745739	6
C	0.112151	0.403582	-0.609869	6
C	1.469671	0.582562	0.012501	6
C	1.381092	1.121192	1.438791	6
O	0.957672	0.105102	2.341460	8
H	-2.383698	-0.496818	0.819300	1
H	-2.603418	-1.778488	-0.385439	1
H	-2.623418	-0.078228	-0.886419	1
H	-0.231918	-1.664748	0.185451	1
H	-0.719708	-0.290878	-2.562989	1
H	0.781771	-1.176758	-2.054719	1
H	-0.426348	1.343142	-0.686189	1
H	2.029422	1.296332	-0.602359	1
H	2.020152	-0.365278	0.008051	1
H	0.688532	1.965872	1.514991	1
H	2.368562	1.456712	1.770161	1
H	0.075841	-0.183898	2.050331	1
Es	1.416180	0.852385	0.716469	99
Es	1.838461	-0.063421	0.012109	99
Es	0.127743	0.028078	-1.296349	99
Es	-0.366327	-1.402293	-0.001337	99
Es	-2.460121	-1.469666	-0.330668	99
Es	-2.305299	-0.588905	0.496823	99
Es	0.957511	0.105219	2.341236	99
Es	2.057652	1.353354	1.664012	99
Es	-0.446464	-0.889975	-1.147651	99
Es	0.785489	0.476795	-0.295502	99
Es	0.923782	0.227114	2.627253	99
Es	-1.416932	-0.821005	-0.315714	99
Es	-0.512589	-0.383840	-2.292839	99
Es	-2.464247	-0.305204	-0.669133	99
Es	1.097853	0.492470	1.987004	99
Es	-0.676515	-0.866865	-0.399835	99
Es	1.381014	1.121009	1.438904	99
Es	0.511046	-0.977660	-1.951292	99
Es	1.133227	-0.111651	2.290747	99
Es	1.852721	1.077353	-0.408455	99
Es	0.901928	1.706099	1.477173	99
Es	0.488758	-0.051742	2.163868	99
Es	0.112112	0.403429	-0.609931	99
Es	-0.066347	-0.575109	-1.745565	99
Es	-0.312508	-0.176236	-0.305928	99
Es	1.469633	0.582580	0.012502	99
Es	-0.264214	1.038741	-0.658441	99
Es	-2.153430	-0.797256	-0.207574	99
47
Properties=species:S:1:pos:R:3:Z:I:1 energy=-309.13021841002376 field_type=dipole dipole="0.000000 0.000000 0.000000" charge=0
C	-2.153448	-0.797258	-0.207579	6
C	-0.676588	-0.866988	-0.399729	6
C	-0.066319	-0.575158	-1.745739	6
C	0.112151	0.403582	-0.609869	6
C	1.469671	0.582562	0.012501	6
C	1.381092	1.121192	1.438791	6
O	0.957672	0.105102	2.341460	8
H	-2.383698	-0.496818	0.819300	1
H	-2.603418	-1.778488	-0.385439	1
H	-2.623418	-0.078228	-0.886419	1
H	-0.231918	-1.664748	0.185451	1
H	-0.719708	-0.290878	-2.562989	1
H	0.781771	-1.176758	-2.054719	1
H	-0.426348	1.343142	-0.686189	1
H	2.029422	1.296332	-0.602359	1
H	2.020152	-0.365278	0.008051	1
H	0.688532	1.965872	1.514991	1
H	2.368562	1.456712	1.770161	1
H	0.075841	-0.183898	2.050331	1
Es	1.416072	0.852474	0.716473	99
Es	1.134372	-0.110514	2.295627	99
Es	1.852677	1.077393	-0.408617	99
Es	0.127933	0.028247	-1.296470	99
Es	2.057620	1.353406	1.664058	99
Es	-0.512354	-0.383926	-2.292679	99
Es	-2.153431	-0.797256	-0.207574	99
Es	-1.416811	-0.820809	-0.315825	99
Es	0.902010	1.706014	1.477196	99
Es	-0.676526	-0.866880	-0.399839	99
Es	0.921115	0.230155	2.624361	99
Es	-0.446752	-0.890233	-1.147840	99
Es	-0.366475	-1.402356	-0.001334	99
Es	0.785529	0.476676	-0.295563	99
Es	-0.066345	-0.575110	-1.745565	99
Es	1.469633	0.582579	0.012503	99
Es	0.489522	-0.054703	2.163455	99
Es	0.510832	-0.977620	-1.951284	99
Es	0.112110	0.403427	-0.609927	99
Es	-0.312504	-0.176091	-0.305588	99
Es	1.098615	0.491222	1.985457	99
Es	1.381013	1.121009	1.438905	99
Es	-2.464104	-0.305387	-0.668971	99
Es	-2.305260	-0.588720	0.496846	99
Es	-2.460171	-1.469821	-0.330764	99
Es	0.957463	0.105212	2.341196	99
Es	1.838412	-0.063392	0.012124	99
Es	-0.264078	1.038797	-0.658474	99
47
Properties=species:S:1:pos:R:3:Z:I:1 energy=-309.13021841002376 field_type=dipole dipole="0.000000 0.000000 0.000000" charge=0
C	-2.153448	-0.797258	-0.207579	6
C	-0.676588	-0.866988	-0.399729	6
C	-0.066319	-0.575158	-1.745739	6
C	0.112151	0.403582	-0.609869	6
C	1.469671	0.582562	0.012501	6
C	1.381092	1.121192	1.438791	6
O	0.957672	0.105102	2.341460	8
H	-2.383698	-0.496818	0.819300	1
H	-2.603418	-1.778488	-0.385439	1
H	-2.623418	-0.078228	-0.886419	1
H	-0.231918	-1.664748	0.185451	1
H	-0.719708	-0.290878	-2.562989	1
H	0.781771	-1.176758	-2.054719	1
H	-0.426348	1.343142	-0.686189	1
H	2.029422	1.296332	-0.602359	1
H	2.020152	-0.365278	0.008051	1
H	0.688532	1.965872	1.514991	1
H	2.368562	1.456712	1.770161	1
H	0.075841	-0.183898	2.050331	1
Es	-2.460303	-1.470005	-0.330835	99
Es	-0.366503	-1.402309	-0.001463	99
Es	-0.446897	-0.890656	-1.147710	99
Es	0.510641	-0.977479	-1.951415	99
Es	1.098005	0.492452	1.986639	99
Es	0.924397	0.226603	2.627568	99
Es	0.957507	0.105164	2.341238	99
Es	0.112112	0.403429	-0.609931	99
Es	-2.463948	-0.305474	-0.668785	99
Es	1.415959	0.852363	0.716440	99
Es	-0.312413	-0.176102	-0.305666	99
Es	0.128142	0.028828	-1.296541	99
Es	-0.066344	-0.575113	-1.745575	99
Es	1.469632	0.582578	0.012503	99
Es	1.132247	-0.110618	2.290563	99
Es	2.057592	1.353365	1.664041	99
Es	-2.305103	-0.588557	0.496820	99
Es	0.488846	-0.052271	2.164090	99
Es	1.852743	1.077597	-0.408716	99
Es	1.838310	-0.063316	0.012131	99
Es	0.902115	1.706030	1.477224	99
Es	-0.264070	1.038810	-0.658468	99
Es	1.381013	1.121008	1.438905	99
Es	-1.416941	-0.820803	-0.315884	99
Es	-0.676524	-0.866878	-0.399835	99
Es	-2.153432	-0.797255	-0.207575	99
Es	-0.512273	-0.384205	-2.292344	99
Es	0.785604	0.476608	-0.295533	99
47
Properties=species:S:1:pos:R:3:Z:I:1 energy=-309.13021841002376 field_type=dipole dipole="0.000000 0.000000 0.000000" charge=0
C	-2.153448	-0.797258	-0.207579	6
C	-0.676588	-0.866988	-0.399729	6
C	-0.066319	-0.575158	-1.745739	6
C	0.112151	0.403582	-0.609869	6
C	1.469671	0.582562	0.012501	6
C	1.381092	1.121192	1.438791	6
O	0.957672	0.105102	2.341460	8
H	-2.383698	-0.496818	0.819300	1
H	-2.603418	-1.778488	-0.385439	1
H	-2.623418	-0.078228	-0.886419	1
H	-0.231918	-1.664748	0.185451	1
H	-0.719708	-0.290878	-2.562989	1
H	0.781771	-1.176758	-2.054719	1
H	-0.426348	1.343142	-0.686189	1
H	2.029422	1.296332	-0.602359	1
H	2.020152	-0.365278	0.008051	1
H	0.688532	1.965872	1.514991	1
H	2.368562	1.456712	1.770161	1
H	0.075841	-0.183898	2.050331	1
Es	-0.512003	-0.384235	-2.292048	99
Es	1.381012	1.121009	1.438904	99
Es	1.415972	0.852295	0.716442	99
Es	1.469634	0.582579	0.012502	99
Es	-0.676521	-0.866872	-0.399833	99
Es	0.510610	-0.977615	-1.951511	99
Es	0.112114	0.403425	-0.609936	99
Es	-2.460270	-1.470121	-0.330987	99
Es	-0.312464	-0.176207	-0.305506	99
Es	1.838132	-0.063474	0.012098	99
Es	-2.153431	-0.797256	-0.207575	99
Es	-2.305144	-0.588464	0.496864	99
Es	0.785592	0.476679	-0.295487	99
Es	-1.417033	-0.820724	-0.315821	99
Es	0.489205	-0.053151	2.163610	99
Es	1.098145	0.493661	1.987407	99
Es	0.957467	0.105183	2.341198	99
Es	-0.447223	-0.890617	-1.147762	99
Es	1.131472	-0.109166	2.289962	99
Es	0.902061	1.705923	1.477152	99
Es	2.057544	1.353503	1.664090	99
Es	0.128324	0.029129	-1.296780	99
Es	-2.463820	-0.305592	-0.668677	99
Es	0.924762	0.224848	2.627968	99
Es	-0.066347	-0.575113	-1.745572	99
Es	1.852804	1.077583	-0.408783	99
Es	-0.263951	1.038877	-0.658411	99
Es	-0.366527	-1.402291	-0.001623	99
47
Properties=species:S:1:pos:R:3:Z:I:1 energy=-309.13021841002376 field_type=dipole dipole="0.000000 0.000000 0.000000" charge=0
C	-2.153448	-0.797258	-0.207579	6
C	-0.676588	-0.866988	-0.399729	6
C	-0.066319	-0.575158	-1.745739	6
C	0.112151	0.403582	-0.609869	6
C	1.469671	0.582562	0.012501	6
C	1.381092	1.121192	1.438791	6
O	0.957672	0.105102	2.341460	8
H	-2.383698	-0.496818	0.819300	1
H	-2.603418	-1.778488	-0.385439	1
H	-2.623418	-0.078228	-0.886419	1
H	-0.231918	-1.664748	0.185451	1
H	-0.719708	-0.290878	-2.562989	1
H	0.781771	-1.176758	-2.054719	1
H	-0.426348	1.343142	-0.686189	1
H	2.029422	1.296332	-0.602359	1
H	2.020152	-0.365278	0.008051	1
H	0.688532	1.965872	1.514991	1
H	2.368562	1.456712	1.770161	1
H	0.075841	-0.183898	2.050331	1
Es	-0.511862	-0.384333	-2.291847	99
Es	0.489600	-0.054215	2.163504	99
Es	0.785666	0.476684	-0.295509	99
Es	-0.066348	-0.575107	-1.745563	99
Es	-2.305054	-0.588270	0.496726	99
Es	-0.263970	1.038871	-0.658381	99
Es	-0.676525	-0.866880	-0.399840	99
Es	1.098474	0.492453	1.986340	99
Es	-1.417006	-0.820764	-0.315898	99
Es	0.902138	1.705932	1.477199	99
Es	-2.463696	-0.305638	-0.668677	99
Es	1.852794	1.077681	-0.408906	99
Es	1.381012	1.121009	1.438904	99
Es	1.838071	-0.063467	0.012109	99
Es	2.057506	1.353469	1.664062	99
Es	1.415880	0.852298	0.716402	99
Es	0.128395	0.029413	-1.296755	99
Es	0.112112	0.403428	-0.609929	99
Es	1.469634	0.582580	0.012503	99
Es	0.510507	-0.977500	-1.951579	99
Es	0.923900	0.226568	2.627563	99
Es	-0.447349	-0.891072	-1.147789	99
Es	-0.366653	-1.402240	-0.001578	99
Es	1.131530	-0.108667	2.291509	99
Es	-0.312323	-0.176126	-0.305480	99
Es	0.957526	0.105197	2.341248	99
Es	-2.460410	-1.470253	-0.330880	99
Es	-2.153432	-0.797256	-0.207574	99
47
Properties=species:S:1:pos:R:3:Z:I:1 energy=-309.13021841002376 field_type=dipole dipole="0.000000 0.000000 0.000000" charge=0
C	-2.153448	-0.797258	-0.207579	6
C	-0.676588	-0.866988	-0.399729	6
C	-0.066319	-0.575158	-1.745739	6
C	0.112151	0.403582	-0.609869	6
C	1.469671	0.582562	0.012501	6
C	1.381092	1.121192	1.438791	6
O	0.957672	0.105102	2.341460	8
H	-2.383698	-0.496818	0.819300	1
H	-2.603418	-1.778488	-0.385439	1
H	-2.623418	-0.078228	-0.886419	1
H	-0.231918	-1.664748	0.185451	1
H	-0.719708	-0.290878	-2.562989	1
H	0.781771	-1.176758	-2.054719	1
H	-0.426348	1.343142	-0.686189	1
H	2.029422	1.296332	-0.602359	1
H	2.020152	-0.365278	0.008051	1
H	0.688532	1.965872	1.514991	1
H	2.368562	1.456712	1.770161	1
H	0.075841	-0.183898	2.050331	1
Es	-0.511778	-0.384370	-2.291587	99
Es	2.057435	1.353481	1.664086	99
Es	0.923999	0.225335	2.628330	99
Es	0.489753	-0.053599	2.162962	99
Es	-2.463571	-0.305664	-0.668510	99
Es	0.128520	0.029560	-1.296804	99
Es	1.130577	-0.108505	2.290829	99
Es	1.852807	1.077701	-0.408940	99
Es	-2.153431	-0.797256	-0.207574	99
Es	1.381014	1.121009	1.438905	99
Es	-0.263884	1.038942	-0.658449	99
Es	0.510431	-0.977513	-1.951732	99
Es	0.957497	0.105212	2.341201	99
Es	1.838092	-0.063465	0.012195	99
Es	0.785689	0.476571	-0.295565	99
Es	-0.676529	-0.866885	-0.399839	99
Es	-2.460439	-1.470353	-0.331064	99
Es	1.099209	0.492911	1.986852	99
Es	-0.447538	-0.891215	-1.147653	99
Es	1.469633	0.582580	0.012502	99
Es	0.902196	1.705904	1.477251	99
Es	-0.312341	-0.175996	-0.305456	99
Es	-2.305042	-0.588264	0.496743	99
Es	-0.366674	-1.402250	-0.001657	99
Es	0.112112	0.403427	-0.609930	99
Es	1.415765	0.852341	0.716280	99
Es	-1.417037	-0.820734	-0.315924	99
Es	-0.066347	-0.575108	-1.745567	99
47
Properties=species:S:1:pos:R:3:Z:I:1 energy=-309.13021841002376 field_type=dipole dipole="0.000000 0.000000 0.000000" charge=0
C	-2.153448	-0.797258	-0.207579	6
C	-0.676588	-0.866988	-0.399729	6
C	-0.066319	-0.575158	-1.745739	6
C	0.112151	0.403582	-0.609869	6
C	1.469671	0.582562	0.012501	6
C	1.381092	1.121192	1.438791	6
O	0.957672	0.105102	2.341460	8
H	-2.383698	-0.496818	0.819300	1
H	-2.603418	-1.778488	-0.385439	1
H	-2.623418	-0.078228	-0.886419	1
H	-0.231918	-1.664748	0.185451	1
H	-0.719708	-0.290878	-2.562989	1
H	0.781771	-1.176758	-2.054719	1
H	-0.426348	1.343142	-0.686189	1
H	2.029422	1.296332	-0.602359	1
H	2.020152	-0.365278	0.008051	1
H	0.688532	1.965872	1.514991	1
H	2.368562	1.456712	1.770161	1
H	0.075841	-0.183898	2.050331	1
Es	0.921357	0.228966	2.625862	99
Es	-0.312362	-0.175987	-0.305376	99
Es	1.381012	1.121007	1.438906	99
Es	0.902164	1.705801	1.477216	99
Es	0.785598	0.476637	-0.295468	99
Es	-0.066347	-0.575108	-1.745566	99
Es	0.510319	-0.977397	-1.951606	99
Es	-0.447617	-0.891435	-1.147716	99
Es	-0.511629	-0.384428	-2.291624	99
Es	-1.417055	-0.820776	-0.316077	99
Es	0.957457	0.105256	2.341115	99
Es	0.128668	0.029697	-1.296880	99
Es	1.469633	0.582579	0.012502	99
Es	-0.676523	-0.866875	-0.399829	99
Es	-2.460439	-1.470348	-0.331094	99
Es	-2.153431	-0.797256	-0.207575	99
Es	-0.263833	1.039018	-0.658406	99
Es	1.852820	1.077728	-0.409008	99
Es	2.057373	1.353595	1.664193	99
Es	-0.366757	-1.402235	-0.001624	99
Es	1.131889	-0.107541	2.295512	99
Es	0.112111	0.403422	-0.609931	99
Es	1.415961	0.852335	0.716289	99
Es	1.099708	0.491115	1.985114	99
Es	1.837948	-0.063554	0.012105	99
Es	-2.463540	-0.305683	-0.668503	99
Es	-2.304971	-0.588223	0.496837	99
Es	0.490604	-0.056514	2.162515	99
47
Properties=species:S:1:pos:R:3:Z:I:1 energy=-309.13021841002376 field_type=dipole dipole="0.000000 0.000000 0.000000" charge=0
C	-2.153448	-0.797258	-0.207579	6
C	-0.676588	-0.866988	-0.399729	6
C	-0.066319	-0.575158	-1.745739	6
C	0.112151	0.403582	-0.609869	6
C	1.469671	0.582562	0.012501	6
C	1.381092	1.121192	1.438791	6
O	0.957672	0.105102	2.341460	8
H	-2.383698	-0.496818	0.819300	1
H	-2.603418	-1.778488	-0.385439	1
H	-2.623418	-0.078228	-0.886419	1
H	-0.231918	-1.664748	0.185451	1
H	-0.719708	-0.290878	-2.562989	1
H	0.781771	-1.176758	-2.054719	1
H	-0.426348	1.343142	-0.686189	1
H	2.029422	1.296332	-0.602359	1
H	2.020152	-0.365278	0.008051	1
H	0.688532	1.965872	1.514991	1
H	2.368562	1.456712	1.770161	1
H	0.075841	-0.183898	2.050331	1
Es	-2.304910	-0.588166	0.496747	99
Es	-0.263858	1.038992	-0.658321	99
Es	0.957422	0.105334	2.341226	99
Es	0.489935	-0.055315	2.163247	99
Es	0.902229	1.705785	1.477187	99
Es	1.415808	0.852288	0.716284	99
Es	-0.312219	-0.175978	-0.305366	99
Es	1.130328	-0.107174	2.292212	99
Es	2.057400	1.353596	1.664162	99
Es	-0.511430	-0.384480	-2.291293	99
Es	-0.676524	-0.866877	-0.399833	99
Es	-0.366811	-1.402221	-0.001685	99
Es	-0.447871	-0.891610	-1.147937	99
Es	0.128702	0.029938	-1.296915	99
Es	1.837902	-0.063578	0.012132	99
Es	1.381013	1.121009	1.438905	99
Es	1.099321	0.492346	1.985965	99
Es	-0.066348	-0.575111	-1.745571	99
Es	1.852825	1.077789	-0.409082	99
Es	-2.460559	-1.470438	-0.331118	99
Es	-2.153431	-0.797256	-0.207575	99
Es	1.469633	0.582579	0.012503	99
Es	0.785716	0.476628	-0.295431	99
Es	0.112111	0.403429	-0.609933	99
Es	-2.463412	-0.305652	-0.668441	99
Es	-1.417068	-0.820738	-0.315950	99
Es	0.510249	-0.977462	-1.951758	99
Es	0.923965	0.226139	2.627526	99
47
Properties=species:S:1:pos:R:3:Z:I:1 energy=-309.13021841002376 field_type=dipole dipole="0.000000 0.000000 0.000000" charge=0
C	-2.153448	-0.797258	-0.207579	6
C	-0.676588	-0.866988	-0.399729	6
C	-0.066319	-0.575158	-1.745739	6
C	0.112151	0.403582	-0.609869	6
C	1.469671	0.582562	0.012501	6
C	1.381092	1.121192	1.438791	6
O	0.957672	0.105102	2.341460	8
H	-2.383698	-0.496818	0.819300	1
H	-2.603418	-1.778488	-0.385439	1
H	-2.623418	-0.078228	-0.886419	1
H	-0.231918	-1.664748	0.185451	1
H	-0.719708	-0.290878	-2.562989	1
H	0.781771	-1.176758	-2.054719	1
H	-0.426348	1.343142	-0.686189	1
H	2.029422	1.296332	-0.602359	1
H	2.020152	-0.365278	0.008051	1
H	0.688532	1.965872	1.514991	1
H	2.368562	1.456712	1.770161	1
H	0.075841	-0.183898	2.050331	1
Es	-2.463361	-0.305888	-0.668470	99
Es	-0.366858	-1.402273	-0.001697	99
Es	0.785689	0.476591	-0.295431	99
Es	-2.305070	-0.587989	0.496772	99
Es	0.957493	0.105224	2.341235	99
Es	1.837840	-0.063523	0.012107	99
Es	0.902301	1.705749	1.477226	99
Es	-1.416980	-0.820613	-0.315954	99
Es	-2.153431	-0.797256	-0.207575	99
Es	0.112111	0.403426	-0.609930	99
Es	0.491616	-0.058602	2.161955	99
Es	1.852850	1.077789	-0.409120	99
Es	1.415758	0.852306	0.716307	99
Es	-0.263749	1.038992	-0.658389	99
Es	-0.447888	-0.891496	-1.147956	99
Es	0.510215	-0.977476	-1.951736	99
Es	-0.676525	-0.866878	-0.399839	99
Es	1.132336	-0.106059	2.296035	99
Es	2.057406	1.353601	1.664130	99
Es	-2.460484	-1.470457	-0.331109	99
Es	0.128801	0.029894	-1.297015	99
Es	-0.511399	-0.384438	-2.291317	99
Es	1.381013	1.121008	1.438906	99
Es	0.920458	0.228569	2.625305	99
Es	1.099055	0.492173	1.985664	99
Es	-0.066347	-0.575107	-1.745565	99
Es	-0.312367	-0.176049	-0.305156	99
Es	1.469635	0.582578	0.012501	99
47
Properties=species:S:1:pos:R:3:Z:I:1 energy=-309.13021841002376 field_type=dipole dipole="0.000000 0.000000 0.000000" charge=0
C	-2.153448	-0.797258	-0.207579	6
C	-0.676588	-0.866988	-0.399729	6
C	-0.066319	-0.575158	-1.745739	6
C	0.112151	0.403582	-0.609869	6
C	1.469671	0.582562	0.012501	6
C	1.381092	1.121192	1.438791	6
O	0.957672	0.105102	2.341460	8
H	-2.383698	-0.496818	0.819300	1
H	-2.603418	-1.778488	-0.385439	1
H	-2.623418	-0.078228	-0.886419	1
H	-0.231918	-1.664748	0.185451	1
H	-0.719708	-0.290878	-2.562989	1
H	0.781771	-1.176758	-2.054719	1
H	-0.426348	1.343142	-0.686189	1
H	2.029422	1.296332	-0.602359	1
H	2.020152	-0.365278	0.008051	1
H	0.688532	1.965872	1.514991	1
H	2.368562	1.456712	1.770161	1
H	0.075841	-0.183898	2.050331	1
Es	1.852788	1.077795	-0.409141	99
Es	0.128728	0.030327	-1.296974	99
Es	0.785648	0.476528	-0.295572	99
Es	-2.153432	-0.797256	-0.207575	99
Es	-2.304950	-0.588034	0.496777	99
Es	0.112112	0.403426	-0.609930	99
Es	1.469633	0.582579	0.012503	99
Es	0.957468	0.105262	2.341167	99
Es	1.415904	0.852317	0.716305	99
Es	1.381014	1.121009	1.438904	99
Es	-0.676528	-0.866882	-0.399835	99
Es	-1.417086	-0.820684	-0.315983	99
Es	-0.066349	-0.575104	-1.745568	99
Es	1.130406	-0.105958	2.292327	99
Es	-0.447962	-0.891807	-1.147931	99
Es	1.837884	-0.063513	0.012095	99
Es	-2.463347	-0.305842	-0.668338	99
Es	-0.366826	-1.402206	-0.001826	99
Es	-0.263805	1.039080	-0.658287	99
Es	-0.312228	-0.176137	-0.305217	99
Es	-2.460519	-1.470532	-0.331191	99
Es	0.510269	-0.977292	-1.951786	99
Es	-0.511299	-0.384658	-2.291122	99
Es	0.923528	0.225651	2.627653	99
Es	1.098954	0.492982	1.986505	99
Es	0.902288	1.705775	1.477182	99
Es	0.490583	-0.056644	2.162567	99
Es	2.057241	1.353612	1.664175	99
47
Properties=species:S:1:pos:R:3:Z:I:1 energy=-309.13021841002376 field_type=dipole dipole="0.000000 0.000000 0.000000" charge=0
C	-2.153448	-0.797258	-0.207579	6
C	-0.676588	-0.866988	-0.399729	6
C	-0.066319	-0.575158	-1.745739	6
C	0.112151	0.403582	-0.609869	6
C	1.469671	0.582562	0.012501	6
C	1.381092	1.121192	1.438791	6
O	0.957672	0.105102	2.341460	8
H	-2.383698	-0.496818	0.819300	1
H	-2.603418	-1.778488	-0.385439	1
H	-2.623418	-0.078228	-0.886419	1
H	-0.231918	-1.664748	0.185451	1
H	-0.719708	-0.290878	-2.562989	1
H	0.781771	-1.176758	-2.054719	1
H	-0.426348	1.343142	-0.686189	1
H	2.029422	1.296332	-0.602359	1
H	2.020152	-0.365278	0.008051	1
H	0.688532	1.965872	1.514991	1
H	2.368562	1.456712	1.770161	1
H	0.075841	-0.183898	2.050331	1
Es	-0.676525	-0.866876	-0.399834	99
Es	1.381013	1.121009	1.438905	99
Es	-0.263777	1.039141	-0.658286	99
Es	1.852933	1.077829	-0.409175	99
Es	1.469633	0.582579	0.012502	99
Es	-0.066348	-0.575109	-1.745566	99
Es	-0.511297	-0.384658	-2.291099	99
Es	-0.312158	-0.176038	-0.305288	99
Es	-1.417145	-0.820653	-0.315980	99
Es	-0.366912	-1.402184	-0.001760	99
Es	-2.153430	-0.797256	-0.207575	99
Es	1.100401	0.491910	1.985545	99
Es	2.057334	1.353547	1.664158	99
Es	-2.460452	-1.470604	-0.331110	99
Es	1.415848	0.852201	0.716309	99
Es	-0.448035	-0.891883	-1.147848	99
Es	-2.463289	-0.305895	-0.668466	99
Es	0.785554	0.476550	-0.295505	99
Es	1.837699	-0.063488	0.012072	99
Es	0.510144	-0.977397	-1.951775	99
Es	0.112113	0.403422	-0.609934	99
Es	0.128923	0.030345	-1.297053	99
Es	0.491812	-0.058215	2.161377	99
Es	-2.304959	-0.587900	0.496770	99
Es	0.902306	1.705809	1.477250	99
Es	1.131064	-0.105747	2.296256	99
Es	0.920127	0.228142	2.625742	99
Es	0.957540	0.105214	2.341254	99
47
Properties=species:S:1:pos:R:3:Z:I:1 energy=-309.13021841002376 field_type=dipole dipole="0.000000 0.000000 0.000000" charge=0
C	-2.153448	-0.797258	-0.207579	6
C	-0.676588	-0.866988	-0.399729	6
C	-0.066319	-0.575158	-1.745739	6
C	0.112151	0.403582	-0.609869	6
C	1.469671	0.582562	0.012501	6
C	1.381092	1.121192	1.438791	6
O	0.957672	0.105102	2.341460	8
H	-2.383698	-0.496818	0.819300	1
H	-2.603418	-1.778488	-0.385439	1
H	-2.623418	-0.078228	-0.886419	1
H	-0.231918	-1.664748	0.185451	1
H	-0.719708	-0.290878	-2.562989	1
H	0.781771	-1.176758	-2.054719	1
H	-0.426348	1.343142	-0.686189	1
H	2.029422	1.296332	-0.602359	1
H	2.020152	-0.365278	0.008051	1
H	0.688532	1.965872	1.514991	1
H	2.368562	1.456712	1.770161	1
H	0.075841	-0.183898	2.050331	1
Es	1.130046	-0.105401	2.290697	99
Es	-0.312246	-0.176044	-0.305181	99
Es	1.469630	0.582576	0.012501	99
Es	-2.460503	-1.470647	-0.331281	99
Es	-0.511116	-0.384740	-2.290752	99
Es	1.098134	0.493759	1.986861	99
Es	-1.417097	-0.820549	-0.315961	99
Es	1.837709	-0.063593	0.012102	99
Es	-2.153431	-0.797256	-0.207575	99
Es	0.902324	1.705730	1.477232	99
Es	-0.676528	-0.866876	-0.399834	99
Es	0.490455	-0.056679	2.163000	99
Es	-2.463228	-0.305997	-0.668243	99
Es	0.112107	0.403426	-0.609924	99
Es	1.852849	1.077880	-0.409275	99
Es	0.785791	0.476585	-0.295462	99
Es	-0.066349	-0.575114	-1.745570	99
Es	0.957403	0.105327	2.341236	99
Es	-0.263684	1.039098	-0.658431	99
Es	0.128981	0.030549	-1.297121	99
Es	0.510084	-0.977325	-1.951942	99
Es	0.924886	0.224317	2.628380	99
Es	-0.366909	-1.402107	-0.001814	99
Es	-2.305023	-0.587902	0.496756	99
Es	2.057277	1.353623	1.664227	99
Es	-0.448190	-0.892108	-1.147894	99
Es	1.381017	1.121008	1.438907	99
Es	1.415725	0.852256	0.716247	99
47
Properties=species:S:1:pos:R:3:Z:I:1 energy=-309.13021841002376 field_type=dipole dipole="0.000000 0.000000 0.000000" charge=0
C	-2.153448	-0.797258	-0.207579	6
C	-0.676588	-0.866988	-0.399729	6
C	-0.066319	-0.575158	-1.745739	6
C	0.112151	0.403582	-0.609869	6
C	1.469671	0.582562	0.012501	6
C	1.381092	1.121192	1.438791	6
O	0.957672	0.105102	2.341460	8
H	-2.383698	-0.496818	0.819300	1
H	-2.603418	-1.778488	-0.385439	1
H	-2.623418	-0.078228	-0.886419	1
H	-0.231918	-1.664748	0.185451	1
H	-0.719708	-0.290878	-2.562989	1
H	0.781771	-1.176758	-2.054719	1
H	-0.426348	1.343142	-0.686189	1
H	2.029422	1.296332	-0.602359	1
H	2.020152	-0.365278	0.008051	1
H	0.688532	1.965872	1.514991	1
H	2.368562	1.456712	1.770161	1
H	0.075841	-0.183898	2.050331	1
Es	-1.417175	-0.820553	-0.316016	99
Es	0.129104	0.030541	-1.297134	99
Es	1.415910	0.852261	0.716300	99
Es	-0.066348	-0.575109	-1.745569	99
Es	-0.511119	-0.384645	-2.290636	99
Es	0.957543	0.105191	2.341262	99
Es	-0.676526	-0.866875	-0.399826	99
Es	-2.460466	-1.470690	-0.331214	99
Es	1.381016	1.121010	1.438904	99
Es	0.510062	-0.977428	-1.952077	99
Es	2.057187	1.354032	1.664408	99
Es	0.785710	0.476523	-0.295517	99
Es	-0.263629	1.039213	-0.658366	99
Es	-0.312196	-0.176035	-0.305193	99
Es	-2.304891	-0.587898	0.496783	99
Es	1.852848	1.077852	-0.409265	99
Es	-0.448347	-0.891963	-1.147778	99
Es	-0.366880	-1.402254	-0.001915	99
Es	0.491065	-0.057553	2.162057	99
Es	1.837700	-0.063659	0.012105	99
Es	0.112110	0.403425	-0.609933	99
Es	0.923052	0.225741	2.627696	99
Es	-2.153431	-0.797256	-0.207574	99
Es	0.902186	1.705393	1.476980	99
Es	1.099387	0.492880	1.986426	99
Es	1.469633	0.582579	0.012503	99
Es	-2.463285	-0.305956	-0.668281	99
Es	1.129895	-0.104974	2.292756	99
47
Properties=species:S:1:pos:R:3:Z:I:1 energy=-309.13021841002376 field_type=dipole dipole="0.000000 0.000000 0.000000" charge=0
C	-2.153448	-0.797258	-0.207579	6
C	-0.676588	-0.866988	-0.399729	6
C	-0.066319	-0.575158	-1.745739	6
C	0.112151	0.403582	-0.609869	6
C	1.469671	0.582562	0.012501	6
C	1.381092	1.121192	1.438791	6
O	0.957672	0.105102	2.341460	8
H	-2.383698	-0.496818	0.819300	1
H	-2.603418	-1.778488	-0.385439	1
H	-2.623418	-0.078228	-0.886419	1
H	-0.231918	-1.664748	0.185451	1
H	-0.719708	-0.290878	-2.562989	1
H	0.781771	-1.176758	-2.054719	1
H	-0.426348	1.343142	-0.686189	1
H	2.029422	1.296332	-0.602359	1
H	2.020152	-0.365278	0.008051	1
H	0.688532	1.965872	1.514991	1
H	2.368562	1.456712	1.770161	1
H	0.075841	-0.183898	2.050331	1
Es	1.381014	1.121009	1.438905	99
Es	1.469632	0.582579	0.012504	99
Es	-2.460613	-1.470712	-0.331227	99
Es	0.902272	1.705685	1.477143	99
Es	-0.312235	-0.176015	-0.305066	99
Es	0.957463	0.105213	2.341142	99
Es	1.099908	0.492122	1.985577	99
Es	1.837692	-0.063622	0.012094	99
Es	0.920494	0.227794	2.626200	99
Es	0.510028	-0.977303	-1.951975	99
Es	0.129022	0.030606	-1.297147	99
Es	1.415778	0.852228	0.716302	99
Es	1.852834	1.077915	-0.409306	99
Es	2.057248	1.353713	1.664189	99
Es	-0.676526	-0.866877	-0.399835	99
Es	-0.366912	-1.402204	-0.001873	99
Es	0.112113	0.403429	-0.609933	99
Es	-0.263665	1.039073	-0.658330	99
Es	-0.511103	-0.384700	-2.290727	99
Es	-2.304921	-0.587819	0.496682	99
Es	-2.463163	-0.305994	-0.668212	99
Es	-0.448261	-0.892107	-1.147898	99
Es	0.785774	0.476596	-0.295481	99
Es	0.492275	-0.059344	2.161214	99
Es	-0.066346	-0.575109	-1.745569	99
Es	-1.417070	-0.820606	-0.316015	99
Es	-2.153430	-0.797257	-0.207574	99
Es	1.130815	-0.104497	2.296104	99
