45
Properties=species:S:1:pos:R:3:Z:I:1 energy=-344.96460965022413 field_type=dipole dipole="0.000000 0.000000 0.000000" charge=0
C	-1.985872	-0.453698	0.698431	6
C	-0.497812	-0.535778	0.726941	6
C	0.252468	-1.233098	-0.380029	6
C	0.359878	0.263562	-0.222959	6
O	-0.319482	1.060672	-1.213449	8
C	1.640368	0.882632	0.265351	6
O	2.420558	1.276552	-0.858739	8
H	-2.321962	0.452822	1.210631	1
H	-2.417002	-1.316108	1.216411	1
H	-2.386472	-0.441178	-0.319789	1
H	-0.134232	-0.668928	1.740661	1
H	-0.305252	-1.632938	-1.218049	1
H	1.110738	-1.838368	-0.108099	1
H	-0.858132	0.515022	-1.812129	1
H	2.231958	0.190432	0.871911	1
H	1.426898	1.773302	0.864531	1
H	1.783348	1.705092	-1.461629	1
Es	-1.235794	-0.490316	0.689934	99
Es	0.834590	-1.639064	-0.193327	99
Es	-2.251844	-0.446576	-0.001883	99
Es	-0.185392	-1.054079	0.222795	99
Es	-0.497732	-0.535792	0.726803	99
Es	0.359681	0.263546	-0.223102	99
Es	-2.273770	-1.042310	1.050275	99
Es	0.429895	-0.495004	-0.453905	99
Es	0.252420	-1.232970	-0.379953	99
Es	2.620270	1.489096	-0.759435	99
Es	-0.510859	1.242737	-1.062055	99
Es	2.074379	1.505298	-1.164880	99
Es	1.640441	0.882662	0.265151	99
Es	2.029559	0.400884	0.679354	99
Es	-0.237849	-0.625421	1.412917	99
Es	-0.136897	-1.490714	-0.951008	99
Es	-0.319489	1.060349	-1.213434	99
Es	-0.597753	0.744351	-1.516144	99
Es	-2.212038	0.161100	1.047305	99
Es	2.507056	1.014224	-0.995790	99
Es	-0.082956	0.731721	-0.851746	99
Es	1.481693	1.489789	0.682378	99
Es	2.420199	1.276587	-0.858711	99
Es	-1.985841	-0.453703	0.698423	99
Es	0.985546	0.565431	0.021012	99
Es	-0.090867	1.177627	-1.385864	99
Es	2.106807	1.133832	-0.435272	99
Es	-0.119372	0.024849	0.356728	99
45
Properties=species:S:1:pos:R:3:Z:I:1 energy=-344.96460965022413 field_type=dipole dipole="0.000000 0.000000 0.000000" charge=0
C	-1.985872	-0.453698	0.698431	6
C	-0.497812	-0.535778	0.726941	6
C	0.252468	-1.233098	-0.380029	6
C	0.359878	0.263562	-0.222959	6
O	-0.319482	1.060672	-1.213449	8
C	1.640368	0.882632	0.265351	6
O	2.420558	1.276552	-0.858739	8
H	-2.321962	0.452822	1.210631	1
H	-2.417002	-1.316108	1.216411	1
H	-2.386472	-0.441178	-0.319789	1
H	-0.134232	-0.668928	1.740661	1
H	-0.305252	-1.632938	-1.218049	1
H	1.110738	-1.838368	-0.108099	1
H	-0.858132	0.515022	-1.812129	1
H	2.231958	0.190432	0.871911	1
H	1.426898	1.773302	0.864531	1
H	1.783348	1.705092	-1.461629	1
Es	-0.119720	0.025559	0.356575	99
Es	2.107202	1.133648	-0.433158	99
Es	-1.985840	-0.453703	0.698423	99
Es	-0.136618	-1.490999	-0.951289	99
Es	-0.597550	0.744589	-1.516401	99
Es	-1.235854	-0.490359	0.689939	99
Es	2.420308	1.276575	-0.858713	99
Es	-2.211409	0.161446	1.047401	99
Es	0.359678	0.263548	-0.223103	99
Es	0.833666	-1.638663	-0.193400	99
Es	1.481463	1.489945	0.682669	99
Es	-2.251357	-0.446434	-0.002543	99
Es	-0.238157	-0.625526	1.413621	99
Es	-0.086772	0.732080	-0.849123	99
Es	-0.497734	-0.535791	0.726803	99
Es	0.985511	0.565426	0.021097	99
Es	1.640441	0.882661	0.265150	99
Es	0.252420	-1.232958	-0.379950	99
Es	-0.186071	-1.054963	0.222969	99
Es	2.621195	1.485742	-0.761360	99
Es	-2.273577	-1.042889	1.050760	99
Es	2.075299	1.507939	-1.163932	99
Es	2.504762	1.015134	-0.997142	99
Es	-0.319454	1.060295	-1.213496	99
Es	2.029270	0.400679	0.679138	99
Es	-0.509908	1.244420	-1.064872	99
Es	0.430998	-0.494734	-0.454044	99
Es	-0.088109	1.175470	-1.385453	99
45
Properties=species:S:1:pos:R:3:Z:I:1 energy=-344.96460965022413 field_type=dipole dipole="0.000000 0.000000 0.000000" charge=0
C	-1.985872	-0.453698	0.698431	6
C	-0.497812	-0.535778	0.726941	6
C	0.252468	-1.233098	-0.380029	6
C	0.359878	0.263562	-0.222959	6
O	-0.319482	1.060672	-1.213449	8
C	1.640368	0.882632	0.265351	6
O	2.420558	1.276552	-0.858739	8
H	-2.321962	0.452822	1.210631	1
H	-2.417002	-1.316108	1.216411	1
H	-2.386472	-0.441178	-0.319789	1
H	-0.134232	-0.668928	1.740661	1
H	-0.305252	-1.632938	-1.218049	1
H	1.110738	-1.838368	-0.108099	1
H	-0.858132	0.515022	-1.812129	1
H	2.231958	0.190432	0.871911	1
H	1.426898	1.773302	0.864531	1
H	1.783348	1.705092	-1.461629	1
Es	-1.235870	-0.490261	0.689930	99
Es	-0.497724	-0.535770	0.726799	99
Es	-2.273238	-1.043310	1.051027	99
Es	-0.512395	1.240642	-1.064913	99
Es	-0.088442	1.179619	-1.383896	99
Es	-0.136342	-1.491151	-0.951523	99
Es	2.106687	1.132355	-0.433285	99
Es	0.985512	0.565479	0.021198	99
Es	-0.186691	-1.055656	0.223087	99
Es	2.507593	1.016213	-0.997140	99
Es	0.833014	-1.638379	-0.193416	99
Es	0.252419	-1.232963	-0.379948	99
Es	1.481390	1.490055	0.682979	99
Es	-0.238456	-0.625665	1.414064	99
Es	2.029044	0.400477	0.678866	99
Es	0.359678	0.263551	-0.223105	99
Es	2.075669	1.507924	-1.164694	99
Es	-2.211089	0.161650	1.047568	99
Es	-2.251031	-0.446385	-0.003012	99
Es	-0.119916	0.026209	0.356478	99
Es	1.640440	0.882661	0.265152	99
Es	2.618544	1.485944	-0.760721	99
Es	-1.985839	-0.453704	0.698423	99
Es	0.431721	-0.494574	-0.454015	99
Es	-0.086509	0.732035	-0.848994	99
Es	-0.319534	1.060288	-1.213400	99
Es	2.420239	1.276598	-0.858685	99
Es	-0.594792	0.744252	-1.518255	99
45
Properties=species:S:1:pos:R:3:Z:I:1 energy=-344.96460965022413 field_type=dipole dipole="0.000000 0.000000 0.000000" charge=0
C	-1.985872	-0.453698	0.698431	6
C	-0.497812	-0.535778	0.726941	6
C	0.252468	-1.233098	-0.380029	6
C	0.359878	0.263562	-0.222959	6
O	-0.319482	1.060672	-1.213449	8
C	1.640368	0.882632	0.265351	6
O	2.420558	1.276552	-0.858739	8
H	-2.321962	0.452822	1.210631	1
H	-2.417002	-1.316108	1.216411	1
H	-2.386472	-0.441178	-0.319789	1
H	-0.134232	-0.668928	1.740661	1
H	-0.305252	-1.632938	-1.218049	1
H	1.110738	-1.838368	-0.108099	1
H	-0.858132	0.515022	-1.812129	1
H	2.231958	0.190432	0.871911	1
H	1.426898	1.773302	0.864531	1
H	1.783348	1.705092	-1.461629	1
Es	1.640440	0.882663	0.265153	99
Es	-0.087247	0.731742	-0.848302	99
Es	2.106453	1.131500	-0.432965	99
Es	-1.985839	-0.453704	0.698422	99
Es	0.832623	-1.638108	-0.193483	99
Es	0.359680	0.263549	-0.223106	99
Es	2.510474	1.016857	-0.997622	99
Es	-0.497728	-0.535791	0.726798	99
Es	-0.238632	-0.625642	1.414446	99
Es	-1.235931	-0.490271	0.689883	99
Es	0.985441	0.565440	0.021357	99
Es	-0.513226	1.235525	-1.065299	99
Es	-0.186903	-1.056065	0.223016	99
Es	-0.319445	1.060331	-1.213488	99
Es	2.029020	0.400460	0.678806	99
Es	-0.593518	0.744659	-1.520142	99
Es	-2.210761	0.161848	1.047713	99
Es	2.615799	1.486920	-0.760698	99
Es	-2.273055	-1.043624	1.051198	99
Es	-0.136184	-1.491307	-0.951648	99
Es	-0.120294	0.026457	0.356492	99
Es	-2.250755	-0.446294	-0.003336	99
Es	2.075746	1.507138	-1.164649	99
Es	1.481216	1.490160	0.683046	99
Es	0.432271	-0.494582	-0.454184	99
Es	-0.088188	1.184633	-1.382221	99
Es	0.252418	-1.232965	-0.379951	99
Es	2.420206	1.276609	-0.858672	99
45
Properties=species:S:1:pos:R:3:Z:I:1 energy=-344.96460965022413 field_type=dipole dipole="0.000000 0.000000 0.000000" charge=0
C	-1.985872	-0.453698	0.698431	6
C	-0.497812	-0.535778	0.726941	6
C	0.252468	-1.233098	-0.380029	6
C	0.359878	0.263562	-0.222959	6
O	-0.319482	1.060672	-1.213449	8
C	1.640368	0.882632	0.265351	6
O	2.420558	1.276552	-0.858739	8
H	-2.321962	0.452822	1.210631	1
H	-2.417002	-1.316108	1.216411	1
H	-2.386472	-0.441178	-0.319789	1
H	-0.134232	-0.668928	1.740661	1
H	-0.305252	-1.632938	-1.218049	1
H	1.110738	-1.838368	-0.108099	1
H	-0.858132	0.515022	-1.812129	1
H	2.231958	0.190432	0.871911	1
H	1.426898	1.773302	0.864531	1
H	1.783348	1.705092	-1.461629	1
Es	0.359671	0.263555	-0.223096	99
Es	-0.319491	1.060365	-1.213439	99
Es	-0.120262	0.027087	0.356434	99
Es	0.832182	-1.637851	-0.193451	99
Es	1.481224	1.490169	0.683219	99
Es	2.506783	1.016110	-0.997406	99
Es	-1.235986	-0.490335	0.689871	99
Es	-1.985839	-0.453704	0.698423	99
Es	2.076028	1.507978	-1.164337	99
Es	2.420235	1.276640	-0.858666	99
Es	2.028863	0.400290	0.678668	99
Es	0.252417	-1.232963	-0.379947	99
Es	-0.136119	-1.491552	-0.951792	99
Es	-0.497727	-0.535784	0.726798	99
Es	2.107075	1.133506	-0.431412	99
Es	-0.086884	1.179362	-1.382545	99
Es	-2.250498	-0.446229	-0.003619	99
Es	2.618586	1.484821	-0.762834	99
Es	-0.238793	-0.625946	1.414727	99
Es	-0.593762	0.744576	-1.519574	99
Es	-2.272979	-1.043900	1.051528	99
Es	-0.512327	1.240448	-1.066856	99
Es	-0.089120	0.732152	-0.847059	99
Es	0.432620	-0.494635	-0.454220	99
Es	-0.187286	-1.056132	0.223170	99
Es	0.985431	0.565473	0.021184	99
Es	-2.210398	0.161976	1.047643	99
Es	1.640440	0.882662	0.265152	99
45
Properties=species:S:1:pos:R:3:Z:I:1 energy=-344.96460965022413 field_type=dipole dipole="0.000000 0.000000 0.000000" charge=0
C	-1.985872	-0.453698	0.698431	6
C	-0.497812	-0.535778	0.726941	6
C	0.252468	-1.233098	-0.380029	6
C	0.359878	0.263562	-0.222959	6
O	-0.319482	1.060672	-1.213449	8
C	1.640368	0.882632	0.265351	6
O	2.420558	1.276552	-0.858739	8
H	-2.321962	0.452822	1.210631	1
H	-2.417002	-1.316108	1.216411	1
H	-2.386472	-0.441178	-0.319789	1
H	-0.134232	-0.668928	1.740661	1
H	-0.305252	-1.632938	-1.218049	1
H	1.110738	-1.838368	-0.108099	1
H	-0.858132	0.515022	-1.812129	1
H	2.231958	0.190432	0.871911	1
H	1.426898	1.773302	0.864531	1
H	1.783348	1.705092	-1.461629	1
Es	2.028807	0.400310	0.678633	99
Es	0.432999	-0.494561	-0.454264	99
Es	1.481151	1.490210	0.683261	99
Es	-0.239021	-0.625940	1.414976	99
Es	-0.319438	1.060317	-1.213464	99
Es	2.106698	1.131989	-0.431805	99
Es	-2.210225	0.162108	1.047776	99
Es	2.615299	1.486550	-0.761926	99
Es	-0.089699	0.733110	-0.845849	99
Es	2.075874	1.506565	-1.165289	99
Es	-0.497729	-0.535796	0.726798	99
Es	-0.086614	1.178574	-1.383139	99
Es	-2.272787	-1.044120	1.051603	99
Es	0.831899	-1.637585	-0.193550	99
Es	0.985318	0.565546	0.021459	99
Es	-0.512580	1.241124	-1.068170	99
Es	0.252417	-1.232968	-0.379947	99
Es	-0.593270	0.743833	-1.518836	99
Es	-0.136111	-1.491724	-0.951898	99
Es	2.510630	1.017341	-0.997015	99
Es	0.359685	0.263550	-0.223116	99
Es	-0.187271	-1.056468	0.223218	99
Es	-1.235989	-0.490406	0.689777	99
Es	2.420210	1.276597	-0.858682	99
Es	-2.250307	-0.446189	-0.003816	99
Es	-0.120466	0.027212	0.356259	99
Es	-1.985840	-0.453703	0.698423	99
Es	1.640444	0.882658	0.265150	99
45
Properties=species:S:1:pos:R:3:Z:I:1 energy=-344.96460965022413 field_type=dipole dipole="0.000000 0.000000 0.000000" charge=0
C	-1.985872	-0.453698	0.698431	6
C	-0.497812	-0.535778	0.726941	6
C	0.252468	-1.233098	-0.380029	6
C	0.359878	0.263562	-0.222959	6
O	-0.319482	1.060672	-1.213449	8
C	1.640368	0.882632	0.265351	6
O	2.420558	1.276552	-0.858739	8
H	-2.321962	0.452822	1.210631	1
H	-2.417002	-1.316108	1.216411	1
H	-2.386472	-0.441178	-0.319789	1
H	-0.134232	-0.668928	1.740661	1
H	-0.305252	-1.632938	-1.218049	1
H	1.110738	-1.838368	-0.108099	1
H	-0.858132	0.515022	-1.812129	1
H	2.231958	0.190432	0.871911	1
H	1.426898	1.773302	0.864531	1
H	1.783348	1.705092	-1.461629	1
Es	2.614435	1.486048	-0.762192	99
Es	-2.272654	-1.044240	1.051617	99
Es	-2.210085	0.162165	1.047920	99
Es	-1.985839	-0.453703	0.698422	99
Es	-0.497729	-0.535782	0.726802	99
Es	-0.135987	-1.491885	-0.951954	99
Es	-0.086825	1.184553	-1.380674	99
Es	0.831669	-1.637420	-0.193478	99
Es	-0.089765	0.732460	-0.846209	99
Es	-1.235920	-0.490235	0.689795	99
Es	2.106905	1.132285	-0.431419	99
Es	2.028715	0.400196	0.678474	99
Es	-0.120421	0.027448	0.356122	99
Es	-0.319461	1.060324	-1.213457	99
Es	2.511221	1.017064	-0.997322	99
Es	0.985319	0.565531	0.021358	99
Es	2.420219	1.276604	-0.858673	99
Es	0.252415	-1.232967	-0.379946	99
Es	0.359682	0.263543	-0.223106	99
Es	1.640441	0.882661	0.265152	99
Es	-0.187707	-1.056767	0.223368	99
Es	-2.250275	-0.446127	-0.003905	99
Es	-0.514472	1.235426	-1.067573	99
Es	0.433147	-0.494676	-0.454345	99
Es	2.075916	1.507027	-1.165121	99
Es	-0.590988	0.744194	-1.521583	99
Es	1.481204	1.490258	0.683423	99
Es	-0.239075	-0.625848	1.415067	99
45
Properties=species:S:1:pos:R:3:Z:I:1 energy=-344.96460965022413 field_type=dipole dipole="0.000000 0.000000 0.000000" charge=0
C	-1.985872	-0.453698	0.698431	6
C	-0.497812	-0.535778	0.726941	6
C	0.252468	-1.233098	-0.380029	6
C	0.359878	0.263562	-0.222959	6
O	-0.319482	1.060672	-1.213449	8
C	1.640368	0.882632	0.265351	6
O	2.420558	1.276552	-0.858739	8
H	-2.321962	0.452822	1.210631	1
H	-2.417002	-1.316108	1.216411	1
H	-2.386472	-0.441178	-0.319789	1
H	-0.134232	-0.668928	1.740661	1
H	-0.305252	-1.632938	-1.218049	1
H	1.110738	-1.838368	-0.108099	1
H	-0.858132	0.515022	-1.812129	1
H	2.231958	0.190432	0.871911	1
H	1.426898	1.773302	0.864531	1
H	1.783348	1.705092	-1.461629	1
Es	-2.209954	0.162332	1.047794	99
Es	-0.120626	0.027590	0.356291	99
Es	2.076726	1.510199	-1.163239	99
Es	-0.592063	0.744234	-1.521267	99
Es	1.481080	1.490333	0.683543	99
Es	-0.513211	1.235673	-1.068206	99
Es	2.028633	0.400118	0.678371	99
Es	0.985423	0.565505	0.021394	99
Es	2.618963	1.482319	-0.764066	99
Es	-2.272587	-1.044364	1.051838	99
Es	-0.497727	-0.535792	0.726798	99
Es	0.433319	-0.494614	-0.454269	99
Es	-0.319475	1.060363	-1.213480	99
Es	2.107561	1.134168	-0.430173	99
Es	0.252416	-1.232960	-0.379944	99
Es	2.420214	1.276644	-0.858668	99
Es	-0.239236	-0.625817	1.415211	99
Es	-0.090243	0.732747	-0.845601	99
Es	-0.187729	-1.057075	0.223352	99
Es	0.359678	0.263546	-0.223102	99
Es	-0.086536	1.183967	-1.380969	99
Es	-0.135879	-1.491775	-0.952034	99
Es	-1.985839	-0.453704	0.698423	99
Es	0.831584	-1.637352	-0.193634	99
Es	-2.250048	-0.446230	-0.004046	99
Es	1.640440	0.882664	0.265151	99
Es	2.505206	1.015694	-0.998673	99
Es	-1.236004	-0.490276	0.689769	99
45
Properties=species:S:1:pos:R:3:Z:I:1 energy=-344.96460965022413 field_type=dipole dipole="0.000000 0.000000 0.000000" charge=0
C	-1.985872	-0.453698	0.698431	6
C	-0.497812	-0.535778	0.726941	6
C	0.252468	-1.233098	-0.380029	6
C	0.359878	0.263562	-0.222959	6
O	-0.319482	1.060672	-1.213449	8
C	1.640368	0.882632	0.265351	6
O	2.420558	1.276552	-0.858739	8
H	-2.321962	0.452822	1.210631	1
H	-2.417002	-1.316108	1.216411	1
H	-2.386472	-0.441178	-0.319789	1
H	-0.134232	-0.668928	1.740661	1
H	-0.305252	-1.632938	-1.218049	1
H	1.110738	-1.838368	-0.108099	1
H	-0.858132	0.515022	-1.812129	1
H	2.231958	0.190432	0.871911	1
H	1.426898	1.773302	0.864531	1
H	1.783348	1.705092	-1.461629	1
Es	-0.089785	0.732821	-0.845945	99
Es	-0.136023	-1.492029	-0.952019	99
Es	0.831227	-1.637351	-0.193413	99
Es	-1.236093	-0.490363	0.689796	99
Es	-0.592882	0.744100	-1.520331	99
Es	-1.985839	-0.453703	0.698423	99
Es	-2.209793	0.162385	1.047891	99
Es	-0.239271	-0.626011	1.415438	99
Es	-0.120893	0.027763	0.356261	99
Es	0.433717	-0.494666	-0.454544	99
Es	0.252417	-1.232962	-0.379949	99
Es	0.359679	0.263553	-0.223107	99
Es	-0.187745	-1.056632	0.223167	99
Es	-2.272419	-1.044518	1.051924	99
Es	1.481004	1.490279	0.683506	99
Es	-0.319485	1.060316	-1.213424	99
Es	-0.086548	1.182928	-1.381887	99
Es	-2.249884	-0.446183	-0.004281	99
Es	2.614980	1.484574	-0.762931	99
Es	-0.497727	-0.535794	0.726797	99
Es	2.106805	1.133247	-0.430791	99
Es	1.640440	0.882661	0.265150	99
Es	2.076596	1.508084	-1.164823	99
Es	2.510092	1.016561	-0.997623	99
Es	2.420222	1.276612	-0.858688	99
Es	-0.512785	1.236799	-1.067877	99
Es	2.028628	0.400137	0.678422	99
Es	0.985447	0.565529	0.021422	99
45
Properties=species:S:1:pos:R:3:Z:I:1 energy=-344.96460965022413 field_type=dipole dipole="0.000000 0.000000 0.000000" charge=0
C	-1.985872	-0.453698	0.698431	6
C	-0.497812	-0.535778	0.726941	6
C	0.252468	-1.233098	-0.380029	6
C	0.359878	0.263562	-0.222959	6
O	-0.319482	1.060672	-1.213449	8
C	1.640368	0.882632	0.265351	6
O	2.420558	1.276552	-0.858739	8
H	-2.321962	0.452822	1.210631	1
H	-2.417002	-1.316108	1.216411	1
H	-2.386472	-0.441178	-0.319789	1
H	-0.134232	-0.668928	1.740661	1
H	-0.305252	-1.632938	-1.218049	1
H	1.110738	-1.838368	-0.108099	1
H	-0.858132	0.515022	-1.812129	1
H	2.231958	0.190432	0.871911	1
H	1.426898	1.773302	0.864531	1
H	1.783348	1.705092	-1.461629	1
Es	-2.272348	-1.044599	1.051970	99
Es	-0.497731	-0.535796	0.726801	99
Es	-0.135847	-1.492029	-0.952113	99
Es	-0.239448	-0.625946	1.415472	99
Es	2.028561	0.400162	0.678303	99
Es	0.985381	0.565406	0.021426	99
Es	-1.235997	-0.490338	0.689675	99
Es	-2.249906	-0.446141	-0.004287	99
Es	-0.319455	1.060302	-1.213478	99
Es	-0.591461	0.743682	-1.520956	99
Es	-0.086445	1.183797	-1.381207	99
Es	0.433629	-0.494596	-0.454264	99
Es	-0.513785	1.235968	-1.068581	99
Es	-0.187857	-1.057193	0.223297	99
Es	2.420276	1.276595	-0.858693	99
Es	-1.985839	-0.453704	0.698422	99
Es	2.510617	1.016769	-0.997095	99
Es	0.359673	0.263554	-0.223097	99
Es	0.252416	-1.232962	-0.379948	99
Es	1.481052	1.490338	0.683618	99
Es	2.076557	1.507417	-1.165349	99
Es	0.831140	-1.637168	-0.193526	99
Es	-0.090313	0.733273	-0.845347	99
Es	-2.209728	0.162379	1.047921	99
Es	-0.120747	0.028056	0.356161	99
Es	1.640437	0.882661	0.265157	99
Es	2.106868	1.133492	-0.430341	99
Es	2.614384	1.484758	-0.763376	99
45
Properties=species:S:1:pos:R:3:Z:I:1 energy=-344.96460965022413 field_type=dipole dipole="0.000000 0.000000 0.000000" charge=0
C	-1.985872	-0.453698	0.698431	6
C	-0.497812	-0.535778	0.726941	6
C	0.252468	-1.233098	-0.380029	6
C	0.359878	0.263562	-0.222959	6
O	-0.319482	1.060672	-1.213449	8
C	1.640368	0.882632	0.265351	6
O	2.420558	1.276552	-0.858739	8
H	-2.321962	0.452822	1.210631	1
H	-2.417002	-1.316108	1.216411	1
H	-2.386472	-0.441178	-0.319789	1
H	-0.134232	-0.668928	1.740661	1
H	-0.305252	-1.632938	-1.218049	1
H	1.110738	-1.838368	-0.108099	1
H	-0.858132	0.515022	-1.812129	1
H	2.231958	0.190432	0.871911	1
H	1.426898	1.773302	0.864531	1
H	1.783348	1.705092	-1.461629	1
Es	-0.589841	0.743634	-1.522406	99
Es	2.420256	1.276606	-0.858741	99
Es	-0.087223	1.187353	-1.379870	99
Es	-0.120967	0.028012	0.356278	99
Es	2.511409	1.017283	-0.997642	99
Es	0.985395	0.565468	0.021459	99
Es	-0.515218	1.232632	-1.068138	99
Es	2.076095	1.507036	-1.164853	99
Es	-0.239475	-0.625967	1.415548	99
Es	-2.209645	0.162484	1.047987	99
Es	-0.135782	-1.492105	-0.952134	99
Es	0.252420	-1.232964	-0.379949	99
Es	1.640441	0.882662	0.265150	99
Es	-0.187940	-1.057273	0.223143	99
Es	1.480945	1.490347	0.683588	99
Es	-2.272339	-1.044631	1.051944	99
Es	-1.985839	-0.453704	0.698422	99
Es	2.028571	0.400119	0.678341	99
Es	-0.089669	0.733047	-0.845646	99
Es	-0.497728	-0.535794	0.726799	99
Es	-2.249761	-0.446138	-0.004378	99
Es	2.107167	1.132579	-0.430430	99
Es	0.831064	-1.637098	-0.193465	99
Es	2.613760	1.485548	-0.763220	99
Es	-1.236040	-0.490377	0.689744	99
Es	0.359684	0.263545	-0.223111	99
Es	0.433822	-0.494475	-0.454368	99
Es	-0.319479	1.060306	-1.213489	99
45
Properties=species:S:1:pos:R:3:Z:I:1 energy=-344.96460965022413 field_type=dipole dipole="0.000000 0.000000 0.000000" charge=0
C	-1.985872	-0.453698	0.698431	6
C	-0.497812	-0.535778	0.726941	6
C	0.252468	-1.233098	-0.380029	6
C	0.359878	0.263562	-0.222959	6
O	-0.319482	1.060672	-1.213449	8
C	1.640368	0.882632	0.265351	6
O	2.420558	1.276552	-0.858739	8
H	-2.321962	0.452822	1.210631	1
H	-2.417002	-1.316108	1.216411	1
H	-2.386472	-0.441178	-0.319789	1
H	-0.134232	-0.668928	1.740661	1
H	-0.305252	-1.632938	-1.218049	1
H	1.110738	-1.838368	-0.108099	1
H	-0.858132	0.515022	-1.812129	1
H	2.231958	0.190432	0.871911	1
H	1.426898	1.773302	0.864531	1
H	1.783348	1.705092	-1.461629	1
Es	2.106933	1.132348	-0.430772	99
Es	-0.120842	0.028234	0.356259	99
Es	-0.135824	-1.492023	-0.952143	99
Es	-0.589944	0.743970	-1.522778	99
Es	2.612545	1.486459	-0.762845	99
Es	-2.272200	-1.044649	1.052062	99
Es	-2.209549	0.162570	1.047997	99
Es	2.075939	1.506179	-1.165391	99
Es	-0.497727	-0.535792	0.726796	99
Es	0.985423	0.565549	0.021378	99
Es	1.480980	1.490387	0.683778	99
Es	0.252417	-1.232961	-0.379948	99
Es	-1.985840	-0.453704	0.698423	99
Es	-0.319419	1.060302	-1.213477	99
Es	-1.236179	-0.490217	0.689773	99
Es	-0.089234	0.732642	-0.846166	99
Es	0.831067	-1.637012	-0.193726	99
Es	-0.087492	1.190226	-1.379575	99
Es	2.420184	1.276578	-0.858697	99
Es	0.433767	-0.494705	-0.454266	99
Es	1.640441	0.882662	0.265151	99
Es	2.513029	1.017494	-0.997227	99
Es	-0.188021	-1.057653	0.223394	99
Es	-2.249739	-0.446227	-0.004475	99
Es	-0.515287	1.229849	-1.067590	99
Es	2.028457	0.399893	0.678170	99
Es	-0.239481	-0.625815	1.415562	99
Es	0.359677	0.263551	-0.223102	99
45
Properties=species:S:1:pos:R:3:Z:I:1 energy=-344.96460965022413 field_type=dipole dipole="0.000000 0.000000 0.000000" charge=0
C	-1.985872	-0.453698	0.698431	6
C	-0.497812	-0.535778	0.726941	6
C	0.252468	-1.233098	-0.380029	6
C	0.359878	0.263562	-0.222959	6
O	-0.319482	1.060672	-1.213449	8
C	1.640368	0.882632	0.265351	6
O	2.420558	1.276552	-0.858739	8
H	-2.321962	0.452822	1.210631	1
H	-2.417002	-1.316108	1.216411	1
H	-2.386472	-0.441178	-0.319789	1
H	-0.134232	-0.668928	1.740661	1
H	-0.305252	-1.632938	-1.218049	1
H	1.110738	-1.838368	-0.108099	1
H	-0.858132	0.515022	-1.812129	1
H	2.231958	0.190432	0.871911	1
H	1.426898	1.773302	0.864531	1
H	1.783348	1.705092	-1.461629	1
Es	-0.085690	1.183426	-1.380075	99
Es	2.076633	1.507717	-1.164697	99
Es	0.830788	-1.637001	-0.193563	99
Es	-0.188128	-1.057495	0.223304	99
Es	-0.239604	-0.626006	1.415678	99
Es	-2.272263	-1.044766	1.052130	99
Es	2.420220	1.276594	-0.858690	99
Es	-1.985839	-0.453704	0.698423	99
Es	-0.497727	-0.535781	0.726797	99
Es	-0.319472	1.060328	-1.213446	99
Es	-2.209517	0.162459	1.047914	99
Es	-0.135772	-1.492120	-0.952206	99
Es	0.985454	0.565397	0.021439	99
Es	1.480991	1.490346	0.683744	99
Es	2.614170	1.484696	-0.763527	99
Es	0.359678	0.263551	-0.223104	99
Es	-0.120902	0.028314	0.356187	99
Es	0.433939	-0.494567	-0.454286	99
Es	-0.513304	1.236004	-1.069541	99
Es	2.510693	1.016782	-0.997833	99
Es	1.640442	0.882661	0.265148	99
Es	0.252422	-1.232961	-0.379954	99
Es	-0.591135	0.744337	-1.522081	99
Es	-2.249687	-0.446103	-0.004482	99
Es	2.028516	0.400077	0.678190	99
Es	-1.235929	-0.490260	0.689724	99
Es	-0.091814	0.732918	-0.844427	99
Es	2.106919	1.133294	-0.430202	99
45
Properties=species:S:1:pos:R:3:Z:I:1 energy=-344.96460965022413 field_type=dipole dipole="0.000000 0.000000 0.000000" charge=0
C	-1.985872	-0.453698	0.698431	6
C	-0.497812	-0.535778	0.726941	6
C	0.252468	-1.233098	-0.380029	6
C	0.359878	0.263562	-0.222959	6
O	-0.319482	1.060672	-1.213449	8
C	1.640368	0.882632	0.265351	6
O	2.420558	1.276552	-0.858739	8
H	-2.321962	0.452822	1.210631	1
H	-2.417002	-1.316108	1.216411	1
H	-2.386472	-0.441178	-0.319789	1
H	-0.134232	-0.668928	1.740661	1
H	-0.305252	-1.632938	-1.218049	1
H	1.110738	-1.838368	-0.108099	1
H	-0.858132	0.515022	-1.812129	1
H	2.231958	0.190432	0.871911	1
H	1.426898	1.773302	0.864531	1
H	1.783348	1.705092	-1.461629	1
Es	-0.319493	1.060328	-1.213420	99
Es	0.434210	-0.494444	-0.454466	99
Es	2.420233	1.276559	-0.858702	99
Es	2.075962	1.506621	-1.165252	99
Es	-2.272109	-1.044876	1.052184	99
Es	2.028476	0.399956	0.678231	99
Es	2.107403	1.133810	-0.430168	99
Es	0.359680	0.263555	-0.223109	99
Es	-0.497724	-0.535796	0.726794	99
Es	0.985408	0.565493	0.021467	99
Es	0.830677	-1.636834	-0.193682	99
Es	0.252418	-1.232964	-0.379949	99
Es	-1.236044	-0.490369	0.689597	99
Es	-0.090688	0.733101	-0.845070	99
Es	-0.188266	-1.057638	0.223540	99
Es	-2.249651	-0.446089	-0.004560	99
Es	-0.121086	0.028307	0.356172	99
Es	-0.590820	0.743923	-1.521763	99
Es	-0.514082	1.234830	-1.068851	99
Es	-1.985839	-0.453704	0.698423	99
Es	-0.239716	-0.626014	1.415757	99
Es	2.614226	1.485495	-0.763825	99
Es	-2.209360	0.162563	1.048019	99
Es	2.510824	1.016590	-0.997000	99
Es	-0.135651	-1.492162	-0.952201	99
Es	-0.086278	1.184865	-1.380466	99
Es	1.640441	0.882660	0.265151	99
Es	1.480932	1.490369	0.683717	99
45
Properties=species:S:1:pos:R:3:Z:I:1 energy=-344.96460965022413 field_type=dipole dipole="0.000000 0.000000 0.000000" charge=0
C	-1.985872	-0.453698	0.698431	6
C	-0.497812	-0.535778	0.726941	6
C	0.252468	-1.233098	-0.380029	6
C	0.359878	0.263562	-0.222959	6
O	-0.319482	1.060672	-1.213449	8
C	1.640368	0.882632	0.265351	6
O	2.420558	1.276552	-0.858739	8
H	-2.321962	0.452822	1.210631	1
H	-2.417002	-1.316108	1.216411	1
H	-2.386472	-0.441178	-0.319789	1
H	-0.134232	-0.668928	1.740661	1
H	-0.305252	-1.632938	-1.218049	1
H	1.110738	-1.838368	-0.108099	1
H	-0.858132	0.515022	-1.812129	1
H	2.231958	0.190432	0.871911	1
H	1.426898	1.773302	0.864531	1
H	1.783348	1.705092	-1.461629	1
Es	-1.985839	-0.453704	0.698422	99
Es	-2.272051	-1.044858	1.052190	99
Es	-0.135735	-1.492211	-0.952257	99
Es	2.107260	1.132512	-0.430199	99
Es	2.511528	1.017366	-0.997987	99
Es	0.985381	0.565535	0.021518	99
Es	-0.091537	0.733077	-0.844551	99
Es	1.480999	1.490378	0.683769	99
Es	-0.121065	0.028317	0.356121	99
Es	-0.497730	-0.535794	0.726799	99
Es	-0.239694	-0.625970	1.415749	99
Es	-0.085893	1.184891	-1.379855	99
Es	-2.249604	-0.446161	-0.004615	99
Es	-1.236127	-0.490339	0.689662	99
Es	-2.209331	0.162651	1.048053	99
Es	0.252417	-1.232963	-0.379948	99
Es	2.420202	1.276592	-0.858688	99
Es	0.359680	0.263548	-0.223107	99
Es	0.434109	-0.494405	-0.454335	99
Es	-0.590491	0.744049	-1.522324	99
Es	1.640441	0.882662	0.265150	99
Es	-0.513999	1.234604	-1.069372	99
Es	2.076258	1.507671	-1.164695	99
Es	2.028448	0.400002	0.678178	99
Es	2.613392	1.484903	-0.763416	99
Es	0.830715	-1.636758	-0.193728	99
Es	-0.319461	1.060373	-1.213465	99
Es	-0.188191	-1.057833	0.223496	99
45
Properties=species:S:1:pos:R:3:Z:I:1 energy=-344.96460965022413 field_type=dipole dipole="0.000000 0.000000 0.000000" charge=0
C	-1.985872	-0.453698	0.698431	6
C	-0.497812	-0.535778	0.726941	6
C	0.252468	-1.233098	-0.380029	6
C	0.359878	0.263562	-0.222959	6
O	-0.319482	1.060672	-1.213449	8
C	1.640368	0.882632	0.265351	6
O	2.420558	1.276552	-0.858739	8
H	-2.321962	0.452822	1.210631	1
H	-2.417002	-1.316108	1.216411	1
H	-2.386472	-0.441178	-0.319789	1
H	-0.134232	-0.668928	1.740661	1
H	-0.305252	-1.632938	-1.218049	1
H	1.110738	-1.838368	-0.108099	1
H	-0.858132	0.515022	-1.812129	1
H	2.231958	0.190432	0.871911	1
H	1.426898	1.773302	0.864531	1
H	1.783348	1.705092	-1.461629	1
Es	-0.239720	-0.625915	1.415943	99
Es	2.613320	1.484119	-0.763879	99
Es	-0.515404	1.229465	-1.068110	99
Es	-0.319497	1.060328	-1.213429	99
Es	-2.249477	-0.446149	-0.004657	99
Es	1.480993	1.490466	0.683877	99
Es	2.028373	0.400066	0.678057	99
Es	-0.087052	1.190519	-1.380101	99
Es	0.985398	0.565457	0.021566	99
Es	-0.187992	-1.057660	0.223271	99
Es	0.252417	-1.232966	-0.379949	99
Es	-0.121215	0.028511	0.356166	99
Es	-0.589751	0.743926	-1.522275	99
Es	-1.985839	-0.453704	0.698423	99
Es	0.830677	-1.636704	-0.193669	99
Es	2.107404	1.133501	-0.429766	99
Es	0.434021	-0.494719	-0.454208	99
Es	2.076532	1.508190	-1.164615	99
Es	2.420270	1.276572	-0.858702	99
Es	2.511140	1.016595	-0.998023	99
Es	-2.209325	0.162716	1.048113	99
Es	-1.236085	-0.490538	0.689621	99
Es	1.640440	0.882660	0.265152	99
Es	-0.089685	0.732765	-0.845676	99
Es	0.359684	0.263542	-0.223110	99
Es	-2.272102	-1.044848	1.052098	99
Es	-0.135712	-1.492268	-0.952352	99
Es	-0.497728	-0.535793	0.726798	99
45
Properties=species:S:1:pos:R:3:Z:I:1 energy=-344.96460965022413 field_type=dipole dipole="0.000000 0.000000 0.000000" charge=0
C	-1.985872	-0.453698	0.698431	6
C	-0.497812	-0.535778	0.726941	6
C	0.252468	-1.233098	-0.380029	6
C	0.359878	0.263562	-0.222959	6
O	-0.319482	1.060672	-1.213449	8
C	1.640368	0.882632	0.265351	6
O	2.420558	1.276552	-0.858739	8
H	-2.321962	0.452822	1.210631	1
H	-2.417002	-1.316108	1.216411	1
H	-2.386472	-0.441178	-0.319789	1
H	-0.134232	-0.668928	1.740661	1
H	-0.305252	-1.632938	-1.218049	1
H	1.110738	-1.838368	-0.108099	1
H	-0.858132	0.515022	-1.812129	1
H	2.231958	0.190432	0.871911	1
H	1.426898	1.773302	0.864531	1
H	1.783348	1.705092	-1.461629	1
Es	2.076373	1.507547	-1.164939	99
Es	-2.249408	-0.446031	-0.004676	99
Es	-0.085234	1.182358	-1.379809	99
Es	-2.209286	0.162650	1.048114	99
Es	0.252419	-1.232968	-0.379952	99
Es	-0.513283	1.236828	-1.070440	99
Es	2.107192	1.132430	-0.430034	99
Es	-0.135630	-1.492209	-0.952322	99
Es	2.028444	0.400010	0.678085	99
Es	2.510842	1.017723	-0.997710	99
Es	-1.236143	-0.490393	0.689678	99
Es	-0.590670	0.744235	-1.522269	99
Es	2.613933	1.484788	-0.763608	99
Es	-0.497727	-0.535795	0.726797	99
Es	0.830603	-1.636703	-0.193716	99
Es	-1.985839	-0.453703	0.698422	99
Es	0.434188	-0.494548	-0.454289	99
Es	0.359678	0.263550	-0.223103	99
Es	1.480927	1.490415	0.683854	99
Es	-0.188346	-1.057839	0.223572	99
Es	-0.092664	0.733186	-0.843640	99
Es	-0.319496	1.060390	-1.213437	99
Es	1.640441	0.882661	0.265152	99
Es	-0.239851	-0.626094	1.415796	99
Es	-2.272094	-1.044985	1.052120	99
Es	-0.120981	0.028581	0.356059	99
Es	0.985412	0.565468	0.021557	99
Es	2.420282	1.276583	-0.858696	99
