37
Properties=species:S:1:pos:R:3:Z:I:1 energy=-268.5113736377575 field_type=dipole dipole="0.000000 0.000000 0.000000" charge=0
C	-1.598124	-1.872834	2.101331	6
C	-1.238474	-1.570695	0.995201	6
C	-0.799864	-1.209525	-0.359089	6
C	-0.237964	0.180335	-0.358909	6
C	1.033536	0.475296	-0.666799	6
C	1.502866	1.800645	-0.666799	6
C	1.900146	2.922545	-0.666799	6
H	-1.914304	-2.137694	3.084221	1
H	-1.648004	-1.249315	-1.051709	1
H	-0.060924	-1.935915	-0.716439	1
H	-0.930314	0.980536	-0.102769	1
H	1.737176	-0.310395	-0.926389	1
H	2.254246	3.927016	-0.665049	1
Es	1.900232	2.922793	-0.666809	99
Es	-1.600203	-2.004856	1.422024	99
Es	1.033655	0.475404	-0.666826	99
Es	-1.804508	-2.045541	2.741681	99
Es	-1.367238	-1.229903	-0.804697	99
Es	1.593122	2.388460	-1.002655	99
Es	0.350838	0.382082	-0.834305	99
Es	1.469995	2.443525	-0.406353	99
Es	1.502784	1.800397	-0.666784	99
Es	2.131233	3.578402	-0.665894	99
Es	-1.598199	-1.872887	2.101552	99
Es	-0.517528	-0.525800	-0.348271	99
Es	-1.238390	-1.570616	0.994928	99
Es	-1.078703	-1.759788	1.659625	99
Es	2.031115	2.248289	-0.591015	99
Es	-0.799891	-1.209507	-0.358959	99
Es	-1.584723	-1.403026	1.585594	99
Es	-1.026403	-1.390160	0.341401	99
Es	1.510718	-0.041580	-0.841688	99
Es	-0.304644	-1.694204	-0.583539	99
Es	-0.709972	0.710646	-0.185597	99
Es	-0.238067	0.180254	-0.358892	99
Es	0.514277	0.322387	-0.211654	99
Es	1.279771	1.155058	-0.667455	99
37
Properties=species:S:1:pos:R:3:Z:I:1 energy=-268.5113736377575 field_type=dipole dipole="0.000000 0.000000 0.000000" charge=0
C	-1.598124	-1.872834	2.101331	6
C	-1.238474	-1.570695	0.995201	6
C	-0.799864	-1.209525	-0.359089	6
C	-0.237964	0.180335	-0.358909	6
C	1.033536	0.475296	-0.666799	6
C	1.502866	1.800645	-0.666799	6
C	1.900146	2.922545	-0.666799	6
H	-1.914304	-2.137694	3.084221	1
H	-1.648004	-1.249315	-1.051709	1
H	-0.060924	-1.935915	-0.716439	1
H	-0.930314	0.980536	-0.102769	1
H	1.737176	-0.310395	-0.926389	1
H	2.254246	3.927016	-0.665049	1
Es	-1.810117	-2.051292	2.738772	99
Es	-1.094992	-1.782724	1.650215	99
Es	1.276513	1.158566	-0.668460	99
Es	-0.705259	0.707708	-0.183160	99
Es	0.352173	0.383442	-0.833754	99
Es	2.137124	3.577500	-0.671438	99
Es	-1.626991	-1.992218	1.413777	99
Es	-0.799890	-1.209507	-0.358960	99
Es	2.015533	2.255402	-0.796018	99
Es	1.623082	2.382805	-0.318176	99
Es	-0.309833	-1.692234	-0.583223	99
Es	1.033660	0.475406	-0.666821	99
Es	1.502759	1.800392	-0.666808	99
Es	-1.238384	-1.570598	0.994944	99
Es	-1.598198	-1.872889	2.101551	99
Es	1.900242	2.922798	-0.666800	99
Es	0.513502	0.319874	-0.210322	99
Es	-1.541299	-1.392362	1.603078	99
Es	1.454768	2.442336	-0.883630	99
Es	-0.238063	0.180252	-0.358883	99
Es	-0.516579	-0.523829	-0.348439	99
Es	-1.023534	-1.388599	0.345342	99
Es	-1.362260	-1.232149	-0.802718	99
Es	1.505316	-0.038253	-0.844657	99
37
Properties=species:S:1:pos:R:3:Z:I:1 energy=-268.5113736377575 field_type=dipole dipole="0.000000 0.000000 0.000000" charge=0
C	-1.598124	-1.872834	2.101331	6
C	-1.238474	-1.570695	0.995201	6
C	-0.799864	-1.209525	-0.359089	6
C	-0.237964	0.180335	-0.358909	6
C	1.033536	0.475296	-0.666799	6
C	1.502866	1.800645	-0.666799	6
C	1.900146	2.922545	-0.666799	6
H	-1.914304	-2.137694	3.084221	1
H	-1.648004	-1.249315	-1.051709	1
H	-0.060924	-1.935915	-0.716439	1
H	-0.930314	0.980536	-0.102769	1
H	1.737176	-0.310395	-0.926389	1
H	2.254246	3.927016	-0.665049	1
Es	-0.799893	-1.209509	-0.358961	99
Es	1.450339	2.444970	-0.857584	99
Es	-1.598216	-1.872894	2.101546	99
Es	2.005369	2.258049	-0.823577	99
Es	-0.702685	0.705985	-0.182386	99
Es	-1.124622	-1.558605	1.700695	99
Es	1.637631	2.377508	-0.316462	99
Es	1.275225	1.160172	-0.668153	99
Es	0.513684	0.318590	-0.209739	99
Es	0.352498	0.384210	-0.832950	99
Es	-1.358204	-1.232309	-0.800827	99
Es	1.502170	-0.036283	-0.845803	99
Es	1.900237	2.922800	-0.666804	99
Es	-1.469885	-2.067156	1.440230	99
Es	1.033658	0.475409	-0.666824	99
Es	-1.665748	-1.541404	1.527479	99
Es	2.139385	3.576692	-0.674383	99
Es	-1.024373	-1.387062	0.347565	99
Es	-0.515974	-0.522975	-0.348938	99
Es	-0.238062	0.180250	-0.358881	99
Es	-1.814774	-2.055100	2.735262	99
Es	1.502761	1.800385	-0.666787	99
Es	-1.238384	-1.570608	0.994932	99
Es	-0.312865	-1.691287	-0.583239	99
37
Properties=species:S:1:pos:R:3:Z:I:1 energy=-268.5113736377575 field_type=dipole dipole="0.000000 0.000000 0.000000" charge=0
C	-1.598124	-1.872834	2.101331	6
C	-1.238474	-1.570695	0.995201	6
C	-0.799864	-1.209525	-0.359089	6
C	-0.237964	0.180335	-0.358909	6
C	1.033536	0.475296	-0.666799	6
C	1.502866	1.800645	-0.666799	6
C	1.900146	2.922545	-0.666799	6
H	-1.914304	-2.137694	3.084221	1
H	-1.648004	-1.249315	-1.051709	1
H	-0.060924	-1.935915	-0.716439	1
H	-0.930314	0.980536	-0.102769	1
H	1.737176	-0.310395	-0.926389	1
H	2.254246	3.927016	-0.665049	1
Es	-0.515722	-0.522462	-0.349462	99
Es	-1.816954	-2.057983	2.732770	99
Es	-0.799890	-1.209506	-0.358961	99
Es	-0.314925	-1.690160	-0.582783	99
Es	1.274996	1.160942	-0.667624	99
Es	-1.126408	-1.554695	1.701240	99
Es	-1.024255	-1.386216	0.349482	99
Es	0.352876	0.385110	-0.832585	99
Es	-1.647164	-1.548789	1.531883	99
Es	-0.238061	0.180249	-0.358876	99
Es	-1.238388	-1.570610	0.994934	99
Es	1.033657	0.475410	-0.666834	99
Es	2.009143	2.256868	-0.815421	99
Es	-1.355313	-1.232607	-0.799644	99
Es	-0.700841	0.704640	-0.182084	99
Es	1.900249	2.922800	-0.666813	99
Es	1.467266	2.437814	-0.861867	99
Es	1.499962	-0.034760	-0.846252	99
Es	1.616605	2.385985	-0.320306	99
Es	-1.598200	-1.872883	2.101550	99
Es	0.513551	0.317417	-0.209528	99
Es	-1.486388	-2.063156	1.435591	99
Es	2.140715	3.576031	-0.676206	99
Es	1.502762	1.800388	-0.666795	99
37
Properties=species:S:1:pos:R:3:Z:I:1 energy=-268.5113736377575 field_type=dipole dipole="0.000000 0.000000 0.000000" charge=0
C	-1.598124	-1.872834	2.101331	6
C	-1.238474	-1.570695	0.995201	6
C	-0.799864	-1.209525	-0.359089	6
C	-0.237964	0.180335	-0.358909	6
C	1.033536	0.475296	-0.666799	6
C	1.502866	1.800645	-0.666799	6
C	1.900146	2.922545	-0.666799	6
H	-1.914304	-2.137694	3.084221	1
H	-1.648004	-1.249315	-1.051709	1
H	-0.060924	-1.935915	-0.716439	1
H	-0.930314	0.980536	-0.102769	1
H	1.737176	-0.310395	-0.926389	1
H	2.254246	3.927016	-0.665049	1
Es	-0.515446	-0.522321	-0.349887	99
Es	-0.799889	-1.209508	-0.358961	99
Es	1.900248	2.922801	-0.666813	99
Es	1.473963	2.435280	-0.857038	99
Es	1.502763	1.800384	-0.666792	99
Es	-0.699772	0.703711	-0.182348	99
Es	1.033656	0.475408	-0.666834	99
Es	0.352730	0.385330	-0.832984	99
Es	-1.353668	-1.232613	-0.799005	99
Es	-1.201895	-1.876361	1.588773	99
Es	1.609843	2.388705	-0.322540	99
Es	-1.360822	-1.376206	1.668048	99
Es	-1.238355	-1.570614	0.994939	99
Es	0.513814	0.316936	-0.208853	99
Es	2.142053	3.575190	-0.677364	99
Es	-1.598223	-1.872919	2.101540	99
Es	1.274854	1.161403	-0.667192	99
Es	-0.316450	-1.689281	-0.582400	99
Es	2.008887	2.256880	-0.818012	99
Es	-1.697793	-1.911694	1.413032	99
Es	-1.818237	-2.060756	2.730405	99
Es	-1.023464	-1.386694	0.350518	99
Es	-0.238067	0.180249	-0.358884	99
Es	1.498542	-0.033487	-0.845936	99
37
Properties=species:S:1:pos:R:3:Z:I:1 energy=-268.5113736377575 field_type=dipole dipole="0.000000 0.000000 0.000000" charge=0
C	-1.598124	-1.872834	2.101331	6
C	-1.238474	-1.570695	0.995201	6
C	-0.799864	-1.209525	-0.359089	6
C	-0.237964	0.180335	-0.358909	6
C	1.033536	0.475296	-0.666799	6
C	1.502866	1.800645	-0.666799	6
C	1.900146	2.922545	-0.666799	6
H	-1.914304	-2.137694	3.084221	1
H	-1.648004	-1.249315	-1.051709	1
H	-0.060924	-1.935915	-0.716439	1
H	-0.930314	0.980536	-0.102769	1
H	1.737176	-0.310395	-0.926389	1
H	2.254246	3.927016	-0.665049	1
Es	-0.317922	-1.687977	-0.581828	99
Es	-1.351890	-1.232793	-0.798560	99
Es	-1.023863	-1.386670	0.351372	99
Es	1.496925	-0.032076	-0.846030	99
Es	-1.598207	-1.872907	2.101548	99
Es	-1.819327	-2.061749	2.729274	99
Es	-0.799888	-1.209505	-0.358956	99
Es	-1.238380	-1.570608	0.994935	99
Es	-1.345837	-1.380120	1.671662	99
Es	1.371810	2.484514	-0.595542	99
Es	1.900246	2.922801	-0.666810	99
Es	0.352689	0.385969	-0.833272	99
Es	2.142961	3.574584	-0.678112	99
Es	1.502762	1.800387	-0.666784	99
Es	-0.698430	0.702610	-0.182181	99
Es	0.513916	0.316069	-0.208260	99
Es	-1.224221	-1.861482	1.586076	99
Es	1.856255	2.296195	-0.422995	99
Es	-0.515264	-0.522177	-0.350166	99
Es	-1.689989	-1.922773	1.412318	99
Es	1.033657	0.475410	-0.666832	99
Es	-0.238059	0.180248	-0.358871	99
Es	1.274415	1.162162	-0.666444	99
Es	1.864916	2.299715	-0.980130	99
37
Properties=species:S:1:pos:R:3:Z:I:1 energy=-268.5113736377575 field_type=dipole dipole="0.000000 0.000000 0.000000" charge=0
C	-1.598124	-1.872834	2.101331	6
C	-1.238474	-1.570695	0.995201	6
C	-0.799864	-1.209525	-0.359089	6
C	-0.237964	0.180335	-0.358909	6
C	1.033536	0.475296	-0.666799	6
C	1.502866	1.800645	-0.666799	6
C	1.900146	2.922545	-0.666799	6
H	-1.914304	-2.137694	3.084221	1
H	-1.648004	-1.249315	-1.051709	1
H	-0.060924	-1.935915	-0.716439	1
H	-0.930314	0.980536	-0.102769	1
H	1.737176	-0.310395	-0.926389	1
H	2.254246	3.927016	-0.665049	1
Es	-1.689787	-1.921460	1.413046	99
Es	-0.515045	-0.522078	-0.350472	99
Es	0.353169	0.386677	-0.832829	99
Es	-0.697700	0.702081	-0.181800	99
Es	-1.238743	-1.857772	1.582285	99
Es	-1.330989	-1.384855	1.675323	99
Es	1.370751	2.484703	-0.607359	99
Es	-1.598207	-1.872899	2.101548	99
Es	2.143245	3.574356	-0.678720	99
Es	1.845590	2.299441	-0.418029	99
Es	1.876425	2.296399	-0.973298	99
Es	0.513453	0.315360	-0.208614	99
Es	-1.238343	-1.570588	0.994948	99
Es	1.033655	0.475411	-0.666838	99
Es	-1.820414	-2.062905	2.727799	99
Es	1.502760	1.800390	-0.666789	99
Es	-1.349690	-1.232395	-0.797176	99
Es	1.496045	-0.031523	-0.846228	99
Es	-0.799889	-1.209506	-0.358954	99
Es	1.900249	2.922801	-0.666813	99
Es	-0.238061	0.180248	-0.358876	99
Es	-1.025008	-1.386497	0.351719	99
Es	-0.318740	-1.687834	-0.582026	99
Es	1.274547	1.162271	-0.666435	99
37
Properties=species:S:1:pos:R:3:Z:I:1 energy=-268.5113736377575 field_type=dipole dipole="0.000000 0.000000 0.000000" charge=0
C	-1.598124	-1.872834	2.101331	6
C	-1.238474	-1.570695	0.995201	6
C	-0.799864	-1.209525	-0.359089	6
C	-0.237964	0.180335	-0.358909	6
C	1.033536	0.475296	-0.666799	6
C	1.502866	1.800645	-0.666799	6
C	1.900146	2.922545	-0.666799	6
H	-1.914304	-2.137694	3.084221	1
H	-1.648004	-1.249315	-1.051709	1
H	-0.060924	-1.935915	-0.716439	1
H	-0.930314	0.980536	-0.102769	1
H	1.737176	-0.310395	-0.926389	1
H	2.254246	3.927016	-0.665049	1
Es	-0.697056	0.701703	-0.181512	99
Es	-1.248243	-1.849568	1.581749	99
Es	1.370930	2.484047	-0.645387	99
Es	-0.799889	-1.209507	-0.358960	99
Es	-1.598218	-1.872908	2.101545	99
Es	0.513281	0.314658	-0.208852	99
Es	-1.684378	-1.927607	1.413206	99
Es	1.495099	-0.031149	-0.846874	99
Es	1.901974	2.288769	-0.956344	99
Es	-0.515066	-0.521982	-0.350772	99
Es	-0.238060	0.180249	-0.358877	99
Es	-1.238359	-1.570601	0.994940	99
Es	-1.821643	-2.063382	2.726630	99
Es	-1.026105	-1.386693	0.351839	99
Es	-1.347400	-1.231883	-0.795662	99
Es	1.820171	2.307549	-0.396962	99
Es	1.274264	1.162594	-0.666464	99
Es	2.143465	3.574154	-0.679158	99
Es	-0.319317	-1.687861	-0.582340	99
Es	-1.326402	-1.386763	1.676151	99
Es	0.353568	0.387402	-0.832045	99
Es	1.033655	0.475412	-0.666840	99
Es	1.900250	2.922800	-0.666816	99
Es	1.502754	1.800392	-0.666781	99
37
Properties=species:S:1:pos:R:3:Z:I:1 energy=-268.5113736377575 field_type=dipole dipole="0.000000 0.000000 0.000000" charge=0
C	-1.598124	-1.872834	2.101331	6
C	-1.238474	-1.570695	0.995201	6
C	-0.799864	-1.209525	-0.359089	6
C	-0.237964	0.180335	-0.358909	6
C	1.033536	0.475296	-0.666799	6
C	1.502866	1.800645	-0.666799	6
C	1.900146	2.922545	-0.666799	6
H	-1.914304	-2.137694	3.084221	1
H	-1.648004	-1.249315	-1.051709	1
H	-0.060924	-1.935915	-0.716439	1
H	-0.930314	0.980536	-0.102769	1
H	1.737176	-0.310395	-0.926389	1
H	2.254246	3.927016	-0.665049	1
Es	-0.320255	-1.686373	-0.581300	99
Es	1.502762	1.800386	-0.666782	99
Es	-1.598215	-1.872912	2.101546	99
Es	-0.799887	-1.209506	-0.358960	99
Es	1.033657	0.475407	-0.666832	99
Es	-0.696900	0.701130	-0.182466	99
Es	-1.025352	-1.385428	0.353179	99
Es	-1.683074	-1.928471	1.413474	99
Es	1.494988	-0.030289	-0.845405	99
Es	-1.821483	-2.065010	2.725539	99
Es	-1.348159	-1.232608	-0.796778	99
Es	0.513270	0.315112	-0.208230	99
Es	1.852443	2.297475	-0.441211	99
Es	-1.325541	-1.387965	1.676046	99
Es	1.274730	1.162534	-0.666032	99
Es	-1.238348	-1.570574	0.994954	99
Es	2.143831	3.573717	-0.680225	99
Es	-1.250325	-1.847752	1.581503	99
Es	-0.238061	0.180248	-0.358877	99
Es	1.900243	2.922802	-0.666809	99
Es	0.353451	0.386709	-0.833163	99
Es	1.866946	2.299569	-0.977969	99
Es	1.373266	2.483683	-0.578991	99
Es	-0.514716	-0.522056	-0.350799	99
37
Properties=species:S:1:pos:R:3:Z:I:1 energy=-268.5113736377575 field_type=dipole dipole="0.000000 0.000000 0.000000" charge=0
C	-1.598124	-1.872834	2.101331	6
C	-1.238474	-1.570695	0.995201	6
C	-0.799864	-1.209525	-0.359089	6
C	-0.237964	0.180335	-0.358909	6
C	1.033536	0.475296	-0.666799	6
C	1.502866	1.800645	-0.666799	6
C	1.900146	2.922545	-0.666799	6
H	-1.914304	-2.137694	3.084221	1
H	-1.648004	-1.249315	-1.051709	1
H	-0.060924	-1.935915	-0.716439	1
H	-0.930314	0.980536	-0.102769	1
H	1.737176	-0.310395	-0.926389	1
H	2.254246	3.927016	-0.665049	1
Es	-1.519653	-2.048698	1.430081	99
Es	-0.238063	0.180250	-0.358883	99
Es	-0.696545	0.700913	-0.182358	99
Es	1.502759	1.800387	-0.666781	99
Es	1.371638	2.484132	-0.589287	99
Es	-1.346834	-1.232516	-0.795815	99
Es	1.900253	2.922799	-0.666821	99
Es	0.513451	0.314932	-0.208207	99
Es	-0.514797	-0.521910	-0.351066	99
Es	-1.821580	-2.065949	2.724872	99
Es	-1.238371	-1.570600	0.994937	99
Es	1.033657	0.475405	-0.666838	99
Es	-1.158181	-1.509313	1.700646	99
Es	2.143655	3.573679	-0.680874	99
Es	1.494511	-0.030039	-0.845742	99
Es	1.845351	2.299576	-0.436250	99
Es	-0.799890	-1.209506	-0.358960	99
Es	-1.598223	-1.872918	2.101542	99
Es	-0.320638	-1.686239	-0.581373	99
Es	1.274818	1.162624	-0.665851	99
Es	-1.581445	-1.606391	1.539726	99
Es	1.875647	2.297022	-0.972664	99
Es	0.353524	0.386781	-0.832751	99
Es	-1.025770	-1.384593	0.354129	99
37
Properties=species:S:1:pos:R:3:Z:I:1 energy=-268.5113736377575 field_type=dipole dipole="0.000000 0.000000 0.000000" charge=0
C	-1.598124	-1.872834	2.101331	6
C	-1.238474	-1.570695	0.995201	6
C	-0.799864	-1.209525	-0.359089	6
C	-0.237964	0.180335	-0.358909	6
C	1.033536	0.475296	-0.666799	6
C	1.502866	1.800645	-0.666799	6
C	1.900146	2.922545	-0.666799	6
H	-1.914304	-2.137694	3.084221	1
H	-1.648004	-1.249315	-1.051709	1
H	-0.060924	-1.935915	-0.716439	1
H	-0.930314	0.980536	-0.102769	1
H	1.737176	-0.310395	-0.926389	1
H	2.254246	3.927016	-0.665049	1
Es	2.011989	2.256259	-0.811227	99
Es	-0.320625	-1.686583	-0.581670	99
Es	1.502762	1.800386	-0.666790	99
Es	2.143561	3.573805	-0.680833	99
Es	-0.238061	0.180251	-0.358877	99
Es	-1.598226	-1.872912	2.101541	99
Es	-0.696998	0.701329	-0.182640	99
Es	-0.514756	-0.521808	-0.351104	99
Es	0.512337	0.315041	-0.209307	99
Es	-1.154959	-1.515086	1.700265	99
Es	-1.026102	-1.383453	0.355319	99
Es	1.900243	2.922804	-0.666817	99
Es	1.582163	2.399397	-0.332872	99
Es	-1.238370	-1.570597	0.994937	99
Es	1.494974	-0.030447	-0.845093	99
Es	-0.799890	-1.209505	-0.358959	99
Es	1.274941	1.162648	-0.665674	99
Es	-1.511581	-2.050174	1.432526	99
Es	1.033654	0.475412	-0.666844	99
Es	-1.822491	-2.067636	2.722638	99
Es	-1.592681	-1.598876	1.537933	99
Es	0.354627	0.386548	-0.832125	99
Es	-1.345570	-1.232161	-0.794879	99
Es	1.498333	2.425187	-0.854035	99
37
Properties=species:S:1:pos:R:3:Z:I:1 energy=-268.5113736377575 field_type=dipole dipole="0.000000 0.000000 0.000000" charge=0
C	-1.598124	-1.872834	2.101331	6
C	-1.238474	-1.570695	0.995201	6
C	-0.799864	-1.209525	-0.359089	6
C	-0.237964	0.180335	-0.358909	6
C	1.033536	0.475296	-0.666799	6
C	1.502866	1.800645	-0.666799	6
C	1.900146	2.922545	-0.666799	6
H	-1.914304	-2.137694	3.084221	1
H	-1.648004	-1.249315	-1.051709	1
H	-0.060924	-1.935915	-0.716439	1
H	-0.930314	0.980536	-0.102769	1
H	1.737176	-0.310395	-0.926389	1
H	2.254246	3.927016	-0.665049	1
Es	-1.598211	-1.872922	2.101544	99
Es	1.275096	1.162579	-0.665803	99
Es	1.033652	0.475412	-0.666845	99
Es	-0.514826	-0.521774	-0.351086	99
Es	2.011679	2.256375	-0.812694	99
Es	-1.238359	-1.570591	0.994943	99
Es	-1.681376	-1.926679	1.415560	99
Es	2.143996	3.573565	-0.680810	99
Es	-0.238060	0.180248	-0.358875	99
Es	0.354037	0.386346	-0.832788	99
Es	-0.320961	-1.686147	-0.581346	99
Es	-0.696604	0.700925	-0.182874	99
Es	1.502431	2.423621	-0.851293	99
Es	1.494537	-0.029894	-0.844769	99
Es	0.512961	0.315134	-0.208641	99
Es	-1.026367	-1.383727	0.354989	99
Es	-1.823596	-2.067729	2.721591	99
Es	-0.799889	-1.209505	-0.358958	99
Es	1.578176	2.400958	-0.334176	99
Es	1.900251	2.922800	-0.666819	99
Es	-1.345436	-1.232238	-0.795090	99
Es	-1.251018	-1.847648	1.581256	99
Es	1.502744	1.800396	-0.666766	99
Es	-1.325586	-1.389677	1.675162	99
