43
Properties=species:S:1:pos:R:3:Z:I:1 energy=-270.90940144749425 field_type=dipole dipole="0.000000 0.000000 0.000000" charge=0
C	-2.136741	-1.245207	0.512037	6
C	-0.652651	-1.060497	0.533636	6
C	0.048229	0.074893	0.332946	6
C	-0.567370	1.430203	0.099206	6
C	1.564540	0.061673	0.376586	6
C	2.126789	0.277523	-0.965043	6
C	2.591919	0.452943	-2.059034	6
H	-2.388981	-2.084027	-0.145024	1
H	-2.682311	-0.373617	0.145756	1
H	-2.496171	-1.482307	1.517926	1
H	-0.101531	-1.983117	0.716326	1
H	-1.642691	1.454783	0.288946	1
H	-0.401251	1.753823	-0.933113	1
H	-0.116550	2.170173	0.769557	1
H	1.936549	-0.890997	0.773066	1
H	1.917939	0.836673	1.066987	1
H	3.000279	0.607083	-3.030763	1
Es	-0.652733	-1.060582	0.533644	99
Es	-1.398218	-1.133741	0.520473	99
Es	1.815974	-0.577574	0.625353	99
Es	-0.450776	1.639851	-0.592607	99
Es	2.126688	0.277477	-0.964790	99
Es	2.581158	0.622234	-1.396046	99
Es	-1.296579	1.437462	0.227598	99
Es	0.824359	0.069244	0.341186	99
Es	2.037894	0.454471	-1.644572	99
Es	0.048337	0.075018	0.332942	99
Es	-0.567348	1.430161	0.099219	99
Es	1.852697	0.179333	-0.320830	99
Es	-0.264676	0.749728	0.213430	99
Es	1.564560	0.061701	0.376450	99
Es	2.473416	0.026722	-1.532260	99
Es	2.592011	0.452981	-2.059257	99
Es	-2.136697	-1.245205	0.512040	99
Es	-2.501597	-0.649013	0.265915	99
Es	-0.278044	-1.692808	0.660533	99
Es	2.858553	0.553684	-2.693868	99
Es	1.801413	0.588374	0.821817	99
Es	-2.370672	-1.404437	1.192964	99
Es	-0.310601	-0.432925	0.766390	99
Es	-2.298395	-1.813308	0.068977	99
Es	-0.252829	1.922877	0.555376	99
Es	-0.296578	-0.553912	0.108828	99
43
Properties=species:S:1:pos:R:3:Z:I:1 energy=-270.90940144749425 field_type=dipole dipole="0.000000 0.000000 0.000000" charge=0
C	-2.136741	-1.245207	0.512037	6
C	-0.652651	-1.060497	0.533636	6
C	0.048229	0.074893	0.332946	6
C	-0.567370	1.430203	0.099206	6
C	1.564540	0.061673	0.376586	6
C	2.126789	0.277523	-0.965043	6
C	2.591919	0.452943	-2.059034	6
H	-2.388981	-2.084027	-0.145024	1
H	-2.682311	-0.373617	0.145756	1
H	-2.496171	-1.482307	1.517926	1
H	-0.101531	-1.983117	0.716326	1
H	-1.642691	1.454783	0.288946	1
H	-0.401251	1.753823	-0.933113	1
H	-0.116550	2.170173	0.769557	1
H	1.936549	-0.890997	0.773066	1
H	1.917939	0.836673	1.066987	1
H	3.000279	0.607083	-3.030763	1
Es	-2.136697	-1.245204	0.512041	99
Es	-0.296364	-0.554884	0.103659	99
Es	-0.279769	-1.690346	0.663424	99
Es	1.814472	-0.576333	0.626126	99
Es	2.861611	0.558111	-2.693319	99
Es	2.126675	0.277472	-0.964788	99
Es	-1.295839	1.436419	0.229343	99
Es	-0.567349	1.430161	0.099219	99
Es	-2.499314	-0.651835	0.265560	99
Es	1.799846	0.586736	0.822670	99
Es	-1.398360	-1.133386	0.522507	99
Es	1.852674	0.176975	-0.323741	99
Es	2.143254	0.111240	-1.659898	99
Es	2.672871	0.277523	-1.406601	99
Es	2.592010	0.452993	-2.059263	99
Es	0.048338	0.075016	0.332915	99
Es	-0.253720	1.920289	0.556107	99
Es	-2.297470	-1.810795	0.067569	99
Es	-0.652735	-1.060581	0.533655	99
Es	-0.449472	1.641060	-0.596041	99
Es	-2.373072	-1.405175	1.196556	99
Es	2.274756	0.713371	-1.506977	99
Es	-0.264196	0.750413	0.212108	99
Es	-0.310270	-0.432465	0.770639	99
Es	0.824872	0.069333	0.338981	99
Es	1.564562	0.061703	0.376452	99
43
Properties=species:S:1:pos:R:3:Z:I:1 energy=-270.90940144749425 field_type=dipole dipole="0.000000 0.000000 0.000000" charge=0
C	-2.136741	-1.245207	0.512037	6
C	-0.652651	-1.060497	0.533636	6
C	0.048229	0.074893	0.332946	6
C	-0.567370	1.430203	0.099206	6
C	1.564540	0.061673	0.376586	6
C	2.126789	0.277523	-0.965043	6
C	2.591919	0.452943	-2.059034	6
H	-2.388981	-2.084027	-0.145024	1
H	-2.682311	-0.373617	0.145756	1
H	-2.496171	-1.482307	1.517926	1
H	-0.101531	-1.983117	0.716326	1
H	-1.642691	1.454783	0.288946	1
H	-0.401251	1.753823	-0.933113	1
H	-0.116550	2.170173	0.769557	1
H	1.936549	-0.890997	0.773066	1
H	1.917939	0.836673	1.066987	1
H	3.000279	0.607083	-3.030763	1
Es	1.852506	0.176045	-0.325559	99
Es	0.825747	0.069351	0.337502	99
Es	2.218736	0.686779	-1.533729	99
Es	-0.264071	0.750998	0.211172	99
Es	2.126674	0.277478	-0.964784	99
Es	-2.297158	-1.809097	0.066927	99
Es	1.798638	0.585704	0.823472	99
Es	-2.374598	-1.405488	1.198158	99
Es	-0.652735	-1.060582	0.533653	99
Es	2.199439	0.059407	-1.644640	99
Es	0.048335	0.075018	0.332914	99
Es	1.813284	-0.575811	0.626351	99
Es	-0.567347	1.430162	0.099220	99
Es	2.592014	0.452987	-2.059264	99
Es	2.863051	0.561402	-2.692423	99
Es	-2.498004	-0.654300	0.265864	99
Es	-0.296320	-0.555760	0.101130	99
Es	-0.448436	1.641901	-0.597602	99
Es	-0.254254	1.918441	0.556485	99
Es	1.564560	0.061702	0.376451	99
Es	-1.295612	1.435647	0.230338	99
Es	-1.398046	-1.132937	0.523299	99
Es	2.672193	0.354327	-1.395678	99
Es	-0.309836	-0.432002	0.772939	99
Es	-0.280742	-1.688357	0.664664	99
Es	-2.136700	-1.245204	0.512041	99
43
Properties=species:S:1:pos:R:3:Z:I:1 energy=-270.90940144749425 field_type=dipole dipole="0.000000 0.000000 0.000000" charge=0
C	-2.136741	-1.245207	0.512037	6
C	-0.652651	-1.060497	0.533636	6
C	0.048229	0.074893	0.332946	6
C	-0.567370	1.430203	0.099206	6
C	1.564540	0.061673	0.376586	6
C	2.126789	0.277523	-0.965043	6
C	2.591919	0.452943	-2.059034	6
H	-2.388981	-2.084027	-0.145024	1
H	-2.682311	-0.373617	0.145756	1
H	-2.496171	-1.482307	1.517926	1
H	-0.101531	-1.983117	0.716326	1
H	-1.642691	1.454783	0.288946	1
H	-0.401251	1.753823	-0.933113	1
H	-0.116550	2.170173	0.769557	1
H	1.936549	-0.890997	0.773066	1
H	1.917939	0.836673	1.066987	1
H	3.000279	0.607083	-3.030763	1
Es	0.826129	0.069449	0.336181	99
Es	-0.567345	1.430162	0.099221	99
Es	-2.296363	-1.807391	0.067194	99
Es	2.126663	0.277472	-0.964784	99
Es	2.862616	0.562733	-2.692529	99
Es	1.851666	0.175704	-0.326933	99
Es	-0.296450	-0.555930	0.100786	99
Es	-2.375600	-1.406571	1.198856	99
Es	2.619948	0.582518	-1.381847	99
Es	-1.397999	-1.132718	0.524352	99
Es	2.354015	0.004636	-1.587423	99
Es	-2.497701	-0.655147	0.265600	99
Es	2.118280	0.513249	-1.603928	99
Es	-0.255139	1.916515	0.555805	99
Es	-1.295804	1.435536	0.231305	99
Es	-2.136698	-1.245206	0.512041	99
Es	1.564560	0.061703	0.376448	99
Es	0.048340	0.075018	0.332915	99
Es	-0.263933	0.751339	0.210630	99
Es	-0.280850	-1.687302	0.665872	99
Es	1.797515	0.584585	0.822715	99
Es	-0.447334	1.643044	-0.598361	99
Es	2.592016	0.452993	-2.059263	99
Es	-0.309488	-0.432013	0.773050	99
Es	-0.652735	-1.060583	0.533654	99
Es	1.813011	-0.575980	0.627347	99
43
Properties=species:S:1:pos:R:3:Z:I:1 energy=-270.90940144749425 field_type=dipole dipole="0.000000 0.000000 0.000000" charge=0
C	-2.136741	-1.245207	0.512037	6
C	-0.652651	-1.060497	0.533636	6
C	0.048229	0.074893	0.332946	6
C	-0.567370	1.430203	0.099206	6
C	1.564540	0.061673	0.376586	6
C	2.126789	0.277523	-0.965043	6
C	2.591919	0.452943	-2.059034	6
H	-2.388981	-2.084027	-0.145024	1
H	-2.682311	-0.373617	0.145756	1
H	-2.496171	-1.482307	1.517926	1
H	-0.101531	-1.983117	0.716326	1
H	-1.642691	1.454783	0.288946	1
H	-0.401251	1.753823	-0.933113	1
H	-0.116550	2.170173	0.769557	1
H	1.936549	-0.890997	0.773066	1
H	1.917939	0.836673	1.066987	1
H	3.000279	0.607083	-3.030763	1
Es	-0.567349	1.430162	0.099219	99
Es	-2.136698	-1.245205	0.512042	99
Es	2.344546	0.727996	-1.474050	99
Es	-0.309642	-0.431608	0.773487	99
Es	2.592020	0.452989	-2.059264	99
Es	0.048341	0.075015	0.332907	99
Es	1.812678	-0.575857	0.627800	99
Es	-0.652737	-1.060581	0.533657	99
Es	-2.497423	-0.656979	0.265989	99
Es	-0.446575	1.643483	-0.598886	99
Es	1.564562	0.061702	0.376450	99
Es	-0.296086	-0.556682	0.099875	99
Es	-0.255489	1.915386	0.555688	99
Es	2.864489	0.563475	-2.691534	99
Es	-0.281164	-1.685591	0.666758	99
Es	1.796902	0.583696	0.822372	99
Es	2.137427	0.109234	-1.661718	99
Es	0.826418	0.069862	0.335785	99
Es	1.852853	0.174613	-0.327388	99
Es	-1.296058	1.434758	0.231996	99
Es	-2.296060	-1.805982	0.067318	99
Es	2.126681	0.277478	-0.964780	99
Es	-2.376577	-1.407235	1.199246	99
Es	2.607696	0.264088	-1.438386	99
Es	-1.397647	-1.132311	0.524408	99
Es	-0.263791	0.751907	0.209911	99
43
Properties=species:S:1:pos:R:3:Z:I:1 energy=-270.90940144749425 field_type=dipole dipole="0.000000 0.000000 0.000000" charge=0
C	-2.136741	-1.245207	0.512037	6
C	-0.652651	-1.060497	0.533636	6
C	0.048229	0.074893	0.332946	6
C	-0.567370	1.430203	0.099206	6
C	1.564540	0.061673	0.376586	6
C	2.126789	0.277523	-0.965043	6
C	2.591919	0.452943	-2.059034	6
H	-2.388981	-2.084027	-0.145024	1
H	-2.682311	-0.373617	0.145756	1
H	-2.496171	-1.482307	1.517926	1
H	-0.101531	-1.983117	0.716326	1
H	-1.642691	1.454783	0.288946	1
H	-0.401251	1.753823	-0.933113	1
H	-0.116550	2.170173	0.769557	1
H	1.936549	-0.890997	0.773066	1
H	1.917939	0.836673	1.066987	1
H	3.000279	0.607083	-3.030763	1
Es	2.864655	0.564297	-2.691278	99
Es	1.796316	0.582792	0.822075	99
Es	-0.296129	-0.556776	0.099879	99
Es	-2.136697	-1.245205	0.512042	99
Es	2.126674	0.277469	-0.964780	99
Es	1.852960	0.174791	-0.327790	99
Es	2.139498	0.106087	-1.661011	99
Es	-1.397578	-1.132245	0.524973	99
Es	-0.256085	1.914076	0.555184	99
Es	2.587250	0.266621	-1.447183	99
Es	-2.295613	-1.804968	0.067633	99
Es	-2.497342	-0.657472	0.265890	99
Es	0.826745	0.069987	0.335094	99
Es	-0.567349	1.430163	0.099220	99
Es	-0.309637	-0.431526	0.773369	99
Es	-0.263619	0.752225	0.209354	99
Es	1.564561	0.061702	0.376449	99
Es	-1.296268	1.434373	0.232683	99
Es	-0.281195	-1.684800	0.667366	99
Es	-0.652736	-1.060580	0.533659	99
Es	2.592031	0.452983	-2.059260	99
Es	-2.377102	-1.407941	1.199439	99
Es	1.812458	-0.576065	0.628072	99
Es	-0.445870	1.644353	-0.599128	99
Es	2.363049	0.728459	-1.465952	99
Es	0.048339	0.075012	0.332904	99
43
Properties=species:S:1:pos:R:3:Z:I:1 energy=-270.90940144749425 field_type=dipole dipole="0.000000 0.000000 0.000000" charge=0
C	-2.136741	-1.245207	0.512037	6
C	-0.652651	-1.060497	0.533636	6
C	0.048229	0.074893	0.332946	6
C	-0.567370	1.430203	0.099206	6
C	1.564540	0.061673	0.376586	6
C	2.126789	0.277523	-0.965043	6
C	2.591919	0.452943	-2.059034	6
H	-2.388981	-2.084027	-0.145024	1
H	-2.682311	-0.373617	0.145756	1
H	-2.496171	-1.482307	1.517926	1
H	-0.101531	-1.983117	0.716326	1
H	-1.642691	1.454783	0.288946	1
H	-0.401251	1.753823	-0.933113	1
H	-0.116550	2.170173	0.769557	1
H	1.936549	-0.890997	0.773066	1
H	1.917939	0.836673	1.066987	1
H	3.000279	0.607083	-3.030763	1
Es	-1.296377	1.434215	0.233125	99
Es	2.375079	0.727753	-1.460835	99
Es	-2.377549	-1.408358	1.199586	99
Es	1.795889	0.582007	0.821599	99
Es	1.564563	0.061702	0.376451	99
Es	2.592029	0.452987	-2.059264	99
Es	2.572063	0.270465	-1.453365	99
Es	-2.136697	-1.245205	0.512042	99
Es	0.826980	0.070370	0.334594	99
Es	1.853100	0.174747	-0.328142	99
Es	-1.397440	-1.132111	0.525229	99
Es	2.126672	0.277466	-0.964780	99
Es	-0.567346	1.430162	0.099219	99
Es	2.864849	0.565051	-2.691027	99
Es	-2.497276	-0.658051	0.265766	99
Es	-0.263564	0.752449	0.209074	99
Es	2.142694	0.102791	-1.659961	99
Es	0.048339	0.075014	0.332909	99
Es	-0.281275	-1.684189	0.667754	99
Es	-0.256525	1.913218	0.554752	99
Es	-0.652734	-1.060580	0.533651	99
Es	1.812081	-0.576318	0.628526	99
Es	-0.445343	1.644852	-0.599285	99
Es	-0.296088	-0.556897	0.099860	99
Es	-0.309462	-0.431571	0.773328	99
Es	-2.295345	-1.804157	0.068095	99
43
Properties=species:S:1:pos:R:3:Z:I:1 energy=-270.90940144749425 field_type=dipole dipole="0.000000 0.000000 0.000000" charge=0
C	-2.136741	-1.245207	0.512037	6
C	-0.652651	-1.060497	0.533636	6
C	0.048229	0.074893	0.332946	6
C	-0.567370	1.430203	0.099206	6
C	1.564540	0.061673	0.376586	6
C	2.126789	0.277523	-0.965043	6
C	2.591919	0.452943	-2.059034	6
H	-2.388981	-2.084027	-0.145024	1
H	-2.682311	-0.373617	0.145756	1
H	-2.496171	-1.482307	1.517926	1
H	-0.101531	-1.983117	0.716326	1
H	-1.642691	1.454783	0.288946	1
H	-0.401251	1.753823	-0.933113	1
H	-0.116550	2.170173	0.769557	1
H	1.936549	-0.890997	0.773066	1
H	1.917939	0.836673	1.066987	1
H	3.000279	0.607083	-3.030763	1
Es	-0.256731	1.912496	0.554388	99
Es	2.561464	0.279253	-1.456749	99
Es	-0.263466	0.752672	0.208517	99
Es	-1.296522	1.433722	0.233752	99
Es	-2.497249	-0.658899	0.266108	99
Es	-0.309635	-0.431435	0.773137	99
Es	-0.652736	-1.060580	0.533662	99
Es	-0.445098	1.645288	-0.599412	99
Es	2.377142	0.727469	-1.459893	99
Es	1.853294	0.174780	-0.328322	99
Es	-1.397273	-1.131970	0.525230	99
Es	-0.567348	1.430162	0.099219	99
Es	-0.295893	-0.557160	0.099787	99
Es	0.048336	0.075014	0.332907	99
Es	2.864900	0.565772	-2.690772	99
Es	2.151211	0.093994	-1.657633	99
Es	1.795500	0.581524	0.821280	99
Es	-0.281253	-1.683226	0.668240	99
Es	-2.295244	-1.803304	0.068281	99
Es	2.126669	0.277465	-0.964782	99
Es	-2.136697	-1.245205	0.512043	99
Es	1.564561	0.061700	0.376453	99
Es	-2.377888	-1.408932	1.199636	99
Es	0.827218	0.070630	0.334294	99
Es	1.812037	-0.576412	0.628795	99
Es	2.592022	0.452992	-2.059263	99
43
Properties=species:S:1:pos:R:3:Z:I:1 energy=-270.90940144749425 field_type=dipole dipole="0.000000 0.000000 0.000000" charge=0
C	-2.136741	-1.245207	0.512037	6
C	-0.652651	-1.060497	0.533636	6
C	0.048229	0.074893	0.332946	6
C	-0.567370	1.430203	0.099206	6
C	1.564540	0.061673	0.376586	6
C	2.126789	0.277523	-0.965043	6
C	2.591919	0.452943	-2.059034	6
H	-2.388981	-2.084027	-0.145024	1
H	-2.682311	-0.373617	0.145756	1
H	-2.496171	-1.482307	1.517926	1
H	-0.101531	-1.983117	0.716326	1
H	-1.642691	1.454783	0.288946	1
H	-0.401251	1.753823	-0.933113	1
H	-0.116550	2.170173	0.769557	1
H	1.936549	-0.890997	0.773066	1
H	1.917939	0.836673	1.066987	1
H	3.000279	0.607083	-3.030763	1
Es	-1.397117	-1.131634	0.525463	99
Es	2.126662	0.277467	-0.964785	99
Es	-0.281203	-1.683139	0.668434	99
Es	-2.497372	-0.659192	0.265988	99
Es	-0.296099	-0.556993	0.099944	99
Es	1.795135	0.581015	0.820845	99
Es	1.564561	0.061698	0.376447	99
Es	1.852483	0.175315	-0.328827	99
Es	2.183773	0.461983	-1.586685	99
Es	-0.652737	-1.060579	0.533661	99
Es	-0.257154	1.911630	0.553988	99
Es	-2.136697	-1.245205	0.512042	99
Es	2.577465	0.632766	-1.390821	99
Es	0.048338	0.075014	0.332905	99
Es	-0.263427	0.752882	0.208426	99
Es	-0.444510	1.645887	-0.599350	99
Es	-1.296691	1.433751	0.234016	99
Es	2.864163	0.566535	-2.690929	99
Es	-2.378157	-1.409487	1.199641	99
Es	2.330386	0.005050	-1.596139	99
Es	1.811659	-0.576752	0.629263	99
Es	-0.567348	1.430162	0.099219	99
Es	-2.294896	-1.802629	0.068696	99
Es	2.592010	0.452987	-2.059267	99
Es	-0.309495	-0.431557	0.772956	99
Es	0.827586	0.070838	0.333771	99
43
Properties=species:S:1:pos:R:3:Z:I:1 energy=-270.90940144749425 field_type=dipole dipole="0.000000 0.000000 0.000000" charge=0
C	-2.136741	-1.245207	0.512037	6
C	-0.652651	-1.060497	0.533636	6
C	0.048229	0.074893	0.332946	6
C	-0.567370	1.430203	0.099206	6
C	1.564540	0.061673	0.376586	6
C	2.126789	0.277523	-0.965043	6
C	2.591919	0.452943	-2.059034	6
H	-2.388981	-2.084027	-0.145024	1
H	-2.682311	-0.373617	0.145756	1
H	-2.496171	-1.482307	1.517926	1
H	-0.101531	-1.983117	0.716326	1
H	-1.642691	1.454783	0.288946	1
H	-0.401251	1.753823	-0.933113	1
H	-0.116550	2.170173	0.769557	1
H	1.936549	-0.890997	0.773066	1
H	1.917939	0.836673	1.066987	1
H	3.000279	0.607083	-3.030763	1
Es	2.326334	0.005818	-1.597626	99
Es	0.827800	0.071131	0.333569	99
Es	-1.397007	-1.131303	0.525528	99
Es	-0.309517	-0.431558	0.772801	99
Es	1.811514	-0.576924	0.629502	99
Es	0.048337	0.075014	0.332904	99
Es	2.592015	0.452997	-2.059266	99
Es	1.852659	0.175354	-0.328917	99
Es	2.192262	0.457041	-1.584086	99
Es	-2.378430	-1.409776	1.199661	99
Es	-0.652728	-1.060588	0.533664	99
Es	-2.294749	-1.802146	0.068862	99
Es	-2.497337	-0.659960	0.266198	99
Es	-0.444251	1.646215	-0.599381	99
Es	-0.281201	-1.682559	0.668652	99
Es	-0.567346	1.430161	0.099220	99
Es	-0.295960	-0.557111	0.100062	99
Es	-0.257449	1.911124	0.553605	99
Es	1.564561	0.061702	0.376452	99
Es	-2.136695	-1.245210	0.512039	99
Es	-0.263463	0.752891	0.208159	99
Es	-1.296742	1.433647	0.234330	99
Es	2.126665	0.277466	-0.964783	99
Es	2.572977	0.636925	-1.391972	99
Es	2.864202	0.566881	-2.690809	99
Es	1.794869	0.580581	0.820534	99
43
Properties=species:S:1:pos:R:3:Z:I:1 energy=-270.90940144749425 field_type=dipole dipole="0.000000 0.000000 0.000000" charge=0
C	-2.136741	-1.245207	0.512037	6
C	-0.652651	-1.060497	0.533636	6
C	0.048229	0.074893	0.332946	6
C	-0.567370	1.430203	0.099206	6
C	1.564540	0.061673	0.376586	6
C	2.126789	0.277523	-0.965043	6
C	2.591919	0.452943	-2.059034	6
H	-2.388981	-2.084027	-0.145024	1
H	-2.682311	-0.373617	0.145756	1
H	-2.496171	-1.482307	1.517926	1
H	-0.101531	-1.983117	0.716326	1
H	-1.642691	1.454783	0.288946	1
H	-0.401251	1.753823	-0.933113	1
H	-0.116550	2.170173	0.769557	1
H	1.936549	-0.890997	0.773066	1
H	1.917939	0.836673	1.066987	1
H	3.000279	0.607083	-3.030763	1
Es	2.865085	0.566749	-2.690420	99
Es	2.126667	0.277466	-0.964780	99
Es	-2.136698	-1.245206	0.512042	99
Es	0.048337	0.075014	0.332906	99
Es	-0.263446	0.753043	0.207813	99
Es	-2.294576	-1.801660	0.069143	99
Es	1.794590	0.580247	0.820314	99
Es	2.401402	0.724018	-1.450033	99
Es	2.158712	0.087317	-1.655098	99
Es	-0.281183	-1.682212	0.669012	99
Es	-2.497310	-0.659633	0.265954	99
Es	-0.257731	1.910505	0.553443	99
Es	-1.296790	1.433371	0.234572	99
Es	1.564561	0.061702	0.376452	99
Es	0.827974	0.071282	0.333269	99
Es	1.853612	0.174992	-0.328722	99
Es	-0.295859	-0.557211	0.100086	99
Es	2.592020	0.452992	-2.059265	99
Es	2.529797	0.289255	-1.469133	99
Es	1.811370	-0.577052	0.629740	99
Es	-2.378589	-1.410162	1.199654	99
Es	-0.652738	-1.060580	0.533662	99
Es	-1.397026	-1.131797	0.525752	99
Es	-0.567346	1.430158	0.099217	99
Es	-0.309592	-0.431483	0.772700	99
Es	-0.443925	1.646696	-0.599377	99
43
Properties=species:S:1:pos:R:3:Z:I:1 energy=-270.90940144749425 field_type=dipole dipole="0.000000 0.000000 0.000000" charge=0
C	-2.136741	-1.245207	0.512037	6
C	-0.652651	-1.060497	0.533636	6
C	0.048229	0.074893	0.332946	6
C	-0.567370	1.430203	0.099206	6
C	1.564540	0.061673	0.376586	6
C	2.126789	0.277523	-0.965043	6
C	2.591919	0.452943	-2.059034	6
H	-2.388981	-2.084027	-0.145024	1
H	-2.682311	-0.373617	0.145756	1
H	-2.496171	-1.482307	1.517926	1
H	-0.101531	-1.983117	0.716326	1
H	-1.642691	1.454783	0.288946	1
H	-0.401251	1.753823	-0.933113	1
H	-0.116550	2.170173	0.769557	1
H	1.936549	-0.890997	0.773066	1
H	1.917939	0.836673	1.066987	1
H	3.000279	0.607083	-3.030763	1
Es	-2.294453	-1.801137	0.069434	99
Es	2.402291	0.723723	-1.449648	99
Es	-1.296853	1.433105	0.234979	99
Es	-2.497414	-0.660335	0.266142	99
Es	1.811301	-0.577121	0.629952	99
Es	-0.263420	0.753146	0.207585	99
Es	1.794479	0.579983	0.820036	99
Es	-0.652737	-1.060578	0.533665	99
Es	2.865017	0.567196	-2.690291	99
Es	2.522498	0.294915	-1.471465	99
Es	0.048337	0.075013	0.332906	99
Es	-1.396953	-1.131579	0.525542	99
Es	0.828080	0.071588	0.333103	99
Es	-0.295676	-0.557369	0.100113	99
Es	-2.378766	-1.410536	1.199635	99
Es	2.126667	0.277465	-0.964781	99
Es	-0.309725	-0.431430	0.772527	99
Es	2.165100	0.081687	-1.653264	99
Es	1.564561	0.061699	0.376449	99
Es	1.853854	0.174967	-0.328701	99
Es	2.592021	0.452997	-2.059264	99
Es	-0.257770	1.910222	0.553165	99
Es	-0.567347	1.430160	0.099219	99
Es	-0.281187	-1.681547	0.669280	99
Es	-0.443889	1.646782	-0.599455	99
Es	-2.136698	-1.245205	0.512042	99
43
Properties=species:S:1:pos:R:3:Z:I:1 energy=-270.90940144749425 field_type=dipole dipole="0.000000 0.000000 0.000000" charge=0
C	-2.136741	-1.245207	0.512037	6
C	-0.652651	-1.060497	0.533636	6
C	0.048229	0.074893	0.332946	6
C	-0.567370	1.430203	0.099206	6
C	1.564540	0.061673	0.376586	6
C	2.126789	0.277523	-0.965043	6
C	2.591919	0.452943	-2.059034	6
H	-2.388981	-2.084027	-0.145024	1
H	-2.682311	-0.373617	0.145756	1
H	-2.496171	-1.482307	1.517926	1
H	-0.101531	-1.983117	0.716326	1
H	-1.642691	1.454783	0.288946	1
H	-0.401251	1.753823	-0.933113	1
H	-0.116550	2.170173	0.769557	1
H	1.936549	-0.890997	0.773066	1
H	1.917939	0.836673	1.066987	1
H	3.000279	0.607083	-3.030763	1
Es	2.864926	0.567352	-2.690305	99
Es	0.828138	0.071361	0.332937	99
Es	-0.443348	1.647396	-0.599322	99
Es	1.853607	0.175133	-0.328882	99
Es	-0.652738	-1.060578	0.533668	99
Es	-0.281176	-1.681622	0.669462	99
Es	2.592022	0.452994	-2.059263	99
Es	-0.309696	-0.431518	0.772330	99
Es	-0.295775	-0.557218	0.100347	99
Es	-1.396930	-1.131701	0.525980	99
Es	-2.378805	-1.410628	1.199630	99
Es	-1.296986	1.433215	0.235224	99
Es	2.411948	0.721746	-1.445870	99
Es	-0.258277	1.909397	0.552608	99
Es	-2.136698	-1.245205	0.512042	99
Es	1.811362	-0.577176	0.630056	99
Es	2.126668	0.277462	-0.964782	99
Es	2.511556	0.298087	-1.475733	99
Es	-2.497443	-0.659933	0.265870	99
Es	-0.263315	0.753275	0.207562	99
Es	-2.294323	-1.801049	0.069569	99
Es	0.048339	0.075013	0.332905	99
Es	2.166706	0.080439	-1.652611	99
Es	1.794341	0.579705	0.819812	99
Es	-0.567347	1.430162	0.099219	99
Es	1.564561	0.061702	0.376449	99
43
Properties=species:S:1:pos:R:3:Z:I:1 energy=-270.90940144749425 field_type=dipole dipole="0.000000 0.000000 0.000000" charge=0
C	-2.136741	-1.245207	0.512037	6
C	-0.652651	-1.060497	0.533636	6
C	0.048229	0.074893	0.332946	6
C	-0.567370	1.430203	0.099206	6
C	1.564540	0.061673	0.376586	6
C	2.126789	0.277523	-0.965043	6
C	2.591919	0.452943	-2.059034	6
H	-2.388981	-2.084027	-0.145024	1
H	-2.682311	-0.373617	0.145756	1
H	-2.496171	-1.482307	1.517926	1
H	-0.101531	-1.983117	0.716326	1
H	-1.642691	1.454783	0.288946	1
H	-0.401251	1.753823	-0.933113	1
H	-0.116550	2.170173	0.769557	1
H	1.936549	-0.890997	0.773066	1
H	1.917939	0.836673	1.066987	1
H	3.000279	0.607083	-3.030763	1
Es	-2.379080	-1.410840	1.199634	99
Es	-0.567347	1.430161	0.099219	99
Es	-0.263416	0.753318	0.207544	99
Es	-2.294169	-1.800613	0.069835	99
Es	-0.309577	-0.431745	0.771980	99
Es	0.828188	0.071569	0.332717	99
Es	-0.258344	1.909239	0.552423	99
Es	1.853264	0.175621	-0.329043	99
Es	2.302600	0.010932	-1.606338	99
Es	-0.295792	-0.557174	0.100476	99
Es	-0.443276	1.647481	-0.599295	99
Es	-2.136700	-1.245203	0.512041	99
Es	2.228649	0.440801	-1.572024	99
Es	1.794140	0.579293	0.819488	99
Es	-0.281058	-1.681577	0.669672	99
Es	2.864728	0.567654	-2.690335	99
Es	-0.652737	-1.060579	0.533665	99
Es	0.048338	0.075013	0.332904	99
Es	2.126665	0.277466	-0.964783	99
Es	-1.396859	-1.131655	0.526152	99
Es	1.564559	0.061702	0.376449	99
Es	2.592016	0.452995	-2.059266	99
Es	1.811124	-0.577352	0.630311	99
Es	2.559759	0.648013	-1.395594	99
Es	-2.497343	-0.660093	0.265752	99
Es	-1.297013	1.433385	0.235320	99
43
Properties=species:S:1:pos:R:3:Z:I:1 energy=-270.90940144749425 field_type=dipole dipole="0.000000 0.000000 0.000000" charge=0
C	-2.136741	-1.245207	0.512037	6
C	-0.652651	-1.060497	0.533636	6
C	0.048229	0.074893	0.332946	6
C	-0.567370	1.430203	0.099206	6
C	1.564540	0.061673	0.376586	6
C	2.126789	0.277523	-0.965043	6
C	2.591919	0.452943	-2.059034	6
H	-2.388981	-2.084027	-0.145024	1
H	-2.682311	-0.373617	0.145756	1
H	-2.496171	-1.482307	1.517926	1
H	-0.101531	-1.983117	0.716326	1
H	-1.642691	1.454783	0.288946	1
H	-0.401251	1.753823	-0.933113	1
H	-0.116550	2.170173	0.769557	1
H	1.936549	-0.890997	0.773066	1
H	1.917939	0.836673	1.066987	1
H	3.000279	0.607083	-3.030763	1
Es	1.811183	-0.577261	0.630230	99
Es	-2.379151	-1.411143	1.199581	99
Es	-2.294157	-1.800289	0.069863	99
Es	-0.309730	-0.431559	0.772078	99
Es	0.828232	0.071674	0.332736	99
Es	-1.396800	-1.131563	0.526034	99
Es	-0.443111	1.647627	-0.599304	99
Es	-0.258450	1.909052	0.552482	99
Es	-2.136697	-1.245206	0.512042	99
Es	-0.652737	-1.060581	0.533656	99
Es	1.853343	0.175579	-0.329098	99
Es	-1.297064	1.432834	0.235436	99
Es	2.230712	0.437536	-1.571711	99
Es	1.564560	0.061700	0.376449	99
Es	-0.281075	-1.681025	0.669693	99
Es	2.864534	0.568030	-2.690282	99
Es	-0.295688	-0.557281	0.100457	99
Es	1.794056	0.579126	0.819491	99
Es	2.592028	0.453002	-2.059259	99
Es	-2.497378	-0.660607	0.266073	99
Es	2.126679	0.277455	-0.964780	99
Es	2.305337	0.010340	-1.605298	99
Es	-0.567347	1.430159	0.099218	99
Es	0.048340	0.075011	0.332900	99
Es	-0.263385	0.753477	0.207176	99
Es	2.555086	0.651725	-1.396962	99
