44
Properties=species:S:1:pos:R:3:Z:I:1 energy=-307.9350394749015 field_type=dipole dipole="0.000000 0.000000 0.000000" charge=0
C	-2.262699	0.649238	0.041977	6
C	-0.803749	0.807418	-0.334493	6
O	-0.185259	1.886398	0.421727	8
C	0.967710	1.044068	0.683047	6
C	0.188801	-0.213842	0.267037	6
C	0.858860	-1.123512	-0.696583	6
C	1.872241	-1.899432	-0.295543	6
H	-2.688469	-0.239842	-0.434233	1
H	-2.842249	1.517468	-0.288573	1
H	-2.391799	0.549618	1.124967	1
H	-0.683689	0.993128	-1.410053	1
H	1.814570	1.335158	0.051837	1
H	1.264901	1.077968	1.734997	1
H	-0.223479	-0.759852	1.125817	1
H	0.511471	-1.162232	-1.725303	1
H	2.239531	-1.889703	0.726987	1
H	2.363310	-2.572042	-0.993613	1
Es	-2.262690	0.649226	0.041956	99
Es	0.516674	-0.672662	-0.225203	99
Es	-1.543035	0.723412	-0.147437	99
Es	-0.342969	1.900156	0.685870	99
Es	-0.803671	0.807562	-0.334349	99
Es	-0.435144	1.501479	0.120823	99
Es	-0.349080	0.220599	-0.070978	99
Es	-0.111251	2.128990	0.239059	99
Es	1.547877	1.231691	0.244887	99
Es	1.167960	-1.757814	-0.422371	99
Es	0.967508	1.044163	0.683004	99
Es	-2.341549	0.576952	0.776583	99
Es	0.270509	1.593644	0.530433	99
Es	1.584760	-1.282899	-0.574557	99
Es	2.122018	-1.893276	0.399651	99
Es	1.872329	-1.899492	-0.295506	99
Es	-0.185176	1.886027	0.421696	99
Es	1.177286	1.065173	1.405184	99
Es	0.858765	-1.123435	-0.696604	99
Es	-0.717535	0.921441	-1.078378	99
Es	-2.651701	1.238041	-0.185906	99
Es	-2.542862	0.041117	-0.287294	99
Es	2.212655	-2.357380	-0.762192	99
Es	0.188822	-0.213815	0.266998	99
Es	0.615905	-1.139509	-1.392002	99
Es	0.654377	0.345994	0.490146	99
Es	-0.087977	-0.583449	0.845870	99
44
Properties=species:S:1:pos:R:3:Z:I:1 energy=-307.9350394749015 field_type=dipole dipole="0.000000 0.000000 0.000000" charge=0
C	-2.262699	0.649238	0.041977	6
C	-0.803749	0.807418	-0.334493	6
O	-0.185259	1.886398	0.421727	8
C	0.967710	1.044068	0.683047	6
C	0.188801	-0.213842	0.267037	6
C	0.858860	-1.123512	-0.696583	6
C	1.872241	-1.899432	-0.295543	6
H	-2.688469	-0.239842	-0.434233	1
H	-2.842249	1.517468	-0.288573	1
H	-2.391799	0.549618	1.124967	1
H	-0.683689	0.993128	-1.410053	1
H	1.814570	1.335158	0.051837	1
H	1.264901	1.077968	1.734997	1
H	-0.223479	-0.759852	1.125817	1
H	0.511471	-1.162232	-1.725303	1
H	2.239531	-1.889703	0.726987	1
H	2.363310	-2.572042	-0.993613	1
Es	1.585164	-1.282799	-0.574903	99
Es	0.858771	-1.123443	-0.696601	99
Es	0.967506	1.044166	0.683008	99
Es	-0.113592	2.130190	0.241747	99
Es	-0.717853	0.921996	-1.077443	99
Es	-0.803672	0.807562	-0.334349	99
Es	1.177915	1.064849	1.405527	99
Es	-0.350672	0.220091	-0.071919	99
Es	-2.541610	0.041645	-0.285803	99
Es	0.272978	1.592587	0.534261	99
Es	1.547121	1.231134	0.245149	99
Es	0.654555	0.345377	0.490009	99
Es	2.122806	-1.892858	0.399767	99
Es	0.517334	-0.673300	-0.224206	99
Es	-0.436650	1.503003	0.120365	99
Es	-0.341968	1.898635	0.679427	99
Es	1.167648	-1.758157	-0.421972	99
Es	0.188822	-0.213813	0.266999	99
Es	-1.542946	0.723231	-0.147651	99
Es	0.615267	-1.139826	-1.392008	99
Es	-0.086251	-0.582875	0.845027	99
Es	-2.341221	0.576018	0.775363	99
Es	-0.185194	1.886132	0.421618	99
Es	-2.262689	0.649226	0.041956	99
Es	2.212473	-2.356820	-0.761860	99
Es	-2.653569	1.239478	-0.186616	99
Es	1.872332	-1.899490	-0.295506	99
44
Properties=species:S:1:pos:R:3:Z:I:1 energy=-307.9350394749015 field_type=dipole dipole="0.000000 0.000000 0.000000" charge=0
C	-2.262699	0.649238	0.041977	6
C	-0.803749	0.807418	-0.334493	6
O	-0.185259	1.886398	0.421727	8
C	0.967710	1.044068	0.683047	6
C	0.188801	-0.213842	0.267037	6
C	0.858860	-1.123512	-0.696583	6
C	1.872241	-1.899432	-0.295543	6
H	-2.688469	-0.239842	-0.434233	1
H	-2.842249	1.517468	-0.288573	1
H	-2.391799	0.549618	1.124967	1
H	-0.683689	0.993128	-1.410053	1
H	1.814570	1.335158	0.051837	1
H	1.264901	1.077968	1.734997	1
H	-0.223479	-0.759852	1.125817	1
H	0.511471	-1.162232	-1.725303	1
H	2.239531	-1.889703	0.726987	1
H	2.363310	-2.572042	-0.993613	1
Es	-0.351474	0.219993	-0.072532	99
Es	-0.803673	0.807561	-0.334350	99
Es	1.167484	-1.758274	-0.421695	99
Es	0.274978	1.592894	0.535495	99
Es	-0.085289	-0.582421	0.844131	99
Es	-2.540675	0.042259	-0.284745	99
Es	-2.654878	1.240327	-0.187093	99
Es	2.123424	-1.892826	0.399887	99
Es	2.212244	-2.356278	-0.761856	99
Es	-2.340938	0.575307	0.774593	99
Es	-0.116383	2.131610	0.245657	99
Es	0.614735	-1.139910	-1.392070	99
Es	-0.341922	1.895435	0.676116	99
Es	1.585378	-1.282776	-0.574901	99
Es	-1.543001	0.722988	-0.147858	99
Es	-0.185102	1.886076	0.421535	99
Es	0.517855	-0.673851	-0.223541	99
Es	-2.262689	0.649228	0.041956	99
Es	0.967508	1.044164	0.683005	99
Es	-0.436274	1.504618	0.118193	99
Es	0.188824	-0.213813	0.266998	99
Es	-0.718073	0.922292	-1.076731	99
Es	1.872333	-1.899493	-0.295504	99
Es	0.858768	-1.123439	-0.696602	99
Es	0.654741	0.344939	0.490180	99
Es	1.546441	1.230668	0.245222	99
Es	1.178463	1.064660	1.405893	99
44
Properties=species:S:1:pos:R:3:Z:I:1 energy=-307.9350394749015 field_type=dipole dipole="0.000000 0.000000 0.000000" charge=0
C	-2.262699	0.649238	0.041977	6
C	-0.803749	0.807418	-0.334493	6
O	-0.185259	1.886398	0.421727	8
C	0.967710	1.044068	0.683047	6
C	0.188801	-0.213842	0.267037	6
C	0.858860	-1.123512	-0.696583	6
C	1.872241	-1.899432	-0.295543	6
H	-2.688469	-0.239842	-0.434233	1
H	-2.842249	1.517468	-0.288573	1
H	-2.391799	0.549618	1.124967	1
H	-0.683689	0.993128	-1.410053	1
H	1.814570	1.335158	0.051837	1
H	1.264901	1.077968	1.734997	1
H	-0.223479	-0.759852	1.125817	1
H	0.511471	-1.162232	-1.725303	1
H	2.239531	-1.889703	0.726987	1
H	2.363310	-2.572042	-0.993613	1
Es	-0.084369	-0.581876	0.843264	99
Es	-2.539834	0.042925	-0.283588	99
Es	-0.352287	0.219718	-0.072793	99
Es	1.545797	1.230228	0.245311	99
Es	0.654545	0.344786	0.490408	99
Es	0.188824	-0.213813	0.266999	99
Es	-1.542830	0.722795	-0.148111	99
Es	0.858773	-1.123436	-0.696604	99
Es	-0.119695	2.136794	0.249614	99
Es	-0.437186	1.505160	0.117541	99
Es	1.178984	1.064503	1.406140	99
Es	-2.656100	1.240624	-0.187672	99
Es	1.585340	-1.282926	-0.574793	99
Es	0.614318	-1.140155	-1.392130	99
Es	0.275982	1.593104	0.536814	99
Es	-0.803672	0.807562	-0.334348	99
Es	1.872335	-1.899488	-0.295506	99
Es	-0.718185	0.922566	-1.076246	99
Es	2.123721	-1.892629	0.399998	99
Es	-0.185157	1.886073	0.421631	99
Es	-2.262689	0.649228	0.041955	99
Es	-2.340831	0.574929	0.773987	99
Es	1.167610	-1.758111	-0.421578	99
Es	0.967509	1.044169	0.682995	99
Es	-0.338854	1.889509	0.671124	99
Es	2.212302	-2.355960	-0.761968	99
Es	0.518456	-0.674342	-0.223060	99
44
Properties=species:S:1:pos:R:3:Z:I:1 energy=-307.9350394749015 field_type=dipole dipole="0.000000 0.000000 0.000000" charge=0
C	-2.262699	0.649238	0.041977	6
C	-0.803749	0.807418	-0.334493	6
O	-0.185259	1.886398	0.421727	8
C	0.967710	1.044068	0.683047	6
C	0.188801	-0.213842	0.267037	6
C	0.858860	-1.123512	-0.696583	6
C	1.872241	-1.899432	-0.295543	6
H	-2.688469	-0.239842	-0.434233	1
H	-2.842249	1.517468	-0.288573	1
H	-2.391799	0.549618	1.124967	1
H	-0.683689	0.993128	-1.410053	1
H	1.814570	1.335158	0.051837	1
H	1.264901	1.077968	1.734997	1
H	-0.223479	-0.759852	1.125817	1
H	0.511471	-1.162232	-1.725303	1
H	2.239531	-1.889703	0.726987	1
H	2.363310	-2.572042	-0.993613	1
Es	0.614125	-1.140317	-1.392229	99
Es	-0.336711	1.883038	0.666566	99
Es	1.585328	-1.283089	-0.574682	99
Es	-2.340921	0.574507	0.773556	99
Es	-0.352706	0.219636	-0.072905	99
Es	-0.185178	1.886160	0.421642	99
Es	1.872334	-1.899491	-0.295507	99
Es	-0.123374	2.141758	0.254293	99
Es	-0.083709	-0.581302	0.842900	99
Es	0.277086	1.592920	0.537711	99
Es	0.858763	-1.123443	-0.696596	99
Es	-2.539265	0.043567	-0.282980	99
Es	1.545266	1.230010	0.245401	99
Es	1.167721	-1.757905	-0.421533	99
Es	-1.542759	0.722635	-0.148239	99
Es	-0.803672	0.807563	-0.334347	99
Es	-0.718182	0.922730	-1.075796	99
Es	-2.656824	1.240834	-0.187979	99
Es	-0.436902	1.506650	0.116302	99
Es	0.654510	0.344652	0.490053	99
Es	2.212163	-2.355679	-0.762045	99
Es	-2.262690	0.649227	0.041956	99
Es	0.188824	-0.213811	0.266997	99
Es	0.518602	-0.674903	-0.222730	99
Es	1.179366	1.064332	1.406448	99
Es	2.124108	-1.892511	0.400122	99
Es	0.967505	1.044167	0.683007	99
44
Properties=species:S:1:pos:R:3:Z:I:1 energy=-307.9350394749015 field_type=dipole dipole="0.000000 0.000000 0.000000" charge=0
C	-2.262699	0.649238	0.041977	6
C	-0.803749	0.807418	-0.334493	6
O	-0.185259	1.886398	0.421727	8
C	0.967710	1.044068	0.683047	6
C	0.188801	-0.213842	0.267037	6
C	0.858860	-1.123512	-0.696583	6
C	1.872241	-1.899432	-0.295543	6
H	-2.688469	-0.239842	-0.434233	1
H	-2.842249	1.517468	-0.288573	1
H	-2.391799	0.549618	1.124967	1
H	-0.683689	0.993128	-1.410053	1
H	1.814570	1.335158	0.051837	1
H	1.264901	1.077968	1.734997	1
H	-0.223479	-0.759852	1.125817	1
H	0.511471	-1.162232	-1.725303	1
H	2.239531	-1.889703	0.726987	1
H	2.363310	-2.572042	-0.993613	1
Es	-2.262689	0.649227	0.041955	99
Es	1.872336	-1.899490	-0.295506	99
Es	2.212069	-2.355511	-0.761936	99
Es	-2.340841	0.574230	0.773078	99
Es	-2.657681	1.241005	-0.188412	99
Es	-0.803672	0.807562	-0.334348	99
Es	0.188824	-0.213815	0.266998	99
Es	0.654394	0.344544	0.490163	99
Es	0.967511	1.044163	0.683005	99
Es	0.858766	-1.123438	-0.696599	99
Es	-0.353071	0.219542	-0.073077	99
Es	-0.718101	0.922832	-1.075379	99
Es	2.124323	-1.892467	0.400124	99
Es	1.167642	-1.757992	-0.421365	99
Es	0.276948	1.592565	0.539425	99
Es	1.585398	-1.283079	-0.574753	99
Es	1.544831	1.229723	0.245453	99
Es	-0.337117	1.885626	0.665349	99
Es	-0.185210	1.885962	0.421762	99
Es	-0.122265	2.139191	0.254272	99
Es	-0.437596	1.507183	0.115517	99
Es	1.179707	1.064195	1.406570	99
Es	0.519124	-0.675211	-0.222349	99
Es	0.613834	-1.140332	-1.392281	99
Es	-2.538611	0.044132	-0.282153	99
Es	-1.542806	0.722447	-0.148452	99
Es	-0.083239	-0.580856	0.842324	99
44
Properties=species:S:1:pos:R:3:Z:I:1 energy=-307.9350394749015 field_type=dipole dipole="0.000000 0.000000 0.000000" charge=0
C	-2.262699	0.649238	0.041977	6
C	-0.803749	0.807418	-0.334493	6
O	-0.185259	1.886398	0.421727	8
C	0.967710	1.044068	0.683047	6
C	0.188801	-0.213842	0.267037	6
C	0.858860	-1.123512	-0.696583	6
C	1.872241	-1.899432	-0.295543	6
H	-2.688469	-0.239842	-0.434233	1
H	-2.842249	1.517468	-0.288573	1
H	-2.391799	0.549618	1.124967	1
H	-0.683689	0.993128	-1.410053	1
H	1.814570	1.335158	0.051837	1
H	1.264901	1.077968	1.734997	1
H	-0.223479	-0.759852	1.125817	1
H	0.511471	-1.162232	-1.725303	1
H	2.239531	-1.889703	0.726987	1
H	2.363310	-2.572042	-0.993613	1
Es	2.211947	-2.355360	-0.762072	99
Es	-2.262687	0.649226	0.041954	99
Es	1.167758	-1.757757	-0.421328	99
Es	-0.353332	0.219479	-0.073134	99
Es	0.858766	-1.123440	-0.696600	99
Es	-0.437870	1.508393	0.114231	99
Es	1.544363	1.229510	0.245558	99
Es	-1.542673	0.722379	-0.148460	99
Es	1.180043	1.064059	1.406770	99
Es	0.613654	-1.140386	-1.392317	99
Es	-0.124824	2.142222	0.258294	99
Es	-0.803671	0.807562	-0.334350	99
Es	-0.082788	-0.580324	0.842022	99
Es	0.654342	0.344487	0.489893	99
Es	-0.718174	0.922920	-1.075134	99
Es	2.124541	-1.892464	0.400233	99
Es	0.188825	-0.213814	0.266999	99
Es	0.277799	1.592679	0.538927	99
Es	-0.335260	1.881050	0.663074	99
Es	0.519309	-0.675698	-0.222038	99
Es	-2.658324	1.241062	-0.188606	99
Es	0.967506	1.044165	0.683005	99
Es	1.585397	-1.283220	-0.574660	99
Es	-2.538087	0.044751	-0.281697	99
Es	-0.185181	1.886129	0.421593	99
Es	1.872335	-1.899491	-0.295506	99
Es	-2.340909	0.573818	0.772735	99
44
Properties=species:S:1:pos:R:3:Z:I:1 energy=-307.9350394749015 field_type=dipole dipole="0.000000 0.000000 0.000000" charge=0
C	-2.262699	0.649238	0.041977	6
C	-0.803749	0.807418	-0.334493	6
O	-0.185259	1.886398	0.421727	8
C	0.967710	1.044068	0.683047	6
C	0.188801	-0.213842	0.267037	6
C	0.858860	-1.123512	-0.696583	6
C	1.872241	-1.899432	-0.295543	6
H	-2.688469	-0.239842	-0.434233	1
H	-2.842249	1.517468	-0.288573	1
H	-2.391799	0.549618	1.124967	1
H	-0.683689	0.993128	-1.410053	1
H	1.814570	1.335158	0.051837	1
H	1.264901	1.077968	1.734997	1
H	-0.223479	-0.759852	1.125817	1
H	0.511471	-1.162232	-1.725303	1
H	2.239531	-1.889703	0.726987	1
H	2.363310	-2.572042	-0.993613	1
Es	0.278092	1.592829	0.539362	99
Es	1.180394	1.064012	1.406955	99
Es	-0.718190	0.923059	-1.074940	99
Es	2.212087	-2.355099	-0.762164	99
Es	0.858769	-1.123438	-0.696600	99
Es	-0.185189	1.886036	0.421696	99
Es	-0.333889	1.877634	0.660523	99
Es	-2.658873	1.240964	-0.189033	99
Es	-0.082481	-0.580087	0.841581	99
Es	-2.341020	0.573814	0.772387	99
Es	0.519637	-0.675916	-0.221844	99
Es	-0.437690	1.508794	0.113339	99
Es	0.654131	0.344622	0.490117	99
Es	-2.262688	0.649225	0.041957	99
Es	-1.542491	0.722287	-0.148421	99
Es	-2.537655	0.045144	-0.281056	99
Es	0.188824	-0.213813	0.266998	99
Es	-0.803672	0.807561	-0.334350	99
Es	1.872332	-1.899492	-0.295506	99
Es	1.585214	-1.283388	-0.574477	99
Es	2.124680	-1.892341	0.400274	99
Es	-0.126791	2.144974	0.261028	99
Es	0.967507	1.044166	0.683002	99
Es	0.613537	-1.140406	-1.392383	99
Es	-0.353549	0.219365	-0.073109	99
Es	1.543961	1.229224	0.245458	99
Es	1.167821	-1.757792	-0.421409	99
44
Properties=species:S:1:pos:R:3:Z:I:1 energy=-307.9350394749015 field_type=dipole dipole="0.000000 0.000000 0.000000" charge=0
C	-2.262699	0.649238	0.041977	6
C	-0.803749	0.807418	-0.334493	6
O	-0.185259	1.886398	0.421727	8
C	0.967710	1.044068	0.683047	6
C	0.188801	-0.213842	0.267037	6
C	0.858860	-1.123512	-0.696583	6
C	1.872241	-1.899432	-0.295543	6
H	-2.688469	-0.239842	-0.434233	1
H	-2.842249	1.517468	-0.288573	1
H	-2.391799	0.549618	1.124967	1
H	-0.683689	0.993128	-1.410053	1
H	1.814570	1.335158	0.051837	1
H	1.264901	1.077968	1.734997	1
H	-0.223479	-0.759852	1.125817	1
H	0.511471	-1.162232	-1.725303	1
H	2.239531	-1.889703	0.726987	1
H	2.363310	-2.572042	-0.993613	1
Es	-2.537240	0.045665	-0.280790	99
Es	-0.185137	1.886080	0.421620	99
Es	2.211932	-2.354976	-0.762133	99
Es	0.654051	0.344641	0.490085	99
Es	1.585293	-1.283389	-0.574521	99
Es	0.613386	-1.140529	-1.392393	99
Es	-2.262690	0.649227	0.041955	99
Es	0.519882	-0.676243	-0.221619	99
Es	-1.542504	0.722213	-0.148444	99
Es	1.180621	1.063842	1.407124	99
Es	1.543620	1.229078	0.245538	99
Es	-0.127453	2.145470	0.261603	99
Es	0.858769	-1.123436	-0.696604	99
Es	-0.803673	0.807560	-0.334350	99
Es	2.124844	-1.892398	0.400334	99
Es	-0.082083	-0.579599	0.841051	99
Es	-0.353821	0.219305	-0.073128	99
Es	0.188822	-0.213813	0.266999	99
Es	-0.437285	1.509212	0.113157	99
Es	0.967506	1.044165	0.683004	99
Es	-0.718151	0.923103	-1.074638	99
Es	-2.659314	1.241009	-0.189162	99
Es	0.278181	1.592751	0.540325	99
Es	1.167870	-1.757673	-0.421357	99
Es	-2.341124	0.573440	0.772120	99
Es	1.872333	-1.899494	-0.295505	99
Es	-0.333827	1.876726	0.659112	99
44
Properties=species:S:1:pos:R:3:Z:I:1 energy=-307.9350394749015 field_type=dipole dipole="0.000000 0.000000 0.000000" charge=0
C	-2.262699	0.649238	0.041977	6
C	-0.803749	0.807418	-0.334493	6
O	-0.185259	1.886398	0.421727	8
C	0.967710	1.044068	0.683047	6
C	0.188801	-0.213842	0.267037	6
C	0.858860	-1.123512	-0.696583	6
C	1.872241	-1.899432	-0.295543	6
H	-2.688469	-0.239842	-0.434233	1
H	-2.842249	1.517468	-0.288573	1
H	-2.391799	0.549618	1.124967	1
H	-0.683689	0.993128	-1.410053	1
H	1.814570	1.335158	0.051837	1
H	1.264901	1.077968	1.734997	1
H	-0.223479	-0.759852	1.125817	1
H	0.511471	-1.162232	-1.725303	1
H	2.239531	-1.889703	0.726987	1
H	2.363310	-2.572042	-0.993613	1
Es	-0.803672	0.807561	-0.334348	99
Es	0.613259	-1.140605	-1.392464	99
Es	-0.081920	-0.579379	0.840899	99
Es	1.168001	-1.757521	-0.421442	99
Es	-0.185180	1.886151	0.421627	99
Es	1.872334	-1.899493	-0.295506	99
Es	-0.353864	0.219352	-0.073140	99
Es	2.124929	-1.892315	0.400364	99
Es	-2.262690	0.649227	0.041956	99
Es	0.653760	0.344750	0.490094	99
Es	2.212121	-2.354742	-0.762352	99
Es	1.180661	1.063629	1.407243	99
Es	1.543540	1.228937	0.245464	99
Es	-0.131989	2.151869	0.269303	99
Es	-0.330187	1.868240	0.655056	99
Es	0.278951	1.593278	0.539204	99
Es	-1.542510	0.721950	-0.148870	99
Es	0.520157	-0.676495	-0.221412	99
Es	-2.341076	0.573285	0.772288	99
Es	0.858767	-1.123438	-0.696601	99
Es	1.585092	-1.283598	-0.574265	99
Es	0.967508	1.044164	0.683006	99
Es	-2.536950	0.046395	-0.280224	99
Es	-0.718131	0.923180	-1.074527	99
Es	-0.437210	1.510554	0.110546	99
Es	-2.659721	1.240814	-0.189512	99
Es	0.188827	-0.213815	0.267000	99
44
Properties=species:S:1:pos:R:3:Z:I:1 energy=-307.9350394749015 field_type=dipole dipole="0.000000 0.000000 0.000000" charge=0
C	-2.262699	0.649238	0.041977	6
C	-0.803749	0.807418	-0.334493	6
O	-0.185259	1.886398	0.421727	8
C	0.967710	1.044068	0.683047	6
C	0.188801	-0.213842	0.267037	6
C	0.858860	-1.123512	-0.696583	6
C	1.872241	-1.899432	-0.295543	6
H	-2.688469	-0.239842	-0.434233	1
H	-2.842249	1.517468	-0.288573	1
H	-2.391799	0.549618	1.124967	1
H	-0.683689	0.993128	-1.410053	1
H	1.814570	1.335158	0.051837	1
H	1.264901	1.077968	1.734997	1
H	-0.223479	-0.759852	1.125817	1
H	0.511471	-1.162232	-1.725303	1
H	2.239531	-1.889703	0.726987	1
H	2.363310	-2.572042	-0.993613	1
Es	-0.185183	1.886064	0.421651	99
Es	-0.354024	0.219256	-0.073143	99
Es	1.872335	-1.899495	-0.295504	99
Es	-0.081649	-0.579082	0.840483	99
Es	-2.262690	0.649227	0.041955	99
Es	0.188824	-0.213812	0.266998	99
Es	1.167861	-1.757705	-0.421235	99
Es	1.543080	1.228840	0.245718	99
Es	0.653858	0.344455	0.490018	99
Es	-0.718067	0.923189	-1.074151	99
Es	0.278310	1.592692	0.540934	99
Es	-2.660133	1.240957	-0.189601	99
Es	1.181008	1.063735	1.407213	99
Es	-2.341060	0.573197	0.771693	99
Es	2.211723	-2.354858	-0.762142	99
Es	-0.332996	1.875622	0.657330	99
Es	-0.127917	2.145388	0.264545	99
Es	2.125034	-1.892505	0.400397	99
Es	0.520371	-0.676649	-0.221373	99
Es	0.967505	1.044166	0.683008	99
Es	0.858766	-1.123439	-0.696601	99
Es	1.585396	-1.283339	-0.574503	99
Es	-0.803671	0.807561	-0.334348	99
Es	-0.437867	1.510347	0.111107	99
Es	0.613191	-1.140371	-1.392405	99
Es	-2.536647	0.046527	-0.279877	99
Es	-1.542553	0.721967	-0.148782	99
44
Properties=species:S:1:pos:R:3:Z:I:1 energy=-307.9350394749015 field_type=dipole dipole="0.000000 0.000000 0.000000" charge=0
C	-2.262699	0.649238	0.041977	6
C	-0.803749	0.807418	-0.334493	6
O	-0.185259	1.886398	0.421727	8
C	0.967710	1.044068	0.683047	6
C	0.188801	-0.213842	0.267037	6
C	0.858860	-1.123512	-0.696583	6
C	1.872241	-1.899432	-0.295543	6
H	-2.688469	-0.239842	-0.434233	1
H	-2.842249	1.517468	-0.288573	1
H	-2.391799	0.549618	1.124967	1
H	-0.683689	0.993128	-1.410053	1
H	1.814570	1.335158	0.051837	1
H	1.264901	1.077968	1.734997	1
H	-0.223479	-0.759852	1.125817	1
H	0.511471	-1.162232	-1.725303	1
H	2.239531	-1.889703	0.726987	1
H	2.363310	-2.572042	-0.993613	1
Es	0.279054	1.593132	0.539862	99
Es	1.542672	1.228652	0.245664	99
Es	0.858764	-1.123440	-0.696601	99
Es	-0.185209	1.886225	0.421704	99
Es	-2.262691	0.649227	0.041957	99
Es	1.181361	1.063656	1.407380	99
Es	-0.718137	0.923233	-1.074254	99
Es	0.967507	1.044164	0.683006	99
Es	-0.081415	-0.578740	0.840198	99
Es	1.872335	-1.899492	-0.295505	99
Es	-0.131588	2.150347	0.267466	99
Es	-1.542343	0.721791	-0.148891	99
Es	1.584977	-1.283722	-0.574216	99
Es	0.520428	-0.676971	-0.221144	99
Es	0.613125	-1.140573	-1.392550	99
Es	1.168064	-1.757530	-0.421349	99
Es	-0.437720	1.510220	0.111760	99
Es	0.188821	-0.213813	0.267000	99
Es	0.653779	0.344559	0.490002	99
Es	-0.330293	1.870066	0.654698	99
Es	-0.803673	0.807561	-0.334349	99
Es	-2.660539	1.240731	-0.189835	99
Es	-2.341116	0.572996	0.771737	99
Es	2.125233	-1.892265	0.400447	99
Es	-0.354179	0.219343	-0.072980	99
Es	2.211916	-2.354573	-0.762344	99
Es	-2.536327	0.047153	-0.279478	99
44
Properties=species:S:1:pos:R:3:Z:I:1 energy=-307.9350394749015 field_type=dipole dipole="0.000000 0.000000 0.000000" charge=0
C	-2.262699	0.649238	0.041977	6
C	-0.803749	0.807418	-0.334493	6
O	-0.185259	1.886398	0.421727	8
C	0.967710	1.044068	0.683047	6
C	0.188801	-0.213842	0.267037	6
C	0.858860	-1.123512	-0.696583	6
C	1.872241	-1.899432	-0.295543	6
H	-2.688469	-0.239842	-0.434233	1
H	-2.842249	1.517468	-0.288573	1
H	-2.391799	0.549618	1.124967	1
H	-0.683689	0.993128	-1.410053	1
H	1.814570	1.335158	0.051837	1
H	1.264901	1.077968	1.734997	1
H	-0.223479	-0.759852	1.125817	1
H	0.511471	-1.162232	-1.725303	1
H	2.239531	-1.889703	0.726987	1
H	2.363310	-2.572042	-0.993613	1
Es	-0.354209	0.219244	-0.073043	99
Es	-2.536130	0.047556	-0.279260	99
Es	-2.341166	0.572836	0.771740	99
Es	0.188825	-0.213814	0.266999	99
Es	-0.185280	1.885862	0.421894	99
Es	0.520726	-0.677144	-0.221075	99
Es	2.211896	-2.354537	-0.762336	99
Es	1.181257	1.063491	1.407459	99
Es	0.653442	0.344736	0.489854	99
Es	1.872331	-1.899495	-0.295506	99
Es	1.167972	-1.757337	-0.421387	99
Es	0.858772	-1.123432	-0.696601	99
Es	0.613017	-1.140579	-1.392485	99
Es	-1.542426	0.721763	-0.149052	99
Es	-0.081262	-0.578572	0.840314	99
Es	-0.437052	1.511730	0.108706	99
Es	-2.262688	0.649227	0.041955	99
Es	2.125203	-1.892358	0.400479	99
Es	1.542742	1.228591	0.245609	99
Es	-0.328791	1.865702	0.651452	99
Es	-2.660749	1.240661	-0.189978	99
Es	0.967511	1.044161	0.683007	99
Es	-0.718065	0.923252	-1.074048	99
Es	1.585278	-1.283708	-0.574254	99
Es	-0.133918	2.153182	0.273035	99
Es	0.279248	1.593361	0.540259	99
Es	-0.803676	0.807558	-0.334351	99
44
Properties=species:S:1:pos:R:3:Z:I:1 energy=-307.9350394749015 field_type=dipole dipole="0.000000 0.000000 0.000000" charge=0
C	-2.262699	0.649238	0.041977	6
C	-0.803749	0.807418	-0.334493	6
O	-0.185259	1.886398	0.421727	8
C	0.967710	1.044068	0.683047	6
C	0.188801	-0.213842	0.267037	6
C	0.858860	-1.123512	-0.696583	6
C	1.872241	-1.899432	-0.295543	6
H	-2.688469	-0.239842	-0.434233	1
H	-2.842249	1.517468	-0.288573	1
H	-2.391799	0.549618	1.124967	1
H	-0.683689	0.993128	-1.410053	1
H	1.814570	1.335158	0.051837	1
H	1.264901	1.077968	1.734997	1
H	-0.223479	-0.759852	1.125817	1
H	0.511471	-1.162232	-1.725303	1
H	2.239531	-1.889703	0.726987	1
H	2.363310	-2.572042	-0.993613	1
Es	-0.329287	1.868454	0.652076	99
Es	1.181556	1.063495	1.407505	99
Es	-2.661036	1.240616	-0.190145	99
Es	-2.341158	0.572826	0.771499	99
Es	-0.185188	1.886202	0.421677	99
Es	0.520888	-0.677378	-0.220811	99
Es	-2.535909	0.047749	-0.278951	99
Es	0.858766	-1.123439	-0.696602	99
Es	0.653430	0.344765	0.490060	99
Es	-1.542478	0.721724	-0.149125	99
Es	1.542393	1.228373	0.245626	99
Es	-0.718000	0.923302	-1.073801	99
Es	-0.438035	1.511420	0.109730	99
Es	-0.803672	0.807563	-0.334348	99
Es	-0.081076	-0.578184	0.839820	99
Es	0.188827	-0.213815	0.266999	99
Es	0.967507	1.044165	0.683003	99
Es	2.211872	-2.354542	-0.762337	99
Es	2.125225	-1.892377	0.400454	99
Es	-0.354340	0.219172	-0.073085	99
Es	1.168073	-1.757391	-0.421323	99
Es	0.278681	1.592673	0.541257	99
Es	1.585126	-1.283674	-0.574189	99
Es	-0.132003	2.151054	0.270520	99
Es	0.612997	-1.140555	-1.392574	99
Es	1.872336	-1.899489	-0.295506	99
Es	-2.262690	0.649226	0.041955	99
44
Properties=species:S:1:pos:R:3:Z:I:1 energy=-307.9350394749015 field_type=dipole dipole="0.000000 0.000000 0.000000" charge=0
C	-2.262699	0.649238	0.041977	6
C	-0.803749	0.807418	-0.334493	6
O	-0.185259	1.886398	0.421727	8
C	0.967710	1.044068	0.683047	6
C	0.188801	-0.213842	0.267037	6
C	0.858860	-1.123512	-0.696583	6
C	1.872241	-1.899432	-0.295543	6
H	-2.688469	-0.239842	-0.434233	1
H	-2.842249	1.517468	-0.288573	1
H	-2.391799	0.549618	1.124967	1
H	-0.683689	0.993128	-1.410053	1
H	1.814570	1.335158	0.051837	1
H	1.264901	1.077968	1.734997	1
H	-0.223479	-0.759852	1.125817	1
H	0.511471	-1.162232	-1.725303	1
H	2.239531	-1.889703	0.726987	1
H	2.363310	-2.572042	-0.993613	1
Es	0.858767	-1.123438	-0.696601	99
Es	0.521050	-0.677294	-0.220842	99
Es	2.211843	-2.354483	-0.762328	99
Es	0.188823	-0.213812	0.266998	99
Es	1.168077	-1.757365	-0.421349	99
Es	1.181771	1.063449	1.407551	99
Es	0.653375	0.344728	0.490071	99
Es	-2.535719	0.048149	-0.278593	99
Es	-0.328995	1.866261	0.651220	99
Es	1.542134	1.228283	0.245673	99
Es	-0.437291	1.511842	0.108872	99
Es	-0.133471	2.152464	0.272495	99
Es	0.967506	1.044165	0.683007	99
Es	-2.262690	0.649227	0.041955	99
Es	-0.080939	-0.578236	0.839648	99
Es	-0.803673	0.807560	-0.334349	99
Es	0.612897	-1.140559	-1.392558	99
Es	2.125278	-1.892343	0.400524	99
Es	-1.542292	0.721511	-0.149155	99
Es	0.279045	1.593111	0.541061	99
Es	-2.341245	0.572755	0.771267	99
Es	-0.185181	1.886127	0.421605	99
Es	-0.718033	0.923334	-1.073690	99
Es	1.872336	-1.899491	-0.295507	99
Es	1.585154	-1.283726	-0.574236	99
Es	-2.661325	1.240523	-0.190300	99
Es	-0.354393	0.219193	-0.073054	99
44
Properties=species:S:1:pos:R:3:Z:I:1 energy=-307.9350394749015 field_type=dipole dipole="0.000000 0.000000 0.000000" charge=0
C	-2.262699	0.649238	0.041977	6
C	-0.803749	0.807418	-0.334493	6
O	-0.185259	1.886398	0.421727	8
C	0.967710	1.044068	0.683047	6
C	0.188801	-0.213842	0.267037	6
C	0.858860	-1.123512	-0.696583	6
C	1.872241	-1.899432	-0.295543	6
H	-2.688469	-0.239842	-0.434233	1
H	-2.842249	1.517468	-0.288573	1
H	-2.391799	0.549618	1.124967	1
H	-0.683689	0.993128	-1.410053	1
H	1.814570	1.335158	0.051837	1
H	1.264901	1.077968	1.734997	1
H	-0.223479	-0.759852	1.125817	1
H	0.511471	-1.162232	-1.725303	1
H	2.239531	-1.889703	0.726987	1
H	2.363310	-2.572042	-0.993613	1
Es	0.521136	-0.677581	-0.220777	99
Es	-0.803672	0.807562	-0.334348	99
Es	1.584979	-1.283916	-0.574019	99
Es	-0.185133	1.886103	0.421556	99
Es	0.279879	1.593812	0.539906	99
Es	-0.354428	0.219217	-0.072919	99
Es	-2.661461	1.240348	-0.190510	99
Es	1.542334	1.228233	0.245477	99
Es	0.653175	0.345048	0.490007	99
Es	-0.080843	-0.578093	0.839763	99
Es	0.967506	1.044165	0.683004	99
Es	2.211966	-2.354216	-0.762481	99
Es	2.125417	-1.892239	0.400584	99
Es	-2.341337	0.572590	0.771508	99
Es	0.188824	-0.213811	0.266998	99
Es	0.612804	-1.140626	-1.392633	99
Es	0.858766	-1.123440	-0.696601	99
Es	-0.325918	1.857772	0.646925	99
Es	1.872336	-1.899491	-0.295506	99
Es	-2.535531	0.048642	-0.278418	99
Es	-0.138810	2.158908	0.280043	99
Es	1.181582	1.063209	1.407690	99
Es	-1.542329	0.721439	-0.149299	99
Es	-2.262690	0.649227	0.041955	99
Es	1.168181	-1.757253	-0.421497	99
Es	-0.717966	0.923317	-1.073743	99
Es	-0.435959	1.513009	0.106720	99
44
Properties=species:S:1:pos:R:3:Z:I:1 energy=-307.9350394749015 field_type=dipole dipole="0.000000 0.000000 0.000000" charge=0
C	-2.262699	0.649238	0.041977	6
C	-0.803749	0.807418	-0.334493	6
O	-0.185259	1.886398	0.421727	8
C	0.967710	1.044068	0.683047	6
C	0.188801	-0.213842	0.267037	6
C	0.858860	-1.123512	-0.696583	6
C	1.872241	-1.899432	-0.295543	6
H	-2.688469	-0.239842	-0.434233	1
H	-2.842249	1.517468	-0.288573	1
H	-2.391799	0.549618	1.124967	1
H	-0.683689	0.993128	-1.410053	1
H	1.814570	1.335158	0.051837	1
H	1.264901	1.077968	1.734997	1
H	-0.223479	-0.759852	1.125817	1
H	0.511471	-1.162232	-1.725303	1
H	2.239531	-1.889703	0.726987	1
H	2.363310	-2.572042	-0.993613	1
Es	-0.325911	1.858716	0.647497	99
Es	-1.542313	0.721341	-0.149393	99
Es	1.181919	1.063237	1.407718	99
Es	1.541900	1.228146	0.245646	99
Es	-0.080808	-0.577933	0.839533	99
Es	0.521340	-0.677672	-0.220660	99
Es	-2.535320	0.048984	-0.278164	99
Es	-0.803674	0.807558	-0.334350	99
Es	1.584981	-1.283947	-0.574044	99
Es	0.967506	1.044165	0.683003	99
Es	-2.661700	1.240274	-0.190658	99
Es	-2.341370	0.572487	0.771402	99
Es	0.188824	-0.213812	0.266998	99
Es	-0.436602	1.512796	0.107121	99
Es	2.211919	-2.354243	-0.762483	99
Es	0.612727	-1.140616	-1.392625	99
Es	-0.717924	0.923358	-1.073627	99
Es	-0.185147	1.886094	0.421620	99
Es	1.872336	-1.899490	-0.295506	99
Es	1.168185	-1.757226	-0.421381	99
Es	2.125468	-1.892214	0.400568	99
Es	-0.354426	0.219244	-0.072979	99
Es	0.279955	1.593795	0.539607	99
Es	-2.262690	0.649226	0.041955	99
Es	-0.138291	2.158156	0.279251	99
Es	0.858764	-1.123441	-0.696600	99
Es	0.653158	0.344953	0.489938	99
