45
Properties=species:S:1:pos:R:3:Z:I:1 energy=-344.9726839159494 field_type=dipole dipole="0.000000 0.000000 0.000000" charge=0
C	-1.669975	0.791944	-0.698882	6
C	-0.172255	0.588234	-0.808222	6
O	0.551765	1.634574	-0.108272	8
C	1.443955	0.657384	0.481588	6
C	0.543485	-0.513006	0.029418	6
C	-0.232995	-1.148996	1.172678	6
O	1.191135	-1.564896	-0.732792	8
H	-2.205415	-0.067326	-1.113842	1
H	-1.977685	1.680154	-1.260442	1
H	-1.992015	0.928394	0.338478	1
H	0.126675	0.578104	-1.865792	1
H	2.434675	0.698794	0.017208	1
H	1.545825	0.802474	1.561158	1
H	-0.694875	-0.398306	1.822728	1
H	0.428515	-1.759596	1.796708	1
H	-1.026915	-1.799056	0.790098	1
H	1.706105	-1.108876	-1.421812	1
Es	-2.024527	0.204033	-0.983006	99
Es	-0.232979	-1.148968	1.172648	99
Es	-1.880661	0.878986	0.005861	99
Es	0.146506	-0.826481	0.597614	99
Es	1.463087	-1.302875	-1.099694	99
Es	0.957340	-1.153369	-0.461303	99
Es	1.191150	-1.564805	-0.732814	99
Es	-0.770520	-1.585039	0.908504	99
Es	0.909479	1.285350	0.125663	99
Es	0.221834	-1.554751	1.589431	99
Es	0.270661	1.258857	-0.388776	99
Es	1.392835	-1.694017	-0.541718	99
Es	-0.172169	0.588388	-0.808095	99
Es	-0.541073	-0.630485	1.604538	99
Es	0.039494	0.567985	-1.536611	99
Es	-0.928329	0.681134	-0.747161	99
Es	2.123718	0.673856	0.155122	99
Es	0.704482	1.814972	-0.308209	99
Es	1.055995	0.019815	0.298177	99
Es	0.551817	1.634240	-0.108266	99
Es	-1.869708	1.391791	-1.082172	99
Es	1.515333	0.751650	1.222425	99
Es	0.120585	-0.026463	-0.422745	99
Es	-1.669951	0.791927	-0.698895	99
Es	0.543588	-0.513148	0.029293	99
Es	0.965963	-1.719309	-0.873770	99
Es	0.364423	1.730192	0.115481	99
Es	1.443816	0.657533	0.481490	99
45
Properties=species:S:1:pos:R:3:Z:I:1 energy=-344.9726839159494 field_type=dipole dipole="0.000000 0.000000 0.000000" charge=0
C	-1.669975	0.791944	-0.698882	6
C	-0.172255	0.588234	-0.808222	6
O	0.551765	1.634574	-0.108272	8
C	1.443955	0.657384	0.481588	6
C	0.543485	-0.513006	0.029418	6
C	-0.232995	-1.148996	1.172678	6
O	1.191135	-1.564896	-0.732792	8
H	-2.205415	-0.067326	-1.113842	1
H	-1.977685	1.680154	-1.260442	1
H	-1.992015	0.928394	0.338478	1
H	0.126675	0.578104	-1.865792	1
H	2.434675	0.698794	0.017208	1
H	1.545825	0.802474	1.561158	1
H	-0.694875	-0.398306	1.822728	1
H	0.428515	-1.759596	1.796708	1
H	-1.026915	-1.799056	0.790098	1
H	1.706105	-1.108876	-1.421812	1
Es	-0.928318	0.681104	-0.747228	99
Es	1.191106	-1.564511	-0.732874	99
Es	0.146568	-0.826545	0.597677	99
Es	1.443812	0.657535	0.481489	99
Es	-2.024295	0.204232	-0.983146	99
Es	0.911124	1.285646	0.123236	99
Es	1.392751	-1.697093	-0.542269	99
Es	0.363984	1.728440	0.117475	99
Es	0.958489	-1.153078	-0.460422	99
Es	1.056055	0.019851	0.297968	99
Es	-0.541202	-0.630357	1.604499	99
Es	-1.669950	0.791927	-0.698895	99
Es	2.123462	0.673782	0.155030	99
Es	-1.869607	1.391784	-1.082303	99
Es	0.120249	-0.026414	-0.422643	99
Es	1.462709	-1.302994	-1.099504	99
Es	-1.880782	0.878866	0.006223	99
Es	0.221952	-1.554976	1.589487	99
Es	-0.770362	-1.584823	0.908508	99
Es	0.965320	-1.716735	-0.874302	99
Es	0.039489	0.568016	-1.536843	99
Es	0.702681	1.816053	-0.305656	99
Es	-0.232978	-1.148967	1.172646	99
Es	-0.172171	0.588385	-0.808098	99
Es	0.543591	-0.513149	0.029296	99
Es	1.515449	0.751647	1.222757	99
Es	0.271225	1.259140	-0.390774	99
Es	0.551840	1.634235	-0.108320	99
45
Properties=species:S:1:pos:R:3:Z:I:1 energy=-344.9726839159494 field_type=dipole dipole="0.000000 0.000000 0.000000" charge=0
C	-1.669975	0.791944	-0.698882	6
C	-0.172255	0.588234	-0.808222	6
O	0.551765	1.634574	-0.108272	8
C	1.443955	0.657384	0.481588	6
C	0.543485	-0.513006	0.029418	6
C	-0.232995	-1.148996	1.172678	6
O	1.191135	-1.564896	-0.732792	8
H	-2.205415	-0.067326	-1.113842	1
H	-1.977685	1.680154	-1.260442	1
H	-1.992015	0.928394	0.338478	1
H	0.126675	0.578104	-1.865792	1
H	2.434675	0.698794	0.017208	1
H	1.545825	0.802474	1.561158	1
H	-0.694875	-0.398306	1.822728	1
H	0.428515	-1.759596	1.796708	1
H	-1.026915	-1.799056	0.790098	1
H	1.706105	-1.108876	-1.421812	1
Es	0.120166	-0.026290	-0.422615	99
Es	1.191170	-1.564597	-0.732845	99
Es	0.039502	0.567981	-1.536999	99
Es	1.515694	0.751628	1.223021	99
Es	-2.024328	0.204241	-0.983310	99
Es	1.443817	0.657532	0.481492	99
Es	2.123117	0.673692	0.154925	99
Es	0.958652	-1.153102	-0.459686	99
Es	1.392950	-1.697519	-0.542885	99
Es	0.911402	1.285433	0.123803	99
Es	0.965467	-1.716214	-0.874004	99
Es	1.056094	0.019869	0.297965	99
Es	0.146628	-0.826596	0.597707	99
Es	0.221961	-1.555058	1.589547	99
Es	-1.869384	1.391576	-1.082296	99
Es	-0.541138	-0.630269	1.604424	99
Es	-1.880849	0.879034	0.006457	99
Es	-0.232979	-1.148968	1.172647	99
Es	-0.770444	-1.584741	0.908392	99
Es	1.462180	-1.303016	-1.099930	99
Es	-0.172170	0.588387	-0.808096	99
Es	-0.928355	0.681089	-0.747236	99
Es	0.543591	-0.513142	0.029298	99
Es	0.702816	1.813072	-0.305886	99
Es	0.270856	1.259429	-0.390686	99
Es	0.551776	1.634250	-0.108271	99
Es	0.363949	1.731369	0.116971	99
Es	-1.669952	0.791927	-0.698895	99
45
Properties=species:S:1:pos:R:3:Z:I:1 energy=-344.9726839159494 field_type=dipole dipole="0.000000 0.000000 0.000000" charge=0
C	-1.669975	0.791944	-0.698882	6
C	-0.172255	0.588234	-0.808222	6
O	0.551765	1.634574	-0.108272	8
C	1.443955	0.657384	0.481588	6
C	0.543485	-0.513006	0.029418	6
C	-0.232995	-1.148996	1.172678	6
O	1.191135	-1.564896	-0.732792	8
H	-2.205415	-0.067326	-1.113842	1
H	-1.977685	1.680154	-1.260442	1
H	-1.992015	0.928394	0.338478	1
H	0.126675	0.578104	-1.865792	1
H	2.434675	0.698794	0.017208	1
H	1.545825	0.802474	1.561158	1
H	-0.694875	-0.398306	1.822728	1
H	0.428515	-1.759596	1.796708	1
H	-1.026915	-1.799056	0.790098	1
H	1.706105	-1.108876	-1.421812	1
Es	0.039468	0.567960	-1.537117	99
Es	0.966193	-1.716894	-0.873279	99
Es	1.460950	-1.303077	-1.100501	99
Es	-0.541317	-0.630167	1.604488	99
Es	1.443814	0.657534	0.481491	99
Es	-1.880912	0.879087	0.006685	99
Es	1.191390	-1.564466	-0.732685	99
Es	-0.770261	-1.584901	0.908377	99
Es	0.543594	-0.513147	0.029297	99
Es	-2.024126	0.204232	-0.983323	99
Es	0.703367	1.812781	-0.304648	99
Es	0.146554	-0.826680	0.597654	99
Es	-0.928392	0.681165	-0.747239	99
Es	0.551852	1.634242	-0.108363	99
Es	0.271693	1.259275	-0.392248	99
Es	0.363203	1.731557	0.116775	99
Es	0.222131	-1.554941	1.589453	99
Es	1.394032	-1.696955	-0.542474	99
Es	-1.869405	1.391430	-1.082432	99
Es	0.120001	-0.026272	-0.422568	99
Es	0.910726	1.285615	0.124351	99
Es	1.056184	0.020029	0.297964	99
Es	2.123053	0.673637	0.154871	99
Es	1.515653	0.751640	1.223237	99
Es	-1.669950	0.791927	-0.698895	99
Es	0.957843	-1.153031	-0.460411	99
Es	-0.232978	-1.148969	1.172649	99
Es	-0.172170	0.588385	-0.808097	99
45
Properties=species:S:1:pos:R:3:Z:I:1 energy=-344.9726839159494 field_type=dipole dipole="0.000000 0.000000 0.000000" charge=0
C	-1.669975	0.791944	-0.698882	6
C	-0.172255	0.588234	-0.808222	6
O	0.551765	1.634574	-0.108272	8
C	1.443955	0.657384	0.481588	6
C	0.543485	-0.513006	0.029418	6
C	-0.232995	-1.148996	1.172678	6
O	1.191135	-1.564896	-0.732792	8
H	-2.205415	-0.067326	-1.113842	1
H	-1.977685	1.680154	-1.260442	1
H	-1.992015	0.928394	0.338478	1
H	0.126675	0.578104	-1.865792	1
H	2.434675	0.698794	0.017208	1
H	1.545825	0.802474	1.561158	1
H	-0.694875	-0.398306	1.822728	1
H	0.428515	-1.759596	1.796708	1
H	-1.026915	-1.799056	0.790098	1
H	1.706105	-1.108876	-1.421812	1
Es	0.039496	0.567880	-1.537251	99
Es	0.704041	1.811006	-0.304368	99
Es	0.965296	-1.716330	-0.874096	99
Es	-1.669950	0.791928	-0.698897	99
Es	0.221989	-1.555022	1.589383	99
Es	2.122929	0.673648	0.154851	99
Es	1.191169	-1.564567	-0.732858	99
Es	-0.770306	-1.584825	0.908330	99
Es	0.910168	1.285326	0.124973	99
Es	1.393912	-1.697527	-0.542351	99
Es	1.515678	0.751573	1.223426	99
Es	0.362799	1.733370	0.116395	99
Es	-0.541255	-0.630229	1.604601	99
Es	-0.928377	0.681070	-0.747106	99
Es	-1.869311	1.391409	-1.082473	99
Es	-0.232977	-1.148966	1.172648	99
Es	0.958689	-1.152795	-0.460262	99
Es	-2.024090	0.204307	-0.983386	99
Es	0.119927	-0.026085	-0.422584	99
Es	1.443814	0.657533	0.481488	99
Es	-0.172171	0.588385	-0.808097	99
Es	0.551842	1.634202	-0.108305	99
Es	1.056256	0.020043	0.297770	99
Es	0.543594	-0.513148	0.029297	99
Es	-1.881015	0.879091	0.006733	99
Es	0.271947	1.259523	-0.392837	99
Es	1.461373	-1.303198	-1.099774	99
Es	0.146721	-0.826603	0.597761	99
45
Properties=species:S:1:pos:R:3:Z:I:1 energy=-344.9726839159494 field_type=dipole dipole="0.000000 0.000000 0.000000" charge=0
C	-1.669975	0.791944	-0.698882	6
C	-0.172255	0.588234	-0.808222	6
O	0.551765	1.634574	-0.108272	8
C	1.443955	0.657384	0.481588	6
C	0.543485	-0.513006	0.029418	6
C	-0.232995	-1.148996	1.172678	6
O	1.191135	-1.564896	-0.732792	8
H	-2.205415	-0.067326	-1.113842	1
H	-1.977685	1.680154	-1.260442	1
H	-1.992015	0.928394	0.338478	1
H	0.126675	0.578104	-1.865792	1
H	2.434675	0.698794	0.017208	1
H	1.545825	0.802474	1.561158	1
H	-0.694875	-0.398306	1.822728	1
H	0.428515	-1.759596	1.796708	1
H	-1.026915	-1.799056	0.790098	1
H	1.706105	-1.108876	-1.421812	1
Es	-0.232978	-1.148967	1.172648	99
Es	0.551795	1.634233	-0.108294	99
Es	0.543595	-0.513150	0.029296	99
Es	0.964755	-1.713683	-0.873961	99
Es	0.704122	1.811920	-0.303571	99
Es	1.443814	0.657534	0.481491	99
Es	1.462277	-1.303524	-1.100262	99
Es	-0.770268	-1.584791	0.908401	99
Es	0.362920	1.732319	0.115935	99
Es	1.056303	0.020083	0.297873	99
Es	-1.881009	0.879124	0.006896	99
Es	-1.669949	0.791927	-0.698896	99
Es	0.119765	-0.026119	-0.422538	99
Es	0.959777	-1.152716	-0.459550	99
Es	1.191184	-1.564813	-0.732813	99
Es	0.039504	0.567911	-1.537290	99
Es	-0.541272	-0.630135	1.604566	99
Es	2.122805	0.673611	0.154770	99
Es	1.515793	0.751595	1.223517	99
Es	-1.869297	1.391289	-1.082442	99
Es	-0.928358	0.681139	-0.747267	99
Es	-2.024077	0.204347	-0.983443	99
Es	0.909953	1.285248	0.125438	99
Es	1.392430	-1.699719	-0.542769	99
Es	0.222115	-1.555053	1.589383	99
Es	0.146694	-0.826666	0.597596	99
Es	-0.172170	0.588384	-0.808097	99
Es	0.271969	1.259673	-0.393605	99
