45
Properties=species:S:1:pos:R:3:Z:I:1 energy=-344.9727768562772 field_type=dipole dipole="0.000000 0.000000 0.000000" charge=0
C	-2.326612	0.384197	-0.249252	6
C	-0.833942	0.224017	-0.439402	6
O	-0.095032	1.273337	0.245968	8
C	0.841638	0.290017	0.770428	6
C	2.173408	0.394127	0.048768	6
C	-0.124842	-0.859053	0.398998	6
O	0.401448	-2.015223	-0.292662	8
H	-2.863142	-0.446893	-0.717672	1
H	-2.677492	1.312397	-0.711842	1
H	-2.599992	0.411337	0.811298	1
H	-0.565632	0.211417	-1.503482	1
H	0.962318	0.408267	1.852848	1
H	2.050048	0.379697	-1.039112	1
H	2.831728	-0.436803	0.326918	1
H	2.681558	1.328077	0.314448	1
H	-0.712832	-1.190873	1.263348	1
H	0.857378	-1.668043	-1.079602	1
Es	-2.326592	0.384183	-0.249266	99
Es	0.424726	-0.347119	0.614250	99
Es	-0.384704	0.897550	-0.030900	99
Es	-1.587144	0.301241	-0.345495	99
Es	1.511961	0.326094	0.398167	99
Es	2.508679	1.024175	0.231308	99
Es	-0.534348	-0.382739	-0.059531	99
Es	0.614772	-2.136528	-0.109711	99
Es	0.642998	-1.809641	-0.710741	99
Es	2.078118	0.375093	-0.693463	99
Es	0.275112	0.924421	0.452846	99
Es	-0.644542	0.201656	-1.172713	99
Es	-0.833851	0.224171	-0.439281	99
Es	2.613926	-0.170968	0.241069	99
Es	0.841512	0.290157	0.770314	99
Es	-0.526709	-1.083987	0.984765	99
Es	-2.558531	1.012094	-0.565577	99
Es	0.048015	1.458876	0.042603	99
Es	-2.681635	-0.184438	-0.569847	99
Es	-0.124722	-0.859206	0.398853	99
Es	0.214254	-1.564585	-0.047890	99
Es	-0.094887	1.272974	0.245802	99
Es	0.157729	-2.167580	-0.394107	99
Es	0.933748	0.371349	1.514571	99
Es	2.173384	0.394110	0.048772	99
Es	-0.274655	1.363219	0.480474	99
Es	-2.503117	0.397290	0.472594	99
Es	0.401566	-2.014828	-0.292724	99
45
Properties=species:S:1:pos:R:3:Z:I:1 energy=-344.9727768562772 field_type=dipole dipole="0.000000 0.000000 0.000000" charge=0
C	-2.326612	0.384197	-0.249252	6
C	-0.833942	0.224017	-0.439402	6
O	-0.095032	1.273337	0.245968	8
C	0.841638	0.290017	0.770428	6
C	2.173408	0.394127	0.048768	6
C	-0.124842	-0.859053	0.398998	6
O	0.401448	-2.015223	-0.292662	8
H	-2.863142	-0.446893	-0.717672	1
H	-2.677492	1.312397	-0.711842	1
H	-2.599992	0.411337	0.811298	1
H	-0.565632	0.211417	-1.503482	1
H	0.962318	0.408267	1.852848	1
H	2.050048	0.379697	-1.039112	1
H	2.831728	-0.436803	0.326918	1
H	2.681558	1.328077	0.314448	1
H	-0.712832	-1.190873	1.263348	1
H	0.857378	-1.668043	-1.079602	1
Es	0.841512	0.290156	0.770313	99
Es	2.078159	0.374884	-0.694173	99
Es	0.274543	0.924291	0.453318	99
Es	-0.644608	0.201646	-1.173120	99
Es	2.173383	0.394111	0.048772	99
Es	1.512054	0.326158	0.398021	99
Es	-2.326593	0.384184	-0.249266	99
Es	0.048459	1.461159	0.043882	99
Es	0.401460	-2.014907	-0.292787	99
Es	0.615386	-2.135170	-0.111049	99
Es	2.613727	-0.170703	0.241615	99
Es	-0.124728	-0.859206	0.398849	99
Es	-2.558134	1.011882	-0.565828	99
Es	-1.587268	0.301288	-0.345491	99
Es	-0.383394	0.897709	-0.032480	99
Es	0.641309	-1.810252	-0.712897	99
Es	-0.526571	-1.084076	0.984839	99
Es	0.933820	0.371431	1.515040	99
Es	2.508450	1.024025	0.231555	99
Es	-0.534734	-0.382666	-0.059380	99
Es	-0.833852	0.224172	-0.439282	99
Es	-2.503020	0.397613	0.473120	99
Es	-0.095000	1.272990	0.245939	99
Es	0.158390	-2.168399	-0.391462	99
Es	-2.681582	-0.184632	-0.570043	99
Es	0.214817	-1.564349	-0.047015	99
Es	-0.275723	1.360747	0.480161	99
Es	0.424804	-0.347054	0.613989	99
45
Properties=species:S:1:pos:R:3:Z:I:1 energy=-344.9727768562772 field_type=dipole dipole="0.000000 0.000000 0.000000" charge=0
C	-2.326612	0.384197	-0.249252	6
C	-0.833942	0.224017	-0.439402	6
O	-0.095032	1.273337	0.245968	8
C	0.841638	0.290017	0.770428	6
C	2.173408	0.394127	0.048768	6
C	-0.124842	-0.859053	0.398998	6
O	0.401448	-2.015223	-0.292662	8
H	-2.863142	-0.446893	-0.717672	1
H	-2.677492	1.312397	-0.711842	1
H	-2.599992	0.411337	0.811298	1
H	-0.565632	0.211417	-1.503482	1
H	0.962318	0.408267	1.852848	1
H	2.050048	0.379697	-1.039112	1
H	2.831728	-0.436803	0.326918	1
H	2.681558	1.328077	0.314448	1
H	-0.712832	-1.190873	1.263348	1
H	0.857378	-1.668043	-1.079602	1
Es	0.158059	-2.166288	-0.392025	99
Es	0.274394	0.924559	0.453174	99
Es	0.401473	-2.014871	-0.292782	99
Es	-0.534698	-0.382536	-0.059318	99
Es	-2.326592	0.384184	-0.249266	99
Es	0.933957	0.371408	1.515277	99
Es	1.512198	0.326028	0.398298	99
Es	0.641159	-1.810032	-0.712920	99
Es	0.841512	0.290156	0.770313	99
Es	-0.833851	0.224173	-0.439280	99
Es	-1.587331	0.301345	-0.345492	99
Es	-0.644672	0.201633	-1.173393	99
Es	-0.526638	-1.084063	0.984968	99
Es	-2.681433	-0.184644	-0.570144	99
Es	2.508486	1.023940	0.231695	99
Es	-0.383323	0.897448	-0.032864	99
Es	0.424814	-0.347094	0.613747	99
Es	0.614939	-2.137472	-0.111510	99
Es	0.215710	-1.564408	-0.046014	99
Es	-0.124727	-0.859204	0.398853	99
Es	-0.094914	1.272965	0.245848	99
Es	-2.557982	1.011646	-0.566017	99
Es	0.048651	1.460171	0.044190	99
Es	-2.503035	0.397769	0.473537	99
Es	2.173381	0.394111	0.048771	99
Es	2.077828	0.374816	-0.694571	99
Es	2.613631	-0.170434	0.241544	99
Es	-0.275928	1.361726	0.480522	99
45
Properties=species:S:1:pos:R:3:Z:I:1 energy=-344.9727768562772 field_type=dipole dipole="0.000000 0.000000 0.000000" charge=0
C	-2.326612	0.384197	-0.249252	6
C	-0.833942	0.224017	-0.439402	6
O	-0.095032	1.273337	0.245968	8
C	0.841638	0.290017	0.770428	6
C	2.173408	0.394127	0.048768	6
C	-0.124842	-0.859053	0.398998	6
O	0.401448	-2.015223	-0.292662	8
H	-2.863142	-0.446893	-0.717672	1
H	-2.677492	1.312397	-0.711842	1
H	-2.599992	0.411337	0.811298	1
H	-0.565632	0.211417	-1.503482	1
H	0.962318	0.408267	1.852848	1
H	2.050048	0.379697	-1.039112	1
H	2.831728	-0.436803	0.326918	1
H	2.681558	1.328077	0.314448	1
H	-0.712832	-1.190873	1.263348	1
H	0.857378	-1.668043	-1.079602	1
Es	2.613469	-0.170451	0.241731	99
Es	-2.503000	0.397604	0.473723	99
Es	-0.534848	-0.382533	-0.059278	99
Es	0.933993	0.371380	1.515483	99
Es	-2.681286	-0.184690	-0.570401	99
Es	-2.326593	0.384184	-0.249265	99
Es	0.424875	-0.347073	0.613581	99
Es	0.614687	-2.135453	-0.111939	99
Es	-0.095005	1.273000	0.245935	99
Es	-0.276255	1.363176	0.480148	99
Es	-2.557813	1.011803	-0.566021	99
Es	-0.383255	0.898108	-0.033649	99
Es	0.401480	-2.014893	-0.292750	99
Es	1.512309	0.326095	0.398178	99
Es	-0.124730	-0.859202	0.398851	99
Es	2.508452	1.023946	0.231876	99
Es	-1.587452	0.301409	-0.345366	99
Es	2.173383	0.394111	0.048772	99
Es	0.641626	-1.809982	-0.713004	99
Es	0.050197	1.458789	0.044412	99
Es	0.158218	-2.168222	-0.391518	99
Es	0.215348	-1.564549	-0.046019	99
Es	0.841514	0.290155	0.770314	99
Es	2.077754	0.374766	-0.694819	99
Es	-0.833851	0.224174	-0.439280	99
Es	-0.644779	0.201645	-1.173566	99
Es	0.273190	0.923772	0.454003	99
Es	-0.526564	-1.084035	0.985011	99
45
Properties=species:S:1:pos:R:3:Z:I:1 energy=-344.9727768562772 field_type=dipole dipole="0.000000 0.000000 0.000000" charge=0
C	-2.326612	0.384197	-0.249252	6
C	-0.833942	0.224017	-0.439402	6
O	-0.095032	1.273337	0.245968	8
C	0.841638	0.290017	0.770428	6
C	2.173408	0.394127	0.048768	6
C	-0.124842	-0.859053	0.398998	6
O	0.401448	-2.015223	-0.292662	8
H	-2.863142	-0.446893	-0.717672	1
H	-2.677492	1.312397	-0.711842	1
H	-2.599992	0.411337	0.811298	1
H	-0.565632	0.211417	-1.503482	1
H	0.962318	0.408267	1.852848	1
H	2.050048	0.379697	-1.039112	1
H	2.831728	-0.436803	0.326918	1
H	2.681558	1.328077	0.314448	1
H	-0.712832	-1.190873	1.263348	1
H	0.857378	-1.668043	-1.079602	1
Es	-0.644789	0.201615	-1.173751	99
Es	0.841509	0.290160	0.770313	99
Es	-2.557607	1.011646	-0.565979	99
Es	0.272442	0.924213	0.455051	99
Es	0.215602	-1.564150	-0.046594	99
Es	-0.094972	1.272996	0.245902	99
Es	-0.383303	0.897207	-0.032087	99
Es	-0.124728	-0.859198	0.398854	99
Es	1.512274	0.326056	0.398236	99
Es	0.614407	-2.137655	-0.110933	99
Es	-0.833851	0.224174	-0.439281	99
Es	2.508566	1.023849	0.232143	99
Es	-1.587452	0.301535	-0.345350	99
Es	-0.276575	1.366776	0.479669	99
Es	-2.326593	0.384184	-0.249266	99
Es	0.401526	-2.014858	-0.292758	99
Es	0.424977	-0.347094	0.613446	99
Es	0.051300	1.455651	0.042308	99
Es	2.077792	0.374646	-0.695232	99
Es	2.613123	-0.170204	0.241846	99
Es	-2.503016	0.397690	0.473938	99
Es	0.934109	0.371389	1.515668	99
Es	-2.681286	-0.184753	-0.570642	99
Es	2.173384	0.394110	0.048772	99
Es	0.158225	-2.165817	-0.391681	99
Es	-0.526514	-1.084056	0.985009	99
Es	-0.535031	-0.382478	-0.059186	99
Es	0.641548	-1.810599	-0.713274	99
45
Properties=species:S:1:pos:R:3:Z:I:1 energy=-344.9727768562772 field_type=dipole dipole="0.000000 0.000000 0.000000" charge=0
C	-2.326612	0.384197	-0.249252	6
C	-0.833942	0.224017	-0.439402	6
O	-0.095032	1.273337	0.245968	8
C	0.841638	0.290017	0.770428	6
C	2.173408	0.394127	0.048768	6
C	-0.124842	-0.859053	0.398998	6
O	0.401448	-2.015223	-0.292662	8
H	-2.863142	-0.446893	-0.717672	1
H	-2.677492	1.312397	-0.711842	1
H	-2.599992	0.411337	0.811298	1
H	-0.565632	0.211417	-1.503482	1
H	0.962318	0.408267	1.852848	1
H	2.050048	0.379697	-1.039112	1
H	2.831728	-0.436803	0.326918	1
H	2.681558	1.328077	0.314448	1
H	-0.712832	-1.190873	1.263348	1
H	0.857378	-1.668043	-1.079602	1
Es	-2.557510	1.011624	-0.566089	99
Es	-0.526516	-1.084026	0.985050	99
Es	-0.094941	1.273000	0.245857	99
Es	0.050989	1.455918	0.043310	99
Es	-0.124729	-0.859203	0.398855	99
Es	0.401505	-2.014899	-0.292743	99
Es	0.216520	-1.564608	-0.045436	99
Es	-0.833851	0.224172	-0.439281	99
Es	0.614765	-2.137926	-0.112013	99
Es	-0.276386	1.366356	0.479480	99
Es	-0.535017	-0.382404	-0.059166	99
Es	2.508558	1.023826	0.232136	99
Es	2.077727	0.374620	-0.695303	99
Es	-2.681221	-0.184726	-0.570671	99
Es	0.841516	0.290153	0.770317	99
Es	0.424910	-0.347126	0.613440	99
Es	2.173384	0.394110	0.048771	99
Es	-1.587511	0.301471	-0.345324	99
Es	0.640481	-1.810214	-0.714205	99
Es	-2.326592	0.384184	-0.249266	99
Es	0.272632	0.924274	0.455138	99
Es	-2.503019	0.397721	0.474100	99
Es	2.613101	-0.170217	0.241912	99
Es	-0.644821	0.201611	-1.173860	99
Es	1.512299	0.326126	0.398177	99
Es	-0.383462	0.897265	-0.032891	99
Es	0.158075	-2.165460	-0.390862	99
Es	0.934178	0.371411	1.515704	99
45
Properties=species:S:1:pos:R:3:Z:I:1 energy=-344.9727768562772 field_type=dipole dipole="0.000000 0.000000 0.000000" charge=0
C	-2.326612	0.384197	-0.249252	6
C	-0.833942	0.224017	-0.439402	6
O	-0.095032	1.273337	0.245968	8
C	0.841638	0.290017	0.770428	6
C	2.173408	0.394127	0.048768	6
C	-0.124842	-0.859053	0.398998	6
O	0.401448	-2.015223	-0.292662	8
H	-2.863142	-0.446893	-0.717672	1
H	-2.677492	1.312397	-0.711842	1
H	-2.599992	0.411337	0.811298	1
H	-0.565632	0.211417	-1.503482	1
H	0.962318	0.408267	1.852848	1
H	2.050048	0.379697	-1.039112	1
H	2.831728	-0.436803	0.326918	1
H	2.681558	1.328077	0.314448	1
H	-0.712832	-1.190873	1.263348	1
H	0.857378	-1.668043	-1.079602	1
Es	0.401483	-2.014923	-0.292756	99
Es	2.613150	-0.170155	0.242001	99
Es	-0.094896	1.272966	0.245796	99
Es	0.158346	-2.167399	-0.389751	99
Es	0.050592	1.458230	0.045054	99
Es	-0.833851	0.224173	-0.439280	99
Es	-0.276862	1.363749	0.479797	99
Es	2.508421	1.023796	0.232196	99
Es	0.216246	-1.564524	-0.045620	99
Es	0.615607	-2.135837	-0.112458	99
Es	-0.526512	-1.084038	0.985090	99
Es	-0.535063	-0.382419	-0.059085	99
Es	0.639679	-1.810408	-0.714709	99
Es	-0.124727	-0.859205	0.398851	99
Es	-2.557492	1.011584	-0.566151	99
Es	0.272729	0.924148	0.454637	99
Es	-0.382704	0.897712	-0.034466	99
Es	-2.502962	0.397759	0.474217	99
Es	1.512293	0.326012	0.398145	99
Es	0.424934	-0.347035	0.613337	99
Es	2.077747	0.374626	-0.695414	99
Es	-1.587528	0.301526	-0.345354	99
Es	-2.326593	0.384184	-0.249266	99
Es	-2.681161	-0.184767	-0.570683	99
Es	0.934158	0.371389	1.515873	99
Es	0.841512	0.290156	0.770313	99
Es	-0.644865	0.201622	-1.173943	99
Es	2.173383	0.394110	0.048772	99
45
Properties=species:S:1:pos:R:3:Z:I:1 energy=-344.9727768562772 field_type=dipole dipole="0.000000 0.000000 0.000000" charge=0
C	-2.326612	0.384197	-0.249252	6
C	-0.833942	0.224017	-0.439402	6
O	-0.095032	1.273337	0.245968	8
C	0.841638	0.290017	0.770428	6
C	2.173408	0.394127	0.048768	6
C	-0.124842	-0.859053	0.398998	6
O	0.401448	-2.015223	-0.292662	8
H	-2.863142	-0.446893	-0.717672	1
H	-2.677492	1.312397	-0.711842	1
H	-2.599992	0.411337	0.811298	1
H	-0.565632	0.211417	-1.503482	1
H	0.962318	0.408267	1.852848	1
H	2.050048	0.379697	-1.039112	1
H	2.831728	-0.436803	0.326918	1
H	2.681558	1.328077	0.314448	1
H	-0.712832	-1.190873	1.263348	1
H	0.857378	-1.668043	-1.079602	1
Es	-0.124728	-0.859206	0.398851	99
Es	-0.095012	1.273009	0.245935	99
Es	0.216346	-1.564710	-0.045321	99
Es	-0.526443	-1.084027	0.985174	99
Es	2.508431	1.023692	0.232251	99
Es	1.512338	0.326140	0.398113	99
Es	-2.557425	1.011637	-0.566229	99
Es	-0.276341	1.367859	0.478978	99
Es	0.272299	0.924190	0.455755	99
Es	0.616250	-2.134963	-0.113047	99
Es	0.051607	1.454513	0.043121	99
Es	-0.833851	0.224171	-0.439282	99
Es	2.077721	0.374604	-0.695601	99
Es	-2.326592	0.384182	-0.249267	99
Es	-0.535197	-0.382344	-0.059075	99
Es	0.401507	-2.014889	-0.292714	99
Es	2.613037	-0.170159	0.242144	99
Es	0.638882	-1.810161	-0.715014	99
Es	-0.383667	0.897226	-0.032921	99
Es	-1.587640	0.301536	-0.345426	99
Es	0.158347	-2.168369	-0.389165	99
Es	-2.681044	-0.184713	-0.570749	99
Es	0.841513	0.290154	0.770316	99
Es	0.424854	-0.347179	0.613298	99
Es	0.934263	0.371462	1.515860	99
Es	-0.644838	0.201594	-1.174018	99
Es	-2.502932	0.397675	0.474401	99
Es	2.173382	0.394110	0.048771	99
45
Properties=species:S:1:pos:R:3:Z:I:1 energy=-344.9727768562772 field_type=dipole dipole="0.000000 0.000000 0.000000" charge=0
C	-2.326612	0.384197	-0.249252	6
C	-0.833942	0.224017	-0.439402	6
O	-0.095032	1.273337	0.245968	8
C	0.841638	0.290017	0.770428	6
C	2.173408	0.394127	0.048768	6
C	-0.124842	-0.859053	0.398998	6
O	0.401448	-2.015223	-0.292662	8
H	-2.863142	-0.446893	-0.717672	1
H	-2.677492	1.312397	-0.711842	1
H	-2.599992	0.411337	0.811298	1
H	-0.565632	0.211417	-1.503482	1
H	0.962318	0.408267	1.852848	1
H	2.050048	0.379697	-1.039112	1
H	2.831728	-0.436803	0.326918	1
H	2.681558	1.328077	0.314448	1
H	-0.712832	-1.190873	1.263348	1
H	0.857378	-1.668043	-1.079602	1
Es	1.512284	0.325988	0.398240	99
Es	2.077704	0.374670	-0.695708	99
Es	0.159793	-2.171899	-0.386617	99
Es	0.214943	-1.564697	-0.046001	99
Es	-0.277474	1.363690	0.479648	99
Es	0.401503	-2.014908	-0.292766	99
Es	2.173384	0.394110	0.048772	99
Es	0.050417	1.458128	0.045167	99
Es	0.841513	0.290155	0.770313	99
Es	-0.526356	-1.084046	0.985109	99
Es	-0.382016	0.897649	-0.034821	99
Es	-0.833852	0.224171	-0.439282	99
Es	0.273008	0.924358	0.454812	99
Es	2.508320	1.023657	0.232354	99
Es	0.617908	-2.130969	-0.113493	99
Es	-0.124718	-0.859208	0.398853	99
Es	0.425015	-0.347128	0.613209	99
Es	-2.681052	-0.184715	-0.570796	99
Es	-2.326593	0.384184	-0.249266	99
Es	-0.095044	1.272976	0.246006	99
Es	-0.644867	0.201587	-1.174033	99
Es	-1.587591	0.301582	-0.345404	99
Es	2.613113	-0.170027	0.242081	99
Es	-2.502976	0.397702	0.474410	99
Es	0.934242	0.371379	1.516019	99
Es	-2.557396	1.011578	-0.566203	99
Es	-0.535312	-0.382321	-0.059061	99
Es	0.637166	-1.810614	-0.716400	99
45
Properties=species:S:1:pos:R:3:Z:I:1 energy=-344.9727768562772 field_type=dipole dipole="0.000000 0.000000 0.000000" charge=0
C	-2.326612	0.384197	-0.249252	6
C	-0.833942	0.224017	-0.439402	6
O	-0.095032	1.273337	0.245968	8
C	0.841638	0.290017	0.770428	6
C	2.173408	0.394127	0.048768	6
C	-0.124842	-0.859053	0.398998	6
O	0.401448	-2.015223	-0.292662	8
H	-2.863142	-0.446893	-0.717672	1
H	-2.677492	1.312397	-0.711842	1
H	-2.599992	0.411337	0.811298	1
H	-0.565632	0.211417	-1.503482	1
H	0.962318	0.408267	1.852848	1
H	2.050048	0.379697	-1.039112	1
H	2.831728	-0.436803	0.326918	1
H	2.681558	1.328077	0.314448	1
H	-0.712832	-1.190873	1.263348	1
H	0.857378	-1.668043	-1.079602	1
Es	0.273442	0.924745	0.453937	99
Es	2.612914	-0.169964	0.242001	99
Es	-2.681087	-0.184802	-0.570965	99
Es	-0.124729	-0.859205	0.398852	99
Es	0.614577	-2.139936	-0.113212	99
Es	0.639202	-1.810697	-0.715150	99
Es	2.508489	1.023747	0.232460	99
Es	-2.502954	0.397707	0.474440	99
Es	-2.557325	1.011523	-0.566079	99
Es	-0.526478	-1.084043	0.985112	99
Es	-0.833851	0.224171	-0.439281	99
Es	-1.587603	0.301629	-0.345277	99
Es	0.401458	-2.014862	-0.292833	99
Es	0.841512	0.290157	0.770313	99
Es	-0.094980	1.273073	0.245904	99
Es	0.934250	0.371398	1.516033	99
Es	0.425022	-0.347066	0.613191	99
Es	1.512322	0.325928	0.398169	99
Es	2.077710	0.374592	-0.695722	99
Es	2.173383	0.394110	0.048771	99
Es	0.158204	-2.163433	-0.390093	99
Es	0.217847	-1.564146	-0.043967	99
Es	-0.277230	1.361790	0.480320	99
Es	0.049710	1.459665	0.045950	99
Es	-0.382072	0.897489	-0.035257	99
Es	-0.535150	-0.382337	-0.059084	99
Es	-0.644925	0.201616	-1.174127	99
Es	-2.326593	0.384184	-0.249266	99
45
Properties=species:S:1:pos:R:3:Z:I:1 energy=-344.9727768562772 field_type=dipole dipole="0.000000 0.000000 0.000000" charge=0
C	-2.326612	0.384197	-0.249252	6
C	-0.833942	0.224017	-0.439402	6
O	-0.095032	1.273337	0.245968	8
C	0.841638	0.290017	0.770428	6
C	2.173408	0.394127	0.048768	6
C	-0.124842	-0.859053	0.398998	6
O	0.401448	-2.015223	-0.292662	8
H	-2.863142	-0.446893	-0.717672	1
H	-2.677492	1.312397	-0.711842	1
H	-2.599992	0.411337	0.811298	1
H	-0.565632	0.211417	-1.503482	1
H	0.962318	0.408267	1.852848	1
H	2.050048	0.379697	-1.039112	1
H	2.831728	-0.436803	0.326918	1
H	2.681558	1.328077	0.314448	1
H	-0.712832	-1.190873	1.263348	1
H	0.857378	-1.668043	-1.079602	1
Es	-1.587685	0.301622	-0.345187	99
Es	2.173384	0.394110	0.048772	99
Es	-2.503004	0.397732	0.474530	99
Es	0.401476	-2.014986	-0.292748	99
Es	-2.326593	0.384183	-0.249266	99
Es	-0.535263	-0.382395	-0.058971	99
Es	-0.833851	0.224172	-0.439281	99
Es	0.049803	1.458522	0.045151	99
Es	0.841512	0.290157	0.770313	99
Es	0.273551	0.924781	0.453889	99
Es	0.614927	-2.138601	-0.112857	99
Es	1.512337	0.325952	0.398248	99
Es	0.424992	-0.347085	0.612981	99
Es	-0.095002	1.273032	0.245945	99
Es	-2.680965	-0.184819	-0.570985	99
Es	0.157892	-2.164511	-0.389983	99
Es	-0.124728	-0.859201	0.398853	99
Es	2.612835	-0.169891	0.242047	99
Es	2.077658	0.374552	-0.695869	99
Es	0.934306	0.371395	1.516091	99
Es	-0.526444	-1.084105	0.985243	99
Es	-0.644953	0.201592	-1.174195	99
Es	-2.557208	1.011581	-0.566254	99
Es	0.217639	-1.564237	-0.044644	99
Es	-0.277174	1.363162	0.480413	99
Es	2.508493	1.023709	0.232538	99
Es	-0.382274	0.897279	-0.034557	99
Es	0.639403	-1.810669	-0.715077	99
45
Properties=species:S:1:pos:R:3:Z:I:1 energy=-344.9727768562772 field_type=dipole dipole="0.000000 0.000000 0.000000" charge=0
C	-2.326612	0.384197	-0.249252	6
C	-0.833942	0.224017	-0.439402	6
O	-0.095032	1.273337	0.245968	8
C	0.841638	0.290017	0.770428	6
C	2.173408	0.394127	0.048768	6
C	-0.124842	-0.859053	0.398998	6
O	0.401448	-2.015223	-0.292662	8
H	-2.863142	-0.446893	-0.717672	1
H	-2.677492	1.312397	-0.711842	1
H	-2.599992	0.411337	0.811298	1
H	-0.565632	0.211417	-1.503482	1
H	0.962318	0.408267	1.852848	1
H	2.050048	0.379697	-1.039112	1
H	2.831728	-0.436803	0.326918	1
H	2.681558	1.328077	0.314448	1
H	-0.712832	-1.190873	1.263348	1
H	0.857378	-1.668043	-1.079602	1
Es	0.616283	-2.136216	-0.112819	99
Es	-0.644965	0.201603	-1.174223	99
Es	-2.326593	0.384184	-0.249266	99
Es	2.508507	1.023700	0.232402	99
Es	0.424977	-0.347082	0.613111	99
Es	-2.557152	1.011487	-0.566229	99
Es	-0.277352	1.362290	0.480065	99
Es	-0.833852	0.224173	-0.439281	99
Es	-2.681049	-0.184818	-0.570995	99
Es	-1.587628	0.301581	-0.345261	99
Es	2.612882	-0.169887	0.242064	99
Es	0.050201	1.459221	0.046404	99
Es	2.077582	0.374488	-0.695836	99
Es	-0.124725	-0.859210	0.398852	99
Es	0.159419	-2.166751	-0.388594	99
Es	0.401476	-2.014926	-0.292747	99
Es	0.273087	0.924539	0.454336	99
Es	2.173386	0.394109	0.048772	99
Es	-0.526438	-1.084069	0.985152	99
Es	-2.502971	0.397822	0.474586	99
Es	-0.095001	1.273048	0.245908	99
Es	0.841512	0.290156	0.770313	99
Es	-0.382023	0.897699	-0.035862	99
Es	1.512361	0.325972	0.398305	99
Es	-0.535281	-0.382329	-0.058974	99
Es	0.638235	-1.810491	-0.715988	99
Es	0.934291	0.371409	1.516117	99
Es	0.215897	-1.564670	-0.045172	99
45
Properties=species:S:1:pos:R:3:Z:I:1 energy=-344.9727768562772 field_type=dipole dipole="0.000000 0.000000 0.000000" charge=0
C	-2.326612	0.384197	-0.249252	6
C	-0.833942	0.224017	-0.439402	6
O	-0.095032	1.273337	0.245968	8
C	0.841638	0.290017	0.770428	6
C	2.173408	0.394127	0.048768	6
C	-0.124842	-0.859053	0.398998	6
O	0.401448	-2.015223	-0.292662	8
H	-2.863142	-0.446893	-0.717672	1
H	-2.677492	1.312397	-0.711842	1
H	-2.599992	0.411337	0.811298	1
H	-0.565632	0.211417	-1.503482	1
H	0.962318	0.408267	1.852848	1
H	2.050048	0.379697	-1.039112	1
H	2.831728	-0.436803	0.326918	1
H	2.681558	1.328077	0.314448	1
H	-0.712832	-1.190873	1.263348	1
H	0.857378	-1.668043	-1.079602	1
Es	-0.644945	0.201569	-1.174287	99
Es	0.272878	0.924820	0.454742	99
Es	-2.502908	0.397823	0.474664	99
Es	-0.535285	-0.382303	-0.058970	99
Es	0.425020	-0.347108	0.613126	99
Es	1.512335	0.325883	0.398159	99
Es	-1.587703	0.301613	-0.345280	99
Es	0.401489	-2.015023	-0.292753	99
Es	-0.277544	1.364701	0.479932	99
Es	2.077723	0.374526	-0.695962	99
Es	-0.526480	-1.084046	0.985145	99
Es	0.614616	-2.140042	-0.112126	99
Es	0.157738	-2.163002	-0.390590	99
Es	-0.095021	1.273029	0.245955	99
Es	0.934335	0.371448	1.516111	99
Es	0.639771	-1.810475	-0.714920	99
Es	-0.382085	0.897169	-0.034830	99
Es	-2.681057	-0.184852	-0.571072	99
Es	-0.124727	-0.859204	0.398852	99
Es	2.612720	-0.169847	0.242099	99
Es	0.217678	-1.564532	-0.044897	99
Es	2.173384	0.394110	0.048771	99
Es	0.841511	0.290156	0.770314	99
Es	0.050658	1.457070	0.045050	99
Es	-0.833851	0.224173	-0.439280	99
Es	-2.557096	1.011475	-0.566194	99
Es	2.508505	1.023720	0.232646	99
Es	-2.326592	0.384183	-0.249266	99
45
Properties=species:S:1:pos:R:3:Z:I:1 energy=-344.9727768562772 field_type=dipole dipole="0.000000 0.000000 0.000000" charge=0
C	-2.326612	0.384197	-0.249252	6
C	-0.833942	0.224017	-0.439402	6
O	-0.095032	1.273337	0.245968	8
C	0.841638	0.290017	0.770428	6
C	2.173408	0.394127	0.048768	6
C	-0.124842	-0.859053	0.398998	6
O	0.401448	-2.015223	-0.292662	8
H	-2.863142	-0.446893	-0.717672	1
H	-2.677492	1.312397	-0.711842	1
H	-2.599992	0.411337	0.811298	1
H	-0.565632	0.211417	-1.503482	1
H	0.962318	0.408267	1.852848	1
H	2.050048	0.379697	-1.039112	1
H	2.831728	-0.436803	0.326918	1
H	2.681558	1.328077	0.314448	1
H	-0.712832	-1.190873	1.263348	1
H	0.857378	-1.668043	-1.079602	1
Es	0.051472	1.457219	0.045027	99
Es	-0.833851	0.224172	-0.439281	99
Es	0.638229	-1.810431	-0.715937	99
Es	0.401419	-2.014887	-0.292814	99
Es	0.615696	-2.138706	-0.112949	99
Es	-2.502993	0.397889	0.474566	99
Es	-0.094979	1.273000	0.245908	99
Es	2.612896	-0.169784	0.242124	99
Es	0.934347	0.371388	1.516180	99
Es	-0.535179	-0.382249	-0.059048	99
Es	-2.681016	-0.184972	-0.571098	99
Es	-0.526529	-1.084112	0.985047	99
Es	0.425089	-0.347057	0.613262	99
Es	-0.124727	-0.859203	0.398853	99
Es	-2.326593	0.384184	-0.249266	99
Es	2.173384	0.394111	0.048771	99
Es	0.841513	0.290156	0.770314	99
Es	2.077581	0.374466	-0.695970	99
Es	0.158447	-2.164405	-0.389074	99
Es	2.508376	1.023742	0.232522	99
Es	0.272021	0.924527	0.455436	99
Es	-2.557153	1.011389	-0.566172	99
Es	1.512413	0.325814	0.398202	99
Es	-0.381750	0.897406	-0.035057	99
Es	0.217479	-1.564592	-0.044564	99
Es	-0.277886	1.364711	0.479541	99
Es	-0.645003	0.201573	-1.174207	99
Es	-1.587637	0.301687	-0.345174	99
45
Properties=species:S:1:pos:R:3:Z:I:1 energy=-344.9727768562772 field_type=dipole dipole="0.000000 0.000000 0.000000" charge=0
C	-2.326612	0.384197	-0.249252	6
C	-0.833942	0.224017	-0.439402	6
O	-0.095032	1.273337	0.245968	8
C	0.841638	0.290017	0.770428	6
C	2.173408	0.394127	0.048768	6
C	-0.124842	-0.859053	0.398998	6
O	0.401448	-2.015223	-0.292662	8
H	-2.863142	-0.446893	-0.717672	1
H	-2.677492	1.312397	-0.711842	1
H	-2.599992	0.411337	0.811298	1
H	-0.565632	0.211417	-1.503482	1
H	0.962318	0.408267	1.852848	1
H	2.050048	0.379697	-1.039112	1
H	2.831728	-0.436803	0.326918	1
H	2.681558	1.328077	0.314448	1
H	-0.712832	-1.190873	1.263348	1
H	0.857378	-1.668043	-1.079602	1
Es	0.841512	0.290157	0.770313	99
Es	-0.095024	1.273130	0.245943	99
Es	0.158238	-2.164699	-0.389533	99
Es	0.272444	0.924645	0.455678	99
Es	-0.526496	-1.084037	0.985264	99
Es	-0.833852	0.224170	-0.439282	99
Es	2.612627	-0.169846	0.242101	99
Es	0.425046	-0.347017	0.612958	99
Es	-2.557093	1.011551	-0.566219	99
Es	0.401453	-2.014923	-0.292783	99
Es	2.508609	1.023698	0.232627	99
Es	-1.587784	0.301668	-0.345256	99
Es	2.077637	0.374464	-0.696006	99
Es	-0.277304	1.365881	0.479141	99
Es	0.051183	1.455917	0.044890	99
Es	0.934273	0.371381	1.516218	99
Es	-2.502833	0.397745	0.474741	99
Es	0.638750	-1.810643	-0.715411	99
Es	1.512442	0.325985	0.398153	99
Es	-0.644990	0.201549	-1.174350	99
Es	-0.382410	0.897120	-0.034830	99
Es	-2.326593	0.384183	-0.249266	99
Es	0.217301	-1.564356	-0.044950	99
Es	2.173383	0.394110	0.048772	99
Es	-0.535266	-0.382297	-0.058884	99
Es	-0.124727	-0.859203	0.398853	99
Es	-2.680990	-0.184855	-0.571099	99
Es	0.615528	-2.138445	-0.112643	99
45
Properties=species:S:1:pos:R:3:Z:I:1 energy=-344.9727768562772 field_type=dipole dipole="0.000000 0.000000 0.000000" charge=0
C	-2.326612	0.384197	-0.249252	6
C	-0.833942	0.224017	-0.439402	6
O	-0.095032	1.273337	0.245968	8
C	0.841638	0.290017	0.770428	6
C	2.173408	0.394127	0.048768	6
C	-0.124842	-0.859053	0.398998	6
O	0.401448	-2.015223	-0.292662	8
H	-2.863142	-0.446893	-0.717672	1
H	-2.677492	1.312397	-0.711842	1
H	-2.599992	0.411337	0.811298	1
H	-0.565632	0.211417	-1.503482	1
H	0.962318	0.408267	1.852848	1
H	2.050048	0.379697	-1.039112	1
H	2.831728	-0.436803	0.326918	1
H	2.681558	1.328077	0.314448	1
H	-0.712832	-1.190873	1.263348	1
H	0.857378	-1.668043	-1.079602	1
Es	-0.277819	1.359327	0.480505	99
Es	2.508462	1.023606	0.232625	99
Es	-1.587691	0.301641	-0.345304	99
Es	0.613450	-2.142007	-0.113119	99
Es	1.512350	0.325895	0.398245	99
Es	-0.526449	-1.084071	0.985189	99
Es	2.077656	0.374466	-0.696141	99
Es	0.048619	1.461925	0.048096	99
Es	-2.326593	0.384184	-0.249266	99
Es	0.219052	-1.564164	-0.043618	99
Es	2.612724	-0.169707	0.242169	99
Es	2.173383	0.394110	0.048771	99
Es	0.425046	-0.347041	0.613019	99
Es	0.273829	0.924961	0.453452	99
Es	-2.557060	1.011331	-0.566156	99
Es	0.639812	-1.810744	-0.715147	99
Es	-0.124727	-0.859203	0.398853	99
Es	-2.681082	-0.184789	-0.571128	99
Es	-0.094706	1.272902	0.245533	99
Es	-0.644945	0.201547	-1.174303	99
Es	0.401395	-2.014879	-0.292859	99
Es	0.157587	-2.161249	-0.390567	99
Es	-0.380984	0.897596	-0.036757	99
Es	-0.535300	-0.382238	-0.059004	99
Es	0.934354	0.371433	1.516265	99
Es	0.841513	0.290158	0.770314	99
Es	-2.502958	0.397872	0.474755	99
Es	-0.833851	0.224174	-0.439281	99
45
Properties=species:S:1:pos:R:3:Z:I:1 energy=-344.9727768562772 field_type=dipole dipole="0.000000 0.000000 0.000000" charge=0
C	-2.326612	0.384197	-0.249252	6
C	-0.833942	0.224017	-0.439402	6
O	-0.095032	1.273337	0.245968	8
C	0.841638	0.290017	0.770428	6
C	2.173408	0.394127	0.048768	6
C	-0.124842	-0.859053	0.398998	6
O	0.401448	-2.015223	-0.292662	8
H	-2.863142	-0.446893	-0.717672	1
H	-2.677492	1.312397	-0.711842	1
H	-2.599992	0.411337	0.811298	1
H	-0.565632	0.211417	-1.503482	1
H	0.962318	0.408267	1.852848	1
H	2.050048	0.379697	-1.039112	1
H	2.831728	-0.436803	0.326918	1
H	2.681558	1.328077	0.314448	1
H	-0.712832	-1.190873	1.263348	1
H	0.857378	-1.668043	-1.079602	1
Es	0.051585	1.457410	0.045643	99
Es	2.612694	-0.169768	0.242166	99
Es	-2.680971	-0.184814	-0.571123	99
Es	0.638029	-1.810839	-0.716184	99
Es	-0.644984	0.201513	-1.174256	99
Es	0.271870	0.924368	0.455540	99
Es	2.077608	0.374488	-0.696133	99
Es	-2.557046	1.011413	-0.566261	99
Es	-2.326592	0.384184	-0.249266	99
Es	2.173383	0.394110	0.048772	99
Es	-0.277545	1.364463	0.479354	99
Es	-2.502905	0.397827	0.474843	99
Es	0.616132	-2.136828	-0.112852	99
Es	2.508471	1.023648	0.232675	99
Es	-0.833854	0.224169	-0.439284	99
Es	-0.535305	-0.382191	-0.059037	99
Es	0.216683	-1.564390	-0.045173	99
Es	-0.382032	0.897588	-0.035593	99
Es	-0.094972	1.273007	0.245899	99
Es	0.841512	0.290156	0.770313	99
Es	0.401530	-2.014885	-0.292720	99
Es	-0.124727	-0.859202	0.398853	99
Es	0.425065	-0.347130	0.613020	99
Es	1.512383	0.325923	0.398208	99
Es	0.158921	-2.166097	-0.388383	99
Es	0.934398	0.371385	1.516248	99
Es	-1.587852	0.301604	-0.345319	99
Es	-0.526413	-1.084078	0.985191	99
45
Properties=species:S:1:pos:R:3:Z:I:1 energy=-344.9727768562772 field_type=dipole dipole="0.000000 0.000000 0.000000" charge=0
C	-2.326612	0.384197	-0.249252	6
C	-0.833942	0.224017	-0.439402	6
O	-0.095032	1.273337	0.245968	8
C	0.841638	0.290017	0.770428	6
C	2.173408	0.394127	0.048768	6
C	-0.124842	-0.859053	0.398998	6
O	0.401448	-2.015223	-0.292662	8
H	-2.863142	-0.446893	-0.717672	1
H	-2.677492	1.312397	-0.711842	1
H	-2.599992	0.411337	0.811298	1
H	-0.565632	0.211417	-1.503482	1
H	0.962318	0.408267	1.852848	1
H	2.050048	0.379697	-1.039112	1
H	2.831728	-0.436803	0.326918	1
H	2.681558	1.328077	0.314448	1
H	-0.712832	-1.190873	1.263348	1
H	0.857378	-1.668043	-1.079602	1
Es	0.158492	-2.166110	-0.388435	99
Es	-0.535283	-0.382182	-0.058987	99
Es	-0.383006	0.896978	-0.034282	99
Es	0.217214	-1.564606	-0.044749	99
Es	0.934413	0.371431	1.516275	99
Es	-2.680877	-0.184856	-0.571079	99
Es	0.051173	1.455953	0.044558	99
Es	-0.095042	1.273022	0.245985	99
Es	-2.326592	0.384184	-0.249266	99
Es	-0.276736	1.366074	0.479379	99
Es	-0.124730	-0.859208	0.398850	99
Es	0.401473	-2.014994	-0.292737	99
Es	0.424961	-0.347163	0.613017	99
Es	-0.526417	-1.084058	0.985261	99
Es	0.841512	0.290156	0.770313	99
Es	-0.833851	0.224171	-0.439282	99
Es	2.508379	1.023619	0.232640	99
Es	0.637939	-1.810556	-0.716147	99
Es	2.612730	-0.169760	0.242303	99
Es	2.077644	0.374446	-0.696190	99
Es	0.272502	0.924716	0.455209	99
Es	-1.587795	0.301624	-0.345225	99
Es	-2.557067	1.011468	-0.566361	99
Es	1.512390	0.325927	0.398127	99
Es	-0.645017	0.201612	-1.174382	99
Es	2.173384	0.394110	0.048772	99
Es	0.616184	-2.136784	-0.113261	99
Es	-2.502909	0.397818	0.474835	99
45
Properties=species:S:1:pos:R:3:Z:I:1 energy=-344.9727768562772 field_type=dipole dipole="0.000000 0.000000 0.000000" charge=0
C	-2.326612	0.384197	-0.249252	6
C	-0.833942	0.224017	-0.439402	6
O	-0.095032	1.273337	0.245968	8
C	0.841638	0.290017	0.770428	6
C	2.173408	0.394127	0.048768	6
C	-0.124842	-0.859053	0.398998	6
O	0.401448	-2.015223	-0.292662	8
H	-2.863142	-0.446893	-0.717672	1
H	-2.677492	1.312397	-0.711842	1
H	-2.599992	0.411337	0.811298	1
H	-0.565632	0.211417	-1.503482	1
H	0.962318	0.408267	1.852848	1
H	2.050048	0.379697	-1.039112	1
H	2.831728	-0.436803	0.326918	1
H	2.681558	1.328077	0.314448	1
H	-0.712832	-1.190873	1.263348	1
H	0.857378	-1.668043	-1.079602	1
Es	0.401485	-2.014841	-0.292763	99
Es	0.614870	-2.138866	-0.112925	99
Es	-2.326590	0.384182	-0.249265	99
Es	2.077573	0.374429	-0.696172	99
Es	-0.277613	1.364119	0.479320	99
Es	0.425014	-0.347065	0.612992	99
Es	2.173383	0.394110	0.048771	99
Es	0.934431	0.371423	1.516316	99
Es	-0.526392	-1.084056	0.985210	99
Es	0.639194	-1.810638	-0.715427	99
Es	-2.502896	0.397878	0.474829	99
Es	-2.557088	1.011374	-0.566297	99
Es	0.051420	1.457612	0.045918	99
Es	-0.381925	0.897298	-0.035861	99
Es	0.158157	-2.164354	-0.389664	99
Es	2.612791	-0.169744	0.242273	99
Es	-2.680970	-0.184831	-0.571055	99
Es	-0.645035	0.201597	-1.174421	99
Es	0.841512	0.290156	0.770314	99
Es	0.272017	0.924615	0.455538	99
Es	2.508343	1.023669	0.232618	99
Es	-0.535395	-0.382258	-0.058957	99
Es	1.512399	0.325900	0.398148	99
Es	-1.587657	0.301659	-0.345289	99
Es	0.217628	-1.564361	-0.044518	99
Es	-0.124729	-0.859208	0.398847	99
Es	-0.095011	1.273058	0.245944	99
Es	-0.833848	0.224177	-0.439283	99
45
Properties=species:S:1:pos:R:3:Z:I:1 energy=-344.9727768562772 field_type=dipole dipole="0.000000 0.000000 0.000000" charge=0
C	-2.326612	0.384197	-0.249252	6
C	-0.833942	0.224017	-0.439402	6
O	-0.095032	1.273337	0.245968	8
C	0.841638	0.290017	0.770428	6
C	2.173408	0.394127	0.048768	6
C	-0.124842	-0.859053	0.398998	6
O	0.401448	-2.015223	-0.292662	8
H	-2.863142	-0.446893	-0.717672	1
H	-2.677492	1.312397	-0.711842	1
H	-2.599992	0.411337	0.811298	1
H	-0.565632	0.211417	-1.503482	1
H	0.962318	0.408267	1.852848	1
H	2.050048	0.379697	-1.039112	1
H	2.831728	-0.436803	0.326918	1
H	2.681558	1.328077	0.314448	1
H	-0.712832	-1.190873	1.263348	1
H	0.857378	-1.668043	-1.079602	1
Es	-0.535375	-0.382340	-0.058925	99
Es	-0.382773	0.897513	-0.034763	99
Es	-0.645028	0.201645	-1.174372	99
Es	0.272624	0.924300	0.455473	99
Es	-2.503014	0.397846	0.474834	99
Es	0.636585	-1.810969	-0.717162	99
Es	-0.277052	1.365665	0.479182	99
Es	2.508571	1.023612	0.232780	99
Es	0.401488	-2.014889	-0.292780	99
Es	-0.095012	1.273111	0.245943	99
Es	-2.326592	0.384184	-0.249266	99
Es	0.617040	-2.135724	-0.113683	99
Es	-2.680859	-0.184886	-0.571191	99
Es	0.158984	-2.167025	-0.386932	99
Es	1.512392	0.325844	0.398172	99
Es	0.424955	-0.347093	0.612917	99
Es	-1.587731	0.301735	-0.345196	99
Es	-0.833851	0.224172	-0.439281	99
Es	2.612559	-0.169739	0.242121	99
Es	0.934421	0.371480	1.516278	99
Es	-0.124727	-0.859204	0.398853	99
Es	2.077613	0.374503	-0.696208	99
Es	2.173383	0.394110	0.048772	99
Es	0.841512	0.290156	0.770314	99
Es	-2.557007	1.011393	-0.566319	99
Es	-0.526372	-1.084044	0.985330	99
Es	0.051131	1.456121	0.045023	99
Es	0.217201	-1.564447	-0.044771	99
45
Properties=species:S:1:pos:R:3:Z:I:1 energy=-344.9727768562772 field_type=dipole dipole="0.000000 0.000000 0.000000" charge=0
C	-2.326612	0.384197	-0.249252	6
C	-0.833942	0.224017	-0.439402	6
O	-0.095032	1.273337	0.245968	8
C	0.841638	0.290017	0.770428	6
C	2.173408	0.394127	0.048768	6
C	-0.124842	-0.859053	0.398998	6
O	0.401448	-2.015223	-0.292662	8
H	-2.863142	-0.446893	-0.717672	1
H	-2.677492	1.312397	-0.711842	1
H	-2.599992	0.411337	0.811298	1
H	-0.565632	0.211417	-1.503482	1
H	0.962318	0.408267	1.852848	1
H	2.050048	0.379697	-1.039112	1
H	2.831728	-0.436803	0.326918	1
H	2.681558	1.328077	0.314448	1
H	-0.712832	-1.190873	1.263348	1
H	0.857378	-1.668043	-1.079602	1
Es	0.272755	0.924504	0.454785	99
Es	2.077619	0.374416	-0.696252	99
Es	0.050687	1.458118	0.045979	99
Es	1.512384	0.325952	0.398200	99
Es	2.612682	-0.169688	0.242275	99
Es	-2.326591	0.384184	-0.249265	99
Es	-2.681060	-0.184748	-0.571216	99
Es	-0.124726	-0.859206	0.398851	99
Es	-0.094988	1.273013	0.245936	99
Es	-0.535380	-0.382267	-0.058906	99
Es	2.508405	1.023617	0.232682	99
Es	0.425003	-0.347102	0.612926	99
Es	-0.277446	1.363546	0.479810	99
Es	0.934417	0.371441	1.516317	99
Es	2.173384	0.394110	0.048771	99
Es	-2.502973	0.397866	0.474869	99
Es	0.157988	-2.164307	-0.388444	99
Es	0.218264	-1.564094	-0.044750	99
Es	-2.556912	1.011349	-0.566203	99
Es	0.615518	-2.138528	-0.113008	99
Es	-0.382110	0.897555	-0.035631	99
Es	-0.833850	0.224175	-0.439281	99
Es	-0.645051	0.201581	-1.174457	99
Es	0.401489	-2.014898	-0.292767	99
Es	-1.587588	0.301575	-0.345276	99
Es	0.638066	-1.811218	-0.716359	99
Es	-0.526435	-1.084065	0.985238	99
Es	0.841513	0.290153	0.770316	99
45
Properties=species:S:1:pos:R:3:Z:I:1 energy=-344.9727768562772 field_type=dipole dipole="0.000000 0.000000 0.000000" charge=0
C	-2.326612	0.384197	-0.249252	6
C	-0.833942	0.224017	-0.439402	6
O	-0.095032	1.273337	0.245968	8
C	0.841638	0.290017	0.770428	6
C	2.173408	0.394127	0.048768	6
C	-0.124842	-0.859053	0.398998	6
O	0.401448	-2.015223	-0.292662	8
H	-2.863142	-0.446893	-0.717672	1
H	-2.677492	1.312397	-0.711842	1
H	-2.599992	0.411337	0.811298	1
H	-0.565632	0.211417	-1.503482	1
H	0.962318	0.408267	1.852848	1
H	2.050048	0.379697	-1.039112	1
H	2.831728	-0.436803	0.326918	1
H	2.681558	1.328077	0.314448	1
H	-0.712832	-1.190873	1.263348	1
H	0.857378	-1.668043	-1.079602	1
Es	-0.277901	1.360772	0.480290	99
Es	0.934411	0.371433	1.516358	99
Es	0.425034	-0.347052	0.612972	99
Es	-0.124723	-0.859206	0.398853	99
Es	-0.535417	-0.382198	-0.058932	99
Es	0.219182	-1.564113	-0.043759	99
Es	0.049863	1.460369	0.046982	99
Es	2.612535	-0.169716	0.242215	99
Es	2.173384	0.394109	0.048772	99
Es	0.841512	0.290157	0.770313	99
Es	2.077579	0.374476	-0.696321	99
Es	-0.644982	0.201556	-1.174419	99
Es	2.508549	1.023525	0.232772	99
Es	-0.095067	1.273169	0.245985	99
Es	-1.587721	0.301600	-0.345269	99
Es	-0.381155	0.897498	-0.036432	99
Es	0.614300	-2.141302	-0.113292	99
Es	-0.833850	0.224173	-0.439281	99
Es	0.401456	-2.014906	-0.292768	99
Es	1.512426	0.325981	0.398221	99
Es	-2.326593	0.384184	-0.249266	99
Es	-0.526380	-1.084078	0.985187	99
Es	-2.556911	1.011357	-0.566173	99
Es	0.273165	0.924886	0.454039	99
Es	-2.502941	0.397864	0.474867	99
Es	0.638974	-1.810857	-0.715545	99
Es	0.157413	-2.161866	-0.389989	99
Es	-2.681073	-0.184780	-0.571239	99
45
Properties=species:S:1:pos:R:3:Z:I:1 energy=-344.9727768562772 field_type=dipole dipole="0.000000 0.000000 0.000000" charge=0
C	-2.326612	0.384197	-0.249252	6
C	-0.833942	0.224017	-0.439402	6
O	-0.095032	1.273337	0.245968	8
C	0.841638	0.290017	0.770428	6
C	2.173408	0.394127	0.048768	6
C	-0.124842	-0.859053	0.398998	6
O	0.401448	-2.015223	-0.292662	8
H	-2.863142	-0.446893	-0.717672	1
H	-2.677492	1.312397	-0.711842	1
H	-2.599992	0.411337	0.811298	1
H	-0.565632	0.211417	-1.503482	1
H	0.962318	0.408267	1.852848	1
H	2.050048	0.379697	-1.039112	1
H	2.831728	-0.436803	0.326918	1
H	2.681558	1.328077	0.314448	1
H	-0.712832	-1.190873	1.263348	1
H	0.857378	-1.668043	-1.079602	1
Es	2.077694	0.374259	-0.696293	99
Es	-0.382524	0.897234	-0.034670	99
Es	-0.526343	-1.084078	0.985257	99
Es	2.173384	0.394110	0.048771	99
Es	-0.535499	-0.382216	-0.058942	99
Es	0.401462	-2.014880	-0.292783	99
Es	-0.277380	1.367760	0.478784	99
Es	0.934460	0.371440	1.516355	99
Es	0.218798	-1.564407	-0.044531	99
Es	2.612598	-0.169606	0.242388	99
Es	-0.644981	0.201537	-1.174416	99
Es	0.157428	-2.163627	-0.388937	99
Es	-2.680835	-0.184957	-0.571102	99
Es	-0.095042	1.272987	0.246003	99
Es	0.271386	0.924292	0.456359	99
Es	0.841512	0.290156	0.770312	99
Es	-2.502710	0.397758	0.474902	99
Es	2.508405	1.023702	0.232687	99
Es	0.425017	-0.347120	0.612885	99
Es	-2.326592	0.384184	-0.249266	99
Es	-1.587827	0.301889	-0.345421	99
Es	1.512347	0.325933	0.398125	99
Es	-0.833851	0.224172	-0.439281	99
Es	0.638663	-1.810857	-0.716134	99
Es	0.614971	-2.139259	-0.112932	99
Es	0.052500	1.454435	0.044402	99
Es	-0.124726	-0.859204	0.398853	99
Es	-2.557251	1.011398	-0.566236	99
45
Properties=species:S:1:pos:R:3:Z:I:1 energy=-344.9727768562772 field_type=dipole dipole="0.000000 0.000000 0.000000" charge=0
C	-2.326612	0.384197	-0.249252	6
C	-0.833942	0.224017	-0.439402	6
O	-0.095032	1.273337	0.245968	8
C	0.841638	0.290017	0.770428	6
C	2.173408	0.394127	0.048768	6
C	-0.124842	-0.859053	0.398998	6
O	0.401448	-2.015223	-0.292662	8
H	-2.863142	-0.446893	-0.717672	1
H	-2.677492	1.312397	-0.711842	1
H	-2.599992	0.411337	0.811298	1
H	-0.565632	0.211417	-1.503482	1
H	0.962318	0.408267	1.852848	1
H	2.050048	0.379697	-1.039112	1
H	2.831728	-0.436803	0.326918	1
H	2.681558	1.328077	0.314448	1
H	-0.712832	-1.190873	1.263348	1
H	0.857378	-1.668043	-1.079602	1
Es	0.158319	-2.165387	-0.388569	99
Es	-0.526303	-1.084101	0.985399	99
Es	1.512485	0.325955	0.398241	99
Es	0.401521	-2.014831	-0.292750	99
Es	-2.556886	1.011220	-0.566292	99
Es	2.173384	0.394111	0.048772	99
Es	-0.278297	1.362065	0.479622	99
Es	0.050309	1.459281	0.046986	99
Es	-2.680925	-0.184791	-0.571273	99
Es	2.612631	-0.169725	0.242207	99
Es	0.637655	-1.810629	-0.716104	99
Es	-0.833850	0.224173	-0.439281	99
Es	0.424954	-0.347093	0.612760	99
Es	-0.645121	0.201581	-1.174442	99
Es	0.217696	-1.564357	-0.044522	99
Es	0.272909	0.924811	0.455057	99
Es	-1.587751	0.301701	-0.345256	99
Es	-2.326592	0.384184	-0.249266	99
Es	0.841512	0.290156	0.770314	99
Es	-2.502984	0.397929	0.475055	99
Es	0.934382	0.371403	1.516338	99
Es	0.616137	-2.137794	-0.113441	99
Es	2.077522	0.374460	-0.696265	99
Es	-0.535444	-0.382257	-0.058919	99
Es	-0.095007	1.273026	0.245946	99
Es	-0.380950	0.897554	-0.036743	99
Es	2.508485	1.023595	0.232717	99
Es	-0.124724	-0.859206	0.398851	99
