41
Properties=species:S:1:pos:R:3:Z:I:1 energy=-306.78703161679533 field_type=dipole dipole="0.000000 0.000000 0.000000" charge=0
C	-2.085790	-1.300587	0.443881	6
C	-0.632110	-1.261667	0.105041	6
C	0.078270	-0.131147	0.002481	6
C	1.539680	0.001343	-0.342109	6
C	1.714280	1.487453	-0.368339	6
C	0.542690	2.046683	-0.068859	6
O	-0.470891	1.136413	0.170921	8
H	-2.375070	-2.319046	0.722241	1
H	-2.690290	-1.002567	-0.418089	1
H	-2.317270	-0.648987	1.292571	1
H	-0.141170	-2.214787	-0.065599	1
H	1.763420	-0.434997	-1.319819	1
H	2.174060	-0.447817	0.428171	1
H	2.631820	2.006563	-0.592279	1
H	0.268370	3.083143	0.009791	1
Es	1.683824	-0.294758	-0.995836	99
Es	-1.353906	-1.277624	0.274221	99
Es	-0.524890	1.155035	0.448989	99
Es	1.539632	0.001388	-0.342093	99
Es	1.247939	1.784972	0.094483	99
Es	2.335146	1.830345	-0.519726	99
Es	-2.279415	-1.996360	0.631344	99
Es	-0.662650	1.168903	-0.043528	99
Es	-2.085739	-1.300595	0.443864	99
Es	-0.294638	-1.906028	-0.011867	99
Es	-2.488007	-1.096552	-0.140099	99
Es	0.078276	-0.130791	0.002497	99
Es	-0.072662	1.470059	0.076814	99
Es	1.958979	-0.302907	0.175153	99
Es	-0.470483	1.136329	0.170818	99
Es	-0.205369	-0.739805	0.385153	99
Es	-0.632160	-1.261717	0.105063	99
Es	0.351379	2.743380	-0.013722	99
Es	1.663804	0.743148	-0.364904	99
Es	1.086922	1.792757	-0.550604	99
Es	-2.237765	-0.857928	1.014100	99
Es	-0.359404	-0.706063	-0.270862	99
Es	0.542376	2.046579	-0.068777	99
Es	0.811795	-0.079501	-0.169777	99
Es	1.714344	1.487383	-0.368353	99
Es	-0.245565	0.664926	0.104395	99
41
Properties=species:S:1:pos:R:3:Z:I:1 energy=-306.78703161679533 field_type=dipole dipole="0.000000 0.000000 0.000000" charge=0
C	-2.085790	-1.300587	0.443881	6
C	-0.632110	-1.261667	0.105041	6
C	0.078270	-0.131147	0.002481	6
C	1.539680	0.001343	-0.342109	6
C	1.714280	1.487453	-0.368339	6
C	0.542690	2.046683	-0.068859	6
O	-0.470891	1.136413	0.170921	8
H	-2.375070	-2.319046	0.722241	1
H	-2.690290	-1.002567	-0.418089	1
H	-2.317270	-0.648987	1.292571	1
H	-0.141170	-2.214787	-0.065599	1
H	1.763420	-0.434997	-1.319819	1
H	2.174060	-0.447817	0.428171	1
H	2.631820	2.006563	-0.592279	1
H	0.268370	3.083143	0.009791	1
Es	-2.085737	-1.300597	0.443868	99
Es	1.957791	-0.302453	0.172067	99
Es	-0.293177	-1.906484	-0.012225	99
Es	1.539631	0.001390	-0.342096	99
Es	-2.485897	-1.096661	-0.136250	99
Es	1.714349	1.487379	-0.368335	99
Es	-1.353481	-1.275515	0.272994	99
Es	1.246506	1.784088	0.089800	99
Es	2.336022	1.832367	-0.519772	99
Es	1.088054	1.792001	-0.545893	99
Es	0.352078	2.744638	-0.013738	99
Es	0.811006	-0.082268	-0.169473	99
Es	-0.470480	1.136329	0.170768	99
Es	-0.676006	1.172399	-0.025990	99
Es	1.664761	0.743951	-0.365162	99
Es	1.684649	-0.294962	-0.993039	99
Es	-2.238806	-0.857461	1.012200	99
Es	0.542372	2.046578	-0.068777	99
Es	-0.249499	0.659877	0.101686	99
Es	-0.507556	1.149761	0.436632	99
Es	-0.359110	-0.705988	-0.267177	99
Es	-0.632165	-1.261720	0.105051	99
Es	-0.073065	1.476540	0.074522	99
Es	0.078279	-0.130784	0.002499	99
Es	-0.206758	-0.739586	0.381607	99
Es	-2.281999	-1.998241	0.630980	99
41
Properties=species:S:1:pos:R:3:Z:I:1 energy=-306.78703161679533 field_type=dipole dipole="0.000000 0.000000 0.000000" charge=0
C	-2.085790	-1.300587	0.443881	6
C	-0.632110	-1.261667	0.105041	6
C	0.078270	-0.131147	0.002481	6
C	1.539680	0.001343	-0.342109	6
C	1.714280	1.487453	-0.368339	6
C	0.542690	2.046683	-0.068859	6
O	-0.470891	1.136413	0.170921	8
H	-2.375070	-2.319046	0.722241	1
H	-2.690290	-1.002567	-0.418089	1
H	-2.317270	-0.648987	1.292571	1
H	-0.141170	-2.214787	-0.065599	1
H	1.763420	-0.434997	-1.319819	1
H	2.174060	-0.447817	0.428171	1
H	2.631820	2.006563	-0.592279	1
H	0.268370	3.083143	0.009791	1
Es	1.087878	1.792149	-0.544977	99
Es	1.958649	-0.303809	0.171645	99
Es	-0.293210	-1.906690	-0.012183	99
Es	-0.470353	1.136320	0.171025	99
Es	-0.358875	-0.706708	-0.267317	99
Es	0.351940	2.745042	-0.015253	99
Es	-0.486515	1.129215	-0.018262	99
Es	-1.353636	-1.274752	0.272093	99
Es	1.665091	0.744240	-0.364697	99
Es	1.539631	0.001389	-0.342095	99
Es	-0.069301	1.481216	0.102352	99
Es	1.714356	1.487382	-0.368328	99
Es	-0.247742	0.655616	0.131192	99
Es	-0.702364	1.192198	0.370633	99
Es	-2.282379	-1.998995	0.631585	99
Es	-2.485810	-1.095996	-0.136349	99
Es	-0.207383	-0.738892	0.381806	99
Es	0.811025	-0.082997	-0.168707	99
Es	0.542373	2.046579	-0.068782	99
Es	1.683585	-0.293684	-0.991173	99
Es	-2.238475	-0.858021	1.011057	99
Es	-2.085738	-1.300596	0.443867	99
Es	2.336674	1.833171	-0.517011	99
Es	0.078277	-0.130779	0.002493	99
Es	-0.632163	-1.261719	0.105057	99
Es	1.246228	1.783699	0.087073	99
41
Properties=species:S:1:pos:R:3:Z:I:1 energy=-306.78703161679533 field_type=dipole dipole="0.000000 0.000000 0.000000" charge=0
C	-2.085790	-1.300587	0.443881	6
C	-0.632110	-1.261667	0.105041	6
C	0.078270	-0.131147	0.002481	6
C	1.539680	0.001343	-0.342109	6
C	1.714280	1.487453	-0.368339	6
C	0.542690	2.046683	-0.068859	6
O	-0.470891	1.136413	0.170921	8
H	-2.375070	-2.319046	0.722241	1
H	-2.690290	-1.002567	-0.418089	1
H	-2.317270	-0.648987	1.292571	1
H	-0.141170	-2.214787	-0.065599	1
H	1.763420	-0.434997	-1.319819	1
H	2.174060	-0.447817	0.428171	1
H	2.631820	2.006563	-0.592279	1
H	0.268370	3.083143	0.009791	1
Es	1.089121	1.791940	-0.542889	99
Es	-2.483469	-1.097458	-0.134182	99
Es	-0.293112	-1.906792	-0.012196	99
Es	-0.078630	1.484368	0.062456	99
Es	1.685051	-0.295750	-0.992149	99
Es	1.245643	1.783919	0.087601	99
Es	0.542372	2.046579	-0.068778	99
Es	-0.260026	0.655446	0.084810	99
Es	1.956171	-0.301784	0.170328	99
Es	-2.239612	-0.856009	1.011264	99
Es	-0.390203	1.117123	0.307840	99
Es	0.078279	-0.130788	0.002484	99
Es	-0.632162	-1.261720	0.105062	99
Es	-1.353463	-1.274646	0.272816	99
Es	-2.283219	-1.999859	0.630574	99
Es	1.714354	1.487379	-0.368345	99
Es	-0.776558	1.201004	0.131929	99
Es	-2.085736	-1.300596	0.443867	99
Es	2.335825	1.833547	-0.520926	99
Es	0.810775	-0.083264	-0.169527	99
Es	-0.206956	-0.739481	0.381600	99
Es	-0.359616	-0.706004	-0.267105	99
Es	-0.470468	1.136307	0.170650	99
Es	1.665014	0.744496	-0.365605	99
Es	0.352760	2.745233	-0.012737	99
Es	1.539631	0.001389	-0.342095	99
41
Properties=species:S:1:pos:R:3:Z:I:1 energy=-306.78703161679533 field_type=dipole dipole="0.000000 0.000000 0.000000" charge=0
C	-2.085790	-1.300587	0.443881	6
C	-0.632110	-1.261667	0.105041	6
C	0.078270	-0.131147	0.002481	6
C	1.539680	0.001343	-0.342109	6
C	1.714280	1.487453	-0.368339	6
C	0.542690	2.046683	-0.068859	6
O	-0.470891	1.136413	0.170921	8
H	-2.375070	-2.319046	0.722241	1
H	-2.690290	-1.002567	-0.418089	1
H	-2.317270	-0.648987	1.292571	1
H	-0.141170	-2.214787	-0.065599	1
H	1.763420	-0.434997	-1.319819	1
H	2.174060	-0.447817	0.428171	1
H	2.631820	2.006563	-0.592279	1
H	0.268370	3.083143	0.009791	1
Es	-0.077872	1.486251	0.066820	99
Es	-0.293349	-1.906769	-0.012380	99
Es	-0.632164	-1.261721	0.105054	99
Es	-2.483438	-1.097155	-0.134037	99
Es	1.539633	0.001388	-0.342095	99
Es	1.684783	-0.295634	-0.991776	99
Es	0.810799	-0.083327	-0.169342	99
Es	1.665094	0.744565	-0.365572	99
Es	-2.283332	-2.000204	0.630560	99
Es	-0.469517	1.135933	0.168955	99
Es	1.245493	1.783869	0.086854	99
Es	-2.239400	-0.856284	1.011076	99
Es	1.956163	-0.302023	0.170241	99
Es	0.352786	2.745321	-0.013013	99
Es	-0.206879	-0.739619	0.382103	99
Es	-1.353485	-1.274447	0.272571	99
Es	1.714350	1.487380	-0.368348	99
Es	1.089236	1.791984	-0.542443	99
Es	-0.780406	1.202797	0.166316	99
Es	0.542373	2.046579	-0.068780	99
Es	0.078278	-0.130779	0.002498	99
Es	-0.359653	-0.705911	-0.267434	99
Es	-0.259884	0.653443	0.088952	99
Es	-2.085737	-1.300595	0.443868	99
Es	-0.388044	1.115657	0.266486	99
Es	2.335935	1.833881	-0.520389	99
41
Properties=species:S:1:pos:R:3:Z:I:1 energy=-306.78703161679533 field_type=dipole dipole="0.000000 0.000000 0.000000" charge=0
C	-2.085790	-1.300587	0.443881	6
C	-0.632110	-1.261667	0.105041	6
C	0.078270	-0.131147	0.002481	6
C	1.539680	0.001343	-0.342109	6
C	1.714280	1.487453	-0.368339	6
C	0.542690	2.046683	-0.068859	6
O	-0.470891	1.136413	0.170921	8
H	-2.375070	-2.319046	0.722241	1
H	-2.690290	-1.002567	-0.418089	1
H	-2.317270	-0.648987	1.292571	1
H	-0.141170	-2.214787	-0.065599	1
H	1.763420	-0.434997	-1.319819	1
H	2.174060	-0.447817	0.428171	1
H	2.631820	2.006563	-0.592279	1
H	0.268370	3.083143	0.009791	1
Es	0.810756	-0.083718	-0.169196	99
Es	1.714350	1.487380	-0.368357	99
Es	-0.470457	1.136305	0.170559	99
Es	-1.353513	-1.274264	0.272206	99
Es	-0.077439	1.487449	0.069911	99
Es	0.352880	2.745471	-0.013074	99
Es	0.078279	-0.130784	0.002503	99
Es	-0.206972	-0.739671	0.382116	99
Es	-0.359635	-0.705849	-0.267388	99
Es	-0.293297	-1.906777	-0.012364	99
Es	-2.483046	-1.097190	-0.133509	99
Es	-0.632163	-1.261721	0.105061	99
Es	1.684810	-0.295654	-0.991345	99
Es	1.665178	0.744743	-0.365586	99
Es	0.542371	2.046578	-0.068773	99
Es	-0.259343	0.652611	0.091961	99
Es	1.955913	-0.301936	0.169782	99
Es	-0.780888	1.202593	0.176131	99
Es	1.089295	1.791975	-0.541734	99
Es	-0.387487	1.114988	0.248935	99
Es	-2.085737	-1.300597	0.443867	99
Es	-2.239454	-0.856182	1.010798	99
Es	-2.283686	-2.000484	0.630485	99
Es	1.245433	1.783735	0.086164	99
Es	1.539631	0.001390	-0.342096	99
Es	2.335983	1.834189	-0.520313	99
41
Properties=species:S:1:pos:R:3:Z:I:1 energy=-306.78703161679533 field_type=dipole dipole="0.000000 0.000000 0.000000" charge=0
C	-2.085790	-1.300587	0.443881	6
C	-0.632110	-1.261667	0.105041	6
C	0.078270	-0.131147	0.002481	6
C	1.539680	0.001343	-0.342109	6
C	1.714280	1.487453	-0.368339	6
C	0.542690	2.046683	-0.068859	6
O	-0.470891	1.136413	0.170921	8
H	-2.375070	-2.319046	0.722241	1
H	-2.690290	-1.002567	-0.418089	1
H	-2.317270	-0.648987	1.292571	1
H	-0.141170	-2.214787	-0.065599	1
H	1.763420	-0.434997	-1.319819	1
H	2.174060	-0.447817	0.428171	1
H	2.631820	2.006563	-0.592279	1
H	0.268370	3.083143	0.009791	1
Es	1.665300	0.744747	-0.365504	99
Es	0.810723	-0.083850	-0.169115	99
Es	-0.470461	1.136295	0.170716	99
Es	-1.353456	-1.274084	0.272189	99
Es	1.714347	1.487380	-0.368369	99
Es	1.244918	1.783905	0.085440	99
Es	-0.632164	-1.261720	0.105058	99
Es	-0.207111	-0.739030	0.381958	99
Es	0.352950	2.745587	-0.013143	99
Es	0.078279	-0.130775	0.002503	99
Es	-2.239377	-0.856295	1.010565	99
Es	-2.482838	-1.097033	-0.133211	99
Es	1.539631	0.001390	-0.342096	99
Es	-2.085738	-1.300597	0.443868	99
Es	1.089751	1.791764	-0.541426	99
Es	-0.293247	-1.906852	-0.012211	99
Es	-0.780783	1.203678	0.186787	99
Es	-0.259335	0.651644	0.094880	99
Es	0.542371	2.046578	-0.068785	99
Es	1.684713	-0.295565	-0.990957	99
Es	1.955844	-0.302044	0.169640	99
Es	-0.388747	1.114753	0.231338	99
Es	-0.076197	1.487428	0.073760	99
Es	2.336063	1.834426	-0.520026	99
Es	-2.283968	-2.000723	0.630428	99
Es	-0.359704	-0.706429	-0.267541	99
41
Properties=species:S:1:pos:R:3:Z:I:1 energy=-306.78703161679533 field_type=dipole dipole="0.000000 0.000000 0.000000" charge=0
C	-2.085790	-1.300587	0.443881	6
C	-0.632110	-1.261667	0.105041	6
C	0.078270	-0.131147	0.002481	6
C	1.539680	0.001343	-0.342109	6
C	1.714280	1.487453	-0.368339	6
C	0.542690	2.046683	-0.068859	6
O	-0.470891	1.136413	0.170921	8
H	-2.375070	-2.319046	0.722241	1
H	-2.690290	-1.002567	-0.418089	1
H	-2.317270	-0.648987	1.292571	1
H	-0.141170	-2.214787	-0.065599	1
H	1.763420	-0.434997	-1.319819	1
H	2.174060	-0.447817	0.428171	1
H	2.631820	2.006563	-0.592279	1
H	0.268370	3.083143	0.009791	1
Es	-0.390326	1.114938	0.216585	99
Es	-0.780124	1.204034	0.196019	99
Es	-0.075720	1.487642	0.075347	99
Es	-1.353471	-1.273904	0.272057	99
Es	1.089494	1.791983	-0.540842	99
Es	-2.482494	-1.097278	-0.133050	99
Es	1.955735	-0.302093	0.169433	99
Es	1.714351	1.487379	-0.368355	99
Es	-2.284041	-2.000887	0.630479	99
Es	0.810738	-0.084026	-0.168966	99
Es	1.665260	0.744811	-0.365525	99
Es	0.542372	2.046578	-0.068780	99
Es	0.078278	-0.130777	0.002499	99
Es	1.245190	1.783550	0.084888	99
Es	1.684706	-0.295469	-0.990730	99
Es	1.539631	0.001390	-0.342096	99
Es	-0.632167	-1.261720	0.105047	99
Es	2.336180	1.834654	-0.519695	99
Es	-2.085738	-1.300597	0.443868	99
Es	-0.470160	1.136269	0.171300	99
Es	-0.293312	-1.906796	-0.012320	99
Es	-0.359655	-0.706511	-0.267587	99
Es	-0.207110	-0.738971	0.382111	99
Es	0.353010	2.745677	-0.013352	99
Es	-2.239673	-0.856132	1.010264	99
Es	-0.259192	0.650834	0.098145	99
41
Properties=species:S:1:pos:R:3:Z:I:1 energy=-306.78703161679533 field_type=dipole dipole="0.000000 0.000000 0.000000" charge=0
C	-2.085790	-1.300587	0.443881	6
C	-0.632110	-1.261667	0.105041	6
C	0.078270	-0.131147	0.002481	6
C	1.539680	0.001343	-0.342109	6
C	1.714280	1.487453	-0.368339	6
C	0.542690	2.046683	-0.068859	6
O	-0.470891	1.136413	0.170921	8
H	-2.375070	-2.319046	0.722241	1
H	-2.690290	-1.002567	-0.418089	1
H	-2.317270	-0.648987	1.292571	1
H	-0.141170	-2.214787	-0.065599	1
H	1.763420	-0.434997	-1.319819	1
H	2.174060	-0.447817	0.428171	1
H	2.631820	2.006563	-0.592279	1
H	0.268370	3.083143	0.009791	1
Es	-2.284332	-2.001083	0.630384	99
Es	-0.259002	0.650719	0.099425	99
Es	1.539631	0.001390	-0.342096	99
Es	1.245295	1.783506	0.084508	99
Es	1.665339	0.744854	-0.365598	99
Es	-0.391830	1.114899	0.206054	99
Es	-0.075229	1.488076	0.077934	99
Es	0.542371	2.046578	-0.068782	99
Es	-1.353461	-1.273740	0.271834	99
Es	-0.293274	-1.906852	-0.012421	99
Es	-0.779598	1.203733	0.202459	99
Es	0.810553	-0.084190	-0.169213	99
Es	1.955502	-0.301973	0.169403	99
Es	-0.632166	-1.261723	0.105058	99
Es	-0.359636	-0.706168	-0.267442	99
Es	2.336197	1.834833	-0.519697	99
Es	-0.469856	1.136196	0.171506	99
Es	1.684924	-0.295526	-0.990270	99
Es	-2.085737	-1.300596	0.443867	99
Es	1.714353	1.487378	-0.368359	99
Es	1.089445	1.791974	-0.540302	99
Es	-0.207110	-0.739339	0.382064	99
Es	-2.482462	-1.096981	-0.132673	99
Es	0.352990	2.745759	-0.013538	99
Es	0.078278	-0.130778	0.002500	99
Es	-2.239420	-0.856366	1.010140	99
41
Properties=species:S:1:pos:R:3:Z:I:1 energy=-306.78703161679533 field_type=dipole dipole="0.000000 0.000000 0.000000" charge=0
C	-2.085790	-1.300587	0.443881	6
C	-0.632110	-1.261667	0.105041	6
C	0.078270	-0.131147	0.002481	6
C	1.539680	0.001343	-0.342109	6
C	1.714280	1.487453	-0.368339	6
C	0.542690	2.046683	-0.068859	6
O	-0.470891	1.136413	0.170921	8
H	-2.375070	-2.319046	0.722241	1
H	-2.690290	-1.002567	-0.418089	1
H	-2.317270	-0.648987	1.292571	1
H	-0.141170	-2.214787	-0.065599	1
H	1.763420	-0.434997	-1.319819	1
H	2.174060	-0.447817	0.428171	1
H	2.631820	2.006563	-0.592279	1
H	0.268370	3.083143	0.009791	1
Es	0.810659	-0.084436	-0.168787	99
Es	1.956025	-0.302529	0.169084	99
Es	-0.396552	1.115516	0.185607	99
Es	-0.074483	1.488294	0.081075	99
Es	-2.085737	-1.300597	0.443868	99
Es	-0.632165	-1.261722	0.105055	99
Es	-2.284302	-2.001180	0.630538	99
Es	0.352962	2.745816	-0.013805	99
Es	-0.359571	-0.706207	-0.267425	99
Es	-1.353547	-1.273620	0.271726	99
Es	-0.207335	-0.739235	0.382068	99
Es	1.714350	1.487380	-0.368360	99
Es	1.245056	1.783425	0.083831	99
Es	0.542370	2.046578	-0.068778	99
Es	1.539631	0.001390	-0.342096	99
Es	1.089534	1.792038	-0.540467	99
Es	-0.777886	1.203768	0.216608	99
Es	2.336387	1.834947	-0.518798	99
Es	1.665454	0.744913	-0.365421	99
Es	-2.239421	-0.856392	1.009941	99
Es	1.684286	-0.294922	-0.989892	99
Es	-0.259011	0.650373	0.101014	99
Es	-2.482436	-1.096972	-0.132791	99
Es	-0.293261	-1.906886	-0.012441	99
Es	-0.467523	1.135618	0.172885	99
Es	0.078280	-0.130778	0.002505	99
41
Properties=species:S:1:pos:R:3:Z:I:1 energy=-306.78703161679533 field_type=dipole dipole="0.000000 0.000000 0.000000" charge=0
C	-2.085790	-1.300587	0.443881	6
C	-0.632110	-1.261667	0.105041	6
C	0.078270	-0.131147	0.002481	6
C	1.539680	0.001343	-0.342109	6
C	1.714280	1.487453	-0.368339	6
C	0.542690	2.046683	-0.068859	6
O	-0.470891	1.136413	0.170921	8
H	-2.375070	-2.319046	0.722241	1
H	-2.690290	-1.002567	-0.418089	1
H	-2.317270	-0.648987	1.292571	1
H	-0.141170	-2.214787	-0.065599	1
H	1.763420	-0.434997	-1.319819	1
H	2.174060	-0.447817	0.428171	1
H	2.631820	2.006563	-0.592279	1
H	0.268370	3.083143	0.009791	1
Es	-0.393946	1.115017	0.196856	99
Es	0.810469	-0.084616	-0.169076	99
Es	1.955557	-0.302204	0.168971	99
Es	-0.778315	1.203819	0.209888	99
Es	1.665616	0.744932	-0.365428	99
Es	-0.075065	1.488382	0.079006	99
Es	1.245043	1.783329	0.083460	99
Es	-0.632166	-1.261723	0.105055	99
Es	-2.085737	-1.300595	0.443869	99
Es	2.336360	1.835141	-0.519030	99
Es	-2.481971	-1.097164	-0.132332	99
Es	-2.239680	-0.856242	1.009644	99
Es	1.684684	-0.295182	-0.989581	99
Es	1.539633	0.001389	-0.342095	99
Es	-0.468353	1.135842	0.172964	99
Es	-0.293130	-1.906938	-0.012407	99
Es	-1.353391	-1.273475	0.271723	99
Es	-0.359578	-0.706318	-0.267162	99
Es	1.089541	1.791912	-0.539839	99
Es	0.542371	2.046578	-0.068780	99
Es	-0.207391	-0.739089	0.381850	99
Es	0.078278	-0.130779	0.002497	99
Es	-2.284691	-2.001266	0.630442	99
Es	0.353051	2.745966	-0.013848	99
Es	1.714356	1.487378	-0.368353	99
Es	-0.259785	0.650482	0.098450	99
