44
Properties=species:S:1:pos:R:3:Z:I:1 energy=-307.9346754946985 field_type=dipole dipole="0.000000 0.000000 0.000000" charge=0
C	-2.735362	-0.689490	0.892947	6
C	-1.274683	-0.824330	0.603177	6
C	-0.675422	-0.301610	-0.476713	6
C	0.787158	-0.455340	-0.795973	6
C	1.530888	0.843790	-0.852893	6
C	2.432627	1.287810	0.268697	6
O	2.957447	0.698580	-0.930163	8
H	-3.194502	-1.680590	0.958227	1
H	-3.260072	-0.122050	0.117917	1
H	-2.881212	-0.178250	1.849027	1
H	-0.692632	-1.392820	1.326177	1
H	-1.266103	0.257210	-1.200843	1
H	0.867497	-0.942580	-1.774873	1
H	1.263978	-1.132610	-0.076543	1
H	1.074048	1.585010	-1.495313	1
H	2.475648	0.697520	1.175507	1
H	2.590698	2.349750	0.411637	1
Es	1.785692	1.137413	-0.156662	99
Es	-0.675334	-0.301565	-0.476814	99
Es	1.147685	0.197703	-0.812334	99
Es	1.109680	-0.907509	-0.300163	99
Es	3.021706	0.402569	-0.870049	99
Es	0.836281	-0.774198	-1.460055	99
Es	2.957211	0.698678	-0.929969	99
Es	0.787116	-0.455296	-0.795971	99
Es	2.432717	1.287682	0.268430	99
Es	-1.029091	-0.835259	-0.110189	99
Es	-0.909641	-0.280504	0.229287	99
Es	3.081245	0.918730	-1.107531	99
Es	1.222456	1.351437	-1.295321	99
Es	-2.005806	-0.754057	0.744522	99
Es	-2.735322	-0.689497	0.892945	99
Es	2.412898	0.717259	-1.005273	99
Es	0.058967	-0.364950	-0.630195	99
Es	2.550243	2.010171	0.365812	99
Es	2.858870	0.933791	-0.432432	99
Es	-2.825873	-0.345264	1.539714	99
Es	-3.086436	-0.302878	0.363445	99
Es	-0.881866	-1.212592	1.099331	99
Es	-1.072534	0.084304	-0.973952	99
Es	2.469365	0.883273	0.884925	99
Es	1.531195	0.843748	-0.852885	99
Es	-3.038016	-1.361369	0.937415	99
Es	-1.274762	-0.824373	0.603271	99
44
Properties=species:S:1:pos:R:3:Z:I:1 energy=-307.9346754946985 field_type=dipole dipole="0.000000 0.000000 0.000000" charge=0
C	-2.735362	-0.689490	0.892947	6
C	-1.274683	-0.824330	0.603177	6
C	-0.675422	-0.301610	-0.476713	6
C	0.787158	-0.455340	-0.795973	6
C	1.530888	0.843790	-0.852893	6
C	2.432627	1.287810	0.268697	6
O	2.957447	0.698580	-0.930163	8
H	-3.194502	-1.680590	0.958227	1
H	-3.260072	-0.122050	0.117917	1
H	-2.881212	-0.178250	1.849027	1
H	-0.692632	-1.392820	1.326177	1
H	-1.266103	0.257210	-1.200843	1
H	0.867497	-0.942580	-1.774873	1
H	1.263978	-1.132610	-0.076543	1
H	1.074048	1.585010	-1.495313	1
H	2.475648	0.697520	1.175507	1
H	2.590698	2.349750	0.411637	1
Es	3.088582	0.918424	-1.113547	99
Es	2.412566	0.712182	-1.004577	99
Es	1.531199	0.843748	-0.852885	99
Es	-1.274763	-0.824373	0.603276	99
Es	1.109658	-0.906381	-0.300031	99
Es	1.222755	1.350348	-1.295702	99
Es	0.059047	-0.364903	-0.630109	99
Es	2.550348	2.008800	0.365379	99
Es	1.147465	0.197023	-0.812222	99
Es	1.785127	1.139461	-0.155762	99
Es	-3.037006	-1.359767	0.936830	99
Es	-0.675334	-0.301567	-0.476816	99
Es	-2.005508	-0.753993	0.744722	99
Es	3.013158	0.414050	-0.870895	99
Es	-3.086821	-0.303783	0.363104	99
Es	-2.826801	-0.345351	1.541097	99
Es	2.860660	0.927598	-0.427048	99
Es	-1.073058	0.081782	-0.974959	99
Es	2.469017	0.883233	0.885930	99
Es	-1.027928	-0.835717	-0.110126	99
Es	-0.910634	-0.280085	0.229213	99
Es	0.836785	-0.774746	-1.461352	99
Es	2.432724	1.287683	0.268436	99
Es	2.957171	0.698700	-0.929999	99
Es	-0.881559	-1.210127	1.100372	99
Es	0.787117	-0.455296	-0.795971	99
Es	-2.735322	-0.689497	0.892945	99
44
Properties=species:S:1:pos:R:3:Z:I:1 energy=-307.9346754946985 field_type=dipole dipole="0.000000 0.000000 0.000000" charge=0
C	-2.735362	-0.689490	0.892947	6
C	-1.274683	-0.824330	0.603177	6
C	-0.675422	-0.301610	-0.476713	6
C	0.787158	-0.455340	-0.795973	6
C	1.530888	0.843790	-0.852893	6
C	2.432627	1.287810	0.268697	6
O	2.957447	0.698580	-0.930163	8
H	-3.194502	-1.680590	0.958227	1
H	-3.260072	-0.122050	0.117917	1
H	-2.881212	-0.178250	1.849027	1
H	-0.692632	-1.392820	1.326177	1
H	-1.266103	0.257210	-1.200843	1
H	0.867497	-0.942580	-1.774873	1
H	1.263978	-1.132610	-0.076543	1
H	1.074048	1.585010	-1.495313	1
H	2.475648	0.697520	1.175507	1
H	2.590698	2.349750	0.411637	1
Es	1.109741	-0.905937	-0.300051	99
Es	-0.881184	-1.208789	1.100839	99
Es	3.002679	0.424539	-0.866644	99
Es	0.058985	-0.364982	-0.630083	99
Es	-2.005483	-0.754125	0.744724	99
Es	2.550445	2.007741	0.365016	99
Es	1.147174	0.196639	-0.811732	99
Es	2.862382	0.926815	-0.425178	99
Es	0.837328	-0.774581	-1.462198	99
Es	1.222878	1.349685	-1.296016	99
Es	0.787115	-0.455296	-0.795971	99
Es	-2.827262	-0.345549	1.542074	99
Es	-2.735323	-0.689497	0.892945	99
Es	-1.027321	-0.835835	-0.110015	99
Es	-1.274763	-0.824370	0.603276	99
Es	3.097372	0.911702	-1.121131	99
Es	-3.087133	-0.304280	0.362956	99
Es	2.957148	0.698732	-0.929980	99
Es	2.432729	1.287679	0.268422	99
Es	-3.036237	-1.358795	0.936385	99
Es	2.412629	0.709126	-1.003589	99
Es	1.531194	0.843749	-0.852879	99
Es	-0.675334	-0.301570	-0.476819	99
Es	2.468811	0.883227	0.886676	99
Es	-0.911358	-0.279907	0.229038	99
Es	-1.073358	0.080461	-0.975445	99
Es	1.784789	1.140868	-0.155318	99
44
Properties=species:S:1:pos:R:3:Z:I:1 energy=-307.9346754946985 field_type=dipole dipole="0.000000 0.000000 0.000000" charge=0
C	-2.735362	-0.689490	0.892947	6
C	-1.274683	-0.824330	0.603177	6
C	-0.675422	-0.301610	-0.476713	6
C	0.787158	-0.455340	-0.795973	6
C	1.530888	0.843790	-0.852893	6
C	2.432627	1.287810	0.268697	6
O	2.957447	0.698580	-0.930163	8
H	-3.194502	-1.680590	0.958227	1
H	-3.260072	-0.122050	0.117917	1
H	-2.881212	-0.178250	1.849027	1
H	-0.692632	-1.392820	1.326177	1
H	-1.266103	0.257210	-1.200843	1
H	0.867497	-0.942580	-1.774873	1
H	1.263978	-1.132610	-0.076543	1
H	1.074048	1.585010	-1.495313	1
H	2.475648	0.697520	1.175507	1
H	2.590698	2.349750	0.411637	1
Es	-3.035915	-1.358192	0.935972	99
Es	-1.274760	-0.824369	0.603273	99
Es	-0.881028	-1.208000	1.101060	99
Es	2.550525	2.006999	0.364704	99
Es	2.413777	0.707961	-1.004732	99
Es	1.223008	1.349289	-1.296154	99
Es	-0.675334	-0.301569	-0.476819	99
Es	1.784821	1.141869	-0.155112	99
Es	-2.827711	-0.345815	1.542584	99
Es	0.837551	-0.774595	-1.462612	99
Es	1.531195	0.843747	-0.852887	99
Es	-1.073551	0.079619	-0.975718	99
Es	-2.005377	-0.754370	0.744932	99
Es	-0.911758	-0.279628	0.228994	99
Es	3.105095	0.907279	-1.124279	99
Es	-3.087094	-0.304406	0.362845	99
Es	0.059000	-0.364898	-0.630091	99
Es	0.787116	-0.455297	-0.795970	99
Es	-2.735321	-0.689497	0.892944	99
Es	1.146956	0.196371	-0.811559	99
Es	2.432712	1.287683	0.268436	99
Es	1.109764	-0.905634	-0.299987	99
Es	2.861646	0.923203	-0.422369	99
Es	2.468610	0.883238	0.887235	99
Es	-1.026884	-0.836004	-0.109924	99
Es	2.957171	0.698684	-0.929990	99
Es	2.994431	0.433776	-0.865474	99
44
Properties=species:S:1:pos:R:3:Z:I:1 energy=-307.9346754946985 field_type=dipole dipole="0.000000 0.000000 0.000000" charge=0
C	-2.735362	-0.689490	0.892947	6
C	-1.274683	-0.824330	0.603177	6
C	-0.675422	-0.301610	-0.476713	6
C	0.787158	-0.455340	-0.795973	6
C	1.530888	0.843790	-0.852893	6
C	2.432627	1.287810	0.268697	6
O	2.957447	0.698580	-0.930163	8
H	-3.194502	-1.680590	0.958227	1
H	-3.260072	-0.122050	0.117917	1
H	-2.881212	-0.178250	1.849027	1
H	-0.692632	-1.392820	1.326177	1
H	-1.266103	0.257210	-1.200843	1
H	0.867497	-0.942580	-1.774873	1
H	1.263978	-1.132610	-0.076543	1
H	1.074048	1.585010	-1.495313	1
H	2.475648	0.697520	1.175507	1
H	2.590698	2.349750	0.411637	1
Es	1.785028	1.142453	-0.154862	99
Es	0.837665	-0.774559	-1.462871	99
Es	1.531194	0.843748	-0.852884	99
Es	2.861516	0.920670	-0.420913	99
Es	2.957187	0.698698	-0.930002	99
Es	2.989214	0.442437	-0.864382	99
Es	-0.675335	-0.301581	-0.476828	99
Es	-3.035553	-1.357779	0.935889	99
Es	1.146757	0.196206	-0.811529	99
Es	-3.087278	-0.304599	0.362708	99
Es	-0.911935	-0.279430	0.228977	99
Es	-1.026669	-0.836014	-0.109841	99
Es	-1.274762	-0.824360	0.603282	99
Es	-0.880928	-1.207666	1.101222	99
Es	2.550438	2.006505	0.364474	99
Es	0.058964	-0.364842	-0.630117	99
Es	2.413953	0.705304	-1.005021	99
Es	2.432723	1.287682	0.268428	99
Es	1.223014	1.349046	-1.296318	99
Es	-2.735321	-0.689496	0.892944	99
Es	2.468469	0.883243	0.887652	99
Es	-2.827854	-0.345933	1.542918	99
Es	1.109955	-0.905408	-0.299856	99
Es	-1.073710	0.079131	-0.975859	99
Es	-2.005326	-0.754496	0.744897	99
Es	3.110125	0.903784	-1.126834	99
Es	0.787116	-0.455297	-0.795970	99
44
Properties=species:S:1:pos:R:3:Z:I:1 energy=-307.9346754946985 field_type=dipole dipole="0.000000 0.000000 0.000000" charge=0
C	-2.735362	-0.689490	0.892947	6
C	-1.274683	-0.824330	0.603177	6
C	-0.675422	-0.301610	-0.476713	6
C	0.787158	-0.455340	-0.795973	6
C	1.530888	0.843790	-0.852893	6
C	2.432627	1.287810	0.268697	6
O	2.957447	0.698580	-0.930163	8
H	-3.194502	-1.680590	0.958227	1
H	-3.260072	-0.122050	0.117917	1
H	-2.881212	-0.178250	1.849027	1
H	-0.692632	-1.392820	1.326177	1
H	-1.266103	0.257210	-1.200843	1
H	0.867497	-0.942580	-1.774873	1
H	1.263978	-1.132610	-0.076543	1
H	1.074048	1.585010	-1.495313	1
H	2.475648	0.697520	1.175507	1
H	2.590698	2.349750	0.411637	1
Es	1.109872	-0.905393	-0.299843	99
Es	2.550411	2.006047	0.364326	99
Es	-3.087437	-0.304696	0.362618	99
Es	-0.912066	-0.279492	0.228968	99
Es	2.862440	0.918846	-0.419542	99
Es	2.957320	0.698593	-0.930071	99
Es	2.414327	0.704149	-1.004422	99
Es	-1.073771	0.079004	-0.975906	99
Es	-2.827967	-0.346122	1.543265	99
Es	0.837790	-0.774482	-1.463016	99
Es	2.984548	0.449197	-0.863925	99
Es	-1.026497	-0.836253	-0.109919	99
Es	-0.880881	-1.207325	1.101355	99
Es	1.531196	0.843749	-0.852882	99
Es	2.468215	0.883153	0.888000	99
Es	-1.274757	-0.824357	0.603280	99
Es	1.785196	1.143006	-0.154801	99
Es	-2.735321	-0.689497	0.892945	99
Es	0.787115	-0.455296	-0.795970	99
Es	1.146716	0.196238	-0.811384	99
Es	-0.675334	-0.301569	-0.476818	99
Es	2.432722	1.287681	0.268425	99
Es	0.058926	-0.364765	-0.630201	99
Es	-2.005377	-0.754532	0.744845	99
Es	1.223090	1.348890	-1.296394	99
Es	3.113368	0.900145	-1.129362	99
Es	-3.035198	-1.357472	0.935732	99
44
Properties=species:S:1:pos:R:3:Z:I:1 energy=-307.9346754946985 field_type=dipole dipole="0.000000 0.000000 0.000000" charge=0
C	-2.735362	-0.689490	0.892947	6
C	-1.274683	-0.824330	0.603177	6
C	-0.675422	-0.301610	-0.476713	6
C	0.787158	-0.455340	-0.795973	6
C	1.530888	0.843790	-0.852893	6
C	2.432627	1.287810	0.268697	6
O	2.957447	0.698580	-0.930163	8
H	-3.194502	-1.680590	0.958227	1
H	-3.260072	-0.122050	0.117917	1
H	-2.881212	-0.178250	1.849027	1
H	-0.692632	-1.392820	1.326177	1
H	-1.266103	0.257210	-1.200843	1
H	0.867497	-0.942580	-1.774873	1
H	1.263978	-1.132610	-0.076543	1
H	1.074048	1.585010	-1.495313	1
H	2.475648	0.697520	1.175507	1
H	2.590698	2.349750	0.411637	1
Es	2.550415	2.005558	0.364179	99
Es	2.414715	0.703078	-1.003981	99
Es	-1.073837	0.078647	-0.976024	99
Es	0.059016	-0.364662	-0.630111	99
Es	2.432720	1.287682	0.268431	99
Es	1.223199	1.348740	-1.296429	99
Es	2.957144	0.698678	-0.929965	99
Es	1.531199	0.843748	-0.852883	99
Es	1.785218	1.143523	-0.154774	99
Es	2.862804	0.916783	-0.418393	99
Es	-0.675334	-0.301569	-0.476819	99
Es	-1.026318	-0.836190	-0.109772	99
Es	2.981810	0.454249	-0.864171	99
Es	2.468189	0.883190	0.888264	99
Es	-0.912254	-0.279238	0.228926	99
Es	-2.735321	-0.689497	0.892944	99
Es	-0.880788	-1.207166	1.101360	99
Es	-2.828201	-0.346287	1.543451	99
Es	-3.087419	-0.304738	0.362568	99
Es	3.115450	0.898262	-1.130930	99
Es	1.146414	0.195973	-0.811298	99
Es	0.787115	-0.455297	-0.795971	99
Es	-3.034989	-1.357330	0.935532	99
Es	-2.005394	-0.754641	0.744940	99
Es	1.109976	-0.905268	-0.299763	99
Es	-1.274761	-0.824367	0.603276	99
Es	0.837877	-0.774413	-1.463285	99
44
Properties=species:S:1:pos:R:3:Z:I:1 energy=-307.9346754946985 field_type=dipole dipole="0.000000 0.000000 0.000000" charge=0
C	-2.735362	-0.689490	0.892947	6
C	-1.274683	-0.824330	0.603177	6
C	-0.675422	-0.301610	-0.476713	6
C	0.787158	-0.455340	-0.795973	6
C	1.530888	0.843790	-0.852893	6
C	2.432627	1.287810	0.268697	6
O	2.957447	0.698580	-0.930163	8
H	-3.194502	-1.680590	0.958227	1
H	-3.260072	-0.122050	0.117917	1
H	-2.881212	-0.178250	1.849027	1
H	-0.692632	-1.392820	1.326177	1
H	-1.266103	0.257210	-1.200843	1
H	0.867497	-0.942580	-1.774873	1
H	1.263978	-1.132610	-0.076543	1
H	1.074048	1.585010	-1.495313	1
H	2.475648	0.697520	1.175507	1
H	2.590698	2.349750	0.411637	1
Es	0.059066	-0.364545	-0.630078	99
Es	-2.005242	-0.754611	0.744965	99
Es	2.414832	0.701900	-1.003315	99
Es	-0.912408	-0.279185	0.228929	99
Es	1.785358	1.143775	-0.154762	99
Es	2.432721	1.287680	0.268423	99
Es	-0.880805	-1.207009	1.101468	99
Es	-3.087511	-0.304835	0.362507	99
Es	2.550375	2.005373	0.364048	99
Es	0.787116	-0.455297	-0.795970	99
Es	1.223204	1.348614	-1.296573	99
Es	-1.026292	-0.836415	-0.109917	99
Es	2.979517	0.458727	-0.864185	99
Es	2.957205	0.698690	-0.930010	99
Es	-1.274764	-0.824381	0.603269	99
Es	2.468001	0.883166	0.888497	99
Es	-0.675332	-0.301568	-0.476818	99
Es	1.146402	0.195971	-0.811152	99
Es	0.837927	-0.774325	-1.463418	99
Es	1.109966	-0.905254	-0.299754	99
Es	-2.828348	-0.346397	1.543591	99
Es	2.863380	0.914983	-0.417683	99
Es	-1.073813	0.078524	-0.976034	99
Es	-3.034780	-1.357129	0.935466	99
Es	1.531202	0.843750	-0.852879	99
Es	-2.735322	-0.689497	0.892945	99
Es	3.116991	0.896743	-1.132256	99
44
Properties=species:S:1:pos:R:3:Z:I:1 energy=-307.9346754946985 field_type=dipole dipole="0.000000 0.000000 0.000000" charge=0
C	-2.735362	-0.689490	0.892947	6
C	-1.274683	-0.824330	0.603177	6
C	-0.675422	-0.301610	-0.476713	6
C	0.787158	-0.455340	-0.795973	6
C	1.530888	0.843790	-0.852893	6
C	2.432627	1.287810	0.268697	6
O	2.957447	0.698580	-0.930163	8
H	-3.194502	-1.680590	0.958227	1
H	-3.260072	-0.122050	0.117917	1
H	-2.881212	-0.178250	1.849027	1
H	-0.692632	-1.392820	1.326177	1
H	-1.266103	0.257210	-1.200843	1
H	0.867497	-0.942580	-1.774873	1
H	1.263978	-1.132610	-0.076543	1
H	1.074048	1.585010	-1.495313	1
H	2.475648	0.697520	1.175507	1
H	2.590698	2.349750	0.411637	1
Es	-0.880756	-1.206817	1.101484	99
Es	3.117016	0.897516	-1.132800	99
Es	-1.073887	0.078355	-0.976080	99
Es	2.863140	0.912785	-0.416743	99
Es	2.979064	0.462897	-0.864844	99
Es	-3.034670	-1.356958	0.935389	99
Es	-3.087536	-0.304885	0.362479	99
Es	2.467900	0.883174	0.888684	99
Es	2.957222	0.698711	-0.930033	99
Es	1.146347	0.195857	-0.810998	99
Es	2.550383	2.005004	0.363947	99
Es	0.059038	-0.364478	-0.630056	99
Es	1.531196	0.843748	-0.852883	99
Es	1.110024	-0.905169	-0.299734	99
Es	-0.675335	-0.301572	-0.476821	99
Es	2.415464	0.699151	-1.003227	99
Es	-2.005333	-0.754790	0.744917	99
Es	1.223168	1.348467	-1.296651	99
Es	1.785447	1.144224	-0.154697	99
Es	-1.274763	-0.824369	0.603277	99
Es	0.787116	-0.455297	-0.795971	99
Es	2.432716	1.287681	0.268428	99
Es	-1.026166	-0.836467	-0.109852	99
Es	-2.828352	-0.346432	1.543788	99
Es	0.838010	-0.774289	-1.463544	99
Es	-2.735321	-0.689497	0.892945	99
Es	-0.912487	-0.279103	0.228897	99
44
Properties=species:S:1:pos:R:3:Z:I:1 energy=-307.9346754946985 field_type=dipole dipole="0.000000 0.000000 0.000000" charge=0
C	-2.735362	-0.689490	0.892947	6
C	-1.274683	-0.824330	0.603177	6
C	-0.675422	-0.301610	-0.476713	6
C	0.787158	-0.455340	-0.795973	6
C	1.530888	0.843790	-0.852893	6
C	2.432627	1.287810	0.268697	6
O	2.957447	0.698580	-0.930163	8
H	-3.194502	-1.680590	0.958227	1
H	-3.260072	-0.122050	0.117917	1
H	-2.881212	-0.178250	1.849027	1
H	-0.692632	-1.392820	1.326177	1
H	-1.266103	0.257210	-1.200843	1
H	0.867497	-0.942580	-1.774873	1
H	1.263978	-1.132610	-0.076543	1
H	1.074048	1.585010	-1.495313	1
H	2.475648	0.697520	1.175507	1
H	2.590698	2.349750	0.411637	1
Es	0.059002	-0.364497	-0.630080	99
Es	2.467744	0.883139	0.888844	99
Es	-2.735322	-0.689497	0.892945	99
Es	3.117695	0.897029	-1.133727	99
Es	0.787115	-0.455295	-0.795969	99
Es	1.146249	0.195810	-0.810904	99
Es	1.785653	1.144312	-0.154664	99
Es	1.109959	-0.905133	-0.299804	99
Es	-3.034484	-1.356847	0.935495	99
Es	-1.274761	-0.824369	0.603279	99
Es	-2.828378	-0.346443	1.543805	99
Es	-0.912531	-0.279107	0.228899	99
Es	2.863851	0.910797	-0.416102	99
Es	2.977623	0.466396	-0.865383	99
Es	-3.087686	-0.305003	0.362350	99
Es	-1.073920	0.078278	-0.976086	99
Es	2.550174	2.004854	0.363878	99
Es	0.838124	-0.774221	-1.463664	99
Es	-2.005296	-0.754758	0.744955	99
Es	2.957149	0.698693	-0.929968	99
Es	2.415709	0.698236	-1.002569	99
Es	-0.880716	-1.206744	1.101535	99
Es	-0.675333	-0.301570	-0.476821	99
Es	1.531198	0.843748	-0.852883	99
Es	1.223255	1.348450	-1.296608	99
Es	2.432723	1.287678	0.268429	99
Es	-1.026151	-0.836490	-0.109879	99
44
Properties=species:S:1:pos:R:3:Z:I:1 energy=-307.9346754946985 field_type=dipole dipole="0.000000 0.000000 0.000000" charge=0
C	-2.735362	-0.689490	0.892947	6
C	-1.274683	-0.824330	0.603177	6
C	-0.675422	-0.301610	-0.476713	6
C	0.787158	-0.455340	-0.795973	6
C	1.530888	0.843790	-0.852893	6
C	2.432627	1.287810	0.268697	6
O	2.957447	0.698580	-0.930163	8
H	-3.194502	-1.680590	0.958227	1
H	-3.260072	-0.122050	0.117917	1
H	-2.881212	-0.178250	1.849027	1
H	-0.692632	-1.392820	1.326177	1
H	-1.266103	0.257210	-1.200843	1
H	0.867497	-0.942580	-1.774873	1
H	1.263978	-1.132610	-0.076543	1
H	1.074048	1.585010	-1.495313	1
H	2.475648	0.697520	1.175507	1
H	2.590698	2.349750	0.411637	1
Es	-1.026175	-0.836498	-0.109890	99
Es	2.957219	0.698709	-0.930032	99
Es	1.146087	0.195690	-0.810848	99
Es	-3.034391	-1.356724	0.935188	99
Es	-0.912480	-0.279042	0.228945	99
Es	2.976379	0.469508	-0.865097	99
Es	-2.828601	-0.346686	1.544003	99
Es	-2.005222	-0.754695	0.744982	99
Es	-0.675336	-0.301571	-0.476822	99
Es	2.467737	0.883275	0.889043	99
Es	0.838089	-0.774165	-1.463755	99
Es	3.118668	0.896038	-1.134395	99
Es	0.058999	-0.364499	-0.630011	99
Es	2.416219	0.696835	-1.002613	99
Es	2.432715	1.287683	0.268434	99
Es	1.223289	1.348405	-1.296692	99
Es	0.787116	-0.455297	-0.795970	99
Es	1.110072	-0.905101	-0.299755	99
Es	1.785678	1.144641	-0.154698	99
Es	-0.880741	-1.206804	1.101541	99
Es	2.863426	0.909980	-0.415611	99
Es	2.550275	2.004527	0.363699	99
Es	-2.735322	-0.689497	0.892945	99
Es	-3.087604	-0.304928	0.362427	99
Es	-1.274763	-0.824369	0.603277	99
Es	-1.073887	0.078280	-0.976114	99
Es	1.531201	0.843749	-0.852881	99
44
Properties=species:S:1:pos:R:3:Z:I:1 energy=-307.9346754946985 field_type=dipole dipole="0.000000 0.000000 0.000000" charge=0
C	-2.735362	-0.689490	0.892947	6
C	-1.274683	-0.824330	0.603177	6
C	-0.675422	-0.301610	-0.476713	6
C	0.787158	-0.455340	-0.795973	6
C	1.530888	0.843790	-0.852893	6
C	2.432627	1.287810	0.268697	6
O	2.957447	0.698580	-0.930163	8
H	-3.194502	-1.680590	0.958227	1
H	-3.260072	-0.122050	0.117917	1
H	-2.881212	-0.178250	1.849027	1
H	-0.692632	-1.392820	1.326177	1
H	-1.266103	0.257210	-1.200843	1
H	0.867497	-0.942580	-1.774873	1
H	1.263978	-1.132610	-0.076543	1
H	1.074048	1.585010	-1.495313	1
H	2.475648	0.697520	1.175507	1
H	2.590698	2.349750	0.411637	1
Es	2.957141	0.698632	-0.929930	99
Es	-1.274763	-0.824369	0.603277	99
Es	-0.880766	-1.206779	1.101486	99
Es	-3.087584	-0.304864	0.362420	99
Es	-2.735322	-0.689497	0.892945	99
Es	2.432721	1.287681	0.268431	99
Es	1.531196	0.843749	-0.852882	99
Es	2.550193	2.004455	0.363791	99
Es	-0.675334	-0.301570	-0.476820	99
Es	1.146160	0.195818	-0.810840	99
Es	-2.828527	-0.346701	1.544008	99
Es	-3.034444	-1.356709	0.935201	99
Es	1.223322	1.348283	-1.296758	99
Es	-2.005176	-0.754890	0.745043	99
Es	0.059115	-0.364367	-0.630086	99
Es	-0.912497	-0.278848	0.228963	99
Es	2.416383	0.697407	-1.002711	99
Es	1.785759	1.144861	-0.154573	99
Es	-1.073952	0.078203	-0.976104	99
Es	-1.026160	-0.836633	-0.109917	99
Es	0.838036	-0.774193	-1.463787	99
Es	1.109999	-0.905140	-0.299689	99
Es	2.467575	0.883085	0.889050	99
Es	3.120637	0.894020	-1.134808	99
Es	2.863825	0.908195	-0.415100	99
Es	0.787115	-0.455296	-0.795970	99
Es	2.973992	0.472916	-0.865338	99
44
Properties=species:S:1:pos:R:3:Z:I:1 energy=-307.9346754946985 field_type=dipole dipole="0.000000 0.000000 0.000000" charge=0
C	-2.735362	-0.689490	0.892947	6
C	-1.274683	-0.824330	0.603177	6
C	-0.675422	-0.301610	-0.476713	6
C	0.787158	-0.455340	-0.795973	6
C	1.530888	0.843790	-0.852893	6
C	2.432627	1.287810	0.268697	6
O	2.957447	0.698580	-0.930163	8
H	-3.194502	-1.680590	0.958227	1
H	-3.260072	-0.122050	0.117917	1
H	-2.881212	-0.178250	1.849027	1
H	-0.692632	-1.392820	1.326177	1
H	-1.266103	0.257210	-1.200843	1
H	0.867497	-0.942580	-1.774873	1
H	1.263978	-1.132610	-0.076543	1
H	1.074048	1.585010	-1.495313	1
H	2.475648	0.697520	1.175507	1
H	2.590698	2.349750	0.411637	1
Es	0.787116	-0.455297	-0.795974	99
Es	1.786088	1.145033	-0.154661	99
Es	-0.675333	-0.301567	-0.476819	99
Es	-0.912529	-0.278881	0.228937	99
Es	-3.034234	-1.356601	0.935147	99
Es	-2.828586	-0.346850	1.544123	99
Es	2.957242	0.698687	-0.930046	99
Es	1.531201	0.843748	-0.852882	99
Es	-1.073881	0.078268	-0.976137	99
Es	-3.087706	-0.304878	0.362348	99
Es	-2.735322	-0.689497	0.892945	99
Es	1.223333	1.348315	-1.296788	99
Es	2.863607	0.908581	-0.415033	99
Es	1.146012	0.195665	-0.810821	99
Es	2.416652	0.695456	-1.002349	99
Es	-1.274763	-0.824369	0.603277	99
Es	0.838036	-0.774094	-1.463825	99
Es	2.973017	0.475800	-0.864524	99
Es	-1.026129	-0.836661	-0.109893	99
Es	2.467378	0.883153	0.889277	99
Es	-0.880792	-1.206772	1.101569	99
Es	2.550228	2.004252	0.363622	99
Es	1.110122	-0.905140	-0.299664	99
Es	2.432720	1.287685	0.268423	99
Es	-2.005233	-0.754852	0.744937	99
Es	3.121325	0.892594	-1.135922	99
Es	0.059077	-0.364332	-0.629966	99
44
Properties=species:S:1:pos:R:3:Z:I:1 energy=-307.9346754946985 field_type=dipole dipole="0.000000 0.000000 0.000000" charge=0
C	-2.735362	-0.689490	0.892947	6
C	-1.274683	-0.824330	0.603177	6
C	-0.675422	-0.301610	-0.476713	6
C	0.787158	-0.455340	-0.795973	6
C	1.530888	0.843790	-0.852893	6
C	2.432627	1.287810	0.268697	6
O	2.957447	0.698580	-0.930163	8
H	-3.194502	-1.680590	0.958227	1
H	-3.260072	-0.122050	0.117917	1
H	-2.881212	-0.178250	1.849027	1
H	-0.692632	-1.392820	1.326177	1
H	-1.266103	0.257210	-1.200843	1
H	0.867497	-0.942580	-1.774873	1
H	1.263978	-1.132610	-0.076543	1
H	1.074048	1.585010	-1.495313	1
H	2.475648	0.697520	1.175507	1
H	2.590698	2.349750	0.411637	1
Es	2.432721	1.287680	0.268431	99
Es	-2.828529	-0.346682	1.544088	99
Es	1.145964	0.195670	-0.810680	99
Es	3.121530	0.892705	-1.135998	99
Es	1.223365	1.348270	-1.296755	99
Es	-2.005301	-0.754775	0.745002	99
Es	2.957154	0.698701	-0.929978	99
Es	-3.087663	-0.304990	0.362423	99
Es	-1.274763	-0.824369	0.603277	99
Es	2.971897	0.477205	-0.865648	99
Es	-1.026066	-0.836718	-0.109937	99
Es	0.838034	-0.774151	-1.463898	99
Es	2.550250	2.004041	0.363606	99
Es	-3.034286	-1.356734	0.935202	99
Es	2.467391	0.883128	0.889331	99
Es	-0.912584	-0.278923	0.228940	99
Es	1.110057	-0.905091	-0.299722	99
Es	2.864096	0.906061	-0.413936	99
Es	1.786094	1.145274	-0.154784	99
Es	1.531198	0.843747	-0.852884	99
Es	-1.073979	0.078100	-0.976037	99
Es	0.059174	-0.364233	-0.630039	99
Es	0.787116	-0.455297	-0.795970	99
Es	-0.880715	-1.206660	1.101486	99
Es	-0.675333	-0.301571	-0.476821	99
Es	2.417146	0.696554	-1.002345	99
Es	-2.735322	-0.689497	0.892945	99
44
Properties=species:S:1:pos:R:3:Z:I:1 energy=-307.9346754946985 field_type=dipole dipole="0.000000 0.000000 0.000000" charge=0
C	-2.735362	-0.689490	0.892947	6
C	-1.274683	-0.824330	0.603177	6
C	-0.675422	-0.301610	-0.476713	6
C	0.787158	-0.455340	-0.795973	6
C	1.530888	0.843790	-0.852893	6
C	2.432627	1.287810	0.268697	6
O	2.957447	0.698580	-0.930163	8
H	-3.194502	-1.680590	0.958227	1
H	-3.260072	-0.122050	0.117917	1
H	-2.881212	-0.178250	1.849027	1
H	-0.692632	-1.392820	1.326177	1
H	-1.266103	0.257210	-1.200843	1
H	0.867497	-0.942580	-1.774873	1
H	1.263978	-1.132610	-0.076543	1
H	1.074048	1.585010	-1.495313	1
H	2.475648	0.697520	1.175507	1
H	2.590698	2.349750	0.411637	1
Es	2.467220	0.883166	0.889417	99
Es	-2.828685	-0.346876	1.544238	99
Es	-1.274763	-0.824365	0.603278	99
Es	2.416969	0.696241	-1.001713	99
Es	2.971011	0.479015	-0.865721	99
Es	-3.034232	-1.356523	0.935012	99
Es	2.550144	2.004028	0.363535	99
Es	1.223394	1.348193	-1.296813	99
Es	3.121828	0.892481	-1.136528	99
Es	2.864718	0.904919	-0.413958	99
Es	1.786288	1.145297	-0.154607	99
Es	1.110003	-0.905124	-0.299682	99
Es	-3.087609	-0.304912	0.362402	99
Es	-0.880766	-1.206554	1.101545	99
Es	-1.073893	0.078097	-0.976057	99
Es	0.838180	-0.774042	-1.463929	99
Es	-1.026102	-0.836865	-0.109945	99
Es	-2.005188	-0.755000	0.745010	99
Es	2.432718	1.287683	0.268435	99
Es	-2.735321	-0.689497	0.892945	99
Es	1.531203	0.843747	-0.852886	99
Es	0.059100	-0.364262	-0.630118	99
Es	-0.912634	-0.278703	0.228937	99
Es	-0.675333	-0.301571	-0.476822	99
Es	1.145980	0.195624	-0.810641	99
Es	2.957301	0.698546	-0.930063	99
Es	0.787115	-0.455296	-0.795970	99
44
Properties=species:S:1:pos:R:3:Z:I:1 energy=-307.9346754946985 field_type=dipole dipole="0.000000 0.000000 0.000000" charge=0
C	-2.735362	-0.689490	0.892947	6
C	-1.274683	-0.824330	0.603177	6
C	-0.675422	-0.301610	-0.476713	6
C	0.787158	-0.455340	-0.795973	6
C	1.530888	0.843790	-0.852893	6
C	2.432627	1.287810	0.268697	6
O	2.957447	0.698580	-0.930163	8
H	-3.194502	-1.680590	0.958227	1
H	-3.260072	-0.122050	0.117917	1
H	-2.881212	-0.178250	1.849027	1
H	-0.692632	-1.392820	1.326177	1
H	-1.266103	0.257210	-1.200843	1
H	0.867497	-0.942580	-1.774873	1
H	1.263978	-1.132610	-0.076543	1
H	1.074048	1.585010	-1.495313	1
H	2.475648	0.697520	1.175507	1
H	2.590698	2.349750	0.411637	1
Es	-3.087669	-0.304854	0.362323	99
Es	-3.034134	-1.356469	0.934998	99
Es	0.838171	-0.774075	-1.463993	99
Es	1.145900	0.195612	-0.810554	99
Es	2.467213	0.883140	0.889535	99
Es	3.122391	0.891312	-1.137227	99
Es	-1.073933	0.078162	-0.976063	99
Es	1.786301	1.145484	-0.154734	99
Es	1.110018	-0.905058	-0.299612	99
Es	-2.735321	-0.689497	0.892945	99
Es	2.550122	2.003798	0.363482	99
Es	-0.912629	-0.278820	0.228952	99
Es	-2.828723	-0.347009	1.544251	99
Es	2.970683	0.481149	-0.865103	99
Es	2.417598	0.694280	-1.001719	99
Es	1.531196	0.843748	-0.852883	99
Es	2.864036	0.905719	-0.413894	99
Es	-1.026068	-0.836799	-0.109963	99
Es	0.787116	-0.455297	-0.795970	99
Es	0.059166	-0.364206	-0.630086	99
Es	-1.274764	-0.824370	0.603277	99
Es	2.432721	1.287681	0.268432	99
Es	1.223367	1.348191	-1.296873	99
Es	-0.675333	-0.301569	-0.476820	99
Es	-2.005199	-0.754983	0.745091	99
Es	-0.880740	-1.206626	1.101529	99
Es	2.957160	0.698801	-0.930017	99
