44
Properties=species:S:1:pos:R:3:Z:I:1 energy=-307.9274154536326 field_type=dipole dipole="0.000000 0.000000 0.000000" charge=0
C	-1.205303	-2.301432	0.445162	6
C	-0.743013	-1.546952	-0.791818	6
C	-0.503033	-0.096002	-0.491708	6
C	0.686477	0.511908	-0.626038	6
C	0.963017	1.924857	-0.352848	6
C	1.203377	2.351947	1.073722	6
O	2.252117	2.369937	0.099592	8
H	-1.388293	-3.352273	0.199992	1
H	-2.134953	-1.880602	0.842142	1
H	-0.448823	-2.264682	1.235942	1
H	-1.509543	-1.622272	-1.572088	1
H	0.162557	-2.022563	-1.186908	1
H	-1.361283	0.480808	-0.155118	1
H	1.540487	-0.069662	-0.970018	1
H	0.423737	2.612957	-0.996478	1
H	1.259327	1.599468	1.850252	1
H	0.803147	3.304557	1.396212	1
Es	2.297417	2.659141	0.002760	99
Es	-0.503120	-0.096042	-0.491711	99
Es	-1.840067	-2.008996	0.713201	99
Es	0.686572	0.511986	-0.626041	99
Es	1.247749	1.841482	1.602080	99
Es	-1.266624	-1.590474	-1.318981	99
Es	1.803638	2.178415	-0.177100	99
Es	-0.973923	-1.912060	-0.170005	99
Es	1.203590	2.351952	1.073496	99
Es	0.602962	2.390152	-0.794841	99
Es	1.266277	0.122951	-0.857214	99
Es	0.940751	3.005559	1.297383	99
Es	0.026657	0.296408	-0.871134	99
Es	0.171838	0.137120	-0.244459	99
Es	-1.205299	-2.301415	0.445134	99
Es	-0.616820	-0.812461	-0.640150	99
Es	-0.121092	-1.866281	-1.058262	99
Es	-0.743024	-1.546914	-0.791774	99
Es	0.841451	1.217832	-0.494582	99
Es	2.431220	2.122579	0.144534	99
Es	1.923066	2.402566	0.547067	99
Es	-0.688102	-2.273491	0.981573	99
Es	0.851144	2.091576	0.411209	99
Es	-1.092883	0.291205	-0.260377	99
Es	0.963303	1.924913	-0.352725	99
Es	-1.329862	-3.017044	0.274638	99
Es	2.251820	2.369903	0.099647	99
44
Properties=species:S:1:pos:R:3:Z:I:1 energy=-307.9274154536326 field_type=dipole dipole="0.000000 0.000000 0.000000" charge=0
C	-1.205303	-2.301432	0.445162	6
C	-0.743013	-1.546952	-0.791818	6
C	-0.503033	-0.096002	-0.491708	6
C	0.686477	0.511908	-0.626038	6
C	0.963017	1.924857	-0.352848	6
C	1.203377	2.351947	1.073722	6
O	2.252117	2.369937	0.099592	8
H	-1.388293	-3.352273	0.199992	1
H	-2.134953	-1.880602	0.842142	1
H	-0.448823	-2.264682	1.235942	1
H	-1.509543	-1.622272	-1.572088	1
H	0.162557	-2.022563	-1.186908	1
H	-1.361283	0.480808	-0.155118	1
H	1.540487	-0.069662	-0.970018	1
H	0.423737	2.612957	-0.996478	1
H	1.259327	1.599468	1.850252	1
H	0.803147	3.304557	1.396212	1
Es	1.247930	1.843279	1.601092	99
Es	-1.329842	-3.015822	0.274402	99
Es	2.251751	2.369818	0.099690	99
Es	2.307029	2.658656	0.002158	99
Es	-1.267824	-1.590572	-1.319874	99
Es	-1.092811	0.290585	-0.260493	99
Es	0.686576	0.511988	-0.626035	99
Es	-1.205300	-2.301415	0.445134	99
Es	1.203601	2.351956	1.073495	99
Es	1.928179	2.402625	0.549655	99
Es	2.419950	2.127352	0.146138	99
Es	0.963306	1.924915	-0.352723	99
Es	-0.617417	-0.812193	-0.641348	99
Es	0.025570	0.297997	-0.872727	99
Es	-0.687111	-2.273784	0.982356	99
Es	0.942042	3.004034	1.298003	99
Es	0.841722	1.216975	-0.493501	99
Es	0.604252	2.388582	-0.793963	99
Es	-0.743023	-1.546914	-0.791775	99
Es	0.846333	2.091409	0.410678	99
Es	1.803229	2.175097	-0.180390	99
Es	-0.973689	-1.911927	-0.170164	99
Es	1.265940	0.123661	-0.857172	99
Es	0.172857	0.135489	-0.242663	99
Es	-0.120755	-1.865980	-1.057535	99
Es	-1.840729	-2.009206	0.712634	99
Es	-0.503125	-0.096046	-0.491710	99
44
Properties=species:S:1:pos:R:3:Z:I:1 energy=-307.9274154536326 field_type=dipole dipole="0.000000 0.000000 0.000000" charge=0
C	-1.205303	-2.301432	0.445162	6
C	-0.743013	-1.546952	-0.791818	6
C	-0.503033	-0.096002	-0.491708	6
C	0.686477	0.511908	-0.626038	6
C	0.963017	1.924857	-0.352848	6
C	1.203377	2.351947	1.073722	6
O	2.252117	2.369937	0.099592	8
H	-1.388293	-3.352273	0.199992	1
H	-2.134953	-1.880602	0.842142	1
H	-0.448823	-2.264682	1.235942	1
H	-1.509543	-1.622272	-1.572088	1
H	0.162557	-2.022563	-1.186908	1
H	-1.361283	0.480808	-0.155118	1
H	1.540487	-0.069662	-0.970018	1
H	0.423737	2.612957	-0.996478	1
H	1.259327	1.599468	1.850252	1
H	0.803147	3.304557	1.396212	1
Es	2.386828	2.128970	0.151682	99
Es	0.605499	2.387347	-0.792966	99
Es	1.248197	1.844782	1.599972	99
Es	-0.617854	-0.811960	-0.641878	99
Es	-1.841672	-2.009298	0.712258	99
Es	0.173309	0.134591	-0.242012	99
Es	-1.268970	-1.590725	-1.320104	99
Es	0.842938	2.091225	0.410468	99
Es	-0.503123	-0.096044	-0.491710	99
Es	0.025053	0.298876	-0.873262	99
Es	-0.686342	-2.273828	0.982654	99
Es	2.340603	2.651778	-0.002256	99
Es	-0.120147	-1.865882	-1.057233	99
Es	0.963304	1.924915	-0.352725	99
Es	-1.093056	0.290358	-0.260533	99
Es	-0.973336	-1.911811	-0.170360	99
Es	1.266062	0.123876	-0.857150	99
Es	-1.205300	-2.301415	0.445134	99
Es	0.942792	3.002938	1.298424	99
Es	1.930384	2.407189	0.550983	99
Es	-0.743023	-1.546914	-0.791773	99
Es	1.203587	2.351950	1.073493	99
Es	1.802497	2.176376	-0.182412	99
Es	2.251712	2.369908	0.099667	99
Es	0.841494	1.216304	-0.493124	99
Es	0.686579	0.511990	-0.626036	99
Es	-1.329377	-3.014934	0.274163	99
44
Properties=species:S:1:pos:R:3:Z:I:1 energy=-307.9274154536326 field_type=dipole dipole="0.000000 0.000000 0.000000" charge=0
C	-1.205303	-2.301432	0.445162	6
C	-0.743013	-1.546952	-0.791818	6
C	-0.503033	-0.096002	-0.491708	6
C	0.686477	0.511908	-0.626038	6
C	0.963017	1.924857	-0.352848	6
C	1.203377	2.351947	1.073722	6
O	2.252117	2.369937	0.099592	8
H	-1.388293	-3.352273	0.199992	1
H	-2.134953	-1.880602	0.842142	1
H	-0.448823	-2.264682	1.235942	1
H	-1.509543	-1.622272	-1.572088	1
H	0.162557	-2.022563	-1.186908	1
H	-1.361283	0.480808	-0.155118	1
H	1.540487	-0.069662	-0.970018	1
H	0.423737	2.612957	-0.996478	1
H	1.259327	1.599468	1.850252	1
H	0.803147	3.304557	1.396212	1
Es	0.840700	2.091110	0.410521	99
Es	-0.743024	-1.546914	-0.791775	99
Es	-0.685705	-2.273870	0.982688	99
Es	0.606569	2.386504	-0.791916	99
Es	1.932827	2.408680	0.550982	99
Es	0.686580	0.511987	-0.626030	99
Es	1.266380	0.124003	-0.857137	99
Es	-0.973301	-1.911718	-0.170442	99
Es	0.173504	0.134142	-0.241729	99
Es	1.203605	2.351954	1.073475	99
Es	-1.205301	-2.301415	0.445134	99
Es	-1.093426	0.290219	-0.260560	99
Es	-1.269686	-1.590768	-1.320176	99
Es	0.024798	0.299357	-0.873391	99
Es	1.801885	2.173963	-0.183345	99
Es	0.943249	3.002157	1.298862	99
Es	0.963309	1.924913	-0.352724	99
Es	2.366905	2.642746	-0.003770	99
Es	-1.328787	-3.014109	0.273998	99
Es	1.248377	1.845855	1.598841	99
Es	-0.119469	-1.865714	-1.057077	99
Es	-0.503124	-0.096046	-0.491712	99
Es	-1.842579	-2.009545	0.712140	99
Es	2.251715	2.369958	0.099653	99
Es	-0.618155	-0.811977	-0.642252	99
Es	0.840952	1.215774	-0.493308	99
Es	2.359840	2.139312	0.154411	99
44
Properties=species:S:1:pos:R:3:Z:I:1 energy=-307.9274154536326 field_type=dipole dipole="0.000000 0.000000 0.000000" charge=0
C	-1.205303	-2.301432	0.445162	6
C	-0.743013	-1.546952	-0.791818	6
C	-0.503033	-0.096002	-0.491708	6
C	0.686477	0.511908	-0.626038	6
C	0.963017	1.924857	-0.352848	6
C	1.203377	2.351947	1.073722	6
O	2.252117	2.369937	0.099592	8
H	-1.388293	-3.352273	0.199992	1
H	-2.134953	-1.880602	0.842142	1
H	-0.448823	-2.264682	1.235942	1
H	-1.509543	-1.622272	-1.572088	1
H	0.162557	-2.022563	-1.186908	1
H	-1.361283	0.480808	-0.155118	1
H	1.540487	-0.069662	-0.970018	1
H	0.423737	2.612957	-0.996478	1
H	1.259327	1.599468	1.850252	1
H	0.803147	3.304557	1.396212	1
Es	0.606596	2.386412	-0.791654	99
Es	0.943344	3.001977	1.299103	99
Es	0.686579	0.511990	-0.626037	99
Es	1.248481	1.846433	1.598193	99
Es	-0.503124	-0.096049	-0.491707	99
Es	1.932986	2.410082	0.550602	99
Es	-1.093693	0.290415	-0.260873	99
Es	2.251707	2.369998	0.099639	99
Es	-0.618265	-0.811810	-0.642249	99
Es	1.203604	2.351948	1.073474	99
Es	0.024873	0.299203	-0.873188	99
Es	-0.743024	-1.546913	-0.791775	99
Es	-1.205300	-2.301416	0.445133	99
Es	0.963310	1.924909	-0.352725	99
Es	0.840707	1.215566	-0.492906	99
Es	0.173439	0.134217	-0.241982	99
Es	0.840197	2.090738	0.410308	99
Es	2.324735	2.157993	0.154585	99
Es	-1.328493	-3.013966	0.273797	99
Es	1.801801	2.174860	-0.184502	99
Es	-1.270149	-1.590998	-1.319959	99
Es	-0.973274	-1.911560	-0.170626	99
Es	1.266589	0.123857	-0.856812	99
Es	2.402476	2.621838	-0.002117	99
Es	-0.685339	-2.273728	0.982550	99
Es	-0.119167	-1.865864	-1.057045	99
Es	-1.842956	-2.009572	0.712136	99
44
Properties=species:S:1:pos:R:3:Z:I:1 energy=-307.9274154536326 field_type=dipole dipole="0.000000 0.000000 0.000000" charge=0
C	-1.205303	-2.301432	0.445162	6
C	-0.743013	-1.546952	-0.791818	6
C	-0.503033	-0.096002	-0.491708	6
C	0.686477	0.511908	-0.626038	6
C	0.963017	1.924857	-0.352848	6
C	1.203377	2.351947	1.073722	6
O	2.252117	2.369937	0.099592	8
H	-1.388293	-3.352273	0.199992	1
H	-2.134953	-1.880602	0.842142	1
H	-0.448823	-2.264682	1.235942	1
H	-1.509543	-1.622272	-1.572088	1
H	0.162557	-2.022563	-1.186908	1
H	-1.361283	0.480808	-0.155118	1
H	1.540487	-0.069662	-0.970018	1
H	0.423737	2.612957	-0.996478	1
H	1.259327	1.599468	1.850252	1
H	0.803147	3.304557	1.396212	1
Es	0.024828	0.299232	-0.873214	99
Es	-1.270306	-1.591112	-1.319898	99
Es	-0.743023	-1.546914	-0.791775	99
Es	1.248591	1.846828	1.597870	99
Es	0.840537	1.215450	-0.492998	99
Es	-1.842942	-2.009351	0.712013	99
Es	0.963307	1.924913	-0.352725	99
Es	2.304277	2.174017	0.153912	99
Es	-0.618411	-0.811744	-0.642342	99
Es	1.801560	2.174029	-0.184639	99
Es	-0.685175	-2.273707	0.982555	99
Es	2.423358	2.604596	-0.000148	99
Es	-1.205300	-2.301415	0.445134	99
Es	-1.093626	0.290518	-0.260978	99
Es	1.203602	2.351952	1.073481	99
Es	0.943419	3.001734	1.299147	99
Es	0.606735	2.386296	-0.791165	99
Es	0.173485	0.134127	-0.241903	99
Es	-0.119106	-1.865980	-1.056965	99
Es	0.839812	2.090500	0.410216	99
Es	0.686581	0.511990	-0.626036	99
Es	-0.973244	-1.911562	-0.170583	99
Es	-0.503123	-0.096045	-0.491711	99
Es	1.933281	2.412158	0.549531	99
Es	1.266561	0.123861	-0.856735	99
Es	2.251577	2.370181	0.099602	99
Es	-1.328618	-3.013994	0.273717	99
44
Properties=species:S:1:pos:R:3:Z:I:1 energy=-307.9274154536326 field_type=dipole dipole="0.000000 0.000000 0.000000" charge=0
C	-1.205303	-2.301432	0.445162	6
C	-0.743013	-1.546952	-0.791818	6
C	-0.503033	-0.096002	-0.491708	6
C	0.686477	0.511908	-0.626038	6
C	0.963017	1.924857	-0.352848	6
C	1.203377	2.351947	1.073722	6
O	2.252117	2.369937	0.099592	8
H	-1.388293	-3.352273	0.199992	1
H	-2.134953	-1.880602	0.842142	1
H	-0.448823	-2.264682	1.235942	1
H	-1.509543	-1.622272	-1.572088	1
H	0.162557	-2.022563	-1.186908	1
H	-1.361283	0.480808	-0.155118	1
H	1.540487	-0.069662	-0.970018	1
H	0.423737	2.612957	-0.996478	1
H	1.259327	1.599468	1.850252	1
H	0.803147	3.304557	1.396212	1
Es	-1.328435	-3.013969	0.273708	99
Es	1.203600	2.351954	1.073484	99
Es	2.437290	2.591940	0.002366	99
Es	0.840305	1.215449	-0.492936	99
Es	-1.093610	0.290493	-0.260996	99
Es	-0.618393	-0.811738	-0.642287	99
Es	2.289964	2.188551	0.151310	99
Es	2.251647	2.370080	0.099622	99
Es	0.839540	2.090686	0.409818	99
Es	-1.270437	-1.591183	-1.319847	99
Es	0.686577	0.511991	-0.626044	99
Es	1.248493	1.846996	1.597518	99
Es	0.024825	0.299154	-0.873086	99
Es	1.801454	2.173434	-0.184343	99
Es	0.963306	1.924912	-0.352724	99
Es	-0.743024	-1.546914	-0.791775	99
Es	-0.119088	-1.866041	-1.056936	99
Es	-0.685023	-2.273546	0.982453	99
Es	-1.205300	-2.301415	0.445133	99
Es	1.266494	0.123843	-0.856655	99
Es	0.173498	0.134141	-0.242027	99
Es	0.943536	3.001503	1.299242	99
Es	0.606929	2.386188	-0.790952	99
Es	-0.503125	-0.096045	-0.491718	99
Es	-0.973349	-1.911535	-0.170745	99
Es	1.934034	2.411118	0.549716	99
Es	-1.843070	-2.009489	0.712066	99
44
Properties=species:S:1:pos:R:3:Z:I:1 energy=-307.9274154536326 field_type=dipole dipole="0.000000 0.000000 0.000000" charge=0
C	-1.205303	-2.301432	0.445162	6
C	-0.743013	-1.546952	-0.791818	6
C	-0.503033	-0.096002	-0.491708	6
C	0.686477	0.511908	-0.626038	6
C	0.963017	1.924857	-0.352848	6
C	1.203377	2.351947	1.073722	6
O	2.252117	2.369937	0.099592	8
H	-1.388293	-3.352273	0.199992	1
H	-2.134953	-1.880602	0.842142	1
H	-0.448823	-2.264682	1.235942	1
H	-1.509543	-1.622272	-1.572088	1
H	0.162557	-2.022563	-1.186908	1
H	-1.361283	0.480808	-0.155118	1
H	1.540487	-0.069662	-0.970018	1
H	0.423737	2.612957	-0.996478	1
H	1.259327	1.599468	1.850252	1
H	0.803147	3.304557	1.396212	1
Es	-0.119090	-1.865943	-1.056891	99
Es	1.266488	0.123933	-0.856611	99
Es	0.173432	0.134201	-0.241936	99
Es	-0.973207	-1.911548	-0.170674	99
Es	0.839082	2.090670	0.409734	99
Es	-0.684878	-2.273548	0.982489	99
Es	0.686581	0.511991	-0.626034	99
Es	1.248581	1.847341	1.597147	99
Es	1.934726	2.410995	0.549777	99
Es	-1.270620	-1.591402	-1.319826	99
Es	0.943674	3.001232	1.299352	99
Es	1.203602	2.351952	1.073480	99
Es	-1.843274	-2.009530	0.711981	99
Es	0.024816	0.299193	-0.873263	99
Es	-1.328307	-3.013818	0.273548	99
Es	-1.205300	-2.301415	0.445133	99
Es	2.443416	2.585501	0.003377	99
Es	2.251584	2.370178	0.099602	99
Es	-0.503124	-0.096045	-0.491711	99
Es	2.283460	2.196396	0.150009	99
Es	0.963311	1.924916	-0.352725	99
Es	-1.093732	0.290379	-0.260997	99
Es	0.840024	1.215291	-0.493085	99
Es	0.607190	2.385969	-0.790474	99
Es	1.801511	2.172247	-0.184094	99
Es	-0.618285	-0.811665	-0.642168	99
Es	-0.743023	-1.546913	-0.791775	99
44
Properties=species:S:1:pos:R:3:Z:I:1 energy=-307.9274154536326 field_type=dipole dipole="0.000000 0.000000 0.000000" charge=0
C	-1.205303	-2.301432	0.445162	6
C	-0.743013	-1.546952	-0.791818	6
C	-0.503033	-0.096002	-0.491708	6
C	0.686477	0.511908	-0.626038	6
C	0.963017	1.924857	-0.352848	6
C	1.203377	2.351947	1.073722	6
O	2.252117	2.369937	0.099592	8
H	-1.388293	-3.352273	0.199992	1
H	-2.134953	-1.880602	0.842142	1
H	-0.448823	-2.264682	1.235942	1
H	-1.509543	-1.622272	-1.572088	1
H	0.162557	-2.022563	-1.186908	1
H	-1.361283	0.480808	-0.155118	1
H	1.540487	-0.069662	-0.970018	1
H	0.423737	2.612957	-0.996478	1
H	1.259327	1.599468	1.850252	1
H	0.803147	3.304557	1.396212	1
Es	-1.328329	-3.013947	0.273542	99
Es	0.173364	0.134326	-0.241950	99
Es	1.935380	2.409778	0.549511	99
Es	-0.503125	-0.096043	-0.491712	99
Es	1.203601	2.351943	1.073485	99
Es	-0.119089	-1.865993	-1.056909	99
Es	-0.684965	-2.273556	0.982395	99
Es	1.248603	1.847598	1.596997	99
Es	-1.205301	-2.301413	0.445133	99
Es	1.266407	0.123798	-0.856448	99
Es	-0.743023	-1.546914	-0.791775	99
Es	1.801630	2.170648	-0.183645	99
Es	2.251744	2.369968	0.099651	99
Es	-0.973121	-1.911473	-0.170724	99
Es	2.274662	2.207862	0.147769	99
Es	0.840039	1.215356	-0.493094	99
Es	0.607347	2.385807	-0.790446	99
Es	0.686579	0.511990	-0.626037	99
Es	0.943783	3.001128	1.299311	99
Es	-1.270690	-1.591343	-1.319794	99
Es	0.024867	0.299054	-0.873273	99
Es	-0.618431	-0.811782	-0.642038	99
Es	2.451464	2.577123	0.005586	99
Es	0.963313	1.924925	-0.352729	99
Es	-1.093576	0.290497	-0.261082	99
Es	0.838735	2.090666	0.409586	99
Es	-1.843227	-2.009443	0.712056	99
44
Properties=species:S:1:pos:R:3:Z:I:1 energy=-307.9274154536326 field_type=dipole dipole="0.000000 0.000000 0.000000" charge=0
C	-1.205303	-2.301432	0.445162	6
C	-0.743013	-1.546952	-0.791818	6
C	-0.503033	-0.096002	-0.491708	6
C	0.686477	0.511908	-0.626038	6
C	0.963017	1.924857	-0.352848	6
C	1.203377	2.351947	1.073722	6
O	2.252117	2.369937	0.099592	8
H	-1.388293	-3.352273	0.199992	1
H	-2.134953	-1.880602	0.842142	1
H	-0.448823	-2.264682	1.235942	1
H	-1.509543	-1.622272	-1.572088	1
H	0.162557	-2.022563	-1.186908	1
H	-1.361283	0.480808	-0.155118	1
H	1.540487	-0.069662	-0.970018	1
H	0.423737	2.612957	-0.996478	1
H	1.259327	1.599468	1.850252	1
H	0.803147	3.304557	1.396212	1
Es	-0.684938	-2.273520	0.982450	99
Es	-0.503126	-0.096045	-0.491715	99
Es	1.266305	0.123920	-0.856442	99
Es	-1.328331	-3.013911	0.273578	99
Es	1.935344	2.411254	0.548571	99
Es	-1.270710	-1.591428	-1.319738	99
Es	-1.843189	-2.009556	0.712041	99
Es	2.269515	2.214528	0.147215	99
Es	0.607494	2.385718	-0.790203	99
Es	2.457082	2.570231	0.006797	99
Es	-0.119136	-1.865908	-1.056966	99
Es	0.839901	1.215283	-0.493206	99
Es	1.801780	2.169337	-0.183156	99
Es	1.248555	1.847654	1.596818	99
Es	0.963314	1.924923	-0.352729	99
Es	0.943845	3.000849	1.299327	99
Es	-0.618473	-0.811769	-0.642047	99
Es	1.203605	2.351949	1.073479	99
Es	0.024813	0.299121	-0.873465	99
Es	-1.205301	-2.301415	0.445133	99
Es	-1.093487	0.290357	-0.261096	99
Es	0.838538	2.090831	0.409395	99
Es	0.173394	0.134298	-0.241720	99
Es	-0.973108	-1.911467	-0.170755	99
Es	-0.743024	-1.546914	-0.791775	99
Es	0.686580	0.511993	-0.626039	99
Es	2.251396	2.370247	0.099610	99
44
Properties=species:S:1:pos:R:3:Z:I:1 energy=-307.9274154536326 field_type=dipole dipole="0.000000 0.000000 0.000000" charge=0
C	-1.205303	-2.301432	0.445162	6
C	-0.743013	-1.546952	-0.791818	6
C	-0.503033	-0.096002	-0.491708	6
C	0.686477	0.511908	-0.626038	6
C	0.963017	1.924857	-0.352848	6
C	1.203377	2.351947	1.073722	6
O	2.252117	2.369937	0.099592	8
H	-1.388293	-3.352273	0.199992	1
H	-2.134953	-1.880602	0.842142	1
H	-0.448823	-2.264682	1.235942	1
H	-1.509543	-1.622272	-1.572088	1
H	0.162557	-2.022563	-1.186908	1
H	-1.361283	0.480808	-0.155118	1
H	1.540487	-0.069662	-0.970018	1
H	0.423737	2.612957	-0.996478	1
H	1.259327	1.599468	1.850252	1
H	0.803147	3.304557	1.396212	1
Es	-0.618511	-0.811714	-0.641955	99
Es	1.266184	0.123924	-0.856594	99
Es	2.251513	2.370155	0.099624	99
Es	-1.093367	0.290406	-0.261008	99
Es	2.265384	2.219962	0.145190	99
Es	0.024809	0.299171	-0.873423	99
Es	2.460910	2.565711	0.008111	99
Es	-0.743024	-1.546914	-0.791775	99
Es	-0.119199	-1.866017	-1.056897	99
Es	1.800732	2.170471	-0.182934	99
Es	0.963308	1.924911	-0.352724	99
Es	0.173409	0.134217	-0.241801	99
Es	1.936759	2.409415	0.549087	99
Es	0.607800	2.385530	-0.789737	99
Es	-1.205300	-2.301415	0.445134	99
Es	0.943930	3.000729	1.299457	99
Es	-0.503124	-0.096045	-0.491714	99
Es	-1.843185	-2.009547	0.712088	99
Es	-1.270716	-1.591480	-1.319739	99
Es	0.839727	1.215313	-0.493392	99
Es	0.686580	0.511991	-0.626037	99
Es	1.203602	2.351949	1.073478	99
Es	-0.973119	-1.911370	-0.170810	99
Es	-1.328284	-3.014023	0.273546	99
Es	1.248654	1.847930	1.596509	99
Es	-0.684990	-2.273462	0.982375	99
Es	0.838156	2.090762	0.409305	99
44
Properties=species:S:1:pos:R:3:Z:I:1 energy=-307.9274154536326 field_type=dipole dipole="0.000000 0.000000 0.000000" charge=0
C	-1.205303	-2.301432	0.445162	6
C	-0.743013	-1.546952	-0.791818	6
C	-0.503033	-0.096002	-0.491708	6
C	0.686477	0.511908	-0.626038	6
C	0.963017	1.924857	-0.352848	6
C	1.203377	2.351947	1.073722	6
O	2.252117	2.369937	0.099592	8
H	-1.388293	-3.352273	0.199992	1
H	-2.134953	-1.880602	0.842142	1
H	-0.448823	-2.264682	1.235942	1
H	-1.509543	-1.622272	-1.572088	1
H	0.162557	-2.022563	-1.186908	1
H	-1.361283	0.480808	-0.155118	1
H	1.540487	-0.069662	-0.970018	1
H	0.423737	2.612957	-0.996478	1
H	1.259327	1.599468	1.850252	1
H	0.803147	3.304557	1.396212	1
Es	-0.503124	-0.096046	-0.491712	99
Es	-1.270626	-1.591535	-1.319726	99
Es	0.943910	3.000633	1.299128	99
Es	0.963304	1.924911	-0.352723	99
Es	-0.618535	-0.811723	-0.641806	99
Es	-1.093217	0.290398	-0.261111	99
Es	-0.119318	-1.866033	-1.056902	99
Es	1.936701	2.409867	0.548664	99
Es	2.251817	2.368894	0.099969	99
Es	-0.685081	-2.273375	0.982334	99
Es	0.838531	2.090830	0.409044	99
Es	0.024836	0.299057	-0.873529	99
Es	0.173313	0.134441	-0.241752	99
Es	1.203605	2.351950	1.073478	99
Es	-1.843076	-2.009495	0.712103	99
Es	1.801466	2.167970	-0.182259	99
Es	0.839907	1.215377	-0.493164	99
Es	1.248578	1.847858	1.596819	99
Es	-1.205300	-2.301414	0.445133	99
Es	-1.328320	-3.014226	0.273544	99
Es	0.686582	0.511990	-0.626030	99
Es	2.467957	2.556261	0.009811	99
Es	1.265958	0.123776	-0.856395	99
Es	0.607488	2.385657	-0.789878	99
Es	-0.743024	-1.546914	-0.791775	99
Es	2.257429	2.232855	0.142889	99
Es	-0.973122	-1.911406	-0.170791	99
44
Properties=species:S:1:pos:R:3:Z:I:1 energy=-307.9274154536326 field_type=dipole dipole="0.000000 0.000000 0.000000" charge=0
C	-1.205303	-2.301432	0.445162	6
C	-0.743013	-1.546952	-0.791818	6
C	-0.503033	-0.096002	-0.491708	6
C	0.686477	0.511908	-0.626038	6
C	0.963017	1.924857	-0.352848	6
C	1.203377	2.351947	1.073722	6
O	2.252117	2.369937	0.099592	8
H	-1.388293	-3.352273	0.199992	1
H	-2.134953	-1.880602	0.842142	1
H	-0.448823	-2.264682	1.235942	1
H	-1.509543	-1.622272	-1.572088	1
H	0.162557	-2.022563	-1.186908	1
H	-1.361283	0.480808	-0.155118	1
H	1.540487	-0.069662	-0.970018	1
H	0.423737	2.612957	-0.996478	1
H	1.259327	1.599468	1.850252	1
H	0.803147	3.304557	1.396212	1
Es	-0.503124	-0.096046	-0.491713	99
Es	1.265846	0.123818	-0.856392	99
Es	-1.842804	-2.009431	0.712149	99
Es	0.173260	0.134498	-0.241747	99
Es	-1.205300	-2.301415	0.445132	99
Es	-0.618490	-0.811733	-0.641649	99
Es	0.963312	1.924914	-0.352725	99
Es	-1.270541	-1.591553	-1.319759	99
Es	1.248599	1.847887	1.596714	99
Es	-0.973174	-1.911421	-0.170784	99
Es	-0.743023	-1.546914	-0.791775	99
Es	-0.685112	-2.273366	0.982336	99
Es	-1.328527	-3.014421	0.273512	99
Es	0.024893	0.298966	-0.873591	99
Es	0.607678	2.385576	-0.789795	99
Es	1.801045	2.167992	-0.181892	99
Es	0.686580	0.511993	-0.626041	99
Es	1.937037	2.410099	0.548200	99
Es	0.839818	1.215433	-0.493389	99
Es	2.251914	2.369070	0.099895	99
Es	2.472578	2.549739	0.011496	99
Es	-0.119480	-1.865986	-1.056910	99
Es	1.203601	2.351948	1.073480	99
Es	2.252878	2.239115	0.141615	99
Es	0.838385	2.090925	0.408841	99
Es	-1.093101	0.290374	-0.260999	99
Es	0.943893	3.000498	1.299155	99
44
Properties=species:S:1:pos:R:3:Z:I:1 energy=-307.9274154536326 field_type=dipole dipole="0.000000 0.000000 0.000000" charge=0
C	-1.205303	-2.301432	0.445162	6
C	-0.743013	-1.546952	-0.791818	6
C	-0.503033	-0.096002	-0.491708	6
C	0.686477	0.511908	-0.626038	6
C	0.963017	1.924857	-0.352848	6
C	1.203377	2.351947	1.073722	6
O	2.252117	2.369937	0.099592	8
H	-1.388293	-3.352273	0.199992	1
H	-2.134953	-1.880602	0.842142	1
H	-0.448823	-2.264682	1.235942	1
H	-1.509543	-1.622272	-1.572088	1
H	0.162557	-2.022563	-1.186908	1
H	-1.361283	0.480808	-0.155118	1
H	1.540487	-0.069662	-0.970018	1
H	0.423737	2.612957	-0.996478	1
H	1.259327	1.599468	1.850252	1
H	0.803147	3.304557	1.396212	1
Es	-1.328343	-3.014283	0.273520	99
Es	-0.973124	-1.911447	-0.170845	99
Es	-0.685090	-2.273321	0.982375	99
Es	1.800650	2.167763	-0.181542	99
Es	-1.093152	0.290312	-0.260993	99
Es	-0.618607	-0.811730	-0.641674	99
Es	1.203606	2.351949	1.073477	99
Es	-0.503125	-0.096045	-0.491714	99
Es	-1.205301	-2.301414	0.445133	99
Es	-1.270593	-1.591628	-1.319777	99
Es	1.938148	2.408890	0.548757	99
Es	0.607981	2.385274	-0.789324	99
Es	1.248594	1.848156	1.596352	99
Es	2.251919	2.366832	0.100593	99
Es	0.173315	0.134396	-0.241627	99
Es	-1.843035	-2.009490	0.712043	99
Es	-0.119294	-1.865945	-1.056827	99
Es	0.839648	1.215419	-0.493549	99
Es	0.024811	0.299070	-0.873643	99
Es	0.686581	0.511990	-0.626037	99
Es	2.253014	2.241690	0.140428	99
Es	-0.743023	-1.546914	-0.791775	99
Es	0.963309	1.924914	-0.352724	99
Es	1.265830	0.123915	-0.856434	99
Es	0.944081	3.000273	1.299256	99
Es	2.471961	2.550924	0.011043	99
Es	0.837877	2.091009	0.408871	99
44
Properties=species:S:1:pos:R:3:Z:I:1 energy=-307.9274154536326 field_type=dipole dipole="0.000000 0.000000 0.000000" charge=0
C	-1.205303	-2.301432	0.445162	6
C	-0.743013	-1.546952	-0.791818	6
C	-0.503033	-0.096002	-0.491708	6
C	0.686477	0.511908	-0.626038	6
C	0.963017	1.924857	-0.352848	6
C	1.203377	2.351947	1.073722	6
O	2.252117	2.369937	0.099592	8
H	-1.388293	-3.352273	0.199992	1
H	-2.134953	-1.880602	0.842142	1
H	-0.448823	-2.264682	1.235942	1
H	-1.509543	-1.622272	-1.572088	1
H	0.162557	-2.022563	-1.186908	1
H	-1.361283	0.480808	-0.155118	1
H	1.540487	-0.069662	-0.970018	1
H	0.423737	2.612957	-0.996478	1
H	1.259327	1.599468	1.850252	1
H	0.803147	3.304557	1.396212	1
Es	1.248602	1.848308	1.596319	99
Es	1.265788	0.123936	-0.856530	99
Es	0.837779	2.090949	0.408828	99
Es	-0.973004	-1.911347	-0.170893	99
Es	1.203606	2.351949	1.073475	99
Es	-1.328304	-3.014086	0.273649	99
Es	-0.618600	-0.811724	-0.641817	99
Es	0.607993	2.385271	-0.789296	99
Es	2.251564	2.370119	0.099618	99
Es	-1.270817	-1.591677	-1.319628	99
Es	2.473838	2.548378	0.011611	99
Es	0.173333	0.134321	-0.241465	99
Es	-1.205300	-2.301415	0.445134	99
Es	1.801344	2.165546	-0.180880	99
Es	1.938156	2.409273	0.548283	99
Es	0.024785	0.299190	-0.873743	99
Es	-0.684985	-2.273363	0.982338	99
Es	0.686580	0.511992	-0.626038	99
Es	0.963312	1.924909	-0.352724	99
Es	-0.119351	-1.866014	-1.056924	99
Es	-1.093077	0.290276	-0.260988	99
Es	-0.503125	-0.096046	-0.491714	99
Es	-1.843127	-2.009554	0.712093	99
Es	0.944111	3.000107	1.299127	99
Es	-0.743023	-1.546915	-0.791775	99
Es	2.250935	2.242902	0.140770	99
Es	0.839628	1.215274	-0.493466	99
44
Properties=species:S:1:pos:R:3:Z:I:1 energy=-307.9274154536326 field_type=dipole dipole="0.000000 0.000000 0.000000" charge=0
C	-1.205303	-2.301432	0.445162	6
C	-0.743013	-1.546952	-0.791818	6
C	-0.503033	-0.096002	-0.491708	6
C	0.686477	0.511908	-0.626038	6
C	0.963017	1.924857	-0.352848	6
C	1.203377	2.351947	1.073722	6
O	2.252117	2.369937	0.099592	8
H	-1.388293	-3.352273	0.199992	1
H	-2.134953	-1.880602	0.842142	1
H	-0.448823	-2.264682	1.235942	1
H	-1.509543	-1.622272	-1.572088	1
H	0.162557	-2.022563	-1.186908	1
H	-1.361283	0.480808	-0.155118	1
H	1.540487	-0.069662	-0.970018	1
H	0.423737	2.612957	-0.996478	1
H	1.259327	1.599468	1.850252	1
H	0.803147	3.304557	1.396212	1
Es	0.944253	2.999926	1.299204	99
Es	-0.685156	-2.273399	0.982453	99
Es	2.475152	2.546619	0.012189	99
Es	-1.093013	0.290248	-0.260923	99
Es	-1.328163	-3.014113	0.273446	99
Es	1.203612	2.351939	1.073480	99
Es	-1.843225	-2.009657	0.712011	99
Es	0.963317	1.924917	-0.352729	99
Es	-0.972913	-1.911357	-0.170748	99
Es	0.839621	1.215471	-0.493756	99
Es	0.173325	0.134330	-0.241470	99
Es	0.608413	2.384942	-0.789009	99
Es	1.248665	1.848471	1.596122	99
Es	-0.743023	-1.546914	-0.791774	99
Es	2.251308	2.370441	0.099562	99
Es	1.800708	2.166426	-0.180791	99
Es	2.250275	2.243703	0.140434	99
Es	-0.119321	-1.865848	-1.056944	99
Es	-1.205301	-2.301415	0.445134	99
Es	0.024788	0.299153	-0.873724	99
Es	1.265564	0.123936	-0.856507	99
Es	0.686580	0.511991	-0.626035	99
Es	1.938496	2.409115	0.548021	99
Es	-1.270803	-1.591474	-1.319764	99
Es	-0.503124	-0.096046	-0.491717	99
Es	-0.618626	-0.811996	-0.641632	99
Es	0.837231	2.091154	0.408829	99
44
Properties=species:S:1:pos:R:3:Z:I:1 energy=-307.9274154536326 field_type=dipole dipole="0.000000 0.000000 0.000000" charge=0
C	-1.205303	-2.301432	0.445162	6
C	-0.743013	-1.546952	-0.791818	6
C	-0.503033	-0.096002	-0.491708	6
C	0.686477	0.511908	-0.626038	6
C	0.963017	1.924857	-0.352848	6
C	1.203377	2.351947	1.073722	6
O	2.252117	2.369937	0.099592	8
H	-1.388293	-3.352273	0.199992	1
H	-2.134953	-1.880602	0.842142	1
H	-0.448823	-2.264682	1.235942	1
H	-1.509543	-1.622272	-1.572088	1
H	0.162557	-2.022563	-1.186908	1
H	-1.361283	0.480808	-0.155118	1
H	1.540487	-0.069662	-0.970018	1
H	0.423737	2.612957	-0.996478	1
H	1.259327	1.599468	1.850252	1
H	0.803147	3.304557	1.396212	1
Es	0.837281	2.091203	0.408669	99
Es	-1.270715	-1.591657	-1.319714	99
Es	-1.205300	-2.301415	0.445134	99
Es	-0.618627	-0.811776	-0.641703	99
Es	0.024779	0.299171	-0.873754	99
Es	-0.685129	-2.273376	0.982381	99
Es	2.247725	2.248194	0.139421	99
Es	2.477503	2.543201	0.013318	99
Es	0.608341	2.384990	-0.788840	99
Es	-0.972985	-1.911339	-0.170931	99
Es	0.173362	0.134264	-0.241455	99
Es	0.686580	0.511991	-0.626036	99
Es	1.265533	0.123981	-0.856611	99
Es	0.963314	1.924917	-0.352725	99
Es	-0.503124	-0.096046	-0.491713	99
Es	1.203609	2.351948	1.073474	99
Es	-0.743023	-1.546913	-0.791775	99
Es	-0.119396	-1.865941	-1.056880	99
Es	2.251215	2.370490	0.099559	99
Es	-1.092987	0.290250	-0.260855	99
Es	1.938784	2.408850	0.547747	99
Es	0.839493	1.215389	-0.493746	99
Es	1.800788	2.165667	-0.180625	99
Es	1.248643	1.848463	1.596132	99
Es	0.944358	2.999803	1.299161	99
Es	-1.843081	-2.009600	0.712086	99
Es	-1.328300	-3.014148	0.273646	99
44
Properties=species:S:1:pos:R:3:Z:I:1 energy=-307.9274154536326 field_type=dipole dipole="0.000000 0.000000 0.000000" charge=0
C	-1.205303	-2.301432	0.445162	6
C	-0.743013	-1.546952	-0.791818	6
C	-0.503033	-0.096002	-0.491708	6
C	0.686477	0.511908	-0.626038	6
C	0.963017	1.924857	-0.352848	6
C	1.203377	2.351947	1.073722	6
O	2.252117	2.369937	0.099592	8
H	-1.388293	-3.352273	0.199992	1
H	-2.134953	-1.880602	0.842142	1
H	-0.448823	-2.264682	1.235942	1
H	-1.509543	-1.622272	-1.572088	1
H	0.162557	-2.022563	-1.186908	1
H	-1.361283	0.480808	-0.155118	1
H	1.540487	-0.069662	-0.970018	1
H	0.423737	2.612957	-0.996478	1
H	1.259327	1.599468	1.850252	1
H	0.803147	3.304557	1.396212	1
Es	2.251779	2.369284	0.099852	99
Es	1.265581	0.124012	-0.856526	99
Es	-0.618660	-0.811858	-0.641583	99
Es	0.608617	2.384778	-0.788715	99
Es	-0.743024	-1.546914	-0.791775	99
Es	-0.972966	-1.911414	-0.170864	99
Es	-0.503125	-0.096046	-0.491713	99
Es	0.944402	2.999724	1.299218	99
Es	-1.092973	0.290180	-0.260982	99
Es	1.248662	1.848542	1.595992	99
Es	1.203611	2.351949	1.073467	99
Es	-1.205300	-2.301415	0.445133	99
Es	0.024774	0.299168	-0.873888	99
Es	-0.685157	-2.273185	0.982443	99
Es	-1.843129	-2.009695	0.711967	99
Es	0.963309	1.924911	-0.352724	99
Es	1.801006	2.165541	-0.180603	99
Es	0.837017	2.091436	0.408591	99
Es	0.686580	0.511992	-0.626037	99
Es	1.938878	2.407924	0.547891	99
Es	-0.119365	-1.865868	-1.056989	99
Es	-1.328172	-3.014224	0.273651	99
Es	2.245558	2.252237	0.138267	99
Es	2.478881	2.541435	0.014040	99
Es	0.839313	1.215327	-0.493714	99
Es	0.173276	0.134434	-0.241417	99
Es	-1.270735	-1.591694	-1.319616	99
