38
Properties=species:S:1:pos:R:3:Z:I:1 energy=-305.5809029651664 field_type=dipole dipole="0.000000 0.000000 0.000000" charge=0
C	-1.334677	0.757719	-0.278326	6
C	-0.032758	0.691949	0.049334	6
C	0.843603	-0.527721	0.168444	6
C	0.147003	-1.794701	-0.113716	6
C	-0.403857	-2.838401	-0.340126	6
C	0.649583	1.983909	0.335594	6
O	1.833742	2.048749	0.642694	8
H	-1.877337	1.696439	-0.336286	1
H	-1.909727	-0.136191	-0.502896	1
H	1.258243	-0.574811	1.182964	1
H	1.689523	-0.431371	-0.523256	1
H	-0.889427	-3.766111	-0.540206	1
H	0.026093	2.890539	0.255784	1
Es	0.147130	-1.794454	-0.113662	99
Es	-0.223452	-2.208732	-0.559965	99
Es	-0.725731	0.725871	0.207446	99
Es	-0.032640	0.691949	0.049366	99
Es	1.963121	1.764595	0.650605	99
Es	0.382618	0.064457	0.101677	99
Es	-1.334752	0.757735	-0.278342	99
Es	-0.566651	0.779464	-0.412430	99
Es	0.306532	1.328714	0.191153	99
Es	0.210422	2.596459	0.277085	99
Es	1.383798	-0.468572	-0.295554	99
Es	0.843459	-0.527786	0.168402	99
Es	0.467622	-1.179305	0.018781	99
Es	0.175563	-2.497078	-0.175224	99
Es	-1.693425	1.392714	-0.315486	99
Es	1.833384	2.048704	0.642599	99
Es	0.649577	1.983877	0.335597	99
Es	-0.721202	-3.442475	-0.470662	99
Es	-1.723662	0.166671	-0.428925	99
Es	1.097962	-0.563657	0.835193	99
Es	1.461497	2.044336	0.287779	99
Es	1.935827	2.339485	0.693725	99
Es	1.338148	2.002089	0.772827	99
Es	-0.403965	-2.838602	-0.340178	99
Es	-0.361609	-2.267653	0.046156	99
38
Properties=species:S:1:pos:R:3:Z:I:1 energy=-305.5809029651664 field_type=dipole dipole="0.000000 0.000000 0.000000" charge=0
C	-1.334677	0.757719	-0.278326	6
C	-0.032758	0.691949	0.049334	6
C	0.843603	-0.527721	0.168444	6
C	0.147003	-1.794701	-0.113716	6
C	-0.403857	-2.838401	-0.340126	6
C	0.649583	1.983909	0.335594	6
O	1.833742	2.048749	0.642694	8
H	-1.877337	1.696439	-0.336286	1
H	-1.909727	-0.136191	-0.502896	1
H	1.258243	-0.574811	1.182964	1
H	1.689523	-0.431371	-0.523256	1
H	-0.889427	-3.766111	-0.540206	1
H	0.026093	2.890539	0.255784	1
Es	1.931376	1.767557	0.643218	99
Es	0.307323	1.331009	0.191520	99
Es	0.211050	2.596212	0.277361	99
Es	0.843461	-0.527785	0.168404	99
Es	1.097947	-0.562090	0.832733	99
Es	1.383352	-0.467493	-0.292920	99
Es	1.833428	2.048765	0.642616	99
Es	0.147139	-1.794447	-0.113658	99
Es	-0.724937	0.725802	0.204168	99
Es	0.471716	-1.185001	0.019965	99
Es	-0.403995	-2.838601	-0.340155	99
Es	-0.032630	0.691947	0.049360	99
Es	-0.302565	-2.303206	0.055939	99
Es	1.339119	2.000372	0.767314	99
Es	-1.690887	1.391371	-0.314635	99
Es	0.649572	1.983878	0.335588	99
Es	0.192121	-2.495379	-0.232161	99
Es	-0.730015	-3.438618	-0.472223	99
Es	-0.296070	-2.176259	-0.513162	99
Es	-0.567613	0.779071	-0.409111	99
Es	-1.725987	0.164767	-0.429774	99
Es	-1.334754	0.757734	-0.278343	99
Es	0.383306	0.065941	0.101674	99
Es	1.966589	2.341665	0.701936	99
Es	1.461525	2.041595	0.292311	99
38
Properties=species:S:1:pos:R:3:Z:I:1 energy=-305.5809029651664 field_type=dipole dipole="0.000000 0.000000 0.000000" charge=0
C	-1.334677	0.757719	-0.278326	6
C	-0.032758	0.691949	0.049334	6
C	0.843603	-0.527721	0.168444	6
C	0.147003	-1.794701	-0.113716	6
C	-0.403857	-2.838401	-0.340126	6
C	0.649583	1.983909	0.335594	6
O	1.833742	2.048749	0.642694	8
H	-1.877337	1.696439	-0.336286	1
H	-1.909727	-0.136191	-0.502896	1
H	1.258243	-0.574811	1.182964	1
H	1.689523	-0.431371	-0.523256	1
H	-0.889427	-3.766111	-0.540206	1
H	0.026093	2.890539	0.255784	1
Es	0.473876	-1.188402	0.020495	99
Es	0.147143	-1.794444	-0.113656	99
Es	-0.724785	0.725748	0.203434	99
Es	1.098075	-0.561469	0.831713	99
Es	-0.387811	-2.141284	-0.426866	99
Es	0.211577	2.595908	0.277530	99
Es	-1.334755	0.757736	-0.278345	99
Es	-0.567749	0.779213	-0.408628	99
Es	1.339990	2.000142	0.767126	99
Es	-0.032636	0.691945	0.049381	99
Es	0.383786	0.066621	0.101995	99
Es	0.843458	-0.527786	0.168404	99
Es	-1.688810	1.389817	-0.314111	99
Es	0.649573	1.983877	0.335587	99
Es	1.382889	-0.466773	-0.291971	99
Es	-0.403976	-2.838611	-0.340168	99
Es	1.833403	2.048781	0.642610	99
Es	0.195624	-2.488370	-0.273217	99
Es	1.460646	2.041604	0.292865	99
Es	-1.727928	0.164554	-0.430314	99
Es	1.901773	1.779918	0.636494	99
Es	0.307980	1.331560	0.191820	99
Es	1.996189	2.329890	0.708392	99
Es	-0.214487	-2.344893	0.010214	99
Es	-0.733474	-3.436478	-0.472823	99
38
Properties=species:S:1:pos:R:3:Z:I:1 energy=-305.5809029651664 field_type=dipole dipole="0.000000 0.000000 0.000000" charge=0
C	-1.334677	0.757719	-0.278326	6
C	-0.032758	0.691949	0.049334	6
C	0.843603	-0.527721	0.168444	6
C	0.147003	-1.794701	-0.113716	6
C	-0.403857	-2.838401	-0.340126	6
C	0.649583	1.983909	0.335594	6
O	1.833742	2.048749	0.642694	8
H	-1.877337	1.696439	-0.336286	1
H	-1.909727	-0.136191	-0.502896	1
H	1.258243	-0.574811	1.182964	1
H	1.689523	-0.431371	-0.523256	1
H	-0.889427	-3.766111	-0.540206	1
H	0.026093	2.890539	0.255784	1
Es	-1.729190	0.164638	-0.430568	99
Es	1.881175	1.794781	0.631448	99
Es	1.456999	2.041834	0.292775	99
Es	-0.032630	0.691947	0.049361	99
Es	0.195900	-2.494870	-0.239810	99
Es	-0.403991	-2.838607	-0.340177	99
Es	1.382890	-0.466281	-0.291505	99
Es	0.147145	-1.794449	-0.113657	99
Es	2.016984	2.316190	0.712477	99
Es	-0.415992	-2.135397	-0.378729	99
Es	1.833381	2.048814	0.642608	99
Es	0.384269	0.066771	0.102088	99
Es	-0.735393	-3.435007	-0.473490	99
Es	0.843462	-0.527785	0.168403	99
Es	-0.724780	0.725783	0.203263	99
Es	0.474556	-1.190002	0.020271	99
Es	-1.687415	1.388476	-0.313936	99
Es	0.212053	2.595608	0.277528	99
Es	1.343409	1.999017	0.768290	99
Es	-0.567762	0.779179	-0.408380	99
Es	0.308387	1.331898	0.191878	99
Es	-0.186513	-2.344448	-0.070769	99
Es	0.649572	1.983878	0.335589	99
Es	1.097813	-0.560900	0.831352	99
Es	-1.334756	0.757738	-0.278347	99
38
Properties=species:S:1:pos:R:3:Z:I:1 energy=-305.5809029651664 field_type=dipole dipole="0.000000 0.000000 0.000000" charge=0
C	-1.334677	0.757719	-0.278326	6
C	-0.032758	0.691949	0.049334	6
C	0.843603	-0.527721	0.168444	6
C	0.147003	-1.794701	-0.113716	6
C	-0.403857	-2.838401	-0.340126	6
C	0.649583	1.983909	0.335594	6
O	1.833742	2.048749	0.642694	8
H	-1.877337	1.696439	-0.336286	1
H	-1.909727	-0.136191	-0.502896	1
H	1.258243	-0.574811	1.182964	1
H	1.689523	-0.431371	-0.523256	1
H	-0.889427	-3.766111	-0.540206	1
H	0.026093	2.890539	0.255784	1
Es	0.384755	0.066820	0.102084	99
Es	-1.686314	1.387271	-0.313792	99
Es	1.098636	-0.560324	0.831441	99
Es	-0.403993	-2.838609	-0.340178	99
Es	-0.442077	-2.135927	-0.309599	99
Es	1.463941	2.038724	0.292148	99
Es	0.308884	1.331929	0.191958	99
Es	-0.150593	-2.335765	-0.205244	99
Es	1.381890	-0.466049	-0.291562	99
Es	0.186030	-2.503243	-0.173616	99
Es	-0.724277	0.726401	0.203624	99
Es	0.147153	-1.794451	-0.113659	99
Es	1.870629	1.808086	0.631223	99
Es	0.843462	-0.527785	0.168402	99
Es	2.026702	2.308311	0.714580	99
Es	-1.334755	0.757736	-0.278344	99
Es	-0.568335	0.778696	-0.408566	99
Es	0.212399	2.595302	0.277586	99
Es	0.649571	1.983876	0.335595	99
Es	1.337274	1.996995	0.766955	99
Es	0.474550	-1.190782	0.019809	99
Es	-0.736573	-3.433988	-0.474012	99
Es	-1.730149	0.164835	-0.430850	99
Es	-0.032630	0.691945	0.049365	99
Es	1.833391	2.048804	0.642614	99
38
Properties=species:S:1:pos:R:3:Z:I:1 energy=-305.5809029651664 field_type=dipole dipole="0.000000 0.000000 0.000000" charge=0
C	-1.334677	0.757719	-0.278326	6
C	-0.032758	0.691949	0.049334	6
C	0.843603	-0.527721	0.168444	6
C	0.147003	-1.794701	-0.113716	6
C	-0.403857	-2.838401	-0.340126	6
C	0.649583	1.983909	0.335594	6
O	1.833742	2.048749	0.642694	8
H	-1.877337	1.696439	-0.336286	1
H	-1.909727	-0.136191	-0.502896	1
H	1.258243	-0.574811	1.182964	1
H	1.689523	-0.431371	-0.523256	1
H	-0.889427	-3.766111	-0.540206	1
H	0.026093	2.890539	0.255784	1
Es	-0.446413	-2.137703	-0.290962	99
Es	1.098499	-0.560413	0.830275	99
Es	-1.334757	0.757737	-0.278344	99
Es	-0.032626	0.691944	0.049358	99
Es	0.147151	-1.794446	-0.113656	99
Es	0.475071	-1.192011	0.019451	99
Es	1.863318	1.815933	0.629630	99
Es	1.461414	2.037766	0.293060	99
Es	-0.403993	-2.838610	-0.340166	99
Es	0.309042	1.332194	0.192093	99
Es	0.843462	-0.527783	0.168406	99
Es	-0.737620	-3.433007	-0.474171	99
Es	2.033725	2.302457	0.715669	99
Es	-1.730721	0.164844	-0.430967	99
Es	-1.685573	1.387070	-0.313733	99
Es	-0.142147	-2.333241	-0.237676	99
Es	0.212649	2.595347	0.277582	99
Es	-0.568444	0.778578	-0.407386	99
Es	1.833390	2.048790	0.642608	99
Es	1.381697	-0.466137	-0.290354	99
Es	-0.724098	0.726296	0.202388	99
Es	0.649572	1.983877	0.335589	99
Es	0.182009	-2.504145	-0.159651	99
Es	0.384909	0.067561	0.102288	99
Es	1.340058	1.995909	0.766630	99
38
Properties=species:S:1:pos:R:3:Z:I:1 energy=-305.5809029651664 field_type=dipole dipole="0.000000 0.000000 0.000000" charge=0
C	-1.334677	0.757719	-0.278326	6
C	-0.032758	0.691949	0.049334	6
C	0.843603	-0.527721	0.168444	6
C	0.147003	-1.794701	-0.113716	6
C	-0.403857	-2.838401	-0.340126	6
C	0.649583	1.983909	0.335594	6
O	1.833742	2.048749	0.642694	8
H	-1.877337	1.696439	-0.336286	1
H	-1.909727	-0.136191	-0.502896	1
H	1.258243	-0.574811	1.182964	1
H	1.689523	-0.431371	-0.523256	1
H	-0.889427	-3.766111	-0.540206	1
H	0.026093	2.890539	0.255784	1
Es	-1.684930	1.386390	-0.313521	99
Es	-0.738447	-3.432308	-0.473946	99
Es	-0.567664	0.779167	-0.406939	99
Es	0.183049	-2.503391	-0.165411	99
Es	0.384976	0.067823	0.102385	99
Es	1.375739	2.000169	0.752682	99
Es	1.833357	2.048872	0.642607	99
Es	-0.403996	-2.838604	-0.340187	99
Es	1.425771	2.029994	0.308422	99
Es	-1.334757	0.757737	-0.278344	99
Es	0.649572	1.983877	0.335587	99
Es	0.475258	-1.192657	0.019588	99
Es	-0.143275	-2.333588	-0.233347	99
Es	0.309387	1.332241	0.191730	99
Es	-0.724903	0.725617	0.202124	99
Es	2.038686	2.298316	0.714189	99
Es	0.212846	2.595278	0.277515	99
Es	1.092978	-0.560484	0.827771	99
Es	0.843460	-0.527786	0.168405	99
Es	-0.032628	0.691946	0.049357	99
Es	0.147149	-1.794447	-0.113648	99
Es	-0.446161	-2.138216	-0.289746	99
Es	-1.731382	0.165061	-0.430859	99
Es	1.858299	1.823557	0.629809	99
Es	1.387187	-0.465758	-0.288263	99
38
Properties=species:S:1:pos:R:3:Z:I:1 energy=-305.5809029651664 field_type=dipole dipole="0.000000 0.000000 0.000000" charge=0
C	-1.334677	0.757719	-0.278326	6
C	-0.032758	0.691949	0.049334	6
C	0.843603	-0.527721	0.168444	6
C	0.147003	-1.794701	-0.113716	6
C	-0.403857	-2.838401	-0.340126	6
C	0.649583	1.983909	0.335594	6
O	1.833742	2.048749	0.642694	8
H	-1.877337	1.696439	-0.336286	1
H	-1.909727	-0.136191	-0.502896	1
H	1.258243	-0.574811	1.182964	1
H	1.689523	-0.431371	-0.523256	1
H	-0.889427	-3.766111	-0.540206	1
H	0.026093	2.890539	0.255784	1
Es	1.093455	-0.560349	0.828188	99
Es	0.184237	-2.502680	-0.171551	99
Es	-0.566143	0.780845	-0.406775	99
Es	1.833377	2.048679	0.642596	99
Es	-1.334756	0.757737	-0.278345	99
Es	-0.032627	0.691945	0.049354	99
Es	0.649572	1.983877	0.335588	99
Es	-0.726442	0.724214	0.201898	99
Es	0.309634	1.332055	0.191721	99
Es	2.042480	2.294719	0.713507	99
Es	-0.739004	-3.431816	-0.473869	99
Es	0.475084	-1.192694	0.019474	99
Es	1.854176	1.830984	0.629917	99
Es	1.386816	-0.465336	-0.288955	99
Es	0.385163	0.067538	0.102465	99
Es	1.399715	2.021646	0.342214	99
Es	-0.444900	-2.138243	-0.293058	99
Es	-0.403983	-2.838615	-0.340174	99
Es	0.212990	2.595198	0.277527	99
Es	0.147161	-1.794455	-0.113656	99
Es	1.402093	2.004934	0.719461	99
Es	-1.684553	1.385505	-0.313204	99
Es	-0.145587	-2.334408	-0.223937	99
Es	-1.731847	0.165313	-0.430827	99
Es	0.843463	-0.527785	0.168401	99
38
Properties=species:S:1:pos:R:3:Z:I:1 energy=-305.5809029651664 field_type=dipole dipole="0.000000 0.000000 0.000000" charge=0
C	-1.334677	0.757719	-0.278326	6
C	-0.032758	0.691949	0.049334	6
C	0.843603	-0.527721	0.168444	6
C	0.147003	-1.794701	-0.113716	6
C	-0.403857	-2.838401	-0.340126	6
C	0.649583	1.983909	0.335594	6
O	1.833742	2.048749	0.642694	8
H	-1.877337	1.696439	-0.336286	1
H	-1.909727	-0.136191	-0.502896	1
H	1.258243	-0.574811	1.182964	1
H	1.689523	-0.431371	-0.523256	1
H	-0.889427	-3.766111	-0.540206	1
H	0.026093	2.890539	0.255784	1
Es	-1.684138	1.384940	-0.313083	99
Es	-0.727614	0.722950	0.200771	99
Es	-0.445324	-2.138779	-0.290012	99
Es	0.385291	0.067533	0.102540	99
Es	-0.143898	-2.333792	-0.230907	99
Es	0.182950	-2.502798	-0.167405	99
Es	1.092647	-0.560188	0.827921	99
Es	-1.732229	0.165537	-0.430977	99
Es	-1.334757	0.757737	-0.278344	99
Es	-0.739351	-3.431390	-0.474181	99
Es	-0.404000	-2.838605	-0.340182	99
Es	1.851521	1.836161	0.629615	99
Es	1.833371	2.048737	0.642607	99
Es	0.475051	-1.192934	0.019463	99
Es	1.387552	-0.465195	-0.288567	99
Es	2.044602	2.292214	0.714374	99
Es	1.415340	2.007369	0.696378	99
Es	0.147167	-1.794466	-0.113642	99
Es	0.213146	2.595103	0.277543	99
Es	-0.032630	0.691944	0.049364	99
Es	0.309732	1.332007	0.191932	99
Es	0.649573	1.983877	0.335584	99
Es	-0.564883	0.782118	-0.406000	99
Es	0.843462	-0.527784	0.168405	99
Es	1.386994	2.016512	0.364765	99
38
Properties=species:S:1:pos:R:3:Z:I:1 energy=-305.5809029651664 field_type=dipole dipole="0.000000 0.000000 0.000000" charge=0
C	-1.334677	0.757719	-0.278326	6
C	-0.032758	0.691949	0.049334	6
C	0.843603	-0.527721	0.168444	6
C	0.147003	-1.794701	-0.113716	6
C	-0.403857	-2.838401	-0.340126	6
C	0.649583	1.983909	0.335594	6
O	1.833742	2.048749	0.642694	8
H	-1.877337	1.696439	-0.336286	1
H	-1.909727	-0.136191	-0.502896	1
H	1.258243	-0.574811	1.182964	1
H	1.689523	-0.431371	-0.523256	1
H	-0.889427	-3.766111	-0.540206	1
H	0.026093	2.890539	0.255784	1
Es	1.833368	2.048553	0.642584	99
Es	0.649571	1.983877	0.335591	99
Es	-0.444880	-2.138911	-0.290976	99
Es	0.474662	-1.192538	0.019378	99
Es	-0.739525	-3.431289	-0.474079	99
Es	0.182592	-2.502719	-0.166538	99
Es	-1.732490	0.165777	-0.431024	99
Es	1.439496	2.012991	0.643455	99
Es	1.386209	-0.464914	-0.289921	99
Es	-0.567252	0.779574	-0.408708	99
Es	0.843462	-0.527786	0.168403	99
Es	1.363306	2.007245	0.418118	99
Es	-0.032629	0.691945	0.049364	99
Es	0.310063	1.331742	0.191810	99
Es	-0.404000	-2.838605	-0.340178	99
Es	-0.725364	0.725712	0.203831	99
Es	0.385408	0.067024	0.102615	99
Es	1.094090	-0.559890	0.829358	99
Es	-0.143915	-2.333790	-0.230880	99
Es	2.047550	2.288930	0.714596	99
Es	1.848106	1.843264	0.628922	99
Es	-1.334757	0.757737	-0.278344	99
Es	0.147160	-1.794454	-0.113656	99
Es	-1.683827	1.384191	-0.313326	99
Es	0.213167	2.595142	0.277567	99
38
Properties=species:S:1:pos:R:3:Z:I:1 energy=-305.5809029651664 field_type=dipole dipole="0.000000 0.000000 0.000000" charge=0
C	-1.334677	0.757719	-0.278326	6
C	-0.032758	0.691949	0.049334	6
C	0.843603	-0.527721	0.168444	6
C	0.147003	-1.794701	-0.113716	6
C	-0.403857	-2.838401	-0.340126	6
C	0.649583	1.983909	0.335594	6
O	1.833742	2.048749	0.642694	8
H	-1.877337	1.696439	-0.336286	1
H	-1.909727	-0.136191	-0.502896	1
H	1.258243	-0.574811	1.182964	1
H	1.689523	-0.431371	-0.523256	1
H	-0.889427	-3.766111	-0.540206	1
H	0.026093	2.890539	0.255784	1
Es	-0.739592	-3.430968	-0.474891	99
Es	0.147161	-1.794455	-0.113653	99
Es	-0.404000	-2.838605	-0.340175	99
Es	1.104113	-0.559206	0.831965	99
Es	0.309889	1.331746	0.192663	99
Es	-0.443287	-2.138682	-0.296257	99
Es	2.048747	2.285378	0.720239	99
Es	-1.732558	0.165887	-0.431600	99
Es	1.375830	-0.465709	-0.291456	99
Es	1.317654	1.989933	0.591613	99
Es	0.385506	0.067186	0.102469	99
Es	0.843462	-0.527786	0.168403	99
Es	0.182105	-2.502684	-0.165246	99
Es	-1.683481	1.384107	-0.313657	99
Es	1.845373	1.848367	0.628146	99
Es	-0.725706	0.725141	0.202994	99
Es	-1.334759	0.757739	-0.278342	99
Es	1.833284	2.048863	0.642589	99
Es	-0.566780	0.780108	-0.408295	99
Es	-0.144982	-2.334116	-0.226786	99
Es	0.213235	2.595015	0.277827	99
Es	0.474625	-1.192785	0.019493	99
Es	1.486790	2.028510	0.464971	99
Es	0.649573	1.983877	0.335586	99
Es	-0.032628	0.691946	0.049363	99
38
Properties=species:S:1:pos:R:3:Z:I:1 energy=-305.5809029651664 field_type=dipole dipole="0.000000 0.000000 0.000000" charge=0
C	-1.334677	0.757719	-0.278326	6
C	-0.032758	0.691949	0.049334	6
C	0.843603	-0.527721	0.168444	6
C	0.147003	-1.794701	-0.113716	6
C	-0.403857	-2.838401	-0.340126	6
C	0.649583	1.983909	0.335594	6
O	1.833742	2.048749	0.642694	8
H	-1.877337	1.696439	-0.336286	1
H	-1.909727	-0.136191	-0.502896	1
H	1.258243	-0.574811	1.182964	1
H	1.689523	-0.431371	-0.523256	1
H	-0.889427	-3.766111	-0.540206	1
H	0.026093	2.890539	0.255784	1
Es	-0.566726	0.780142	-0.408611	99
Es	0.385514	0.067042	0.102634	99
Es	-1.732917	0.166085	-0.431498	99
Es	1.476323	2.024281	0.520923	99
Es	1.328030	1.992842	0.536919	99
Es	-0.032626	0.691946	0.049356	99
Es	0.213360	2.594951	0.277801	99
Es	0.474712	-1.193000	0.019432	99
Es	-1.683190	1.383592	-0.313452	99
Es	-0.144225	-2.333875	-0.229749	99
Es	0.843462	-0.527784	0.168403	99
Es	1.379752	-0.465192	-0.291344	99
Es	0.649572	1.983877	0.335588	99
Es	-0.725757	0.725179	0.203253	99
Es	0.310035	1.331701	0.192515	99
Es	-0.443442	-2.139038	-0.294690	99
Es	1.845128	1.849502	0.627963	99
Es	0.181501	-2.502606	-0.163790	99
Es	0.147162	-1.794456	-0.113654	99
Es	-0.739985	-3.430617	-0.474732	99
Es	1.100276	-0.559316	0.831434	99
Es	1.833398	2.048784	0.642610	99
Es	2.048969	2.285636	0.719179	99
Es	-1.334756	0.757737	-0.278346	99
Es	-0.403999	-2.838606	-0.340180	99
38
Properties=species:S:1:pos:R:3:Z:I:1 energy=-305.5809029651664 field_type=dipole dipole="0.000000 0.000000 0.000000" charge=0
C	-1.334677	0.757719	-0.278326	6
C	-0.032758	0.691949	0.049334	6
C	0.843603	-0.527721	0.168444	6
C	0.147003	-1.794701	-0.113716	6
C	-0.403857	-2.838401	-0.340126	6
C	0.649583	1.983909	0.335594	6
O	1.833742	2.048749	0.642694	8
H	-1.877337	1.696439	-0.336286	1
H	-1.909727	-0.136191	-0.502896	1
H	1.258243	-0.574811	1.182964	1
H	1.689523	-0.431371	-0.523256	1
H	-0.889427	-3.766111	-0.540206	1
H	0.026093	2.890539	0.255784	1
Es	0.385655	0.067434	0.102502	99
Es	0.181803	-2.502497	-0.165107	99
Es	0.474635	-1.193193	0.019488	99
Es	1.328784	1.991217	0.535061	99
Es	-0.143595	-2.333674	-0.232214	99
Es	-0.032630	0.691945	0.049369	99
Es	-0.740207	-3.430446	-0.474566	99
Es	1.475650	2.024011	0.523836	99
Es	0.843462	-0.527787	0.168403	99
Es	-0.567441	0.779407	-0.408266	99
Es	0.147156	-1.794456	-0.113643	99
Es	1.376615	-0.465666	-0.291366	99
Es	1.842314	1.854519	0.627644	99
Es	-0.725098	0.725796	0.203221	99
Es	-1.334757	0.757737	-0.278344	99
Es	-0.403999	-2.838604	-0.340179	99
Es	-1.683071	1.383653	-0.313411	99
Es	-0.444271	-2.139447	-0.290931	99
Es	0.649572	1.983877	0.335588	99
Es	1.103361	-0.559121	0.831217	99
Es	2.051726	2.282628	0.718378	99
Es	0.213416	2.594856	0.277785	99
Es	0.310132	1.331821	0.192268	99
Es	-1.733027	0.166044	-0.431374	99
Es	1.833386	2.048754	0.642604	99
