38
Properties=species:S:1:pos:R:3:Z:I:1 energy=-305.57888878214976 field_type=dipole dipole="0.000000 0.000000 0.000000" charge=0
C	-2.649640	-0.636629	0.002980	6
C	-1.156440	-0.608259	0.003580	6
C	-0.450610	0.530931	-0.002710	6
C	0.955390	0.530931	-0.002710	6
C	2.145550	0.530931	-0.002710	6
C	3.585360	0.543861	-0.002710	6
O	4.206160	1.596891	-0.002720	8
H	-3.002630	-1.672619	-0.019980	1
H	-3.050780	-0.127699	-0.878920	1
H	-3.049050	-0.167079	0.907150	1
H	-0.647070	-1.569289	0.009020	1
H	-0.958230	1.491921	-0.007550	1
H	4.071990	-0.443889	-0.002720	1
Es	2.832560	0.523121	-0.005976	99
Es	-2.885186	-1.338955	-0.012522	99
Es	-1.156522	-0.608334	0.003581	99
Es	-2.904806	-0.289467	-0.587175	99
Es	-0.779347	1.176495	-0.006144	99
Es	-2.902958	-0.316381	0.608237	99
Es	-0.817326	-1.257246	0.007419	99
Es	3.967276	1.203598	-0.253842	99
Es	4.205986	1.596631	-0.002720	99
Es	-2.649580	-0.636631	0.002980	99
Es	2.145801	0.530913	-0.002720	99
Es	4.022442	1.845835	-0.002943	99
Es	3.904023	-0.129990	-0.002752	99
Es	3.585231	0.543847	-0.002689	99
Es	-1.898118	-0.621185	0.003091	99
Es	0.275939	0.537558	-0.002014	99
Es	1.574598	0.814918	-0.208354	99
Es	-0.734282	0.001455	-0.318259	99
Es	-0.734629	0.005088	0.318320	99
Es	0.955146	0.530936	-0.002704	99
Es	1.637317	0.565162	0.336596	99
Es	1.553670	0.188445	-0.133419	99
Es	3.966990	1.203945	0.248525	99
Es	4.514878	1.547978	-0.002670	99
Es	-0.450455	0.531011	-0.002716	99
38
Properties=species:S:1:pos:R:3:Z:I:1 energy=-305.57888878214976 field_type=dipole dipole="0.000000 0.000000 0.000000" charge=0
C	-2.649640	-0.636629	0.002980	6
C	-1.156440	-0.608259	0.003580	6
C	-0.450610	0.530931	-0.002710	6
C	0.955390	0.530931	-0.002710	6
C	2.145550	0.530931	-0.002710	6
C	3.585360	0.543861	-0.002710	6
O	4.206160	1.596891	-0.002720	8
H	-3.002630	-1.672619	-0.019980	1
H	-3.050780	-0.127699	-0.878920	1
H	-3.049050	-0.167079	0.907150	1
H	-0.647070	-1.569289	0.009020	1
H	-0.958230	1.491921	-0.007550	1
H	4.071990	-0.443889	-0.002720	1
Es	-0.779982	1.172154	-0.005931	99
Es	-1.156524	-0.608334	0.003578	99
Es	4.540072	1.585026	-0.002491	99
Es	3.960941	1.207097	0.240221	99
Es	-2.903755	-0.291388	-0.576884	99
Es	3.585228	0.543843	-0.002711	99
Es	0.279578	0.532173	-0.002236	99
Es	3.962375	1.209118	-0.245955	99
Es	-2.902259	-0.317072	0.597969	99
Es	-0.734786	0.002100	-0.313254	99
Es	-0.450450	0.531015	-0.002716	99
Es	-1.895345	-0.617946	0.003027	99
Es	4.206033	1.596640	-0.002729	99
Es	1.543238	0.158847	-0.030423	99
Es	-0.735236	0.005208	0.313457	99
Es	-0.817175	-1.253052	0.007210	99
Es	-2.649579	-0.636632	0.002981	99
Es	1.624513	0.663161	0.285330	99
Es	2.145817	0.530924	-0.002715	99
Es	1.597016	0.746722	-0.262424	99
Es	4.009674	1.799104	-0.002669	99
Es	2.833174	0.528375	-0.003572	99
Es	3.904132	-0.128044	-0.002806	99
Es	0.955135	0.530925	-0.002709	99
Es	-2.893190	-1.341217	-0.012416	99
38
Properties=species:S:1:pos:R:3:Z:I:1 energy=-305.57888878214976 field_type=dipole dipole="0.000000 0.000000 0.000000" charge=0
C	-2.649640	-0.636629	0.002980	6
C	-1.156440	-0.608259	0.003580	6
C	-0.450610	0.530931	-0.002710	6
C	0.955390	0.530931	-0.002710	6
C	2.145550	0.530931	-0.002710	6
C	3.585360	0.543861	-0.002710	6
O	4.206160	1.596891	-0.002720	8
H	-3.002630	-1.672619	-0.019980	1
H	-3.050780	-0.127699	-0.878920	1
H	-3.049050	-0.167079	0.907150	1
H	-0.647070	-1.569289	0.009020	1
H	-0.958230	1.491921	-0.007550	1
H	4.071990	-0.443889	-0.002720	1
Es	4.543688	1.605943	-0.002269	99
Es	0.955132	0.530916	-0.002712	99
Es	-0.450448	0.531015	-0.002717	99
Es	-2.904613	-0.289940	-0.571338	99
Es	-0.778553	1.167895	-0.006871	99
Es	-2.897429	-0.321821	0.588430	99
Es	4.206048	1.596581	-0.002721	99
Es	2.832766	0.530427	-0.000962	99
Es	2.145823	0.530939	-0.002704	99
Es	-2.898925	-1.340960	-0.010088	99
Es	3.903593	-0.126049	-0.002112	99
Es	-1.894709	-0.617017	0.004391	99
Es	1.545823	0.161559	0.062033	99
Es	0.281182	0.530046	-0.003084	99
Es	-2.649579	-0.636632	0.002980	99
Es	3.953302	1.215276	-0.248682	99
Es	4.025037	1.763190	-0.002931	99
Es	1.553130	0.867009	0.125644	99
Es	3.952046	1.215242	0.242526	99
Es	-0.735326	0.006252	0.313978	99
Es	-1.156523	-0.608334	0.003586	99
Es	3.585229	0.543842	-0.002710	99
Es	-0.818870	-1.248628	0.007886	99
Es	-0.734845	0.001234	-0.313634	99
Es	1.665668	0.540760	-0.196788	99
38
Properties=species:S:1:pos:R:3:Z:I:1 energy=-305.57888878214976 field_type=dipole dipole="0.000000 0.000000 0.000000" charge=0
C	-2.649640	-0.636629	0.002980	6
C	-1.156440	-0.608259	0.003580	6
C	-0.450610	0.530931	-0.002710	6
C	0.955390	0.530931	-0.002710	6
C	2.145550	0.530931	-0.002710	6
C	3.585360	0.543861	-0.002710	6
O	4.206160	1.596891	-0.002720	8
H	-3.002630	-1.672619	-0.019980	1
H	-3.050780	-0.127699	-0.878920	1
H	-3.049050	-0.167079	0.907150	1
H	-0.647070	-1.569289	0.009020	1
H	-0.958230	1.491921	-0.007550	1
H	4.071990	-0.443889	-0.002720	1
Es	-1.156522	-0.608334	0.003580	99
Es	4.206000	1.596578	-0.002723	99
Es	0.281837	0.530112	-0.002730	99
Es	4.543797	1.615466	-0.003227	99
Es	1.543931	0.892551	0.001357	99
Es	3.945044	1.221874	-0.250273	99
Es	-0.820851	-1.245042	0.007391	99
Es	1.677163	0.520553	-0.010814	99
Es	4.040455	1.738211	-0.003180	99
Es	-0.737126	0.000283	-0.314615	99
Es	-2.897024	-0.320769	0.583939	99
Es	-2.649578	-0.636630	0.002980	99
Es	2.832620	0.530697	-0.002879	99
Es	-0.776707	1.164272	-0.006242	99
Es	-2.899926	-0.294258	-0.564092	99
Es	-0.450448	0.531014	-0.002711	99
Es	2.145824	0.530940	-0.002707	99
Es	3.945602	1.223356	0.245581	99
Es	1.543419	0.156754	0.001519	99
Es	3.903000	-0.124642	-0.002553	99
Es	-1.894476	-0.616757	0.003221	99
Es	0.955133	0.530887	-0.002710	99
Es	-2.904637	-1.339314	-0.011408	99
Es	3.585228	0.543843	-0.002705	99
Es	-0.733108	0.007101	0.315132	99
38
Properties=species:S:1:pos:R:3:Z:I:1 energy=-305.57888878214976 field_type=dipole dipole="0.000000 0.000000 0.000000" charge=0
C	-2.649640	-0.636629	0.002980	6
C	-1.156440	-0.608259	0.003580	6
C	-0.450610	0.530931	-0.002710	6
C	0.955390	0.530931	-0.002710	6
C	2.145550	0.530931	-0.002710	6
C	3.585360	0.543861	-0.002710	6
O	4.206160	1.596891	-0.002720	8
H	-3.002630	-1.672619	-0.019980	1
H	-3.050780	-0.127699	-0.878920	1
H	-3.049050	-0.167079	0.907150	1
H	-0.647070	-1.569289	0.009020	1
H	-0.958230	1.491921	-0.007550	1
H	4.071990	-0.443889	-0.002720	1
Es	-2.896205	-0.297973	-0.558634	99
Es	4.206054	1.596593	-0.002721	99
Es	0.955132	0.530891	-0.002709	99
Es	-0.775759	1.162386	-0.006713	99
Es	0.282126	0.530121	-0.002539	99
Es	-0.450447	0.531015	-0.002712	99
Es	-1.894538	-0.615939	0.003160	99
Es	3.905346	1.216420	-0.211918	99
Es	-2.649582	-0.636625	0.002991	99
Es	1.544062	0.891863	-0.001644	99
Es	3.585227	0.543844	-0.002714	99
Es	3.973265	1.243619	0.207470	99
Es	4.543735	1.619149	-0.006471	99
Es	2.145823	0.530946	-0.002719	99
Es	3.902884	-0.123976	-0.003166	99
Es	-1.156525	-0.608333	0.003582	99
Es	-0.744587	-0.000795	0.312035	99
Es	-2.895772	-0.320859	0.578372	99
Es	2.832492	0.530810	-0.003390	99
Es	-0.725566	0.007993	-0.311755	99
Es	-0.821931	-1.243084	0.007941	99
Es	1.677151	0.520505	-0.010016	99
Es	1.543263	0.157705	0.003986	99
Es	4.052698	1.719381	0.000405	99
Es	-2.909700	-1.336911	-0.010989	99
38
Properties=species:S:1:pos:R:3:Z:I:1 energy=-305.57888878214976 field_type=dipole dipole="0.000000 0.000000 0.000000" charge=0
C	-2.649640	-0.636629	0.002980	6
C	-1.156440	-0.608259	0.003580	6
C	-0.450610	0.530931	-0.002710	6
C	0.955390	0.530931	-0.002710	6
C	2.145550	0.530931	-0.002710	6
C	3.585360	0.543861	-0.002710	6
O	4.206160	1.596891	-0.002720	8
H	-3.002630	-1.672619	-0.019980	1
H	-3.050780	-0.127699	-0.878920	1
H	-3.049050	-0.167079	0.907150	1
H	-0.647070	-1.569289	0.009020	1
H	-0.958230	1.491921	-0.007550	1
H	4.071990	-0.443889	-0.002720	1
Es	1.543106	0.158207	-0.002854	99
Es	-2.911070	-1.335943	-0.011173	99
Es	3.870331	1.219627	0.074355	99
Es	-0.450450	0.531013	-0.002690	99
Es	0.955131	0.530900	-0.002709	99
Es	-0.734072	0.006061	0.318015	99
Es	3.994871	1.259511	-0.081389	99
Es	4.542992	1.623917	-0.000209	99
Es	1.677162	0.520609	-0.007618	99
Es	-1.156526	-0.608333	0.003578	99
Es	-0.736286	0.000834	-0.318306	99
Es	2.832412	0.530917	-0.002243	99
Es	-1.894406	-0.616891	0.003394	99
Es	1.544231	0.891166	0.002139	99
Es	-2.649579	-0.636628	0.002986	99
Es	3.585227	0.543843	-0.002705	99
Es	-2.897804	-0.295263	-0.557569	99
Es	3.902965	-0.123587	-0.002275	99
Es	-0.773527	1.159692	-0.005695	99
Es	-0.823922	-1.240202	0.007109	99
Es	4.066799	1.695459	-0.004034	99
Es	-2.892895	-0.324463	0.576775	99
Es	0.282098	0.530736	-0.002321	99
Es	4.206039	1.596611	-0.002717	99
Es	2.145824	0.530950	-0.002712	99
38
Properties=species:S:1:pos:R:3:Z:I:1 energy=-305.57888878214976 field_type=dipole dipole="0.000000 0.000000 0.000000" charge=0
C	-2.649640	-0.636629	0.002980	6
C	-1.156440	-0.608259	0.003580	6
C	-0.450610	0.530931	-0.002710	6
C	0.955390	0.530931	-0.002710	6
C	2.145550	0.530931	-0.002710	6
C	3.585360	0.543861	-0.002710	6
O	4.206160	1.596891	-0.002720	8
H	-3.002630	-1.672619	-0.019980	1
H	-3.050780	-0.127699	-0.878920	1
H	-3.049050	-0.167079	0.907150	1
H	-0.647070	-1.569289	0.009020	1
H	-0.958230	1.491921	-0.007550	1
H	4.071990	-0.443889	-0.002720	1
Es	0.282231	0.530683	-0.002778	99
Es	-2.894493	-0.299169	-0.552961	99
Es	-1.894542	-0.615971	0.003044	99
Es	-0.773202	1.158859	-0.006158	99
Es	-2.649582	-0.636630	0.002977	99
Es	0.955131	0.530897	-0.002711	99
Es	1.543070	0.158559	-0.000107	99
Es	4.073566	1.682680	-0.003221	99
Es	3.585227	0.543843	-0.002709	99
Es	-0.824324	-1.239385	0.007193	99
Es	-2.915330	-1.332874	-0.010453	99
Es	4.542532	1.626249	-0.003624	99
Es	-0.450445	0.531014	-0.002705	99
Es	3.997485	1.261205	-0.014502	99
Es	1.677168	0.520569	-0.003794	99
Es	-2.891853	-0.324752	0.572183	99
Es	4.206028	1.596563	-0.002715	99
Es	2.145824	0.530946	-0.002709	99
Es	-1.156527	-0.608333	0.003580	99
Es	3.861690	1.228169	0.010090	99
Es	-0.741513	-0.002914	-0.315897	99
Es	-0.728805	0.009772	0.316593	99
Es	2.832384	0.530951	-0.003098	99
Es	3.902691	-0.123162	-0.002468	99
Es	1.544238	0.890977	-0.003916	99
