47
Properties=species:S:1:pos:R:3:Z:I:1 energy=-309.14625913849886 field_type=dipole dipole="0.000000 0.000000 0.000000" charge=0
C	-0.267787	-1.617873	1.260355	6
C	-0.282377	-0.851483	-0.042825	6
C	-0.851877	-1.415293	-1.124585	6
C	0.376603	0.529407	-0.027805	6
C	0.448223	1.231607	-1.392775	6
C	-0.307387	1.470547	0.971035	6
O	1.728073	0.352757	0.407915	8
H	0.752393	-1.714753	1.644565	1
H	-0.665158	-2.632513	1.144715	1
H	-0.881477	-1.114563	2.013355	1
H	-1.303677	-2.402663	-1.075525	1
H	-0.898627	-0.923713	-2.090305	1
H	0.992103	0.623347	-2.125235	1
H	1.005123	2.173337	-1.315265	1
H	-0.547037	1.457687	-1.790215	1
H	-0.219247	1.103877	1.999755	1
H	-1.368717	1.606007	0.736975	1
H	0.173533	2.456197	0.968725	1
H	2.117322	-0.331913	-0.162865	1
Es	1.921651	-0.016998	0.088004	99
Es	0.026075	0.989571	0.476176	99
Es	-0.885179	-1.082846	-1.781570	99
Es	-0.270233	-1.227420	0.610164	99
Es	0.019715	2.136383	0.957544	99
Es	-0.277650	-1.271926	-0.690887	99
Es	-0.859999	-1.002663	-0.524039	99
Es	0.376783	0.529357	-0.027740	99
Es	1.871803	0.617071	0.346790	99
Es	0.820873	1.870313	-1.329846	99
Es	-0.252500	1.212210	1.664494	99
Es	-0.307386	1.470526	0.971010	99
Es	-0.681843	-1.269714	1.761188	99
Es	1.219672	0.397933	0.229622	99
Es	0.031103	-0.168749	-0.046179	99
Es	0.816526	0.807306	-1.888813	99
Es	-1.158531	-2.086714	-1.093014	99
Es	1.727915	0.352641	0.407653	99
Es	0.396072	0.872316	-0.728098	99
Es	0.448211	1.231592	-1.392773	99
Es	-0.541280	-2.305228	1.171760	99
Es	-0.851910	-1.415326	-1.124663	99
Es	0.417288	-1.679124	1.513037	99
Es	-0.282333	-0.851435	-0.042714	99
Es	1.715723	0.230752	0.690219	99
Es	-1.027996	1.556209	0.803559	99
Es	-0.267794	-1.617844	1.260312	99
Es	-0.233022	1.381398	-1.661207	99
47
Properties=species:S:1:pos:R:3:Z:I:1 energy=-309.14625913849886 field_type=dipole dipole="0.000000 0.000000 0.000000" charge=0
C	-0.267787	-1.617873	1.260355	6
C	-0.282377	-0.851483	-0.042825	6
C	-0.851877	-1.415293	-1.124585	6
C	0.376603	0.529407	-0.027805	6
C	0.448223	1.231607	-1.392775	6
C	-0.307387	1.470547	0.971035	6
O	1.728073	0.352757	0.407915	8
H	0.752393	-1.714753	1.644565	1
H	-0.665158	-2.632513	1.144715	1
H	-0.881477	-1.114563	2.013355	1
H	-1.303677	-2.402663	-1.075525	1
H	-0.898627	-0.923713	-2.090305	1
H	0.992103	0.623347	-2.125235	1
H	1.005123	2.173337	-1.315265	1
H	-0.547037	1.457687	-1.790215	1
H	-0.219247	1.103877	1.999755	1
H	-1.368717	1.606007	0.736975	1
H	0.173533	2.456197	0.968725	1
H	2.117322	-0.331913	-0.162865	1
Es	1.922512	-0.016963	0.087467	99
Es	-0.233405	1.381137	-1.660584	99
Es	1.868920	0.615036	0.343941	99
Es	0.821048	1.870703	-1.329219	99
Es	0.031290	-0.169046	-0.046088	99
Es	-0.270398	-1.227295	0.610656	99
Es	0.816678	0.806445	-1.888900	99
Es	1.219421	0.397619	0.230285	99
Es	0.019360	2.136007	0.957805	99
Es	-0.851915	-1.415328	-1.124666	99
Es	-0.252306	1.212719	1.664311	99
Es	1.727966	0.352581	0.407688	99
Es	-1.028159	1.556523	0.804059	99
Es	-0.541919	-2.305329	1.171184	99
Es	-0.282330	-0.851439	-0.042711	99
Es	-0.885008	-1.083543	-1.781114	99
Es	0.376785	0.529357	-0.027740	99
Es	0.396341	0.872564	-0.728669	99
Es	0.448211	1.231591	-1.392774	99
Es	-0.681791	-1.269034	1.760934	99
Es	-0.307386	1.470527	0.971010	99
Es	0.025923	0.989588	0.475782	99
Es	0.418128	-1.679003	1.512646	99
Es	-1.158081	-2.086577	-1.093690	99
Es	1.717950	0.233253	0.692916	99
Es	-0.862177	-1.001880	-0.523386	99
Es	-0.276110	-1.272781	-0.691467	99
Es	-0.267793	-1.617843	1.260312	99
47
Properties=species:S:1:pos:R:3:Z:I:1 energy=-309.14625913849886 field_type=dipole dipole="0.000000 0.000000 0.000000" charge=0
C	-0.267787	-1.617873	1.260355	6
C	-0.282377	-0.851483	-0.042825	6
C	-0.851877	-1.415293	-1.124585	6
C	0.376603	0.529407	-0.027805	6
C	0.448223	1.231607	-1.392775	6
C	-0.307387	1.470547	0.971035	6
O	1.728073	0.352757	0.407915	8
H	0.752393	-1.714753	1.644565	1
H	-0.665158	-2.632513	1.144715	1
H	-0.881477	-1.114563	2.013355	1
H	-1.303677	-2.402663	-1.075525	1
H	-0.898627	-0.923713	-2.090305	1
H	0.992103	0.623347	-2.125235	1
H	1.005123	2.173337	-1.315265	1
H	-0.547037	1.457687	-1.790215	1
H	-0.219247	1.103877	1.999755	1
H	-1.368717	1.606007	0.736975	1
H	0.173533	2.456197	0.968725	1
H	2.117322	-0.331913	-0.162865	1
Es	-1.028193	1.556792	0.804395	99
Es	-0.252260	1.212854	1.664118	99
Es	-0.267793	-1.617843	1.260312	99
Es	-0.681836	-1.268754	1.760305	99
Es	1.726432	0.243773	0.704038	99
Es	1.861099	0.606942	0.331097	99
Es	1.922112	-0.017913	0.088293	99
Es	0.025652	0.989812	0.475386	99
Es	-0.884922	-1.083952	-1.780671	99
Es	-0.270361	-1.227207	0.611197	99
Es	0.019373	2.135862	0.958022	99
Es	0.396519	0.872568	-0.729404	99
Es	0.816725	0.805853	-1.888658	99
Es	0.376790	0.529353	-0.027741	99
Es	0.448211	1.231592	-1.392773	99
Es	0.031533	-0.169215	-0.045929	99
Es	1.727905	0.352550	0.407694	99
Es	0.821407	1.871122	-1.328530	99
Es	0.418703	-1.678379	1.512686	99
Es	-0.863589	-1.001467	-0.523015	99
Es	1.219161	0.396314	0.231241	99
Es	-0.542323	-2.305822	1.170459	99
Es	-1.157940	-2.086583	-1.094114	99
Es	-0.307386	1.470526	0.971011	99
Es	-0.275271	-1.273245	-0.691750	99
Es	-0.851902	-1.415333	-1.124668	99
Es	-0.282325	-0.851432	-0.042709	99
Es	-0.233766	1.380821	-1.660301	99
47
Properties=species:S:1:pos:R:3:Z:I:1 energy=-309.14625913849886 field_type=dipole dipole="0.000000 0.000000 0.000000" charge=0
C	-0.267787	-1.617873	1.260355	6
C	-0.282377	-0.851483	-0.042825	6
C	-0.851877	-1.415293	-1.124585	6
C	0.376603	0.529407	-0.027805	6
C	0.448223	1.231607	-1.392775	6
C	-0.307387	1.470547	0.971035	6
O	1.728073	0.352757	0.407915	8
H	0.752393	-1.714753	1.644565	1
H	-0.665158	-2.632513	1.144715	1
H	-0.881477	-1.114563	2.013355	1
H	-1.303677	-2.402663	-1.075525	1
H	-0.898627	-0.923713	-2.090305	1
H	0.992103	0.623347	-2.125235	1
H	1.005123	2.173337	-1.315265	1
H	-0.547037	1.457687	-1.790215	1
H	-0.219247	1.103877	1.999755	1
H	-1.368717	1.606007	0.736975	1
H	0.173533	2.456197	0.968725	1
H	2.117322	-0.331913	-0.162865	1
Es	0.448212	1.231593	-1.392775	99
Es	-0.267793	-1.617843	1.260312	99
Es	0.418854	-1.677796	1.512905	99
Es	0.396608	0.872581	-0.729907	99
Es	-0.681578	-1.268460	1.759550	99
Es	0.821926	1.871893	-1.327861	99
Es	0.019672	2.136338	0.958217	99
Es	-0.884703	-1.084032	-1.780111	99
Es	1.218028	0.393539	0.234480	99
Es	0.816395	0.805475	-1.888409	99
Es	0.031592	-0.169396	-0.046026	99
Es	-0.282324	-0.851430	-0.042710	99
Es	1.920406	-0.021809	0.091583	99
Es	1.746551	0.272359	0.721188	99
Es	1.843732	0.585204	0.307513	99
Es	-0.851918	-1.415328	-1.124666	99
Es	-0.542943	-2.306522	1.169784	99
Es	-0.307391	1.470529	0.971013	99
Es	1.727896	0.352573	0.407632	99
Es	-0.270243	-1.227062	0.611702	99
Es	0.025307	0.989773	0.475042	99
Es	-0.863947	-1.001369	-0.522909	99
Es	-0.233813	1.380289	-1.659992	99
Es	-0.252415	1.212804	1.663651	99
Es	0.376785	0.529355	-0.027740	99
Es	-1.158088	-2.086960	-1.094490	99
Es	-0.275080	-1.273445	-0.691854	99
Es	-1.027973	1.556735	0.804866	99
47
Properties=species:S:1:pos:R:3:Z:I:1 energy=-309.14625913849886 field_type=dipole dipole="0.000000 0.000000 0.000000" charge=0
C	-0.267787	-1.617873	1.260355	6
C	-0.282377	-0.851483	-0.042825	6
C	-0.851877	-1.415293	-1.124585	6
C	0.376603	0.529407	-0.027805	6
C	0.448223	1.231607	-1.392775	6
C	-0.307387	1.470547	0.971035	6
O	1.728073	0.352757	0.407915	8
H	0.752393	-1.714753	1.644565	1
H	-0.665158	-2.632513	1.144715	1
H	-0.881477	-1.114563	2.013355	1
H	-1.303677	-2.402663	-1.075525	1
H	-0.898627	-0.923713	-2.090305	1
H	0.992103	0.623347	-2.125235	1
H	1.005123	2.173337	-1.315265	1
H	-0.547037	1.457687	-1.790215	1
H	-0.219247	1.103877	1.999755	1
H	-1.368717	1.606007	0.736975	1
H	0.173533	2.456197	0.968725	1
H	2.117322	-0.331913	-0.162865	1
Es	-0.233301	1.379980	-1.659776	99
Es	0.031702	-0.169426	-0.046095	99
Es	-1.027588	1.556356	0.804867	99
Es	-0.252846	1.212333	1.663272	99
Es	-0.275766	-1.273365	-0.691572	99
Es	-0.282322	-0.851434	-0.042711	99
Es	0.815721	0.805277	-1.888343	99
Es	-0.851915	-1.415331	-1.124669	99
Es	1.773152	0.315115	0.732055	99
Es	0.448209	1.231588	-1.392769	99
Es	-0.267792	-1.617845	1.260316	99
Es	1.819338	0.549965	0.289436	99
Es	0.418731	-1.677316	1.513001	99
Es	1.919033	-0.025810	0.095746	99
Es	-0.680942	-1.268595	1.759112	99
Es	0.025245	0.989754	0.474879	99
Es	1.217029	0.390105	0.237816	99
Es	-0.543435	-2.307189	1.169518	99
Es	-0.307384	1.470526	0.971009	99
Es	-0.270381	-1.226805	0.611943	99
Es	-1.158572	-2.087365	-1.094653	99
Es	-0.863467	-1.001437	-0.523121	99
Es	0.376785	0.529357	-0.027739	99
Es	1.727948	0.352704	0.407490	99
Es	0.396331	0.872576	-0.730112	99
Es	0.020020	2.137150	0.958504	99
Es	0.822479	1.872612	-1.327636	99
Es	-0.884255	-1.083892	-1.779775	99
47
Properties=species:S:1:pos:R:3:Z:I:1 energy=-309.14625913849886 field_type=dipole dipole="0.000000 0.000000 0.000000" charge=0
C	-0.267787	-1.617873	1.260355	6
C	-0.282377	-0.851483	-0.042825	6
C	-0.851877	-1.415293	-1.124585	6
C	0.376603	0.529407	-0.027805	6
C	0.448223	1.231607	-1.392775	6
C	-0.307387	1.470547	0.971035	6
O	1.728073	0.352757	0.407915	8
H	0.752393	-1.714753	1.644565	1
H	-0.665158	-2.632513	1.144715	1
H	-0.881477	-1.114563	2.013355	1
H	-1.303677	-2.402663	-1.075525	1
H	-0.898627	-0.923713	-2.090305	1
H	0.992103	0.623347	-2.125235	1
H	1.005123	2.173337	-1.315265	1
H	-0.547037	1.457687	-1.790215	1
H	-0.219247	1.103877	1.999755	1
H	-1.368717	1.606007	0.736975	1
H	0.173533	2.456197	0.968725	1
H	2.117322	-0.331913	-0.162865	1
Es	-0.267792	-1.617840	1.260312	99
Es	-0.851918	-1.415331	-1.124669	99
Es	0.396312	0.872530	-0.730205	99
Es	-0.233057	1.379539	-1.659885	99
Es	0.031645	-0.169405	-0.046007	99
Es	0.418535	-1.676961	1.513411	99
Es	-0.862892	-1.001542	-0.523297	99
Es	1.789893	0.342599	0.732768	99
Es	-1.158765	-2.087614	-1.094658	99
Es	0.020135	2.137642	0.958377	99
Es	0.376786	0.529357	-0.027739	99
Es	-0.884036	-1.083778	-1.779696	99
Es	-0.543691	-2.307590	1.169630	99
Es	0.815512	0.805393	-1.888098	99
Es	1.918211	-0.027002	0.097079	99
Es	1.803843	0.526416	0.284796	99
Es	-0.276238	-1.273264	-0.691460	99
Es	-0.253130	1.212051	1.663403	99
Es	1.727812	0.352372	0.407767	99
Es	1.216539	0.387789	0.240207	99
Es	-1.026934	1.556233	0.805008	99
Es	-0.282320	-0.851435	-0.042715	99
Es	-0.270553	-1.226570	0.611904	99
Es	-0.680527	-1.268853	1.758586	99
Es	0.448212	1.231589	-1.392772	99
Es	0.822566	1.873105	-1.327699	99
Es	-0.307385	1.470526	0.971009	99
Es	0.024991	0.989637	0.474631	99
47
Properties=species:S:1:pos:R:3:Z:I:1 energy=-309.14625913849886 field_type=dipole dipole="0.000000 0.000000 0.000000" charge=0
C	-0.267787	-1.617873	1.260355	6
C	-0.282377	-0.851483	-0.042825	6
C	-0.851877	-1.415293	-1.124585	6
C	0.376603	0.529407	-0.027805	6
C	0.448223	1.231607	-1.392775	6
C	-0.307387	1.470547	0.971035	6
O	1.728073	0.352757	0.407915	8
H	0.752393	-1.714753	1.644565	1
H	-0.665158	-2.632513	1.144715	1
H	-0.881477	-1.114563	2.013355	1
H	-1.303677	-2.402663	-1.075525	1
H	-0.898627	-0.923713	-2.090305	1
H	0.992103	0.623347	-2.125235	1
H	1.005123	2.173337	-1.315265	1
H	-0.547037	1.457687	-1.790215	1
H	-0.219247	1.103877	1.999755	1
H	-1.368717	1.606007	0.736975	1
H	0.173533	2.456197	0.968725	1
H	2.117322	-0.331913	-0.162865	1
Es	-0.851913	-1.415331	-1.124669	99
Es	0.017706	2.134937	0.955544	99
Es	0.448211	1.231592	-1.392773	99
Es	0.815484	0.806885	-1.888965	99
Es	0.376784	0.529358	-0.027740	99
Es	-0.861524	-1.002137	-0.523607	99
Es	1.727804	0.352334	0.407836	99
Es	1.932210	0.006173	0.070277	99
Es	-0.252065	1.212496	1.668254	99
Es	-0.277948	-1.272551	-0.690907	99
Es	0.031348	-0.169571	-0.045749	99
Es	-0.267792	-1.617841	1.260312	99
Es	-0.680269	-1.270047	1.759818	99
Es	-1.156825	-2.085759	-1.092606	99
Es	-0.307386	1.470525	0.971011	99
Es	-0.270544	-1.226111	0.610717	99
Es	1.226969	0.416497	0.218196	99
Es	0.395882	0.871777	-0.728764	99
Es	0.821245	1.871450	-1.330294	99
Es	-0.231902	1.380710	-1.660650	99
Es	-0.282330	-0.851431	-0.042706	99
Es	1.895367	0.583936	0.565359	99
Es	0.417078	-1.678360	1.513882	99
Es	-1.025096	1.557347	0.804110	99
Es	1.673504	0.223107	0.501137	99
Es	-0.884471	-1.083697	-1.783480	99
Es	0.024538	0.989361	0.474215	99
Es	-0.542312	-2.306059	1.172233	99
47
Properties=species:S:1:pos:R:3:Z:I:1 energy=-309.14625913849886 field_type=dipole dipole="0.000000 0.000000 0.000000" charge=0
C	-0.267787	-1.617873	1.260355	6
C	-0.282377	-0.851483	-0.042825	6
C	-0.851877	-1.415293	-1.124585	6
C	0.376603	0.529407	-0.027805	6
C	0.448223	1.231607	-1.392775	6
C	-0.307387	1.470547	0.971035	6
O	1.728073	0.352757	0.407915	8
H	0.752393	-1.714753	1.644565	1
H	-0.665158	-2.632513	1.144715	1
H	-0.881477	-1.114563	2.013355	1
H	-1.303677	-2.402663	-1.075525	1
H	-0.898627	-0.923713	-2.090305	1
H	0.992103	0.623347	-2.125235	1
H	1.005123	2.173337	-1.315265	1
H	-0.547037	1.457687	-1.790215	1
H	-0.219247	1.103877	1.999755	1
H	-1.368717	1.606007	0.736975	1
H	0.173533	2.456197	0.968725	1
H	2.117322	-0.331913	-0.162865	1
Es	1.727984	0.352765	0.407403	99
Es	-0.542416	-2.306482	1.172309	99
Es	0.017929	2.135544	0.955532	99
Es	-0.252309	1.212024	1.668167	99
Es	0.031442	-0.169621	-0.045711	99
Es	-0.307387	1.470527	0.971012	99
Es	-0.231512	1.380352	-1.660615	99
Es	0.395777	0.871758	-0.728723	99
Es	0.416847	-1.677983	1.514274	99
Es	1.227081	0.417244	0.218084	99
Es	0.821389	1.871970	-1.330456	99
Es	-1.157196	-2.086013	-1.092505	99
Es	-0.282323	-0.851433	-0.042709	99
Es	0.376785	0.529356	-0.027739	99
Es	-0.860824	-1.002184	-0.523903	99
Es	-0.270763	-1.225891	0.610675	99
Es	1.891995	0.570291	0.586671	99
Es	-0.884223	-1.083544	-1.783424	99
Es	1.676185	0.235915	0.480554	99
Es	-0.680013	-1.270312	1.759342	99
Es	-1.024553	1.557170	0.804339	99
Es	0.024202	0.989276	0.473858	99
Es	-0.851925	-1.415325	-1.124665	99
Es	-0.278449	-1.272525	-0.690711	99
Es	0.448211	1.231591	-1.392773	99
Es	-0.267794	-1.617844	1.260313	99
Es	1.932472	0.006037	0.070243	99
Es	0.815143	0.806926	-1.888852	99
