41
Properties=species:S:1:pos:R:3:Z:I:1 energy=-306.7663868373608 field_type=dipole dipole="0.000000 0.000000 0.000000" charge=0
C	-1.136334	0.444184	0.890331	6
C	0.328886	0.314554	0.476491	6
C	0.495216	-0.188166	-0.961269	6
C	0.033006	-1.577786	-1.117969	6
C	-0.345184	-2.709466	-1.252810	6
C	0.990336	1.666874	0.649601	6
O	1.572086	2.277624	-0.241189	8
H	-1.221544	0.852124	1.903790	1
H	-1.642324	-0.526216	0.881471	1
H	-1.678634	1.120134	0.219721	1
H	0.834956	-0.369716	1.169341	1
H	1.551976	-0.138696	-1.252939	1
H	-0.047984	0.462764	-1.657529	1
H	-0.681724	-3.713046	-1.377970	1
H	0.947256	2.084834	1.670931	1
Es	1.575053	1.940702	0.142226	99
Es	-0.564598	-3.364478	-1.333417	99
Es	1.690896	2.549790	-0.145880	99
Es	0.949144	1.941764	1.355648	99
Es	0.403661	0.049126	-0.247456	99
Es	0.657807	0.992541	0.555346	99
Es	-0.390662	0.389263	0.679809	99
Es	-1.136265	0.444197	0.890325	99
Es	-0.497512	-2.057277	-1.104821	99
Es	1.142062	2.170692	0.021749	99
Es	-0.345263	-2.709706	-1.252834	99
Es	-1.494599	0.905488	0.430250	99
Es	0.495148	-0.188300	-0.961221	99
Es	-1.468519	-0.208066	0.882572	99
Es	0.063014	-2.261227	-0.919861	99
Es	1.193124	-0.175714	-1.149056	99
Es	1.571935	2.277456	-0.240970	99
Es	-1.182691	0.724699	1.579720	99
Es	0.119018	0.231485	-1.419760	99
Es	0.678227	-0.131454	0.945735	99
Es	0.033091	-1.577528	-1.117938	99
Es	0.247236	-0.912664	-1.033989	99
Es	-0.047039	-2.150276	-1.524905	99
Es	1.565592	2.121934	-0.512070	99
Es	0.990329	1.666867	0.649594	99
Es	0.328875	0.314599	0.476464	99
41
Properties=species:S:1:pos:R:3:Z:I:1 energy=-306.7663868373608 field_type=dipole dipole="0.000000 0.000000 0.000000" charge=0
C	-1.136334	0.444184	0.890331	6
C	0.328886	0.314554	0.476491	6
C	0.495216	-0.188166	-0.961269	6
C	0.033006	-1.577786	-1.117969	6
C	-0.345184	-2.709466	-1.252810	6
C	0.990336	1.666874	0.649601	6
O	1.572086	2.277624	-0.241189	8
H	-1.221544	0.852124	1.903790	1
H	-1.642324	-0.526216	0.881471	1
H	-1.678634	1.120134	0.219721	1
H	0.834956	-0.369716	1.169341	1
H	1.551976	-0.138696	-1.252939	1
H	-0.047984	0.462764	-1.657529	1
H	-0.681724	-3.713046	-1.377970	1
H	0.947256	2.084834	1.670931	1
Es	1.571942	2.277482	-0.240945	99
Es	-1.181309	0.726040	1.577507	99
Es	1.572050	1.939105	0.139819	99
Es	-0.252662	-2.161729	-0.833828	99
Es	-0.566591	-3.365783	-1.330232	99
Es	0.033093	-1.577514	-1.117946	99
Es	0.659196	0.995093	0.556094	99
Es	0.247446	-0.914848	-1.037738	99
Es	0.159822	-2.253772	-1.289781	99
Es	-0.390145	0.389194	0.679616	99
Es	1.554899	2.114835	-0.495319	99
Es	-1.136267	0.444198	0.890325	99
Es	1.191858	-0.173817	-1.148515	99
Es	-0.345263	-2.709705	-1.252831	99
Es	0.949518	1.941815	1.355079	99
Es	-0.388354	-2.053133	-1.425796	99
Es	-1.492331	0.905980	0.431831	99
Es	0.120953	0.231733	-1.417946	99
Es	0.403407	0.049381	-0.248131	99
Es	0.675864	-0.132073	0.944738	99
Es	0.495152	-0.188300	-0.961222	99
Es	1.698656	2.565093	-0.158064	99
Es	1.147483	2.165064	0.019889	99
Es	0.328875	0.314600	0.476464	99
Es	0.990335	1.666866	0.649594	99
Es	-1.470560	-0.211891	0.882598	99
41
Properties=species:S:1:pos:R:3:Z:I:1 energy=-306.7663868373608 field_type=dipole dipole="0.000000 0.000000 0.000000" charge=0
C	-1.136334	0.444184	0.890331	6
C	0.328886	0.314554	0.476491	6
C	0.495216	-0.188166	-0.961269	6
C	0.033006	-1.577786	-1.117969	6
C	-0.345184	-2.709466	-1.252810	6
C	0.990336	1.666874	0.649601	6
O	1.572086	2.277624	-0.241189	8
H	-1.221544	0.852124	1.903790	1
H	-1.642324	-0.526216	0.881471	1
H	-1.678634	1.120134	0.219721	1
H	0.834956	-0.369716	1.169341	1
H	1.551976	-0.138696	-1.252939	1
H	-0.047984	0.462764	-1.657529	1
H	-0.681724	-3.713046	-1.377970	1
H	0.947256	2.084834	1.670931	1
Es	-0.345261	-2.709707	-1.252823	99
Es	-0.088146	-2.134707	-1.541735	99
Es	0.674465	-0.132303	0.944308	99
Es	0.033102	-1.577518	-1.117937	99
Es	0.495151	-0.188301	-0.961222	99
Es	-1.136267	0.444197	0.890324	99
Es	-1.180424	0.726979	1.576234	99
Es	0.990332	1.666866	0.649597	99
Es	-0.389847	0.389512	0.679457	99
Es	1.548802	2.112607	-0.484383	99
Es	1.571981	2.277488	-0.241009	99
Es	-0.471943	-2.071274	-1.041273	99
Es	1.570074	1.937631	0.138002	99
Es	0.328875	0.314600	0.476466	99
Es	1.190852	-0.172807	-1.148546	99
Es	0.659840	0.996278	0.556445	99
Es	1.151131	2.162584	0.019012	99
Es	-0.567119	-3.366429	-1.327125	99
Es	0.122138	0.231320	-1.416860	99
Es	-1.491123	0.905838	0.432657	99
Es	0.949739	1.941901	1.354768	99
Es	-1.471308	-0.213840	0.882817	99
Es	0.078839	-2.262304	-0.969060	99
Es	0.403125	0.049770	-0.248280	99
Es	0.247357	-0.916151	-1.038444	99
Es	1.702701	2.571682	-0.166131	99
41
Properties=species:S:1:pos:R:3:Z:I:1 energy=-306.7663868373608 field_type=dipole dipole="0.000000 0.000000 0.000000" charge=0
C	-1.136334	0.444184	0.890331	6
C	0.328886	0.314554	0.476491	6
C	0.495216	-0.188166	-0.961269	6
C	0.033006	-1.577786	-1.117969	6
C	-0.345184	-2.709466	-1.252810	6
C	0.990336	1.666874	0.649601	6
O	1.572086	2.277624	-0.241189	8
H	-1.221544	0.852124	1.903790	1
H	-1.642324	-0.526216	0.881471	1
H	-1.678634	1.120134	0.219721	1
H	0.834956	-0.369716	1.169341	1
H	1.551976	-0.138696	-1.252939	1
H	-0.047984	0.462764	-1.657529	1
H	-0.681724	-3.713046	-1.377970	1
H	0.947256	2.084834	1.670931	1
Es	1.153468	2.161292	0.017480	99
Es	0.095699	-2.263848	-1.025587	99
Es	1.545413	2.111384	-0.475010	99
Es	0.122771	0.231040	-1.416025	99
Es	1.704751	2.575620	-0.173887	99
Es	0.033102	-1.577513	-1.117950	99
Es	-1.490190	0.905926	0.432939	99
Es	-0.389530	0.389540	0.679496	99
Es	-0.567515	-3.366623	-1.325914	99
Es	-0.446091	-2.084788	-0.979565	99
Es	-0.345248	-2.709713	-1.252832	99
Es	1.190373	-0.172053	-1.148526	99
Es	0.673420	-0.132574	0.944090	99
Es	1.568923	1.936534	0.137974	99
Es	0.328876	0.314599	0.476464	99
Es	0.402836	0.049862	-0.248499	99
Es	1.571933	2.277471	-0.240937	99
Es	0.949938	1.941861	1.354494	99
Es	0.660132	0.997107	0.556661	99
Es	0.247822	-0.917032	-1.039608	99
Es	-1.471791	-0.214969	0.883139	99
Es	0.495151	-0.188301	-0.961223	99
Es	0.990323	1.666871	0.649592	99
Es	-0.131364	-2.119475	-1.546962	99
Es	-1.136268	0.444197	0.890325	99
Es	-1.179869	0.727498	1.575132	99
41
Properties=species:S:1:pos:R:3:Z:I:1 energy=-306.7663868373608 field_type=dipole dipole="0.000000 0.000000 0.000000" charge=0
C	-1.136334	0.444184	0.890331	6
C	0.328886	0.314554	0.476491	6
C	0.495216	-0.188166	-0.961269	6
C	0.033006	-1.577786	-1.117969	6
C	-0.345184	-2.709466	-1.252810	6
C	0.990336	1.666874	0.649601	6
O	1.572086	2.277624	-0.241189	8
H	-1.221544	0.852124	1.903790	1
H	-1.642324	-0.526216	0.881471	1
H	-1.678634	1.120134	0.219721	1
H	0.834956	-0.369716	1.169341	1
H	1.551976	-0.138696	-1.252939	1
H	-0.047984	0.462764	-1.657529	1
H	-0.681724	-3.713046	-1.377970	1
H	0.947256	2.084834	1.670931	1
Es	-1.136267	0.444197	0.890325	99
Es	0.328876	0.314602	0.476464	99
Es	0.064563	-2.195612	-1.470848	99
Es	0.495150	-0.188300	-0.961222	99
Es	1.153086	2.160592	0.015316	99
Es	1.568383	1.934539	0.137422	99
Es	0.673105	-0.132394	0.943708	99
Es	0.246276	-0.916984	-1.040570	99
Es	0.660320	0.997629	0.556494	99
Es	-0.568399	-3.366522	-1.325362	99
Es	1.707568	2.577311	-0.180710	99
Es	-1.179489	0.727548	1.574022	99
Es	0.949600	1.942044	1.354049	99
Es	1.543805	2.112468	-0.465239	99
Es	0.123027	0.230394	-1.415023	99
Es	-0.389426	0.389517	0.679129	99
Es	-0.439644	-2.062702	-1.250170	99
Es	0.990330	1.666866	0.649595	99
Es	-1.472279	-0.215609	0.883547	99
Es	0.402776	0.049935	-0.248555	99
Es	0.033102	-1.577513	-1.117946	99
Es	1.190545	-0.171163	-1.148838	99
Es	1.571913	2.277435	-0.240939	99
Es	-0.345266	-2.709710	-1.252823	99
Es	-0.104638	-2.210525	-0.830358	99
Es	-1.489952	0.905870	0.433791	99
41
Properties=species:S:1:pos:R:3:Z:I:1 energy=-306.7663868373608 field_type=dipole dipole="0.000000 0.000000 0.000000" charge=0
C	-1.136334	0.444184	0.890331	6
C	0.328886	0.314554	0.476491	6
C	0.495216	-0.188166	-0.961269	6
C	0.033006	-1.577786	-1.117969	6
C	-0.345184	-2.709466	-1.252810	6
C	0.990336	1.666874	0.649601	6
O	1.572086	2.277624	-0.241189	8
H	-1.221544	0.852124	1.903790	1
H	-1.642324	-0.526216	0.881471	1
H	-1.678634	1.120134	0.219721	1
H	0.834956	-0.369716	1.169341	1
H	1.551976	-0.138696	-1.252939	1
H	-0.047984	0.462764	-1.657529	1
H	-0.681724	-3.713046	-1.377970	1
H	0.947256	2.084834	1.670931	1
Es	-0.436267	-2.066464	-1.232252	99
Es	1.571932	2.277485	-0.240973	99
Es	1.541723	2.114083	-0.461165	99
Es	0.245904	-0.917300	-1.040818	99
Es	1.568296	1.932739	0.135479	99
Es	-1.136267	0.444196	0.890325	99
Es	-1.472632	-0.216103	0.883770	99
Es	-0.092775	-2.214188	-0.834603	99
Es	0.033099	-1.577512	-1.117944	99
Es	-0.388777	0.390051	0.678469	99
Es	0.328875	0.314600	0.476463	99
Es	1.154247	2.159697	0.015349	99
Es	0.672225	-0.132596	0.943787	99
Es	0.495151	-0.188300	-0.961222	99
Es	-1.489528	0.905404	0.434449	99
Es	0.949472	1.942109	1.353748	99
Es	1.708696	2.578409	-0.182669	99
Es	-1.179338	0.727937	1.573295	99
Es	0.402557	0.050064	-0.248884	99
Es	0.990332	1.666864	0.649596	99
Es	0.123230	0.229300	-1.413660	99
Es	1.190753	-0.170004	-1.149608	99
Es	-0.568386	-3.366657	-1.324463	99
Es	-0.345266	-2.709710	-1.252821	99
Es	0.660487	0.997987	0.556663	99
Es	0.049322	-2.188176	-1.485051	99
41
Properties=species:S:1:pos:R:3:Z:I:1 energy=-306.7663868373608 field_type=dipole dipole="0.000000 0.000000 0.000000" charge=0
C	-1.136334	0.444184	0.890331	6
C	0.328886	0.314554	0.476491	6
C	0.495216	-0.188166	-0.961269	6
C	0.033006	-1.577786	-1.117969	6
C	-0.345184	-2.709466	-1.252810	6
C	0.990336	1.666874	0.649601	6
O	1.572086	2.277624	-0.241189	8
H	-1.221544	0.852124	1.903790	1
H	-1.642324	-0.526216	0.881471	1
H	-1.678634	1.120134	0.219721	1
H	0.834956	-0.369716	1.169341	1
H	1.551976	-0.138696	-1.252939	1
H	-0.047984	0.462764	-1.657529	1
H	-0.681724	-3.713046	-1.377970	1
H	0.947256	2.084834	1.670931	1
Es	0.328874	0.314602	0.476464	99
Es	-0.388850	0.389987	0.678768	99
Es	1.571934	2.277489	-0.240941	99
Es	1.155555	2.159925	0.014337	99
Es	0.949812	1.941915	1.353634	99
Es	0.402573	0.050015	-0.249083	99
Es	-0.345265	-2.709712	-1.252819	99
Es	-1.472632	-0.216529	0.884071	99
Es	1.539315	2.116400	-0.454467	99
Es	1.568095	1.929504	0.134608	99
Es	-0.568657	-3.366658	-1.324719	99
Es	-0.135110	-2.200662	-0.823515	99
Es	0.672074	-0.132914	0.943698	99
Es	-1.489303	0.905913	0.434343	99
Es	-1.136267	0.444197	0.890326	99
Es	0.660476	0.998255	0.556566	99
Es	0.033099	-1.577510	-1.117945	99
Es	-1.178979	0.727746	1.572598	99
Es	0.990331	1.666865	0.649595	99
Es	1.190415	-0.169994	-1.149210	99
Es	0.067645	-2.196334	-1.469416	99
Es	0.246280	-0.917701	-1.041003	99
Es	0.123314	0.229782	-1.413679	99
Es	1.709663	2.579397	-0.187462	99
Es	0.495149	-0.188299	-0.961222	99
Es	-0.412475	-2.071764	-1.258266	99
41
Properties=species:S:1:pos:R:3:Z:I:1 energy=-306.7663868373608 field_type=dipole dipole="0.000000 0.000000 0.000000" charge=0
C	-1.136334	0.444184	0.890331	6
C	0.328886	0.314554	0.476491	6
C	0.495216	-0.188166	-0.961269	6
C	0.033006	-1.577786	-1.117969	6
C	-0.345184	-2.709466	-1.252810	6
C	0.990336	1.666874	0.649601	6
O	1.572086	2.277624	-0.241189	8
H	-1.221544	0.852124	1.903790	1
H	-1.642324	-0.526216	0.881471	1
H	-1.678634	1.120134	0.219721	1
H	0.834956	-0.369716	1.169341	1
H	1.551976	-0.138696	-1.252939	1
H	-0.047984	0.462764	-1.657529	1
H	-0.681724	-3.713046	-1.377970	1
H	0.947256	2.084834	1.670931	1
Es	0.328876	0.314597	0.476462	99
Es	-0.388484	0.390320	0.678619	99
Es	0.950462	1.941560	1.353624	99
Es	-1.488887	0.906278	0.434275	99
Es	-0.147044	-2.113343	-1.548256	99
Es	0.660651	0.998461	0.556643	99
Es	-1.178621	0.727693	1.572219	99
Es	0.671284	-0.133616	0.943946	99
Es	-0.568828	-3.366686	-1.324387	99
Es	-1.136265	0.444199	0.890322	99
Es	0.123629	0.230033	-1.413468	99
Es	0.033102	-1.577512	-1.117957	99
Es	1.571950	2.277495	-0.240951	99
Es	-0.345266	-2.709712	-1.252823	99
Es	0.068731	-2.251370	-1.086161	99
Es	1.156686	2.159910	0.012061	99
Es	0.495153	-0.188297	-0.961223	99
Es	1.565147	1.929314	0.135056	99
Es	0.402268	0.050024	-0.249333	99
Es	-1.472717	-0.216845	0.884107	99
Es	0.247701	-0.918517	-1.040583	99
Es	0.990334	1.666864	0.649596	99
Es	-0.403253	-2.103398	-0.917513	99
Es	1.709518	2.580107	-0.186372	99
Es	1.190245	-0.169940	-1.148902	99
Es	1.540695	2.116294	-0.453740	99
41
Properties=species:S:1:pos:R:3:Z:I:1 energy=-306.7663868373608 field_type=dipole dipole="0.000000 0.000000 0.000000" charge=0
C	-1.136334	0.444184	0.890331	6
C	0.328886	0.314554	0.476491	6
C	0.495216	-0.188166	-0.961269	6
C	0.033006	-1.577786	-1.117969	6
C	-0.345184	-2.709466	-1.252810	6
C	0.990336	1.666874	0.649601	6
O	1.572086	2.277624	-0.241189	8
H	-1.221544	0.852124	1.903790	1
H	-1.642324	-0.526216	0.881471	1
H	-1.678634	1.120134	0.219721	1
H	0.834956	-0.369716	1.169341	1
H	1.551976	-0.138696	-1.252939	1
H	-0.047984	0.462764	-1.657529	1
H	-0.681724	-3.713046	-1.377970	1
H	0.947256	2.084834	1.670931	1
Es	1.710357	2.580522	-0.188692	99
Es	0.950216	1.941658	1.353373	99
Es	0.123677	0.229813	-1.413173	99
Es	0.660576	0.998640	0.556529	99
Es	-0.569074	-3.366631	-1.324525	99
Es	0.069931	-2.197114	-1.467363	99
Es	-0.345274	-2.709710	-1.252821	99
Es	0.495149	-0.188299	-0.961223	99
Es	0.246372	-0.918175	-1.041112	99
Es	-1.136265	0.444198	0.890324	99
Es	-0.159344	-2.192640	-0.820137	99
Es	0.671264	-0.133473	0.943933	99
Es	0.990335	1.666863	0.649596	99
Es	-1.488948	0.906249	0.434664	99
Es	1.190329	-0.169580	-1.148918	99
Es	1.571950	2.277485	-0.240969	99
Es	-1.178668	0.727532	1.571525	99
Es	0.402400	0.049944	-0.249421	99
Es	1.539744	2.120165	-0.447625	99
Es	0.033099	-1.577511	-1.117948	99
Es	1.563503	1.924505	0.134102	99
Es	1.158567	2.160458	0.009352	99
Es	-0.388270	0.390404	0.678423	99
Es	0.328875	0.314601	0.476462	99
Es	-1.472824	-0.217040	0.884404	99
Es	-0.390610	-2.078951	-1.263500	99
41
Properties=species:S:1:pos:R:3:Z:I:1 energy=-306.7663868373608 field_type=dipole dipole="0.000000 0.000000 0.000000" charge=0
C	-1.136334	0.444184	0.890331	6
C	0.328886	0.314554	0.476491	6
C	0.495216	-0.188166	-0.961269	6
C	0.033006	-1.577786	-1.117969	6
C	-0.345184	-2.709466	-1.252810	6
C	0.990336	1.666874	0.649601	6
O	1.572086	2.277624	-0.241189	8
H	-1.221544	0.852124	1.903790	1
H	-1.642324	-0.526216	0.881471	1
H	-1.678634	1.120134	0.219721	1
H	0.834956	-0.369716	1.169341	1
H	1.551976	-0.138696	-1.252939	1
H	-0.047984	0.462764	-1.657529	1
H	-0.681724	-3.713046	-1.377970	1
H	0.947256	2.084834	1.670931	1
Es	0.495149	-0.188299	-0.961222	99
Es	-0.388470	0.390313	0.678670	99
Es	-1.472926	-0.217232	0.884213	99
Es	1.190406	-0.169292	-1.148950	99
Es	0.328875	0.314601	0.476462	99
Es	1.711353	2.580686	-0.189799	99
Es	0.033107	-1.577517	-1.117937	99
Es	0.055779	-2.246787	-1.094134	99
Es	0.660768	0.998744	0.556593	99
Es	1.571934	2.277482	-0.240939	99
Es	-0.569174	-3.366645	-1.324360	99
Es	0.990329	1.666867	0.649595	99
Es	-1.488348	0.906353	0.434507	99
Es	1.561793	1.924182	0.133581	99
Es	0.247722	-0.918822	-1.040569	99
Es	0.670731	-0.133552	0.943807	99
Es	-0.141723	-2.114831	-1.548398	99
Es	-0.345268	-2.709713	-1.252819	99
Es	-1.178296	0.727797	1.571600	99
Es	0.950574	1.941502	1.353413	99
Es	0.123827	0.229661	-1.412784	99
Es	1.159255	2.160549	0.008710	99
Es	1.539552	2.120393	-0.445359	99
Es	0.401978	0.049773	-0.249696	99
Es	-0.395589	-2.106500	-0.909252	99
Es	-1.136272	0.444199	0.890328	99
41
Properties=species:S:1:pos:R:3:Z:I:1 energy=-306.7663868373608 field_type=dipole dipole="0.000000 0.000000 0.000000" charge=0
C	-1.136334	0.444184	0.890331	6
C	0.328886	0.314554	0.476491	6
C	0.495216	-0.188166	-0.961269	6
C	0.033006	-1.577786	-1.117969	6
C	-0.345184	-2.709466	-1.252810	6
C	0.990336	1.666874	0.649601	6
O	1.572086	2.277624	-0.241189	8
H	-1.221544	0.852124	1.903790	1
H	-1.642324	-0.526216	0.881471	1
H	-1.678634	1.120134	0.219721	1
H	0.834956	-0.369716	1.169341	1
H	1.551976	-0.138696	-1.252939	1
H	-0.047984	0.462764	-1.657529	1
H	-0.681724	-3.713046	-1.377970	1
H	0.947256	2.084834	1.670931	1
Es	-1.178459	0.727704	1.571008	99
Es	-0.160886	-2.192112	-0.820216	99
Es	0.660775	0.998839	0.556420	99
Es	0.495152	-0.188300	-0.961223	99
Es	1.539289	2.123392	-0.440952	99
Es	0.990335	1.666864	0.649596	99
Es	1.571931	2.277475	-0.240926	99
Es	-1.136268	0.444196	0.890325	99
Es	0.950119	1.941689	1.353130	99
Es	1.190497	-0.168490	-1.149698	99
Es	1.562778	1.921481	0.132099	99
Es	0.328872	0.314602	0.476469	99
Es	1.159385	2.159515	0.007343	99
Es	-1.472961	-0.217360	0.884540	99
Es	0.123633	0.228886	-1.411946	99
Es	-1.488721	0.905934	0.435223	99
Es	-0.345272	-2.709711	-1.252820	99
Es	1.710840	2.581333	-0.191223	99
Es	0.402216	0.050016	-0.249560	99
Es	-0.569105	-3.366699	-1.324218	99
Es	0.033101	-1.577512	-1.117952	99
Es	0.246241	-0.918400	-1.040886	99
Es	0.061239	-2.192787	-1.475424	99
Es	0.670598	-0.133799	0.944010	99
Es	-0.380414	-2.083787	-1.255641	99
Es	-0.387849	0.390943	0.677784	99
41
Properties=species:S:1:pos:R:3:Z:I:1 energy=-306.7663868373608 field_type=dipole dipole="0.000000 0.000000 0.000000" charge=0
C	-1.136334	0.444184	0.890331	6
C	0.328886	0.314554	0.476491	6
C	0.495216	-0.188166	-0.961269	6
C	0.033006	-1.577786	-1.117969	6
C	-0.345184	-2.709466	-1.252810	6
C	0.990336	1.666874	0.649601	6
O	1.572086	2.277624	-0.241189	8
H	-1.221544	0.852124	1.903790	1
H	-1.642324	-0.526216	0.881471	1
H	-1.678634	1.120134	0.219721	1
H	0.834956	-0.369716	1.169341	1
H	1.551976	-0.138696	-1.252939	1
H	-0.047984	0.462764	-1.657529	1
H	-0.681724	-3.713046	-1.377970	1
H	0.947256	2.084834	1.670931	1
Es	0.246253	-0.918524	-1.040963	99
Es	1.711104	2.581487	-0.191941	99
Es	0.990334	1.666864	0.649596	99
Es	-0.569272	-3.366678	-1.324203	99
Es	-1.136269	0.444196	0.890326	99
Es	1.571933	2.277479	-0.240926	99
Es	1.538818	2.123774	-0.439681	99
Es	1.159818	2.159573	0.007302	99
Es	0.401996	0.050080	-0.249718	99
Es	0.328875	0.314601	0.476462	99
Es	0.061349	-2.192747	-1.475203	99
Es	1.562417	1.921074	0.131678	99
Es	0.670527	-0.134052	0.943913	99
Es	0.950233	1.941548	1.353013	99
Es	-0.373705	-2.086108	-1.256066	99
Es	-1.488484	0.906353	0.435190	99
Es	0.495148	-0.188299	-0.961223	99
Es	-0.387879	0.390773	0.678012	99
Es	-1.178202	0.727494	1.570655	99
Es	0.660765	0.998955	0.556420	99
Es	-0.345276	-2.709708	-1.252820	99
Es	1.190478	-0.168381	-1.149492	99
Es	-0.167700	-2.189830	-0.819934	99
Es	0.033108	-1.577516	-1.117944	99
Es	-1.473084	-0.217488	0.884612	99
Es	0.123776	0.228990	-1.411803	99
41
Properties=species:S:1:pos:R:3:Z:I:1 energy=-306.7663868373608 field_type=dipole dipole="0.000000 0.000000 0.000000" charge=0
C	-1.136334	0.444184	0.890331	6
C	0.328886	0.314554	0.476491	6
C	0.495216	-0.188166	-0.961269	6
C	0.033006	-1.577786	-1.117969	6
C	-0.345184	-2.709466	-1.252810	6
C	0.990336	1.666874	0.649601	6
O	1.572086	2.277624	-0.241189	8
H	-1.221544	0.852124	1.903790	1
H	-1.642324	-0.526216	0.881471	1
H	-1.678634	1.120134	0.219721	1
H	0.834956	-0.369716	1.169341	1
H	1.551976	-0.138696	-1.252939	1
H	-0.047984	0.462764	-1.657529	1
H	-0.681724	-3.713046	-1.377970	1
H	0.947256	2.084834	1.670931	1
Es	0.950750	1.941347	1.353122	99
Es	-1.178067	0.727674	1.570763	99
Es	1.571942	2.277498	-0.240931	99
Es	1.557927	1.919461	0.131821	99
Es	-1.473080	-0.217610	0.884385	99
Es	0.247567	-0.919110	-1.040543	99
Es	-1.488037	0.906419	0.434996	99
Es	0.660899	0.998983	0.556588	99
Es	-0.135802	-2.116520	-1.548266	99
Es	-0.345270	-2.709713	-1.252816	99
Es	0.041620	-2.241787	-1.101805	99
Es	0.990336	1.666863	0.649596	99
Es	0.401911	0.049916	-0.249946	99
Es	1.539745	2.124532	-0.438837	99
Es	0.033102	-1.577511	-1.117949	99
Es	1.711819	2.581364	-0.190756	99
Es	1.190554	-0.168143	-1.149770	99
Es	0.123900	0.228761	-1.411291	99
Es	-0.387232	-2.109846	-0.901649	99
Es	1.162307	2.160687	0.005057	99
Es	0.670075	-0.134038	0.943865	99
Es	0.495149	-0.188301	-0.961221	99
Es	-0.569573	-3.366596	-1.324219	99
Es	-1.136268	0.444196	0.890326	99
Es	-0.388083	0.390786	0.678275	99
Es	0.328875	0.314602	0.476462	99
41
Properties=species:S:1:pos:R:3:Z:I:1 energy=-306.7663868373608 field_type=dipole dipole="0.000000 0.000000 0.000000" charge=0
C	-1.136334	0.444184	0.890331	6
C	0.328886	0.314554	0.476491	6
C	0.495216	-0.188166	-0.961269	6
C	0.033006	-1.577786	-1.117969	6
C	-0.345184	-2.709466	-1.252810	6
C	0.990336	1.666874	0.649601	6
O	1.572086	2.277624	-0.241189	8
H	-1.221544	0.852124	1.903790	1
H	-1.642324	-0.526216	0.881471	1
H	-1.678634	1.120134	0.219721	1
H	0.834956	-0.369716	1.169341	1
H	1.551976	-0.138696	-1.252939	1
H	-0.047984	0.462764	-1.657529	1
H	-0.681724	-3.713046	-1.377970	1
H	0.947256	2.084834	1.670931	1
Es	-1.136273	0.444199	0.890325	99
Es	0.990335	1.666863	0.649596	99
Es	0.670077	-0.134347	0.943977	99
Es	-1.178005	0.727406	1.570324	99
Es	-0.363586	-2.089522	-1.257065	99
Es	0.401988	0.050055	-0.249921	99
Es	1.557111	1.916537	0.130486	99
Es	0.246454	-0.918731	-1.040685	99
Es	1.163472	2.160994	0.003994	99
Es	0.033102	-1.577510	-1.117947	99
Es	1.538954	2.127161	-0.434560	99
Es	-0.387732	0.390985	0.677811	99
Es	0.061309	-2.192734	-1.474655	99
Es	1.571935	2.277488	-0.240937	99
Es	-1.488339	0.906507	0.435296	99
Es	0.660881	0.999040	0.556485	99
Es	1.190465	-0.168133	-1.149528	99
Es	1.712317	2.581353	-0.192588	99
Es	-1.473093	-0.217664	0.884690	99
Es	0.328875	0.314602	0.476463	99
Es	0.123803	0.228945	-1.411491	99
Es	-0.177870	-2.186387	-0.819406	99
Es	-0.345270	-2.709713	-1.252823	99
Es	-0.569538	-3.366634	-1.324348	99
Es	0.950544	1.941452	1.352989	99
Es	0.495150	-0.188300	-0.961222	99
