38
Properties=species:S:1:pos:R:3:Z:I:1 energy=-305.5928627425606 field_type=dipole dipole="0.000000 0.000000 0.000000" charge=0
C	-3.093369	-0.438038	-0.015772	6
C	-1.649369	-0.438038	-0.015772	6
C	-0.459209	-0.438038	-0.015772	6
C	0.946791	-0.438038	-0.015772	6
C	1.637421	0.706972	0.025788	6
C	3.110771	0.679441	0.024378	6
O	3.767141	1.712302	0.061958	8
H	-3.487369	0.582842	-0.004082	1
H	-3.487439	-0.958568	0.862478	1
H	-3.487439	-0.938318	-0.905712	1
H	1.446861	-1.401409	-0.050952	1
H	1.170361	1.684251	0.061428	1
H	3.584851	-0.315359	-0.012192	1
Es	3.522669	1.339839	-0.202889	99
Es	-1.009647	-0.227628	0.273088	99
Es	-3.334822	-0.785272	0.569994	99
Es	3.423099	-0.010154	-0.000866	99
Es	1.325849	1.356369	0.049565	99
Es	0.227293	-0.447335	-0.015448	99
Es	0.946642	-0.438138	-0.015774	99
Es	1.319152	0.158664	-0.308988	99
Es	2.363665	0.683085	0.024779	99
Es	3.582792	1.963533	0.071494	99
Es	-0.458937	-0.438054	-0.015775	99
Es	3.766956	1.712043	0.061948	99
Es	-3.338480	0.243612	-0.007930	99
Es	1.273536	-1.080398	-0.039186	99
Es	-1.649640	-0.438033	-0.015773	99
Es	-3.335055	-0.771776	-0.609372	99
Es	-0.996413	-0.278803	-0.332062	99
Es	1.637487	0.706987	0.025787	99
Es	-2.346747	-0.436964	-0.015955	99
Es	-1.051039	-0.799221	0.011508	99
Es	4.077866	1.664750	0.060480	99
Es	3.522467	1.320982	0.298223	99
Es	-3.093245	-0.438039	-0.015771	99
Es	1.319378	0.135691	0.319839	99
Es	3.110739	0.679433	0.024383	99
38
Properties=species:S:1:pos:R:3:Z:I:1 energy=-305.5928627425606 field_type=dipole dipole="0.000000 0.000000 0.000000" charge=0
C	-3.093369	-0.438038	-0.015772	6
C	-1.649369	-0.438038	-0.015772	6
C	-0.459209	-0.438038	-0.015772	6
C	0.946791	-0.438038	-0.015772	6
C	1.637421	0.706972	0.025788	6
C	3.110771	0.679441	0.024378	6
O	3.767141	1.712302	0.061958	8
H	-3.487369	0.582842	-0.004082	1
H	-3.487439	-0.958568	0.862478	1
H	-3.487439	-0.938318	-0.905712	1
H	1.446861	-1.401409	-0.050952	1
H	1.170361	1.684251	0.061428	1
H	3.584851	-0.315359	-0.012192	1
Es	-2.341454	-0.443104	-0.015784	99
Es	0.946642	-0.438138	-0.015776	99
Es	0.225096	-0.440123	-0.015932	99
Es	-3.093246	-0.438041	-0.015771	99
Es	4.102301	1.710820	0.061642	99
Es	3.423182	-0.008496	-0.000881	99
Es	-3.336525	-0.782656	0.566293	99
Es	-1.050686	-0.807117	-0.031229	99
Es	3.110738	0.679432	0.024376	99
Es	3.517431	1.342145	-0.195357	99
Es	-1.002327	-0.264645	0.272008	99
Es	1.319431	0.158807	-0.304614	99
Es	1.273045	-1.075167	-0.039096	99
Es	-3.340969	0.238501	-0.007918	99
Es	3.568992	1.909235	0.069106	99
Es	3.766999	1.712056	0.061943	99
Es	-1.649650	-0.438035	-0.015775	99
Es	3.518442	1.325827	0.292008	99
Es	-1.004403	-0.236133	-0.287734	99
Es	1.637494	0.706995	0.025791	99
Es	-0.458929	-0.438024	-0.015764	99
Es	-3.337600	-0.770474	-0.605925	99
Es	1.319366	0.135960	0.315545	99
Es	1.325350	1.352411	0.049445	99
Es	2.366849	0.683136	0.024695	99
38
Properties=species:S:1:pos:R:3:Z:I:1 energy=-305.5928627425606 field_type=dipole dipole="0.000000 0.000000 0.000000" charge=0
C	-3.093369	-0.438038	-0.015772	6
C	-1.649369	-0.438038	-0.015772	6
C	-0.459209	-0.438038	-0.015772	6
C	0.946791	-0.438038	-0.015772	6
C	1.637421	0.706972	0.025788	6
C	3.110771	0.679441	0.024378	6
O	3.767141	1.712302	0.061958	8
H	-3.487369	0.582842	-0.004082	1
H	-3.487439	-0.958568	0.862478	1
H	-3.487439	-0.938318	-0.905712	1
H	1.446861	-1.401409	-0.050952	1
H	1.170361	1.684251	0.061428	1
H	3.584851	-0.315359	-0.012192	1
Es	1.319584	0.135431	0.316477	99
Es	3.422753	-0.006738	-0.001126	99
Es	1.319785	0.159270	-0.305932	99
Es	-1.050261	-0.801722	-0.086562	99
Es	-2.338940	-0.443804	-0.015250	99
Es	3.510306	1.349432	-0.196915	99
Es	-0.959818	-0.426806	0.139086	99
Es	-1.649651	-0.438049	-0.015769	99
Es	-3.093246	-0.438041	-0.015772	99
Es	-3.340077	0.231911	-0.007910	99
Es	3.510191	1.330574	0.294543	99
Es	-3.337509	-0.780646	0.565953	99
Es	1.270753	-1.069292	-0.039069	99
Es	1.637494	0.706996	0.025790	99
Es	0.946640	-0.438141	-0.015776	99
Es	-1.047441	-0.079070	-0.099328	99
Es	1.326821	1.347809	0.049882	99
Es	0.223734	-0.439522	-0.016646	99
Es	3.110738	0.679432	0.024377	99
Es	3.583749	1.870910	0.067757	99
Es	-3.339750	-0.769513	-0.605461	99
Es	-0.458925	-0.438017	-0.015778	99
Es	3.767019	1.711992	0.061947	99
Es	4.103801	1.736396	0.062122	99
Es	2.367818	0.684381	0.024658	99
38
Properties=species:S:1:pos:R:3:Z:I:1 energy=-305.5928627425606 field_type=dipole dipole="0.000000 0.000000 0.000000" charge=0
C	-3.093369	-0.438038	-0.015772	6
C	-1.649369	-0.438038	-0.015772	6
C	-0.459209	-0.438038	-0.015772	6
C	0.946791	-0.438038	-0.015772	6
C	1.637421	0.706972	0.025788	6
C	3.110771	0.679441	0.024378	6
O	3.767141	1.712302	0.061958	8
H	-3.487369	0.582842	-0.004082	1
H	-3.487439	-0.958568	0.862478	1
H	-3.487439	-0.938318	-0.905712	1
H	1.446861	-1.401409	-0.050952	1
H	1.170361	1.684251	0.061428	1
H	3.584851	-0.315359	-0.012192	1
Es	-3.344577	-0.773818	-0.603643	99
Es	-3.333832	-0.774760	0.563733	99
Es	-3.093246	-0.438042	-0.015771	99
Es	1.637495	0.706995	0.025783	99
Es	1.327662	1.345124	0.048841	99
Es	-1.051865	-0.807087	-0.025393	99
Es	0.946640	-0.438137	-0.015776	99
Es	1.318540	0.157564	-0.305373	99
Es	-0.954759	-0.429973	-0.022332	99
Es	3.422497	-0.005718	-0.000391	99
Es	3.110740	0.679429	0.024376	99
Es	3.597506	1.847384	0.066322	99
Es	3.767009	1.712063	0.061951	99
Es	-1.050915	-0.070445	0.000753	99
Es	-0.458925	-0.438016	-0.015776	99
Es	0.223047	-0.439606	-0.015829	99
Es	-2.337740	-0.443134	-0.015885	99
Es	-1.649654	-0.438055	-0.015773	99
Es	-3.339826	0.227754	-0.007795	99
Es	2.368182	0.685106	0.024746	99
Es	3.516399	1.365000	-0.190427	99
Es	1.321395	0.136737	0.316570	99
Es	4.103033	1.747162	0.063683	99
Es	3.491562	1.327218	0.287256	99
Es	1.269197	-1.065573	-0.038551	99
38
Properties=species:S:1:pos:R:3:Z:I:1 energy=-305.5928627425606 field_type=dipole dipole="0.000000 0.000000 0.000000" charge=0
C	-3.093369	-0.438038	-0.015772	6
C	-1.649369	-0.438038	-0.015772	6
C	-0.459209	-0.438038	-0.015772	6
C	0.946791	-0.438038	-0.015772	6
C	1.637421	0.706972	0.025788	6
C	3.110771	0.679441	0.024378	6
O	3.767141	1.712302	0.061958	8
H	-3.487369	0.582842	-0.004082	1
H	-3.487439	-0.958568	0.862478	1
H	-3.487439	-0.938318	-0.905712	1
H	1.446861	-1.401409	-0.050952	1
H	1.170361	1.684251	0.061428	1
H	3.584851	-0.315359	-0.012192	1
Es	-3.333866	-0.772540	0.564360	99
Es	1.266695	-1.061897	-0.038379	99
Es	-0.954807	-0.430526	-0.001073	99
Es	2.368148	0.685981	0.024831	99
Es	3.110738	0.679432	0.024379	99
Es	1.318997	0.134543	0.318817	99
Es	-1.052041	-0.806011	-0.030931	99
Es	3.766956	1.712047	0.061941	99
Es	-3.346994	-0.773991	-0.604142	99
Es	-1.050680	-0.070978	-0.015018	99
Es	3.439585	1.319075	0.105326	99
Es	1.637496	0.706995	0.025783	99
Es	3.552188	1.391870	-0.007807	99
Es	-3.093244	-0.438044	-0.015772	99
Es	4.101416	1.755251	0.064101	99
Es	-3.337349	0.223374	-0.007874	99
Es	3.422543	-0.005161	-0.000501	99
Es	0.946641	-0.438136	-0.015780	99
Es	1.321731	0.158999	-0.308058	99
Es	-1.649654	-0.438059	-0.015770	99
Es	-0.458926	-0.438022	-0.015759	99
Es	-2.337605	-0.441663	-0.015842	99
Es	3.615344	1.820544	0.065375	99
Es	0.222915	-0.440262	-0.015884	99
Es	1.329338	1.342352	0.048974	99
38
Properties=species:S:1:pos:R:3:Z:I:1 energy=-305.5928627425606 field_type=dipole dipole="0.000000 0.000000 0.000000" charge=0
C	-3.093369	-0.438038	-0.015772	6
C	-1.649369	-0.438038	-0.015772	6
C	-0.459209	-0.438038	-0.015772	6
C	0.946791	-0.438038	-0.015772	6
C	1.637421	0.706972	0.025788	6
C	3.110771	0.679441	0.024378	6
O	3.767141	1.712302	0.061958	8
H	-3.487369	0.582842	-0.004082	1
H	-3.487439	-0.958568	0.862478	1
H	-3.487439	-0.938318	-0.905712	1
H	1.446861	-1.401409	-0.050952	1
H	1.170361	1.684251	0.061428	1
H	3.584851	-0.315359	-0.012192	1
Es	-1.649654	-0.438066	-0.015772	99
Es	-3.322090	-0.757628	0.551741	99
Es	1.328351	0.161842	-0.301933	99
Es	3.767019	1.711969	0.061944	99
Es	3.624456	1.804439	0.064535	99
Es	-1.050501	-0.071692	-0.016586	99
Es	1.312597	0.131449	0.313193	99
Es	-2.337430	-0.440675	-0.016097	99
Es	-0.954863	-0.430241	-0.012793	99
Es	4.099843	1.761073	0.061338	99
Es	-0.458925	-0.438007	-0.015769	99
Es	-3.359824	-0.787743	-0.590461	99
Es	2.368198	0.686471	0.024273	99
Es	3.110739	0.679431	0.024379	99
Es	0.946639	-0.438139	-0.015775	99
Es	3.422113	-0.004397	-0.000102	99
Es	3.553250	1.391626	0.021021	99
Es	1.330490	1.340302	0.047794	99
Es	1.265249	-1.059326	-0.037371	99
Es	1.637493	0.706996	0.025787	99
Es	-1.052156	-0.805643	-0.017294	99
Es	-3.093244	-0.438041	-0.015772	99
Es	-3.336307	0.220524	-0.008124	99
Es	0.222786	-0.440648	-0.016214	99
Es	3.431338	1.329293	0.079357	99
38
Properties=species:S:1:pos:R:3:Z:I:1 energy=-305.5928627425606 field_type=dipole dipole="0.000000 0.000000 0.000000" charge=0
C	-3.093369	-0.438038	-0.015772	6
C	-1.649369	-0.438038	-0.015772	6
C	-0.459209	-0.438038	-0.015772	6
C	0.946791	-0.438038	-0.015772	6
C	1.637421	0.706972	0.025788	6
C	3.110771	0.679441	0.024378	6
O	3.767141	1.712302	0.061958	8
H	-3.487369	0.582842	-0.004082	1
H	-3.487439	-0.958568	0.862478	1
H	-3.487439	-0.938318	-0.905712	1
H	1.446861	-1.401409	-0.050952	1
H	1.170361	1.684251	0.061428	1
H	3.584851	-0.315359	-0.012192	1
Es	-2.337419	-0.439707	-0.015322	99
Es	-3.357691	-0.796960	0.554725	99
Es	3.767032	1.711956	0.061946	99
Es	-0.954786	-0.429987	-0.020176	99
Es	-3.093247	-0.438042	-0.015776	99
Es	0.222715	-0.441015	-0.015618	99
Es	3.553608	1.390570	0.058158	99
Es	-0.458926	-0.437998	-0.015766	99
Es	4.098398	1.765721	0.065395	99
Es	-3.325657	-0.746883	-0.595545	99
Es	-1.050385	-0.073076	0.007740	99
Es	1.300086	0.144987	-0.256727	99
Es	1.264176	-1.057146	-0.039620	99
Es	-1.052308	-0.804613	-0.034912	99
Es	2.368183	0.686884	0.025099	99
Es	1.340763	0.148393	0.267535	99
Es	3.630572	1.792606	0.065401	99
Es	1.637496	0.706994	0.025792	99
Es	1.331587	1.338331	0.050065	99
Es	3.426669	1.337123	0.039134	99
Es	0.946639	-0.438138	-0.015777	99
Es	3.110739	0.679431	0.024376	99
Es	-3.334733	0.217458	-0.007882	99
Es	3.421708	-0.003644	-0.001181	99
Es	-1.649653	-0.438073	-0.015766	99
38
Properties=species:S:1:pos:R:3:Z:I:1 energy=-305.5928627425606 field_type=dipole dipole="0.000000 0.000000 0.000000" charge=0
C	-3.093369	-0.438038	-0.015772	6
C	-1.649369	-0.438038	-0.015772	6
C	-0.459209	-0.438038	-0.015772	6
C	0.946791	-0.438038	-0.015772	6
C	1.637421	0.706972	0.025788	6
C	3.110771	0.679441	0.024378	6
O	3.767141	1.712302	0.061958	8
H	-3.487369	0.582842	-0.004082	1
H	-3.487439	-0.958568	0.862478	1
H	-3.487439	-0.938318	-0.905712	1
H	1.446861	-1.401409	-0.050952	1
H	1.170361	1.684251	0.061428	1
H	3.584851	-0.315359	-0.012192	1
Es	0.222812	-0.441611	-0.016761	99
Es	1.332831	1.336522	0.046645	99
Es	3.552563	1.391872	0.003497	99
Es	0.946648	-0.438143	-0.015774	99
Es	-1.649655	-0.438060	-0.015773	99
Es	-3.377907	-0.803918	-0.553524	99
Es	-0.458925	-0.438003	-0.015772	99
Es	-1.050151	-0.072738	-0.024204	99
Es	-3.093244	-0.438040	-0.015773	99
Es	-3.332592	0.214228	-0.008371	99
Es	3.421477	-0.003220	0.000417	99
Es	-0.955107	-0.430273	-0.016088	99
Es	3.635417	1.783811	0.063626	99
Es	-1.052260	-0.804537	-0.005892	99
Es	1.637495	0.707002	0.025789	99
Es	1.262025	-1.054284	-0.036256	99
Es	2.368096	0.687374	0.023673	99
Es	3.110738	0.679432	0.024386	99
Es	-2.337584	-0.438661	-0.016406	99
Es	3.767030	1.711965	0.061945	99
Es	3.423738	1.342304	0.099190	99
Es	-3.307362	-0.737998	0.516051	99
Es	1.309002	0.129535	0.307571	99
Es	1.332755	0.162759	-0.295870	99
Es	4.097727	1.767852	0.058973	99
38
Properties=species:S:1:pos:R:3:Z:I:1 energy=-305.5928627425606 field_type=dipole dipole="0.000000 0.000000 0.000000" charge=0
C	-3.093369	-0.438038	-0.015772	6
C	-1.649369	-0.438038	-0.015772	6
C	-0.459209	-0.438038	-0.015772	6
C	0.946791	-0.438038	-0.015772	6
C	1.637421	0.706972	0.025788	6
C	3.110771	0.679441	0.024378	6
O	3.767141	1.712302	0.061958	8
H	-3.487369	0.582842	-0.004082	1
H	-3.487439	-0.958568	0.862478	1
H	-3.487439	-0.938318	-0.905712	1
H	1.446861	-1.401409	-0.050952	1
H	1.170361	1.684251	0.061428	1
H	3.584851	-0.315359	-0.012192	1
Es	-3.093246	-0.438045	-0.015765	99
Es	0.222846	-0.442000	-0.016831	99
Es	-1.050003	-0.073145	-0.027515	99
Es	3.422277	1.346234	0.113752	99
Es	1.260763	-1.052208	-0.036041	99
Es	1.637496	0.706995	0.025786	99
Es	1.333715	1.335052	0.046330	99
Es	-0.458925	-0.438005	-0.015772	99
Es	3.638433	1.777931	0.063051	99
Es	-3.303476	-0.732977	0.502560	99
Es	4.097171	1.769520	0.058624	99
Es	-0.955146	-0.430143	-0.011737	99
Es	3.110738	0.679432	0.024386	99
Es	-3.383062	-0.807462	-0.539863	99
Es	-1.649653	-0.438078	-0.015769	99
Es	2.368037	0.687700	0.023466	99
Es	-3.331159	0.211753	-0.008240	99
Es	0.946640	-0.438136	-0.015773	99
Es	-2.337674	-0.437902	-0.016572	99
Es	1.308097	0.128850	0.305433	99
Es	1.334018	0.162972	-0.293509	99
Es	3.421156	-0.002655	0.000649	99
Es	-1.052361	-0.804286	-0.006828	99
Es	3.767016	1.711935	0.061946	99
Es	3.551871	1.391841	-0.010469	99
38
Properties=species:S:1:pos:R:3:Z:I:1 energy=-305.5928627425606 field_type=dipole dipole="0.000000 0.000000 0.000000" charge=0
C	-3.093369	-0.438038	-0.015772	6
C	-1.649369	-0.438038	-0.015772	6
C	-0.459209	-0.438038	-0.015772	6
C	0.946791	-0.438038	-0.015772	6
C	1.637421	0.706972	0.025788	6
C	3.110771	0.679441	0.024378	6
O	3.767141	1.712302	0.061958	8
H	-3.487369	0.582842	-0.004082	1
H	-3.487439	-0.958568	0.862478	1
H	-3.487439	-0.938318	-0.905712	1
H	1.446861	-1.401409	-0.050952	1
H	1.170361	1.684251	0.061428	1
H	3.584851	-0.315359	-0.012192	1
Es	3.552006	1.391958	-0.006538	99
Es	-0.458926	-0.438000	-0.015777	99
Es	-3.329873	0.209550	-0.008743	99
Es	0.222848	-0.442198	-0.017325	99
Es	1.331304	0.161196	-0.302681	99
Es	-1.052362	-0.803991	-0.004028	99
Es	-1.049847	-0.073589	-0.032317	99
Es	2.367979	0.688004	0.023133	99
Es	1.311206	0.130109	0.314827	99
Es	-3.093245	-0.438043	-0.015774	99
Es	3.766984	1.712000	0.061945	99
Es	3.420443	1.349253	0.110672	99
Es	0.946639	-0.438136	-0.015771	99
Es	-2.337769	-0.437272	-0.016543	99
Es	1.259629	-1.050476	-0.035939	99
Es	3.420922	-0.002245	0.000747	99
Es	4.096552	1.771267	0.057382	99
Es	3.640985	1.772730	0.063145	99
Es	1.334464	1.333772	0.046253	99
Es	-3.388032	-0.811683	-0.523079	99
Es	-1.649654	-0.438070	-0.015769	99
Es	1.637496	0.706997	0.025780	99
Es	-0.955285	-0.430015	-0.009379	99
Es	-3.299636	-0.727375	0.486692	99
Es	3.110738	0.679429	0.024384	99
38
Properties=species:S:1:pos:R:3:Z:I:1 energy=-305.5928627425606 field_type=dipole dipole="0.000000 0.000000 0.000000" charge=0
C	-3.093369	-0.438038	-0.015772	6
C	-1.649369	-0.438038	-0.015772	6
C	-0.459209	-0.438038	-0.015772	6
C	0.946791	-0.438038	-0.015772	6
C	1.637421	0.706972	0.025788	6
C	3.110771	0.679441	0.024378	6
O	3.767141	1.712302	0.061958	8
H	-3.487369	0.582842	-0.004082	1
H	-3.487439	-0.958568	0.862478	1
H	-3.487439	-0.938318	-0.905712	1
H	1.446861	-1.401409	-0.050952	1
H	1.170361	1.684251	0.061428	1
H	3.584851	-0.315359	-0.012192	1
Es	3.110737	0.679432	0.024376	99
Es	1.259254	-1.049281	-0.040740	99
Es	-3.389163	-0.823296	0.479145	99
Es	1.306112	0.149947	-0.290641	99
Es	-0.458928	-0.437990	-0.015778	99
Es	3.552237	1.388055	0.103446	99
Es	-1.049665	-0.076567	0.031687	99
Es	0.222857	-0.442484	-0.014732	99
Es	3.420792	-0.001815	-0.002396	99
Es	1.637495	0.706994	0.025801	99
Es	1.335048	1.332349	0.051651	99
Es	-1.052407	-0.801656	-0.055866	99
Es	2.367902	0.688266	0.026783	99
Es	-0.955418	-0.429294	-0.024116	99
Es	0.946641	-0.438136	-0.015781	99
Es	-1.649653	-0.438075	-0.015777	99
Es	3.642624	1.768977	0.065022	99
Es	-3.093245	-0.438040	-0.015768	99
Es	-3.328958	0.207700	-0.007626	99
Es	-2.337789	-0.436957	-0.014742	99
Es	1.336130	0.141817	0.300054	99
Es	-3.299232	-0.714626	-0.522442	99
Es	3.419240	1.355388	-0.009633	99
Es	3.767035	1.711960	0.061946	99
Es	4.095920	1.772502	0.071426	99
38
Properties=species:S:1:pos:R:3:Z:I:1 energy=-305.5928627425606 field_type=dipole dipole="0.000000 0.000000 0.000000" charge=0
C	-3.093369	-0.438038	-0.015772	6
C	-1.649369	-0.438038	-0.015772	6
C	-0.459209	-0.438038	-0.015772	6
C	0.946791	-0.438038	-0.015772	6
C	1.637421	0.706972	0.025788	6
C	3.110771	0.679441	0.024378	6
O	3.767141	1.712302	0.061958	8
H	-3.487369	0.582842	-0.004082	1
H	-3.487439	-0.958568	0.862478	1
H	-3.487439	-0.938318	-0.905712	1
H	1.446861	-1.401409	-0.050952	1
H	1.170361	1.684251	0.061428	1
H	3.584851	-0.315359	-0.012192	1
Es	1.257807	-1.047500	-0.035741	99
Es	3.418752	1.353613	0.120045	99
Es	-1.049639	-0.074183	-0.036631	99
Es	1.637495	0.706995	0.025780	99
Es	3.551361	1.392109	-0.015418	99
Es	0.222930	-0.442705	-0.017490	99
Es	1.310663	0.129720	0.315006	99
Es	-0.955346	-0.429695	-0.002637	99
Es	-3.093247	-0.438042	-0.015772	99
Es	0.946639	-0.438136	-0.015770	99
Es	1.335898	1.331507	0.045875	99
Es	-2.337946	-0.436268	-0.016607	99
Es	3.420530	-0.001541	0.000943	99
Es	-3.295546	-0.722204	0.468335	99
Es	3.110739	0.679431	0.024383	99
Es	-3.393520	-0.815058	-0.504454	99
Es	-0.458927	-0.437996	-0.015780	99
Es	3.644362	1.765751	0.063049	99
Es	-1.649653	-0.438071	-0.015769	99
Es	3.767019	1.711958	0.061945	99
Es	-3.328198	0.206448	-0.008650	99
Es	4.095810	1.773347	0.056663	99
Es	1.332183	0.161085	-0.302585	99
Es	2.367919	0.688298	0.022969	99
Es	-1.052517	-0.803691	-0.006394	99
38
Properties=species:S:1:pos:R:3:Z:I:1 energy=-305.5928627425606 field_type=dipole dipole="0.000000 0.000000 0.000000" charge=0
C	-3.093369	-0.438038	-0.015772	6
C	-1.649369	-0.438038	-0.015772	6
C	-0.459209	-0.438038	-0.015772	6
C	0.946791	-0.438038	-0.015772	6
C	1.637421	0.706972	0.025788	6
C	3.110771	0.679441	0.024378	6
O	3.767141	1.712302	0.061958	8
H	-3.487369	0.582842	-0.004082	1
H	-3.487439	-0.958568	0.862478	1
H	-3.487439	-0.938318	-0.905712	1
H	1.446861	-1.401409	-0.050952	1
H	1.170361	1.684251	0.061428	1
H	3.584851	-0.315359	-0.012192	1
Es	2.367845	0.688514	0.026827	99
Es	1.637495	0.706995	0.025791	99
Es	-3.295681	-0.710293	-0.505825	99
Es	-3.394088	-0.825836	0.462428	99
Es	-3.327322	0.204747	-0.007705	99
Es	3.767000	1.711973	0.061946	99
Es	0.946640	-0.438135	-0.015780	99
Es	-0.458925	-0.438006	-0.015761	99
Es	-1.052476	-0.801331	-0.056338	99
Es	1.305600	0.148984	-0.288553	99
Es	-3.093246	-0.438043	-0.015770	99
Es	3.420470	-0.001247	-0.002402	99
Es	3.645624	1.762613	0.064659	99
Es	-0.955691	-0.427999	-0.032706	99
Es	1.336176	1.330571	0.051587	99
Es	1.257642	-1.046721	-0.040543	99
Es	-2.337982	-0.435987	-0.014816	99
Es	0.222924	-0.442922	-0.014496	99
Es	3.418698	1.359987	-0.027392	99
Es	-1.649650	-0.438083	-0.015779	99
Es	3.550978	1.386957	0.121421	99
Es	-1.049334	-0.078129	0.040654	99
Es	3.110738	0.679432	0.024370	99
Es	4.095035	1.774981	0.071700	99
Es	1.337099	0.142147	0.297781	99
38
Properties=species:S:1:pos:R:3:Z:I:1 energy=-305.5928627425606 field_type=dipole dipole="0.000000 0.000000 0.000000" charge=0
C	-3.093369	-0.438038	-0.015772	6
C	-1.649369	-0.438038	-0.015772	6
C	-0.459209	-0.438038	-0.015772	6
C	0.946791	-0.438038	-0.015772	6
C	1.637421	0.706972	0.025788	6
C	3.110771	0.679441	0.024378	6
O	3.767141	1.712302	0.061958	8
H	-3.487369	0.582842	-0.004082	1
H	-3.487439	-0.958568	0.862478	1
H	-3.487439	-0.938318	-0.905712	1
H	1.446861	-1.401409	-0.050952	1
H	1.170361	1.684251	0.061428	1
H	3.584851	-0.315359	-0.012192	1
Es	3.767026	1.711989	0.061944	99
Es	2.367831	0.688691	0.022914	99
Es	-2.338061	-0.435607	-0.016559	99
Es	-1.649652	-0.438078	-0.015767	99
Es	1.333923	0.161866	-0.298493	99
Es	-3.396768	-0.816219	-0.494011	99
Es	-1.049555	-0.074458	-0.036543	99
Es	-3.326559	0.203561	-0.008848	99
Es	1.336834	1.329804	0.045823	99
Es	1.309095	0.128665	0.310944	99
Es	3.420239	-0.000994	0.000864	99
Es	1.637494	0.706995	0.025783	99
Es	-0.458927	-0.437996	-0.015779	99
Es	3.110739	0.679431	0.024385	99
Es	0.222960	-0.443005	-0.017703	99
Es	4.095715	1.773613	0.056479	99
Es	-3.093259	-0.438023	-0.015769	99
Es	3.551109	1.392167	-0.018441	99
Es	1.256688	-1.045506	-0.035686	99
Es	-0.955376	-0.429760	-0.004651	99
Es	3.646244	1.762005	0.062915	99
Es	3.417453	1.356694	0.123453	99
Es	0.946641	-0.438136	-0.015774	99
Es	-1.052547	-0.803397	-0.004281	99
Es	-3.293719	-0.719131	0.458100	99
38
Properties=species:S:1:pos:R:3:Z:I:1 energy=-305.5928627425606 field_type=dipole dipole="0.000000 0.000000 0.000000" charge=0
C	-3.093369	-0.438038	-0.015772	6
C	-1.649369	-0.438038	-0.015772	6
C	-0.459209	-0.438038	-0.015772	6
C	0.946791	-0.438038	-0.015772	6
C	1.637421	0.706972	0.025788	6
C	3.110771	0.679441	0.024378	6
O	3.767141	1.712302	0.061958	8
H	-3.487369	0.582842	-0.004082	1
H	-3.487439	-0.958568	0.862478	1
H	-3.487439	-0.938318	-0.905712	1
H	1.446861	-1.401409	-0.050952	1
H	1.170361	1.684251	0.061428	1
H	3.584851	-0.315359	-0.012192	1
Es	1.337241	1.329107	0.045820	99
Es	1.256068	-1.044393	-0.035484	99
Es	1.637496	0.706997	0.025780	99
Es	4.095705	1.773646	0.056493	99
Es	2.367810	0.688792	0.022959	99
Es	-2.338126	-0.435300	-0.016581	99
Es	3.417366	1.358175	0.131745	99
Es	-0.458926	-0.437996	-0.015769	99
Es	-3.292339	-0.717619	0.451097	99
Es	1.333979	0.161572	-0.299412	99
Es	3.767030	1.711964	0.061945	99
Es	-3.093244	-0.438041	-0.015774	99
Es	3.550511	1.392098	-0.026613	99
Es	-1.649654	-0.438072	-0.015771	99
Es	-1.049620	-0.074345	-0.031572	99
Es	3.647030	1.760449	0.062695	99
Es	3.420131	-0.000781	0.000968	99
Es	1.309200	0.128704	0.311609	99
Es	-3.326027	0.202559	-0.008676	99
Es	-0.955340	-0.430214	-0.013834	99
Es	-1.052470	-0.803201	-0.000157	99
Es	0.222986	-0.443148	-0.017561	99
Es	3.110738	0.679433	0.024384	99
Es	-3.398615	-0.817081	-0.487217	99
Es	0.946640	-0.438135	-0.015775	99
