41
Properties=species:S:1:pos:R:3:Z:I:1 energy=-306.77635860214303 field_type=dipole dipole="0.000000 0.000000 0.000000" charge=0
C	-3.242093	-0.575331	0.001633	6
C	-1.798093	-0.575331	0.001633	6
C	-0.607933	-0.575331	0.001633	6
C	0.836067	-0.575331	0.001633	6
C	1.383797	0.846199	-0.001167	6
C	2.889067	0.871889	-0.004017	6
O	3.604097	-0.125441	0.004443	8
H	-3.636083	0.445559	0.013343	1
H	-3.636173	-1.095871	0.879873	1
H	-3.636163	-1.075591	-0.888317	1
H	1.209727	-1.118471	-0.874917	1
H	1.209836	-1.115171	0.880153	1
H	1.044396	1.395549	0.884123	1
H	1.041337	1.392719	-0.887007	1
H	3.338207	1.879949	-0.013037	1
Es	2.134091	0.852666	-0.003028	99
Es	-1.200825	-0.933945	0.036826	99
Es	-1.202165	-0.421412	-0.329517	99
Es	-3.490020	0.109403	0.009472	99
Es	0.835966	-0.575257	0.001633	99
Es	-0.607662	-0.575333	0.001629	99
Es	1.172721	1.214380	-0.596372	99
Es	-3.241984	-0.575330	0.001634	99
Es	-1.201444	-0.360282	0.297623	99
Es	1.383841	0.846174	-0.001167	99
Es	1.175322	1.216321	0.593772	99
Es	-1.798373	-0.575315	0.001628	99
Es	3.907935	-0.057179	0.004018	99
Es	1.068273	-0.927485	0.592926	99
Es	-2.498937	-0.575170	0.001528	99
Es	-3.490218	-0.923839	0.590191	99
Es	3.603874	-0.125207	0.004437	99
Es	3.343309	0.239111	0.253843	99
Es	2.889053	0.871885	-0.004017	99
Es	-3.490241	-0.910218	-0.594725	99
Es	1.099960	0.138347	0.000264	99
Es	1.068149	-0.929580	-0.588465	99
Es	0.089334	-0.569739	0.001649	99
Es	3.184554	1.571203	-0.010297	99
Es	3.437031	-0.389329	0.006776	99
Es	3.343527	0.234627	-0.251578	99
41
Properties=species:S:1:pos:R:3:Z:I:1 energy=-306.77635860214303 field_type=dipole dipole="0.000000 0.000000 0.000000" charge=0
C	-3.242093	-0.575331	0.001633	6
C	-1.798093	-0.575331	0.001633	6
C	-0.607933	-0.575331	0.001633	6
C	0.836067	-0.575331	0.001633	6
C	1.383797	0.846199	-0.001167	6
C	2.889067	0.871889	-0.004017	6
O	3.604097	-0.125441	0.004443	8
H	-3.636083	0.445559	0.013343	1
H	-3.636173	-1.095871	0.879873	1
H	-3.636163	-1.075591	-0.888317	1
H	1.209727	-1.118471	-0.874917	1
H	1.209836	-1.115171	0.880153	1
H	1.044396	1.395549	0.884123	1
H	1.041337	1.392719	-0.887007	1
H	3.338207	1.879949	-0.013037	1
Es	-1.200930	-0.365168	0.292959	99
Es	3.603936	-0.125192	0.004441	99
Es	1.171275	1.213457	-0.593952	99
Es	-3.490240	-0.909671	-0.589686	99
Es	-0.607659	-0.575334	0.001634	99
Es	3.926959	-0.075780	0.003669	99
Es	-3.490359	-0.923045	0.585370	99
Es	1.383841	0.846174	-0.001167	99
Es	1.173623	1.215197	0.591044	99
Es	1.069552	-0.928297	-0.586284	99
Es	-3.494277	0.110173	0.009273	99
Es	3.184717	1.570314	-0.010235	99
Es	0.086660	-0.572862	0.001411	99
Es	2.137447	0.853094	-0.002703	99
Es	3.425422	-0.364603	0.006865	99
Es	-3.241986	-0.575329	0.001634	99
Es	1.069776	-0.926331	0.590996	99
Es	-2.495980	-0.573486	0.001470	99
Es	2.889049	0.871889	-0.004015	99
Es	0.835964	-0.575260	0.001630	99
Es	-1.201674	-0.414972	-0.317245	99
Es	-1.798381	-0.575320	0.001632	99
Es	3.340063	0.231508	-0.246574	99
Es	1.100036	0.137765	0.000133	99
Es	-1.201892	-0.936067	0.029348	99
Es	3.340129	0.236647	0.249033	99
41
Properties=species:S:1:pos:R:3:Z:I:1 energy=-306.77635860214303 field_type=dipole dipole="0.000000 0.000000 0.000000" charge=0
C	-3.242093	-0.575331	0.001633	6
C	-1.798093	-0.575331	0.001633	6
C	-0.607933	-0.575331	0.001633	6
C	0.836067	-0.575331	0.001633	6
C	1.383797	0.846199	-0.001167	6
C	2.889067	0.871889	-0.004017	6
O	3.604097	-0.125441	0.004443	8
H	-3.636083	0.445559	0.013343	1
H	-3.636173	-1.095871	0.879873	1
H	-3.636163	-1.075591	-0.888317	1
H	1.209727	-1.118471	-0.874917	1
H	1.209836	-1.115171	0.880153	1
H	1.044396	1.395549	0.884123	1
H	1.041337	1.392719	-0.887007	1
H	3.338207	1.879949	-0.013037	1
Es	-3.489701	-0.922328	0.581649	99
Es	-3.489777	-0.909106	-0.585911	99
Es	3.336843	0.230665	-0.243859	99
Es	-2.494392	-0.573402	0.001393	99
Es	1.170656	1.212865	-0.592285	99
Es	-1.201037	-0.378920	-0.292666	99
Es	-1.798384	-0.575316	0.001628	99
Es	-3.497410	0.110740	0.009334	99
Es	0.085204	-0.574269	0.001492	99
Es	3.184808	1.569803	-0.010334	99
Es	1.070331	-0.927756	-0.585013	99
Es	-1.201305	-0.398069	0.304842	99
Es	-3.241983	-0.575329	0.001631	99
Es	0.835963	-0.575257	0.001630	99
Es	1.100042	0.137324	0.000316	99
Es	2.139031	0.853310	-0.002819	99
Es	3.423180	-0.348759	0.006234	99
Es	2.889050	0.871889	-0.004019	99
Es	1.383843	0.846173	-0.001167	99
Es	-1.202244	-0.939470	-0.007279	99
Es	3.934172	-0.087071	0.003436	99
Es	1.070146	-0.925522	0.589639	99
Es	3.603939	-0.125196	0.004442	99
Es	-0.607656	-0.575340	0.001630	99
Es	3.338685	0.233195	0.247332	99
Es	1.173066	1.214648	0.589404	99
41
Properties=species:S:1:pos:R:3:Z:I:1 energy=-306.77635860214303 field_type=dipole dipole="0.000000 0.000000 0.000000" charge=0
C	-3.242093	-0.575331	0.001633	6
C	-1.798093	-0.575331	0.001633	6
C	-0.607933	-0.575331	0.001633	6
C	0.836067	-0.575331	0.001633	6
C	1.383797	0.846199	-0.001167	6
C	2.889067	0.871889	-0.004017	6
O	3.604097	-0.125441	0.004443	8
H	-3.636083	0.445559	0.013343	1
H	-3.636173	-1.095871	0.879873	1
H	-3.636163	-1.075591	-0.888317	1
H	1.209727	-1.118471	-0.874917	1
H	1.209836	-1.115171	0.880153	1
H	1.044396	1.395549	0.884123	1
H	1.041337	1.392719	-0.887007	1
H	3.338207	1.879949	-0.013037	1
Es	-1.202365	-0.940896	-0.008890	99
Es	3.603945	-0.125197	0.004450	99
Es	2.139992	0.853621	-0.002688	99
Es	1.172798	1.214158	0.588079	99
Es	-1.201348	-0.403336	0.299824	99
Es	1.070515	-0.927207	-0.584088	99
Es	-3.488814	-0.921619	0.578274	99
Es	3.335471	0.234652	0.245101	99
Es	1.170266	1.212470	-0.591046	99
Es	-3.241984	-0.575327	0.001634	99
Es	0.084299	-0.575115	0.001720	99
Es	-1.200921	-0.372437	-0.286112	99
Es	1.100072	0.137118	0.000443	99
Es	3.184808	1.569337	-0.010164	99
Es	3.937302	-0.095398	0.004521	99
Es	3.338459	0.227421	-0.243093	99
Es	2.889050	0.871889	-0.004015	99
Es	1.070516	-0.925156	0.588512	99
Es	1.383840	0.846175	-0.001168	99
Es	-3.488940	-0.908658	-0.582942	99
Es	0.835964	-0.575259	0.001630	99
Es	3.421897	-0.338413	0.006329	99
Es	-3.500255	0.110988	0.009469	99
Es	-1.798389	-0.575314	0.001633	99
Es	-2.493456	-0.573661	0.001638	99
Es	-0.607650	-0.575336	0.001631	99
41
Properties=species:S:1:pos:R:3:Z:I:1 energy=-306.77635860214303 field_type=dipole dipole="0.000000 0.000000 0.000000" charge=0
C	-3.242093	-0.575331	0.001633	6
C	-1.798093	-0.575331	0.001633	6
C	-0.607933	-0.575331	0.001633	6
C	0.836067	-0.575331	0.001633	6
C	1.383797	0.846199	-0.001167	6
C	2.889067	0.871889	-0.004017	6
O	3.604097	-0.125441	0.004443	8
H	-3.636083	0.445559	0.013343	1
H	-3.636173	-1.095871	0.879873	1
H	-3.636163	-1.075591	-0.888317	1
H	1.209727	-1.118471	-0.874917	1
H	1.209836	-1.115171	0.880153	1
H	1.044396	1.395549	0.884123	1
H	1.041337	1.392719	-0.887007	1
H	3.338207	1.879949	-0.013037	1
Es	-3.487487	-0.907177	-0.580064	99
Es	3.184759	1.568963	-0.010630	99
Es	0.835965	-0.575258	0.001633	99
Es	1.169323	1.212872	-0.590568	99
Es	2.889050	0.871888	-0.004014	99
Es	1.071269	-0.925170	0.588215	99
Es	1.099916	0.136834	0.000439	99
Es	-1.202460	-0.932939	0.078274	99
Es	0.083696	-0.575584	0.000985	99
Es	1.070385	-0.926387	-0.583351	99
Es	-3.241983	-0.575325	0.001635	99
Es	3.939258	-0.098679	0.004484	99
Es	-0.607649	-0.575338	0.001637	99
Es	3.603949	-0.125075	0.004442	99
Es	2.140545	0.853611	-0.002577	99
Es	3.333373	0.226804	-0.243110	99
Es	1.383842	0.846172	-0.001166	99
Es	3.425877	-0.329888	0.006519	99
Es	-3.489078	-0.922116	0.576926	99
Es	-1.202385	-0.482230	-0.307834	99
Es	1.173275	1.213112	0.587074	99
Es	-1.798389	-0.575318	0.001635	99
Es	3.334823	0.230113	0.245555	99
Es	-3.502136	0.110736	0.008607	99
Es	-1.199783	-0.301220	0.235134	99
Es	-2.492883	-0.573904	0.000801	99
41
Properties=species:S:1:pos:R:3:Z:I:1 energy=-306.77635860214303 field_type=dipole dipole="0.000000 0.000000 0.000000" charge=0
C	-3.242093	-0.575331	0.001633	6
C	-1.798093	-0.575331	0.001633	6
C	-0.607933	-0.575331	0.001633	6
C	0.836067	-0.575331	0.001633	6
C	1.383797	0.846199	-0.001167	6
C	2.889067	0.871889	-0.004017	6
O	3.604097	-0.125441	0.004443	8
H	-3.636083	0.445559	0.013343	1
H	-3.636173	-1.095871	0.879873	1
H	-3.636163	-1.075591	-0.888317	1
H	1.209727	-1.118471	-0.874917	1
H	1.209836	-1.115171	0.880153	1
H	1.044396	1.395549	0.884123	1
H	1.041337	1.392719	-0.887007	1
H	3.338207	1.879949	-0.013037	1
Es	3.603946	-0.125161	0.004436	99
Es	1.071733	-0.925115	0.587845	99
Es	2.889053	0.871892	-0.004015	99
Es	1.173210	1.212619	0.586730	99
Es	-3.241986	-0.575329	0.001633	99
Es	0.083255	-0.575459	0.000935	99
Es	1.168926	1.212812	-0.590085	99
Es	3.330615	0.225508	-0.243130	99
Es	1.100015	0.136540	0.000279	99
Es	-2.492517	-0.574230	0.000676	99
Es	-1.199437	-0.273480	0.205454	99
Es	3.940382	-0.102609	0.003968	99
Es	-3.486486	-0.906375	-0.578108	99
Es	2.140894	0.853544	-0.002645	99
Es	-3.503655	0.110414	0.008071	99
Es	1.070340	-0.925845	-0.582916	99
Es	-0.607648	-0.575355	0.001633	99
Es	-1.202724	-0.515513	-0.299386	99
Es	3.334106	0.228105	0.245970	99
Es	3.428444	-0.322344	0.006773	99
Es	3.184669	1.568570	-0.010746	99
Es	1.383842	0.846173	-0.001166	99
Es	-1.798391	-0.575312	0.001632	99
Es	0.835963	-0.575257	0.001632	99
Es	-1.202463	-0.927192	0.099645	99
Es	-3.489012	-0.922099	0.575566	99
41
Properties=species:S:1:pos:R:3:Z:I:1 energy=-306.77635860214303 field_type=dipole dipole="0.000000 0.000000 0.000000" charge=0
C	-3.242093	-0.575331	0.001633	6
C	-1.798093	-0.575331	0.001633	6
C	-0.607933	-0.575331	0.001633	6
C	0.836067	-0.575331	0.001633	6
C	1.383797	0.846199	-0.001167	6
C	2.889067	0.871889	-0.004017	6
O	3.604097	-0.125441	0.004443	8
H	-3.636083	0.445559	0.013343	1
H	-3.636173	-1.095871	0.879873	1
H	-3.636163	-1.075591	-0.888317	1
H	1.209727	-1.118471	-0.874917	1
H	1.209836	-1.115171	0.880153	1
H	1.044396	1.395549	0.884123	1
H	1.041337	1.392719	-0.887007	1
H	3.338207	1.879949	-0.013037	1
Es	1.171954	1.213374	0.586718	99
Es	3.331051	0.227746	0.246595	99
Es	-3.504443	0.110036	0.010215	99
Es	3.330419	0.222771	-0.244127	99
Es	-2.492303	-0.574626	0.002286	99
Es	1.070508	-0.923069	0.587273	99
Es	-3.241983	-0.575329	0.001633	99
Es	2.889049	0.871890	-0.004017	99
Es	3.603926	-0.125173	0.004431	99
Es	-1.202396	-0.923063	-0.108830	99
Es	0.835965	-0.575259	0.001638	99
Es	3.431295	-0.314003	0.006637	99
Es	1.169776	1.211563	-0.589542	99
Es	-1.199274	-0.254623	-0.177398	99
Es	-3.488060	-0.907923	-0.578879	99
Es	1.383841	0.846173	-0.001167	99
Es	-1.202923	-0.538175	0.290268	99
Es	0.082952	-0.575400	0.002329	99
Es	-1.798389	-0.575316	0.001635	99
Es	1.072149	-0.927213	-0.583053	99
Es	-3.486970	-0.919921	0.573092	99
Es	-0.607647	-0.575340	0.001634	99
Es	1.099844	0.136284	0.000341	99
Es	3.941023	-0.107621	0.003477	99
Es	2.141163	0.853491	-0.002676	99
Es	3.184545	1.568224	-0.009832	99
41
Properties=species:S:1:pos:R:3:Z:I:1 energy=-306.77635860214303 field_type=dipole dipole="0.000000 0.000000 0.000000" charge=0
C	-3.242093	-0.575331	0.001633	6
C	-1.798093	-0.575331	0.001633	6
C	-0.607933	-0.575331	0.001633	6
C	0.836067	-0.575331	0.001633	6
C	1.383797	0.846199	-0.001167	6
C	2.889067	0.871889	-0.004017	6
O	3.604097	-0.125441	0.004443	8
H	-3.636083	0.445559	0.013343	1
H	-3.636173	-1.095871	0.879873	1
H	-3.636163	-1.075591	-0.888317	1
H	1.209727	-1.118471	-0.874917	1
H	1.209836	-1.115171	0.880153	1
H	1.044396	1.395549	0.884123	1
H	1.041337	1.392719	-0.887007	1
H	3.338207	1.879949	-0.013037	1
Es	1.173053	1.212261	0.585903	99
Es	-3.488300	-0.921739	0.573174	99
Es	-3.241994	-0.575333	0.001627	99
Es	-1.199211	-0.248156	0.168989	99
Es	-0.607647	-0.575341	0.001635	99
Es	3.328596	0.220503	-0.244506	99
Es	-1.202392	-0.921766	0.116286	99
Es	-1.798392	-0.575309	0.001627	99
Es	3.941625	-0.107430	0.004551	99
Es	3.435323	-0.309374	0.006217	99
Es	0.082726	-0.575363	0.000994	99
Es	-1.202969	-0.545890	-0.279570	99
Es	1.072264	-0.924732	0.587317	99
Es	3.328328	0.225285	0.247176	99
Es	0.835963	-0.575256	0.001632	99
Es	-2.492119	-0.574724	0.000776	99
Es	1.383842	0.846172	-0.001167	99
Es	3.603938	-0.125135	0.004440	99
Es	1.070643	-0.925154	-0.582491	99
Es	2.141355	0.853490	-0.002620	99
Es	-3.505797	0.109715	0.008336	99
Es	2.889049	0.871889	-0.004017	99
Es	1.099654	0.136044	0.000486	99
Es	1.168621	1.212406	-0.589419	99
Es	-3.485606	-0.905568	-0.576079	99
Es	3.184518	1.568006	-0.010616	99
41
Properties=species:S:1:pos:R:3:Z:I:1 energy=-306.77635860214303 field_type=dipole dipole="0.000000 0.000000 0.000000" charge=0
C	-3.242093	-0.575331	0.001633	6
C	-1.798093	-0.575331	0.001633	6
C	-0.607933	-0.575331	0.001633	6
C	0.836067	-0.575331	0.001633	6
C	1.383797	0.846199	-0.001167	6
C	2.889067	0.871889	-0.004017	6
O	3.604097	-0.125441	0.004443	8
H	-3.636083	0.445559	0.013343	1
H	-3.636173	-1.095871	0.879873	1
H	-3.636163	-1.075591	-0.888317	1
H	1.209727	-1.118471	-0.874917	1
H	1.209836	-1.115171	0.880153	1
H	1.044396	1.395549	0.884123	1
H	1.041337	1.392719	-0.887007	1
H	3.338207	1.879949	-0.013037	1
Es	1.171589	1.213293	0.586166	99
Es	-3.487511	-0.907908	-0.576822	99
Es	3.438571	-0.304217	0.006681	99
Es	1.383842	0.846173	-0.001167	99
Es	2.141515	0.853395	-0.002805	99
Es	0.835963	-0.575257	0.001633	99
Es	3.325797	0.224621	0.247471	99
Es	0.082568	-0.575237	0.002248	99
Es	3.941916	-0.108829	0.004016	99
Es	-1.202995	-0.548138	0.272026	99
Es	1.072083	-0.926208	-0.582678	99
Es	3.327803	0.217591	-0.245556	99
Es	-3.241988	-0.575329	0.001634	99
Es	1.099417	0.135823	0.000205	99
Es	-1.798392	-0.575309	0.001635	99
Es	-1.202311	-0.923599	-0.108014	99
Es	1.169869	1.211060	-0.588739	99
Es	-2.491988	-0.574939	0.002265	99
Es	3.603843	-0.125175	0.004443	99
Es	-3.485770	-0.918905	0.570919	99
Es	-3.506617	0.109362	0.010262	99
Es	-1.199263	-0.243981	-0.159838	99
Es	3.184449	1.567835	-0.009877	99
Es	-0.607646	-0.575346	0.001634	99
Es	2.889049	0.871889	-0.004015	99
Es	1.071278	-0.923164	0.586958	99
41
Properties=species:S:1:pos:R:3:Z:I:1 energy=-306.77635860214303 field_type=dipole dipole="0.000000 0.000000 0.000000" charge=0
C	-3.242093	-0.575331	0.001633	6
C	-1.798093	-0.575331	0.001633	6
C	-0.607933	-0.575331	0.001633	6
C	0.836067	-0.575331	0.001633	6
C	1.383797	0.846199	-0.001167	6
C	2.889067	0.871889	-0.004017	6
O	3.604097	-0.125441	0.004443	8
H	-3.636083	0.445559	0.013343	1
H	-3.636173	-1.095871	0.879873	1
H	-3.636163	-1.075591	-0.888317	1
H	1.209727	-1.118471	-0.874917	1
H	1.209836	-1.115171	0.880153	1
H	1.044396	1.395549	0.884123	1
H	1.041337	1.392719	-0.887007	1
H	3.338207	1.879949	-0.013037	1
Es	-3.507094	0.109147	0.007824	99
Es	1.383842	0.846171	-0.001167	99
Es	1.172782	1.211882	0.585619	99
Es	1.168450	1.212184	-0.588902	99
Es	3.184328	1.567560	-0.010629	99
Es	0.082425	-0.575216	0.001048	99
Es	3.441215	-0.300089	0.006457	99
Es	3.942258	-0.109352	0.003528	99
Es	3.603951	-0.125177	0.004441	99
Es	-3.241983	-0.575330	0.001632	99
Es	-0.607646	-0.575344	0.001627	99
Es	-3.485294	-0.905581	-0.574440	99
Es	1.099548	0.135814	0.000394	99
Es	2.141626	0.853384	-0.002628	99
Es	-3.487654	-0.920755	0.571944	99
Es	3.323431	0.217804	-0.245231	99
Es	-1.798393	-0.575306	0.001635	99
Es	-2.491888	-0.575294	0.000901	99
Es	0.835964	-0.575257	0.001630	99
Es	2.889050	0.871889	-0.004021	99
Es	1.072047	-0.923784	0.586924	99
Es	1.071432	-0.925309	-0.582221	99
Es	-1.202320	-0.921554	0.117106	99
Es	-1.199198	-0.237428	0.149826	99
Es	-1.203041	-0.556539	-0.261296	99
Es	3.327235	0.220978	0.248681	99
