47
Properties=species:S:1:pos:R:3:Z:I:1 energy=-309.14580695257706 field_type=dipole dipole="0.000000 0.000000 0.000000" charge=0
C	-2.853203	-1.027316	0.819484	6
C	-1.341343	-1.007136	0.651944	6
C	-0.816693	0.420274	0.495374	6
C	0.677567	0.439154	0.333334	6
C	1.306747	0.938124	-0.742596	6
C	2.789107	0.978344	-0.911216	6
O	3.126437	0.239624	-2.073606	8
H	-3.207793	-2.055996	0.935854	1
H	-3.349713	-0.593416	-0.053856	1
H	-3.156863	-0.460706	1.705094	1
H	-1.069433	-1.607076	-0.225416	1
H	-0.878463	-1.485206	1.524314	1
H	-1.076323	1.010124	1.381834	1
H	-1.304973	0.900294	-0.361246	1
H	1.259047	0.031024	1.159494	1
H	0.727957	1.357334	-1.562376	1
H	3.322297	0.549284	-0.057076	1
H	3.127227	2.010574	-1.045706	1
H	2.718417	-0.637306	-1.973636	1
Es	3.429692	0.200514	-2.068741	99
Es	-0.987042	0.817927	1.101272	99
Es	1.068772	0.157471	0.899057	99
Es	2.789114	0.978224	-0.911406	99
Es	-3.188828	-0.728316	0.221392	99
Es	-0.816645	0.420248	0.495375	99
Es	-3.057009	-0.637555	1.425087	99
Es	2.902618	-0.228269	-1.997859	99
Es	-1.146956	0.745462	-0.093745	99
Es	-2.853182	-1.027317	0.819482	99
Es	0.677502	0.439112	0.333426	99
Es	0.918129	1.222461	-1.302608	99
Es	3.013296	1.681150	-1.003197	99
Es	2.039521	0.959585	-0.812462	99
Es	1.306805	0.938157	-0.742671	99
Es	-1.020770	-1.330551	1.252896	99
Es	-2.101442	-1.012279	0.736503	99
Es	3.126412	0.239442	-2.073176	99
Es	-3.094674	-1.730042	0.898815	99
Es	3.145353	0.683359	-0.312745	99
Es	0.995629	0.384257	-0.358063	99
Es	-1.154233	-1.414126	0.048490	99
Es	-0.062903	0.428842	0.410296	99
Es	-1.067917	-0.287661	0.573149	99
Es	2.985162	0.502668	-1.623666	99
Es	1.012031	0.982731	-0.069825	99
Es	-1.341368	-1.007096	0.651950	99
Es	2.978063	0.374156	-2.307456	99
47
Properties=species:S:1:pos:R:3:Z:I:1 energy=-309.14580695257706 field_type=dipole dipole="0.000000 0.000000 0.000000" charge=0
C	-2.853203	-1.027316	0.819484	6
C	-1.341343	-1.007136	0.651944	6
C	-0.816693	0.420274	0.495374	6
C	0.677567	0.439154	0.333334	6
C	1.306747	0.938124	-0.742596	6
C	2.789107	0.978344	-0.911216	6
O	3.126437	0.239624	-2.073606	8
H	-3.207793	-2.055996	0.935854	1
H	-3.349713	-0.593416	-0.053856	1
H	-3.156863	-0.460706	1.705094	1
H	-1.069433	-1.607076	-0.225416	1
H	-0.878463	-1.485206	1.524314	1
H	-1.076323	1.010124	1.381834	1
H	-1.304973	0.900294	-0.361246	1
H	1.259047	0.031024	1.159494	1
H	0.727957	1.357334	-1.562376	1
H	3.322297	0.549284	-0.057076	1
H	3.127227	2.010574	-1.045706	1
H	2.718417	-0.637306	-1.973636	1
Es	2.987972	0.502739	-1.621919	99
Es	0.995689	0.382617	-0.358893	99
Es	3.013346	1.682003	-1.002876	99
Es	-3.188410	-0.728279	0.221461	99
Es	-0.986902	0.818407	1.101459	99
Es	3.126245	0.239515	-2.073354	99
Es	-1.154513	-1.414608	0.048349	99
Es	2.902742	-0.229262	-1.998466	99
Es	-1.021206	-1.330556	1.253055	99
Es	-1.067875	-0.287590	0.573091	99
Es	-0.063105	0.428637	0.410671	99
Es	2.039517	0.959351	-0.812852	99
Es	1.068193	0.157455	0.898780	99
Es	1.011967	0.984540	-0.068939	99
Es	0.677503	0.439114	0.333425	99
Es	-3.056728	-0.637108	1.425351	99
Es	3.424214	0.198904	-2.066563	99
Es	-1.341367	-1.007098	0.651950	99
Es	-3.094600	-1.730653	0.898694	99
Es	1.306807	0.938156	-0.742673	99
Es	-1.146417	0.745372	-0.093891	99
Es	2.980828	0.376694	-2.310668	99
Es	3.144690	0.683035	-0.313064	99
Es	-2.101435	-1.012217	0.736368	99
Es	-2.853182	-1.027317	0.819482	99
Es	0.918687	1.222234	-1.302385	99
Es	-0.816644	0.420250	0.495378	99
Es	2.789112	0.978220	-0.911402	99
47
Properties=species:S:1:pos:R:3:Z:I:1 energy=-309.14580695257706 field_type=dipole dipole="0.000000 0.000000 0.000000" charge=0
C	-2.853203	-1.027316	0.819484	6
C	-1.341343	-1.007136	0.651944	6
C	-0.816693	0.420274	0.495374	6
C	0.677567	0.439154	0.333334	6
C	1.306747	0.938124	-0.742596	6
C	2.789107	0.978344	-0.911216	6
O	3.126437	0.239624	-2.073606	8
H	-3.207793	-2.055996	0.935854	1
H	-3.349713	-0.593416	-0.053856	1
H	-3.156863	-0.460706	1.705094	1
H	-1.069433	-1.607076	-0.225416	1
H	-0.878463	-1.485206	1.524314	1
H	-1.076323	1.010124	1.381834	1
H	-1.304973	0.900294	-0.361246	1
H	1.259047	0.031024	1.159494	1
H	0.727957	1.357334	-1.562376	1
H	3.322297	0.549284	-0.057076	1
H	3.127227	2.010574	-1.045706	1
H	2.718417	-0.637306	-1.973636	1
Es	3.144260	0.682873	-0.313635	99
Es	-2.853183	-1.027318	0.819484	99
Es	3.126068	0.239553	-2.073376	99
Es	-0.816644	0.420248	0.495378	99
Es	2.789111	0.978221	-0.911403	99
Es	2.984615	0.502958	-1.623420	99
Es	3.013626	1.682402	-1.002471	99
Es	3.414101	0.192998	-2.049878	99
Es	-3.094709	-1.730884	0.898493	99
Es	-1.341367	-1.007098	0.651950	99
Es	1.067881	0.157496	0.898274	99
Es	0.677494	0.439112	0.333427	99
Es	-3.188155	-0.728382	0.221792	99
Es	-0.062959	0.428367	0.410738	99
Es	2.996590	0.381992	-2.323933	99
Es	-1.154612	-1.414872	0.048326	99
Es	-2.101315	-1.012280	0.736307	99
Es	1.012022	0.986068	-0.068298	99
Es	1.306807	0.938155	-0.742673	99
Es	0.919051	1.221811	-1.302158	99
Es	-1.067960	-0.287467	0.573131	99
Es	0.995576	0.381936	-0.359183	99
Es	2.900740	-0.228733	-2.000429	99
Es	-1.146313	0.745150	-0.093571	99
Es	-1.021365	-1.330452	1.252934	99
Es	-0.986848	0.818646	1.101426	99
Es	-3.056720	-0.636841	1.425491	99
Es	2.039339	0.958895	-0.813153	99
47
Properties=species:S:1:pos:R:3:Z:I:1 energy=-309.14580695257706 field_type=dipole dipole="0.000000 0.000000 0.000000" charge=0
C	-2.853203	-1.027316	0.819484	6
C	-1.341343	-1.007136	0.651944	6
C	-0.816693	0.420274	0.495374	6
C	0.677567	0.439154	0.333334	6
C	1.306747	0.938124	-0.742596	6
C	2.789107	0.978344	-0.911216	6
O	3.126437	0.239624	-2.073606	8
H	-3.207793	-2.055996	0.935854	1
H	-3.349713	-0.593416	-0.053856	1
H	-3.156863	-0.460706	1.705094	1
H	-1.069433	-1.607076	-0.225416	1
H	-0.878463	-1.485206	1.524314	1
H	-1.076323	1.010124	1.381834	1
H	-1.304973	0.900294	-0.361246	1
H	1.259047	0.031024	1.159494	1
H	0.727957	1.357334	-1.562376	1
H	3.322297	0.549284	-0.057076	1
H	3.127227	2.010574	-1.045706	1
H	2.718417	-0.637306	-1.973636	1
Es	2.980211	0.504887	-1.626160	99
Es	0.919212	1.221509	-1.301780	99
Es	-0.062735	0.428078	0.410860	99
Es	3.126379	0.239438	-2.073211	99
Es	1.306807	0.938160	-0.742670	99
Es	1.067747	0.157658	0.897707	99
Es	3.031723	0.388347	-2.345220	99
Es	-3.056991	-0.636920	1.425422	99
Es	-1.154556	-1.414945	0.048545	99
Es	-2.101363	-1.012211	0.736536	99
Es	0.995474	0.381773	-0.359236	99
Es	-1.021183	-1.330190	1.252503	99
Es	2.789113	0.978224	-0.911403	99
Es	3.387444	0.183354	-2.023675	99
Es	2.896483	-0.227023	-2.002788	99
Es	-0.986906	0.818669	1.101158	99
Es	1.012045	0.986606	-0.068114	99
Es	3.013873	1.682399	-1.002214	99
Es	-3.188223	-0.728569	0.222128	99
Es	-3.094772	-1.730782	0.898384	99
Es	3.144228	0.682934	-0.314190	99
Es	0.677501	0.439111	0.333426	99
Es	2.039241	0.958626	-0.813192	99
Es	-0.816644	0.420249	0.495377	99
Es	-1.146385	0.744949	-0.093246	99
Es	-1.341367	-1.007098	0.651950	99
Es	-2.853182	-1.027317	0.819483	99
Es	-1.068045	-0.287363	0.573185	99
47
Properties=species:S:1:pos:R:3:Z:I:1 energy=-309.14580695257706 field_type=dipole dipole="0.000000 0.000000 0.000000" charge=0
C	-2.853203	-1.027316	0.819484	6
C	-1.341343	-1.007136	0.651944	6
C	-0.816693	0.420274	0.495374	6
C	0.677567	0.439154	0.333334	6
C	1.306747	0.938124	-0.742596	6
C	2.789107	0.978344	-0.911216	6
O	3.126437	0.239624	-2.073606	8
H	-3.207793	-2.055996	0.935854	1
H	-3.349713	-0.593416	-0.053856	1
H	-3.156863	-0.460706	1.705094	1
H	-1.069433	-1.607076	-0.225416	1
H	-0.878463	-1.485206	1.524314	1
H	-1.076323	1.010124	1.381834	1
H	-1.304973	0.900294	-0.361246	1
H	1.259047	0.031024	1.159494	1
H	0.727957	1.357334	-1.562376	1
H	3.322297	0.549284	-0.057076	1
H	3.127227	2.010574	-1.045706	1
H	2.718417	-0.637306	-1.973636	1
Es	-2.101344	-1.012088	0.736429	99
Es	-0.062498	0.428185	0.411045	99
Es	-3.188563	-0.728789	0.222441	99
Es	3.126000	0.239573	-2.073402	99
Es	2.039274	0.958776	-0.813330	99
Es	0.919076	1.221441	-1.301400	99
Es	-0.987079	0.818386	1.100936	99
Es	-1.068066	-0.287315	0.573159	99
Es	1.067874	0.157651	0.897363	99
Es	1.012094	0.986116	-0.068235	99
Es	3.070902	0.390503	-2.359838	99
Es	-3.057133	-0.637074	1.425214	99
Es	-1.341367	-1.007097	0.651949	99
Es	-1.146596	0.744902	-0.093015	99
Es	2.893907	-0.225888	-2.004109	99
Es	3.014019	1.682044	-1.002084	99
Es	-3.094856	-1.730521	0.898522	99
Es	-0.816644	0.420249	0.495377	99
Es	3.354767	0.178688	-2.005006	99
Es	0.677500	0.439106	0.333425	99
Es	1.306806	0.938155	-0.742671	99
Es	3.144319	0.682987	-0.314358	99
Es	-1.154499	-1.414666	0.048754	99
Es	-1.020864	-1.330187	1.252265	99
Es	0.995354	0.382138	-0.359205	99
Es	2.789112	0.978223	-0.911402	99
Es	-2.853182	-1.027317	0.819483	99
Es	2.976818	0.506373	-1.628741	99
47
Properties=species:S:1:pos:R:3:Z:I:1 energy=-309.14580695257706 field_type=dipole dipole="0.000000 0.000000 0.000000" charge=0
C	-2.853203	-1.027316	0.819484	6
C	-1.341343	-1.007136	0.651944	6
C	-0.816693	0.420274	0.495374	6
C	0.677567	0.439154	0.333334	6
C	1.306747	0.938124	-0.742596	6
C	2.789107	0.978344	-0.911216	6
O	3.126437	0.239624	-2.073606	8
H	-3.207793	-2.055996	0.935854	1
H	-3.349713	-0.593416	-0.053856	1
H	-3.156863	-0.460706	1.705094	1
H	-1.069433	-1.607076	-0.225416	1
H	-0.878463	-1.485206	1.524314	1
H	-1.076323	1.010124	1.381834	1
H	-1.304973	0.900294	-0.361246	1
H	1.259047	0.031024	1.159494	1
H	0.727957	1.357334	-1.562376	1
H	3.322297	0.549284	-0.057076	1
H	3.127227	2.010574	-1.045706	1
H	2.718417	-0.637306	-1.973636	1
Es	-1.021374	-1.332022	1.255807	99
Es	3.421817	0.271077	-2.205982	99
Es	-3.188385	-0.726891	0.218803	99
Es	0.918996	1.222907	-1.304010	99
Es	3.126515	0.239331	-2.073050	99
Es	1.306807	0.938157	-0.742673	99
Es	0.995326	0.382572	-0.358930	99
Es	-1.146379	0.746704	-0.096268	99
Es	-0.063157	0.427754	0.411580	99
Es	-2.853182	-1.027317	0.819483	99
Es	-1.156036	-1.414041	0.048495	99
Es	2.039100	0.958686	-0.813576	99
Es	1.012102	0.985862	-0.068475	99
Es	0.677500	0.439109	0.333429	99
Es	3.012448	1.682517	-1.002765	99
Es	2.789112	0.978222	-0.911402	99
Es	1.068065	0.156258	0.899916	99
Es	-0.985461	0.817659	1.101242	99
Es	2.939797	0.319696	-2.188535	99
Es	-3.093513	-1.730782	0.899641	99
Es	-1.341367	-1.007098	0.651950	99
Es	-2.101235	-1.012081	0.736461	99
Es	3.007922	0.495568	-1.615061	99
Es	-1.068054	-0.287277	0.573078	99
Es	-3.055501	-0.637840	1.425411	99
Es	2.925959	-0.236127	-1.988543	99
Es	-0.816645	0.420249	0.495377	99
Es	3.143955	0.681700	-0.311834	99
47
Properties=species:S:1:pos:R:3:Z:I:1 energy=-309.14580695257706 field_type=dipole dipole="0.000000 0.000000 0.000000" charge=0
C	-2.853203	-1.027316	0.819484	6
C	-1.341343	-1.007136	0.651944	6
C	-0.816693	0.420274	0.495374	6
C	0.677567	0.439154	0.333334	6
C	1.306747	0.938124	-0.742596	6
C	2.789107	0.978344	-0.911216	6
O	3.126437	0.239624	-2.073606	8
H	-3.207793	-2.055996	0.935854	1
H	-3.349713	-0.593416	-0.053856	1
H	-3.156863	-0.460706	1.705094	1
H	-1.069433	-1.607076	-0.225416	1
H	-0.878463	-1.485206	1.524314	1
H	-1.076323	1.010124	1.381834	1
H	-1.304973	0.900294	-0.361246	1
H	1.259047	0.031024	1.159494	1
H	0.727957	1.357334	-1.562376	1
H	3.322297	0.549284	-0.057076	1
H	3.127227	2.010574	-1.045706	1
H	2.718417	-0.637306	-1.973636	1
Es	-1.155980	-1.413315	0.048901	99
Es	-1.147171	0.746888	-0.096312	99
Es	0.677500	0.439109	0.333428	99
Es	2.932272	-0.237600	-1.986877	99
Es	1.012207	0.984395	-0.069095	99
Es	-1.068056	-0.287332	0.573218	99
Es	-0.062728	0.427920	0.411573	99
Es	-0.985460	0.816953	1.100746	99
Es	0.995218	0.383952	-0.358357	99
Es	3.011759	0.494976	-1.613915	99
Es	2.039203	0.958825	-0.813603	99
Es	3.012292	1.681927	-1.003007	99
Es	-3.093513	-1.730110	0.900032	99
Es	-3.189326	-0.726747	0.218740	99
Es	-2.853182	-1.027317	0.819482	99
Es	3.144468	0.681814	-0.311525	99
Es	-2.101254	-1.012096	0.736363	99
Es	2.957459	0.295740	-2.147125	99
Es	0.918364	1.223164	-1.304019	99
Es	1.306807	0.938157	-0.742673	99
Es	-1.020597	-1.332215	1.255814	99
Es	-3.055427	-0.638560	1.425018	99
Es	-1.341367	-1.007098	0.651950	99
Es	-0.816644	0.420248	0.495377	99
Es	1.068591	0.155978	0.899991	99
Es	3.126334	0.239460	-2.073243	99
Es	3.394249	0.297212	-2.249919	99
Es	2.789113	0.978227	-0.911397	99
47
Properties=species:S:1:pos:R:3:Z:I:1 energy=-309.14580695257706 field_type=dipole dipole="0.000000 0.000000 0.000000" charge=0
C	-2.853203	-1.027316	0.819484	6
C	-1.341343	-1.007136	0.651944	6
C	-0.816693	0.420274	0.495374	6
C	0.677567	0.439154	0.333334	6
C	1.306747	0.938124	-0.742596	6
C	2.789107	0.978344	-0.911216	6
O	3.126437	0.239624	-2.073606	8
H	-3.207793	-2.055996	0.935854	1
H	-3.349713	-0.593416	-0.053856	1
H	-3.156863	-0.460706	1.705094	1
H	-1.069433	-1.607076	-0.225416	1
H	-0.878463	-1.485206	1.524314	1
H	-1.076323	1.010124	1.381834	1
H	-1.304973	0.900294	-0.361246	1
H	1.259047	0.031024	1.159494	1
H	0.727957	1.357334	-1.562376	1
H	3.322297	0.549284	-0.057076	1
H	3.127227	2.010574	-1.045706	1
H	2.718417	-0.637306	-1.973636	1
Es	1.306807	0.938159	-0.742674	99
Es	-3.189579	-0.726699	0.218574	99
Es	0.995216	0.384534	-0.358078	99
Es	-0.816643	0.420248	0.495376	99
Es	0.677500	0.439107	0.333427	99
Es	-3.093541	-1.729729	0.900184	99
Es	-3.055497	-0.638858	1.424823	99
Es	-1.156031	-1.412905	0.049220	99
Es	-1.341369	-1.007096	0.651951	99
Es	-0.985478	0.816571	1.100483	99
Es	-1.020244	-1.332407	1.255822	99
Es	2.933462	-0.238026	-1.986309	99
Es	2.970866	0.285407	-2.132077	99
Es	1.012216	0.983787	-0.069380	99
Es	3.144719	0.681871	-0.311493	99
Es	3.010182	0.496375	-1.614457	99
Es	3.012302	1.681545	-1.003005	99
Es	-1.147546	0.746956	-0.096364	99
Es	-0.062523	0.427895	0.411578	99
Es	-2.853182	-1.027317	0.819483	99
Es	-1.068033	-0.287157	0.573239	99
Es	3.126825	0.239071	-2.072671	99
Es	2.789112	0.978223	-0.911402	99
Es	-2.101263	-1.012243	0.736443	99
Es	1.068757	0.155912	0.900000	99
Es	3.380824	0.307174	-2.265569	99
Es	0.918146	1.223229	-1.304009	99
Es	2.039127	0.958928	-0.813546	99
47
Properties=species:S:1:pos:R:3:Z:I:1 energy=-309.14580695257706 field_type=dipole dipole="0.000000 0.000000 0.000000" charge=0
C	-2.853203	-1.027316	0.819484	6
C	-1.341343	-1.007136	0.651944	6
C	-0.816693	0.420274	0.495374	6
C	0.677567	0.439154	0.333334	6
C	1.306747	0.938124	-0.742596	6
C	2.789107	0.978344	-0.911216	6
O	3.126437	0.239624	-2.073606	8
H	-3.207793	-2.055996	0.935854	1
H	-3.349713	-0.593416	-0.053856	1
H	-3.156863	-0.460706	1.705094	1
H	-1.069433	-1.607076	-0.225416	1
H	-0.878463	-1.485206	1.524314	1
H	-1.076323	1.010124	1.381834	1
H	-1.304973	0.900294	-0.361246	1
H	1.259047	0.031024	1.159494	1
H	0.727957	1.357334	-1.562376	1
H	3.322297	0.549284	-0.057076	1
H	3.127227	2.010574	-1.045706	1
H	2.718417	-0.637306	-1.973636	1
Es	2.789112	0.978226	-0.911398	99
Es	0.995073	0.383892	-0.358514	99
Es	2.892420	-0.225116	-2.004619	99
Es	-1.154698	-1.413712	0.049462	99
Es	2.039211	0.958599	-0.813626	99
Es	1.012311	0.984714	-0.068785	99
Es	1.068505	0.157279	0.897284	99
Es	3.280887	0.182241	-1.991407	99
Es	-0.061935	0.428156	0.411542	99
Es	-0.986927	0.817245	1.100106	99
Es	-2.101400	-1.012217	0.736595	99
Es	3.125992	0.239566	-2.073384	99
Es	-1.068090	-0.287175	0.573259	99
Es	-1.341367	-1.007099	0.651950	99
Es	-0.816645	0.420249	0.495378	99
Es	1.306808	0.938156	-0.742674	99
Es	-2.853182	-1.027317	0.819483	99
Es	-3.056956	-0.638204	1.424788	99
Es	-3.189688	-0.728345	0.221804	99
Es	3.013818	1.681285	-1.002187	99
Es	-1.147657	0.745245	-0.093467	99
Es	3.150330	0.385615	-2.369530	99
Es	2.972949	0.507678	-1.632102	99
Es	0.677499	0.439111	0.333428	99
Es	3.144853	0.682851	-0.314115	99
Es	-3.094733	-1.729463	0.899101	99
Es	-1.019808	-1.330504	1.252682	99
Es	0.918448	1.221598	-1.301485	99
47
Properties=species:S:1:pos:R:3:Z:I:1 energy=-309.14580695257706 field_type=dipole dipole="0.000000 0.000000 0.000000" charge=0
C	-2.853203	-1.027316	0.819484	6
C	-1.341343	-1.007136	0.651944	6
C	-0.816693	0.420274	0.495374	6
C	0.677567	0.439154	0.333334	6
C	1.306747	0.938124	-0.742596	6
C	2.789107	0.978344	-0.911216	6
O	3.126437	0.239624	-2.073606	8
H	-3.207793	-2.055996	0.935854	1
H	-3.349713	-0.593416	-0.053856	1
H	-3.156863	-0.460706	1.705094	1
H	-1.069433	-1.607076	-0.225416	1
H	-0.878463	-1.485206	1.524314	1
H	-1.076323	1.010124	1.381834	1
H	-1.304973	0.900294	-0.361246	1
H	1.259047	0.031024	1.159494	1
H	0.727957	1.357334	-1.562376	1
H	3.322297	0.549284	-0.057076	1
H	3.127227	2.010574	-1.045706	1
H	2.718417	-0.637306	-1.973636	1
Es	-3.094664	-1.729217	0.899283	99
Es	1.012370	0.984268	-0.068990	99
Es	1.306808	0.938156	-0.742674	99
Es	0.994965	0.384264	-0.358382	99
Es	3.126005	0.239582	-2.073401	99
Es	2.973529	0.507855	-1.632070	99
Es	-3.190087	-0.728211	0.221710	99
Es	3.145017	0.682813	-0.313974	99
Es	0.677499	0.439110	0.333427	99
Es	-0.986828	0.816993	1.100045	99
Es	-1.341367	-1.007098	0.651950	99
Es	3.267390	0.184455	-1.992534	99
Es	1.068695	0.157203	0.897322	99
Es	-3.056731	-0.638471	1.424762	99
Es	-2.101306	-1.012272	0.736338	99
Es	3.013679	1.681086	-1.002209	99
Es	-2.853182	-1.027317	0.819482	99
Es	2.039215	0.958584	-0.813742	99
Es	-0.061822	0.428130	0.411655	99
Es	2.789112	0.978223	-0.911400	99
Es	0.918215	1.221695	-1.301517	99
Es	-1.147883	0.745376	-0.093574	99
Es	-1.154833	-1.413538	0.049687	99
Es	3.162832	0.383793	-2.369086	99
Es	-1.019658	-1.330645	1.252921	99
Es	-0.816644	0.420249	0.495377	99
Es	2.892896	-0.225494	-2.003950	99
Es	-1.068090	-0.287018	0.573112	99
47
Properties=species:S:1:pos:R:3:Z:I:1 energy=-309.14580695257706 field_type=dipole dipole="0.000000 0.000000 0.000000" charge=0
C	-2.853203	-1.027316	0.819484	6
C	-1.341343	-1.007136	0.651944	6
C	-0.816693	0.420274	0.495374	6
C	0.677567	0.439154	0.333334	6
C	1.306747	0.938124	-0.742596	6
C	2.789107	0.978344	-0.911216	6
O	3.126437	0.239624	-2.073606	8
H	-3.207793	-2.055996	0.935854	1
H	-3.349713	-0.593416	-0.053856	1
H	-3.156863	-0.460706	1.705094	1
H	-1.069433	-1.607076	-0.225416	1
H	-0.878463	-1.485206	1.524314	1
H	-1.076323	1.010124	1.381834	1
H	-1.304973	0.900294	-0.361246	1
H	1.259047	0.031024	1.159494	1
H	0.727957	1.357334	-1.562376	1
H	3.322297	0.549284	-0.057076	1
H	3.127227	2.010574	-1.045706	1
H	2.718417	-0.637306	-1.973636	1
Es	-1.148096	0.745548	-0.093782	99
Es	-3.094599	-1.729068	0.899464	99
Es	1.306807	0.938156	-0.742674	99
Es	-1.068135	-0.286974	0.573136	99
Es	0.918131	1.221838	-1.301602	99
Es	2.789112	0.978225	-0.911400	99
Es	-1.341368	-1.007098	0.651950	99
Es	3.173960	0.382104	-2.368070	99
Es	0.677499	0.439111	0.333428	99
Es	-2.853182	-1.027317	0.819483	99
Es	3.013651	1.680954	-1.002223	99
Es	3.145068	0.682734	-0.313870	99
Es	-0.061791	0.428106	0.411693	99
Es	2.893562	-0.225189	-2.004224	99
Es	-3.056716	-0.638614	1.424609	99
Es	2.973406	0.507428	-1.631518	99
Es	1.068780	0.157015	0.897414	99
Es	2.039143	0.958585	-0.813800	99
Es	-1.019447	-1.330803	1.253153	99
Es	-2.101239	-1.012279	0.736405	99
Es	3.256314	0.186520	-1.994268	99
Es	-3.190226	-0.728156	0.221453	99
Es	-0.986636	0.816776	1.099825	99
Es	3.125433	0.239457	-2.072944	99
Es	0.994915	0.384549	-0.358281	99
Es	-0.816645	0.420247	0.495377	99
Es	1.012439	0.984038	-0.069050	99
Es	-1.155007	-1.413339	0.049881	99
47
Properties=species:S:1:pos:R:3:Z:I:1 energy=-309.14580695257706 field_type=dipole dipole="0.000000 0.000000 0.000000" charge=0
C	-2.853203	-1.027316	0.819484	6
C	-1.341343	-1.007136	0.651944	6
C	-0.816693	0.420274	0.495374	6
C	0.677567	0.439154	0.333334	6
C	1.306747	0.938124	-0.742596	6
C	2.789107	0.978344	-0.911216	6
O	3.126437	0.239624	-2.073606	8
H	-3.207793	-2.055996	0.935854	1
H	-3.349713	-0.593416	-0.053856	1
H	-3.156863	-0.460706	1.705094	1
H	-1.069433	-1.607076	-0.225416	1
H	-0.878463	-1.485206	1.524314	1
H	-1.076323	1.010124	1.381834	1
H	-1.304973	0.900294	-0.361246	1
H	1.259047	0.031024	1.159494	1
H	0.727957	1.357334	-1.562376	1
H	3.322297	0.549284	-0.057076	1
H	3.127227	2.010574	-1.045706	1
H	2.718417	-0.637306	-1.973636	1
Es	2.973481	0.507508	-1.632225	99
Es	3.126097	0.239559	-2.073336	99
Es	3.247636	0.189257	-1.995430	99
Es	3.179410	0.381001	-2.368069	99
Es	1.068882	0.157042	0.897462	99
Es	-0.061729	0.428060	0.411687	99
Es	-1.019333	-1.330862	1.253215	99
Es	-1.155037	-1.413206	0.050034	99
Es	-3.094570	-1.728858	0.899487	99
Es	1.012339	0.983953	-0.069139	99
Es	-1.148284	0.745541	-0.093846	99
Es	-2.853182	-1.027317	0.819483	99
Es	2.039103	0.958616	-0.813807	99
Es	1.306808	0.938158	-0.742673	99
Es	3.013562	1.680776	-1.002214	99
Es	-2.101223	-1.012238	0.736304	99
Es	-1.068016	-0.286967	0.573140	99
Es	-0.816644	0.420249	0.495377	99
Es	2.789111	0.978222	-0.911402	99
Es	2.896085	-0.226874	-2.002012	99
Es	-3.056726	-0.638785	1.424596	99
Es	3.145214	0.682788	-0.313868	99
Es	-0.986604	0.816626	1.099742	99
Es	0.677499	0.439110	0.333428	99
Es	0.918039	1.221627	-1.301666	99
Es	-1.341367	-1.007097	0.651950	99
Es	-3.190416	-0.728147	0.221457	99
Es	0.994995	0.384812	-0.358106	99
