39
Properties=species:S:1:pos:R:3:Z:I:1 energy=-342.64440098177874 field_type=dipole dipole="0.000000 0.000000 0.000000" charge=0
C	-2.583814	-0.449329	0.202848	6
C	-1.139814	-0.449329	0.202848	6
C	0.050346	-0.449329	0.202848	6
C	1.494346	-0.449329	0.202848	6
C	2.130246	0.885411	-0.128782	6
O	1.437186	1.670411	-0.986522	8
O	3.237936	1.212041	0.277858	8
H	-2.977704	0.571601	0.213528	1
H	-2.977934	-0.969009	1.081568	1
H	-2.977844	-0.950389	-0.686662	1
H	1.876846	-1.178179	-0.519852	1
H	1.854636	-0.743529	1.195358	1
H	0.575566	1.298961	-1.257892	1
Es	2.744987	1.214544	0.337649	99
Es	-2.827126	0.232601	0.209007	99
Es	-0.539422	-0.259290	0.509112	99
Es	0.050634	-0.449311	0.202838	99
Es	1.437048	1.670053	-0.986368	99
Es	1.735615	-0.910932	-0.281870	99
Es	1.662751	1.345226	-0.658882	99
Es	0.751802	-0.435673	0.191719	99
Es	3.346858	0.992780	0.465311	99
Es	1.622894	1.655855	-1.198647	99
Es	-2.828131	-0.784033	-0.391976	99
Es	0.992012	1.449850	-1.111005	99
Es	-2.583692	-0.449328	0.202846	99
Es	-0.527466	-0.807497	0.201603	99
Es	-2.827175	-0.795825	0.788837	99
Es	1.717350	-0.639625	0.852179	99
Es	3.237627	1.211938	0.277751	99
Es	1.769136	0.223156	0.038579	99
Es	-1.836631	-0.449140	0.202560	99
Es	3.327488	1.481032	0.167932	99
Es	1.494242	-0.449259	0.202805	99
Es	-1.140076	-0.449324	0.202840	99
Es	1.401702	1.895251	-0.820888	99
Es	2.962405	0.982851	-0.057773	99
Es	2.130053	0.885514	-0.128933	99
Es	-0.527325	-0.263676	-0.123198	99
39
Properties=species:S:1:pos:R:3:Z:I:1 energy=-342.64440098177874 field_type=dipole dipole="0.000000 0.000000 0.000000" charge=0
C	-2.583814	-0.449329	0.202848	6
C	-1.139814	-0.449329	0.202848	6
C	0.050346	-0.449329	0.202848	6
C	1.494346	-0.449329	0.202848	6
C	2.130246	0.885411	-0.128782	6
O	1.437186	1.670411	-0.986522	8
O	3.237936	1.212041	0.277858	8
H	-2.977704	0.571601	0.213528	1
H	-2.977934	-0.969009	1.081568	1
H	-2.977844	-0.950389	-0.686662	1
H	1.876846	-1.178179	-0.519852	1
H	1.854636	-0.743529	1.195358	1
H	0.575566	1.298961	-1.257892	1
Es	2.130044	0.885516	-0.128935	99
Es	0.050648	-0.449338	0.202849	99
Es	1.611743	1.735617	-1.198297	99
Es	-2.828231	0.227863	0.210661	99
Es	-2.583689	-0.449329	0.202847	99
Es	-0.526759	-0.266197	-0.116110	99
Es	0.980447	1.455836	-1.113875	99
Es	3.311981	1.472707	0.156352	99
Es	1.437070	1.670004	-0.986407	99
Es	1.736362	-0.906015	-0.277369	99
Es	1.720214	-0.640096	0.849418	99
Es	2.737501	1.215125	0.338491	99
Es	-2.828000	-0.791930	0.784408	99
Es	-0.527590	-0.802011	0.199051	99
Es	1.770782	0.221314	0.038845	99
Es	0.747925	-0.436330	0.193398	99
Es	-1.140090	-0.449325	0.202839	99
Es	3.367236	0.996854	0.465817	99
Es	2.966695	0.986026	-0.049310	99
Es	1.400077	1.819830	-0.792693	99
Es	-0.540134	-0.262010	0.504645	99
Es	3.237621	1.211929	0.277753	99
Es	-1.832390	-0.450062	0.200985	99
Es	1.494241	-0.449259	0.202805	99
Es	1.686149	1.334402	-0.683390	99
Es	-2.832292	-0.783381	-0.390754	99
39
Properties=species:S:1:pos:R:3:Z:I:1 energy=-342.64440098177874 field_type=dipole dipole="0.000000 0.000000 0.000000" charge=0
C	-2.583814	-0.449329	0.202848	6
C	-1.139814	-0.449329	0.202848	6
C	0.050346	-0.449329	0.202848	6
C	1.494346	-0.449329	0.202848	6
C	2.130246	0.885411	-0.128782	6
O	1.437186	1.670411	-0.986522	8
O	3.237936	1.212041	0.277858	8
H	-2.977704	0.571601	0.213528	1
H	-2.977934	-0.969009	1.081568	1
H	-2.977844	-0.950389	-0.686662	1
H	1.876846	-1.178179	-0.519852	1
H	1.854636	-0.743529	1.195358	1
H	0.575566	1.298961	-1.257892	1
Es	1.735714	-0.903690	-0.274135	99
Es	-2.833987	-0.783629	-0.390004	99
Es	3.208538	1.394968	0.146343	99
Es	3.237565	1.211795	0.277802	99
Es	2.971965	0.977140	-0.036706	99
Es	-2.828847	0.225590	0.211321	99
Es	1.772711	0.221815	0.038976	99
Es	0.746602	-0.436464	0.193373	99
Es	2.130039	0.885522	-0.128928	99
Es	1.702068	1.329984	-0.702938	99
Es	1.437062	1.669999	-0.986402	99
Es	1.403810	1.750187	-0.788836	99
Es	0.975216	1.461180	-1.111398	99
Es	1.494242	-0.449257	0.202806	99
Es	-0.540056	-0.257054	0.496779	99
Es	-1.140093	-0.449317	0.202839	99
Es	-0.526844	-0.270177	-0.113555	99
Es	-2.827482	-0.790001	0.782194	99
Es	0.050654	-0.449325	0.202847	99
Es	2.733502	1.203279	0.347175	99
Es	-0.527634	-0.803430	0.204438	99
Es	-2.583689	-0.449330	0.202847	99
Es	1.720370	-0.640970	0.846994	99
Es	3.470082	1.095382	0.453512	99
Es	1.597012	1.804076	-1.184364	99
Es	-1.830960	-0.450531	0.201045	99
39
Properties=species:S:1:pos:R:3:Z:I:1 energy=-342.64440098177874 field_type=dipole dipole="0.000000 0.000000 0.000000" charge=0
C	-2.583814	-0.449329	0.202848	6
C	-1.139814	-0.449329	0.202848	6
C	0.050346	-0.449329	0.202848	6
C	1.494346	-0.449329	0.202848	6
C	2.130246	0.885411	-0.128782	6
O	1.437186	1.670411	-0.986522	8
O	3.237936	1.212041	0.277858	8
H	-2.977704	0.571601	0.213528	1
H	-2.977934	-0.969009	1.081568	1
H	-2.977844	-0.950389	-0.686662	1
H	1.876846	-1.178179	-0.519852	1
H	1.854636	-0.743529	1.195358	1
H	0.575566	1.298961	-1.257892	1
Es	0.745981	-0.437493	0.193307	99
Es	1.773661	0.221516	0.038288	99
Es	-2.834587	-0.783856	-0.389262	99
Es	-2.583690	-0.449328	0.202846	99
Es	2.727238	1.205062	0.342381	99
Es	1.408880	1.720210	-0.797605	99
Es	1.721615	-0.642369	0.846652	99
Es	2.130039	0.885522	-0.128928	99
Es	3.237516	1.211745	0.277814	99
Es	-1.830423	-0.450471	0.200658	99
Es	-2.829101	0.224853	0.211241	99
Es	1.494241	-0.449259	0.202805	99
Es	1.734177	-0.900769	-0.271801	99
Es	-0.540102	-0.294856	0.510233	99
Es	2.976825	0.981374	-0.032675	99
Es	0.050654	-0.449317	0.202861	99
Es	-1.140093	-0.449327	0.202833	99
Es	1.437119	1.670023	-0.986368	99
Es	-2.827292	-0.789022	0.781301	99
Es	1.710422	1.330152	-0.709868	99
Es	1.586562	1.829035	-1.172134	99
Es	0.972004	1.465995	-1.107711	99
Es	3.178254	1.322800	0.174513	99
Es	-0.529232	-0.802805	0.169023	99
Es	-0.525190	-0.232998	-0.091996	99
Es	3.502083	1.161323	0.425619	99
39
Properties=species:S:1:pos:R:3:Z:I:1 energy=-342.64440098177874 field_type=dipole dipole="0.000000 0.000000 0.000000" charge=0
C	-2.583814	-0.449329	0.202848	6
C	-1.139814	-0.449329	0.202848	6
C	0.050346	-0.449329	0.202848	6
C	1.494346	-0.449329	0.202848	6
C	2.130246	0.885411	-0.128782	6
O	1.437186	1.670411	-0.986522	8
O	3.237936	1.212041	0.277858	8
H	-2.977704	0.571601	0.213528	1
H	-2.977934	-0.969009	1.081568	1
H	-2.977844	-0.950389	-0.686662	1
H	1.876846	-1.178179	-0.519852	1
H	1.854636	-0.743529	1.195358	1
H	0.575566	1.298961	-1.257892	1
Es	1.717406	1.332074	-0.714136	99
Es	0.745662	-0.437848	0.193104	99
Es	3.168181	1.268788	0.203070	99
Es	3.513909	1.204212	0.402414	99
Es	1.437046	1.670089	-0.986340	99
Es	0.050654	-0.449324	0.202849	99
Es	-2.835720	-0.783660	-0.389364	99
Es	-0.527668	-0.802255	0.210870	99
Es	2.721707	1.208631	0.333189	99
Es	0.969792	1.470005	-1.105456	99
Es	-2.826846	-0.788265	0.780288	99
Es	-2.828890	0.223665	0.212036	99
Es	1.494244	-0.449258	0.202808	99
Es	1.416239	1.683917	-0.814670	99
Es	-1.830033	-0.450079	0.200580	99
Es	-0.539864	-0.260731	0.490984	99
Es	2.980771	0.988567	-0.029215	99
Es	1.574365	1.859253	-1.152919	99
Es	2.130041	0.885520	-0.128931	99
Es	3.237577	1.211800	0.277797	99
Es	-2.583690	-0.449327	0.202846	99
Es	1.733304	-0.898904	-0.270939	99
Es	1.722827	-0.643155	0.846696	99
Es	-0.527023	-0.267571	-0.114471	99
Es	1.773662	0.220921	0.038107	99
Es	-1.140093	-0.449326	0.202830	99
39
Properties=species:S:1:pos:R:3:Z:I:1 energy=-342.64440098177874 field_type=dipole dipole="0.000000 0.000000 0.000000" charge=0
C	-2.583814	-0.449329	0.202848	6
C	-1.139814	-0.449329	0.202848	6
C	0.050346	-0.449329	0.202848	6
C	1.494346	-0.449329	0.202848	6
C	2.130246	0.885411	-0.128782	6
O	1.437186	1.670411	-0.986522	8
O	3.237936	1.212041	0.277858	8
H	-2.977704	0.571601	0.213528	1
H	-2.977934	-0.969009	1.081568	1
H	-2.977844	-0.950389	-0.686662	1
H	1.876846	-1.178179	-0.519852	1
H	1.854636	-0.743529	1.195358	1
H	0.575566	1.298961	-1.257892	1
Es	-0.539855	-0.262370	0.492650	99
Es	0.745349	-0.438167	0.192977	99
Es	2.130039	0.885523	-0.128924	99
Es	3.166327	1.247940	0.214917	99
Es	-2.583688	-0.449327	0.202845	99
Es	0.050655	-0.449317	0.202856	99
Es	3.237566	1.211785	0.277813	99
Es	0.968288	1.472315	-1.102424	99
Es	2.983055	0.994169	-0.023640	99
Es	1.437187	1.669796	-0.986519	99
Es	-2.826471	-0.786950	0.779324	99
Es	1.494241	-0.449259	0.202803	99
Es	1.723873	-0.644247	0.846275	99
Es	-1.829668	-0.450063	0.200820	99
Es	-0.527738	-0.801044	0.207718	99
Es	-0.526969	-0.267203	-0.113077	99
Es	1.774210	0.220553	0.037600	99
Es	-1.140094	-0.449316	0.202827	99
Es	3.516990	1.217694	0.392897	99
Es	1.568971	1.861892	-1.147441	99
Es	1.418790	1.675580	-0.823321	99
Es	-2.828511	0.222535	0.212309	99
Es	2.718388	1.210246	0.324929	99
Es	-2.836904	-0.783870	-0.389178	99
Es	1.731974	-0.896823	-0.269380	99
Es	1.721555	1.335665	-0.713631	99
39
Properties=species:S:1:pos:R:3:Z:I:1 energy=-342.64440098177874 field_type=dipole dipole="0.000000 0.000000 0.000000" charge=0
C	-2.583814	-0.449329	0.202848	6
C	-1.139814	-0.449329	0.202848	6
C	0.050346	-0.449329	0.202848	6
C	1.494346	-0.449329	0.202848	6
C	2.130246	0.885411	-0.128782	6
O	1.437186	1.670411	-0.986522	8
O	3.237936	1.212041	0.277858	8
H	-2.977704	0.571601	0.213528	1
H	-2.977934	-0.969009	1.081568	1
H	-2.977844	-0.950389	-0.686662	1
H	1.876846	-1.178179	-0.519852	1
H	1.854636	-0.743529	1.195358	1
H	0.575566	1.298961	-1.257892	1
Es	1.731901	-0.896402	-0.269075	99
Es	0.050658	-0.449324	0.202849	99
Es	-1.829519	-0.450094	0.200717	99
Es	1.420955	1.668690	-0.825697	99
Es	-2.583690	-0.449328	0.202845	99
Es	2.984570	1.000944	-0.019354	99
Es	1.724197	-0.644131	0.846239	99
Es	-2.837200	-0.783190	-0.389229	99
Es	-1.140093	-0.449331	0.202828	99
Es	3.237585	1.211940	0.277721	99
Es	0.967384	1.474280	-1.100696	99
Es	-2.826746	-0.786942	0.779203	99
Es	-0.528475	-0.627738	0.490522	99
Es	1.436990	1.670060	-0.986275	99
Es	1.725070	1.335774	-0.719245	99
Es	3.165444	1.236687	0.222293	99
Es	1.494242	-0.449257	0.202807	99
Es	-0.526233	-0.094512	0.200736	99
Es	2.716088	1.208236	0.319446	99
Es	0.745324	-0.438715	0.192111	99
Es	-2.828146	0.221778	0.212516	99
Es	1.774110	0.220155	0.037704	99
Es	3.518781	1.223794	0.386469	99
Es	-0.539960	-0.607584	-0.103164	99
Es	1.564286	1.866419	-1.141332	99
Es	2.130036	0.885530	-0.128913	99
39
Properties=species:S:1:pos:R:3:Z:I:1 energy=-342.64440098177874 field_type=dipole dipole="0.000000 0.000000 0.000000" charge=0
C	-2.583814	-0.449329	0.202848	6
C	-1.139814	-0.449329	0.202848	6
C	0.050346	-0.449329	0.202848	6
C	1.494346	-0.449329	0.202848	6
C	2.130246	0.885411	-0.128782	6
O	1.437186	1.670411	-0.986522	8
O	3.237936	1.212041	0.277858	8
H	-2.977704	0.571601	0.213528	1
H	-2.977934	-0.969009	1.081568	1
H	-2.977844	-0.950389	-0.686662	1
H	1.876846	-1.178179	-0.519852	1
H	1.854636	-0.743529	1.195358	1
H	0.575566	1.298961	-1.257892	1
Es	1.557305	1.867892	-1.132909	99
Es	3.237571	1.212045	0.277644	99
Es	-0.528680	-0.295409	-0.128055	99
Es	0.050657	-0.449317	0.202858	99
Es	-0.539372	-0.239193	0.476158	99
Es	3.164369	1.218722	0.232906	99
Es	2.130038	0.885525	-0.128925	99
Es	2.987313	1.007424	-0.011691	99
Es	1.774660	0.219893	0.037299	99
Es	-2.825762	-0.785271	0.778224	99
Es	-1.829259	-0.449815	0.200891	99
Es	3.520165	1.237450	0.378258	99
Es	2.713149	1.205936	0.309302	99
Es	1.494243	-0.449259	0.202807	99
Es	-1.140095	-0.449326	0.202832	99
Es	-2.827203	0.220020	0.213350	99
Es	-0.526523	-0.795931	0.239202	99
Es	0.966836	1.475394	-1.100467	99
Es	1.422752	1.661812	-0.830871	99
Es	0.745026	-0.438341	0.192457	99
Es	1.730588	1.340128	-0.722346	99
Es	1.724901	-0.645121	0.845865	99
Es	-2.583690	-0.449329	0.202846	99
Es	1.437145	1.669878	-0.986446	99
Es	-2.839398	-0.783454	-0.389455	99
Es	1.730824	-0.894613	-0.267707	99
39
Properties=species:S:1:pos:R:3:Z:I:1 energy=-342.64440098177874 field_type=dipole dipole="0.000000 0.000000 0.000000" charge=0
C	-2.583814	-0.449329	0.202848	6
C	-1.139814	-0.449329	0.202848	6
C	0.050346	-0.449329	0.202848	6
C	1.494346	-0.449329	0.202848	6
C	2.130246	0.885411	-0.128782	6
O	1.437186	1.670411	-0.986522	8
O	3.237936	1.212041	0.277858	8
H	-2.977704	0.571601	0.213528	1
H	-2.977934	-0.969009	1.081568	1
H	-2.977844	-0.950389	-0.686662	1
H	1.876846	-1.178179	-0.519852	1
H	1.854636	-0.743529	1.195358	1
H	0.575566	1.298961	-1.257892	1
Es	1.729796	-0.893359	-0.266479	99
Es	0.744928	-0.438555	0.192281	99
Es	2.130038	0.885523	-0.128923	99
Es	1.423007	1.661506	-0.831584	99
Es	-2.840253	-0.783394	-0.389571	99
Es	1.775181	0.219599	0.036651	99
Es	1.734567	1.343306	-0.725649	99
Es	-1.829156	-0.449803	0.201049	99
Es	0.050657	-0.449319	0.202855	99
Es	2.988393	1.011362	-0.004805	99
Es	1.494241	-0.449258	0.202806	99
Es	1.437209	1.669858	-0.986568	99
Es	-2.583694	-0.449329	0.202848	99
Es	0.966327	1.476273	-1.099308	99
Es	-2.825491	-0.784593	0.777758	99
Es	1.725539	-0.645759	0.845559	99
Es	-2.826726	0.219181	0.213647	99
Es	3.164224	1.217518	0.233574	99
Es	3.520791	1.238622	0.375718	99
Es	2.711652	1.202161	0.303981	99
Es	-0.526406	-0.794905	0.243394	99
Es	1.553453	1.864085	-1.129802	99
Es	3.237586	1.211882	0.277761	99
Es	-1.140095	-0.449324	0.202827	99
Es	-0.528933	-0.299930	-0.129463	99
Es	-0.539274	-0.235609	0.473470	99
39
Properties=species:S:1:pos:R:3:Z:I:1 energy=-342.64440098177874 field_type=dipole dipole="0.000000 0.000000 0.000000" charge=0
C	-2.583814	-0.449329	0.202848	6
C	-1.139814	-0.449329	0.202848	6
C	0.050346	-0.449329	0.202848	6
C	1.494346	-0.449329	0.202848	6
C	2.130246	0.885411	-0.128782	6
O	1.437186	1.670411	-0.986522	8
O	3.237936	1.212041	0.277858	8
H	-2.977704	0.571601	0.213528	1
H	-2.977934	-0.969009	1.081568	1
H	-2.977844	-0.950389	-0.686662	1
H	1.876846	-1.178179	-0.519852	1
H	1.854636	-0.743529	1.195358	1
H	0.575566	1.298961	-1.257892	1
Es	-2.825386	-0.784544	0.777428	99
Es	-1.140095	-0.449330	0.202826	99
Es	1.729691	-0.893193	-0.266408	99
Es	-1.829102	-0.450007	0.200991	99
Es	2.130038	0.885526	-0.128919	99
Es	1.725638	-0.645879	0.845313	99
Es	0.744966	-0.439250	0.192032	99
Es	1.775284	0.219641	0.036782	99
Es	1.437122	1.669893	-0.986456	99
Es	-2.840276	-0.783327	-0.389265	99
Es	1.733986	1.343021	-0.724355	99
Es	3.164377	1.218091	0.233181	99
Es	-2.583689	-0.449330	0.202851	99
Es	-0.539777	-0.647541	-0.076326	99
Es	3.237585	1.211862	0.277773	99
Es	-2.826895	0.219346	0.213736	99
Es	-0.530348	-0.585591	0.511061	99
Es	0.050658	-0.449326	0.202849	99
Es	2.710764	1.201788	0.299712	99
Es	0.965835	1.477786	-1.098009	99
Es	1.494241	-0.449260	0.202804	99
Es	3.521159	1.235667	0.375394	99
Es	1.420677	1.671651	-0.827451	99
Es	-0.524560	-0.096616	0.153060	99
Es	2.988826	1.013935	-0.000045	99
Es	1.556842	1.852727	-1.136533	99
39
Properties=species:S:1:pos:R:3:Z:I:1 energy=-342.64440098177874 field_type=dipole dipole="0.000000 0.000000 0.000000" charge=0
C	-2.583814	-0.449329	0.202848	6
C	-1.139814	-0.449329	0.202848	6
C	0.050346	-0.449329	0.202848	6
C	1.494346	-0.449329	0.202848	6
C	2.130246	0.885411	-0.128782	6
O	1.437186	1.670411	-0.986522	8
O	3.237936	1.212041	0.277858	8
H	-2.977704	0.571601	0.213528	1
H	-2.977934	-0.969009	1.081568	1
H	-2.977844	-0.950389	-0.686662	1
H	1.876846	-1.178179	-0.519852	1
H	1.854636	-0.743529	1.195358	1
H	0.575566	1.298961	-1.257892	1
Es	-2.583689	-0.449325	0.202847	99
Es	0.744797	-0.438828	0.192051	99
Es	0.050658	-0.449320	0.202857	99
Es	1.775786	0.219386	0.036176	99
Es	1.726218	-0.646512	0.845024	99
Es	-2.825084	-0.783791	0.777164	99
Es	1.437168	1.669848	-0.986483	99
Es	1.728704	-0.891787	-0.265057	99
Es	3.163985	1.210002	0.238047	99
Es	3.521699	1.243096	0.370588	99
Es	-0.528946	-0.300132	-0.128756	99
Es	-1.140096	-0.449328	0.202830	99
Es	2.989681	1.017682	0.005084	99
Es	-2.825511	0.217108	0.214547	99
Es	-0.526403	-0.793905	0.241031	99
Es	2.130039	0.885521	-0.128922	99
Es	1.424893	1.655428	-0.836660	99
Es	-1.828990	-0.449488	0.201137	99
Es	-0.539271	-0.236392	0.475047	99
Es	2.709828	1.198582	0.294499	99
Es	1.494242	-0.449254	0.202806	99
Es	3.237587	1.211952	0.277704	99
Es	1.547042	1.862994	-1.121720	99
Es	1.739761	1.348288	-0.729930	99
Es	0.965552	1.478373	-1.097929	99
Es	-2.842090	-0.782460	-0.389954	99
39
Properties=species:S:1:pos:R:3:Z:I:1 energy=-342.64440098177874 field_type=dipole dipole="0.000000 0.000000 0.000000" charge=0
C	-2.583814	-0.449329	0.202848	6
C	-1.139814	-0.449329	0.202848	6
C	0.050346	-0.449329	0.202848	6
C	1.494346	-0.449329	0.202848	6
C	2.130246	0.885411	-0.128782	6
O	1.437186	1.670411	-0.986522	8
O	3.237936	1.212041	0.277858	8
H	-2.977704	0.571601	0.213528	1
H	-2.977934	-0.969009	1.081568	1
H	-2.977844	-0.950389	-0.686662	1
H	1.876846	-1.178179	-0.519852	1
H	1.854636	-0.743529	1.195358	1
H	0.575566	1.298961	-1.257892	1
Es	-2.826167	0.217968	0.214223	99
Es	-0.529974	-0.593360	0.507388	99
Es	-1.828966	-0.449826	0.201041	99
Es	1.726574	-0.647134	0.844647	99
Es	1.437095	1.670075	-0.986393	99
Es	1.494243	-0.449259	0.202807	99
Es	0.744844	-0.439384	0.191799	99
Es	1.728420	-0.891266	-0.265158	99
Es	3.164173	1.214402	0.235762	99
Es	2.989037	1.019563	0.004737	99
Es	-0.524795	-0.096741	0.162038	99
Es	-1.140096	-0.449324	0.202829	99
Es	1.422340	1.665506	-0.831803	99
Es	2.130038	0.885524	-0.128915	99
Es	-2.824889	-0.783647	0.776886	99
Es	3.522063	1.236798	0.371568	99
Es	1.739425	1.348165	-0.729353	99
Es	3.237574	1.211822	0.277802	99
Es	2.709965	1.198664	0.295912	99
Es	1.550385	1.852001	-1.128569	99
Es	-2.841670	-0.783119	-0.389257	99
Es	0.050657	-0.449317	0.202857	99
Es	-0.539924	-0.639724	-0.081605	99
Es	-2.583690	-0.449329	0.202845	99
Es	0.965155	1.479227	-1.096533	99
Es	1.775744	0.219455	0.036471	99
39
Properties=species:S:1:pos:R:3:Z:I:1 energy=-342.64440098177874 field_type=dipole dipole="0.000000 0.000000 0.000000" charge=0
C	-2.583814	-0.449329	0.202848	6
C	-1.139814	-0.449329	0.202848	6
C	0.050346	-0.449329	0.202848	6
C	1.494346	-0.449329	0.202848	6
C	2.130246	0.885411	-0.128782	6
O	1.437186	1.670411	-0.986522	8
O	3.237936	1.212041	0.277858	8
H	-2.977704	0.571601	0.213528	1
H	-2.977934	-0.969009	1.081568	1
H	-2.977844	-0.950389	-0.686662	1
H	1.876846	-1.178179	-0.519852	1
H	1.854636	-0.743529	1.195358	1
H	0.575566	1.298961	-1.257892	1
Es	2.989838	1.021462	0.010528	99
Es	3.164011	1.209167	0.238600	99
Es	3.522281	1.241262	0.368974	99
Es	2.709131	1.197372	0.289876	99
Es	1.726781	-0.647064	0.844700	99
Es	0.964960	1.479993	-1.096259	99
Es	-2.826100	0.217703	0.214462	99
Es	-2.583689	-0.449329	0.202845	99
Es	-2.842194	-0.783267	-0.389106	99
Es	-1.828911	-0.449799	0.201070	99
Es	3.237587	1.211890	0.277742	99
Es	1.742100	1.350092	-0.732928	99
Es	-0.539389	-0.668681	-0.058255	99
Es	1.728183	-0.891008	-0.264752	99
Es	1.437091	1.669981	-0.986418	99
Es	-2.824489	-0.783209	0.776391	99
Es	0.744790	-0.439444	0.191916	99
Es	0.050657	-0.449325	0.202841	99
Es	1.775865	0.219180	0.036099	99
Es	-1.140096	-0.449328	0.202828	99
Es	-0.523481	-0.103216	0.122067	99
Es	1.547355	1.850918	-1.124747	99
Es	2.130038	0.885525	-0.128921	99
Es	-0.531817	-0.557852	0.523864	99
Es	1.422817	1.663970	-0.832200	99
Es	1.494241	-0.449259	0.202808	99
39
Properties=species:S:1:pos:R:3:Z:I:1 energy=-342.64440098177874 field_type=dipole dipole="0.000000 0.000000 0.000000" charge=0
C	-2.583814	-0.449329	0.202848	6
C	-1.139814	-0.449329	0.202848	6
C	0.050346	-0.449329	0.202848	6
C	1.494346	-0.449329	0.202848	6
C	2.130246	0.885411	-0.128782	6
O	1.437186	1.670411	-0.986522	8
O	3.237936	1.212041	0.277858	8
H	-2.977704	0.571601	0.213528	1
H	-2.977934	-0.969009	1.081568	1
H	-2.977844	-0.950389	-0.686662	1
H	1.876846	-1.178179	-0.519852	1
H	1.854636	-0.743529	1.195358	1
H	0.575566	1.298961	-1.257892	1
Es	3.237586	1.211898	0.277747	99
Es	3.163922	1.206288	0.240364	99
Es	2.708433	1.194049	0.283584	99
Es	3.522510	1.243321	0.367255	99
Es	2.990424	1.025658	0.016737	99
Es	0.744679	-0.439158	0.191863	99
Es	-0.539747	-0.270011	0.495867	99
Es	1.776481	0.218873	0.035101	99
Es	1.727424	-0.647906	0.844418	99
Es	-2.824278	0.215170	0.214966	99
Es	-2.583689	-0.449328	0.202845	99
Es	2.130038	0.885525	-0.128920	99
Es	1.542349	1.852411	-1.117564	99
Es	0.050657	-0.449313	0.202860	99
Es	0.964867	1.479914	-1.096183	99
Es	1.745864	1.353845	-0.738103	99
Es	1.437192	1.669869	-0.986509	99
Es	1.494242	-0.449258	0.202807	99
Es	-0.527771	-0.796382	0.202524	99
Es	-1.140096	-0.449327	0.202830	99
Es	-0.527114	-0.263822	-0.111077	99
Es	-1.828853	-0.449491	0.201358	99
Es	-2.844422	-0.782622	-0.389723	99
Es	-2.824133	-0.781879	0.776158	99
Es	1.424085	1.658831	-0.834101	99
Es	1.726910	-0.889414	-0.263078	99
39
Properties=species:S:1:pos:R:3:Z:I:1 energy=-342.64440098177874 field_type=dipole dipole="0.000000 0.000000 0.000000" charge=0
C	-2.583814	-0.449329	0.202848	6
C	-1.139814	-0.449329	0.202848	6
C	0.050346	-0.449329	0.202848	6
C	1.494346	-0.449329	0.202848	6
C	2.130246	0.885411	-0.128782	6
O	1.437186	1.670411	-0.986522	8
O	3.237936	1.212041	0.277858	8
H	-2.977704	0.571601	0.213528	1
H	-2.977934	-0.969009	1.081568	1
H	-2.977844	-0.950389	-0.686662	1
H	1.876846	-1.178179	-0.519852	1
H	1.854636	-0.743529	1.195358	1
H	0.575566	1.298961	-1.257892	1
Es	-0.538412	-0.212987	0.452490	99
Es	-1.828819	-0.449465	0.201235	99
Es	1.776926	0.218983	0.034911	99
Es	1.425531	1.653829	-0.835815	99
Es	1.538301	1.854757	-1.111651	99
Es	-2.583692	-0.449328	0.202846	99
Es	-0.530785	-0.330830	-0.140786	99
Es	2.708328	1.192126	0.283298	99
Es	-2.844586	-0.782206	-0.389747	99
Es	2.990441	1.025947	0.018528	99
Es	1.726584	-0.889173	-0.262591	99
Es	0.964787	1.479893	-1.095752	99
Es	-1.140096	-0.449328	0.202828	99
Es	1.727330	-0.648077	0.844081	99
Es	3.522624	1.242975	0.366884	99
Es	1.437047	1.669976	-0.986390	99
Es	0.744670	-0.438974	0.191671	99
Es	1.494244	-0.449259	0.202806	99
Es	-2.823910	0.214708	0.214886	99
Es	1.748665	1.356390	-0.742765	99
Es	3.237487	1.212246	0.277482	99
Es	-2.824380	-0.781880	0.776461	99
Es	0.050658	-0.449317	0.202856	99
Es	-0.525445	-0.786716	0.275809	99
Es	2.130038	0.885523	-0.128922	99
Es	3.164025	1.207926	0.239374	99
39
Properties=species:S:1:pos:R:3:Z:I:1 energy=-342.64440098177874 field_type=dipole dipole="0.000000 0.000000 0.000000" charge=0
C	-2.583814	-0.449329	0.202848	6
C	-1.139814	-0.449329	0.202848	6
C	0.050346	-0.449329	0.202848	6
C	1.494346	-0.449329	0.202848	6
C	2.130246	0.885411	-0.128782	6
O	1.437186	1.670411	-0.986522	8
O	3.237936	1.212041	0.277858	8
H	-2.977704	0.571601	0.213528	1
H	-2.977934	-0.969009	1.081568	1
H	-2.977844	-0.950389	-0.686662	1
H	1.876846	-1.178179	-0.519852	1
H	1.854636	-0.743529	1.195358	1
H	0.575566	1.298961	-1.257892	1
Es	-1.828787	-0.449415	0.201185	99
Es	1.425952	1.653577	-0.837370	99
Es	2.990440	1.028867	0.020158	99
Es	3.237580	1.211890	0.277765	99
Es	-2.583692	-0.449329	0.202844	99
Es	-1.140097	-0.449327	0.202829	99
Es	2.130038	0.885528	-0.128916	99
Es	3.522903	1.244123	0.365135	99
Es	0.744644	-0.439133	0.191627	99
Es	1.537333	1.852088	-1.110677	99
Es	0.964567	1.480502	-1.095100	99
Es	-0.538310	-0.209708	0.450305	99
Es	-2.823619	0.214243	0.214996	99
Es	-0.525386	-0.785974	0.278498	99
Es	1.777245	0.219019	0.034842	99
Es	-2.824183	-0.781545	0.776313	99
Es	-0.530941	-0.334830	-0.141323	99
Es	1.494243	-0.449254	0.202806	99
Es	-2.845113	-0.782118	-0.389649	99
Es	1.749699	1.357788	-0.744013	99
Es	2.708152	1.190780	0.281539	99
Es	1.436705	1.670846	-0.985216	99
Es	0.050658	-0.449309	0.202853	99
Es	1.726074	-0.888384	-0.262075	99
Es	3.163841	1.205526	0.240956	99
Es	1.727615	-0.648714	0.843713	99
39
Properties=species:S:1:pos:R:3:Z:I:1 energy=-342.64440098177874 field_type=dipole dipole="0.000000 0.000000 0.000000" charge=0
C	-2.583814	-0.449329	0.202848	6
C	-1.139814	-0.449329	0.202848	6
C	0.050346	-0.449329	0.202848	6
C	1.494346	-0.449329	0.202848	6
C	2.130246	0.885411	-0.128782	6
O	1.437186	1.670411	-0.986522	8
O	3.237936	1.212041	0.277858	8
H	-2.977704	0.571601	0.213528	1
H	-2.977934	-0.969009	1.081568	1
H	-2.977844	-0.950389	-0.686662	1
H	1.876846	-1.178179	-0.519852	1
H	1.854636	-0.743529	1.195358	1
H	0.575566	1.298961	-1.257892	1
Es	3.163986	1.208936	0.238776	99
Es	2.990547	1.029311	0.023499	99
Es	-0.526247	-0.243691	-0.099419	99
Es	1.777181	0.218525	0.034294	99
Es	1.725590	-0.887686	-0.261477	99
Es	0.744601	-0.439391	0.191773	99
Es	3.237587	1.211867	0.277745	99
Es	-2.823366	-0.780856	0.775301	99
Es	0.050658	-0.449318	0.202853	99
Es	2.130038	0.885525	-0.128919	99
Es	1.437058	1.669972	-0.986406	99
Es	-2.583690	-0.449313	0.202846	99
Es	0.964495	1.480837	-1.095045	99
Es	1.728135	-0.648931	0.843777	99
Es	-0.528619	-0.795769	0.181843	99
Es	3.522851	1.240747	0.366903	99
Es	2.707960	1.190292	0.278623	99
Es	-1.828750	-0.449375	0.201357	99
Es	-2.846003	-0.782451	-0.389453	99
Es	1.750261	1.358905	-0.744019	99
Es	-0.539777	-0.290719	0.504863	99
Es	1.494246	-0.449257	0.202804	99
Es	1.423404	1.661927	-0.832567	99
Es	-1.140096	-0.449328	0.202831	99
Es	-2.823571	0.213789	0.215474	99
Es	1.539083	1.843192	-1.114229	99
