44
Properties=species:S:1:pos:R:3:Z:I:1 energy=-307.93316327615685 field_type=dipole dipole="0.000000 0.000000 0.000000" charge=0
C	-0.955992	-0.308386	1.583064	6
C	0.413018	-0.216956	0.907034	6
C	0.409487	-0.812476	-0.509886	6
C	-0.554782	-0.147506	-1.489096	6
O	-0.445933	-0.777056	-2.761496	8
C	0.895037	1.144214	0.907034	6
C	1.292318	2.266114	0.907034	6
H	-0.888442	-0.001586	2.632704	1
H	-1.334422	-1.335066	1.558994	1
H	-1.695132	0.342464	1.104694	1
H	1.106807	-0.824686	1.503244	1
H	0.166588	-1.882306	-0.454006	1
H	1.424048	-0.771636	-0.930426	1
H	-0.341712	0.917814	-1.616786	1
H	-1.591812	-0.255346	-1.160256	1
H	0.453038	-0.608596	-3.092536	1
H	1.647887	3.270994	0.910684	1
Es	-0.903981	-0.101089	2.294233	99
Es	-0.069811	-0.470453	-0.979705	99
Es	-0.402142	0.584766	-1.565767	99
Es	-0.637262	-0.630994	-2.951585	99
Es	1.292402	2.266365	0.907037	99
Es	1.078015	1.724440	1.264778	99
Es	0.413017	-0.216852	0.907010	99
Es	-0.461820	-1.079723	-2.708912	99
Es	1.524823	2.923011	0.908702	99
Es	0.236547	-1.537716	-0.461852	99
Es	0.886431	-0.611129	1.308149	99
Es	-1.206337	-1.010269	1.560119	99
Es	0.660257	0.493859	0.902940	99
Es	0.894952	1.143971	0.907030	99
Es	1.103421	-0.774651	-0.799671	99
Es	0.409483	-0.812433	-0.509839	99
Es	-0.955945	-0.308385	1.583039	99
Es	0.813501	1.818758	0.709668	99
Es	-1.261412	-0.224033	-1.258654	99
Es	1.401459	1.611076	0.742234	99
Es	-0.445710	-0.776907	-2.761356	99
Es	-1.453245	0.132409	1.250236	99
Es	-0.554727	-0.147641	-1.489274	99
Es	-0.462866	-0.530924	-2.281496	99
Es	0.405043	-0.483434	0.201999	99
Es	0.045255	-0.674026	-2.921175	99
Es	-0.266034	-0.244165	1.232446	99
44
Properties=species:S:1:pos:R:3:Z:I:1 energy=-307.93316327615685 field_type=dipole dipole="0.000000 0.000000 0.000000" charge=0
C	-0.955992	-0.308386	1.583064	6
C	0.413018	-0.216956	0.907034	6
C	0.409487	-0.812476	-0.509886	6
C	-0.554782	-0.147506	-1.489096	6
O	-0.445933	-0.777056	-2.761496	8
C	0.895037	1.144214	0.907034	6
C	1.292318	2.266114	0.907034	6
H	-0.888442	-0.001586	2.632704	1
H	-1.334422	-1.335066	1.558994	1
H	-1.695132	0.342464	1.104694	1
H	1.106807	-0.824686	1.503244	1
H	0.166588	-1.882306	-0.454006	1
H	1.424048	-0.771636	-0.930426	1
H	-0.341712	0.917814	-1.616786	1
H	-1.591812	-0.255346	-1.160256	1
H	0.453038	-0.608596	-3.092536	1
H	1.647887	3.270994	0.910684	1
Es	0.894929	1.143965	0.907026	99
Es	0.884239	-0.611435	1.306392	99
Es	1.292407	2.266376	0.907029	99
Es	-0.615798	-0.622065	-2.935247	99
Es	-0.445671	-0.776887	-2.761325	99
Es	0.235287	-1.541024	-0.461671	99
Es	-1.260596	-0.225857	-1.258147	99
Es	-1.208134	-1.013676	1.560703	99
Es	-0.463355	-0.527750	-2.285517	99
Es	1.366688	1.622875	0.687985	99
Es	0.042939	-0.668453	-2.922207	99
Es	-0.480542	-1.097827	-2.719536	99
Es	-1.451279	0.132785	1.252031	99
Es	-0.069412	-0.470303	-0.979550	99
Es	1.525593	2.924421	0.908484	99
Es	-0.554727	-0.147641	-1.489275	99
Es	0.787443	1.828026	0.771394	99
Es	0.413017	-0.216853	0.907010	99
Es	1.138764	1.703141	1.257117	99
Es	0.661309	0.495882	0.903293	99
Es	-0.401362	0.587110	-1.565391	99
Es	-0.955949	-0.308386	1.583040	99
Es	0.405195	-0.483310	0.202322	99
Es	1.102482	-0.772709	-0.799709	99
Es	0.409484	-0.812437	-0.509837	99
Es	-0.265722	-0.244244	1.232612	99
Es	-0.903914	-0.099892	2.291308	99
44
Properties=species:S:1:pos:R:3:Z:I:1 energy=-307.93316327615685 field_type=dipole dipole="0.000000 0.000000 0.000000" charge=0
C	-0.955992	-0.308386	1.583064	6
C	0.413018	-0.216956	0.907034	6
C	0.409487	-0.812476	-0.509886	6
C	-0.554782	-0.147506	-1.489096	6
O	-0.445933	-0.777056	-2.761496	8
C	0.895037	1.144214	0.907034	6
C	1.292318	2.266114	0.907034	6
H	-0.888442	-0.001586	2.632704	1
H	-1.334422	-1.335066	1.558994	1
H	-1.695132	0.342464	1.104694	1
H	1.106807	-0.824686	1.503244	1
H	0.166588	-1.882306	-0.454006	1
H	1.424048	-0.771636	-0.930426	1
H	-0.341712	0.917814	-1.616786	1
H	-1.591812	-0.255346	-1.160256	1
H	0.453038	-0.608596	-3.092536	1
H	1.647887	3.270994	0.910684	1
Es	0.413017	-0.216852	0.907010	99
Es	1.101781	-0.771559	-0.799489	99
Es	0.405183	-0.483260	0.202554	99
Es	-0.463965	-0.525298	-2.288604	99
Es	-1.209016	-1.015331	1.560957	99
Es	-0.554725	-0.147639	-1.489274	99
Es	-0.492002	-1.104516	-2.725640	99
Es	-0.400926	0.588270	-1.565091	99
Es	0.883099	-0.611678	1.305566	99
Es	0.778483	1.831133	0.801684	99
Es	-0.903796	-0.099652	2.289447	99
Es	0.234879	-1.542697	-0.461592	99
Es	-0.265509	-0.244353	1.232818	99
Es	-0.445652	-0.776907	-2.761315	99
Es	1.292411	2.266378	0.907032	99
Es	-1.259999	-0.226774	-1.258005	99
Es	0.661847	0.496958	0.903244	99
Es	1.166204	1.693581	1.248336	99
Es	0.894958	1.143955	0.907020	99
Es	-0.602625	-0.621410	-2.924021	99
Es	-0.069365	-0.470294	-0.979535	99
Es	0.409482	-0.812434	-0.509839	99
Es	1.525975	2.924964	0.908398	99
Es	-0.955945	-0.308386	1.583041	99
Es	1.347977	1.629304	0.666506	99
Es	0.041742	-0.664991	-2.923824	99
Es	-1.450203	0.133322	1.252952	99
44
Properties=species:S:1:pos:R:3:Z:I:1 energy=-307.93316327615685 field_type=dipole dipole="0.000000 0.000000 0.000000" charge=0
C	-0.955992	-0.308386	1.583064	6
C	0.413018	-0.216956	0.907034	6
C	0.409487	-0.812476	-0.509886	6
C	-0.554782	-0.147506	-1.489096	6
O	-0.445933	-0.777056	-2.761496	8
C	0.895037	1.144214	0.907034	6
C	1.292318	2.266114	0.907034	6
H	-0.888442	-0.001586	2.632704	1
H	-1.334422	-1.335066	1.558994	1
H	-1.695132	0.342464	1.104694	1
H	1.106807	-0.824686	1.503244	1
H	0.166588	-1.882306	-0.454006	1
H	1.424048	-0.771636	-0.930426	1
H	-0.341712	0.917814	-1.616786	1
H	-1.591812	-0.255346	-1.160256	1
H	0.453038	-0.608596	-3.092536	1
H	1.647887	3.270994	0.910684	1
Es	-0.265345	-0.244389	1.233039	99
Es	-0.400513	0.588974	-1.564830	99
Es	1.525786	2.925398	0.908249	99
Es	-1.449529	0.133493	1.253601	99
Es	-0.596453	-0.620763	-2.917639	99
Es	1.292408	2.266381	0.907023	99
Es	-0.069217	-0.470275	-0.979464	99
Es	0.234371	-1.543688	-0.461655	99
Es	0.820473	1.816057	0.710909	99
Es	0.882382	-0.611714	1.304880	99
Es	-0.445619	-0.776925	-2.761296	99
Es	1.401430	1.610615	0.752076	99
Es	0.662127	0.497622	0.903303	99
Es	1.101304	-0.770873	-0.799397	99
Es	-1.209495	-1.016364	1.561316	99
Es	-0.903812	-0.099477	2.288001	99
Es	-0.497433	-1.107439	-2.730263	99
Es	0.040385	-0.662222	-2.924467	99
Es	0.409482	-0.812435	-0.509839	99
Es	0.894951	1.143960	0.907033	99
Es	-1.259592	-0.227372	-1.257885	99
Es	-0.463430	-0.525878	-2.289432	99
Es	0.405197	-0.483138	0.202713	99
Es	0.413017	-0.216852	0.907009	99
Es	-0.955947	-0.308386	1.583040	99
Es	-0.554728	-0.147636	-1.489269	99
Es	1.071114	1.727158	1.253581	99
44
Properties=species:S:1:pos:R:3:Z:I:1 energy=-307.93316327615685 field_type=dipole dipole="0.000000 0.000000 0.000000" charge=0
C	-0.955992	-0.308386	1.583064	6
C	0.413018	-0.216956	0.907034	6
C	0.409487	-0.812476	-0.509886	6
C	-0.554782	-0.147506	-1.489096	6
O	-0.445933	-0.777056	-2.761496	8
C	0.895037	1.144214	0.907034	6
C	1.292318	2.266114	0.907034	6
H	-0.888442	-0.001586	2.632704	1
H	-1.334422	-1.335066	1.558994	1
H	-1.695132	0.342464	1.104694	1
H	1.106807	-0.824686	1.503244	1
H	0.166588	-1.882306	-0.454006	1
H	1.424048	-0.771636	-0.930426	1
H	-0.341712	0.917814	-1.616786	1
H	-1.591812	-0.255346	-1.160256	1
H	0.453038	-0.608596	-3.092536	1
H	1.647887	3.270994	0.910684	1
Es	-1.449134	0.133822	1.253985	99
Es	-1.209779	-1.016971	1.561520	99
Es	1.526224	2.925466	0.908074	99
Es	0.038623	-0.658334	-2.926089	99
Es	1.292412	2.266380	0.907029	99
Es	1.100946	-0.770431	-0.799260	99
Es	-0.465756	-0.521779	-2.292920	99
Es	0.405268	-0.483073	0.202886	99
Es	-0.400393	0.589393	-1.564665	99
Es	-1.259299	-0.227786	-1.257828	99
Es	0.409484	-0.812437	-0.509841	99
Es	0.234146	-1.544292	-0.461656	99
Es	-0.069156	-0.470146	-0.979432	99
Es	0.894954	1.143959	0.907037	99
Es	0.662374	0.497981	0.903057	99
Es	0.881908	-0.611768	1.304421	99
Es	-0.593380	-0.626596	-2.914751	99
Es	1.361935	1.624761	1.113618	99
Es	-0.265219	-0.244589	1.233195	99
Es	-0.903743	-0.099533	2.286998	99
Es	-0.955945	-0.308387	1.583039	99
Es	1.141469	1.702355	0.563331	99
Es	0.789114	1.826902	1.039992	99
Es	-0.445742	-0.776617	-2.761409	99
Es	-0.496290	-1.109958	-2.727737	99
Es	0.413017	-0.216852	0.907010	99
Es	-0.554726	-0.147636	-1.489271	99
44
Properties=species:S:1:pos:R:3:Z:I:1 energy=-307.93316327615685 field_type=dipole dipole="0.000000 0.000000 0.000000" charge=0
C	-0.955992	-0.308386	1.583064	6
C	0.413018	-0.216956	0.907034	6
C	0.409487	-0.812476	-0.509886	6
C	-0.554782	-0.147506	-1.489096	6
O	-0.445933	-0.777056	-2.761496	8
C	0.895037	1.144214	0.907034	6
C	1.292318	2.266114	0.907034	6
H	-0.888442	-0.001586	2.632704	1
H	-1.334422	-1.335066	1.558994	1
H	-1.695132	0.342464	1.104694	1
H	1.106807	-0.824686	1.503244	1
H	0.166588	-1.882306	-0.454006	1
H	1.424048	-0.771636	-0.930426	1
H	-0.341712	0.917814	-1.616786	1
H	-1.591812	-0.255346	-1.160256	1
H	0.453038	-0.608596	-3.092536	1
H	1.647887	3.270994	0.910684	1
Es	0.894946	1.143960	0.907030	99
Es	-1.448743	0.133871	1.254370	99
Es	-0.955944	-0.308386	1.583039	99
Es	0.233980	-1.544769	-0.461576	99
Es	1.379531	1.618546	1.086697	99
Es	0.662546	0.498286	0.903184	99
Es	0.881504	-0.612083	1.304202	99
Es	-0.588333	-0.627078	-2.911425	99
Es	-1.210040	-1.017444	1.561743	99
Es	-1.259002	-0.228154	-1.257787	99
Es	-0.400187	0.589783	-1.564490	99
Es	-0.467061	-0.520941	-2.294342	99
Es	0.038203	-0.656928	-2.925178	99
Es	0.405083	-0.482809	0.202888	99
Es	-0.903728	-0.099462	2.286178	99
Es	1.111115	1.713142	0.562521	99
Es	-0.554727	-0.147638	-1.489271	99
Es	-0.445670	-0.776871	-2.761364	99
Es	0.409482	-0.812433	-0.509839	99
Es	-0.264930	-0.244356	1.233121	99
Es	1.100565	-0.770145	-0.799170	99
Es	-0.069090	-0.470260	-0.979570	99
Es	1.292412	2.266379	0.907034	99
Es	0.413018	-0.216853	0.907007	99
Es	0.802120	1.822215	1.067742	99
Es	1.526053	2.925689	0.907967	99
Es	-0.499789	-1.111430	-2.730377	99
44
Properties=species:S:1:pos:R:3:Z:I:1 energy=-307.93316327615685 field_type=dipole dipole="0.000000 0.000000 0.000000" charge=0
C	-0.955992	-0.308386	1.583064	6
C	0.413018	-0.216956	0.907034	6
C	0.409487	-0.812476	-0.509886	6
C	-0.554782	-0.147506	-1.489096	6
O	-0.445933	-0.777056	-2.761496	8
C	0.895037	1.144214	0.907034	6
C	1.292318	2.266114	0.907034	6
H	-0.888442	-0.001586	2.632704	1
H	-1.334422	-1.335066	1.558994	1
H	-1.695132	0.342464	1.104694	1
H	1.106807	-0.824686	1.503244	1
H	0.166588	-1.882306	-0.454006	1
H	1.424048	-0.771636	-0.930426	1
H	-0.341712	0.917814	-1.616786	1
H	-1.591812	-0.255346	-1.160256	1
H	0.453038	-0.608596	-3.092536	1
H	1.647887	3.270994	0.910684	1
Es	1.379607	1.618246	0.715730	99
Es	-1.448458	0.134177	1.254703	99
Es	-1.258728	-0.228466	-1.257670	99
Es	0.037455	-0.655906	-2.926081	99
Es	-0.264905	-0.244369	1.233168	99
Es	0.881124	-0.612108	1.304090	99
Es	1.114892	1.711863	1.249632	99
Es	-0.069034	-0.470207	-0.979636	99
Es	-0.903643	-0.099621	2.285426	99
Es	-0.955947	-0.308387	1.583039	99
Es	1.100089	-0.769810	-0.799090	99
Es	-0.467028	-0.519721	-2.296138	99
Es	0.662627	0.498664	0.903206	99
Es	0.405219	-0.482779	0.203175	99
Es	1.292410	2.266381	0.907031	99
Es	-0.445989	-0.776851	-2.761590	99
Es	0.894947	1.143958	0.907030	99
Es	-0.400047	0.590078	-1.564372	99
Es	-1.210148	-1.017895	1.561776	99
Es	-0.501903	-1.112369	-2.730257	99
Es	0.798063	1.823828	0.751252	99
Es	0.409481	-0.812434	-0.509838	99
Es	-0.585237	-0.628479	-2.908453	99
Es	0.233936	-1.545215	-0.461704	99
Es	1.526238	2.925747	0.908170	99
Es	-0.554725	-0.147641	-1.489276	99
Es	0.413017	-0.216851	0.907010	99
44
Properties=species:S:1:pos:R:3:Z:I:1 energy=-307.93316327615685 field_type=dipole dipole="0.000000 0.000000 0.000000" charge=0
C	-0.955992	-0.308386	1.583064	6
C	0.413018	-0.216956	0.907034	6
C	0.409487	-0.812476	-0.509886	6
C	-0.554782	-0.147506	-1.489096	6
O	-0.445933	-0.777056	-2.761496	8
C	0.895037	1.144214	0.907034	6
C	1.292318	2.266114	0.907034	6
H	-0.888442	-0.001586	2.632704	1
H	-1.334422	-1.335066	1.558994	1
H	-1.695132	0.342464	1.104694	1
H	1.106807	-0.824686	1.503244	1
H	0.166588	-1.882306	-0.454006	1
H	1.424048	-0.771636	-0.930426	1
H	-0.341712	0.917814	-1.616786	1
H	-1.591812	-0.255346	-1.160256	1
H	0.453038	-0.608596	-3.092536	1
H	1.647887	3.270994	0.910684	1
Es	-0.399918	0.590299	-1.564247	99
Es	-0.903632	-0.099686	2.284724	99
Es	0.233876	-1.545499	-0.461693	99
Es	1.376135	1.619677	0.714102	99
Es	-0.264801	-0.244385	1.233337	99
Es	-0.504360	-1.113232	-2.732903	99
Es	1.099928	-0.769506	-0.799015	99
Es	-0.581512	-0.630477	-2.904011	99
Es	-0.955951	-0.308386	1.583040	99
Es	-1.448294	0.134358	1.254881	99
Es	0.662798	0.498792	0.903250	99
Es	1.121535	1.709530	1.248414	99
Es	-0.554726	-0.147638	-1.489273	99
Es	-0.069023	-0.470291	-0.979698	99
Es	-1.258477	-0.228674	-1.257583	99
Es	0.409481	-0.812434	-0.509838	99
Es	0.413017	-0.216852	0.907010	99
Es	0.036263	-0.653148	-2.927401	99
Es	0.405021	-0.482634	0.203225	99
Es	-0.445679	-0.776763	-2.761365	99
Es	0.894947	1.143960	0.907018	99
Es	-1.210253	-1.018172	1.562040	99
Es	0.795064	1.824649	0.753908	99
Es	0.880940	-0.612182	1.303864	99
Es	-0.467480	-0.519774	-2.296738	99
Es	1.525999	2.925920	0.908247	99
Es	1.292415	2.266379	0.907037	99
44
Properties=species:S:1:pos:R:3:Z:I:1 energy=-307.93316327615685 field_type=dipole dipole="0.000000 0.000000 0.000000" charge=0
C	-0.955992	-0.308386	1.583064	6
C	0.413018	-0.216956	0.907034	6
C	0.409487	-0.812476	-0.509886	6
C	-0.554782	-0.147506	-1.489096	6
O	-0.445933	-0.777056	-2.761496	8
C	0.895037	1.144214	0.907034	6
C	1.292318	2.266114	0.907034	6
H	-0.888442	-0.001586	2.632704	1
H	-1.334422	-1.335066	1.558994	1
H	-1.695132	0.342464	1.104694	1
H	1.106807	-0.824686	1.503244	1
H	0.166588	-1.882306	-0.454006	1
H	1.424048	-0.771636	-0.930426	1
H	-0.341712	0.917814	-1.616786	1
H	-1.591812	-0.255346	-1.160256	1
H	0.453038	-0.608596	-3.092536	1
H	1.647887	3.270994	0.910684	1
Es	1.099475	-0.769364	-0.798871	99
Es	-0.445656	-0.776899	-2.761309	99
Es	1.340605	1.632159	0.668499	99
Es	0.413015	-0.216850	0.907009	99
Es	0.409481	-0.812435	-0.509838	99
Es	0.035458	-0.651539	-2.927748	99
Es	-0.068961	-0.470208	-0.979751	99
Es	0.405027	-0.482382	0.203413	99
Es	0.233913	-1.545798	-0.461840	99
Es	-1.210258	-1.018444	1.562002	99
Es	-0.468131	-0.518561	-2.298674	99
Es	0.894950	1.143957	0.907027	99
Es	0.775637	1.831572	0.809245	99
Es	1.176230	1.690217	1.238930	99
Es	1.526293	2.925894	0.908251	99
Es	-0.903652	-0.099762	2.284293	99
Es	-1.258367	-0.228893	-1.257630	99
Es	0.662786	0.498962	0.903051	99
Es	-0.554724	-0.147641	-1.489276	99
Es	-0.264718	-0.244346	1.233478	99
Es	1.292411	2.266383	0.907031	99
Es	0.880815	-0.612409	1.303655	99
Es	-0.955945	-0.308387	1.583039	99
Es	-0.503581	-1.114121	-2.731267	99
Es	-1.448090	0.134497	1.255037	99
Es	-0.399873	0.590464	-1.564153	99
Es	-0.580827	-0.632230	-2.903272	99
44
Properties=species:S:1:pos:R:3:Z:I:1 energy=-307.93316327615685 field_type=dipole dipole="0.000000 0.000000 0.000000" charge=0
C	-0.955992	-0.308386	1.583064	6
C	0.413018	-0.216956	0.907034	6
C	0.409487	-0.812476	-0.509886	6
C	-0.554782	-0.147506	-1.489096	6
O	-0.445933	-0.777056	-2.761496	8
C	0.895037	1.144214	0.907034	6
C	1.292318	2.266114	0.907034	6
H	-0.888442	-0.001586	2.632704	1
H	-1.334422	-1.335066	1.558994	1
H	-1.695132	0.342464	1.104694	1
H	1.106807	-0.824686	1.503244	1
H	0.166588	-1.882306	-0.454006	1
H	1.424048	-0.771636	-0.930426	1
H	-0.341712	0.917814	-1.616786	1
H	-1.591812	-0.255346	-1.160256	1
H	0.453038	-0.608596	-3.092536	1
H	1.647887	3.270994	0.910684	1
Es	0.405181	-0.482595	0.203308	99
Es	-0.578533	-0.635690	-2.900581	99
Es	0.852391	1.804400	0.668796	99
Es	1.526134	2.925985	0.908282	99
Es	0.413017	-0.216851	0.907010	99
Es	-1.447931	0.134467	1.255361	99
Es	-0.264722	-0.244388	1.233242	99
Es	-1.210424	-1.018587	1.562122	99
Es	-1.258153	-0.229059	-1.257587	99
Es	-0.955945	-0.308386	1.583038	99
Es	-0.554726	-0.147638	-1.489274	99
Es	-0.903468	-0.099721	2.283998	99
Es	0.034046	-0.649218	-2.929449	99
Es	1.292411	2.266382	0.907030	99
Es	0.894947	1.143958	0.907032	99
Es	0.880475	-0.612129	1.303594	99
Es	1.419642	1.604158	0.810832	99
Es	1.020758	1.745273	1.236869	99
Es	-0.068816	-0.470215	-0.979793	99
Es	1.099395	-0.769323	-0.798830	99
Es	-0.469412	-0.516680	-2.300158	99
Es	-0.399847	0.590622	-1.564068	99
Es	-0.445618	-0.776940	-2.761311	99
Es	0.233669	-1.545909	-0.461821	99
Es	0.409480	-0.812435	-0.509838	99
Es	0.662669	0.499167	0.903218	99
Es	-0.503305	-1.114816	-2.730689	99
44
Properties=species:S:1:pos:R:3:Z:I:1 energy=-307.93316327615685 field_type=dipole dipole="0.000000 0.000000 0.000000" charge=0
C	-0.955992	-0.308386	1.583064	6
C	0.413018	-0.216956	0.907034	6
C	0.409487	-0.812476	-0.509886	6
C	-0.554782	-0.147506	-1.489096	6
O	-0.445933	-0.777056	-2.761496	8
C	0.895037	1.144214	0.907034	6
C	1.292318	2.266114	0.907034	6
H	-0.888442	-0.001586	2.632704	1
H	-1.334422	-1.335066	1.558994	1
H	-1.695132	0.342464	1.104694	1
H	1.106807	-0.824686	1.503244	1
H	0.166588	-1.882306	-0.454006	1
H	1.424048	-0.771636	-0.930426	1
H	-0.341712	0.917814	-1.616786	1
H	-1.591812	-0.255346	-1.160256	1
H	0.453038	-0.608596	-3.092536	1
H	1.647887	3.270994	0.910684	1
Es	1.193315	1.684162	1.233735	99
Es	0.413017	-0.216851	0.907009	99
Es	-0.469515	-0.517316	-2.300473	99
Es	0.033646	-0.648085	-2.929277	99
Es	0.771170	1.833003	0.823972	99
Es	-0.554727	-0.147636	-1.489269	99
Es	-0.903594	-0.099974	2.283416	99
Es	-0.577111	-0.635813	-2.899090	99
Es	1.327937	1.636813	0.658923	99
Es	1.292391	2.266388	0.907022	99
Es	0.405072	-0.482326	0.203503	99
Es	0.409481	-0.812434	-0.509838	99
Es	-0.955946	-0.308387	1.583038	99
Es	-1.447814	0.134839	1.255355	99
Es	-0.264513	-0.244354	1.233476	99
Es	-0.504170	-1.115202	-2.731881	99
Es	-0.399749	0.590736	-1.564001	99
Es	-1.258045	-0.229243	-1.257499	99
Es	-0.445705	-0.776941	-2.761361	99
Es	0.894953	1.143952	0.907028	99
Es	1.526338	2.925966	0.908347	99
Es	0.662892	0.499230	0.903046	99
Es	1.099182	-0.769110	-0.798779	99
Es	-1.210401	-1.018793	1.562143	99
Es	0.880360	-0.612525	1.303521	99
Es	0.233765	-1.546111	-0.461831	99
Es	-0.068916	-0.470156	-0.979902	99
44
Properties=species:S:1:pos:R:3:Z:I:1 energy=-307.93316327615685 field_type=dipole dipole="0.000000 0.000000 0.000000" charge=0
C	-0.955992	-0.308386	1.583064	6
C	0.413018	-0.216956	0.907034	6
C	0.409487	-0.812476	-0.509886	6
C	-0.554782	-0.147506	-1.489096	6
O	-0.445933	-0.777056	-2.761496	8
C	0.895037	1.144214	0.907034	6
C	1.292318	2.266114	0.907034	6
H	-0.888442	-0.001586	2.632704	1
H	-1.334422	-1.335066	1.558994	1
H	-1.695132	0.342464	1.104694	1
H	1.106807	-0.824686	1.503244	1
H	0.166588	-1.882306	-0.454006	1
H	1.424048	-0.771636	-0.930426	1
H	-0.341712	0.917814	-1.616786	1
H	-1.591812	-0.255346	-1.160256	1
H	0.453038	-0.608596	-3.092536	1
H	1.647887	3.270994	0.910684	1
Es	-0.445706	-0.776735	-2.761355	99
Es	-0.068982	-0.470134	-0.979907	99
Es	0.894951	1.143955	0.907038	99
Es	0.413018	-0.216852	0.907011	99
Es	-0.903629	-0.099898	2.283116	99
Es	-0.554725	-0.147637	-1.489271	99
Es	-0.575679	-0.637252	-2.897908	99
Es	1.098886	-0.769012	-0.798699	99
Es	-1.257921	-0.229316	-1.257556	99
Es	-0.264421	-0.244286	1.233500	99
Es	-0.505129	-1.115436	-2.731060	99
Es	1.396851	1.612331	0.753261	99
Es	0.033141	-0.648032	-2.929907	99
Es	-0.955945	-0.308387	1.583039	99
Es	0.880134	-0.612471	1.303464	99
Es	1.526296	2.926026	0.908453	99
Es	-0.469497	-0.515894	-2.301775	99
Es	0.409484	-0.812433	-0.509839	99
Es	-1.447595	0.134788	1.255456	99
Es	0.815320	1.817427	0.717062	99
Es	0.662879	0.499354	0.903272	99
Es	-0.399613	0.590840	-1.563874	99
Es	1.080370	1.724154	1.245974	99
Es	0.233753	-1.546290	-0.461902	99
Es	-1.210499	-1.018932	1.562233	99
Es	1.292402	2.266386	0.907024	99
Es	0.405170	-0.482430	0.203486	99
44
Properties=species:S:1:pos:R:3:Z:I:1 energy=-307.93316327615685 field_type=dipole dipole="0.000000 0.000000 0.000000" charge=0
C	-0.955992	-0.308386	1.583064	6
C	0.413018	-0.216956	0.907034	6
C	0.409487	-0.812476	-0.509886	6
C	-0.554782	-0.147506	-1.489096	6
O	-0.445933	-0.777056	-2.761496	8
C	0.895037	1.144214	0.907034	6
C	1.292318	2.266114	0.907034	6
H	-0.888442	-0.001586	2.632704	1
H	-1.334422	-1.335066	1.558994	1
H	-1.695132	0.342464	1.104694	1
H	1.106807	-0.824686	1.503244	1
H	0.166588	-1.882306	-0.454006	1
H	1.424048	-0.771636	-0.930426	1
H	-0.341712	0.917814	-1.616786	1
H	-1.591812	-0.255346	-1.160256	1
H	0.453038	-0.608596	-3.092536	1
H	1.647887	3.270994	0.910684	1
Es	0.825424	1.814189	1.097349	99
Es	0.880124	-0.612684	1.303514	99
Es	-0.506091	-1.115621	-2.732988	99
Es	0.662650	0.499467	0.902896	99
Es	0.405140	-0.482237	0.203609	99
Es	1.066515	1.729124	0.568769	99
Es	-0.470478	-0.516499	-2.301854	99
Es	0.413016	-0.216850	0.907009	99
Es	-0.399683	0.590873	-1.563919	99
Es	-1.257824	-0.229341	-1.257477	99
Es	-0.264295	-0.244214	1.233381	99
Es	1.292413	2.266382	0.907030	99
Es	1.098772	-0.769099	-0.798688	99
Es	0.233636	-1.546324	-0.461890	99
Es	-0.903526	-0.100089	2.282952	99
Es	1.401040	1.610458	1.050785	99
Es	0.409482	-0.812437	-0.509840	99
Es	0.894946	1.143957	0.907028	99
Es	-0.955944	-0.308387	1.583037	99
Es	-0.554725	-0.147642	-1.489275	99
Es	-1.210482	-1.018972	1.562210	99
Es	0.032590	-0.645807	-2.930601	99
Es	-1.447666	0.134993	1.255592	99
Es	-0.445731	-0.776936	-2.761384	99
Es	1.526031	2.926134	0.908180	99
Es	-0.068725	-0.470150	-0.979936	99
Es	-0.573296	-0.638455	-2.895156	99
44
Properties=species:S:1:pos:R:3:Z:I:1 energy=-307.93316327615685 field_type=dipole dipole="0.000000 0.000000 0.000000" charge=0
C	-0.955992	-0.308386	1.583064	6
C	0.413018	-0.216956	0.907034	6
C	0.409487	-0.812476	-0.509886	6
C	-0.554782	-0.147506	-1.489096	6
O	-0.445933	-0.777056	-2.761496	8
C	0.895037	1.144214	0.907034	6
C	1.292318	2.266114	0.907034	6
H	-0.888442	-0.001586	2.632704	1
H	-1.334422	-1.335066	1.558994	1
H	-1.695132	0.342464	1.104694	1
H	1.106807	-0.824686	1.503244	1
H	0.166588	-1.882306	-0.454006	1
H	1.424048	-0.771636	-0.930426	1
H	-0.341712	0.917814	-1.616786	1
H	-1.591812	-0.255346	-1.160256	1
H	0.453038	-0.608596	-3.092536	1
H	1.647887	3.270994	0.910684	1
Es	0.405074	-0.482115	0.203697	99
Es	-0.399681	0.590992	-1.563806	99
Es	-0.507061	-1.115732	-2.734197	99
Es	-0.068887	-0.469978	-0.980093	99
Es	-0.264199	-0.244238	1.233547	99
Es	1.525915	2.926221	0.908287	99
Es	0.409481	-0.812435	-0.509839	99
Es	-1.210518	-1.019113	1.562352	99
Es	0.233707	-1.546462	-0.461860	99
Es	1.292408	2.266384	0.907032	99
Es	0.032427	-0.645464	-2.930262	99
Es	0.413017	-0.216851	0.907009	99
Es	0.869400	1.798773	1.148275	99
Es	-0.903626	-0.100177	2.282467	99
Es	0.894945	1.143956	0.907031	99
Es	-0.470565	-0.516615	-2.301945	99
Es	0.662675	0.499554	0.902985	99
Es	-0.572025	-0.638600	-2.894213	99
Es	-0.554725	-0.147639	-1.489273	99
Es	1.098665	-0.768902	-0.798636	99
Es	-1.447552	0.135099	1.255673	99
Es	-0.955946	-0.308387	1.583039	99
Es	-1.257744	-0.229634	-1.257384	99
Es	1.001347	1.752004	0.579860	99
Es	0.880081	-0.612786	1.303360	99
Es	1.422343	1.602934	0.988522	99
Es	-0.445643	-0.776959	-2.761298	99
44
Properties=species:S:1:pos:R:3:Z:I:1 energy=-307.93316327615685 field_type=dipole dipole="0.000000 0.000000 0.000000" charge=0
C	-0.955992	-0.308386	1.583064	6
C	0.413018	-0.216956	0.907034	6
C	0.409487	-0.812476	-0.509886	6
C	-0.554782	-0.147506	-1.489096	6
O	-0.445933	-0.777056	-2.761496	8
C	0.895037	1.144214	0.907034	6
C	1.292318	2.266114	0.907034	6
H	-0.888442	-0.001586	2.632704	1
H	-1.334422	-1.335066	1.558994	1
H	-1.695132	0.342464	1.104694	1
H	1.106807	-0.824686	1.503244	1
H	0.166588	-1.882306	-0.454006	1
H	1.424048	-0.771636	-0.930426	1
H	-0.341712	0.917814	-1.616786	1
H	-1.591812	-0.255346	-1.160256	1
H	0.453038	-0.608596	-3.092536	1
H	1.647887	3.270994	0.910684	1
Es	-0.264099	-0.244309	1.233748	99
Es	1.098441	-0.768824	-0.798570	99
Es	0.829854	1.812231	0.695438	99
Es	0.405138	-0.482049	0.203677	99
Es	1.406587	1.608926	0.778127	99
Es	-0.554726	-0.147638	-1.489272	99
Es	0.879914	-0.612910	1.303299	99
Es	-0.955944	-0.308387	1.583040	99
Es	1.056083	1.732752	1.242571	99
Es	0.233614	-1.546598	-0.461936	99
Es	1.526296	2.926110	0.908609	99
Es	-1.210541	-1.019246	1.562256	99
Es	0.409483	-0.812437	-0.509842	99
Es	-0.903679	-0.100288	2.282185	99
Es	-0.507053	-1.116174	-2.733166	99
Es	-0.570470	-0.640801	-2.893001	99
Es	-0.068871	-0.470045	-0.979938	99
Es	-0.445711	-0.776730	-2.761388	99
Es	-0.399562	0.591065	-1.563745	99
Es	-0.471482	-0.515171	-2.303735	99
Es	0.413015	-0.216851	0.907006	99
Es	-1.447350	0.135326	1.255647	99
Es	0.662841	0.499624	0.903326	99
Es	0.031787	-0.644497	-2.930542	99
Es	1.292413	2.266382	0.907021	99
Es	-1.257612	-0.229583	-1.257517	99
Es	0.894947	1.143956	0.907033	99
44
Properties=species:S:1:pos:R:3:Z:I:1 energy=-307.93316327615685 field_type=dipole dipole="0.000000 0.000000 0.000000" charge=0
C	-0.955992	-0.308386	1.583064	6
C	0.413018	-0.216956	0.907034	6
C	0.409487	-0.812476	-0.509886	6
C	-0.554782	-0.147506	-1.489096	6
O	-0.445933	-0.777056	-2.761496	8
C	0.895037	1.144214	0.907034	6
C	1.292318	2.266114	0.907034	6
H	-0.888442	-0.001586	2.632704	1
H	-1.334422	-1.335066	1.558994	1
H	-1.695132	0.342464	1.104694	1
H	1.106807	-0.824686	1.503244	1
H	0.166588	-1.882306	-0.454006	1
H	1.424048	-0.771636	-0.930426	1
H	-0.341712	0.917814	-1.616786	1
H	-1.591812	-0.255346	-1.160256	1
H	0.453038	-0.608596	-3.092536	1
H	1.647887	3.270994	0.910684	1
Es	-0.445733	-0.776934	-2.761356	99
Es	-0.472139	-0.515467	-2.304061	99
Es	1.024547	1.744057	1.234140	99
Es	-0.507065	-1.116358	-2.733684	99
Es	-1.257453	-0.229647	-1.257443	99
Es	-0.263991	-0.244161	1.233752	99
Es	0.413016	-0.216850	0.907009	99
Es	0.409481	-0.812435	-0.509839	99
Es	0.894949	1.143957	0.907038	99
Es	-1.210532	-1.019315	1.562354	99
Es	0.879798	-0.612785	1.303222	99
Es	0.404980	-0.482055	0.203641	99
Es	0.031164	-0.642692	-2.931386	99
Es	0.662943	0.499627	0.903262	99
Es	-0.399580	0.591137	-1.563746	99
Es	-0.569242	-0.641973	-2.891308	99
Es	0.849843	1.805082	0.670124	99
Es	-0.554724	-0.147637	-1.489272	99
Es	-0.903647	-0.100225	2.282055	99
Es	1.418193	1.604734	0.812008	99
Es	0.233628	-1.546681	-0.462011	99
Es	-1.447325	0.135194	1.255796	99
Es	1.098278	-0.768766	-0.798549	99
Es	1.526191	2.926175	0.908507	99
Es	-0.068730	-0.470145	-0.979991	99
Es	1.292410	2.266383	0.907032	99
Es	-0.955947	-0.308387	1.583039	99
44
Properties=species:S:1:pos:R:3:Z:I:1 energy=-307.93316327615685 field_type=dipole dipole="0.000000 0.000000 0.000000" charge=0
C	-0.955992	-0.308386	1.583064	6
C	0.413018	-0.216956	0.907034	6
C	0.409487	-0.812476	-0.509886	6
C	-0.554782	-0.147506	-1.489096	6
O	-0.445933	-0.777056	-2.761496	8
C	0.895037	1.144214	0.907034	6
C	1.292318	2.266114	0.907034	6
H	-0.888442	-0.001586	2.632704	1
H	-1.334422	-1.335066	1.558994	1
H	-1.695132	0.342464	1.104694	1
H	1.106807	-0.824686	1.503244	1
H	0.166588	-1.882306	-0.454006	1
H	1.424048	-0.771636	-0.930426	1
H	-0.341712	0.917814	-1.616786	1
H	-1.591812	-0.255346	-1.160256	1
H	0.453038	-0.608596	-3.092536	1
H	1.647887	3.270994	0.910684	1
Es	1.023170	1.744612	1.232728	99
Es	1.418710	1.604606	0.816017	99
Es	0.409481	-0.812436	-0.509839	99
Es	0.894946	1.143956	0.907034	99
Es	0.405243	-0.482109	0.203742	99
Es	0.662874	0.499712	0.903253	99
Es	-0.567808	-0.643598	-2.889768	99
Es	-0.554726	-0.147637	-1.489271	99
Es	1.292414	2.266385	0.907033	99
Es	-0.903688	-0.100403	2.281761	99
Es	-0.507468	-1.116545	-2.733296	99
Es	0.879618	-0.612766	1.303300	99
Es	-0.263964	-0.244097	1.233640	99
Es	0.029986	-0.642508	-2.932728	99
Es	1.526103	2.926217	0.908446	99
Es	-1.447329	0.135315	1.255946	99
Es	-0.068823	-0.469964	-0.980022	99
Es	-0.955945	-0.308387	1.583039	99
Es	1.098241	-0.768729	-0.798627	99
Es	0.233528	-1.546706	-0.461992	99
Es	-0.471920	-0.513895	-2.304710	99
Es	-1.210550	-1.019364	1.562373	99
Es	-0.445703	-0.776927	-2.761288	99
Es	0.413017	-0.216850	0.907010	99
Es	0.850900	1.804588	0.667564	99
Es	-1.257439	-0.229811	-1.257347	99
Es	-0.399554	0.591172	-1.563667	99
44
Properties=species:S:1:pos:R:3:Z:I:1 energy=-307.93316327615685 field_type=dipole dipole="0.000000 0.000000 0.000000" charge=0
C	-0.955992	-0.308386	1.583064	6
C	0.413018	-0.216956	0.907034	6
C	0.409487	-0.812476	-0.509886	6
C	-0.554782	-0.147506	-1.489096	6
O	-0.445933	-0.777056	-2.761496	8
C	0.895037	1.144214	0.907034	6
C	1.292318	2.266114	0.907034	6
H	-0.888442	-0.001586	2.632704	1
H	-1.334422	-1.335066	1.558994	1
H	-1.695132	0.342464	1.104694	1
H	1.106807	-0.824686	1.503244	1
H	0.166588	-1.882306	-0.454006	1
H	1.424048	-0.771636	-0.930426	1
H	-0.341712	0.917814	-1.616786	1
H	-1.591812	-0.255346	-1.160256	1
H	0.453038	-0.608596	-3.092536	1
H	1.647887	3.270994	0.910684	1
Es	0.894948	1.143955	0.907032	99
Es	1.361401	1.625140	0.701322	99
Es	-0.263955	-0.244209	1.233697	99
Es	1.526438	2.926119	0.908587	99
Es	-0.399563	0.591242	-1.563643	99
Es	-0.445848	-0.776375	-2.761560	99
Es	-1.210566	-1.019476	1.562397	99
Es	0.233578	-1.546818	-0.461981	99
Es	-0.068719	-0.470163	-0.979992	99
Es	-1.447234	0.135665	1.255960	99
Es	-0.955946	-0.308387	1.583039	99
Es	1.097974	-0.768730	-0.798558	99
Es	0.409481	-0.812437	-0.509839	99
Es	1.292418	2.266380	0.907029	99
Es	0.879626	-0.613068	1.303283	99
Es	1.145199	1.701228	1.242119	99
Es	-0.554725	-0.147638	-1.489272	99
Es	0.405202	-0.481765	0.203890	99
Es	0.785567	1.827663	0.772973	99
Es	-0.567647	-0.643313	-2.889340	99
Es	-0.903564	-0.100558	2.281430	99
Es	-0.471963	-0.515711	-2.304784	99
Es	0.030218	-0.641291	-2.931688	99
Es	-0.507794	-1.116712	-2.734344	99
Es	0.663066	0.499708	0.903044	99
Es	-1.257295	-0.229771	-1.257477	99
Es	0.413017	-0.216850	0.907009	99
44
Properties=species:S:1:pos:R:3:Z:I:1 energy=-307.93316327615685 field_type=dipole dipole="0.000000 0.000000 0.000000" charge=0
C	-0.955992	-0.308386	1.583064	6
C	0.413018	-0.216956	0.907034	6
C	0.409487	-0.812476	-0.509886	6
C	-0.554782	-0.147506	-1.489096	6
O	-0.445933	-0.777056	-2.761496	8
C	0.895037	1.144214	0.907034	6
C	1.292318	2.266114	0.907034	6
H	-0.888442	-0.001586	2.632704	1
H	-1.334422	-1.335066	1.558994	1
H	-1.695132	0.342464	1.104694	1
H	1.106807	-0.824686	1.503244	1
H	0.166588	-1.882306	-0.454006	1
H	1.424048	-0.771636	-0.930426	1
H	-0.341712	0.917814	-1.616786	1
H	-1.591812	-0.255346	-1.160256	1
H	0.453038	-0.608596	-3.092536	1
H	1.647887	3.270994	0.910684	1
Es	-0.565231	-0.645626	-2.887917	99
Es	0.413017	-0.216850	0.907010	99
Es	-0.554726	-0.147637	-1.489271	99
Es	0.233616	-1.546866	-0.461991	99
Es	-0.508439	-1.116671	-2.733582	99
Es	-0.263939	-0.244104	1.233732	99
Es	0.405193	-0.481918	0.203889	99
Es	-1.210583	-1.019518	1.562488	99
Es	-0.955947	-0.308388	1.583041	99
Es	0.663173	0.499698	0.902991	99
Es	0.879603	-0.613038	1.303068	99
Es	0.029478	-0.642092	-2.932851	99
Es	0.773519	1.831865	0.808767	99
Es	1.292413	2.266383	0.907032	99
Es	0.409481	-0.812435	-0.509838	99
Es	1.526438	2.926127	0.908547	99
Es	-0.903637	-0.100663	2.281151	99
Es	-1.257426	-0.229887	-1.257501	99
Es	0.894946	1.143955	0.907029	99
Es	-1.447275	0.135592	1.256202	99
Es	1.098058	-0.768571	-0.798495	99
Es	-0.473121	-0.512029	-2.305957	99
Es	-0.445601	-0.776932	-2.761311	99
Es	1.331950	1.635819	0.671684	99
Es	1.186725	1.686337	1.236009	99
Es	-0.068937	-0.469962	-0.980010	99
Es	-0.399437	0.591242	-1.563583	99
44
Properties=species:S:1:pos:R:3:Z:I:1 energy=-307.93316327615685 field_type=dipole dipole="0.000000 0.000000 0.000000" charge=0
C	-0.955992	-0.308386	1.583064	6
C	0.413018	-0.216956	0.907034	6
C	0.409487	-0.812476	-0.509886	6
C	-0.554782	-0.147506	-1.489096	6
O	-0.445933	-0.777056	-2.761496	8
C	0.895037	1.144214	0.907034	6
C	1.292318	2.266114	0.907034	6
H	-0.888442	-0.001586	2.632704	1
H	-1.334422	-1.335066	1.558994	1
H	-1.695132	0.342464	1.104694	1
H	1.106807	-0.824686	1.503244	1
H	0.166588	-1.882306	-0.454006	1
H	1.424048	-0.771636	-0.930426	1
H	-0.341712	0.917814	-1.616786	1
H	-1.591812	-0.255346	-1.160256	1
H	0.453038	-0.608596	-3.092536	1
H	1.647887	3.270994	0.910684	1
Es	1.187504	1.686031	1.236171	99
Es	-0.263676	-0.244112	1.233927	99
Es	1.330992	1.636166	0.671108	99
Es	-1.447242	0.135775	1.256208	99
Es	-0.508555	-1.116807	-2.733829	99
Es	0.405087	-0.481607	0.203976	99
Es	0.879528	-0.613057	1.303049	99
Es	0.029998	-0.641340	-2.931816	99
Es	1.097823	-0.768670	-0.798431	99
Es	-0.474393	-0.512235	-2.306981	99
Es	-0.903730	-0.100825	2.280857	99
Es	-0.554724	-0.147639	-1.489275	99
Es	1.292415	2.266384	0.907031	99
Es	-0.068647	-0.470138	-0.980213	99
Es	-0.955946	-0.308388	1.583039	99
Es	-0.399456	0.591307	-1.563522	99
Es	0.413016	-0.216850	0.907009	99
Es	0.409481	-0.812436	-0.509838	99
Es	-1.210615	-1.019543	1.562534	99
Es	-1.257266	-0.229960	-1.257417	99
Es	1.526456	2.926133	0.908473	99
Es	-0.445663	-0.776874	-2.761335	99
Es	-0.564398	-0.646101	-2.887660	99
Es	0.233555	-1.546921	-0.462040	99
Es	0.773686	1.831828	0.809289	99
Es	0.894951	1.143953	0.907023	99
Es	0.663131	0.499758	0.902998	99
44
Properties=species:S:1:pos:R:3:Z:I:1 energy=-307.93316327615685 field_type=dipole dipole="0.000000 0.000000 0.000000" charge=0
C	-0.955992	-0.308386	1.583064	6
C	0.413018	-0.216956	0.907034	6
C	0.409487	-0.812476	-0.509886	6
C	-0.554782	-0.147506	-1.489096	6
O	-0.445933	-0.777056	-2.761496	8
C	0.895037	1.144214	0.907034	6
C	1.292318	2.266114	0.907034	6
H	-0.888442	-0.001586	2.632704	1
H	-1.334422	-1.335066	1.558994	1
H	-1.695132	0.342464	1.104694	1
H	1.106807	-0.824686	1.503244	1
H	0.166588	-1.882306	-0.454006	1
H	1.424048	-0.771636	-0.930426	1
H	-0.341712	0.917814	-1.616786	1
H	-1.591812	-0.255346	-1.160256	1
H	0.453038	-0.608596	-3.092536	1
H	1.647887	3.270994	0.910684	1
Es	-0.903616	-0.100737	2.280847	99
Es	1.526417	2.926144	0.908482	99
Es	0.768861	1.833489	0.828092	99
Es	-0.955946	-0.308387	1.583039	99
Es	0.409482	-0.812436	-0.509839	99
Es	0.233607	-1.546976	-0.461979	99
Es	0.405188	-0.481638	0.203974	99
Es	-0.263905	-0.244329	1.233937	99
Es	0.029342	-0.640184	-2.932960	99
Es	1.097818	-0.768488	-0.798574	99
Es	-0.068785	-0.470108	-0.980093	99
Es	-1.257218	-0.230014	-1.257339	99
Es	0.894948	1.143955	0.907032	99
Es	1.316017	1.641546	0.658255	99
Es	-0.399453	0.591327	-1.563545	99
Es	-0.563273	-0.647332	-2.886070	99
Es	-1.447158	0.135836	1.256130	99
Es	-0.554725	-0.147637	-1.489273	99
Es	-0.508903	-1.116795	-2.734057	99
Es	0.663103	0.499809	0.902838	99
Es	0.879528	-0.612983	1.303021	99
Es	-1.210576	-1.019615	1.562556	99
Es	1.207282	1.678998	1.230327	99
Es	-0.474521	-0.512223	-2.307210	99
Es	0.413016	-0.216851	0.907012	99
Es	1.292413	2.266383	0.907031	99
Es	-0.445632	-0.776918	-2.761302	99
