44
Properties=species:S:1:pos:R:3:Z:I:1 energy=-307.9511251085039 field_type=dipole dipole="0.000000 0.000000 0.000000" charge=0
C	-0.566492	-2.207533	-0.335186	6
C	-0.758972	-1.292673	0.865454	6
C	-0.519712	0.154417	0.520834	6
C	-1.508652	1.063727	0.518664	6
O	0.817008	0.474457	0.331234	8
C	1.177378	1.392527	-0.622906	6
C	2.396168	1.936267	-0.657076	6
H	-0.776092	-3.244873	-0.054796	1
H	0.461018	-2.161863	-0.710346	1
H	-1.242072	-1.935433	-1.152926	1
H	-0.072892	-1.591093	1.667224	1
H	-1.773562	-1.433333	1.257994	1
H	-2.535982	0.779547	0.719004	1
H	-1.314782	2.115667	0.340874	1
H	0.411398	1.621307	-1.350476	1
H	3.141868	1.674277	0.085524	1
H	2.664368	2.654607	-1.423096	1
Es	-0.566501	-2.207509	-0.335149	99
Es	0.653596	1.543236	-1.110505	99
Es	0.959023	0.240360	0.231089	99
Es	1.708175	1.935359	-0.459235	99
Es	2.900493	1.764010	-0.159643	99
Es	0.901333	0.838402	-0.028232	99
Es	0.130465	-2.173458	-0.588041	99
Es	-0.628570	-0.561475	0.685104	99
Es	-1.452163	-1.376879	1.126391	99
Es	2.576527	2.416692	-1.174784	99
Es	-0.758956	-1.292627	0.865405	99
Es	-0.519354	0.154381	0.520788	99
Es	-1.029018	-2.018030	-0.888974	99
Es	2.396223	1.936289	-0.657085	99
Es	-1.378050	1.774420	0.392168	99
Es	0.816695	0.474690	0.331018	99
Es	-1.508703	1.063771	0.518629	99
Es	0.870205	0.590836	0.579804	99
Es	1.177191	1.392293	-0.622711	99
Es	-2.200903	0.869607	0.650740	99
Es	-0.710845	-2.912144	-0.138950	99
Es	1.915847	1.434242	-0.837846	99
Es	0.301378	0.376953	0.347274	99
Es	-0.659013	-1.733155	0.262407	99
Es	-1.089501	0.576758	0.178824	99
Es	-1.007425	0.693761	0.831901	99
Es	-0.291255	-1.484592	1.404030	99
44
Properties=species:S:1:pos:R:3:Z:I:1 energy=-307.9511251085039 field_type=dipole dipole="0.000000 0.000000 0.000000" charge=0
C	-0.566492	-2.207533	-0.335186	6
C	-0.758972	-1.292673	0.865454	6
C	-0.519712	0.154417	0.520834	6
C	-1.508652	1.063727	0.518664	6
O	0.817008	0.474457	0.331234	8
C	1.177378	1.392527	-0.622906	6
C	2.396168	1.936267	-0.657076	6
H	-0.776092	-3.244873	-0.054796	1
H	0.461018	-2.161863	-0.710346	1
H	-1.242072	-1.935433	-1.152926	1
H	-0.072892	-1.591093	1.667224	1
H	-1.773562	-1.433333	1.257994	1
H	-2.535982	0.779547	0.719004	1
H	-1.314782	2.115667	0.340874	1
H	0.411398	1.621307	-1.350476	1
H	3.141868	1.674277	0.085524	1
H	2.664368	2.654607	-1.423096	1
Es	-1.007490	0.694205	0.829985	99
Es	-2.203240	0.868688	0.650154	99
Es	0.984750	0.230741	0.262214	99
Es	1.177187	1.392297	-0.622706	99
Es	-0.519350	0.154381	0.520799	99
Es	1.915756	1.435315	-0.838750	99
Es	-0.658851	-1.732965	0.262735	99
Es	0.133312	-2.173065	-0.588771	99
Es	2.901899	1.761642	-0.161681	99
Es	-0.290244	-1.484780	1.402529	99
Es	0.816702	0.474568	0.330936	99
Es	-0.758958	-1.292628	0.865404	99
Es	-0.712190	-2.911048	-0.138110	99
Es	-0.628017	-0.561874	0.684399	99
Es	0.296886	0.376020	0.350836	99
Es	1.708053	1.935490	-0.457422	99
Es	2.396230	1.936287	-0.657090	99
Es	-1.454772	-1.377912	1.126829	99
Es	0.652662	1.545477	-1.108764	99
Es	-1.508707	1.063772	0.518624	99
Es	0.845646	0.601775	0.544288	99
Es	-1.377101	1.773397	0.391353	99
Es	-0.566501	-2.207510	-0.335149	99
Es	2.576700	2.415167	-1.175023	99
Es	0.904891	0.838704	-0.027601	99
Es	-1.029983	-2.017861	-0.887364	99
Es	-1.088375	0.577905	0.181761	99
44
Properties=species:S:1:pos:R:3:Z:I:1 energy=-307.9511251085039 field_type=dipole dipole="0.000000 0.000000 0.000000" charge=0
C	-0.566492	-2.207533	-0.335186	6
C	-0.758972	-1.292673	0.865454	6
C	-0.519712	0.154417	0.520834	6
C	-1.508652	1.063727	0.518664	6
O	0.817008	0.474457	0.331234	8
C	1.177378	1.392527	-0.622906	6
C	2.396168	1.936267	-0.657076	6
H	-0.776092	-3.244873	-0.054796	1
H	0.461018	-2.161863	-0.710346	1
H	-1.242072	-1.935433	-1.152926	1
H	-0.072892	-1.591093	1.667224	1
H	-1.773562	-1.433333	1.257994	1
H	-2.535982	0.779547	0.719004	1
H	-1.314782	2.115667	0.340874	1
H	0.411398	1.621307	-1.350476	1
H	3.141868	1.674277	0.085524	1
H	2.664368	2.654607	-1.423096	1
Es	-0.519354	0.154382	0.520801	99
Es	2.576551	2.414293	-1.174802	99
Es	-0.289688	-1.485044	1.401714	99
Es	0.294965	0.374648	0.350964	99
Es	0.652340	1.546411	-1.108004	99
Es	1.177183	1.392293	-0.622703	99
Es	1.000328	0.229156	0.284525	99
Es	2.902724	1.760667	-0.162648	99
Es	1.915777	1.435582	-0.839257	99
Es	-0.659062	-1.732658	0.262732	99
Es	0.829030	0.601405	0.517865	99
Es	-0.566501	-2.207508	-0.335147	99
Es	1.708012	1.935801	-0.456589	99
Es	2.396230	1.936289	-0.657088	99
Es	-1.007354	0.694152	0.829044	99
Es	-0.758955	-1.292629	0.865404	99
Es	-1.030336	-2.017881	-0.886646	99
Es	-0.712937	-2.910230	-0.137699	99
Es	-1.456273	-1.378300	1.126849	99
Es	-1.376532	1.772690	0.391510	99
Es	-2.204426	0.868326	0.649836	99
Es	0.134919	-2.172862	-0.588788	99
Es	-1.088105	0.578762	0.182942	99
Es	0.816698	0.474567	0.330958	99
Es	-1.508706	1.063771	0.518621	99
Es	-0.627510	-0.562305	0.683965	99
Es	0.907878	0.842411	-0.023945	99
44
Properties=species:S:1:pos:R:3:Z:I:1 energy=-307.9511251085039 field_type=dipole dipole="0.000000 0.000000 0.000000" charge=0
C	-0.566492	-2.207533	-0.335186	6
C	-0.758972	-1.292673	0.865454	6
C	-0.519712	0.154417	0.520834	6
C	-1.508652	1.063727	0.518664	6
O	0.817008	0.474457	0.331234	8
C	1.177378	1.392527	-0.622906	6
C	2.396168	1.936267	-0.657076	6
H	-0.776092	-3.244873	-0.054796	1
H	0.461018	-2.161863	-0.710346	1
H	-1.242072	-1.935433	-1.152926	1
H	-0.072892	-1.591093	1.667224	1
H	-1.773562	-1.433333	1.257994	1
H	-2.535982	0.779547	0.719004	1
H	-1.314782	2.115667	0.340874	1
H	0.411398	1.621307	-1.350476	1
H	3.141868	1.674277	0.085524	1
H	2.664368	2.654607	-1.423096	1
Es	-0.627282	-0.562638	0.683410	99
Es	-2.205155	0.868175	0.649751	99
Es	-0.289484	-1.485066	1.401064	99
Es	-1.375930	1.772354	0.392088	99
Es	-0.713301	-2.909592	-0.137559	99
Es	-1.087558	0.579299	0.183723	99
Es	0.817038	0.601303	0.497102	99
Es	0.135846	-2.172765	-0.588918	99
Es	0.294017	0.372646	0.349860	99
Es	1.011911	0.230697	0.304520	99
Es	1.916337	1.435639	-0.839910	99
Es	1.177187	1.392296	-0.622706	99
Es	-1.508708	1.063772	0.518619	99
Es	-1.030625	-2.017979	-0.886093	99
Es	1.707456	1.936080	-0.455819	99
Es	2.396229	1.936290	-0.657087	99
Es	0.909130	0.843190	-0.022480	99
Es	2.903247	1.760516	-0.163201	99
Es	2.576410	2.413440	-1.174541	99
Es	-0.566501	-2.207508	-0.335150	99
Es	0.652206	1.546805	-1.107494	99
Es	-0.659042	-1.732518	0.262855	99
Es	-1.007810	0.694042	0.828252	99
Es	-1.457176	-1.378665	1.126889	99
Es	-0.519344	0.154381	0.520796	99
Es	-0.758953	-1.292628	0.865401	99
Es	0.816748	0.474623	0.331045	99
44
Properties=species:S:1:pos:R:3:Z:I:1 energy=-307.9511251085039 field_type=dipole dipole="0.000000 0.000000 0.000000" charge=0
C	-0.566492	-2.207533	-0.335186	6
C	-0.758972	-1.292673	0.865454	6
C	-0.519712	0.154417	0.520834	6
C	-1.508652	1.063727	0.518664	6
O	0.817008	0.474457	0.331234	8
C	1.177378	1.392527	-0.622906	6
C	2.396168	1.936267	-0.657076	6
H	-0.776092	-3.244873	-0.054796	1
H	0.461018	-2.161863	-0.710346	1
H	-1.242072	-1.935433	-1.152926	1
H	-0.072892	-1.591093	1.667224	1
H	-1.773562	-1.433333	1.257994	1
H	-2.535982	0.779547	0.719004	1
H	-1.314782	2.115667	0.340874	1
H	0.411398	1.621307	-1.350476	1
H	3.141868	1.674277	0.085524	1
H	2.664368	2.654607	-1.423096	1
Es	2.903706	1.760392	-0.163659	99
Es	-0.713683	-2.909171	-0.137549	99
Es	-1.508708	1.063771	0.518616	99
Es	1.016980	0.232156	0.317159	99
Es	0.136530	-2.172673	-0.589062	99
Es	-0.758956	-1.292628	0.865404	99
Es	-1.375528	1.771990	0.392704	99
Es	0.911778	0.845590	-0.019748	99
Es	2.576217	2.412810	-1.174183	99
Es	1.916249	1.435213	-0.840177	99
Es	-0.566501	-2.207509	-0.335148	99
Es	2.396230	1.936291	-0.657087	99
Es	-0.658967	-1.732624	0.262778	99
Es	1.177186	1.392297	-0.622704	99
Es	0.293013	0.373395	0.350495	99
Es	-0.519345	0.154382	0.520802	99
Es	-0.289485	-1.485001	1.400630	99
Es	-1.087195	0.579758	0.184101	99
Es	-1.457799	-1.378762	1.126913	99
Es	1.707530	1.936867	-0.455428	99
Es	-0.627038	-0.562942	0.683002	99
Es	-2.205676	0.868146	0.649675	99
Es	-1.008109	0.693883	0.827781	99
Es	0.652088	1.546958	-1.107206	99
Es	-1.030727	-2.017979	-0.885544	99
Es	0.816082	0.474802	0.330568	99
Es	0.811021	0.596777	0.481286	99
44
Properties=species:S:1:pos:R:3:Z:I:1 energy=-307.9511251085039 field_type=dipole dipole="0.000000 0.000000 0.000000" charge=0
C	-0.566492	-2.207533	-0.335186	6
C	-0.758972	-1.292673	0.865454	6
C	-0.519712	0.154417	0.520834	6
C	-1.508652	1.063727	0.518664	6
O	0.817008	0.474457	0.331234	8
C	1.177378	1.392527	-0.622906	6
C	2.396168	1.936267	-0.657076	6
H	-0.776092	-3.244873	-0.054796	1
H	0.461018	-2.161863	-0.710346	1
H	-1.242072	-1.935433	-1.152926	1
H	-0.072892	-1.591093	1.667224	1
H	-1.773562	-1.433333	1.257994	1
H	-2.535982	0.779547	0.719004	1
H	-1.314782	2.115667	0.340874	1
H	0.411398	1.621307	-1.350476	1
H	3.141868	1.674277	0.085524	1
H	2.664368	2.654607	-1.423096	1
Es	2.904149	1.760252	-0.164068	99
Es	0.910398	0.847069	-0.017233	99
Es	2.396238	1.936271	-0.657104	99
Es	2.575953	2.412378	-1.173903	99
Es	0.292363	0.374004	0.352500	99
Es	-2.206124	0.868023	0.649489	99
Es	-1.087473	0.580426	0.184705	99
Es	-0.758955	-1.292626	0.865405	99
Es	0.810546	0.594313	0.477402	99
Es	-1.508707	1.063772	0.518623	99
Es	1.916297	1.435131	-0.840409	99
Es	1.707514	1.937157	-0.455057	99
Es	1.177187	1.392298	-0.622706	99
Es	0.652013	1.547202	-1.106938	99
Es	0.137101	-2.172500	-0.589033	99
Es	-1.007826	0.693455	0.827065	99
Es	-0.289160	-1.485199	1.400206	99
Es	-0.659152	-1.732332	0.262900	99
Es	-0.566501	-2.207510	-0.335148	99
Es	-1.458344	-1.379078	1.126822	99
Es	-1.030783	-2.017977	-0.885152	99
Es	1.018876	0.232378	0.315650	99
Es	-1.375123	1.771750	0.393087	99
Es	-0.519345	0.154381	0.520797	99
Es	0.816684	0.475152	0.331254	99
Es	-0.714014	-2.908885	-0.137398	99
Es	-0.626918	-0.563115	0.682660	99
44
Properties=species:S:1:pos:R:3:Z:I:1 energy=-307.9511251085039 field_type=dipole dipole="0.000000 0.000000 0.000000" charge=0
C	-0.566492	-2.207533	-0.335186	6
C	-0.758972	-1.292673	0.865454	6
C	-0.519712	0.154417	0.520834	6
C	-1.508652	1.063727	0.518664	6
O	0.817008	0.474457	0.331234	8
C	1.177378	1.392527	-0.622906	6
C	2.396168	1.936267	-0.657076	6
H	-0.776092	-3.244873	-0.054796	1
H	0.461018	-2.161863	-0.710346	1
H	-1.242072	-1.935433	-1.152926	1
H	-0.072892	-1.591093	1.667224	1
H	-1.773562	-1.433333	1.257994	1
H	-2.535982	0.779547	0.719004	1
H	-1.314782	2.115667	0.340874	1
H	0.411398	1.621307	-1.350476	1
H	3.141868	1.674277	0.085524	1
H	2.664368	2.654607	-1.423096	1
Es	-0.659213	-1.732296	0.262878	99
Es	1.019039	0.232494	0.310374	99
Es	1.916595	1.435267	-0.840457	99
Es	-2.206435	0.868004	0.649393	99
Es	-1.458764	-1.379168	1.126661	99
Es	-0.288796	-1.485435	1.399987	99
Es	-1.375004	1.771385	0.393074	99
Es	-1.008142	0.693641	0.827003	99
Es	-0.519343	0.154383	0.520795	99
Es	0.291913	0.374305	0.352919	99
Es	0.810428	0.588411	0.474735	99
Es	0.651862	1.547471	-1.106733	99
Es	-0.758957	-1.292628	0.865406	99
Es	0.816622	0.474530	0.330886	99
Es	-0.714106	-2.908395	-0.137208	99
Es	1.707237	1.937062	-0.455043	99
Es	2.396234	1.936285	-0.657097	99
Es	1.177186	1.392299	-0.622703	99
Es	-1.031209	-2.017883	-0.884986	99
Es	2.575935	2.411836	-1.173940	99
Es	0.137592	-2.172457	-0.588889	99
Es	2.904357	1.760245	-0.164125	99
Es	0.910918	0.853389	-0.009381	99
Es	-0.566501	-2.207509	-0.335149	99
Es	-1.087104	0.580454	0.184929	99
Es	-0.626741	-0.563276	0.682455	99
Es	-1.508707	1.063774	0.518629	99
44
Properties=species:S:1:pos:R:3:Z:I:1 energy=-307.9511251085039 field_type=dipole dipole="0.000000 0.000000 0.000000" charge=0
C	-0.566492	-2.207533	-0.335186	6
C	-0.758972	-1.292673	0.865454	6
C	-0.519712	0.154417	0.520834	6
C	-1.508652	1.063727	0.518664	6
O	0.817008	0.474457	0.331234	8
C	1.177378	1.392527	-0.622906	6
C	2.396168	1.936267	-0.657076	6
H	-0.776092	-3.244873	-0.054796	1
H	0.461018	-2.161863	-0.710346	1
H	-1.242072	-1.935433	-1.152926	1
H	-0.072892	-1.591093	1.667224	1
H	-1.773562	-1.433333	1.257994	1
H	-2.535982	0.779547	0.719004	1
H	-1.314782	2.115667	0.340874	1
H	0.411398	1.621307	-1.350476	1
H	3.141868	1.674277	0.085524	1
H	2.664368	2.654607	-1.423096	1
Es	0.137923	-2.172546	-0.589013	99
Es	1.177185	1.392297	-0.622703	99
Es	-0.626632	-0.563455	0.682176	99
Es	0.806157	0.586317	0.464419	99
Es	-1.031077	-2.018026	-0.884671	99
Es	2.575628	2.411471	-1.173663	99
Es	-0.566501	-2.207508	-0.335145	99
Es	-1.459071	-1.379261	1.126687	99
Es	0.291487	0.374588	0.352167	99
Es	1.707143	1.937385	-0.454638	99
Es	1.021649	0.233701	0.320420	99
Es	1.916734	1.435030	-0.840729	99
Es	-0.519346	0.154381	0.520795	99
Es	0.913223	0.854203	-0.008361	99
Es	0.816422	0.474456	0.330605	99
Es	2.904734	1.760371	-0.164484	99
Es	0.651798	1.547496	-1.106545	99
Es	-0.714361	-2.908082	-0.137316	99
Es	2.396232	1.936284	-0.657093	99
Es	-0.659193	-1.732201	0.262900	99
Es	-0.288903	-1.485298	1.399712	99
Es	-1.508705	1.063773	0.518632	99
Es	-1.374868	1.771202	0.393677	99
Es	-1.008411	0.693560	0.826845	99
Es	-1.086752	0.580753	0.184979	99
Es	-0.758957	-1.292628	0.865404	99
Es	-2.206641	0.867929	0.649359	99
44
Properties=species:S:1:pos:R:3:Z:I:1 energy=-307.9511251085039 field_type=dipole dipole="0.000000 0.000000 0.000000" charge=0
C	-0.566492	-2.207533	-0.335186	6
C	-0.758972	-1.292673	0.865454	6
C	-0.519712	0.154417	0.520834	6
C	-1.508652	1.063727	0.518664	6
O	0.817008	0.474457	0.331234	8
C	1.177378	1.392527	-0.622906	6
C	2.396168	1.936267	-0.657076	6
H	-0.776092	-3.244873	-0.054796	1
H	0.461018	-2.161863	-0.710346	1
H	-1.242072	-1.935433	-1.152926	1
H	-0.072892	-1.591093	1.667224	1
H	-1.773562	-1.433333	1.257994	1
H	-2.535982	0.779547	0.719004	1
H	-1.314782	2.115667	0.340874	1
H	0.411398	1.621307	-1.350476	1
H	3.141868	1.674277	0.085524	1
H	2.664368	2.654607	-1.423096	1
Es	-0.626625	-0.563710	0.681800	99
Es	2.396232	1.936281	-0.657093	99
Es	1.026212	0.235829	0.328616	99
Es	-0.758957	-1.292629	0.865404	99
Es	0.138159	-2.172516	-0.589024	99
Es	-1.374539	1.771024	0.394382	99
Es	0.291380	0.373616	0.352788	99
Es	2.904903	1.760433	-0.164672	99
Es	1.916719	1.434755	-0.840871	99
Es	-1.008819	0.693429	0.826325	99
Es	0.816688	0.474621	0.331001	99
Es	-0.519344	0.154381	0.520793	99
Es	2.575538	2.411156	-1.173417	99
Es	0.651868	1.547484	-1.106502	99
Es	0.802319	0.585233	0.454888	99
Es	1.707161	1.937846	-0.454450	99
Es	-1.459323	-1.379275	1.126708	99
Es	-0.566500	-2.207509	-0.335149	99
Es	-0.714621	-2.907991	-0.137419	99
Es	0.912251	0.854067	-0.008199	99
Es	-1.086332	0.581043	0.185144	99
Es	-0.289055	-1.485107	1.399512	99
Es	-1.508707	1.063772	0.518625	99
Es	-2.206877	0.867989	0.649454	99
Es	-0.659147	-1.732290	0.262903	99
Es	1.177185	1.392296	-0.622702	99
Es	-1.030874	-2.018039	-0.884429	99
44
Properties=species:S:1:pos:R:3:Z:I:1 energy=-307.9511251085039 field_type=dipole dipole="0.000000 0.000000 0.000000" charge=0
C	-0.566492	-2.207533	-0.335186	6
C	-0.758972	-1.292673	0.865454	6
C	-0.519712	0.154417	0.520834	6
C	-1.508652	1.063727	0.518664	6
O	0.817008	0.474457	0.331234	8
C	1.177378	1.392527	-0.622906	6
C	2.396168	1.936267	-0.657076	6
H	-0.776092	-3.244873	-0.054796	1
H	0.461018	-2.161863	-0.710346	1
H	-1.242072	-1.935433	-1.152926	1
H	-0.072892	-1.591093	1.667224	1
H	-1.773562	-1.433333	1.257994	1
H	-2.535982	0.779547	0.719004	1
H	-1.314782	2.115667	0.340874	1
H	0.411398	1.621307	-1.350476	1
H	3.141868	1.674277	0.085524	1
H	2.664368	2.654607	-1.423096	1
Es	-0.659132	-1.732226	0.263000	99
Es	0.651835	1.547478	-1.106360	99
Es	-1.508707	1.063773	0.518626	99
Es	-1.374383	1.770886	0.394598	99
Es	-1.031166	-2.018165	-0.884293	99
Es	1.177185	1.392303	-0.622703	99
Es	0.290976	0.374569	0.353776	99
Es	-0.566500	-2.207509	-0.335149	99
Es	-2.207042	0.867965	0.649345	99
Es	-0.519347	0.154381	0.520794	99
Es	2.905065	1.760584	-0.164746	99
Es	0.913066	0.856330	-0.004881	99
Es	-0.758957	-1.292629	0.865405	99
Es	2.575425	2.410861	-1.173347	99
Es	-1.086405	0.581244	0.185246	99
Es	-0.288970	-1.485145	1.399313	99
Es	2.396228	1.936297	-0.657086	99
Es	1.026551	0.235922	0.328957	99
Es	-0.714513	-2.907635	-0.137382	99
Es	-1.008807	0.693249	0.826230	99
Es	0.138371	-2.172482	-0.589074	99
Es	0.802029	0.581635	0.449814	99
Es	-0.626506	-0.563719	0.681681	99
Es	-1.459555	-1.379410	1.126648	99
Es	1.706930	1.937924	-0.454284	99
Es	0.816258	0.474994	0.331301	99
Es	1.916968	1.434715	-0.841015	99
44
Properties=species:S:1:pos:R:3:Z:I:1 energy=-307.9511251085039 field_type=dipole dipole="0.000000 0.000000 0.000000" charge=0
C	-0.566492	-2.207533	-0.335186	6
C	-0.758972	-1.292673	0.865454	6
C	-0.519712	0.154417	0.520834	6
C	-1.508652	1.063727	0.518664	6
O	0.817008	0.474457	0.331234	8
C	1.177378	1.392527	-0.622906	6
C	2.396168	1.936267	-0.657076	6
H	-0.776092	-3.244873	-0.054796	1
H	0.461018	-2.161863	-0.710346	1
H	-1.242072	-1.935433	-1.152926	1
H	-0.072892	-1.591093	1.667224	1
H	-1.773562	-1.433333	1.257994	1
H	-2.535982	0.779547	0.719004	1
H	-1.314782	2.115667	0.340874	1
H	0.411398	1.621307	-1.350476	1
H	3.141868	1.674277	0.085524	1
H	2.664368	2.654607	-1.423096	1
Es	-1.008865	0.693250	0.825849	99
Es	0.912720	0.856947	-0.003721	99
Es	2.396234	1.936287	-0.657091	99
Es	-1.086291	0.581463	0.185575	99
Es	0.802571	0.582042	0.452974	99
Es	-0.566500	-2.207510	-0.335149	99
Es	-1.374253	1.770730	0.394726	99
Es	0.290980	0.374189	0.353048	99
Es	-0.288823	-1.485241	1.399150	99
Es	2.575168	2.410460	-1.173405	99
Es	0.651744	1.547719	-1.106195	99
Es	-0.758958	-1.292630	0.865404	99
Es	-0.714764	-2.907575	-0.137215	99
Es	-0.659107	-1.732306	0.262885	99
Es	1.177187	1.392301	-0.622706	99
Es	1.707191	1.938155	-0.454217	99
Es	-1.508706	1.063774	0.518632	99
Es	1.916698	1.434690	-0.840740	99
Es	2.905465	1.760450	-0.165062	99
Es	1.025971	0.235870	0.325700	99
Es	0.816637	0.474525	0.330833	99
Es	-2.207207	0.867896	0.649324	99
Es	0.138670	-2.172265	-0.588962	99
Es	-1.031238	-2.017975	-0.884015	99
Es	-1.459789	-1.379585	1.126504	99
Es	-0.519344	0.154381	0.520793	99
Es	-0.626496	-0.563852	0.681497	99
44
Properties=species:S:1:pos:R:3:Z:I:1 energy=-307.9511251085039 field_type=dipole dipole="0.000000 0.000000 0.000000" charge=0
C	-0.566492	-2.207533	-0.335186	6
C	-0.758972	-1.292673	0.865454	6
C	-0.519712	0.154417	0.520834	6
C	-1.508652	1.063727	0.518664	6
O	0.817008	0.474457	0.331234	8
C	1.177378	1.392527	-0.622906	6
C	2.396168	1.936267	-0.657076	6
H	-0.776092	-3.244873	-0.054796	1
H	0.461018	-2.161863	-0.710346	1
H	-1.242072	-1.935433	-1.152926	1
H	-0.072892	-1.591093	1.667224	1
H	-1.773562	-1.433333	1.257994	1
H	-2.535982	0.779547	0.719004	1
H	-1.314782	2.115667	0.340874	1
H	0.411398	1.621307	-1.350476	1
H	3.141868	1.674277	0.085524	1
H	2.664368	2.654607	-1.423096	1
Es	-0.288538	-1.485372	1.399007	99
Es	-0.659197	-1.732083	0.262922	99
Es	-1.008524	0.693075	0.825723	99
Es	1.025327	0.235534	0.322721	99
Es	1.177185	1.392296	-0.622702	99
Es	0.651673	1.547810	-1.106115	99
Es	-1.460020	-1.379641	1.126402	99
Es	0.803222	0.579798	0.452383	99
Es	2.905590	1.760453	-0.165196	99
Es	2.575063	2.410369	-1.173371	99
Es	2.396233	1.936287	-0.657091	99
Es	-1.031354	-2.017970	-0.883892	99
Es	-0.566501	-2.207508	-0.335148	99
Es	-0.714845	-2.907387	-0.137091	99
Es	-0.626439	-0.564027	0.681396	99
Es	0.816690	0.474844	0.331077	99
Es	1.916814	1.434719	-0.840773	99
Es	0.138857	-2.172239	-0.588922	99
Es	-1.086577	0.581750	0.185607	99
Es	-1.374235	1.770529	0.394877	99
Es	-0.519342	0.154381	0.520796	99
Es	-1.508709	1.063773	0.518623	99
Es	-0.758957	-1.292629	0.865404	99
Es	0.912910	0.858723	-0.001039	99
Es	1.707127	1.938050	-0.454068	99
Es	-2.207330	0.867874	0.649278	99
Es	0.290773	0.374780	0.353609	99
44
Properties=species:S:1:pos:R:3:Z:I:1 energy=-307.9511251085039 field_type=dipole dipole="0.000000 0.000000 0.000000" charge=0
C	-0.566492	-2.207533	-0.335186	6
C	-0.758972	-1.292673	0.865454	6
C	-0.519712	0.154417	0.520834	6
C	-1.508652	1.063727	0.518664	6
O	0.817008	0.474457	0.331234	8
C	1.177378	1.392527	-0.622906	6
C	2.396168	1.936267	-0.657076	6
H	-0.776092	-3.244873	-0.054796	1
H	0.461018	-2.161863	-0.710346	1
H	-1.242072	-1.935433	-1.152926	1
H	-0.072892	-1.591093	1.667224	1
H	-1.773562	-1.433333	1.257994	1
H	-2.535982	0.779547	0.719004	1
H	-1.314782	2.115667	0.340874	1
H	0.411398	1.621307	-1.350476	1
H	3.141868	1.674277	0.085524	1
H	2.664368	2.654607	-1.423096	1
Es	2.905386	1.761563	-0.164612	99
Es	0.806083	0.515214	0.369808	99
Es	-1.009005	0.692835	0.826478	99
Es	-1.031051	-2.018998	-0.884235	99
Es	1.917270	1.433969	-0.840825	99
Es	-0.758958	-1.292628	0.865405	99
Es	-1.086225	0.581665	0.183624	99
Es	0.915444	0.867660	0.011077	99
Es	2.575121	2.409934	-1.173249	99
Es	-1.508708	1.063774	0.518626	99
Es	-0.714254	-2.906783	-0.137895	99
Es	0.804238	0.523801	0.371459	99
Es	-0.519342	0.154381	0.520797	99
Es	-2.207228	0.868346	0.649973	99
Es	1.032932	0.240779	0.346402	99
Es	0.138517	-2.173001	-0.589464	99
Es	1.177186	1.392300	-0.622704	99
Es	-1.374375	1.770138	0.396478	99
Es	-0.566500	-2.207509	-0.335149	99
Es	0.651889	1.547020	-1.106536	99
Es	-0.659069	-1.732569	0.262701	99
Es	-0.289422	-1.484134	1.399320	99
Es	-1.459634	-1.378758	1.127156	99
Es	-0.626435	-0.564173	0.681258	99
Es	0.290127	0.376334	0.360020	99
Es	1.706677	1.938740	-0.454409	99
Es	2.396231	1.936290	-0.657090	99
44
Properties=species:S:1:pos:R:3:Z:I:1 energy=-307.9511251085039 field_type=dipole dipole="0.000000 0.000000 0.000000" charge=0
C	-0.566492	-2.207533	-0.335186	6
C	-0.758972	-1.292673	0.865454	6
C	-0.519712	0.154417	0.520834	6
C	-1.508652	1.063727	0.518664	6
O	0.817008	0.474457	0.331234	8
C	1.177378	1.392527	-0.622906	6
C	2.396168	1.936267	-0.657076	6
H	-0.776092	-3.244873	-0.054796	1
H	0.461018	-2.161863	-0.710346	1
H	-1.242072	-1.935433	-1.152926	1
H	-0.072892	-1.591093	1.667224	1
H	-1.773562	-1.433333	1.257994	1
H	-2.535982	0.779547	0.719004	1
H	-1.314782	2.115667	0.340874	1
H	0.411398	1.621307	-1.350476	1
H	3.141868	1.674277	0.085524	1
H	2.664368	2.654607	-1.423096	1
Es	-1.031329	-2.018093	-0.883685	99
Es	-0.626217	-0.564041	0.681074	99
Es	0.651696	1.547862	-1.105960	99
Es	0.913476	0.861712	0.003287	99
Es	-1.508709	1.063773	0.518625	99
Es	-0.288528	-1.485364	1.398768	99
Es	-1.374094	1.770194	0.395194	99
Es	2.396232	1.936288	-0.657090	99
Es	1.027183	0.236885	0.326253	99
Es	-1.086303	0.581831	0.185558	99
Es	0.139133	-2.172210	-0.588895	99
Es	0.816600	0.474503	0.330817	99
Es	-0.758957	-1.292630	0.865405	99
Es	1.706688	1.937936	-0.453987	99
Es	2.905888	1.760733	-0.165218	99
Es	-0.566505	-2.207511	-0.335155	99
Es	2.574850	2.409857	-1.173220	99
Es	-1.460276	-1.379742	1.126335	99
Es	-1.008818	0.693069	0.825708	99
Es	-0.659379	-1.732042	0.263306	99
Es	-0.519341	0.154381	0.520794	99
Es	1.917264	1.434882	-0.841045	99
Es	1.177185	1.392301	-0.622700	99
Es	-2.207544	0.867952	0.649257	99
Es	0.290555	0.374510	0.354491	99
Es	0.801049	0.576213	0.443840	99
Es	-0.714901	-2.907058	-0.137342	99
44
Properties=species:S:1:pos:R:3:Z:I:1 energy=-307.9511251085039 field_type=dipole dipole="0.000000 0.000000 0.000000" charge=0
C	-0.566492	-2.207533	-0.335186	6
C	-0.758972	-1.292673	0.865454	6
C	-0.519712	0.154417	0.520834	6
C	-1.508652	1.063727	0.518664	6
O	0.817008	0.474457	0.331234	8
C	1.177378	1.392527	-0.622906	6
C	2.396168	1.936267	-0.657076	6
H	-0.776092	-3.244873	-0.054796	1
H	0.461018	-2.161863	-0.710346	1
H	-1.242072	-1.935433	-1.152926	1
H	-0.072892	-1.591093	1.667224	1
H	-1.773562	-1.433333	1.257994	1
H	-2.535982	0.779547	0.719004	1
H	-1.314782	2.115667	0.340874	1
H	0.411398	1.621307	-1.350476	1
H	3.141868	1.674277	0.085524	1
H	2.664368	2.654607	-1.423096	1
Es	0.800745	0.575746	0.442118	99
Es	-2.207623	0.867948	0.649265	99
Es	1.177186	1.392299	-0.622704	99
Es	-1.373921	1.770174	0.395433	99
Es	2.396230	1.936297	-0.657086	99
Es	0.913542	0.861659	0.003618	99
Es	-0.758957	-1.292629	0.865404	99
Es	0.290395	0.374823	0.354991	99
Es	-0.288385	-1.485370	1.398640	99
Es	1.027659	0.237202	0.327104	99
Es	-0.714956	-2.906945	-0.137142	99
Es	-0.566500	-2.207507	-0.335148	99
Es	-0.626339	-0.564217	0.680852	99
Es	-1.460398	-1.379848	1.126302	99
Es	2.906007	1.760699	-0.165417	99
Es	0.651641	1.547833	-1.105975	99
Es	0.139239	-2.172183	-0.588904	99
Es	-1.086087	0.581951	0.185799	99
Es	0.816570	0.474500	0.330798	99
Es	-1.508709	1.063771	0.518613	99
Es	-1.009055	0.692979	0.825461	99
Es	-1.031438	-2.018109	-0.883598	99
Es	-0.519341	0.154381	0.520794	99
Es	-0.659337	-1.731918	0.263162	99
Es	1.706922	1.938331	-0.453917	99
Es	2.574775	2.409690	-1.173171	99
Es	1.917030	1.434630	-0.840877	99
44
Properties=species:S:1:pos:R:3:Z:I:1 energy=-307.9511251085039 field_type=dipole dipole="0.000000 0.000000 0.000000" charge=0
C	-0.566492	-2.207533	-0.335186	6
C	-0.758972	-1.292673	0.865454	6
C	-0.519712	0.154417	0.520834	6
C	-1.508652	1.063727	0.518664	6
O	0.817008	0.474457	0.331234	8
C	1.177378	1.392527	-0.622906	6
C	2.396168	1.936267	-0.657076	6
H	-0.776092	-3.244873	-0.054796	1
H	0.461018	-2.161863	-0.710346	1
H	-1.242072	-1.935433	-1.152926	1
H	-0.072892	-1.591093	1.667224	1
H	-1.773562	-1.433333	1.257994	1
H	-2.535982	0.779547	0.719004	1
H	-1.314782	2.115667	0.340874	1
H	0.411398	1.621307	-1.350476	1
H	3.141868	1.674277	0.085524	1
H	2.664368	2.654607	-1.423096	1
Es	0.914678	0.863985	0.006693	99
Es	-0.519344	0.154380	0.520794	99
Es	0.651601	1.547938	-1.105922	99
Es	-0.659265	-1.732250	0.263193	99
Es	0.816736	0.475259	0.331625	99
Es	-1.009078	0.693141	0.825752	99
Es	-1.508709	1.063773	0.518623	99
Es	-1.031615	-2.017929	-0.883499	99
Es	1.706845	1.938269	-0.453928	99
Es	2.574591	2.409390	-1.173281	99
Es	-1.374007	1.769945	0.395214	99
Es	0.290325	0.375090	0.354866	99
Es	-0.626186	-0.564272	0.680772	99
Es	1.917061	1.434870	-0.840669	99
Es	2.396232	1.936288	-0.657090	99
Es	0.801451	0.573005	0.441753	99
Es	-1.085980	0.581913	0.185884	99
Es	-0.288334	-1.485293	1.398613	99
Es	2.906281	1.760697	-0.165502	99
Es	-0.758958	-1.292629	0.865405	99
Es	-0.715009	-2.906760	-0.137206	99
Es	1.025736	0.236602	0.323625	99
Es	0.139405	-2.172180	-0.588795	99
Es	-1.460515	-1.379756	1.126292	99
Es	1.177185	1.392301	-0.622703	99
Es	-2.207734	0.867920	0.649056	99
Es	-0.566500	-2.207509	-0.335149	99
