44
Properties=species:S:1:pos:R:3:Z:I:1 energy=-307.9360050871883 field_type=dipole dipole="0.000000 0.000000 0.000000" charge=0
C	-0.359054	-1.833551	-1.229914	6
C	-0.711604	-0.992391	-0.009214	6
C	-0.156183	0.443409	-0.076354	6
C	-0.693014	1.262039	1.111766	6
O	-0.416553	2.653979	0.953916	8
C	1.287816	0.443409	-0.076354	6
C	2.477977	0.443409	-0.076354	6
H	-0.844404	-2.812931	-1.162964	1
H	0.719887	-2.004271	-1.304484	1
H	-0.697074	-1.350651	-2.152034	1
H	-0.346744	-1.501201	0.891796	1
H	-1.804614	-0.952481	0.069556	1
H	-0.506984	0.918149	-1.001994	1
H	-0.263274	0.932559	2.064796	1
H	-1.781673	1.164359	1.183626	1
H	0.551436	2.747829	0.895696	1
H	3.544056	0.438339	-0.081484	1
Es	-0.528481	2.731392	0.678150	99
Es	0.372168	-1.945860	-1.278348	99
Es	-0.396803	0.840592	0.509349	99
Es	-0.591994	-1.498049	-1.856503	99
Es	1.287571	0.443417	-0.076348	99
Es	2.478250	0.443416	-0.076339	99
Es	-0.416305	2.653727	0.953985	99
Es	3.174007	0.440740	-0.078928	99
Es	0.104313	2.683152	0.925581	99
Es	-0.392240	1.020647	1.760349	99
Es	-1.436116	1.187507	1.151628	99
Es	-0.693071	-2.499292	-1.180706	99
Es	-0.711568	-0.992347	-0.009246	99
Es	-0.359070	-1.833528	-1.229883	99
Es	-0.156071	0.443383	-0.076317	99
Es	-1.459228	-0.953930	0.044173	99
Es	-0.459163	-1.332467	0.608053	99
Es	0.598015	0.443641	-0.074466	99
Es	1.892411	0.796601	0.023345	99
Es	-0.494979	2.119274	1.011586	99
Es	-0.404947	-0.263419	-0.042644	99
Es	-0.503958	2.789265	1.213839	99
Es	1.896318	0.189648	0.180509	99
Es	-0.527265	-1.404446	-0.621424	99
Es	-0.378454	0.759391	-0.696842	99
Es	-0.692931	1.262243	1.111681	99
Es	1.895858	0.355973	-0.418690	99
44
Properties=species:S:1:pos:R:3:Z:I:1 energy=-307.9360050871883 field_type=dipole dipole="0.000000 0.000000 0.000000" charge=0
C	-0.359054	-1.833551	-1.229914	6
C	-0.711604	-0.992391	-0.009214	6
C	-0.156183	0.443409	-0.076354	6
C	-0.693014	1.262039	1.111766	6
O	-0.416553	2.653979	0.953916	8
C	1.287816	0.443409	-0.076354	6
C	2.477977	0.443409	-0.076354	6
H	-0.844404	-2.812931	-1.162964	1
H	0.719887	-2.004271	-1.304484	1
H	-0.697074	-1.350651	-2.152034	1
H	-0.346744	-1.501201	0.891796	1
H	-1.804614	-0.952481	0.069556	1
H	-0.506984	0.918149	-1.001994	1
H	-0.263274	0.932559	2.064796	1
H	-1.781673	1.164359	1.183626	1
H	0.551436	2.747829	0.895696	1
H	3.544056	0.438339	-0.081484	1
Es	-1.463624	-0.954238	0.044386	99
Es	0.376883	-1.945893	-1.278650	99
Es	-0.457541	-1.331969	0.605483	99
Es	-0.692929	1.262244	1.111682	99
Es	1.896270	0.378576	-0.418043	99
Es	1.892110	0.785771	0.040222	99
Es	0.111444	2.685505	0.925828	99
Es	2.478251	0.443418	-0.076343	99
Es	-0.497618	2.121917	1.013314	99
Es	-0.527344	-1.404308	-0.621576	99
Es	-0.416354	2.653724	0.953889	99
Es	3.175808	0.441394	-0.079079	99
Es	-0.593512	-1.498552	-1.853596	99
Es	-0.359072	-1.833530	-1.229884	99
Es	-0.156072	0.443383	-0.076316	99
Es	0.600846	0.443577	-0.074336	99
Es	-0.502626	2.782668	1.207482	99
Es	-0.390754	1.021442	1.758081	99
Es	-0.396690	0.840346	0.508592	99
Es	-1.439269	1.186428	1.152151	99
Es	-0.711570	-0.992346	-0.009248	99
Es	1.287560	0.443427	-0.076359	99
Es	-0.405223	-0.263053	-0.042793	99
Es	-0.380028	0.758511	-0.694388	99
Es	-0.533707	2.732040	0.682587	99
Es	1.896087	0.177472	0.162968	99
Es	-0.695057	-2.497283	-1.180511	99
44
Properties=species:S:1:pos:R:3:Z:I:1 energy=-307.9360050871883 field_type=dipole dipole="0.000000 0.000000 0.000000" charge=0
C	-0.359054	-1.833551	-1.229914	6
C	-0.711604	-0.992391	-0.009214	6
C	-0.156183	0.443409	-0.076354	6
C	-0.693014	1.262039	1.111766	6
O	-0.416553	2.653979	0.953916	8
C	1.287816	0.443409	-0.076354	6
C	2.477977	0.443409	-0.076354	6
H	-0.844404	-2.812931	-1.162964	1
H	0.719887	-2.004271	-1.304484	1
H	-0.697074	-1.350651	-2.152034	1
H	-0.346744	-1.501201	0.891796	1
H	-1.804614	-0.952481	0.069556	1
H	-0.506984	0.918149	-1.001994	1
H	-0.263274	0.932559	2.064796	1
H	-1.781673	1.164359	1.183626	1
H	0.551436	2.747829	0.895696	1
H	3.544056	0.438339	-0.081484	1
Es	2.478256	0.443413	-0.076343	99
Es	-0.396858	0.840350	0.508279	99
Es	1.892131	0.781349	0.042469	99
Es	-0.499384	2.123464	1.012361	99
Es	-0.527339	-1.404165	-0.621922	99
Es	-0.380604	0.757650	-0.692789	99
Es	3.176539	0.441567	-0.079244	99
Es	0.602269	0.443766	-0.074460	99
Es	-0.692934	1.262240	1.111682	99
Es	-0.696368	-2.496148	-1.180352	99
Es	-0.390213	1.021866	1.756702	99
Es	-0.495419	2.773147	1.205622	99
Es	1.896288	0.383139	-0.416622	99
Es	1.287551	0.443416	-0.076353	99
Es	1.895998	0.177117	0.159430	99
Es	-0.156070	0.443382	-0.076316	99
Es	-0.711570	-0.992345	-0.009248	99
Es	0.379197	-1.945625	-1.278819	99
Es	-1.465717	-0.954503	0.044473	99
Es	0.114482	2.685792	0.923663	99
Es	-1.440733	1.185940	1.152347	99
Es	-0.416303	2.653743	0.953906	99
Es	-0.456908	-1.331635	0.603702	99
Es	-0.541926	2.738983	0.687736	99
Es	-0.359072	-1.833531	-1.229883	99
Es	-0.404975	-0.262646	-0.042951	99
Es	-0.594049	-1.499053	-1.851525	99
44
Properties=species:S:1:pos:R:3:Z:I:1 energy=-307.9360050871883 field_type=dipole dipole="0.000000 0.000000 0.000000" charge=0
C	-0.359054	-1.833551	-1.229914	6
C	-0.711604	-0.992391	-0.009214	6
C	-0.156183	0.443409	-0.076354	6
C	-0.693014	1.262039	1.111766	6
O	-0.416553	2.653979	0.953916	8
C	1.287816	0.443409	-0.076354	6
C	2.477977	0.443409	-0.076354	6
H	-0.844404	-2.812931	-1.162964	1
H	0.719887	-2.004271	-1.304484	1
H	-0.697074	-1.350651	-2.152034	1
H	-0.346744	-1.501201	0.891796	1
H	-1.804614	-0.952481	0.069556	1
H	-0.506984	0.918149	-1.001994	1
H	-0.263274	0.932559	2.064796	1
H	-1.781673	1.164359	1.183626	1
H	0.551436	2.747829	0.895696	1
H	3.544056	0.438339	-0.081484	1
Es	-1.441596	1.185688	1.152505	99
Es	0.603148	0.443880	-0.074456	99
Es	-0.697473	-2.495478	-1.180410	99
Es	0.380533	-1.945284	-1.279051	99
Es	-0.711571	-0.992347	-0.009248	99
Es	-0.546864	2.743207	0.690864	99
Es	-0.156069	0.443382	-0.076316	99
Es	-0.527323	-1.404155	-0.622035	99
Es	3.176919	0.441600	-0.079372	99
Es	-0.416271	2.653668	0.953783	99
Es	2.478259	0.443416	-0.076352	99
Es	-0.594153	-1.499343	-1.849734	99
Es	1.287551	0.443413	-0.076357	99
Es	-0.380916	0.757151	-0.691453	99
Es	1.892468	0.787790	0.015124	99
Es	-0.404895	-0.262487	-0.043407	99
Es	-0.456392	-1.331231	0.602371	99
Es	-0.389882	1.022262	1.755791	99
Es	-0.692934	1.262237	1.111682	99
Es	-0.492002	2.766712	1.204988	99
Es	-0.499434	2.125033	1.010444	99
Es	-0.359072	-1.833529	-1.229883	99
Es	1.895782	0.356848	-0.408743	99
Es	0.116148	2.685850	0.923269	99
Es	-0.396824	0.840223	0.508091	99
Es	-1.466999	-0.954765	0.044678	99
Es	1.896134	0.196929	0.178772	99
44
Properties=species:S:1:pos:R:3:Z:I:1 energy=-307.9360050871883 field_type=dipole dipole="0.000000 0.000000 0.000000" charge=0
C	-0.359054	-1.833551	-1.229914	6
C	-0.711604	-0.992391	-0.009214	6
C	-0.156183	0.443409	-0.076354	6
C	-0.693014	1.262039	1.111766	6
O	-0.416553	2.653979	0.953916	8
C	1.287816	0.443409	-0.076354	6
C	2.477977	0.443409	-0.076354	6
H	-0.844404	-2.812931	-1.162964	1
H	0.719887	-2.004271	-1.304484	1
H	-0.697074	-1.350651	-2.152034	1
H	-0.346744	-1.501201	0.891796	1
H	-1.804614	-0.952481	0.069556	1
H	-0.506984	0.918149	-1.001994	1
H	-0.263274	0.932559	2.064796	1
H	-1.781673	1.164359	1.183626	1
H	0.551436	2.747829	0.895696	1
H	3.544056	0.438339	-0.081484	1
Es	2.478259	0.443414	-0.076344	99
Es	-1.442159	1.185508	1.152738	99
Es	1.895520	0.351295	-0.408174	99
Es	0.117212	2.685268	0.921448	99
Es	-0.380735	0.756471	-0.690214	99
Es	1.896253	0.203794	0.182605	99
Es	-0.359072	-1.833529	-1.229884	99
Es	1.287550	0.443420	-0.076358	99
Es	0.603743	0.443902	-0.074561	99
Es	-0.156069	0.443381	-0.076317	99
Es	-0.692933	1.262236	1.111682	99
Es	-0.456451	-1.330705	0.601189	99
Es	3.177130	0.441585	-0.079590	99
Es	-0.594082	-1.499772	-1.848215	99
Es	-0.397023	0.840226	0.508130	99
Es	-1.467805	-0.954954	0.044851	99
Es	-0.500275	2.126237	1.010478	99
Es	1.892613	0.786473	0.010725	99
Es	-0.698397	-2.494980	-1.180389	99
Es	-0.404649	-0.262212	-0.043803	99
Es	-0.711573	-0.992350	-0.009252	99
Es	-0.416299	2.653722	0.953872	99
Es	0.381445	-1.944889	-1.279283	99
Es	-0.389810	1.022773	1.755027	99
Es	-0.527077	-1.404325	-0.622398	99
Es	-0.556941	2.752521	0.695744	99
Es	-0.482104	2.756162	1.201836	99
44
Properties=species:S:1:pos:R:3:Z:I:1 energy=-307.9360050871883 field_type=dipole dipole="0.000000 0.000000 0.000000" charge=0
C	-0.359054	-1.833551	-1.229914	6
C	-0.711604	-0.992391	-0.009214	6
C	-0.156183	0.443409	-0.076354	6
C	-0.693014	1.262039	1.111766	6
O	-0.416553	2.653979	0.953916	8
C	1.287816	0.443409	-0.076354	6
C	2.477977	0.443409	-0.076354	6
H	-0.844404	-2.812931	-1.162964	1
H	0.719887	-2.004271	-1.304484	1
H	-0.697074	-1.350651	-2.152034	1
H	-0.346744	-1.501201	0.891796	1
H	-1.804614	-0.952481	0.069556	1
H	-0.506984	0.918149	-1.001994	1
H	-0.263274	0.932559	2.064796	1
H	-1.781673	1.164359	1.183626	1
H	0.551436	2.747829	0.895696	1
H	3.544056	0.438339	-0.081484	1
Es	-0.456428	-1.330339	0.600166	99
Es	-1.468339	-0.955082	0.045168	99
Es	-0.389764	1.023095	1.754413	99
Es	-0.692934	1.262236	1.111681	99
Es	1.895979	0.166970	0.136739	99
Es	-0.699097	-2.494573	-1.180749	99
Es	-0.527135	-1.404243	-0.622606	99
Es	-1.442542	1.185482	1.152977	99
Es	-0.472921	2.746948	1.196320	99
Es	2.478261	0.443409	-0.076349	99
Es	0.117846	2.684912	0.920582	99
Es	-0.359074	-1.833527	-1.229882	99
Es	-0.380616	0.755918	-0.689230	99
Es	1.287547	0.443417	-0.076353	99
Es	1.896463	0.407332	-0.419117	99
Es	-0.404403	-0.261960	-0.044075	99
Es	-0.156070	0.443383	-0.076319	99
Es	0.382047	-1.944588	-1.279552	99
Es	0.604137	0.443756	-0.074713	99
Es	-0.593750	-1.500241	-1.846837	99
Es	-0.711573	-0.992347	-0.009247	99
Es	-0.500038	2.127563	1.013136	99
Es	1.891940	0.767200	0.067371	99
Es	-0.397201	0.840288	0.508148	99
Es	-0.567047	2.760217	0.699701	99
Es	-0.416295	2.653694	0.953835	99
Es	3.177275	0.441751	-0.079664	99
44
Properties=species:S:1:pos:R:3:Z:I:1 energy=-307.9360050871883 field_type=dipole dipole="0.000000 0.000000 0.000000" charge=0
C	-0.359054	-1.833551	-1.229914	6
C	-0.711604	-0.992391	-0.009214	6
C	-0.156183	0.443409	-0.076354	6
C	-0.693014	1.262039	1.111766	6
O	-0.416553	2.653979	0.953916	8
C	1.287816	0.443409	-0.076354	6
C	2.477977	0.443409	-0.076354	6
H	-0.844404	-2.812931	-1.162964	1
H	0.719887	-2.004271	-1.304484	1
H	-0.697074	-1.350651	-2.152034	1
H	-0.346744	-1.501201	0.891796	1
H	-1.804614	-0.952481	0.069556	1
H	-0.506984	0.918149	-1.001994	1
H	-0.263274	0.932559	2.064796	1
H	-1.781673	1.164359	1.183626	1
H	0.551436	2.747829	0.895696	1
H	3.544056	0.438339	-0.081484	1
Es	1.894416	0.300233	-0.389160	99
Es	-0.403973	-0.261700	-0.044020	99
Es	2.478259	0.443412	-0.076356	99
Es	-0.498842	2.129311	1.010889	99
Es	-0.156068	0.443380	-0.076314	99
Es	-0.397382	0.840391	0.508018	99
Es	-0.359071	-1.833530	-1.229883	99
Es	-0.456885	-1.329827	0.599144	99
Es	-0.526805	-1.404442	-0.622840	99
Es	-0.711573	-0.992348	-0.009247	99
Es	-1.442816	1.185487	1.153216	99
Es	0.118315	2.684697	0.919028	99
Es	-0.593227	-1.500587	-1.845393	99
Es	-1.468695	-0.955217	0.045425	99
Es	-0.464068	2.735259	1.192802	99
Es	0.604449	0.443876	-0.074643	99
Es	-0.416299	2.653762	0.953882	99
Es	1.287546	0.443417	-0.076355	99
Es	-0.692938	1.262233	1.111687	99
Es	-0.700029	-2.494341	-1.181122	99
Es	-0.389907	1.023501	1.753858	99
Es	1.893520	0.791452	-0.043107	99
Es	0.382445	-1.944354	-1.279939	99
Es	3.177359	0.442005	-0.080007	99
Es	-0.380318	0.755191	-0.688377	99
Es	-0.577591	2.769830	0.707100	99
Es	1.896445	0.249580	0.217257	99
44
Properties=species:S:1:pos:R:3:Z:I:1 energy=-307.9360050871883 field_type=dipole dipole="0.000000 0.000000 0.000000" charge=0
C	-0.359054	-1.833551	-1.229914	6
C	-0.711604	-0.992391	-0.009214	6
C	-0.156183	0.443409	-0.076354	6
C	-0.693014	1.262039	1.111766	6
O	-0.416553	2.653979	0.953916	8
C	1.287816	0.443409	-0.076354	6
C	2.477977	0.443409	-0.076354	6
H	-0.844404	-2.812931	-1.162964	1
H	0.719887	-2.004271	-1.304484	1
H	-0.697074	-1.350651	-2.152034	1
H	-0.346744	-1.501201	0.891796	1
H	-1.804614	-0.952481	0.069556	1
H	-0.506984	0.918149	-1.001994	1
H	-0.263274	0.932559	2.064796	1
H	-1.781673	1.164359	1.183626	1
H	0.551436	2.747829	0.895696	1
H	3.544056	0.438339	-0.081484	1
Es	0.604626	0.443456	-0.074790	99
Es	-1.468962	-0.955388	0.045608	99
Es	-0.526694	-1.404456	-0.623007	99
Es	-0.380077	0.754661	-0.687769	99
Es	1.896014	0.398975	-0.420691	99
Es	1.287545	0.443400	-0.076346	99
Es	0.118612	2.684565	0.917787	99
Es	-0.456976	-1.329576	0.598424	99
Es	1.896295	0.176481	0.143908	99
Es	-0.497627	2.130848	1.010915	99
Es	-0.416247	2.653666	0.953967	99
Es	-0.397646	0.840607	0.508128	99
Es	-0.389863	1.023779	1.753590	99
Es	-0.455784	2.725556	1.186550	99
Es	-0.711572	-0.992345	-0.009249	99
Es	-0.700899	-2.494274	-1.181519	99
Es	-0.692934	1.262241	1.111681	99
Es	3.177405	0.442306	-0.079992	99
Es	-0.156067	0.443380	-0.076313	99
Es	-0.403612	-0.261431	-0.044242	99
Es	-0.592690	-1.500755	-1.844186	99
Es	2.478260	0.443416	-0.076348	99
Es	-0.587573	2.777758	0.714532	99
Es	1.892092	0.765914	0.061610	99
Es	-1.443000	1.185460	1.153294	99
Es	0.382713	-1.944044	-1.280117	99
Es	-0.359071	-1.833530	-1.229882	99
44
Properties=species:S:1:pos:R:3:Z:I:1 energy=-307.9360050871883 field_type=dipole dipole="0.000000 0.000000 0.000000" charge=0
C	-0.359054	-1.833551	-1.229914	6
C	-0.711604	-0.992391	-0.009214	6
C	-0.156183	0.443409	-0.076354	6
C	-0.693014	1.262039	1.111766	6
O	-0.416553	2.653979	0.953916	8
C	1.287816	0.443409	-0.076354	6
C	2.477977	0.443409	-0.076354	6
H	-0.844404	-2.812931	-1.162964	1
H	0.719887	-2.004271	-1.304484	1
H	-0.697074	-1.350651	-2.152034	1
H	-0.346744	-1.501201	0.891796	1
H	-1.804614	-0.952481	0.069556	1
H	-0.506984	0.918149	-1.001994	1
H	-0.263274	0.932559	2.064796	1
H	-1.781673	1.164359	1.183626	1
H	0.551436	2.747829	0.895696	1
H	3.544056	0.438339	-0.081484	1
Es	2.478261	0.443416	-0.076353	99
Es	-0.526461	-1.404348	-0.623401	99
Es	0.604780	0.443279	-0.074912	99
Es	0.382897	-1.943949	-1.280483	99
Es	1.896401	0.241279	0.211046	99
Es	-0.445838	2.714341	1.175944	99
Es	-0.397782	0.840843	0.508022	99
Es	-0.379386	0.754259	-0.686790	99
Es	-0.359072	-1.833529	-1.229884	99
Es	-0.701820	-2.494116	-1.182287	99
Es	-0.416263	2.653702	0.954128	99
Es	1.893564	0.781242	-0.024637	99
Es	0.118804	2.684605	0.916779	99
Es	-1.469097	-0.955427	0.045942	99
Es	-0.389999	1.024073	1.753288	99
Es	1.894423	0.318526	-0.401655	99
Es	1.287545	0.443418	-0.076345	99
Es	-0.156067	0.443381	-0.076315	99
Es	-0.497349	2.131435	1.011446	99
Es	-0.457483	-1.329115	0.597616	99
Es	-0.711573	-0.992348	-0.009250	99
Es	-0.598024	2.787946	0.725531	99
Es	3.177438	0.442651	-0.080104	99
Es	-0.591745	-1.501317	-1.842769	99
Es	-0.403829	-0.261395	-0.044217	99
Es	-1.443120	1.185584	1.153522	99
Es	-0.692937	1.262235	1.111685	99
44
Properties=species:S:1:pos:R:3:Z:I:1 energy=-307.9360050871883 field_type=dipole dipole="0.000000 0.000000 0.000000" charge=0
C	-0.359054	-1.833551	-1.229914	6
C	-0.711604	-0.992391	-0.009214	6
C	-0.156183	0.443409	-0.076354	6
C	-0.693014	1.262039	1.111766	6
O	-0.416553	2.653979	0.953916	8
C	1.287816	0.443409	-0.076354	6
C	2.477977	0.443409	-0.076354	6
H	-0.844404	-2.812931	-1.162964	1
H	0.719887	-2.004271	-1.304484	1
H	-0.697074	-1.350651	-2.152034	1
H	-0.346744	-1.501201	0.891796	1
H	-1.804614	-0.952481	0.069556	1
H	-0.506984	0.918149	-1.001994	1
H	-0.263274	0.932559	2.064796	1
H	-1.781673	1.164359	1.183626	1
H	0.551436	2.747829	0.895696	1
H	3.544056	0.438339	-0.081484	1
Es	-0.561559	2.824236	1.169834	99
Es	-0.396390	0.839719	0.506605	99
Es	1.895911	0.382293	-0.417130	99
Es	3.177540	0.442249	-0.077704	99
Es	-0.454248	-1.332346	0.599198	99
Es	-0.359071	-1.833530	-1.229883	99
Es	-0.481765	2.675238	0.702976	99
Es	-0.526722	-1.404465	-0.624162	99
Es	-0.387304	1.022615	1.754267	99
Es	2.478262	0.443412	-0.076342	99
Es	-0.692937	1.262239	1.111682	99
Es	-0.416333	2.653689	0.953879	99
Es	0.383363	-1.943455	-1.277405	99
Es	-1.469572	-0.955698	0.043108	99
Es	1.895566	0.193140	0.174217	99
Es	-0.711573	-0.992346	-0.009248	99
Es	1.892940	0.765649	0.027523	99
Es	-0.156067	0.443381	-0.076315	99
Es	-0.594558	-1.498342	-1.844976	99
Es	-0.403273	-0.261082	-0.044190	99
Es	1.287545	0.443418	-0.076344	99
Es	0.119712	2.685525	0.939177	99
Es	-0.383460	0.756661	-0.689534	99
Es	0.605000	0.443735	-0.074777	99
Es	-0.702456	-2.493225	-1.177894	99
Es	-0.498912	2.132647	1.017443	99
Es	-1.443367	1.185314	1.151542	99
44
Properties=species:S:1:pos:R:3:Z:I:1 energy=-307.9360050871883 field_type=dipole dipole="0.000000 0.000000 0.000000" charge=0
C	-0.359054	-1.833551	-1.229914	6
C	-0.711604	-0.992391	-0.009214	6
C	-0.156183	0.443409	-0.076354	6
C	-0.693014	1.262039	1.111766	6
O	-0.416553	2.653979	0.953916	8
C	1.287816	0.443409	-0.076354	6
C	2.477977	0.443409	-0.076354	6
H	-0.844404	-2.812931	-1.162964	1
H	0.719887	-2.004271	-1.304484	1
H	-0.697074	-1.350651	-2.152034	1
H	-0.346744	-1.501201	0.891796	1
H	-1.804614	-0.952481	0.069556	1
H	-0.506984	0.918149	-1.001994	1
H	-0.263274	0.932559	2.064796	1
H	-1.781673	1.164359	1.183626	1
H	0.551436	2.747829	0.895696	1
H	3.544056	0.438339	-0.081484	1
Es	-0.386732	1.022319	1.754379	99
Es	-0.396258	0.839610	0.506264	99
Es	1.287544	0.443417	-0.076351	99
Es	-0.469380	2.659978	0.711224	99
Es	1.897730	0.589018	-0.397028	99
Es	-0.403186	-0.260999	-0.044316	99
Es	-0.711573	-0.992346	-0.009248	99
Es	-0.594734	-1.498023	-1.845003	99
Es	3.177539	0.442446	-0.077224	99
Es	2.478262	0.443413	-0.076336	99
Es	1.892186	0.635001	0.215596	99
Es	-0.359071	-1.833530	-1.229884	99
Es	-1.469614	-0.955825	0.042781	99
Es	-0.384220	0.756931	-0.689911	99
Es	-0.526610	-1.404840	-0.624522	99
Es	-0.156068	0.443381	-0.076315	99
Es	1.894502	0.117644	-0.034379	99
Es	-1.443368	1.185259	1.151280	99
Es	-0.702830	-2.493179	-1.177204	99
Es	-0.692937	1.262237	1.111683	99
Es	0.119643	2.686721	0.941583	99
Es	0.383428	-1.943127	-1.276929	99
Es	-0.453859	-1.332404	0.599538	99
Es	-0.495614	2.135979	1.021589	99
Es	-0.416248	2.653699	0.954214	99
Es	-0.577307	2.834795	1.154596	99
Es	0.605044	0.443094	-0.074535	99
44
Properties=species:S:1:pos:R:3:Z:I:1 energy=-307.9360050871883 field_type=dipole dipole="0.000000 0.000000 0.000000" charge=0
C	-0.359054	-1.833551	-1.229914	6
C	-0.711604	-0.992391	-0.009214	6
C	-0.156183	0.443409	-0.076354	6
C	-0.693014	1.262039	1.111766	6
O	-0.416553	2.653979	0.953916	8
C	1.287816	0.443409	-0.076354	6
C	2.477977	0.443409	-0.076354	6
H	-0.844404	-2.812931	-1.162964	1
H	0.719887	-2.004271	-1.304484	1
H	-0.697074	-1.350651	-2.152034	1
H	-0.346744	-1.501201	0.891796	1
H	-1.804614	-0.952481	0.069556	1
H	-0.506984	0.918149	-1.001994	1
H	-0.263274	0.932559	2.064796	1
H	-1.781673	1.164359	1.183626	1
H	0.551436	2.747829	0.895696	1
H	3.544056	0.438339	-0.081484	1
Es	-0.156067	0.443379	-0.076316	99
Es	-0.590337	-1.502015	-1.840224	99
Es	-0.359071	-1.833530	-1.229884	99
Es	-1.443285	1.185541	1.153736	99
Es	-0.398272	0.840828	0.508172	99
Es	1.896180	0.272269	0.233155	99
Es	-0.458566	-1.328511	0.595982	99
Es	-0.390062	1.024247	1.752787	99
Es	1.893667	0.299126	-0.398188	99
Es	0.118966	2.685618	0.914664	99
Es	-0.378991	0.753782	-0.685622	99
Es	-0.711575	-0.992350	-0.009249	99
Es	-0.426957	2.691448	1.148148	99
Es	1.894574	0.769142	-0.050081	99
Es	3.177438	0.443867	-0.080401	99
Es	1.287545	0.443405	-0.076345	99
Es	0.604980	0.443025	-0.075200	99
Es	-0.526154	-1.404578	-0.623665	99
Es	-0.416163	2.653583	0.953830	99
Es	-0.692938	1.262236	1.111684	99
Es	0.383174	-1.943205	-1.280999	99
Es	-0.703540	-2.494164	-1.183406	99
Es	-0.402638	-0.261040	-0.044322	99
Es	-0.491587	2.137136	1.014032	99
Es	-0.622969	2.803767	0.753387	99
Es	2.478263	0.443414	-0.076350	99
Es	-1.469345	-0.955750	0.046217	99
44
Properties=species:S:1:pos:R:3:Z:I:1 energy=-307.9360050871883 field_type=dipole dipole="0.000000 0.000000 0.000000" charge=0
C	-0.359054	-1.833551	-1.229914	6
C	-0.711604	-0.992391	-0.009214	6
C	-0.156183	0.443409	-0.076354	6
C	-0.693014	1.262039	1.111766	6
O	-0.416553	2.653979	0.953916	8
C	1.287816	0.443409	-0.076354	6
C	2.477977	0.443409	-0.076354	6
H	-0.844404	-2.812931	-1.162964	1
H	0.719887	-2.004271	-1.304484	1
H	-0.697074	-1.350651	-2.152034	1
H	-0.346744	-1.501201	0.891796	1
H	-1.804614	-0.952481	0.069556	1
H	-0.506984	0.918149	-1.001994	1
H	-0.263274	0.932559	2.064796	1
H	-1.781673	1.164359	1.183626	1
H	0.551436	2.747829	0.895696	1
H	3.544056	0.438339	-0.081484	1
Es	-1.469530	-0.956085	0.042705	99
Es	-0.384164	0.757042	-0.690136	99
Es	-0.403433	-0.261164	-0.043455	99
Es	-0.692937	1.262235	1.111683	99
Es	-0.429636	2.637763	0.771966	99
Es	-1.443268	1.185334	1.150958	99
Es	-0.416202	2.653671	0.954428	99
Es	3.177389	0.444935	-0.076857	99
Es	1.894589	0.342479	-0.415882	99
Es	0.383290	-1.942789	-1.276955	99
Es	2.478263	0.443420	-0.076336	99
Es	1.894981	0.743046	-0.032657	99
Es	-0.702448	-2.493837	-1.177879	99
Es	-0.454393	-1.332155	0.599595	99
Es	0.605004	0.442560	-0.074842	99
Es	-0.526857	-1.404347	-0.624209	99
Es	0.119226	2.690632	0.946311	99
Es	-0.156069	0.443379	-0.076317	99
Es	-0.494736	2.133785	1.012092	99
Es	-0.594208	-1.498642	-1.845267	99
Es	-0.359071	-1.833531	-1.229883	99
Es	-0.386550	1.022246	1.754823	99
Es	-0.396231	0.839786	0.505997	99
Es	-0.711573	-0.992345	-0.009248	99
Es	1.894909	0.254689	0.232926	99
Es	-0.617619	2.855153	1.098337	99
Es	1.287545	0.443410	-0.076353	99
44
Properties=species:S:1:pos:R:3:Z:I:1 energy=-307.9360050871883 field_type=dipole dipole="0.000000 0.000000 0.000000" charge=0
C	-0.359054	-1.833551	-1.229914	6
C	-0.711604	-0.992391	-0.009214	6
C	-0.156183	0.443409	-0.076354	6
C	-0.693014	1.262039	1.111766	6
O	-0.416553	2.653979	0.953916	8
C	1.287816	0.443409	-0.076354	6
C	2.477977	0.443409	-0.076354	6
H	-0.844404	-2.812931	-1.162964	1
H	0.719887	-2.004271	-1.304484	1
H	-0.697074	-1.350651	-2.152034	1
H	-0.346744	-1.501201	0.891796	1
H	-1.804614	-0.952481	0.069556	1
H	-0.506984	0.918149	-1.001994	1
H	-0.263274	0.932559	2.064796	1
H	-1.781673	1.164359	1.183626	1
H	0.551436	2.747829	0.895696	1
H	3.544056	0.438339	-0.081484	1
Es	-0.704668	-2.494213	-1.183833	99
Es	-1.469454	-0.956087	0.046403	99
Es	-0.481894	2.148699	1.018281	99
Es	-1.443358	1.185540	1.153804	99
Es	-0.156069	0.443381	-0.076318	99
Es	1.287546	0.443407	-0.076351	99
Es	0.605117	0.442536	-0.074989	99
Es	0.118839	2.686660	0.913274	99
Es	-0.416284	2.653730	0.953862	99
Es	-0.589642	-1.502212	-1.838855	99
Es	2.478262	0.443418	-0.076343	99
Es	-0.711572	-0.992346	-0.009247	99
Es	1.894858	0.380281	-0.425094	99
Es	-0.378652	0.753646	-0.684918	99
Es	-0.458733	-1.328453	0.595292	99
Es	1.892673	0.759797	0.044003	99
Es	-0.525909	-1.404601	-0.624191	99
Es	-0.398420	0.840841	0.508107	99
Es	0.383298	-1.942693	-1.281140	99
Es	-0.634156	2.792049	0.753412	99
Es	3.177422	0.444466	-0.080412	99
Es	-0.425184	2.690128	1.145255	99
Es	-0.402549	-0.261006	-0.044481	99
Es	-0.359071	-1.833530	-1.229882	99
Es	-0.390068	1.024350	1.752603	99
Es	1.896875	0.200648	0.165621	99
Es	-0.692938	1.262235	1.111683	99
44
Properties=species:S:1:pos:R:3:Z:I:1 energy=-307.9360050871883 field_type=dipole dipole="0.000000 0.000000 0.000000" charge=0
C	-0.359054	-1.833551	-1.229914	6
C	-0.711604	-0.992391	-0.009214	6
C	-0.156183	0.443409	-0.076354	6
C	-0.693014	1.262039	1.111766	6
O	-0.416553	2.653979	0.953916	8
C	1.287816	0.443409	-0.076354	6
C	2.477977	0.443409	-0.076354	6
H	-0.844404	-2.812931	-1.162964	1
H	0.719887	-2.004271	-1.304484	1
H	-0.697074	-1.350651	-2.152034	1
H	-0.346744	-1.501201	0.891796	1
H	-1.804614	-0.952481	0.069556	1
H	-0.506984	0.918149	-1.001994	1
H	-0.263274	0.932559	2.064796	1
H	-1.781673	1.164359	1.183626	1
H	0.551436	2.747829	0.895696	1
H	3.544056	0.438339	-0.081484	1
Es	-0.379554	0.754246	-0.685959	99
Es	-0.156067	0.443381	-0.076316	99
Es	1.287545	0.443409	-0.076347	99
Es	-0.402403	-0.260996	-0.044574	99
Es	-1.443328	1.185436	1.153592	99
Es	-0.416241	2.653630	0.953699	99
Es	1.896724	0.527992	-0.420357	99
Es	0.383276	-1.942591	-1.280641	99
Es	-0.389611	1.024054	1.752872	99
Es	-0.413360	2.675311	1.115706	99
Es	-0.590661	-1.501484	-1.840182	99
Es	-0.359072	-1.833529	-1.229884	99
Es	-1.469423	-0.956132	0.046125	99
Es	-0.711574	-0.992347	-0.009248	99
Es	1.896553	0.151799	-0.008212	99
Es	0.118857	2.687559	0.913637	99
Es	2.478261	0.443422	-0.076352	99
Es	-0.526125	-1.404788	-0.624167	99
Es	-0.692937	1.262237	1.111684	99
Es	-0.458043	-1.329054	0.595955	99
Es	-0.704204	-2.494394	-1.182426	99
Es	-0.488725	2.139802	1.019007	99
Es	-0.639148	2.815136	0.781820	99
Es	0.605093	0.442002	-0.074860	99
Es	3.177414	0.444315	-0.080660	99
Es	1.891116	0.661656	0.213702	99
Es	-0.398094	0.840599	0.507930	99
44
Properties=species:S:1:pos:R:3:Z:I:1 energy=-307.9360050871883 field_type=dipole dipole="0.000000 0.000000 0.000000" charge=0
C	-0.359054	-1.833551	-1.229914	6
C	-0.711604	-0.992391	-0.009214	6
C	-0.156183	0.443409	-0.076354	6
C	-0.693014	1.262039	1.111766	6
O	-0.416553	2.653979	0.953916	8
C	1.287816	0.443409	-0.076354	6
C	2.477977	0.443409	-0.076354	6
H	-0.844404	-2.812931	-1.162964	1
H	0.719887	-2.004271	-1.304484	1
H	-0.697074	-1.350651	-2.152034	1
H	-0.346744	-1.501201	0.891796	1
H	-1.804614	-0.952481	0.069556	1
H	-0.506984	0.918149	-1.001994	1
H	-0.263274	0.932559	2.064796	1
H	-1.781673	1.164359	1.183626	1
H	0.551436	2.747829	0.895696	1
H	3.544056	0.438339	-0.081484	1
Es	0.383148	-1.942357	-1.277352	99
Es	0.605062	0.441008	-0.074807	99
Es	1.287546	0.443406	-0.076352	99
Es	-0.639702	2.865246	1.033062	99
Es	-0.156068	0.443381	-0.076316	99
Es	-0.526581	-1.404697	-0.624306	99
Es	2.478261	0.443422	-0.076336	99
Es	0.119049	2.694435	0.944847	99
Es	-0.711573	-0.992347	-0.009245	99
Es	-1.443164	1.185251	1.151031	99
Es	-0.593865	-1.498845	-1.845020	99
Es	-0.383590	0.756760	-0.689977	99
Es	1.896701	0.581921	-0.406742	99
Es	-0.396437	0.839979	0.506003	99
Es	-1.469398	-0.956311	0.043009	99
Es	-0.692937	1.262237	1.111683	99
Es	-0.493651	2.134084	1.017400	99
Es	3.177316	0.445517	-0.077223	99
Es	-0.455045	-1.331670	0.599567	99
Es	-0.416237	2.653714	0.954110	99
Es	-0.386951	1.022248	1.754903	99
Es	-0.359071	-1.833530	-1.229884	99
Es	-0.408292	2.623819	0.833756	99
Es	1.896450	0.178670	-0.072443	99
Es	1.891234	0.581085	0.263771	99
Es	-0.403457	-0.261249	-0.043355	99
Es	-0.702478	-2.494507	-1.178240	99
44
Properties=species:S:1:pos:R:3:Z:I:1 energy=-307.9360050871883 field_type=dipole dipole="0.000000 0.000000 0.000000" charge=0
C	-0.359054	-1.833551	-1.229914	6
C	-0.711604	-0.992391	-0.009214	6
C	-0.156183	0.443409	-0.076354	6
C	-0.693014	1.262039	1.111766	6
O	-0.416553	2.653979	0.953916	8
C	1.287816	0.443409	-0.076354	6
C	2.477977	0.443409	-0.076354	6
H	-0.844404	-2.812931	-1.162964	1
H	0.719887	-2.004271	-1.304484	1
H	-0.697074	-1.350651	-2.152034	1
H	-0.346744	-1.501201	0.891796	1
H	-1.804614	-0.952481	0.069556	1
H	-0.506984	0.918149	-1.001994	1
H	-0.263274	0.932559	2.064796	1
H	-1.781673	1.164359	1.183626	1
H	0.551436	2.747829	0.895696	1
H	3.544056	0.438339	-0.081484	1
Es	-0.483025	2.145874	1.014383	99
Es	1.287546	0.443405	-0.076345	99
Es	-0.458629	-1.328817	0.595164	99
Es	1.897613	0.583013	-0.397596	99
Es	-0.389962	1.024099	1.752576	99
Es	-0.359071	-1.833531	-1.229883	99
Es	0.383323	-1.942429	-1.280812	99
Es	2.478262	0.443417	-0.076347	99
Es	-0.416247	2.653628	0.953673	99
Es	3.177425	0.444293	-0.080778	99
Es	-1.443382	1.185389	1.153582	99
Es	-0.378588	0.754008	-0.684737	99
Es	-0.589747	-1.501808	-1.838904	99
Es	-0.644924	2.811307	0.784986	99
Es	-0.711574	-0.992346	-0.009249	99
Es	-0.413164	2.672334	1.116269	99
Es	0.605145	0.442054	-0.075468	99
Es	-0.398132	0.840842	0.507789	99
Es	-0.156068	0.443381	-0.076317	99
Es	1.895459	0.144535	-0.063602	99
Es	-0.526078	-1.404817	-0.624191	99
Es	-0.402735	-0.261265	-0.044719	99
Es	0.118948	2.688412	0.914669	99
Es	-0.705048	-2.494361	-1.183455	99
Es	-1.469471	-0.956242	0.046292	99
Es	-0.692936	1.262239	1.111682	99
Es	1.891331	0.614058	0.246881	99
44
Properties=species:S:1:pos:R:3:Z:I:1 energy=-307.9360050871883 field_type=dipole dipole="0.000000 0.000000 0.000000" charge=0
C	-0.359054	-1.833551	-1.229914	6
C	-0.711604	-0.992391	-0.009214	6
C	-0.156183	0.443409	-0.076354	6
C	-0.693014	1.262039	1.111766	6
O	-0.416553	2.653979	0.953916	8
C	1.287816	0.443409	-0.076354	6
C	2.477977	0.443409	-0.076354	6
H	-0.844404	-2.812931	-1.162964	1
H	0.719887	-2.004271	-1.304484	1
H	-0.697074	-1.350651	-2.152034	1
H	-0.346744	-1.501201	0.891796	1
H	-1.804614	-0.952481	0.069556	1
H	-0.506984	0.918149	-1.001994	1
H	-0.263274	0.932559	2.064796	1
H	-1.781673	1.164359	1.183626	1
H	0.551436	2.747829	0.895696	1
H	3.544056	0.438339	-0.081484	1
Es	2.478262	0.443419	-0.076345	99
Es	-0.458858	-1.328908	0.594816	99
Es	-0.692937	1.262238	1.111682	99
Es	1.895674	0.147999	-0.058021	99
Es	-0.412379	2.671616	1.112400	99
Es	-1.469533	-0.956261	0.046172	99
Es	-0.390021	1.024139	1.752500	99
Es	-0.589492	-1.501814	-1.838476	99
Es	1.897500	0.575301	-0.401468	99
Es	-0.397980	0.840866	0.507723	99
Es	3.177429	0.444263	-0.080781	99
Es	0.383378	-1.942418	-1.280741	99
Es	-0.402277	-0.261239	-0.044528	99
Es	1.287546	0.443406	-0.076349	99
Es	-0.359071	-1.833530	-1.229883	99
Es	-0.711574	-0.992345	-0.009248	99
Es	-0.416256	2.653679	0.954041	99
Es	0.119118	2.687832	0.915187	99
Es	-0.156066	0.443381	-0.076314	99
Es	-0.705637	-2.494210	-1.183416	99
Es	-0.645405	2.812346	0.786697	99
Es	-0.378645	0.753970	-0.684774	99
Es	1.891235	0.618270	0.245077	99
Es	-1.443398	1.185363	1.153577	99
Es	-0.525981	-1.404850	-0.624323	99
Es	-0.483519	2.146030	1.015709	99
Es	0.605157	0.442131	-0.075371	99
