44
Properties=species:S:1:pos:R:3:Z:I:1 energy=-307.9852310212809 field_type=dipole dipole="0.000000 0.000000 0.000000" charge=0
C	-2.401695	-1.088072	0.282031	6
C	-0.895245	-1.280172	0.350021	6
C	-0.150665	0.006508	-0.003629	6
C	1.356855	-0.166062	0.062761	6
O	1.896175	-1.228572	0.369651	8
C	2.236345	0.994948	-0.254709	6
C	1.808895	2.213888	-0.607479	6
H	-2.914695	-2.019122	0.542671	1
H	-2.714835	-0.798432	-0.726209	1
H	-2.730505	-0.311982	0.980511	1
H	-0.601535	-2.082982	-0.335499	1
H	-0.617945	-1.607232	1.359491	1
H	-0.439465	0.797548	0.697791	1
H	-0.419765	0.312988	-1.020849	1
H	3.299455	0.783598	-0.179389	1
H	0.760416	2.473478	-0.696549	1
H	2.528205	2.999668	-0.820619	1
Es	1.896060	-1.228291	0.369569	99
Es	1.356861	-0.166026	0.062748	99
Es	-0.331372	0.544603	0.467136	99
Es	0.604019	-0.073450	0.027782	99
Es	1.783478	0.437972	-0.102639	99
Es	-0.509699	-0.624521	0.169979	99
Es	1.690879	-1.461843	0.432867	99
Es	-0.710758	-1.493485	1.039403	99
Es	1.808857	2.213981	-0.607505	99
Es	-1.653566	-1.172619	0.312695	99
Es	2.948143	0.853646	-0.204192	99
Es	-0.150598	0.006509	-0.003629	99
Es	1.703871	-0.908005	0.016216	99
Es	2.287015	2.747500	-0.752379	99
Es	2.012004	1.481833	-0.730156	99
Es	-2.623109	-0.553491	0.759900	99
Es	-2.750262	-1.722563	0.459508	99
Es	-2.401680	-1.088070	0.282032	99
Es	2.236319	0.994870	-0.254672	99
Es	2.211040	-1.207735	0.367613	99
Es	-0.895264	-1.280094	0.349999	99
Es	-0.699385	-1.819818	-0.123689	99
Es	2.003203	1.657542	-0.113031	99
Es	1.102845	2.389995	-0.667740	99
Es	-2.612258	-0.886807	-0.409456	99
Es	1.697906	-0.771862	0.498819	99
Es	-0.317879	0.218356	-0.689946	99
44
Properties=species:S:1:pos:R:3:Z:I:1 energy=-307.9852310212809 field_type=dipole dipole="0.000000 0.000000 0.000000" charge=0
C	-2.401695	-1.088072	0.282031	6
C	-0.895245	-1.280172	0.350021	6
C	-0.150665	0.006508	-0.003629	6
C	1.356855	-0.166062	0.062761	6
O	1.896175	-1.228572	0.369651	8
C	2.236345	0.994948	-0.254709	6
C	1.808895	2.213888	-0.607479	6
H	-2.914695	-2.019122	0.542671	1
H	-2.714835	-0.798432	-0.726209	1
H	-2.730505	-0.311982	0.980511	1
H	-0.601535	-2.082982	-0.335499	1
H	-0.617945	-1.607232	1.359491	1
H	-0.439465	0.797548	0.697791	1
H	-0.419765	0.312988	-1.020849	1
H	3.299455	0.783598	-0.179389	1
H	0.760416	2.473478	-0.696549	1
H	2.528205	2.999668	-0.820619	1
Es	-2.401676	-1.088069	0.282030	99
Es	2.947161	0.853241	-0.204034	99
Es	-0.699921	-1.820150	-0.123833	99
Es	2.197101	-1.190611	0.362450	99
Es	0.603327	-0.072579	0.027384	99
Es	1.896012	-1.228302	0.369566	99
Es	-0.330727	0.544784	0.467217	99
Es	-0.711202	-1.493586	1.039868	99
Es	1.356860	-0.166023	0.062750	99
Es	2.012675	1.481114	-0.732546	99
Es	-0.509664	-0.624763	0.169877	99
Es	1.103201	2.390793	-0.667986	99
Es	-0.895264	-1.280094	0.349999	99
Es	-0.150599	0.006509	-0.003629	99
Es	-2.750225	-1.724080	0.460108	99
Es	2.285814	2.746711	-0.752106	99
Es	-0.317547	0.218787	-0.690036	99
Es	1.808859	2.213984	-0.607507	99
Es	1.703254	-1.479792	0.438614	99
Es	-2.622217	-0.553057	0.759808	99
Es	1.704577	-0.908966	0.014508	99
Es	1.698513	-0.770660	0.500110	99
Es	-2.611493	-0.886445	-0.409779	99
Es	1.783751	0.438322	-0.102887	99
Es	-1.653863	-1.172412	0.312627	99
Es	2.236332	0.994864	-0.254681	99
Es	2.003633	1.658607	-0.110659	99
44
Properties=species:S:1:pos:R:3:Z:I:1 energy=-307.9852310212809 field_type=dipole dipole="0.000000 0.000000 0.000000" charge=0
C	-2.401695	-1.088072	0.282031	6
C	-0.895245	-1.280172	0.350021	6
C	-0.150665	0.006508	-0.003629	6
C	1.356855	-0.166062	0.062761	6
O	1.896175	-1.228572	0.369651	8
C	2.236345	0.994948	-0.254709	6
C	1.808895	2.213888	-0.607479	6
H	-2.914695	-2.019122	0.542671	1
H	-2.714835	-0.798432	-0.726209	1
H	-2.730505	-0.311982	0.980511	1
H	-0.601535	-2.082982	-0.335499	1
H	-0.617945	-1.607232	1.359491	1
H	-0.439465	0.797548	0.697791	1
H	-0.419765	0.312988	-1.020849	1
H	3.299455	0.783598	-0.179389	1
H	0.760416	2.473478	-0.696549	1
H	2.528205	2.999668	-0.820619	1
Es	1.356859	-0.166023	0.062751	99
Es	-2.750560	-1.724891	0.460228	99
Es	2.285515	2.745163	-0.751796	99
Es	-0.711095	-1.493579	1.039265	99
Es	0.603770	-0.071772	0.027166	99
Es	1.785454	-1.524653	0.452592	99
Es	-0.699823	-1.820079	-0.123292	99
Es	-2.611321	-0.886222	-0.409123	99
Es	1.895881	-1.228308	0.369572	99
Es	-0.150603	0.006507	-0.003628	99
Es	-2.622148	-0.553113	0.759239	99
Es	1.690923	-0.774841	0.501147	99
Es	2.012802	1.481889	-0.732110	99
Es	-0.317740	0.218900	-0.689304	99
Es	1.102304	2.391932	-0.668374	99
Es	1.697305	-0.912806	0.014816	99
Es	2.947816	0.852794	-0.204216	99
Es	-2.401676	-1.088069	0.282030	99
Es	1.783739	0.438856	-0.103094	99
Es	1.808858	2.213984	-0.607507	99
Es	2.236323	0.994864	-0.254679	99
Es	2.003950	1.658103	-0.110575	99
Es	-0.895264	-1.280095	0.349999	99
Es	2.129943	-1.137913	0.347136	99
Es	-0.330879	0.544577	0.466396	99
Es	-0.509426	-0.625038	0.170025	99
Es	-1.654235	-1.172041	0.312570	99
44
Properties=species:S:1:pos:R:3:Z:I:1 energy=-307.9852310212809 field_type=dipole dipole="0.000000 0.000000 0.000000" charge=0
C	-2.401695	-1.088072	0.282031	6
C	-0.895245	-1.280172	0.350021	6
C	-0.150665	0.006508	-0.003629	6
C	1.356855	-0.166062	0.062761	6
O	1.896175	-1.228572	0.369651	8
C	2.236345	0.994948	-0.254709	6
C	1.808895	2.213888	-0.607479	6
H	-2.914695	-2.019122	0.542671	1
H	-2.714835	-0.798432	-0.726209	1
H	-2.730505	-0.311982	0.980511	1
H	-0.601535	-2.082982	-0.335499	1
H	-0.617945	-1.607232	1.359491	1
H	-0.439465	0.797548	0.697791	1
H	-0.419765	0.312988	-1.020849	1
H	3.299455	0.783598	-0.179389	1
H	0.760416	2.473478	-0.696549	1
H	2.528205	2.999668	-0.820619	1
Es	1.895936	-1.228285	0.369568	99
Es	-1.654381	-1.171869	0.312417	99
Es	2.004050	1.658035	-0.112184	99
Es	0.604541	-0.070985	0.027008	99
Es	-0.509489	-0.625159	0.170063	99
Es	1.862034	-1.533775	0.455684	99
Es	2.052913	-1.129206	0.343519	99
Es	-0.699951	-1.819597	-0.122461	99
Es	1.101748	2.392314	-0.668465	99
Es	-0.330858	0.544056	0.465149	99
Es	2.012984	1.482041	-0.730649	99
Es	1.356859	-0.166023	0.062750	99
Es	1.697646	-0.913092	0.014614	99
Es	-0.711117	-1.494061	1.038403	99
Es	1.783155	0.439091	-0.103252	99
Es	1.690881	-0.774267	0.501912	99
Es	-2.401675	-1.088068	0.282031	99
Es	-2.751331	-1.725874	0.460608	99
Es	1.808857	2.213984	-0.607505	99
Es	-2.611286	-0.885647	-0.408168	99
Es	-0.895262	-1.280089	0.349997	99
Es	2.948294	0.852727	-0.204106	99
Es	2.285915	2.744697	-0.751567	99
Es	-0.317794	0.219385	-0.688005	99
Es	-0.150601	0.006508	-0.003628	99
Es	2.236323	0.994862	-0.254690	99
Es	-2.621719	-0.553575	0.758193	99
44
Properties=species:S:1:pos:R:3:Z:I:1 energy=-307.9852310212809 field_type=dipole dipole="0.000000 0.000000 0.000000" charge=0
C	-2.401695	-1.088072	0.282031	6
C	-0.895245	-1.280172	0.350021	6
C	-0.150665	0.006508	-0.003629	6
C	1.356855	-0.166062	0.062761	6
O	1.896175	-1.228572	0.369651	8
C	2.236345	0.994948	-0.254709	6
C	1.808895	2.213888	-0.607479	6
H	-2.914695	-2.019122	0.542671	1
H	-2.714835	-0.798432	-0.726209	1
H	-2.730505	-0.311982	0.980511	1
H	-0.601535	-2.082982	-0.335499	1
H	-0.617945	-1.607232	1.359491	1
H	-0.439465	0.797548	0.697791	1
H	-0.419765	0.312988	-1.020849	1
H	3.299455	0.783598	-0.179389	1
H	0.760416	2.473478	-0.696549	1
H	2.528205	2.999668	-0.820619	1
Es	-0.509460	-0.625233	0.169986	99
Es	2.001399	-1.136712	0.344995	99
Es	-2.610936	-0.885331	-0.407281	99
Es	-1.654726	-1.171735	0.312394	99
Es	-0.317724	0.219530	-0.686894	99
Es	-0.700242	-1.819090	-0.121701	99
Es	1.895588	-1.228265	0.369557	99
Es	-0.330868	0.543821	0.464049	99
Es	1.808856	2.213984	-0.607507	99
Es	-2.621387	-0.553730	0.757291	99
Es	2.948487	0.852779	-0.204196	99
Es	2.004088	1.657428	-0.113106	99
Es	-0.895264	-1.280095	0.350000	99
Es	-2.401676	-1.088068	0.282030	99
Es	1.700674	-0.910393	0.014532	99
Es	1.101486	2.392742	-0.668518	99
Es	1.694770	-0.773127	0.501363	99
Es	0.604892	-0.070111	0.026757	99
Es	2.012990	1.482671	-0.729759	99
Es	1.906877	-1.530250	0.454840	99
Es	2.236324	0.994862	-0.254685	99
Es	-0.711011	-1.494496	1.037716	99
Es	1.356859	-0.166022	0.062752	99
Es	2.286307	2.744303	-0.751383	99
Es	-2.751752	-1.727058	0.460920	99
Es	1.782721	0.439212	-0.103291	99
Es	-0.150602	0.006510	-0.003629	99
44
Properties=species:S:1:pos:R:3:Z:I:1 energy=-307.9852310212809 field_type=dipole dipole="0.000000 0.000000 0.000000" charge=0
C	-2.401695	-1.088072	0.282031	6
C	-0.895245	-1.280172	0.350021	6
C	-0.150665	0.006508	-0.003629	6
C	1.356855	-0.166062	0.062761	6
O	1.896175	-1.228572	0.369651	8
C	2.236345	0.994948	-0.254709	6
C	1.808895	2.213888	-0.607479	6
H	-2.914695	-2.019122	0.542671	1
H	-2.714835	-0.798432	-0.726209	1
H	-2.730505	-0.311982	0.980511	1
H	-0.601535	-2.082982	-0.335499	1
H	-0.617945	-1.607232	1.359491	1
H	-0.439465	0.797548	0.697791	1
H	-0.419765	0.312988	-1.020849	1
H	3.299455	0.783598	-0.179389	1
H	0.760416	2.473478	-0.696549	1
H	2.528205	2.999668	-0.820619	1
Es	-0.700226	-1.819096	-0.121132	99
Es	-0.318357	0.221099	-0.686302	99
Es	1.702221	-0.906461	0.014618	99
Es	-0.329861	0.542340	0.463681	99
Es	-0.150600	0.006510	-0.003630	99
Es	1.356859	-0.166024	0.062745	99
Es	1.895047	-1.228131	0.369512	99
Es	-2.401675	-1.088067	0.282031	99
Es	1.964337	-1.145869	0.347191	99
Es	-1.655086	-1.171438	0.312325	99
Es	2.236322	0.994862	-0.254684	99
Es	-2.751620	-1.728284	0.461296	99
Es	-0.711272	-1.494509	1.036964	99
Es	1.938887	-1.524059	0.453402	99
Es	-2.609955	-0.886589	-0.406116	99
Es	2.004204	1.657382	-0.113896	99
Es	2.948558	0.852835	-0.204238	99
Es	0.604683	-0.069314	0.026389	99
Es	1.808857	2.213985	-0.607506	99
Es	1.698716	-0.774309	0.500628	99
Es	2.013027	1.482773	-0.729040	99
Es	1.101295	2.393024	-0.668564	99
Es	2.286560	2.744019	-0.751296	99
Es	-0.895262	-1.280095	0.350000	99
Es	-0.509456	-0.625301	0.170058	99
Es	-2.621895	-0.552440	0.756096	99
Es	1.782364	0.439285	-0.103301	99
44
Properties=species:S:1:pos:R:3:Z:I:1 energy=-307.9852310212809 field_type=dipole dipole="0.000000 0.000000 0.000000" charge=0
C	-2.401695	-1.088072	0.282031	6
C	-0.895245	-1.280172	0.350021	6
C	-0.150665	0.006508	-0.003629	6
C	1.356855	-0.166062	0.062761	6
O	1.896175	-1.228572	0.369651	8
C	2.236345	0.994948	-0.254709	6
C	1.808895	2.213888	-0.607479	6
H	-2.914695	-2.019122	0.542671	1
H	-2.714835	-0.798432	-0.726209	1
H	-2.730505	-0.311982	0.980511	1
H	-0.601535	-2.082982	-0.335499	1
H	-0.617945	-1.607232	1.359491	1
H	-0.439465	0.797548	0.697791	1
H	-0.419765	0.312988	-1.020849	1
H	3.299455	0.783598	-0.179389	1
H	0.760416	2.473478	-0.696549	1
H	2.528205	2.999668	-0.820619	1
Es	1.724020	-0.825046	0.458915	99
Es	2.004304	1.658611	-0.112874	99
Es	1.932058	-1.155566	0.349292	99
Es	-0.150601	0.006509	-0.003629	99
Es	1.101629	2.393228	-0.668363	99
Es	-2.622385	-0.550804	0.756435	99
Es	-2.750088	-1.729319	0.461288	99
Es	1.683492	-0.851835	0.059000	99
Es	0.603366	-0.069063	0.026081	99
Es	-0.895263	-1.280095	0.350000	99
Es	1.964121	-1.518002	0.448727	99
Es	2.286078	2.743976	-0.751140	99
Es	-2.401676	-1.088068	0.282030	99
Es	-0.699721	-1.820800	-0.121363	99
Es	-0.332796	0.547722	0.462668	99
Es	-1.655739	-1.171027	0.312151	99
Es	2.013022	1.481614	-0.730041	99
Es	1.782757	0.439121	-0.103535	99
Es	1.808857	2.213985	-0.607506	99
Es	1.895435	-1.228429	0.369600	99
Es	-0.712079	-1.493132	1.037056	99
Es	-0.509160	-0.625437	0.170141	99
Es	-2.609106	-0.887776	-0.406062	99
Es	2.236323	0.994862	-0.254684	99
Es	1.356859	-0.166022	0.062751	99
Es	2.948054	0.852854	-0.204531	99
Es	-0.315091	0.216065	-0.685175	99
44
Properties=species:S:1:pos:R:3:Z:I:1 energy=-307.9852310212809 field_type=dipole dipole="0.000000 0.000000 0.000000" charge=0
C	-2.401695	-1.088072	0.282031	6
C	-0.895245	-1.280172	0.350021	6
C	-0.150665	0.006508	-0.003629	6
C	1.356855	-0.166062	0.062761	6
O	1.896175	-1.228572	0.369651	8
C	2.236345	0.994948	-0.254709	6
C	1.808895	2.213888	-0.607479	6
H	-2.914695	-2.019122	0.542671	1
H	-2.714835	-0.798432	-0.726209	1
H	-2.730505	-0.311982	0.980511	1
H	-0.601535	-2.082982	-0.335499	1
H	-0.617945	-1.607232	1.359491	1
H	-0.439465	0.797548	0.697791	1
H	-0.419765	0.312988	-1.020849	1
H	3.299455	0.783598	-0.179389	1
H	0.760416	2.473478	-0.696549	1
H	2.528205	2.999668	-0.820619	1
Es	1.731566	-0.853731	0.407084	99
Es	2.236322	0.994861	-0.254684	99
Es	-2.621736	-0.551697	0.757552	99
Es	1.101815	2.394754	-0.668787	99
Es	-0.509078	-0.625454	0.170214	99
Es	2.013210	1.481991	-0.731394	99
Es	-0.332990	0.548485	0.463037	99
Es	1.356860	-0.166023	0.062749	99
Es	1.897436	-1.226878	0.369180	99
Es	-0.712003	-1.493380	1.037740	99
Es	1.922004	-1.159816	0.350524	99
Es	2.004345	1.658355	-0.111448	99
Es	-2.748635	-1.729986	0.461412	99
Es	-0.150601	0.006509	-0.003629	99
Es	-1.656019	-1.170915	0.312143	99
Es	0.602132	-0.068959	0.026129	99
Es	1.808857	2.213985	-0.607507	99
Es	1.970212	-1.516221	0.447940	99
Es	1.677882	-0.822327	0.110743	99
Es	2.285631	2.742450	-0.750693	99
Es	2.947746	0.852393	-0.204392	99
Es	1.782779	0.439789	-0.103795	99
Es	-2.401674	-1.088068	0.282029	99
Es	-2.609605	-0.886693	-0.407166	99
Es	-0.895262	-1.280096	0.349998	99
Es	-0.314597	0.215532	-0.685658	99
Es	-0.699925	-1.820731	-0.122089	99
44
Properties=species:S:1:pos:R:3:Z:I:1 energy=-307.9852310212809 field_type=dipole dipole="0.000000 0.000000 0.000000" charge=0
C	-2.401695	-1.088072	0.282031	6
C	-0.895245	-1.280172	0.350021	6
C	-0.150665	0.006508	-0.003629	6
C	1.356855	-0.166062	0.062761	6
O	1.896175	-1.228572	0.369651	8
C	2.236345	0.994948	-0.254709	6
C	1.808895	2.213888	-0.607479	6
H	-2.914695	-2.019122	0.542671	1
H	-2.714835	-0.798432	-0.726209	1
H	-2.730505	-0.311982	0.980511	1
H	-0.601535	-2.082982	-0.335499	1
H	-0.617945	-1.607232	1.359491	1
H	-0.439465	0.797548	0.697791	1
H	-0.419765	0.312988	-1.020849	1
H	3.299455	0.783598	-0.179389	1
H	0.760416	2.473478	-0.696549	1
H	2.528205	2.999668	-0.820619	1
Es	0.600877	-0.068021	0.025994	99
Es	-2.746863	-1.731112	0.461989	99
Es	-2.621941	-0.551038	0.757290	99
Es	1.674462	-0.806497	0.147212	99
Es	1.975281	-1.514267	0.448669	99
Es	-0.699649	-1.821415	-0.121859	99
Es	2.285362	2.740768	-0.750356	99
Es	1.895463	-1.228301	0.369571	99
Es	2.236323	0.994862	-0.254684	99
Es	-1.657129	-1.170187	0.311902	99
Es	1.101952	2.396353	-0.669363	99
Es	2.013202	1.481504	-0.731791	99
Es	1.735067	-0.869820	0.369610	99
Es	-0.508307	-0.625896	0.170231	99
Es	1.782779	0.440271	-0.103738	99
Es	-0.150601	0.006510	-0.003629	99
Es	1.918772	-1.160154	0.350478	99
Es	1.356860	-0.166023	0.062750	99
Es	-2.609260	-0.887365	-0.407227	99
Es	-0.315649	0.217132	-0.686724	99
Es	2.004435	1.658869	-0.111136	99
Es	1.808856	2.213982	-0.607513	99
Es	-0.895263	-1.280095	0.349998	99
Es	-0.331988	0.546846	0.463920	99
Es	-2.401677	-1.088068	0.282030	99
Es	2.947682	0.851971	-0.204167	99
Es	-0.712375	-1.492683	1.037777	99
44
Properties=species:S:1:pos:R:3:Z:I:1 energy=-307.9852310212809 field_type=dipole dipole="0.000000 0.000000 0.000000" charge=0
C	-2.401695	-1.088072	0.282031	6
C	-0.895245	-1.280172	0.350021	6
C	-0.150665	0.006508	-0.003629	6
C	1.356855	-0.166062	0.062761	6
O	1.896175	-1.228572	0.369651	8
C	2.236345	0.994948	-0.254709	6
C	1.808895	2.213888	-0.607479	6
H	-2.914695	-2.019122	0.542671	1
H	-2.714835	-0.798432	-0.726209	1
H	-2.730505	-0.311982	0.980511	1
H	-0.601535	-2.082982	-0.335499	1
H	-0.617945	-1.607232	1.359491	1
H	-0.439465	0.797548	0.697791	1
H	-0.419765	0.312988	-1.020849	1
H	3.299455	0.783598	-0.179389	1
H	0.760416	2.473478	-0.696549	1
H	2.528205	2.999668	-0.820619	1
Es	1.978435	-1.512428	0.451183	99
Es	-0.508155	-0.625912	0.170143	99
Es	1.671638	-0.766784	0.269616	99
Es	-2.610855	-0.884044	-0.408490	99
Es	1.738781	-0.910078	0.243944	99
Es	0.600065	-0.067751	0.026069	99
Es	-0.895263	-1.280096	0.350001	99
Es	-0.711255	-1.494986	1.038700	99
Es	-2.745348	-1.731955	0.462233	99
Es	2.284958	2.739394	-0.750032	99
Es	-1.658021	-1.169799	0.311764	99
Es	2.013317	1.481882	-0.732409	99
Es	-2.620197	-0.554280	0.758492	99
Es	-0.329231	0.542633	0.465401	99
Es	1.356860	-0.166023	0.062751	99
Es	1.915250	-1.162117	0.351194	99
Es	-0.318184	0.221443	-0.688290	99
Es	-0.700864	-1.819110	-0.122612	99
Es	1.894919	-1.227759	0.369406	99
Es	1.782714	0.440963	-0.103715	99
Es	-2.401676	-1.088068	0.282030	99
Es	2.947677	0.851516	-0.203873	99
Es	2.004400	1.658521	-0.110557	99
Es	1.808857	2.213985	-0.607503	99
Es	1.102128	2.397607	-0.669907	99
Es	-0.150602	0.006508	-0.003629	99
Es	2.236324	0.994864	-0.254679	99
44
Properties=species:S:1:pos:R:3:Z:I:1 energy=-307.9852310212809 field_type=dipole dipole="0.000000 0.000000 0.000000" charge=0
C	-2.401695	-1.088072	0.282031	6
C	-0.895245	-1.280172	0.350021	6
C	-0.150665	0.006508	-0.003629	6
C	1.356855	-0.166062	0.062761	6
O	1.896175	-1.228572	0.369651	8
C	2.236345	0.994948	-0.254709	6
C	1.808895	2.213888	-0.607479	6
H	-2.914695	-2.019122	0.542671	1
H	-2.714835	-0.798432	-0.726209	1
H	-2.730505	-0.311982	0.980511	1
H	-0.601535	-2.082982	-0.335499	1
H	-0.617945	-1.607232	1.359491	1
H	-0.439465	0.797548	0.697791	1
H	-0.419765	0.312988	-1.020849	1
H	3.299455	0.783598	-0.179389	1
H	0.760416	2.473478	-0.696549	1
H	2.528205	2.999668	-0.820619	1
Es	-2.401675	-1.088068	0.282030	99
Es	1.895190	-1.228214	0.369536	99
Es	-0.710820	-1.495805	1.038603	99
Es	1.808857	2.213985	-0.607506	99
Es	1.102291	2.399149	-0.670303	99
Es	2.004400	1.657886	-0.110813	99
Es	-1.659053	-1.169385	0.311695	99
Es	-0.507343	-0.626358	0.170374	99
Es	1.673213	-0.777054	0.229460	99
Es	-0.895261	-1.280095	0.349999	99
Es	2.947868	0.851101	-0.203779	99
Es	-0.150601	0.006509	-0.003628	99
Es	-2.744041	-1.732837	0.462581	99
Es	2.236322	0.994861	-0.254683	99
Es	1.984041	-1.510661	0.450011	99
Es	1.356859	-0.166024	0.062749	99
Es	1.908072	-1.164231	0.351486	99
Es	-0.328847	0.541749	0.465158	99
Es	1.782344	0.441461	-0.103912	99
Es	2.013303	1.482536	-0.732153	99
Es	1.738486	-0.899032	0.284942	99
Es	0.599195	-0.066810	0.025745	99
Es	-2.607946	-0.889545	-0.406159	99
Es	-2.623029	-0.548831	0.756053	99
Es	-0.701189	-1.818222	-0.122593	99
Es	-0.318752	0.222210	-0.688067	99
Es	2.284788	2.737853	-0.749593	99
44
Properties=species:S:1:pos:R:3:Z:I:1 energy=-307.9852310212809 field_type=dipole dipole="0.000000 0.000000 0.000000" charge=0
C	-2.401695	-1.088072	0.282031	6
C	-0.895245	-1.280172	0.350021	6
C	-0.150665	0.006508	-0.003629	6
C	1.356855	-0.166062	0.062761	6
O	1.896175	-1.228572	0.369651	8
C	2.236345	0.994948	-0.254709	6
C	1.808895	2.213888	-0.607479	6
H	-2.914695	-2.019122	0.542671	1
H	-2.714835	-0.798432	-0.726209	1
H	-2.730505	-0.311982	0.980511	1
H	-0.601535	-2.082982	-0.335499	1
H	-0.617945	-1.607232	1.359491	1
H	-0.439465	0.797548	0.697791	1
H	-0.419765	0.312988	-1.020849	1
H	3.299455	0.783598	-0.179389	1
H	0.760416	2.473478	-0.696549	1
H	2.528205	2.999668	-0.820619	1
Es	-0.150601	0.006509	-0.003629	99
Es	-0.322076	0.228090	-0.688343	99
Es	-2.742746	-1.733339	0.462775	99
Es	-1.659719	-1.169086	0.311620	99
Es	2.004485	1.658016	-0.110374	99
Es	2.013283	1.482421	-0.732653	99
Es	-0.325439	0.535967	0.465584	99
Es	-0.708743	-1.500422	1.039049	99
Es	1.896094	-1.228221	0.369549	99
Es	1.102698	2.400538	-0.670611	99
Es	-0.506683	-0.626603	0.170422	99
Es	-0.895263	-1.280096	0.350001	99
Es	-2.627170	-0.541629	0.749699	99
Es	2.284219	2.736449	-0.749224	99
Es	0.598060	-0.066447	0.025621	99
Es	1.738631	-0.902956	0.271239	99
Es	1.356859	-0.166023	0.062751	99
Es	-2.401676	-1.088067	0.282030	99
Es	1.986974	-1.509552	0.449879	99
Es	-0.703359	-1.813674	-0.123090	99
Es	1.903856	-1.165442	0.351913	99
Es	2.236322	0.994861	-0.254684	99
Es	2.947765	0.850910	-0.203786	99
Es	1.782374	0.441738	-0.103946	99
Es	1.808857	2.213985	-0.607507	99
Es	-2.603750	-0.896712	-0.399875	99
Es	1.673419	-0.773088	0.242822	99
