49
Properties=species:S:1:pos:R:3:Z:I:1 energy=-273.30492491242967 field_type=dipole dipole="0.000000 0.000000 0.000000" charge=0
C	-2.274348	-0.950476	-0.362985	6
C	-0.819548	-0.591466	-0.047715	6
C	0.096062	-1.744206	-0.461475	6
C	-0.449368	0.733874	-0.743635	6
C	0.968042	1.251604	-0.467315	6
C	1.217472	1.543454	0.984485	6
C	2.163432	0.943924	1.718325	6
H	-2.951717	-0.155516	-0.033075	1
H	-2.568258	-1.872136	0.150715	1
H	-2.423687	-1.099506	-1.437975	1
H	-0.740968	-0.463216	1.038425	1
H	0.093202	-1.883546	-1.547915	1
H	-0.229858	-2.682956	-0.000015	1
H	1.128032	-1.570066	-0.142785	1
H	-1.169808	1.506464	-0.442895	1
H	-0.563838	0.616284	-1.829255	1
H	1.110343	2.184734	-1.026185	1
H	1.709953	0.548164	-0.861765	1
H	0.587382	2.298534	1.450255	1
H	2.818053	0.187004	1.297715	1
H	2.299423	1.199044	2.765065	1
Es	-0.352797	-1.170432	-0.263435	99
Es	-0.942851	1.265360	-0.531052	99
Es	-0.819554	-0.591474	-0.047771	99
Es	0.780998	2.057571	1.292852	99
Es	-2.472367	-1.581963	-0.011304	99
Es	1.062239	1.889341	-0.839297	99
Es	-2.274342	-0.950473	-0.362984	99
Es	0.096057	-1.744198	-0.461474	99
Es	1.915914	1.469025	1.276667	99
Es	-2.736215	-0.403811	-0.137751	99
Es	-2.371865	-1.051581	-1.100454	99
Es	1.489951	1.004023	1.446812	99
Es	1.090054	1.391692	0.267484	99
Es	-0.765162	-0.501467	0.694612	99
Es	0.968016	1.251610	-0.467270	99
Es	2.610901	0.428190	1.435899	99
Es	-0.525160	0.648142	-1.489121	99
Es	-0.449327	0.733875	-0.743614	99
Es	-1.554842	-0.771487	-0.213792	99
Es	0.269043	0.987342	-0.584494	99
Es	1.217394	1.543507	0.984406	99
Es	2.163509	0.943876	1.718385	99
Es	-0.130681	-2.383623	-0.145622	99
Es	0.090759	-1.834989	-1.206734	99
Es	0.800958	-1.621702	-0.246224	99
Es	2.262381	1.111803	2.430465	99
Es	1.474502	0.766576	-0.728331	99
Es	-0.619725	0.072854	-0.396921	99
49
Properties=species:S:1:pos:R:3:Z:I:1 energy=-273.30492491242967 field_type=dipole dipole="0.000000 0.000000 0.000000" charge=0
C	-2.274348	-0.950476	-0.362985	6
C	-0.819548	-0.591466	-0.047715	6
C	0.096062	-1.744206	-0.461475	6
C	-0.449368	0.733874	-0.743635	6
C	0.968042	1.251604	-0.467315	6
C	1.217472	1.543454	0.984485	6
C	2.163432	0.943924	1.718325	6
H	-2.951717	-0.155516	-0.033075	1
H	-2.568258	-1.872136	0.150715	1
H	-2.423687	-1.099506	-1.437975	1
H	-0.740968	-0.463216	1.038425	1
H	0.093202	-1.883546	-1.547915	1
H	-0.229858	-2.682956	-0.000015	1
H	1.128032	-1.570066	-0.142785	1
H	-1.169808	1.506464	-0.442895	1
H	-0.563838	0.616284	-1.829255	1
H	1.110343	2.184734	-1.026185	1
H	1.709953	0.548164	-0.861765	1
H	0.587382	2.298534	1.450255	1
H	2.818053	0.187004	1.297715	1
H	2.299423	1.199044	2.765065	1
Es	-2.472447	-1.581672	-0.011527	99
Es	0.269403	0.987404	-0.584460	99
Es	1.489797	1.003530	1.446884	99
Es	-0.130931	-2.382755	-0.146474	99
Es	1.090098	1.392070	0.267561	99
Es	0.801819	-1.622240	-0.245580	99
Es	1.916234	1.469570	1.276653	99
Es	1.217389	1.543503	0.984405	99
Es	-0.449327	0.733876	-0.743615	99
Es	-0.619819	0.072529	-0.396908	99
Es	-0.525093	0.648113	-1.489222	99
Es	0.090397	-1.835094	-1.206723	99
Es	2.163512	0.943878	1.718385	99
Es	-0.942903	1.265459	-0.530949	99
Es	-1.554936	-0.771669	-0.213745	99
Es	2.262073	1.111122	2.430719	99
Es	1.474191	0.766497	-0.728406	99
Es	-0.819553	-0.591473	-0.047771	99
Es	-0.765050	-0.501132	0.694652	99
Es	-2.274344	-0.950472	-0.362984	99
Es	-0.352784	-1.170570	-0.263159	99
Es	0.968016	1.251610	-0.467271	99
Es	-2.372003	-1.051529	-1.100703	99
Es	2.610480	0.428143	1.436058	99
Es	1.062128	1.889500	-0.839488	99
Es	0.096057	-1.744197	-0.461474	99
Es	-2.736149	-0.403946	-0.137544	99
Es	0.781532	2.057531	1.292622	99
49
Properties=species:S:1:pos:R:3:Z:I:1 energy=-273.30492491242967 field_type=dipole dipole="0.000000 0.000000 0.000000" charge=0
C	-2.274348	-0.950476	-0.362985	6
C	-0.819548	-0.591466	-0.047715	6
C	0.096062	-1.744206	-0.461475	6
C	-0.449368	0.733874	-0.743635	6
C	0.968042	1.251604	-0.467315	6
C	1.217472	1.543454	0.984485	6
C	2.163432	0.943924	1.718325	6
H	-2.951717	-0.155516	-0.033075	1
H	-2.568258	-1.872136	0.150715	1
H	-2.423687	-1.099506	-1.437975	1
H	-0.740968	-0.463216	1.038425	1
H	0.093202	-1.883546	-1.547915	1
H	-0.229858	-2.682956	-0.000015	1
H	1.128032	-1.570066	-0.142785	1
H	-1.169808	1.506464	-0.442895	1
H	-0.563838	0.616284	-1.829255	1
H	1.110343	2.184734	-1.026185	1
H	1.709953	0.548164	-0.861765	1
H	0.587382	2.298534	1.450255	1
H	2.818053	0.187004	1.297715	1
H	2.299423	1.199044	2.765065	1
Es	1.217387	1.543503	0.984402	99
Es	0.781939	2.057503	1.292237	99
Es	1.090019	1.392121	0.267727	99
Es	-1.554855	-0.771641	-0.213847	99
Es	-0.619843	0.072313	-0.396622	99
Es	1.474007	0.766436	-0.728486	99
Es	0.270069	0.987475	-0.584322	99
Es	1.916677	1.470014	1.276450	99
Es	0.968018	1.251610	-0.467273	99
Es	-0.352946	-1.170446	-0.263542	99
Es	2.610027	0.427887	1.436355	99
Es	-0.765020	-0.501044	0.694839	99
Es	-0.131121	-2.381888	-0.146906	99
Es	0.090165	-1.835620	-1.206457	99
Es	-0.819555	-0.591476	-0.047771	99
Es	-2.736281	-0.403981	-0.137596	99
Es	-2.472460	-1.581150	-0.011602	99
Es	1.061789	1.889829	-0.839740	99
Es	1.489510	1.003227	1.447197	99
Es	-2.274343	-0.950473	-0.362985	99
Es	0.096056	-1.744199	-0.461472	99
Es	-0.449328	0.733878	-0.743614	99
Es	2.261941	1.110841	2.430776	99
Es	-0.942892	1.265405	-0.530923	99
Es	2.163510	0.943875	1.718387	99
Es	0.802571	-1.622558	-0.245127	99
Es	-2.372076	-1.051904	-1.100837	99
Es	-0.525176	0.648047	-1.489311	99
49
Properties=species:S:1:pos:R:3:Z:I:1 energy=-273.30492491242967 field_type=dipole dipole="0.000000 0.000000 0.000000" charge=0
C	-2.274348	-0.950476	-0.362985	6
C	-0.819548	-0.591466	-0.047715	6
C	0.096062	-1.744206	-0.461475	6
C	-0.449368	0.733874	-0.743635	6
C	0.968042	1.251604	-0.467315	6
C	1.217472	1.543454	0.984485	6
C	2.163432	0.943924	1.718325	6
H	-2.951717	-0.155516	-0.033075	1
H	-2.568258	-1.872136	0.150715	1
H	-2.423687	-1.099506	-1.437975	1
H	-0.740968	-0.463216	1.038425	1
H	0.093202	-1.883546	-1.547915	1
H	-0.229858	-2.682956	-0.000015	1
H	1.128032	-1.570066	-0.142785	1
H	-1.169808	1.506464	-0.442895	1
H	-0.563838	0.616284	-1.829255	1
H	1.110343	2.184734	-1.026185	1
H	1.709953	0.548164	-0.861765	1
H	0.587382	2.298534	1.450255	1
H	2.818053	0.187004	1.297715	1
H	2.299423	1.199044	2.765065	1
Es	1.061729	1.890031	-0.840094	99
Es	0.782486	2.057437	1.292163	99
Es	-1.554928	-0.771708	-0.213920	99
Es	-0.764942	-0.500771	0.694839	99
Es	-2.274343	-0.950473	-0.362984	99
Es	0.270467	0.987683	-0.584149	99
Es	1.489313	1.002883	1.447318	99
Es	0.090096	-1.836042	-1.206204	99
Es	1.089888	1.392393	0.267851	99
Es	-0.525115	0.648064	-1.489404	99
Es	-2.736202	-0.404121	-0.137309	99
Es	-0.942969	1.265418	-0.530813	99
Es	2.261776	1.110340	2.430859	99
Es	-0.619664	0.071916	-0.396576	99
Es	-2.372278	-1.051729	-1.101006	99
Es	2.609701	0.427819	1.436457	99
Es	0.096059	-1.744202	-0.461476	99
Es	1.916969	1.470392	1.276373	99
Es	-0.819554	-0.591475	-0.047771	99
Es	1.217386	1.543504	0.984404	99
Es	-0.353170	-1.170373	-0.263621	99
Es	2.163521	0.943884	1.718384	99
Es	1.473545	0.766247	-0.728508	99
Es	-0.449328	0.733876	-0.743614	99
Es	-2.472539	-1.580939	-0.011918	99
Es	-0.131297	-2.381031	-0.147489	99
Es	0.803167	-1.623049	-0.244584	99
Es	0.968016	1.251610	-0.467272	99
49
Properties=species:S:1:pos:R:3:Z:I:1 energy=-273.30492491242967 field_type=dipole dipole="0.000000 0.000000 0.000000" charge=0
C	-2.274348	-0.950476	-0.362985	6
C	-0.819548	-0.591466	-0.047715	6
C	0.096062	-1.744206	-0.461475	6
C	-0.449368	0.733874	-0.743635	6
C	0.968042	1.251604	-0.467315	6
C	1.217472	1.543454	0.984485	6
C	2.163432	0.943924	1.718325	6
H	-2.951717	-0.155516	-0.033075	1
H	-2.568258	-1.872136	0.150715	1
H	-2.423687	-1.099506	-1.437975	1
H	-0.740968	-0.463216	1.038425	1
H	0.093202	-1.883546	-1.547915	1
H	-0.229858	-2.682956	-0.000015	1
H	1.128032	-1.570066	-0.142785	1
H	-1.169808	1.506464	-0.442895	1
H	-0.563838	0.616284	-1.829255	1
H	1.110343	2.184734	-1.026185	1
H	1.709953	0.548164	-0.861765	1
H	0.587382	2.298534	1.450255	1
H	2.818053	0.187004	1.297715	1
H	2.299423	1.199044	2.765065	1
Es	-0.525073	0.647985	-1.489367	99
Es	0.271271	0.987478	-0.583728	99
Es	-2.472619	-1.580618	-0.012322	99
Es	2.163516	0.943879	1.718385	99
Es	-0.131415	-2.379951	-0.148511	99
Es	2.261629	1.110072	2.430937	99
Es	-2.736386	-0.404323	-0.137247	99
Es	-0.764924	-0.500553	0.694701	99
Es	-0.619682	0.071641	-0.396331	99
Es	1.217383	1.543499	0.984405	99
Es	1.489125	1.002556	1.447445	99
Es	-0.353485	-1.170536	-0.263512	99
Es	1.089662	1.392646	0.267855	99
Es	0.803894	-1.623716	-0.243732	99
Es	-1.554933	-0.771658	-0.213726	99
Es	-0.942966	1.265556	-0.530894	99
Es	-2.274342	-0.950472	-0.362984	99
Es	1.473287	0.766146	-0.728450	99
Es	0.090019	-1.836322	-1.205989	99
Es	-0.449329	0.733877	-0.743616	99
Es	1.917359	1.470713	1.276121	99
Es	0.968018	1.251610	-0.467272	99
Es	0.782982	2.057311	1.292046	99
Es	0.096058	-1.744199	-0.461473	99
Es	1.061220	1.890452	-0.840668	99
Es	-2.372274	-1.051726	-1.101080	99
Es	-0.819554	-0.591475	-0.047772	99
Es	2.609348	0.427711	1.436714	99
49
Properties=species:S:1:pos:R:3:Z:I:1 energy=-273.30492491242967 field_type=dipole dipole="0.000000 0.000000 0.000000" charge=0
C	-2.274348	-0.950476	-0.362985	6
C	-0.819548	-0.591466	-0.047715	6
C	0.096062	-1.744206	-0.461475	6
C	-0.449368	0.733874	-0.743635	6
C	0.968042	1.251604	-0.467315	6
C	1.217472	1.543454	0.984485	6
C	2.163432	0.943924	1.718325	6
H	-2.951717	-0.155516	-0.033075	1
H	-2.568258	-1.872136	0.150715	1
H	-2.423687	-1.099506	-1.437975	1
H	-0.740968	-0.463216	1.038425	1
H	0.093202	-1.883546	-1.547915	1
H	-0.229858	-2.682956	-0.000015	1
H	1.128032	-1.570066	-0.142785	1
H	-1.169808	1.506464	-0.442895	1
H	-0.563838	0.616284	-1.829255	1
H	1.110343	2.184734	-1.026185	1
H	1.709953	0.548164	-0.861765	1
H	0.587382	2.298534	1.450255	1
H	2.818053	0.187004	1.297715	1
H	2.299423	1.199044	2.765065	1
Es	0.968015	1.251609	-0.467269	99
Es	0.096057	-1.744198	-0.461473	99
Es	-0.619606	0.071354	-0.396277	99
Es	-2.736215	-0.404250	-0.137225	99
Es	-0.353476	-1.170453	-0.263550	99
Es	-1.554951	-0.771836	-0.213844	99
Es	-2.372345	-1.051661	-1.101137	99
Es	1.917682	1.471113	1.276018	99
Es	-2.274341	-0.950474	-0.362983	99
Es	-2.472933	-1.580358	-0.012520	99
Es	-0.819554	-0.591474	-0.047771	99
Es	-0.943078	1.265620	-0.530842	99
Es	-0.765019	-0.500342	0.694590	99
Es	2.261594	1.109702	2.431000	99
Es	-0.449327	0.733877	-0.743614	99
Es	2.163516	0.943871	1.718384	99
Es	-0.524999	0.647997	-1.489338	99
Es	0.089883	-1.836685	-1.205655	99
Es	1.217386	1.543506	0.984402	99
Es	1.089454	1.392937	0.267885	99
Es	1.060689	1.890837	-0.841155	99
Es	0.783496	2.057079	1.291941	99
Es	0.272158	0.987310	-0.583239	99
Es	-0.131762	-2.378795	-0.149326	99
Es	1.488905	1.002279	1.447628	99
Es	1.473024	0.766050	-0.728489	99
Es	2.608934	0.427585	1.436805	99
Es	0.804604	-1.624613	-0.243010	99
49
Properties=species:S:1:pos:R:3:Z:I:1 energy=-273.30492491242967 field_type=dipole dipole="0.000000 0.000000 0.000000" charge=0
C	-2.274348	-0.950476	-0.362985	6
C	-0.819548	-0.591466	-0.047715	6
C	0.096062	-1.744206	-0.461475	6
C	-0.449368	0.733874	-0.743635	6
C	0.968042	1.251604	-0.467315	6
C	1.217472	1.543454	0.984485	6
C	2.163432	0.943924	1.718325	6
H	-2.951717	-0.155516	-0.033075	1
H	-2.568258	-1.872136	0.150715	1
H	-2.423687	-1.099506	-1.437975	1
H	-0.740968	-0.463216	1.038425	1
H	0.093202	-1.883546	-1.547915	1
H	-0.229858	-2.682956	-0.000015	1
H	1.128032	-1.570066	-0.142785	1
H	-1.169808	1.506464	-0.442895	1
H	-0.563838	0.616284	-1.829255	1
H	1.110343	2.184734	-1.026185	1
H	1.709953	0.548164	-0.861765	1
H	0.587382	2.298534	1.450255	1
H	2.818053	0.187004	1.297715	1
H	2.299423	1.199044	2.765065	1
Es	-0.524973	0.647998	-1.489234	99
Es	1.472652	0.766011	-0.728383	99
Es	0.805164	-1.625862	-0.241911	99
Es	-0.132120	-2.377358	-0.150429	99
Es	-0.353698	-1.170316	-0.263681	99
Es	1.488759	1.001913	1.447792	99
Es	-2.736199	-0.404370	-0.137222	99
Es	-0.619474	0.070966	-0.395931	99
Es	0.968016	1.251610	-0.467271	99
Es	1.217388	1.543504	0.984404	99
Es	-0.449329	0.733878	-0.743616	99
Es	1.060143	1.891292	-0.841823	99
Es	-2.274343	-0.950473	-0.362984	99
Es	0.096056	-1.744196	-0.461474	99
Es	0.273076	0.987275	-0.582849	99
Es	-0.765121	-0.500229	0.694520	99
Es	0.783919	2.057020	1.291856	99
Es	1.917751	1.471356	1.275912	99
Es	1.089329	1.393031	0.267934	99
Es	2.261515	1.109337	2.431049	99
Es	-2.473104	-1.579970	-0.012751	99
Es	2.163510	0.943871	1.718389	99
Es	-0.943053	1.265635	-0.531013	99
Es	-2.372504	-1.051718	-1.101182	99
Es	0.090015	-1.837068	-1.205341	99
Es	-1.554789	-0.771761	-0.213919	99
Es	-0.819556	-0.591474	-0.047770	99
Es	2.608758	0.427682	1.436865	99
49
Properties=species:S:1:pos:R:3:Z:I:1 energy=-273.30492491242967 field_type=dipole dipole="0.000000 0.000000 0.000000" charge=0
C	-2.274348	-0.950476	-0.362985	6
C	-0.819548	-0.591466	-0.047715	6
C	0.096062	-1.744206	-0.461475	6
C	-0.449368	0.733874	-0.743635	6
C	0.968042	1.251604	-0.467315	6
C	1.217472	1.543454	0.984485	6
C	2.163432	0.943924	1.718325	6
H	-2.951717	-0.155516	-0.033075	1
H	-2.568258	-1.872136	0.150715	1
H	-2.423687	-1.099506	-1.437975	1
H	-0.740968	-0.463216	1.038425	1
H	0.093202	-1.883546	-1.547915	1
H	-0.229858	-2.682956	-0.000015	1
H	1.128032	-1.570066	-0.142785	1
H	-1.169808	1.506464	-0.442895	1
H	-0.563838	0.616284	-1.829255	1
H	1.110343	2.184734	-1.026185	1
H	1.709953	0.548164	-0.861765	1
H	0.587382	2.298534	1.450255	1
H	2.818053	0.187004	1.297715	1
H	2.299423	1.199044	2.765065	1
Es	1.059263	1.891705	-0.842632	99
Es	2.261406	1.108959	2.431115	99
Es	1.472352	0.765941	-0.728316	99
Es	0.784552	2.056760	1.291823	99
Es	0.096059	-1.744199	-0.461472	99
Es	1.217390	1.543507	0.984404	99
Es	2.163513	0.943870	1.718386	99
Es	-2.473357	-1.579698	-0.012958	99
Es	-0.524887	0.647943	-1.489150	99
Es	-2.274342	-0.950472	-0.362985	99
Es	-0.819554	-0.591475	-0.047771	99
Es	-0.765219	-0.499979	0.694238	99
Es	1.089037	1.393428	0.267876	99
Es	2.608425	0.427609	1.436956	99
Es	-1.554888	-0.771777	-0.213880	99
Es	-2.372564	-1.051646	-1.101280	99
Es	-0.132421	-2.375771	-0.151604	99
Es	0.090027	-1.837475	-1.204813	99
Es	1.488524	1.001682	1.447863	99
Es	0.274129	0.987098	-0.582225	99
Es	-0.619330	0.070558	-0.395568	99
Es	-0.943123	1.265736	-0.531102	99
Es	0.968017	1.251611	-0.467270	99
Es	-2.736085	-0.404479	-0.137248	99
Es	-0.353766	-1.170278	-0.263872	99
Es	0.805841	-1.627131	-0.240808	99
Es	1.918117	1.471682	1.275844	99
Es	-0.449329	0.733874	-0.743616	99
49
Properties=species:S:1:pos:R:3:Z:I:1 energy=-273.30492491242967 field_type=dipole dipole="0.000000 0.000000 0.000000" charge=0
C	-2.274348	-0.950476	-0.362985	6
C	-0.819548	-0.591466	-0.047715	6
C	0.096062	-1.744206	-0.461475	6
C	-0.449368	0.733874	-0.743635	6
C	0.968042	1.251604	-0.467315	6
C	1.217472	1.543454	0.984485	6
C	2.163432	0.943924	1.718325	6
H	-2.951717	-0.155516	-0.033075	1
H	-2.568258	-1.872136	0.150715	1
H	-2.423687	-1.099506	-1.437975	1
H	-0.740968	-0.463216	1.038425	1
H	0.093202	-1.883546	-1.547915	1
H	-0.229858	-2.682956	-0.000015	1
H	1.128032	-1.570066	-0.142785	1
H	-1.169808	1.506464	-0.442895	1
H	-0.563838	0.616284	-1.829255	1
H	1.110343	2.184734	-1.026185	1
H	1.709953	0.548164	-0.861765	1
H	0.587382	2.298534	1.450255	1
H	2.818053	0.187004	1.297715	1
H	2.299423	1.199044	2.765065	1
Es	2.607994	0.427632	1.436960	99
Es	0.090158	-1.837493	-1.204191	99
Es	-2.473749	-1.579389	-0.013412	99
Es	-0.132683	-2.374408	-0.152994	99
Es	1.058040	1.892189	-0.843399	99
Es	0.096059	-1.744199	-0.461475	99
Es	0.806351	-1.628573	-0.239705	99
Es	-0.765370	-0.499890	0.693976	99
Es	0.968017	1.251610	-0.467272	99
Es	-0.353947	-1.170271	-0.263926	99
Es	1.918472	1.471959	1.275809	99
Es	1.471991	0.766070	-0.728467	99
Es	-0.449325	0.733877	-0.743615	99
Es	1.217394	1.543507	0.984402	99
Es	0.275604	0.986845	-0.581522	99
Es	2.163511	0.943871	1.718390	99
Es	1.488296	1.001508	1.447881	99
Es	-0.819554	-0.591475	-0.047772	99
Es	-2.372660	-1.051369	-1.101348	99
Es	2.261494	1.108563	2.431215	99
Es	0.785243	2.056343	1.291933	99
Es	-0.619180	0.070180	-0.395269	99
Es	-1.554821	-0.771903	-0.213804	99
Es	-0.524815	0.648008	-1.489014	99
Es	1.088668	1.393647	0.267901	99
Es	-2.735905	-0.404597	-0.137167	99
Es	-0.943149	1.265813	-0.531193	99
Es	-2.274343	-0.950472	-0.362984	99
49
Properties=species:S:1:pos:R:3:Z:I:1 energy=-273.30492491242967 field_type=dipole dipole="0.000000 0.000000 0.000000" charge=0
C	-2.274348	-0.950476	-0.362985	6
C	-0.819548	-0.591466	-0.047715	6
C	0.096062	-1.744206	-0.461475	6
C	-0.449368	0.733874	-0.743635	6
C	0.968042	1.251604	-0.467315	6
C	1.217472	1.543454	0.984485	6
C	2.163432	0.943924	1.718325	6
H	-2.951717	-0.155516	-0.033075	1
H	-2.568258	-1.872136	0.150715	1
H	-2.423687	-1.099506	-1.437975	1
H	-0.740968	-0.463216	1.038425	1
H	0.093202	-1.883546	-1.547915	1
H	-0.229858	-2.682956	-0.000015	1
H	1.128032	-1.570066	-0.142785	1
H	-1.169808	1.506464	-0.442895	1
H	-0.563838	0.616284	-1.829255	1
H	1.110343	2.184734	-1.026185	1
H	1.709953	0.548164	-0.861765	1
H	0.587382	2.298534	1.450255	1
H	2.818053	0.187004	1.297715	1
H	2.299423	1.199044	2.765065	1
Es	0.090331	-1.837973	-1.203459	99
Es	0.096058	-1.744198	-0.461472	99
Es	2.163510	0.943871	1.718390	99
Es	-0.765514	-0.499801	0.693666	99
Es	-0.524730	0.647966	-1.488813	99
Es	-2.274343	-0.950472	-0.362984	99
Es	2.607704	0.427660	1.436974	99
Es	0.785859	2.055980	1.291928	99
Es	0.277050	0.986692	-0.580831	99
Es	1.918723	1.472244	1.275743	99
Es	-1.554820	-0.771944	-0.213882	99
Es	-0.943186	1.265923	-0.531405	99
Es	-0.449328	0.733877	-0.743616	99
Es	1.471671	0.766097	-0.728420	99
Es	-2.735539	-0.404696	-0.137163	99
Es	-0.354138	-1.170055	-0.264316	99
Es	0.968015	1.251610	-0.467270	99
Es	1.088272	1.393784	0.267795	99
Es	-0.132894	-2.372390	-0.154338	99
Es	-0.619033	0.069860	-0.394928	99
Es	1.217388	1.543502	0.984404	99
Es	2.261515	1.108225	2.431262	99
Es	1.056886	1.892658	-0.844207	99
Es	0.806755	-1.630418	-0.238384	99
Es	-2.474123	-1.579139	-0.013537	99
Es	-0.819554	-0.591476	-0.047771	99
Es	-2.372890	-1.051176	-1.101440	99
Es	1.488140	1.001373	1.448013	99
49
Properties=species:S:1:pos:R:3:Z:I:1 energy=-273.30492491242967 field_type=dipole dipole="0.000000 0.000000 0.000000" charge=0
C	-2.274348	-0.950476	-0.362985	6
C	-0.819548	-0.591466	-0.047715	6
C	0.096062	-1.744206	-0.461475	6
C	-0.449368	0.733874	-0.743635	6
C	0.968042	1.251604	-0.467315	6
C	1.217472	1.543454	0.984485	6
C	2.163432	0.943924	1.718325	6
H	-2.951717	-0.155516	-0.033075	1
H	-2.568258	-1.872136	0.150715	1
H	-2.423687	-1.099506	-1.437975	1
H	-0.740968	-0.463216	1.038425	1
H	0.093202	-1.883546	-1.547915	1
H	-0.229858	-2.682956	-0.000015	1
H	1.128032	-1.570066	-0.142785	1
H	-1.169808	1.506464	-0.442895	1
H	-0.563838	0.616284	-1.829255	1
H	1.110343	2.184734	-1.026185	1
H	1.709953	0.548164	-0.861765	1
H	0.587382	2.298534	1.450255	1
H	2.818053	0.187004	1.297715	1
H	2.299423	1.199044	2.765065	1
Es	-0.819554	-0.591476	-0.047771	99
Es	1.087832	1.394224	0.267698	99
Es	1.471400	0.766286	-0.728352	99
Es	-0.133018	-2.370686	-0.155656	99
Es	0.968016	1.251610	-0.467270	99
Es	-0.449328	0.733878	-0.743616	99
Es	-2.735466	-0.404921	-0.137047	99
Es	-0.354308	-1.169928	-0.264666	99
Es	-0.618837	0.069457	-0.394682	99
Es	2.261627	1.107906	2.431352	99
Es	0.096058	-1.744198	-0.461472	99
Es	2.163509	0.943870	1.718389	99
Es	-0.524536	0.647916	-1.488575	99
Es	-2.274343	-0.950472	-0.362984	99
Es	-1.554815	-0.771887	-0.213793	99
Es	-0.943352	1.266047	-0.531626	99
Es	1.487919	1.001120	1.448087	99
Es	2.607368	0.427781	1.436981	99
Es	0.806893	-1.632157	-0.237107	99
Es	-0.765672	-0.499604	0.693313	99
Es	1.055474	1.892972	-0.845105	99
Es	0.786621	2.055473	1.291992	99
Es	1.217390	1.543503	0.984402	99
Es	0.090695	-1.838214	-1.202700	99
Es	0.278547	0.986474	-0.580078	99
Es	-2.474303	-1.578939	-0.013925	99
Es	-2.373007	-1.050917	-1.101500	99
Es	1.918977	1.472468	1.275646	99
49
Properties=species:S:1:pos:R:3:Z:I:1 energy=-273.30492491242967 field_type=dipole dipole="0.000000 0.000000 0.000000" charge=0
C	-2.274348	-0.950476	-0.362985	6
C	-0.819548	-0.591466	-0.047715	6
C	0.096062	-1.744206	-0.461475	6
C	-0.449368	0.733874	-0.743635	6
C	0.968042	1.251604	-0.467315	6
C	1.217472	1.543454	0.984485	6
C	2.163432	0.943924	1.718325	6
H	-2.951717	-0.155516	-0.033075	1
H	-2.568258	-1.872136	0.150715	1
H	-2.423687	-1.099506	-1.437975	1
H	-0.740968	-0.463216	1.038425	1
H	0.093202	-1.883546	-1.547915	1
H	-0.229858	-2.682956	-0.000015	1
H	1.128032	-1.570066	-0.142785	1
H	-1.169808	1.506464	-0.442895	1
H	-0.563838	0.616284	-1.829255	1
H	1.110343	2.184734	-1.026185	1
H	1.709953	0.548164	-0.861765	1
H	0.587382	2.298534	1.450255	1
H	2.818053	0.187004	1.297715	1
H	2.299423	1.199044	2.765065	1
Es	2.163511	0.943873	1.718390	99
Es	1.918616	1.472548	1.275218	99
Es	-0.618763	0.069264	-0.394488	99
Es	-0.133037	-2.369183	-0.156568	99
Es	2.261885	1.107671	2.431470	99
Es	-0.765889	-0.499361	0.692834	99
Es	-0.943574	1.266126	-0.531958	99
Es	-2.373306	-1.050732	-1.101578	99
Es	-0.524375	0.647751	-1.488251	99
Es	0.787393	2.054890	1.292073	99
Es	1.054120	1.893111	-0.845896	99
Es	-0.354283	-1.169779	-0.265068	99
Es	0.807068	-1.633507	-0.236209	99
Es	0.968016	1.251610	-0.467270	99
Es	0.096058	-1.744198	-0.461472	99
Es	0.280029	0.986598	-0.579506	99
Es	-2.735332	-0.405198	-0.136900	99
Es	2.607053	0.427990	1.436913	99
Es	1.087307	1.394686	0.267689	99
Es	1.471096	0.766402	-0.728376	99
Es	-0.819553	-0.591477	-0.047770	99
Es	1.217393	1.543506	0.984402	99
Es	-0.449330	0.733876	-0.743615	99
Es	-1.554717	-0.771988	-0.213728	99
Es	0.090876	-1.838618	-1.201805	99
Es	-2.474357	-1.578740	-0.014131	99
Es	-2.274343	-0.950472	-0.362984	99
Es	1.488227	1.000935	1.448522	99
49
Properties=species:S:1:pos:R:3:Z:I:1 energy=-273.30492491242967 field_type=dipole dipole="0.000000 0.000000 0.000000" charge=0
C	-2.274348	-0.950476	-0.362985	6
C	-0.819548	-0.591466	-0.047715	6
C	0.096062	-1.744206	-0.461475	6
C	-0.449368	0.733874	-0.743635	6
C	0.968042	1.251604	-0.467315	6
C	1.217472	1.543454	0.984485	6
C	2.163432	0.943924	1.718325	6
H	-2.951717	-0.155516	-0.033075	1
H	-2.568258	-1.872136	0.150715	1
H	-2.423687	-1.099506	-1.437975	1
H	-0.740968	-0.463216	1.038425	1
H	0.093202	-1.883546	-1.547915	1
H	-0.229858	-2.682956	-0.000015	1
H	1.128032	-1.570066	-0.142785	1
H	-1.169808	1.506464	-0.442895	1
H	-0.563838	0.616284	-1.829255	1
H	1.110343	2.184734	-1.026185	1
H	1.709953	0.548164	-0.861765	1
H	0.587382	2.298534	1.450255	1
H	2.818053	0.187004	1.297715	1
H	2.299423	1.199044	2.765065	1
Es	-0.355007	-1.169445	-0.266139	99
Es	-0.132963	-2.367507	-0.157804	99
Es	-0.765767	-0.499371	0.692785	99
Es	0.091364	-1.838959	-1.200571	99
Es	-0.618751	0.068987	-0.394413	99
Es	0.968015	1.251610	-0.467269	99
Es	1.086500	1.395413	0.267476	99
Es	1.918940	1.472829	1.275310	99
Es	2.261947	1.107256	2.431642	99
Es	-2.274345	-0.950473	-0.362984	99
Es	-2.734954	-0.405333	-0.136962	99
Es	2.163509	0.943871	1.718392	99
Es	1.488110	1.000901	1.448425	99
Es	-2.474816	-1.578511	-0.014345	99
Es	-0.449329	0.733878	-0.743616	99
Es	-0.943815	1.266415	-0.532435	99
Es	-0.524045	0.647581	-1.487774	99
Es	-1.554740	-0.772003	-0.213582	99
Es	-0.819554	-0.591477	-0.047771	99
Es	1.470940	0.766396	-0.728271	99
Es	1.052673	1.893267	-0.846688	99
Es	2.606673	0.428066	1.436811	99
Es	-2.373427	-1.050435	-1.101656	99
Es	0.096058	-1.744198	-0.461473	99
Es	0.281820	0.986447	-0.578671	99
Es	0.807058	-1.635199	-0.235047	99
Es	1.217391	1.543504	0.984403	99
Es	0.788303	2.054074	1.292162	99
49
Properties=species:S:1:pos:R:3:Z:I:1 energy=-273.30492491242967 field_type=dipole dipole="0.000000 0.000000 0.000000" charge=0
C	-2.274348	-0.950476	-0.362985	6
C	-0.819548	-0.591466	-0.047715	6
C	0.096062	-1.744206	-0.461475	6
C	-0.449368	0.733874	-0.743635	6
C	0.968042	1.251604	-0.467315	6
C	1.217472	1.543454	0.984485	6
C	2.163432	0.943924	1.718325	6
H	-2.951717	-0.155516	-0.033075	1
H	-2.568258	-1.872136	0.150715	1
H	-2.423687	-1.099506	-1.437975	1
H	-0.740968	-0.463216	1.038425	1
H	0.093202	-1.883546	-1.547915	1
H	-0.229858	-2.682956	-0.000015	1
H	1.128032	-1.570066	-0.142785	1
H	-1.169808	1.506464	-0.442895	1
H	-0.563838	0.616284	-1.829255	1
H	1.110343	2.184734	-1.026185	1
H	1.709953	0.548164	-0.861765	1
H	0.587382	2.298534	1.450255	1
H	2.818053	0.187004	1.297715	1
H	2.299423	1.199044	2.765065	1
Es	-2.373760	-1.050103	-1.101743	99
Es	1.470485	0.766699	-0.728379	99
Es	0.283009	0.986614	-0.578160	99
Es	-0.943905	1.266364	-0.532470	99
Es	-0.819553	-0.591476	-0.047774	99
Es	-2.734725	-0.405705	-0.136818	99
Es	1.918645	1.472760	1.275139	99
Es	0.806956	-1.636743	-0.234076	99
Es	1.217391	1.543503	0.984402	99
Es	-0.449329	0.733878	-0.743616	99
Es	-0.618502	0.068678	-0.394021	99
Es	0.968019	1.251614	-0.467274	99
Es	1.051428	1.893334	-0.847312	99
Es	1.086305	1.395822	0.267516	99
Es	2.262208	1.107025	2.431755	99
Es	-0.766227	-0.499143	0.692113	99
Es	-0.524031	0.647596	-1.487675	99
Es	0.091665	-1.839201	-1.199631	99
Es	-2.474915	-1.578442	-0.014523	99
Es	2.606380	0.428225	1.436678	99
Es	1.488180	1.000788	1.448716	99
Es	0.096058	-1.744197	-0.461470	99
Es	-2.274344	-0.950472	-0.362985	99
Es	2.163504	0.943865	1.718391	99
Es	-0.132716	-2.365936	-0.158894	99
Es	-0.354909	-1.169411	-0.266319	99
Es	-1.554698	-0.771880	-0.213748	99
Es	0.789169	2.053529	1.292114	99
