47
Properties=species:S:1:pos:R:3:Z:I:1 energy=-309.14787254008115 field_type=dipole dipole="0.000000 0.000000 0.000000" charge=0
C	-2.645758	-1.135678	-0.820270	6
C	-1.167148	-1.121458	-0.454420	6
C	-0.560268	0.284782	-0.534710	6
O	-1.248268	1.154142	0.356720	8
C	0.914662	0.257071	-0.218220	6
C	1.555982	0.983312	0.712700	6
C	3.027272	0.909371	0.963670	6
H	-3.033188	-2.159188	-0.783880	1
H	-2.802888	-0.749138	-1.832440	1
H	-3.235048	-0.529998	-0.124260	1
H	-0.629488	-1.802888	-1.124720	1
H	-1.065208	-1.517238	0.563930	1
H	-0.688448	0.684142	-1.547030	1
H	-1.147718	0.779191	1.247640	1
H	1.499592	-0.420258	-0.839830	1
H	1.006132	1.692802	1.327720	1
H	3.527522	0.205032	0.291930	1
H	3.213232	0.590262	1.993660	1
H	3.479042	1.895742	0.821810	1
Es	-1.094815	1.418668	0.357656	99
Es	-0.793505	-1.582718	-0.915982	99
Es	-1.248063	1.153858	0.356800	99
Es	-0.560335	0.284891	-0.534528	99
Es	1.307333	-0.210061	-0.646491	99
Es	1.279053	0.852872	0.026988	99
Es	-2.645721	-1.135688	-0.820270	99
Es	-1.167166	-1.121441	-0.454431	99
Es	-0.643063	0.553249	-1.222809	99
Es	3.363073	0.428759	0.504718	99
Es	2.291799	0.939234	0.833035	99
Es	3.145369	0.694913	1.660790	99
Es	0.914602	0.257003	-0.218301	99
Es	-1.905868	-1.119438	-0.640001	99
Es	1.171047	0.369457	0.472387	99
Es	-1.183069	0.934006	0.829360	99
Es	3.324651	1.577896	0.867852	99
Es	1.556052	0.983348	0.712775	99
Es	-0.982157	0.810835	0.038182	99
Es	0.188769	0.271855	-0.364635	99
Es	3.027232	0.909375	0.963669	99
Es	-1.547125	1.135618	0.286385	99
Es	1.190881	1.461118	1.137388	99
Es	-1.092204	-1.382992	0.248632	99
Es	-2.747962	-0.870813	-1.513113	99
Es	-0.854186	-0.424049	-0.493363	99
Es	-2.905747	-1.837398	-0.795674	99
Es	-3.043689	-0.728297	-0.346889	99
47
Properties=species:S:1:pos:R:3:Z:I:1 energy=-309.14787254008115 field_type=dipole dipole="0.000000 0.000000 0.000000" charge=0
C	-2.645758	-1.135678	-0.820270	6
C	-1.167148	-1.121458	-0.454420	6
C	-0.560268	0.284782	-0.534710	6
O	-1.248268	1.154142	0.356720	8
C	0.914662	0.257071	-0.218220	6
C	1.555982	0.983312	0.712700	6
C	3.027272	0.909371	0.963670	6
H	-3.033188	-2.159188	-0.783880	1
H	-2.802888	-0.749138	-1.832440	1
H	-3.235048	-0.529998	-0.124260	1
H	-0.629488	-1.802888	-1.124720	1
H	-1.065208	-1.517238	0.563930	1
H	-0.688448	0.684142	-1.547030	1
H	-1.147718	0.779191	1.247640	1
H	1.499592	-0.420258	-0.839830	1
H	1.006132	1.692802	1.327720	1
H	3.527522	0.205032	0.291930	1
H	3.213232	0.590262	1.993660	1
H	3.479042	1.895742	0.821810	1
Es	-1.097680	1.421102	0.352101	99
Es	1.307043	-0.208961	-0.647308	99
Es	-0.854178	-0.423806	-0.493493	99
Es	1.278954	0.854151	0.025864	99
Es	-0.643107	0.553314	-1.223283	99
Es	3.362851	0.429144	0.504102	99
Es	1.191051	1.459967	1.138469	99
Es	-2.747872	-0.870709	-1.513856	99
Es	-0.986530	0.808223	0.036859	99
Es	1.171343	0.368086	0.473355	99
Es	3.323920	1.577441	0.867610	99
Es	-1.543573	1.132707	0.291099	99
Es	1.556057	0.983353	0.712777	99
Es	-0.793750	-1.582388	-0.916187	99
Es	-1.167166	-1.121440	-0.454431	99
Es	-0.560335	0.284892	-0.534530	99
Es	0.189165	0.271874	-0.365162	99
Es	-1.092292	-1.383345	0.249235	99
Es	0.914598	0.257001	-0.218299	99
Es	-1.179139	0.936942	0.831749	99
Es	3.027231	0.909376	0.963669	99
Es	-2.905752	-1.837247	-0.795152	99
Es	-2.645723	-1.135690	-0.820272	99
Es	-1.905739	-1.119505	-0.639886	99
Es	-1.248123	1.153825	0.356794	99
Es	-3.043383	-0.728425	-0.347060	99
Es	2.291849	0.939420	0.833380	99
Es	3.145465	0.694763	1.661987	99
47
Properties=species:S:1:pos:R:3:Z:I:1 energy=-309.14787254008115 field_type=dipole dipole="0.000000 0.000000 0.000000" charge=0
C	-2.645758	-1.135678	-0.820270	6
C	-1.167148	-1.121458	-0.454420	6
C	-0.560268	0.284782	-0.534710	6
O	-1.248268	1.154142	0.356720	8
C	0.914662	0.257071	-0.218220	6
C	1.555982	0.983312	0.712700	6
C	3.027272	0.909371	0.963670	6
H	-3.033188	-2.159188	-0.783880	1
H	-2.802888	-0.749138	-1.832440	1
H	-3.235048	-0.529998	-0.124260	1
H	-0.629488	-1.802888	-1.124720	1
H	-1.065208	-1.517238	0.563930	1
H	-0.688448	0.684142	-1.547030	1
H	-1.147718	0.779191	1.247640	1
H	1.499592	-0.420258	-0.839830	1
H	1.006132	1.692802	1.327720	1
H	3.527522	0.205032	0.291930	1
H	3.213232	0.590262	1.993660	1
H	3.479042	1.895742	0.821810	1
Es	-3.043320	-0.728649	-0.347299	99
Es	3.145677	0.695146	1.662815	99
Es	-0.560337	0.284893	-0.534529	99
Es	-2.905599	-1.837411	-0.794897	99
Es	1.191187	1.459451	1.139038	99
Es	1.556057	0.983350	0.712781	99
Es	-1.092319	-1.383493	0.249439	99
Es	1.306887	-0.208348	-0.647581	99
Es	-2.747986	-0.870683	-1.514051	99
Es	1.279032	0.854967	0.025091	99
Es	0.914602	0.257000	-0.218297	99
Es	-1.174653	0.940662	0.833968	99
Es	-2.645726	-1.135688	-0.820269	99
Es	-1.905698	-1.119281	-0.640016	99
Es	-1.541098	1.135504	0.296328	99
Es	3.027231	0.909375	0.963669	99
Es	-0.793848	-1.582141	-0.916031	99
Es	-0.994047	0.804008	0.034726	99
Es	3.323336	1.576975	0.867138	99
Es	0.189507	0.271633	-0.365532	99
Es	-0.643213	0.553244	-1.223329	99
Es	3.362680	0.429112	0.503806	99
Es	2.291731	0.939592	0.833687	99
Es	-1.096987	1.418690	0.346970	99
Es	-1.248105	1.153854	0.356765	99
Es	-0.854194	-0.423534	-0.493733	99
Es	1.171555	0.367272	0.473905	99
Es	-1.167166	-1.121440	-0.454432	99
47
Properties=species:S:1:pos:R:3:Z:I:1 energy=-309.14787254008115 field_type=dipole dipole="0.000000 0.000000 0.000000" charge=0
C	-2.645758	-1.135678	-0.820270	6
C	-1.167148	-1.121458	-0.454420	6
C	-0.560268	0.284782	-0.534710	6
O	-1.248268	1.154142	0.356720	8
C	0.914662	0.257071	-0.218220	6
C	1.555982	0.983312	0.712700	6
C	3.027272	0.909371	0.963670	6
H	-3.033188	-2.159188	-0.783880	1
H	-2.802888	-0.749138	-1.832440	1
H	-3.235048	-0.529998	-0.124260	1
H	-0.629488	-1.802888	-1.124720	1
H	-1.065208	-1.517238	0.563930	1
H	-0.688448	0.684142	-1.547030	1
H	-1.147718	0.779191	1.247640	1
H	1.499592	-0.420258	-0.839830	1
H	1.006132	1.692802	1.327720	1
H	3.527522	0.205032	0.291930	1
H	3.213232	0.590262	1.993660	1
H	3.479042	1.895742	0.821810	1
Es	2.291656	0.939797	0.833933	99
Es	1.556057	0.983351	0.712781	99
Es	3.027228	0.909376	0.963669	99
Es	1.171735	0.366826	0.474189	99
Es	3.145831	0.695394	1.663308	99
Es	0.914603	0.257005	-0.218305	99
Es	-3.043233	-0.728917	-0.347661	99
Es	-0.854470	-0.423534	-0.494131	99
Es	-1.170730	0.944317	0.835747	99
Es	3.323062	1.576601	0.866854	99
Es	-1.092295	-1.383506	0.249530	99
Es	3.362459	0.429086	0.503618	99
Es	-1.248134	1.153847	0.356793	99
Es	-2.748113	-0.870605	-1.514111	99
Es	-1.000222	0.800805	0.031663	99
Es	-1.167166	-1.121440	-0.454432	99
Es	-1.905587	-1.119326	-0.640074	99
Es	-0.560334	0.284890	-0.534530	99
Es	-0.793768	-1.581888	-0.915767	99
Es	-0.643205	0.553303	-1.223011	99
Es	1.278984	0.855697	0.024512	99
Es	-1.536887	1.136724	0.301435	99
Es	-2.905755	-1.837356	-0.794782	99
Es	0.189855	0.271341	-0.365687	99
Es	1.306785	-0.207935	-0.647724	99
Es	1.191322	1.458987	1.139422	99
Es	-2.645721	-1.135689	-0.820270	99
Es	-1.098771	1.416912	0.343162	99
47
Properties=species:S:1:pos:R:3:Z:I:1 energy=-309.14787254008115 field_type=dipole dipole="0.000000 0.000000 0.000000" charge=0
C	-2.645758	-1.135678	-0.820270	6
C	-1.167148	-1.121458	-0.454420	6
C	-0.560268	0.284782	-0.534710	6
O	-1.248268	1.154142	0.356720	8
C	0.914662	0.257071	-0.218220	6
C	1.555982	0.983312	0.712700	6
C	3.027272	0.909371	0.963670	6
H	-3.033188	-2.159188	-0.783880	1
H	-2.802888	-0.749138	-1.832440	1
H	-3.235048	-0.529998	-0.124260	1
H	-0.629488	-1.802888	-1.124720	1
H	-1.065208	-1.517238	0.563930	1
H	-0.688448	0.684142	-1.547030	1
H	-1.147718	0.779191	1.247640	1
H	1.499592	-0.420258	-0.839830	1
H	1.006132	1.692802	1.327720	1
H	3.527522	0.205032	0.291930	1
H	3.213232	0.590262	1.993660	1
H	3.479042	1.895742	0.821810	1
Es	-2.748244	-0.870688	-1.514075	99
Es	3.146142	0.695686	1.663692	99
Es	-1.905283	-1.118988	-0.639834	99
Es	-1.167167	-1.121441	-0.454431	99
Es	-1.008058	0.797736	0.028091	99
Es	-1.092389	-1.383620	0.249426	99
Es	3.322652	1.576195	0.866653	99
Es	-2.905854	-1.837397	-0.794627	99
Es	-1.102152	1.414886	0.338859	99
Es	1.191375	1.458762	1.139583	99
Es	-1.247995	1.153872	0.356844	99
Es	2.291548	0.939971	0.834005	99
Es	-0.560334	0.284889	-0.534530	99
Es	-0.854650	-0.423467	-0.494314	99
Es	-0.793726	-1.581748	-0.915631	99
Es	3.027231	0.909376	0.963669	99
Es	-1.531031	1.137095	0.307497	99
Es	-0.643219	0.553323	-1.222617	99
Es	3.362449	0.429203	0.503448	99
Es	1.306808	-0.207407	-0.647667	99
Es	1.556056	0.983346	0.712784	99
Es	0.914601	0.257004	-0.218304	99
Es	-1.165394	0.948907	0.837506	99
Es	1.171888	0.366358	0.474434	99
Es	-3.043308	-0.729235	-0.348316	99
Es	1.278918	0.855997	0.024337	99
Es	0.190042	0.271136	-0.366081	99
Es	-2.645721	-1.135690	-0.820271	99
47
Properties=species:S:1:pos:R:3:Z:I:1 energy=-309.14787254008115 field_type=dipole dipole="0.000000 0.000000 0.000000" charge=0
C	-2.645758	-1.135678	-0.820270	6
C	-1.167148	-1.121458	-0.454420	6
C	-0.560268	0.284782	-0.534710	6
O	-1.248268	1.154142	0.356720	8
C	0.914662	0.257071	-0.218220	6
C	1.555982	0.983312	0.712700	6
C	3.027272	0.909371	0.963670	6
H	-3.033188	-2.159188	-0.783880	1
H	-2.802888	-0.749138	-1.832440	1
H	-3.235048	-0.529998	-0.124260	1
H	-0.629488	-1.802888	-1.124720	1
H	-1.065208	-1.517238	0.563930	1
H	-0.688448	0.684142	-1.547030	1
H	-1.147718	0.779191	1.247640	1
H	1.499592	-0.420258	-0.839830	1
H	1.006132	1.692802	1.327720	1
H	3.527522	0.205032	0.291930	1
H	3.213232	0.590262	1.993660	1
H	3.479042	1.895742	0.821810	1
Es	1.278739	0.856353	0.024206	99
Es	1.306955	-0.207070	-0.647507	99
Es	-1.017833	0.794418	0.025099	99
Es	-0.560337	0.284893	-0.534526	99
Es	-0.854765	-0.423488	-0.494706	99
Es	-1.524506	1.140421	0.312087	99
Es	-1.161362	0.953497	0.839216	99
Es	1.191358	1.458404	1.139613	99
Es	-1.092380	-1.383684	0.249191	99
Es	-3.043507	-0.729548	-0.348829	99
Es	3.027233	0.909376	0.963669	99
Es	-2.748154	-0.870634	-1.513873	99
Es	-1.167167	-1.121440	-0.454431	99
Es	1.556056	0.983346	0.712785	99
Es	3.322247	1.575795	0.866365	99
Es	1.172045	0.366146	0.474481	99
Es	-1.905316	-1.118794	-0.639613	99
Es	-2.645726	-1.135687	-0.820274	99
Es	2.291612	0.940299	0.834276	99
Es	-1.248037	1.153841	0.356827	99
Es	0.190091	0.270760	-0.366287	99
Es	-2.905949	-1.837496	-0.794802	99
Es	0.914600	0.257001	-0.218305	99
Es	-1.102839	1.410222	0.335563	99
Es	3.362390	0.429146	0.503264	99
Es	-0.643017	0.553445	-1.222114	99
Es	-0.793714	-1.581580	-0.915277	99
Es	3.146469	0.696119	1.664032	99
47
Properties=species:S:1:pos:R:3:Z:I:1 energy=-309.14787254008115 field_type=dipole dipole="0.000000 0.000000 0.000000" charge=0
C	-2.645758	-1.135678	-0.820270	6
C	-1.167148	-1.121458	-0.454420	6
C	-0.560268	0.284782	-0.534710	6
O	-1.248268	1.154142	0.356720	8
C	0.914662	0.257071	-0.218220	6
C	1.555982	0.983312	0.712700	6
C	3.027272	0.909371	0.963670	6
H	-3.033188	-2.159188	-0.783880	1
H	-2.802888	-0.749138	-1.832440	1
H	-3.235048	-0.529998	-0.124260	1
H	-0.629488	-1.802888	-1.124720	1
H	-1.065208	-1.517238	0.563930	1
H	-0.688448	0.684142	-1.547030	1
H	-1.147718	0.779191	1.247640	1
H	1.499592	-0.420258	-0.839830	1
H	1.006132	1.692802	1.327720	1
H	3.527522	0.205032	0.291930	1
H	3.213232	0.590262	1.993660	1
H	3.479042	1.895742	0.821810	1
Es	3.362236	0.429119	0.503213	99
Es	3.027232	0.909376	0.963670	99
Es	3.146637	0.696265	1.664124	99
Es	-1.248079	1.153874	0.356821	99
Es	-1.516418	1.143952	0.315607	99
Es	-1.167168	-1.121440	-0.454432	99
Es	2.291583	0.940597	0.834297	99
Es	-1.092362	-1.383636	0.248903	99
Es	1.556064	0.983349	0.712782	99
Es	-0.560334	0.284890	-0.534530	99
Es	-2.906035	-1.837491	-0.794764	99
Es	-1.028495	0.791837	0.022288	99
Es	-1.103440	1.404595	0.333086	99
Es	1.278607	0.856473	0.024198	99
Es	1.306936	-0.206753	-0.647465	99
Es	0.914601	0.257004	-0.218305	99
Es	-0.793584	-1.581463	-0.914951	99
Es	0.190247	0.270639	-0.366457	99
Es	-2.645722	-1.135690	-0.820272	99
Es	3.322260	1.575521	0.866277	99
Es	-0.643025	0.553380	-1.221585	99
Es	-0.854873	-0.423468	-0.494946	99
Es	-3.043692	-0.729670	-0.349370	99
Es	-1.905324	-1.118661	-0.639456	99
Es	1.172268	0.365987	0.474475	99
Es	1.191358	1.458242	1.139695	99
Es	-1.158138	0.958083	0.840970	99
Es	-2.748154	-0.870851	-1.513742	99
47
Properties=species:S:1:pos:R:3:Z:I:1 energy=-309.14787254008115 field_type=dipole dipole="0.000000 0.000000 0.000000" charge=0
C	-2.645758	-1.135678	-0.820270	6
C	-1.167148	-1.121458	-0.454420	6
C	-0.560268	0.284782	-0.534710	6
O	-1.248268	1.154142	0.356720	8
C	0.914662	0.257071	-0.218220	6
C	1.555982	0.983312	0.712700	6
C	3.027272	0.909371	0.963670	6
H	-3.033188	-2.159188	-0.783880	1
H	-2.802888	-0.749138	-1.832440	1
H	-3.235048	-0.529998	-0.124260	1
H	-0.629488	-1.802888	-1.124720	1
H	-1.065208	-1.517238	0.563930	1
H	-0.688448	0.684142	-1.547030	1
H	-1.147718	0.779191	1.247640	1
H	1.499592	-0.420258	-0.839830	1
H	1.006132	1.692802	1.327720	1
H	3.527522	0.205032	0.291930	1
H	3.213232	0.590262	1.993660	1
H	3.479042	1.895742	0.821810	1
Es	2.291628	0.940817	0.834431	99
Es	3.321837	1.575094	0.866115	99
Es	0.914599	0.257004	-0.218304	99
Es	-1.167167	-1.121441	-0.454431	99
Es	-1.154438	0.961822	0.841595	99
Es	-2.645722	-1.135690	-0.820273	99
Es	-0.560336	0.284891	-0.534530	99
Es	1.172499	0.365933	0.474362	99
Es	3.027230	0.909377	0.963669	99
Es	-1.905144	-1.118503	-0.639242	99
Es	-1.248126	1.153774	0.356815	99
Es	-0.793432	-1.581366	-0.914624	99
Es	1.556058	0.983349	0.712783	99
Es	3.146946	0.696795	1.664310	99
Es	-0.642914	0.553374	-1.221047	99
Es	-0.855090	-0.423469	-0.495331	99
Es	1.191240	1.457974	1.139709	99
Es	-1.107189	1.402231	0.331707	99
Es	-1.092387	-1.383535	0.248740	99
Es	1.307071	-0.206400	-0.647274	99
Es	3.362415	0.429043	0.503085	99
Es	-1.037881	0.791099	0.018818	99
Es	1.278409	0.856567	0.024277	99
Es	0.190329	0.270388	-0.366630	99
Es	-1.507003	1.143318	0.319749	99
Es	-2.748148	-0.870888	-1.513419	99
Es	-2.906248	-1.837539	-0.794927	99
Es	-3.043851	-0.729960	-0.350002	99
47
Properties=species:S:1:pos:R:3:Z:I:1 energy=-309.14787254008115 field_type=dipole dipole="0.000000 0.000000 0.000000" charge=0
C	-2.645758	-1.135678	-0.820270	6
C	-1.167148	-1.121458	-0.454420	6
C	-0.560268	0.284782	-0.534710	6
O	-1.248268	1.154142	0.356720	8
C	0.914662	0.257071	-0.218220	6
C	1.555982	0.983312	0.712700	6
C	3.027272	0.909371	0.963670	6
H	-3.033188	-2.159188	-0.783880	1
H	-2.802888	-0.749138	-1.832440	1
H	-3.235048	-0.529998	-0.124260	1
H	-0.629488	-1.802888	-1.124720	1
H	-1.065208	-1.517238	0.563930	1
H	-0.688448	0.684142	-1.547030	1
H	-1.147718	0.779191	1.247640	1
H	1.499592	-0.420258	-0.839830	1
H	1.006132	1.692802	1.327720	1
H	3.527522	0.205032	0.291930	1
H	3.213232	0.590262	1.993660	1
H	3.479042	1.895742	0.821810	1
Es	-1.499820	1.142243	0.322027	99
Es	-0.855274	-0.423443	-0.495609	99
Es	-1.112885	1.395995	0.329205	99
Es	0.190323	0.270175	-0.366807	99
Es	3.362319	0.429095	0.503107	99
Es	1.556059	0.983349	0.712782	99
Es	-0.642716	0.553489	-1.220488	99
Es	-3.043842	-0.730231	-0.350296	99
Es	2.291615	0.940923	0.834446	99
Es	1.307071	-0.206214	-0.647161	99
Es	-0.560334	0.284890	-0.534531	99
Es	3.321824	1.575176	0.866042	99
Es	1.191274	1.457940	1.139651	99
Es	-1.149328	0.969827	0.843274	99
Es	-1.167167	-1.121440	-0.454432	99
Es	-1.092477	-1.383619	0.248447	99
Es	1.172616	0.365698	0.474432	99
Es	-1.044401	0.790342	0.017426	99
Es	3.147028	0.696789	1.664285	99
Es	-0.793367	-1.581225	-0.914315	99
Es	-2.748180	-0.870686	-1.513030	99
Es	1.278355	0.856680	0.024261	99
Es	-2.645720	-1.135690	-0.820271	99
Es	3.027231	0.909379	0.963671	99
Es	-1.248105	1.153804	0.356811	99
Es	-1.905099	-1.118420	-0.639297	99
Es	0.914600	0.257002	-0.218303	99
Es	-2.906413	-1.837766	-0.795196	99
47
Properties=species:S:1:pos:R:3:Z:I:1 energy=-309.14787254008115 field_type=dipole dipole="0.000000 0.000000 0.000000" charge=0
C	-2.645758	-1.135678	-0.820270	6
C	-1.167148	-1.121458	-0.454420	6
C	-0.560268	0.284782	-0.534710	6
O	-1.248268	1.154142	0.356720	8
C	0.914662	0.257071	-0.218220	6
C	1.555982	0.983312	0.712700	6
C	3.027272	0.909371	0.963670	6
H	-3.033188	-2.159188	-0.783880	1
H	-2.802888	-0.749138	-1.832440	1
H	-3.235048	-0.529998	-0.124260	1
H	-0.629488	-1.802888	-1.124720	1
H	-1.065208	-1.517238	0.563930	1
H	-0.688448	0.684142	-1.547030	1
H	-1.147718	0.779191	1.247640	1
H	1.499592	-0.420258	-0.839830	1
H	1.006132	1.692802	1.327720	1
H	3.527522	0.205032	0.291930	1
H	3.213232	0.590262	1.993660	1
H	3.479042	1.895742	0.821810	1
Es	-1.147011	0.974021	0.844017	99
Es	1.191188	1.457770	1.139684	99
Es	2.291697	0.941238	0.834580	99
Es	0.190455	0.270115	-0.366957	99
Es	-1.905118	-1.118318	-0.639072	99
Es	-1.113586	1.390360	0.328564	99
Es	-2.748046	-0.870862	-1.512913	99
Es	-1.167167	-1.121440	-0.454431	99
Es	-2.906520	-1.837764	-0.795217	99
Es	-0.793318	-1.581153	-0.914248	99
Es	3.146997	0.696950	1.664222	99
Es	-2.645721	-1.135690	-0.820272	99
Es	1.278196	0.856733	0.024272	99
Es	1.307175	-0.206042	-0.647065	99
Es	-0.855416	-0.423488	-0.495778	99
Es	1.172788	0.365771	0.474311	99
Es	1.556061	0.983350	0.712783	99
Es	3.321760	1.575011	0.866189	99
Es	-0.560334	0.284890	-0.534530	99
Es	-3.043977	-0.730221	-0.350662	99
Es	-1.492103	1.143930	0.323301	99
Es	-1.092509	-1.383711	0.248144	99
Es	0.914600	0.257004	-0.218305	99
Es	3.362388	0.428934	0.502893	99
Es	-1.053690	0.789813	0.016051	99
Es	-1.248177	1.153981	0.356777	99
Es	3.027232	0.909376	0.963670	99
Es	-0.642658	0.553502	-1.219879	99
47
Properties=species:S:1:pos:R:3:Z:I:1 energy=-309.14787254008115 field_type=dipole dipole="0.000000 0.000000 0.000000" charge=0
C	-2.645758	-1.135678	-0.820270	6
C	-1.167148	-1.121458	-0.454420	6
C	-0.560268	0.284782	-0.534710	6
O	-1.248268	1.154142	0.356720	8
C	0.914662	0.257071	-0.218220	6
C	1.555982	0.983312	0.712700	6
C	3.027272	0.909371	0.963670	6
H	-3.033188	-2.159188	-0.783880	1
H	-2.802888	-0.749138	-1.832440	1
H	-3.235048	-0.529998	-0.124260	1
H	-0.629488	-1.802888	-1.124720	1
H	-1.065208	-1.517238	0.563930	1
H	-0.688448	0.684142	-1.547030	1
H	-1.147718	0.779191	1.247640	1
H	1.499592	-0.420258	-0.839830	1
H	1.006132	1.692802	1.327720	1
H	3.527522	0.205032	0.291930	1
H	3.213232	0.590262	1.993660	1
H	3.479042	1.895742	0.821810	1
Es	-1.905079	-1.118266	-0.639142	99
Es	-2.748069	-0.870739	-1.512603	99
Es	0.914601	0.257003	-0.218304	99
Es	3.362219	0.428918	0.502839	99
Es	-1.114780	1.385105	0.327736	99
Es	-0.855513	-0.423497	-0.496130	99
Es	1.278081	0.856789	0.024281	99
Es	-1.146082	0.978914	0.845145	99
Es	-1.485871	1.145133	0.323150	99
Es	3.321562	1.574729	0.865880	99
Es	3.027232	0.909377	0.963669	99
Es	1.172920	0.365733	0.474291	99
Es	-0.560334	0.284890	-0.534530	99
Es	-3.043981	-0.730312	-0.350711	99
Es	-2.645721	-1.135690	-0.820272	99
Es	0.190471	0.270031	-0.366901	99
Es	-1.059756	0.789050	0.015842	99
Es	1.307168	-0.205958	-0.647062	99
Es	-0.793332	-1.581190	-0.914097	99
Es	-0.642451	0.553539	-1.219434	99
Es	1.556059	0.983350	0.712783	99
Es	3.147390	0.697256	1.664398	99
Es	1.191055	1.457544	1.139495	99
Es	-1.167167	-1.121440	-0.454432	99
Es	-1.092552	-1.383680	0.247967	99
Es	2.291813	0.941536	0.834905	99
Es	-1.248094	1.153858	0.356811	99
Es	-2.906601	-1.837922	-0.795445	99
47
Properties=species:S:1:pos:R:3:Z:I:1 energy=-309.14787254008115 field_type=dipole dipole="0.000000 0.000000 0.000000" charge=0
C	-2.645758	-1.135678	-0.820270	6
C	-1.167148	-1.121458	-0.454420	6
C	-0.560268	0.284782	-0.534710	6
O	-1.248268	1.154142	0.356720	8
C	0.914662	0.257071	-0.218220	6
C	1.555982	0.983312	0.712700	6
C	3.027272	0.909371	0.963670	6
H	-3.033188	-2.159188	-0.783880	1
H	-2.802888	-0.749138	-1.832440	1
H	-3.235048	-0.529998	-0.124260	1
H	-0.629488	-1.802888	-1.124720	1
H	-1.065208	-1.517238	0.563930	1
H	-0.688448	0.684142	-1.547030	1
H	-1.147718	0.779191	1.247640	1
H	1.499592	-0.420258	-0.839830	1
H	1.006132	1.692802	1.327720	1
H	3.527522	0.205032	0.291930	1
H	3.213232	0.590262	1.993660	1
H	3.479042	1.895742	0.821810	1
Es	3.027233	0.909376	0.963670	99
Es	-2.906617	-1.837989	-0.795621	99
Es	0.914599	0.257004	-0.218305	99
Es	-1.066230	0.789451	0.015002	99
Es	-3.044126	-0.730495	-0.350980	99
Es	3.362433	0.429074	0.503002	99
Es	1.556058	0.983351	0.712782	99
Es	-1.118660	1.379879	0.327242	99
Es	3.321851	1.575184	0.866297	99
Es	1.173067	0.365663	0.474256	99
Es	-2.645722	-1.135689	-0.820271	99
Es	-0.642447	0.553493	-1.219237	99
Es	3.147003	0.696850	1.664005	99
Es	1.277923	0.856835	0.024333	99
Es	-0.560338	0.284892	-0.534527	99
Es	-1.479463	1.143955	0.324620	99
Es	-0.793210	-1.581143	-0.913962	99
Es	1.191093	1.457499	1.139708	99
Es	-1.142071	0.984927	0.845105	99
Es	-1.248104	1.153895	0.356817	99
Es	-2.747999	-0.870725	-1.512423	99
Es	2.291633	0.941384	0.834503	99
Es	-1.167167	-1.121440	-0.454431	99
Es	-1.905005	-1.118119	-0.639050	99
Es	-0.855565	-0.423543	-0.496112	99
Es	1.307246	-0.205755	-0.647017	99
Es	0.190432	0.269908	-0.367171	99
Es	-1.092661	-1.383662	0.247897	99
