42
Properties=species:S:1:pos:R:3:Z:I:1 energy=-343.8415323270618 field_type=dipole dipole="0.000000 0.000000 0.000000" charge=0
C	-1.813004	-0.675696	0.176943	6
C	-0.359124	-0.954546	0.416823	6
C	0.124886	-2.172856	0.686823	6
O	0.508826	0.156724	0.483723	8
C	0.598966	0.931244	-0.645167	6
C	1.535576	2.072764	-0.380187	6
O	0.029106	0.752584	-1.712837	8
H	-2.131384	0.201974	0.748783	1
H	-2.439484	-1.517136	0.492153	1
H	-2.011884	-0.494106	-0.882767	1
H	-0.515314	-3.048726	0.692103	1
H	1.178036	-2.319966	0.902383	1
H	2.516586	1.688464	-0.089307	1
H	1.125076	2.714594	0.403203	1
H	1.653136	2.664684	-1.292667	1
Es	-0.167436	-1.537212	0.877970	99
Es	-1.937563	-0.558406	-0.521298	99
Es	0.029076	0.950614	-1.262348	99
Es	0.029252	0.752615	-1.712532	99
Es	0.124910	-2.172924	0.686834	99
Es	0.501337	0.413755	0.038436	99
Es	-2.222553	-1.250875	0.394309	99
Es	2.179716	1.805067	-0.182985	99
Es	1.253206	2.486074	0.143673	99
Es	0.178893	-0.250726	0.416951	99
Es	0.508637	0.156659	0.483443	99
Es	0.106593	0.972004	-1.907175	99
Es	-0.054754	-1.634175	0.228271	99
Es	-0.359018	-0.954177	0.416789	99
Es	0.391295	0.345438	0.654523	99
Es	-1.812934	-0.675711	0.176979	99
Es	0.416493	0.668473	-1.424949	99
Es	1.535531	2.072704	-0.380184	99
Es	1.612227	2.467428	-0.990724	99
Es	0.789116	0.077640	0.499494	99
Es	-0.308341	-2.760882	0.692904	99
Es	-0.154337	0.501404	-1.710639	99
Es	1.067709	1.497633	-0.505503	99
Es	0.834068	-2.276542	0.830617	99
Es	-2.014312	-0.083091	0.566063	99
Es	0.598932	0.931080	-0.644935	99
Es	-1.073787	-0.802971	0.289649	99
42
Properties=species:S:1:pos:R:3:Z:I:1 energy=-343.8415323270618 field_type=dipole dipole="0.000000 0.000000 0.000000" charge=0
C	-1.813004	-0.675696	0.176943	6
C	-0.359124	-0.954546	0.416823	6
C	0.124886	-2.172856	0.686823	6
O	0.508826	0.156724	0.483723	8
C	0.598966	0.931244	-0.645167	6
C	1.535576	2.072764	-0.380187	6
O	0.029106	0.752584	-1.712837	8
H	-2.131384	0.201974	0.748783	1
H	-2.439484	-1.517136	0.492153	1
H	-2.011884	-0.494106	-0.882767	1
H	-0.515314	-3.048726	0.692103	1
H	1.178036	-2.319966	0.902383	1
H	2.516586	1.688464	-0.089307	1
H	1.125076	2.714594	0.403203	1
H	1.653136	2.664684	-1.292667	1
Es	-0.307429	-2.760322	0.693677	99
Es	1.535529	2.072704	-0.380182	99
Es	-0.359019	-0.954177	0.416797	99
Es	1.067446	1.498668	-0.504618	99
Es	-2.220960	-1.249848	0.394924	99
Es	0.029247	0.752623	-1.712556	99
Es	0.499759	0.419250	0.037222	99
Es	0.124911	-2.172927	0.686828	99
Es	-0.169348	-1.537992	0.879229	99
Es	-0.052907	-1.633888	0.225737	99
Es	0.186354	-0.254076	0.413975	99
Es	0.598936	0.931078	-0.644935	99
Es	-2.014004	-0.083876	0.567170	99
Es	0.508664	0.156573	0.483338	99
Es	0.416820	0.667654	-1.424564	99
Es	1.253272	2.484451	0.143336	99
Es	0.794007	0.084733	0.519211	99
Es	-1.073965	-0.803322	0.287563	99
Es	0.832681	-2.276323	0.834165	99
Es	0.380621	0.335890	0.638900	99
Es	2.179683	1.804476	-0.182244	99
Es	-1.812933	-0.675710	0.176978	99
Es	0.099769	0.976686	-1.916261	99
Es	-0.146415	0.504469	-1.703057	99
Es	-1.938194	-0.558491	-0.523782	99
Es	1.611797	2.468780	-0.991854	99
Es	0.027637	0.943812	-1.261367	99
42
Properties=species:S:1:pos:R:3:Z:I:1 energy=-343.8415323270618 field_type=dipole dipole="0.000000 0.000000 0.000000" charge=0
C	-1.813004	-0.675696	0.176943	6
C	-0.359124	-0.954546	0.416823	6
C	0.124886	-2.172856	0.686823	6
O	0.508826	0.156724	0.483723	8
C	0.598966	0.931244	-0.645167	6
C	1.535576	2.072764	-0.380187	6
O	0.029106	0.752584	-1.712837	8
H	-2.131384	0.201974	0.748783	1
H	-2.439484	-1.517136	0.492153	1
H	-2.011884	-0.494106	-0.882767	1
H	-0.515314	-3.048726	0.692103	1
H	1.178036	-2.319966	0.902383	1
H	2.516586	1.688464	-0.089307	1
H	1.125076	2.714594	0.403203	1
H	1.653136	2.664684	-1.292667	1
Es	1.067240	1.499293	-0.504015	99
Es	-2.013838	-0.083664	0.568329	99
Es	0.029223	0.752618	-1.712588	99
Es	0.831570	-2.276411	0.835760	99
Es	-2.219823	-1.249134	0.394871	99
Es	-0.051414	-1.633790	0.224432	99
Es	1.535530	2.072704	-0.380183	99
Es	-0.359019	-0.954175	0.416802	99
Es	1.253261	2.484046	0.143711	99
Es	-1.074504	-0.803864	0.286342	99
Es	2.179432	1.804326	-0.182404	99
Es	-1.938234	-0.558937	-0.525019	99
Es	-0.170462	-1.538138	0.880323	99
Es	0.503194	0.420596	0.035496	99
Es	0.124909	-2.172922	0.686837	99
Es	0.364942	0.325508	0.607824	99
Es	0.196150	-0.259066	0.409836	99
Es	-1.812935	-0.675711	0.176977	99
Es	0.027423	0.942290	-1.262776	99
Es	0.796455	0.098437	0.556048	99
Es	0.508659	0.156665	0.483512	99
Es	-0.306990	-2.760072	0.693442	99
Es	-0.139529	0.505598	-1.693170	99
Es	0.091883	0.974927	-1.925422	99
Es	0.598936	0.931074	-0.644931	99
Es	0.418384	0.669595	-1.424040	99
Es	1.611512	2.469106	-0.992361	99
42
Properties=species:S:1:pos:R:3:Z:I:1 energy=-343.8415323270618 field_type=dipole dipole="0.000000 0.000000 0.000000" charge=0
C	-1.813004	-0.675696	0.176943	6
C	-0.359124	-0.954546	0.416823	6
C	0.124886	-2.172856	0.686823	6
O	0.508826	0.156724	0.483723	8
C	0.598966	0.931244	-0.645167	6
C	1.535576	2.072764	-0.380187	6
O	0.029106	0.752584	-1.712837	8
H	-2.131384	0.201974	0.748783	1
H	-2.439484	-1.517136	0.492153	1
H	-2.011884	-0.494106	-0.882767	1
H	-0.515314	-3.048726	0.692103	1
H	1.178036	-2.319966	0.902383	1
H	2.516586	1.688464	-0.089307	1
H	1.125076	2.714594	0.403203	1
H	1.653136	2.664684	-1.292667	1
Es	-0.136793	0.508573	-1.692335	99
Es	0.830897	-2.276204	0.835980	99
Es	-1.938133	-0.559575	-0.525560	99
Es	-0.171139	-1.538100	0.881550	99
Es	1.067144	1.499997	-0.503683	99
Es	0.508669	0.156558	0.483331	99
Es	0.418796	0.667656	-1.425245	99
Es	1.252919	2.484021	0.144052	99
Es	-2.014018	-0.083211	0.569079	99
Es	1.535531	2.072705	-0.380184	99
Es	0.793875	0.113876	0.591586	99
Es	0.026713	0.940259	-1.260961	99
Es	0.503029	0.425688	0.036287	99
Es	-0.306247	-2.760222	0.693123	99
Es	0.089837	0.975666	-1.927111	99
Es	0.358315	0.308847	0.576138	99
Es	0.029259	0.752601	-1.712511	99
Es	1.611407	2.469031	-0.992711	99
Es	2.179274	1.804088	-0.182485	99
Es	-2.218940	-1.248650	0.394676	99
Es	0.205423	-0.262973	0.405359	99
Es	0.124905	-2.172922	0.686856	99
Es	-1.812936	-0.675711	0.176978	99
Es	-0.050904	-1.633961	0.223390	99
Es	0.598938	0.931075	-0.644933	99
Es	-1.074848	-0.804033	0.286175	99
Es	-0.359020	-0.954184	0.416790	99
42
Properties=species:S:1:pos:R:3:Z:I:1 energy=-343.8415323270618 field_type=dipole dipole="0.000000 0.000000 0.000000" charge=0
C	-1.813004	-0.675696	0.176943	6
C	-0.359124	-0.954546	0.416823	6
C	0.124886	-2.172856	0.686823	6
O	0.508826	0.156724	0.483723	8
C	0.598966	0.931244	-0.645167	6
C	1.535576	2.072764	-0.380187	6
O	0.029106	0.752584	-1.712837	8
H	-2.131384	0.201974	0.748783	1
H	-2.439484	-1.517136	0.492153	1
H	-2.011884	-0.494106	-0.882767	1
H	-0.515314	-3.048726	0.692103	1
H	1.178036	-2.319966	0.902383	1
H	2.516586	1.688464	-0.089307	1
H	1.125076	2.714594	0.403203	1
H	1.653136	2.664684	-1.292667	1
Es	0.499092	0.432517	0.038829	99
Es	0.213110	-0.265515	0.401885	99
Es	1.252897	2.484073	0.144427	99
Es	-0.050315	-1.634028	0.223063	99
Es	0.085518	0.976200	-1.929754	99
Es	-0.359020	-0.954180	0.416788	99
Es	0.598934	0.931079	-0.644932	99
Es	2.179261	1.803663	-0.182819	99
Es	-2.014165	-0.082688	0.569621	99
Es	-0.132988	0.510744	-1.689571	99
Es	0.124910	-2.172927	0.686839	99
Es	-0.171405	-1.537911	0.882243	99
Es	0.026108	0.937720	-1.260776	99
Es	0.029298	0.752684	-1.712516	99
Es	-2.218249	-1.248416	0.394557	99
Es	-1.937963	-0.560196	-0.525835	99
Es	1.535531	2.072706	-0.380183	99
Es	1.066781	1.500722	-0.503319	99
Es	0.508581	0.156670	0.483391	99
Es	0.830440	-2.276366	0.836080	99
Es	0.420285	0.667220	-1.425670	99
Es	-0.306094	-2.760239	0.692584	99
Es	-1.075344	-0.804069	0.285959	99
Es	0.789719	0.124024	0.610337	99
Es	1.611155	2.468946	-0.992888	99
Es	0.358814	0.294173	0.558319	99
Es	-1.812935	-0.675711	0.176977	99
42
Properties=species:S:1:pos:R:3:Z:I:1 energy=-343.8415323270618 field_type=dipole dipole="0.000000 0.000000 0.000000" charge=0
C	-1.813004	-0.675696	0.176943	6
C	-0.359124	-0.954546	0.416823	6
C	0.124886	-2.172856	0.686823	6
O	0.508826	0.156724	0.483723	8
C	0.598966	0.931244	-0.645167	6
C	1.535576	2.072764	-0.380187	6
O	0.029106	0.752584	-1.712837	8
H	-2.131384	0.201974	0.748783	1
H	-2.439484	-1.517136	0.492153	1
H	-2.011884	-0.494106	-0.882767	1
H	-0.515314	-3.048726	0.692103	1
H	1.178036	-2.319966	0.902383	1
H	2.516586	1.688464	-0.089307	1
H	1.125076	2.714594	0.403203	1
H	1.653136	2.664684	-1.292667	1
Es	0.598936	0.931076	-0.644933	99
Es	0.495554	0.439025	0.041986	99
Es	-1.812935	-0.675713	0.176978	99
Es	1.535531	2.072707	-0.380183	99
Es	1.252699	2.484361	0.144846	99
Es	-0.171557	-1.537932	0.882943	99
Es	-0.131457	0.515337	-1.681329	99
Es	-0.305701	-2.760229	0.692281	99
Es	-2.014339	-0.082006	0.569786	99
Es	0.830381	-2.276437	0.835625	99
Es	0.421104	0.664690	-1.426648	99
Es	-0.050409	-1.634088	0.222649	99
Es	2.179171	1.803297	-0.183135	99
Es	0.364017	0.278013	0.535101	99
Es	0.124910	-2.172927	0.686836	99
Es	0.028358	0.941823	-1.261268	99
Es	1.611090	2.468630	-0.993026	99
Es	-0.359024	-0.954184	0.416790	99
Es	-1.937738	-0.560639	-0.525444	99
Es	-2.218142	-1.248404	0.394305	99
Es	0.781779	0.136431	0.632944	99
Es	-1.075392	-0.804162	0.285996	99
Es	0.219295	-0.268290	0.399412	99
Es	0.508645	0.156581	0.483374	99
Es	1.066623	1.501290	-0.503139	99
Es	0.081316	0.970034	-1.936560	99
Es	0.029244	0.752611	-1.712556	99
42
Properties=species:S:1:pos:R:3:Z:I:1 energy=-343.8415323270618 field_type=dipole dipole="0.000000 0.000000 0.000000" charge=0
C	-1.813004	-0.675696	0.176943	6
C	-0.359124	-0.954546	0.416823	6
C	0.124886	-2.172856	0.686823	6
O	0.508826	0.156724	0.483723	8
C	0.598966	0.931244	-0.645167	6
C	1.535576	2.072764	-0.380187	6
O	0.029106	0.752584	-1.712837	8
H	-2.131384	0.201974	0.748783	1
H	-2.439484	-1.517136	0.492153	1
H	-2.011884	-0.494106	-0.882767	1
H	-0.515314	-3.048726	0.692103	1
H	1.178036	-2.319966	0.902383	1
H	2.516586	1.688464	-0.089307	1
H	1.125076	2.714594	0.403203	1
H	1.653136	2.664684	-1.292667	1
Es	0.598940	0.931081	-0.644937	99
Es	1.252376	2.484595	0.145072	99
Es	-1.937568	-0.561078	-0.525397	99
Es	-2.014680	-0.081659	0.569900	99
Es	2.179231	1.802962	-0.183289	99
Es	-2.217883	-1.248097	0.394059	99
Es	0.421648	0.664597	-1.424124	99
Es	0.830402	-2.276683	0.835058	99
Es	0.024612	0.938947	-1.261876	99
Es	-1.812934	-0.675711	0.176977	99
Es	1.535531	2.072705	-0.380183	99
Es	0.489002	0.446373	0.046323	99
Es	-1.075486	-0.804183	0.286322	99
Es	0.124912	-2.172930	0.686833	99
Es	-0.359027	-0.954186	0.416783	99
Es	0.370591	0.262477	0.517875	99
Es	1.611052	2.468345	-0.993028	99
Es	0.773969	0.146697	0.648644	99
Es	-0.129191	0.515814	-1.684824	99
Es	0.227046	-0.270528	0.396643	99
Es	-0.305513	-2.760081	0.692208	99
Es	1.066735	1.501688	-0.503143	99
Es	-0.171469	-1.537778	0.883506	99
Es	-0.050612	-1.634229	0.222425	99
Es	0.508644	0.156578	0.483356	99
Es	0.082365	0.972550	-1.935023	99
Es	0.029262	0.752627	-1.712529	99
42
Properties=species:S:1:pos:R:3:Z:I:1 energy=-343.8415323270618 field_type=dipole dipole="0.000000 0.000000 0.000000" charge=0
C	-1.813004	-0.675696	0.176943	6
C	-0.359124	-0.954546	0.416823	6
C	0.124886	-2.172856	0.686823	6
O	0.508826	0.156724	0.483723	8
C	0.598966	0.931244	-0.645167	6
C	1.535576	2.072764	-0.380187	6
O	0.029106	0.752584	-1.712837	8
H	-2.131384	0.201974	0.748783	1
H	-2.439484	-1.517136	0.492153	1
H	-2.011884	-0.494106	-0.882767	1
H	-0.515314	-3.048726	0.692103	1
H	1.178036	-2.319966	0.902383	1
H	2.516586	1.688464	-0.089307	1
H	1.125076	2.714594	0.403203	1
H	1.653136	2.664684	-1.292667	1
Es	0.124914	-2.172928	0.686821	99
Es	-2.219401	-1.247829	0.393734	99
Es	2.181116	1.801797	-0.181831	99
Es	-2.015113	-0.082416	0.568455	99
Es	-0.359020	-0.954181	0.416791	99
Es	0.621756	0.135796	0.326881	99
Es	1.067151	1.502643	-0.503300	99
Es	0.623802	0.234287	0.758938	99
Es	0.078648	0.976460	-1.933862	99
Es	-0.170295	-1.538107	0.881210	99
Es	1.251822	2.483073	0.143162	99
Es	1.610090	2.469261	-0.992780	99
Es	-1.074154	-0.804621	0.286991	99
Es	0.029296	0.752672	-1.712525	99
Es	0.411995	0.482471	0.109940	99
Es	-0.131784	0.525651	-1.682923	99
Es	-0.306367	-2.758527	0.693359	99
Es	-1.812933	-0.675712	0.176978	99
Es	0.832398	-2.277617	0.835162	99
Es	-1.938093	-0.560208	-0.524152	99
Es	-0.052132	-1.634223	0.223792	99
Es	0.203841	-0.268134	0.413186	99
Es	1.535531	2.072705	-0.380184	99
Es	0.027825	0.936018	-1.265222	99
Es	0.423605	0.654727	-1.423420	99
Es	0.598943	0.931072	-0.644937	99
Es	0.508514	0.156765	0.483369	99
42
Properties=species:S:1:pos:R:3:Z:I:1 energy=-343.8415323270618 field_type=dipole dipole="0.000000 0.000000 0.000000" charge=0
C	-1.813004	-0.675696	0.176943	6
C	-0.359124	-0.954546	0.416823	6
C	0.124886	-2.172856	0.686823	6
O	0.508826	0.156724	0.483723	8
C	0.598966	0.931244	-0.645167	6
C	1.535576	2.072764	-0.380187	6
O	0.029106	0.752584	-1.712837	8
H	-2.131384	0.201974	0.748783	1
H	-2.439484	-1.517136	0.492153	1
H	-2.011884	-0.494106	-0.882767	1
H	-0.515314	-3.048726	0.692103	1
H	1.178036	-2.319966	0.902383	1
H	2.516586	1.688464	-0.089307	1
H	1.125076	2.714594	0.403203	1
H	1.653136	2.664684	-1.292667	1
Es	-0.050938	-1.634336	0.222283	99
Es	0.234151	-0.273427	0.394160	99
Es	0.389225	0.239459	0.489256	99
Es	1.610993	2.468067	-0.993127	99
Es	-2.014876	-0.081201	0.570004	99
Es	-1.812933	-0.675712	0.176978	99
Es	-2.217954	-1.248146	0.393694	99
Es	-0.359030	-0.954190	0.416790	99
Es	-0.171157	-1.537675	0.883916	99
Es	2.179363	1.802207	-0.183378	99
Es	1.535529	2.072705	-0.380185	99
Es	-0.128659	0.523409	-1.682726	99
Es	0.124914	-2.172924	0.686832	99
Es	0.029263	0.752644	-1.712539	99
Es	0.421481	0.657624	-1.425248	99
Es	1.066637	1.502672	-0.503028	99
Es	0.081939	0.970489	-1.937449	99
Es	0.025070	0.940292	-1.260489	99
Es	-1.075601	-0.804285	0.286748	99
Es	1.251972	2.484765	0.145245	99
Es	0.477197	0.457818	0.055414	99
Es	0.598940	0.931073	-0.644933	99
Es	0.830582	-2.277032	0.834403	99
Es	-1.937328	-0.561221	-0.524908	99
Es	-0.305416	-2.759866	0.691986	99
Es	0.508571	0.156675	0.483371	99
Es	0.760023	0.161007	0.670562	99
42
Properties=species:S:1:pos:R:3:Z:I:1 energy=-343.8415323270618 field_type=dipole dipole="0.000000 0.000000 0.000000" charge=0
C	-1.813004	-0.675696	0.176943	6
C	-0.359124	-0.954546	0.416823	6
C	0.124886	-2.172856	0.686823	6
O	0.508826	0.156724	0.483723	8
C	0.598966	0.931244	-0.645167	6
C	1.535576	2.072764	-0.380187	6
O	0.029106	0.752584	-1.712837	8
H	-2.131384	0.201974	0.748783	1
H	-2.439484	-1.517136	0.492153	1
H	-2.011884	-0.494106	-0.882767	1
H	-0.515314	-3.048726	0.692103	1
H	1.178036	-2.319966	0.902383	1
H	2.516586	1.688464	-0.089307	1
H	1.125076	2.714594	0.403203	1
H	1.653136	2.664684	-1.292667	1
Es	1.610317	2.467896	-0.992980	99
Es	1.535530	2.072704	-0.380182	99
Es	0.023916	0.937811	-1.260052	99
Es	1.067806	1.503596	-0.503282	99
Es	0.221586	-0.275572	0.404076	99
Es	1.250983	2.484415	0.144318	99
Es	-2.219387	-1.247897	0.393154	99
Es	2.180748	1.800903	-0.182746	99
Es	0.676513	0.212613	0.742586	99
Es	-0.127900	0.532577	-1.684163	99
Es	0.438844	0.478641	0.085776	99
Es	-1.074281	-0.804540	0.288118	99
Es	0.598942	0.931073	-0.644937	99
Es	-0.359021	-0.954182	0.416788	99
Es	-1.812936	-0.675712	0.176977	99
Es	-1.937655	-0.560903	-0.523071	99
Es	0.527074	0.157268	0.418767	99
Es	0.124909	-2.172927	0.686839	99
Es	0.423402	0.648698	-1.426635	99
Es	-0.053000	-1.634708	0.223490	99
Es	0.505350	0.168162	0.441232	99
Es	-0.169801	-1.537568	0.882448	99
Es	0.832720	-2.278185	0.833167	99
Es	0.029252	0.752616	-1.712531	99
Es	0.079682	0.973748	-1.934767	99
Es	-0.305946	-2.758370	0.692739	99
Es	-2.015695	-0.081263	0.568504	99
42
Properties=species:S:1:pos:R:3:Z:I:1 energy=-343.8415323270618 field_type=dipole dipole="0.000000 0.000000 0.000000" charge=0
C	-1.813004	-0.675696	0.176943	6
C	-0.359124	-0.954546	0.416823	6
C	0.124886	-2.172856	0.686823	6
O	0.508826	0.156724	0.483723	8
C	0.598966	0.931244	-0.645167	6
C	1.535576	2.072764	-0.380187	6
O	0.029106	0.752584	-1.712837	8
H	-2.131384	0.201974	0.748783	1
H	-2.439484	-1.517136	0.492153	1
H	-2.011884	-0.494106	-0.882767	1
H	-0.515314	-3.048726	0.692103	1
H	1.178036	-2.319966	0.902383	1
H	2.516586	1.688464	-0.089307	1
H	1.125076	2.714594	0.403203	1
H	1.653136	2.664684	-1.292667	1
Es	-2.219195	-1.247924	0.393696	99
Es	0.631844	0.230007	0.756978	99
Es	0.410049	0.483613	0.111623	99
Es	-0.359020	-0.954180	0.416790	99
Es	0.606511	0.142866	0.331924	99
Es	0.028524	0.932754	-1.263769	99
Es	-0.130307	0.531145	-1.682777	99
Es	0.076946	0.979270	-1.933470	99
Es	-0.170413	-1.538091	0.881465	99
Es	0.212621	-0.271740	0.409192	99
Es	1.535530	2.072705	-0.380183	99
Es	-1.937879	-0.560488	-0.524118	99
Es	-1.074395	-0.804558	0.286704	99
Es	-2.015150	-0.082011	0.568638	99
Es	-0.306229	-2.758690	0.693278	99
Es	1.251798	2.482880	0.143106	99
Es	0.423424	0.649604	-1.425423	99
Es	1.610004	2.469384	-0.992993	99
Es	1.066872	1.503297	-0.502989	99
Es	0.124910	-2.172928	0.686836	99
Es	0.598939	0.931076	-0.644936	99
Es	2.181077	1.801400	-0.181724	99
Es	0.508904	0.156283	0.482551	99
Es	-1.812935	-0.675711	0.176977	99
Es	-0.051861	-1.634245	0.223524	99
Es	0.029252	0.752651	-1.712560	99
Es	0.832135	-2.277472	0.835293	99
42
Properties=species:S:1:pos:R:3:Z:I:1 energy=-343.8415323270618 field_type=dipole dipole="0.000000 0.000000 0.000000" charge=0
C	-1.813004	-0.675696	0.176943	6
C	-0.359124	-0.954546	0.416823	6
C	0.124886	-2.172856	0.686823	6
O	0.508826	0.156724	0.483723	8
C	0.598966	0.931244	-0.645167	6
C	1.535576	2.072764	-0.380187	6
O	0.029106	0.752584	-1.712837	8
H	-2.131384	0.201974	0.748783	1
H	-2.439484	-1.517136	0.492153	1
H	-2.011884	-0.494106	-0.882767	1
H	-0.515314	-3.048726	0.692103	1
H	1.178036	-2.319966	0.902383	1
H	2.516586	1.688464	-0.089307	1
H	1.125076	2.714594	0.403203	1
H	1.653136	2.664684	-1.292667	1
Es	0.027694	0.932873	-1.264859	99
Es	0.604024	0.143541	0.331974	99
Es	0.508482	0.156809	0.483391	99
Es	0.074942	0.977926	-1.935325	99
Es	-0.306244	-2.758664	0.693291	99
Es	-2.219317	-1.247890	0.393638	99
Es	0.598938	0.931076	-0.644934	99
Es	-1.937907	-0.560409	-0.523996	99
Es	-1.074346	-0.804806	0.286424	99
Es	0.632529	0.229818	0.756356	99
Es	0.424061	0.651108	-1.424131	99
Es	-0.128186	0.530984	-1.681071	99
Es	2.181197	1.801393	-0.181895	99
Es	0.409472	0.483832	0.112174	99
Es	0.029262	0.752645	-1.712555	99
Es	0.124912	-2.172931	0.686844	99
Es	0.832065	-2.277538	0.835242	99
Es	0.215456	-0.273031	0.408298	99
Es	-0.051792	-1.634227	0.223602	99
Es	-1.812935	-0.675711	0.176978	99
Es	-2.015019	-0.081953	0.568689	99
Es	1.066984	1.503331	-0.502905	99
Es	1.609702	2.469616	-0.992978	99
Es	-0.170420	-1.538038	0.881579	99
Es	1.535531	2.072706	-0.380182	99
Es	1.251890	2.482610	0.143194	99
Es	-0.359017	-0.954174	0.416791	99
42
Properties=species:S:1:pos:R:3:Z:I:1 energy=-343.8415323270618 field_type=dipole dipole="0.000000 0.000000 0.000000" charge=0
C	-1.813004	-0.675696	0.176943	6
C	-0.359124	-0.954546	0.416823	6
C	0.124886	-2.172856	0.686823	6
O	0.508826	0.156724	0.483723	8
C	0.598966	0.931244	-0.645167	6
C	1.535576	2.072764	-0.380187	6
O	0.029106	0.752584	-1.712837	8
H	-2.131384	0.201974	0.748783	1
H	-2.439484	-1.517136	0.492153	1
H	-2.011884	-0.494106	-0.882767	1
H	-0.515314	-3.048726	0.692103	1
H	1.178036	-2.319966	0.902383	1
H	2.516586	1.688464	-0.089307	1
H	1.125076	2.714594	0.403203	1
H	1.653136	2.664684	-1.292667	1
Es	0.586833	0.149598	0.336092	99
Es	-0.170283	-1.537939	0.882191	99
Es	0.598943	0.931071	-0.644935	99
Es	0.077631	0.976723	-1.935683	99
Es	-0.359019	-0.954178	0.416788	99
Es	1.535531	2.072705	-0.380183	99
Es	0.026964	0.934539	-1.264237	99
Es	-0.306060	-2.758729	0.693301	99
Es	2.180812	1.801186	-0.182015	99
Es	-0.128742	0.533373	-1.681845	99
Es	-1.812934	-0.675711	0.176977	99
Es	-1.937597	-0.560641	-0.523986	99
Es	1.610009	2.469111	-0.993288	99
Es	0.831946	-2.277607	0.834696	99
Es	-2.015255	-0.081688	0.568797	99
Es	0.029253	0.752614	-1.712531	99
Es	1.251453	2.483086	0.143634	99
Es	0.647865	0.222637	0.752199	99
Es	0.216332	-0.273554	0.407505	99
Es	0.423006	0.648162	-1.423783	99
Es	0.410104	0.485683	0.113072	99
Es	-1.074616	-0.804359	0.286828	99
Es	0.124912	-2.172928	0.686833	99
Es	0.508621	0.156645	0.483365	99
Es	1.067298	1.503606	-0.502897	99
Es	-0.051989	-1.634323	0.223144	99
Es	-2.219062	-1.248186	0.393593	99
42
Properties=species:S:1:pos:R:3:Z:I:1 energy=-343.8415323270618 field_type=dipole dipole="0.000000 0.000000 0.000000" charge=0
C	-1.813004	-0.675696	0.176943	6
C	-0.359124	-0.954546	0.416823	6
C	0.124886	-2.172856	0.686823	6
O	0.508826	0.156724	0.483723	8
C	0.598966	0.931244	-0.645167	6
C	1.535576	2.072764	-0.380187	6
O	0.029106	0.752584	-1.712837	8
H	-2.131384	0.201974	0.748783	1
H	-2.439484	-1.517136	0.492153	1
H	-2.011884	-0.494106	-0.882767	1
H	-0.515314	-3.048726	0.692103	1
H	1.178036	-2.319966	0.902383	1
H	2.516586	1.688464	-0.089307	1
H	1.125076	2.714594	0.403203	1
H	1.653136	2.664684	-1.292667	1
Es	0.075718	0.979667	-1.933870	99
Es	-0.128466	0.532685	-1.682527	99
Es	0.027582	0.931641	-1.264030	99
Es	0.591532	0.147368	0.336517	99
Es	0.219179	-0.274561	0.407366	99
Es	0.124910	-2.172928	0.686841	99
Es	-0.306123	-2.758648	0.693201	99
Es	0.423929	0.648867	-1.425007	99
Es	0.831976	-2.277580	0.835179	99
Es	2.181035	1.800899	-0.181843	99
Es	-0.051788	-1.634313	0.223303	99
Es	1.251685	2.482785	0.143284	99
Es	0.029242	0.752624	-1.712575	99
Es	1.066864	1.503830	-0.502932	99
Es	-2.219147	-1.247923	0.393479	99
Es	0.508408	0.156983	0.483159	99
Es	1.535530	2.072705	-0.380183	99
Es	-0.170467	-1.538005	0.881863	99
Es	-1.937645	-0.560600	-0.524006	99
Es	1.609944	2.469463	-0.993056	99
Es	0.598941	0.931074	-0.644934	99
Es	-1.812935	-0.675711	0.176977	99
Es	-1.074539	-0.804684	0.286613	99
Es	0.640521	0.226914	0.753968	99
Es	-0.359020	-0.954180	0.416790	99
Es	0.410267	0.484230	0.111208	99
Es	-2.015177	-0.081708	0.568845	99
42
Properties=species:S:1:pos:R:3:Z:I:1 energy=-343.8415323270618 field_type=dipole dipole="0.000000 0.000000 0.000000" charge=0
C	-1.813004	-0.675696	0.176943	6
C	-0.359124	-0.954546	0.416823	6
C	0.124886	-2.172856	0.686823	6
O	0.508826	0.156724	0.483723	8
C	0.598966	0.931244	-0.645167	6
C	1.535576	2.072764	-0.380187	6
O	0.029106	0.752584	-1.712837	8
H	-2.131384	0.201974	0.748783	1
H	-2.439484	-1.517136	0.492153	1
H	-2.011884	-0.494106	-0.882767	1
H	-0.515314	-3.048726	0.692103	1
H	1.178036	-2.319966	0.902383	1
H	2.516586	1.688464	-0.089307	1
H	1.125076	2.714594	0.403203	1
H	1.653136	2.664684	-1.292667	1
Es	0.029204	0.752597	-1.712672	99
Es	0.124911	-2.172929	0.686837	99
Es	-0.051832	-1.634384	0.223061	99
Es	1.535530	2.072705	-0.380184	99
Es	0.646198	0.223132	0.752118	99
Es	0.410650	0.485785	0.112437	99
Es	-0.170467	-1.537991	0.881975	99
Es	0.423639	0.647541	-1.425674	99
Es	1.066918	1.504149	-0.502863	99
Es	0.831885	-2.277550	0.835143	99
Es	-0.306041	-2.758658	0.693314	99
Es	-1.937599	-0.560667	-0.523976	99
Es	0.508709	0.156773	0.483350	99
Es	-2.015303	-0.081675	0.568815	99
Es	0.583672	0.150201	0.338666	99
Es	0.027599	0.932301	-1.263229	99
Es	1.251575	2.482883	0.143476	99
Es	2.180902	1.800747	-0.181940	99
Es	-0.359020	-0.954179	0.416787	99
Es	1.609981	2.469344	-0.993194	99
Es	-0.128246	0.534066	-1.682169	99
Es	0.076014	0.978814	-1.934333	99
Es	-1.074495	-0.804546	0.286729	99
Es	0.220629	-0.274887	0.405624	99
Es	0.598941	0.931073	-0.644937	99
Es	-2.219066	-1.248038	0.393494	99
Es	-1.812934	-0.675711	0.176977	99
42
Properties=species:S:1:pos:R:3:Z:I:1 energy=-343.8415323270618 field_type=dipole dipole="0.000000 0.000000 0.000000" charge=0
C	-1.813004	-0.675696	0.176943	6
C	-0.359124	-0.954546	0.416823	6
C	0.124886	-2.172856	0.686823	6
O	0.508826	0.156724	0.483723	8
C	0.598966	0.931244	-0.645167	6
C	1.535576	2.072764	-0.380187	6
O	0.029106	0.752584	-1.712837	8
H	-2.131384	0.201974	0.748783	1
H	-2.439484	-1.517136	0.492153	1
H	-2.011884	-0.494106	-0.882767	1
H	-0.515314	-3.048726	0.692103	1
H	1.178036	-2.319966	0.902383	1
H	2.516586	1.688464	-0.089307	1
H	1.125076	2.714594	0.403203	1
H	1.653136	2.664684	-1.292667	1
Es	0.409834	0.487047	0.114581	99
Es	-0.359020	-0.954180	0.416789	99
Es	-1.812934	-0.675711	0.176977	99
Es	-1.074682	-0.804246	0.286424	99
Es	-0.128110	0.537901	-1.678868	99
Es	0.831769	-2.277460	0.834967	99
Es	0.220725	-0.274589	0.404492	99
Es	1.535530	2.072705	-0.380184	99
Es	0.508170	0.157186	0.483136	99
Es	0.422709	0.644199	-1.425577	99
Es	1.251688	2.482799	0.143591	99
Es	0.598935	0.931078	-0.644934	99
Es	0.029263	0.752608	-1.712497	99
Es	-0.306142	-2.758918	0.693222	99
Es	0.028858	0.934919	-1.263596	99
Es	-2.219039	-1.248385	0.393813	99
Es	0.581270	0.151124	0.338736	99
Es	-1.937576	-0.560737	-0.523974	99
Es	0.075599	0.975673	-1.937564	99
Es	-0.051739	-1.634282	0.223208	99
Es	0.649833	0.220225	0.751262	99
Es	-0.170412	-1.537956	0.882105	99
Es	2.180826	1.801094	-0.182051	99
Es	0.124911	-2.172928	0.686837	99
Es	-2.015082	-0.081523	0.568759	99
Es	1.066844	1.503784	-0.502826	99
Es	1.609929	2.469467	-0.993196	99
42
Properties=species:S:1:pos:R:3:Z:I:1 energy=-343.8415323270618 field_type=dipole dipole="0.000000 0.000000 0.000000" charge=0
C	-1.813004	-0.675696	0.176943	6
C	-0.359124	-0.954546	0.416823	6
C	0.124886	-2.172856	0.686823	6
O	0.508826	0.156724	0.483723	8
C	0.598966	0.931244	-0.645167	6
C	1.535576	2.072764	-0.380187	6
O	0.029106	0.752584	-1.712837	8
H	-2.131384	0.201974	0.748783	1
H	-2.439484	-1.517136	0.492153	1
H	-2.011884	-0.494106	-0.882767	1
H	-0.515314	-3.048726	0.692103	1
H	1.178036	-2.319966	0.902383	1
H	2.516586	1.688464	-0.089307	1
H	1.125076	2.714594	0.403203	1
H	1.653136	2.664684	-1.292667	1
Es	0.508787	0.156493	0.483282	99
Es	0.026763	0.932577	-1.264746	99
Es	0.581035	0.151512	0.339134	99
Es	-0.306068	-2.758706	0.693287	99
Es	0.409029	0.485596	0.113423	99
Es	-0.170432	-1.538034	0.882035	99
Es	1.609865	2.469548	-0.993163	99
Es	-2.015129	-0.081551	0.568786	99
Es	-0.127664	0.535768	-1.681941	99
Es	-0.359018	-0.954179	0.416785	99
Es	0.831839	-2.277554	0.835100	99
Es	1.251651	2.482675	0.143455	99
Es	0.598941	0.931073	-0.644935	99
Es	-0.051786	-1.634294	0.223114	99
Es	1.066936	1.504019	-0.502844	99
Es	0.647133	0.223334	0.751495	99
Es	-2.219007	-1.248232	0.393745	99
Es	1.535530	2.072706	-0.380183	99
Es	2.180949	1.800822	-0.181948	99
Es	0.223876	-0.276020	0.404830	99
Es	-1.074656	-0.804355	0.286455	99
Es	0.029260	0.752633	-1.712540	99
Es	0.076824	0.978314	-1.935448	99
Es	-1.937638	-0.560756	-0.523991	99
Es	-1.812935	-0.675711	0.176977	99
Es	0.422962	0.646144	-1.423367	99
Es	0.124910	-2.172928	0.686838	99
