45
Properties=species:S:1:pos:R:3:Z:I:1 energy=-345.015103976278 field_type=dipole dipole="0.000000 0.000000 0.000000" charge=0
C	-2.429958	-0.765438	0.145517	6
C	-0.924528	-0.893248	0.294987	6
C	-0.222548	0.452392	0.281877	6
O	-0.826678	1.524462	0.193147	8
C	1.305002	0.434052	0.391977	6
C	1.935232	0.198732	-0.968743	6
O	1.774212	1.678912	0.899217	8
H	-2.901708	-1.751538	0.184257	1
H	-2.690208	-0.298398	-0.809773	1
H	-2.855088	-0.151188	0.945827	1
H	-0.527928	-1.503268	-0.522303	1
H	-0.692658	-1.386368	1.244987	1
H	1.603332	-0.343518	1.101707	1
H	1.653552	0.991412	-1.671603	1
H	1.628692	-0.760108	-1.398133	1
H	3.027862	0.216022	-0.893753	1
H	1.143412	2.357092	0.580807	1
Es	1.733773	0.735255	-1.437557	99
Es	2.667284	0.204227	-0.909172	99
Es	-0.924503	-0.893196	0.294982	99
Es	1.718722	-0.458210	-1.254430	99
Es	0.535977	0.433963	0.339136	99
Es	2.049423	1.723503	0.767855	99
Es	-2.711959	-0.355999	0.691233	99
Es	-0.635165	1.153103	0.474762	99
Es	-1.664547	-0.823761	0.220395	99
Es	-0.642363	-1.291156	-0.254194	99
Es	-2.429891	-0.765460	0.145523	99
Es	1.594619	0.302631	-0.294385	99
Es	-0.826505	1.524179	0.193168	99
Es	1.935196	0.198716	-0.968717	99
Es	-2.743116	-1.442942	0.172522	99
Es	1.572287	1.210762	0.692619	99
Es	1.305012	0.434249	0.392007	99
Es	-1.134364	1.494058	0.166310	99
Es	1.734662	1.663756	1.200946	99
Es	1.441574	2.022491	0.716085	99
Es	-0.623596	1.773876	0.201418	99
Es	-0.571860	-0.221276	0.282006	99
Es	1.773860	1.678818	0.899054	99
Es	-0.592156	1.136031	-0.026926	99
Es	-0.753550	-1.210947	0.934458	99
Es	-2.600177	-0.454852	-0.504128	99
Es	-0.222552	0.452387	0.281873	99
Es	1.496612	-0.103627	0.870013	99
45
Properties=species:S:1:pos:R:3:Z:I:1 energy=-345.015103976278 field_type=dipole dipole="0.000000 0.000000 0.000000" charge=0
C	-2.429958	-0.765438	0.145517	6
C	-0.924528	-0.893248	0.294987	6
C	-0.222548	0.452392	0.281877	6
O	-0.826678	1.524462	0.193147	8
C	1.305002	0.434052	0.391977	6
C	1.935232	0.198732	-0.968743	6
O	1.774212	1.678912	0.899217	8
H	-2.901708	-1.751538	0.184257	1
H	-2.690208	-0.298398	-0.809773	1
H	-2.855088	-0.151188	0.945827	1
H	-0.527928	-1.503268	-0.522303	1
H	-0.692658	-1.386368	1.244987	1
H	1.603332	-0.343518	1.101707	1
H	1.653552	0.991412	-1.671603	1
H	1.628692	-0.760108	-1.398133	1
H	3.027862	0.216022	-0.893753	1
H	1.143412	2.357092	0.580807	1
Es	1.575375	1.206660	0.694381	99
Es	-0.592053	1.136056	-0.027251	99
Es	-2.599701	-0.454865	-0.504170	99
Es	2.666004	0.203566	-0.907815	99
Es	2.044403	1.722073	0.772604	99
Es	-0.222549	0.452387	0.281877	99
Es	-0.753776	-1.211050	0.934290	99
Es	1.437994	2.029236	0.718023	99
Es	-1.664709	-0.823687	0.220505	99
Es	-0.642510	-1.291396	-0.254081	99
Es	-1.132428	1.488853	0.167656	99
Es	-0.571520	-0.221125	0.282202	99
Es	0.536133	0.434079	0.338059	99
Es	-2.743140	-1.443273	0.172443	99
Es	1.594640	0.302934	-0.294419	99
Es	1.739848	1.662706	1.192144	99
Es	1.733584	0.737368	-1.438598	99
Es	1.718995	-0.459078	-1.253491	99
Es	-0.924502	-0.893197	0.294980	99
Es	1.497620	-0.105189	0.870344	99
Es	1.773907	1.678856	0.899012	99
Es	-2.711923	-0.355673	0.691277	99
Es	-0.627530	1.778163	0.199464	99
Es	1.305012	0.434249	0.392007	99
Es	-0.826478	1.524182	0.193171	99
Es	-2.429895	-0.765460	0.145523	99
Es	-0.633296	1.154488	0.475434	99
Es	1.935194	0.198717	-0.968716	99
45
Properties=species:S:1:pos:R:3:Z:I:1 energy=-345.015103976278 field_type=dipole dipole="0.000000 0.000000 0.000000" charge=0
C	-2.429958	-0.765438	0.145517	6
C	-0.924528	-0.893248	0.294987	6
C	-0.222548	0.452392	0.281877	6
O	-0.826678	1.524462	0.193147	8
C	1.305002	0.434052	0.391977	6
C	1.935232	0.198732	-0.968743	6
O	1.774212	1.678912	0.899217	8
H	-2.901708	-1.751538	0.184257	1
H	-2.690208	-0.298398	-0.809773	1
H	-2.855088	-0.151188	0.945827	1
H	-0.527928	-1.503268	-0.522303	1
H	-0.692658	-1.386368	1.244987	1
H	1.603332	-0.343518	1.101707	1
H	1.653552	0.991412	-1.671603	1
H	1.628692	-0.760108	-1.398133	1
H	3.027862	0.216022	-0.893753	1
H	1.143412	2.357092	0.580807	1
Es	-0.595176	1.135590	-0.028355	99
Es	-0.621373	1.772424	0.200251	99
Es	-1.133800	1.497414	0.167851	99
Es	-0.222552	0.452386	0.281873	99
Es	-2.429893	-0.765461	0.145522	99
Es	-2.711986	-0.355364	0.691470	99
Es	1.733044	0.738781	-1.439179	99
Es	0.536342	0.434122	0.337455	99
Es	-0.642409	-1.291686	-0.254218	99
Es	-2.742989	-1.443415	0.172372	99
Es	-0.924502	-0.893195	0.294983	99
Es	1.578656	1.203235	0.694907	99
Es	2.664920	0.203463	-0.907094	99
Es	-1.664797	-0.823574	0.220493	99
Es	1.739601	1.661874	1.182766	99
Es	-0.753923	-1.210878	0.934203	99
Es	-0.635074	1.152418	0.475489	99
Es	-0.571403	-0.221119	0.282322	99
Es	1.305012	0.434248	0.392007	99
Es	1.773975	1.678874	0.898940	99
Es	-2.599476	-0.455038	-0.504166	99
Es	1.594715	0.303018	-0.294375	99
Es	1.498519	-0.106293	0.870334	99
Es	1.935196	0.198716	-0.968717	99
Es	-0.826507	1.524190	0.193166	99
Es	1.437008	2.033984	0.719506	99
Es	1.719564	-0.459747	-1.252741	99
Es	2.042005	1.721611	0.779787	99
45
Properties=species:S:1:pos:R:3:Z:I:1 energy=-345.015103976278 field_type=dipole dipole="0.000000 0.000000 0.000000" charge=0
C	-2.429958	-0.765438	0.145517	6
C	-0.924528	-0.893248	0.294987	6
C	-0.222548	0.452392	0.281877	6
O	-0.826678	1.524462	0.193147	8
C	1.305002	0.434052	0.391977	6
C	1.935232	0.198732	-0.968743	6
O	1.774212	1.678912	0.899217	8
H	-2.901708	-1.751538	0.184257	1
H	-2.690208	-0.298398	-0.809773	1
H	-2.855088	-0.151188	0.945827	1
H	-0.527928	-1.503268	-0.522303	1
H	-0.692658	-1.386368	1.244987	1
H	1.603332	-0.343518	1.101707	1
H	1.653552	0.991412	-1.671603	1
H	1.628692	-0.760108	-1.398133	1
H	3.027862	0.216022	-0.893753	1
H	1.143412	2.357092	0.580807	1
Es	-2.599122	-0.455414	-0.504099	99
Es	-0.595444	1.136765	-0.029328	99
Es	-0.924504	-0.893195	0.294982	99
Es	2.664099	0.203361	-0.906494	99
Es	-0.642469	-1.291997	-0.254149	99
Es	1.773898	1.678864	0.899078	99
Es	1.594823	0.302964	-0.294284	99
Es	1.434398	2.036485	0.723931	99
Es	1.719984	-0.460183	-1.252265	99
Es	-0.571098	-0.221073	0.282536	99
Es	1.305010	0.434245	0.392006	99
Es	1.732567	0.739994	-1.439357	99
Es	1.499259	-0.107205	0.870216	99
Es	2.034514	1.721631	0.778252	99
Es	1.581127	1.200180	0.696968	99
Es	-2.429893	-0.765461	0.145522	99
Es	-0.619977	1.768624	0.201018	99
Es	-2.742916	-1.443534	0.172317	99
Es	-0.754052	-1.210746	0.933966	99
Es	-2.712171	-0.354872	0.691521	99
Es	-0.826484	1.524177	0.193170	99
Es	-0.634168	1.151624	0.475313	99
Es	-1.664918	-0.823496	0.220584	99
Es	-0.222552	0.452387	0.281868	99
Es	-1.135859	1.501118	0.168118	99
Es	0.536428	0.434166	0.336691	99
Es	1.935195	0.198717	-0.968716	99
Es	1.747020	1.662451	1.177490	99
45
Properties=species:S:1:pos:R:3:Z:I:1 energy=-345.015103976278 field_type=dipole dipole="0.000000 0.000000 0.000000" charge=0
C	-2.429958	-0.765438	0.145517	6
C	-0.924528	-0.893248	0.294987	6
C	-0.222548	0.452392	0.281877	6
O	-0.826678	1.524462	0.193147	8
C	1.305002	0.434052	0.391977	6
C	1.935232	0.198732	-0.968743	6
O	1.774212	1.678912	0.899217	8
H	-2.901708	-1.751538	0.184257	1
H	-2.690208	-0.298398	-0.809773	1
H	-2.855088	-0.151188	0.945827	1
H	-0.527928	-1.503268	-0.522303	1
H	-0.692658	-1.386368	1.244987	1
H	1.603332	-0.343518	1.101707	1
H	1.653552	0.991412	-1.671603	1
H	1.628692	-0.760108	-1.398133	1
H	3.027862	0.216022	-0.893753	1
H	1.143412	2.357092	0.580807	1
Es	1.585972	1.197796	0.696071	99
Es	-2.742750	-1.443517	0.172183	99
Es	1.737060	1.661235	1.165201	99
Es	-0.618240	1.764568	0.201035	99
Es	1.594803	0.302925	-0.294299	99
Es	1.435759	2.039331	0.723209	99
Es	-0.596135	1.136871	-0.030159	99
Es	-2.712181	-0.354730	0.691834	99
Es	-0.826482	1.524149	0.193171	99
Es	-0.222552	0.452384	0.281873	99
Es	0.536694	0.434173	0.336421	99
Es	-0.754179	-1.210633	0.934046	99
Es	-2.598998	-0.455453	-0.504129	99
Es	-1.664942	-0.823397	0.220501	99
Es	2.663137	0.203414	-0.906170	99
Es	-0.642388	-1.292170	-0.254390	99
Es	1.720505	-0.460674	-1.251888	99
Es	-0.634137	1.151284	0.476028	99
Es	1.732243	0.740890	-1.439494	99
Es	-0.571105	-0.221240	0.282758	99
Es	-0.924503	-0.893196	0.294983	99
Es	-1.136943	1.505677	0.168116	99
Es	1.774026	1.678888	0.899127	99
Es	-2.429892	-0.765461	0.145522	99
Es	1.305012	0.434247	0.392006	99
Es	1.499818	-0.107879	0.870103	99
Es	1.935198	0.198716	-0.968719	99
Es	2.037900	1.722379	0.791913	99
45
Properties=species:S:1:pos:R:3:Z:I:1 energy=-345.015103976278 field_type=dipole dipole="0.000000 0.000000 0.000000" charge=0
C	-2.429958	-0.765438	0.145517	6
C	-0.924528	-0.893248	0.294987	6
C	-0.222548	0.452392	0.281877	6
O	-0.826678	1.524462	0.193147	8
C	1.305002	0.434052	0.391977	6
C	1.935232	0.198732	-0.968743	6
O	1.774212	1.678912	0.899217	8
H	-2.901708	-1.751538	0.184257	1
H	-2.690208	-0.298398	-0.809773	1
H	-2.855088	-0.151188	0.945827	1
H	-0.527928	-1.503268	-0.522303	1
H	-0.692658	-1.386368	1.244987	1
H	1.603332	-0.343518	1.101707	1
H	1.653552	0.991412	-1.671603	1
H	1.628692	-0.760108	-1.398133	1
H	3.027862	0.216022	-0.893753	1
H	1.143412	2.357092	0.580807	1
Es	-2.711884	-0.354308	0.691667	99
Es	-2.429893	-0.765460	0.145522	99
Es	-2.742727	-1.444658	0.172220	99
Es	-1.665042	-0.823201	0.220348	99
Es	2.031497	1.721413	0.787928	99
Es	1.773851	1.678842	0.899017	99
Es	-0.754563	-1.210751	0.933753	99
Es	-0.602533	1.730995	0.202636	99
Es	-0.826484	1.524155	0.193176	99
Es	-0.600615	1.132152	-0.030300	99
Es	-0.570862	-0.220607	0.282779	99
Es	-0.222552	0.452385	0.281870	99
Es	1.585869	1.194938	0.701390	99
Es	-0.642680	-1.292488	-0.254184	99
Es	-1.142409	1.544241	0.166539	99
Es	0.536797	0.434367	0.335963	99
Es	-0.924503	-0.893196	0.294983	99
Es	1.305012	0.434246	0.392006	99
Es	1.594664	0.303127	-0.294375	99
Es	1.500355	-0.108596	0.869743	99
Es	-0.639782	1.151174	0.476245	99
Es	1.935197	0.198717	-0.968718	99
Es	1.744015	1.664131	1.161865	99
Es	-2.598596	-0.455453	-0.503746	99
Es	1.732213	0.741722	-1.439222	99
Es	2.661966	0.203864	-0.905616	99
Es	1.435358	2.040528	0.725245	99
Es	1.721028	-0.461698	-1.251881	99
45
Properties=species:S:1:pos:R:3:Z:I:1 energy=-345.015103976278 field_type=dipole dipole="0.000000 0.000000 0.000000" charge=0
C	-2.429958	-0.765438	0.145517	6
C	-0.924528	-0.893248	0.294987	6
C	-0.222548	0.452392	0.281877	6
O	-0.826678	1.524462	0.193147	8
C	1.305002	0.434052	0.391977	6
C	1.935232	0.198732	-0.968743	6
O	1.774212	1.678912	0.899217	8
H	-2.901708	-1.751538	0.184257	1
H	-2.690208	-0.298398	-0.809773	1
H	-2.855088	-0.151188	0.945827	1
H	-0.527928	-1.503268	-0.522303	1
H	-0.692658	-1.386368	1.244987	1
H	1.603332	-0.343518	1.101707	1
H	1.653552	0.991412	-1.671603	1
H	1.628692	-0.760108	-1.398133	1
H	3.027862	0.216022	-0.893753	1
H	1.143412	2.357092	0.580807	1
Es	-0.597464	1.701540	0.204716	99
Es	1.742530	1.664165	1.155749	99
Es	0.536772	0.434513	0.335703	99
Es	1.732327	0.742240	-1.438895	99
Es	-0.642756	1.147930	0.475437	99
Es	-1.140407	1.576906	0.165799	99
Es	-1.665118	-0.823170	0.220394	99
Es	2.031845	1.721560	0.790373	99
Es	-0.604383	1.132429	-0.030893	99
Es	-2.711594	-0.354179	0.691340	99
Es	1.774119	1.678900	0.899173	99
Es	-2.598354	-0.455298	-0.503457	99
Es	1.935196	0.198715	-0.968718	99
Es	1.305011	0.434245	0.392007	99
Es	-0.754785	-1.210764	0.933424	99
Es	1.435653	2.041751	0.727163	99
Es	-0.570661	-0.219962	0.282698	99
Es	1.594941	0.303223	-0.294553	99
Es	-0.924503	-0.893196	0.294982	99
Es	-0.826663	1.523978	0.193156	99
Es	-2.742773	-1.445578	0.172316	99
Es	1.500481	-0.108828	0.869669	99
Es	1.586438	1.193719	0.702828	99
Es	1.721294	-0.462693	-1.251891	99
Es	-0.642996	-1.292792	-0.253755	99
Es	2.660989	0.204299	-0.905307	99
Es	-0.222552	0.452385	0.281870	99
Es	-2.429889	-0.765460	0.145523	99
45
Properties=species:S:1:pos:R:3:Z:I:1 energy=-345.015103976278 field_type=dipole dipole="0.000000 0.000000 0.000000" charge=0
C	-2.429958	-0.765438	0.145517	6
C	-0.924528	-0.893248	0.294987	6
C	-0.222548	0.452392	0.281877	6
O	-0.826678	1.524462	0.193147	8
C	1.305002	0.434052	0.391977	6
C	1.935232	0.198732	-0.968743	6
O	1.774212	1.678912	0.899217	8
H	-2.901708	-1.751538	0.184257	1
H	-2.690208	-0.298398	-0.809773	1
H	-2.855088	-0.151188	0.945827	1
H	-0.527928	-1.503268	-0.522303	1
H	-0.692658	-1.386368	1.244987	1
H	1.603332	-0.343518	1.101707	1
H	1.653552	0.991412	-1.671603	1
H	1.628692	-0.760108	-1.398133	1
H	3.027862	0.216022	-0.893753	1
H	1.143412	2.357092	0.580807	1
Es	1.500496	-0.109051	0.869631	99
Es	-2.598030	-0.455378	-0.503332	99
Es	-0.605392	1.131387	-0.030939	99
Es	0.536895	0.434596	0.335547	99
Es	1.595112	0.303158	-0.294765	99
Es	-2.429893	-0.765461	0.145522	99
Es	-0.924503	-0.893195	0.294982	99
Es	-0.597678	1.687491	0.205139	99
Es	-1.137590	1.591924	0.165183	99
Es	1.733402	1.662758	1.146303	99
Es	-0.222552	0.452385	0.281872	99
Es	1.437320	2.043277	0.726403	99
Es	1.773983	1.678883	0.898908	99
Es	1.721657	-0.463116	-1.251718	99
Es	-0.754859	-1.210977	0.933369	99
Es	-2.742664	-1.446094	0.172313	99
Es	-0.643145	-1.292715	-0.253721	99
Es	1.732333	0.742709	-1.438892	99
Es	-0.644328	1.147988	0.475634	99
Es	-0.826598	1.524066	0.193166	99
Es	-0.570677	-0.219729	0.282771	99
Es	-1.665255	-0.823067	0.220406	99
Es	2.660227	0.204406	-0.905089	99
Es	1.935197	0.198716	-0.968716	99
Es	-2.711581	-0.353913	0.691225	99
Es	1.587986	1.193354	0.701925	99
Es	2.037825	1.721932	0.801722	99
Es	1.305011	0.434245	0.392006	99
45
Properties=species:S:1:pos:R:3:Z:I:1 energy=-345.015103976278 field_type=dipole dipole="0.000000 0.000000 0.000000" charge=0
C	-2.429958	-0.765438	0.145517	6
C	-0.924528	-0.893248	0.294987	6
C	-0.222548	0.452392	0.281877	6
O	-0.826678	1.524462	0.193147	8
C	1.305002	0.434052	0.391977	6
C	1.935232	0.198732	-0.968743	6
O	1.774212	1.678912	0.899217	8
H	-2.901708	-1.751538	0.184257	1
H	-2.690208	-0.298398	-0.809773	1
H	-2.855088	-0.151188	0.945827	1
H	-0.527928	-1.503268	-0.522303	1
H	-0.692658	-1.386368	1.244987	1
H	1.603332	-0.343518	1.101707	1
H	1.653552	0.991412	-1.671603	1
H	1.628692	-0.760108	-1.398133	1
H	3.027862	0.216022	-0.893753	1
H	1.143412	2.357092	0.580807	1
Es	-2.742874	-1.446478	0.172279	99
Es	1.773869	1.678828	0.899047	99
Es	-2.597830	-0.455479	-0.502959	99
Es	2.036655	1.721650	0.798452	99
Es	-0.222552	0.452385	0.281871	99
Es	-0.646476	1.144459	0.474709	99
Es	1.595065	0.303224	-0.294945	99
Es	0.536839	0.434613	0.335472	99
Es	2.660329	0.204510	-0.904910	99
Es	1.935196	0.198716	-0.968718	99
Es	-2.711536	-0.353688	0.690939	99
Es	1.586698	1.192028	0.706834	99
Es	-2.429895	-0.765462	0.145522	99
Es	1.305014	0.434248	0.392009	99
Es	-0.643223	-1.293134	-0.253408	99
Es	-1.665381	-0.822996	0.220520	99
Es	1.732194	0.742854	-1.438557	99
Es	1.721440	-0.463357	-1.251709	99
Es	-0.570421	-0.219550	0.282673	99
Es	-0.826628	1.523976	0.193162	99
Es	-1.131393	1.612340	0.165481	99
Es	1.736656	1.664636	1.143339	99
Es	-0.607851	1.133076	-0.031899	99
Es	-0.754955	-1.210667	0.932978	99
Es	-0.599183	1.668992	0.206772	99
Es	-0.924503	-0.893196	0.294982	99
Es	1.500739	-0.109190	0.869428	99
Es	1.436703	2.043239	0.727487	99
45
Properties=species:S:1:pos:R:3:Z:I:1 energy=-345.015103976278 field_type=dipole dipole="0.000000 0.000000 0.000000" charge=0
C	-2.429958	-0.765438	0.145517	6
C	-0.924528	-0.893248	0.294987	6
C	-0.222548	0.452392	0.281877	6
O	-0.826678	1.524462	0.193147	8
C	1.305002	0.434052	0.391977	6
C	1.935232	0.198732	-0.968743	6
O	1.774212	1.678912	0.899217	8
H	-2.901708	-1.751538	0.184257	1
H	-2.690208	-0.298398	-0.809773	1
H	-2.855088	-0.151188	0.945827	1
H	-0.527928	-1.503268	-0.522303	1
H	-0.692658	-1.386368	1.244987	1
H	1.603332	-0.343518	1.101707	1
H	1.653552	0.991412	-1.671603	1
H	1.628692	-0.760108	-1.398133	1
H	3.027862	0.216022	-0.893753	1
H	1.143412	2.357092	0.580807	1
Es	-0.620475	1.164930	0.479552	99
Es	-2.743914	-1.440849	0.171736	99
Es	0.535360	0.433784	0.335499	99
Es	-0.826285	1.524221	0.193191	99
Es	1.502350	-0.108429	0.868579	99
Es	1.718314	-0.457392	-1.250364	99
Es	1.723853	1.660072	1.134641	99
Es	2.059868	1.724605	0.807694	99
Es	2.667503	0.201284	-0.905738	99
Es	-0.570457	-0.222523	0.283119	99
Es	-2.713287	-0.354904	0.690940	99
Es	-0.641523	-1.291671	-0.253285	99
Es	1.305014	0.434251	0.392002	99
Es	-0.575458	1.146679	-0.028976	99
Es	-0.753228	-1.210065	0.932720	99
Es	-1.664715	-0.823814	0.220565	99
Es	-0.782557	1.840907	0.184646	99
Es	1.729727	0.740894	-1.438755	99
Es	-0.924501	-0.893197	0.294986	99
Es	-1.007718	1.405460	0.179790	99
Es	-0.222552	0.452385	0.281874	99
Es	1.935196	0.198717	-0.968717	99
Es	-2.429894	-0.765459	0.145522	99
Es	1.594316	0.302892	-0.294137	99
Es	-2.599761	-0.456357	-0.502967	99
Es	1.583340	1.196683	0.703749	99
Es	1.430265	2.038597	0.729985	99
Es	1.773916	1.678879	0.899003	99
45
Properties=species:S:1:pos:R:3:Z:I:1 energy=-345.015103976278 field_type=dipole dipole="0.000000 0.000000 0.000000" charge=0
C	-2.429958	-0.765438	0.145517	6
C	-0.924528	-0.893248	0.294987	6
C	-0.222548	0.452392	0.281877	6
O	-0.826678	1.524462	0.193147	8
C	1.305002	0.434052	0.391977	6
C	1.935232	0.198732	-0.968743	6
O	1.774212	1.678912	0.899217	8
H	-2.901708	-1.751538	0.184257	1
H	-2.690208	-0.298398	-0.809773	1
H	-2.855088	-0.151188	0.945827	1
H	-0.527928	-1.503268	-0.522303	1
H	-0.692658	-1.386368	1.244987	1
H	1.603332	-0.343518	1.101707	1
H	1.653552	0.991412	-1.671603	1
H	1.628692	-0.760108	-1.398133	1
H	3.027862	0.216022	-0.893753	1
H	1.143412	2.357092	0.580807	1
Es	1.502495	-0.108539	0.868596	99
Es	1.594283	0.302917	-0.294043	99
Es	1.720052	1.659838	1.128456	99
Es	1.584656	1.195838	0.703495	99
Es	0.535376	0.433896	0.335396	99
Es	2.667653	0.200942	-0.905794	99
Es	-0.753369	-1.209791	0.932769	99
Es	-0.826544	1.524100	0.193151	99
Es	-2.744042	-1.440784	0.171770	99
Es	1.430651	2.038986	0.729533	99
Es	-0.789063	1.840957	0.183992	99
Es	-2.713237	-0.354814	0.690876	99
Es	-1.000915	1.405429	0.179652	99
Es	-1.664608	-0.823987	0.220497	99
Es	-0.641448	-1.291969	-0.253147	99
Es	-0.574058	1.146137	-0.028640	99
Es	1.718125	-0.457090	-1.250241	99
Es	-2.599726	-0.456396	-0.502918	99
Es	-0.222551	0.452385	0.281871	99
Es	1.935196	0.198717	-0.968716	99
Es	-0.621958	1.165566	0.480035	99
Es	-0.570427	-0.222426	0.283027	99
Es	1.305013	0.434247	0.392008	99
Es	2.061926	1.725203	0.814445	99
Es	1.773932	1.678871	0.899021	99
Es	-2.429891	-0.765460	0.145522	99
Es	-0.924503	-0.893196	0.294983	99
Es	1.729680	0.741004	-1.438741	99
45
Properties=species:S:1:pos:R:3:Z:I:1 energy=-345.015103976278 field_type=dipole dipole="0.000000 0.000000 0.000000" charge=0
C	-2.429958	-0.765438	0.145517	6
C	-0.924528	-0.893248	0.294987	6
C	-0.222548	0.452392	0.281877	6
O	-0.826678	1.524462	0.193147	8
C	1.305002	0.434052	0.391977	6
C	1.935232	0.198732	-0.968743	6
O	1.774212	1.678912	0.899217	8
H	-2.901708	-1.751538	0.184257	1
H	-2.690208	-0.298398	-0.809773	1
H	-2.855088	-0.151188	0.945827	1
H	-0.527928	-1.503268	-0.522303	1
H	-0.692658	-1.386368	1.244987	1
H	1.603332	-0.343518	1.101707	1
H	1.653552	0.991412	-1.671603	1
H	1.628692	-0.760108	-1.398133	1
H	3.027862	0.216022	-0.893753	1
H	1.143412	2.357092	0.580807	1
Es	-1.664720	-0.823795	0.220680	99
Es	1.720656	1.660142	1.126333	99
Es	-0.753209	-1.210090	0.932461	99
Es	-0.570174	-0.222208	0.282863	99
Es	2.064820	1.724078	0.812724	99
Es	-0.924503	-0.893196	0.294982	99
Es	-0.983298	1.405399	0.181045	99
Es	-0.621992	1.165800	0.480257	99
Es	1.729694	0.741167	-1.438356	99
Es	0.535303	0.433866	0.335071	99
Es	1.718088	-0.457503	-1.250527	99
Es	-2.599634	-0.456223	-0.502611	99
Es	1.594538	0.302792	-0.294122	99
Es	2.667583	0.201261	-0.905505	99
Es	1.305012	0.434248	0.392006	99
Es	1.581349	1.196718	0.705866	99
Es	1.502363	-0.108509	0.868558	99
Es	-0.808032	1.840204	0.182828	99
Es	-0.641770	-1.291758	-0.252849	99
Es	-2.713146	-0.354904	0.690547	99
Es	1.935197	0.198717	-0.968716	99
Es	-2.429893	-0.765461	0.145522	99
Es	1.774000	1.678889	0.899231	99
Es	-0.573102	1.146649	-0.029082	99
Es	-0.222551	0.452385	0.281871	99
Es	1.430470	2.039075	0.730861	99
Es	-0.826052	1.524105	0.193207	99
Es	-2.744299	-1.441268	0.171708	99
45
Properties=species:S:1:pos:R:3:Z:I:1 energy=-345.015103976278 field_type=dipole dipole="0.000000 0.000000 0.000000" charge=0
C	-2.429958	-0.765438	0.145517	6
C	-0.924528	-0.893248	0.294987	6
C	-0.222548	0.452392	0.281877	6
O	-0.826678	1.524462	0.193147	8
C	1.305002	0.434052	0.391977	6
C	1.935232	0.198732	-0.968743	6
O	1.774212	1.678912	0.899217	8
H	-2.901708	-1.751538	0.184257	1
H	-2.690208	-0.298398	-0.809773	1
H	-2.855088	-0.151188	0.945827	1
H	-0.527928	-1.503268	-0.522303	1
H	-0.692658	-1.386368	1.244987	1
H	1.603332	-0.343518	1.101707	1
H	1.653552	0.991412	-1.671603	1
H	1.628692	-0.760108	-1.398133	1
H	3.027862	0.216022	-0.893753	1
H	1.143412	2.357092	0.580807	1
Es	-2.429893	-0.765460	0.145522	99
Es	1.935196	0.198716	-0.968717	99
Es	1.729416	0.741184	-1.438362	99
Es	1.722264	1.660852	1.125793	99
Es	0.535163	0.433815	0.335107	99
Es	-0.924504	-0.893196	0.294983	99
Es	-2.713227	-0.354783	0.690527	99
Es	-2.744253	-1.441303	0.171724	99
Es	-0.222552	0.452385	0.281873	99
Es	1.502818	-0.108623	0.868255	99
Es	1.430264	2.039200	0.731483	99
Es	-0.641638	-1.291923	-0.252780	99
Es	1.718006	-0.457387	-1.250272	99
Es	-0.573610	1.146044	-0.028826	99
Es	1.594365	0.302923	-0.294134	99
Es	2.667778	0.201184	-0.905460	99
Es	-0.621483	1.166368	0.479975	99
Es	-0.753273	-1.209895	0.932239	99
Es	-0.570106	-0.222138	0.283011	99
Es	1.773927	1.678860	0.898899	99
Es	-0.978870	1.405445	0.182006	99
Es	-2.599597	-0.456373	-0.502572	99
Es	1.305012	0.434247	0.392006	99
Es	2.063798	1.723981	0.811262	99
Es	-1.664811	-0.823821	0.220705	99
Es	-0.812395	1.840119	0.181909	99
Es	-0.826177	1.524167	0.193197	99
Es	1.581079	1.195992	0.707499	99
45
Properties=species:S:1:pos:R:3:Z:I:1 energy=-345.015103976278 field_type=dipole dipole="0.000000 0.000000 0.000000" charge=0
C	-2.429958	-0.765438	0.145517	6
C	-0.924528	-0.893248	0.294987	6
C	-0.222548	0.452392	0.281877	6
O	-0.826678	1.524462	0.193147	8
C	1.305002	0.434052	0.391977	6
C	1.935232	0.198732	-0.968743	6
O	1.774212	1.678912	0.899217	8
H	-2.901708	-1.751538	0.184257	1
H	-2.690208	-0.298398	-0.809773	1
H	-2.855088	-0.151188	0.945827	1
H	-0.527928	-1.503268	-0.522303	1
H	-0.692658	-1.386368	1.244987	1
H	1.603332	-0.343518	1.101707	1
H	1.653552	0.991412	-1.671603	1
H	1.628692	-0.760108	-1.398133	1
H	3.027862	0.216022	-0.893753	1
H	1.143412	2.357092	0.580807	1
Es	1.594434	0.302969	-0.294171	99
Es	-0.924504	-0.893196	0.294983	99
Es	-2.429892	-0.765460	0.145523	99
Es	1.502835	-0.108598	0.868238	99
Es	-0.641635	-1.291897	-0.252670	99
Es	-2.744438	-1.441437	0.171805	99
Es	1.935197	0.198717	-0.968717	99
Es	1.773942	1.678880	0.899068	99
Es	1.581295	1.195694	0.707975	99
Es	-0.753287	-1.209908	0.932260	99
Es	-0.819296	1.839535	0.182181	99
Es	1.729485	0.741219	-1.438284	99
Es	-0.621438	1.164480	0.480229	99
Es	1.721748	1.660832	1.122790	99
Es	-0.826119	1.524194	0.193201	99
Es	1.717856	-0.457496	-1.250266	99
Es	-2.713107	-0.354581	0.690411	99
Es	1.429780	2.039134	0.732476	99
Es	2.667750	0.201158	-0.905452	99
Es	-0.573562	1.148057	-0.029105	99
Es	-0.222552	0.452385	0.281874	99
Es	-1.664767	-0.823795	0.220413	99
Es	1.305012	0.434248	0.392007	99
Es	-2.599600	-0.456502	-0.502328	99
Es	2.064607	1.724412	0.812581	99
Es	-0.972090	1.405878	0.181656	99
Es	-0.570088	-0.222155	0.283022	99
Es	0.535134	0.433814	0.335152	99
45
Properties=species:S:1:pos:R:3:Z:I:1 energy=-345.015103976278 field_type=dipole dipole="0.000000 0.000000 0.000000" charge=0
C	-2.429958	-0.765438	0.145517	6
C	-0.924528	-0.893248	0.294987	6
C	-0.222548	0.452392	0.281877	6
O	-0.826678	1.524462	0.193147	8
C	1.305002	0.434052	0.391977	6
C	1.935232	0.198732	-0.968743	6
O	1.774212	1.678912	0.899217	8
H	-2.901708	-1.751538	0.184257	1
H	-2.690208	-0.298398	-0.809773	1
H	-2.855088	-0.151188	0.945827	1
H	-0.527928	-1.503268	-0.522303	1
H	-0.692658	-1.386368	1.244987	1
H	1.603332	-0.343518	1.101707	1
H	1.653552	0.991412	-1.671603	1
H	1.628692	-0.760108	-1.398133	1
H	3.027862	0.216022	-0.893753	1
H	1.143412	2.357092	0.580807	1
Es	-0.755095	-1.210736	0.932150	99
Es	1.583170	1.190968	0.713986	99
Es	1.501240	-0.109503	0.868913	99
Es	-0.643534	-1.293274	-0.252538	99
Es	-0.611344	1.134295	-0.032817	99
Es	1.436622	2.044325	0.730592	99
Es	1.935196	0.198717	-0.968716	99
Es	-0.924501	-0.893195	0.294983	99
Es	-1.102868	1.669984	0.165801	99
Es	1.720822	-0.463979	-1.251440	99
Es	-0.570003	-0.218904	0.282655	99
Es	2.047813	1.721894	0.807833	99
Es	-2.743506	-1.447262	0.172256	99
Es	1.729467	1.664673	1.123437	99
Es	1.773736	1.678811	0.899175	99
Es	-2.429893	-0.765461	0.145522	99
Es	1.731948	0.743304	-1.437854	99
Es	-2.597625	-0.455694	-0.501894	99
Es	-1.665313	-0.822980	0.220307	99
Es	2.660382	0.204639	-0.904542	99
Es	-0.652110	1.140119	0.473622	99
Es	0.536598	0.434644	0.334949	99
Es	1.595459	0.303507	-0.295209	99
Es	-0.618461	1.614804	0.208469	99
Es	-0.222552	0.452384	0.281870	99
Es	1.305012	0.434247	0.392006	99
Es	-0.826639	1.523554	0.193168	99
Es	-2.711326	-0.353300	0.690166	99
45
Properties=species:S:1:pos:R:3:Z:I:1 energy=-345.015103976278 field_type=dipole dipole="0.000000 0.000000 0.000000" charge=0
C	-2.429958	-0.765438	0.145517	6
C	-0.924528	-0.893248	0.294987	6
C	-0.222548	0.452392	0.281877	6
O	-0.826678	1.524462	0.193147	8
C	1.305002	0.434052	0.391977	6
C	1.935232	0.198732	-0.968743	6
O	1.774212	1.678912	0.899217	8
H	-2.901708	-1.751538	0.184257	1
H	-2.690208	-0.298398	-0.809773	1
H	-2.855088	-0.151188	0.945827	1
H	-0.527928	-1.503268	-0.522303	1
H	-0.692658	-1.386368	1.244987	1
H	1.603332	-0.343518	1.101707	1
H	1.653552	0.991412	-1.671603	1
H	1.628692	-0.760108	-1.398133	1
H	3.027862	0.216022	-0.893753	1
H	1.143412	2.357092	0.580807	1
Es	-2.711432	-0.353017	0.690030	99
Es	1.935196	0.198716	-0.968717	99
Es	-0.755132	-1.210602	0.931935	99
Es	1.583037	1.190623	0.715800	99
Es	-2.429892	-0.765461	0.145522	99
Es	2.660488	0.204759	-0.904358	99
Es	-0.650707	1.137990	0.472811	99
Es	-0.643457	-1.293409	-0.252523	99
Es	-0.569983	-0.218815	0.282804	99
Es	-0.222552	0.452385	0.281874	99
Es	-1.102171	1.671799	0.167092	99
Es	1.305011	0.434245	0.392005	99
Es	1.733793	1.665319	1.125966	99
Es	1.595561	0.303617	-0.295460	99
Es	1.720706	-0.464167	-1.251221	99
Es	1.773948	1.678866	0.899030	99
Es	0.536508	0.434623	0.334852	99
Es	-0.826414	1.524186	0.193167	99
Es	-0.619532	1.612364	0.208029	99
Es	-2.743541	-1.447361	0.172265	99
Es	-0.612629	1.136397	-0.032912	99
Es	-2.597452	-0.455949	-0.501755	99
Es	2.044774	1.722124	0.801782	99
Es	1.435246	2.043773	0.732457	99
Es	1.501556	-0.109653	0.868649	99
Es	-0.924503	-0.893196	0.294983	99
Es	-1.665373	-0.823013	0.220382	99
Es	1.731644	0.743435	-1.437638	99
45
Properties=species:S:1:pos:R:3:Z:I:1 energy=-345.015103976278 field_type=dipole dipole="0.000000 0.000000 0.000000" charge=0
C	-2.429958	-0.765438	0.145517	6
C	-0.924528	-0.893248	0.294987	6
C	-0.222548	0.452392	0.281877	6
O	-0.826678	1.524462	0.193147	8
C	1.305002	0.434052	0.391977	6
C	1.935232	0.198732	-0.968743	6
O	1.774212	1.678912	0.899217	8
H	-2.901708	-1.751538	0.184257	1
H	-2.690208	-0.298398	-0.809773	1
H	-2.855088	-0.151188	0.945827	1
H	-0.527928	-1.503268	-0.522303	1
H	-0.692658	-1.386368	1.244987	1
H	1.603332	-0.343518	1.101707	1
H	1.653552	0.991412	-1.671603	1
H	1.628692	-0.760108	-1.398133	1
H	3.027862	0.216022	-0.893753	1
H	1.143412	2.357092	0.580807	1
Es	2.667827	0.201124	-0.905459	99
Es	1.580315	1.195155	0.710867	99
Es	-2.744503	-1.441492	0.171748	99
Es	1.717754	-0.457502	-1.250163	99
Es	-0.959125	1.407531	0.182607	99
Es	-0.622309	1.164632	0.480308	99
Es	2.065904	1.723942	0.814465	99
Es	-2.429892	-0.765460	0.145522	99
Es	-0.222552	0.452386	0.281867	99
Es	1.935196	0.198716	-0.968716	99
Es	-2.599447	-0.456660	-0.502197	99
Es	-1.664729	-0.823753	0.220626	99
Es	1.503173	-0.108902	0.867937	99
Es	1.721481	1.661415	1.117399	99
Es	0.535175	0.433806	0.334968	99
Es	1.773977	1.678874	0.898795	99
Es	-0.573050	1.147622	-0.029233	99
Es	1.305011	0.434247	0.392006	99
Es	1.729150	0.741472	-1.438006	99
Es	-0.753432	-1.209808	0.931928	99
Es	1.429688	2.039592	0.733346	99
Es	-0.826212	1.524238	0.193192	99
Es	-2.713262	-0.354439	0.690258	99
Es	1.594431	0.303018	-0.294102	99
Es	-0.569844	-0.221955	0.283065	99
Es	-0.831762	1.838150	0.181319	99
Es	-0.924503	-0.893196	0.294983	99
Es	-0.641764	-1.292173	-0.252476	99
45
Properties=species:S:1:pos:R:3:Z:I:1 energy=-345.015103976278 field_type=dipole dipole="0.000000 0.000000 0.000000" charge=0
C	-2.429958	-0.765438	0.145517	6
C	-0.924528	-0.893248	0.294987	6
C	-0.222548	0.452392	0.281877	6
O	-0.826678	1.524462	0.193147	8
C	1.305002	0.434052	0.391977	6
C	1.935232	0.198732	-0.968743	6
O	1.774212	1.678912	0.899217	8
H	-2.901708	-1.751538	0.184257	1
H	-2.690208	-0.298398	-0.809773	1
H	-2.855088	-0.151188	0.945827	1
H	-0.527928	-1.503268	-0.522303	1
H	-0.692658	-1.386368	1.244987	1
H	1.603332	-0.343518	1.101707	1
H	1.653552	0.991412	-1.671603	1
H	1.628692	-0.760108	-1.398133	1
H	3.027862	0.216022	-0.893753	1
H	1.143412	2.357092	0.580807	1
Es	-0.826588	1.524074	0.193164	99
Es	1.935196	0.198716	-0.968717	99
Es	1.720681	-0.464069	-1.251266	99
Es	-2.429892	-0.765460	0.145523	99
Es	-0.569956	-0.218679	0.282699	99
Es	-0.643478	-1.293434	-0.252303	99
Es	-0.623817	1.605119	0.208072	99
Es	-0.611427	1.132838	-0.032768	99
Es	-0.755092	-1.210540	0.931832	99
Es	1.595551	0.303534	-0.295256	99
Es	-2.597424	-0.455888	-0.501653	99
Es	-1.096892	1.679336	0.165748	99
Es	2.660508	0.204670	-0.904411	99
Es	1.435839	2.044090	0.731756	99
Es	-0.924504	-0.893193	0.294983	99
Es	-2.743815	-1.447236	0.172210	99
Es	1.501669	-0.109657	0.868617	99
Es	-1.665165	-0.823352	0.220486	99
Es	1.731606	0.743528	-1.437573	99
Es	1.305012	0.434248	0.392006	99
Es	1.582924	1.190240	0.717428	99
Es	1.730685	1.665332	1.120550	99
Es	2.047376	1.722158	0.806094	99
Es	1.774012	1.678887	0.899097	99
Es	-0.652741	1.141358	0.474070	99
Es	-0.222552	0.452385	0.281872	99
Es	-2.711419	-0.353077	0.689894	99
Es	0.536400	0.434651	0.334702	99
