48
Properties=species:S:1:pos:R:3:Z:I:1 energy=-346.1584119930105 field_type=dipole dipole="0.000000 0.000000 0.000000" charge=0
C	-1.808464	2.271906	-0.699716	6
C	-1.270704	1.317086	0.350804	6
C	-0.683694	0.056906	-0.274286	6
O	-0.175274	-0.761584	0.776844	8
C	0.405986	-1.961224	0.281234	6
O	1.594526	-1.734394	-0.469276	8
C	2.631216	-1.190814	0.338394	6
H	-2.227574	3.162716	-0.222446	1
H	-2.597944	1.799507	-1.292096	1
H	-1.013434	2.593176	-1.379526	1
H	-2.070294	1.041546	1.049114	1
H	-0.504474	1.819506	0.952804	1
H	-1.458854	-0.488954	-0.824296	1
H	0.123956	0.324176	-0.964976	1
H	-0.311994	-2.488533	-0.356566	1
H	0.626006	-2.617304	1.130704	1
H	3.533406	-1.111734	-0.273276	1
H	2.843866	-1.843014	1.189784	1
H	2.363736	-0.188973	0.686784	1
Es	0.406104	-1.960945	0.281183	99
Es	-0.683625	0.056781	-0.274095	99
Es	1.594476	-1.734274	-0.468924	99
Es	-1.219146	-0.322541	-0.658014	99
Es	2.631048	-1.190913	0.338265	99
Es	1.160342	-1.803371	-0.157423	99
Es	-1.263070	2.487712	-1.163824	99
Es	-2.093586	2.877663	-0.373733	99
Es	2.452060	-0.507495	0.581267	99
Es	-1.539141	1.791329	-0.183369	99
Es	-0.086497	-2.317125	-0.167044	99
Es	1.684648	-2.014145	-0.552299	99
Es	0.040987	-1.205450	0.557225	99
Es	-0.742372	1.661284	0.754050	99
Es	-1.808454	2.271886	-0.699699	99
Es	1.521227	-1.518443	-0.673503	99
Es	0.562532	-2.404861	0.872624	99
Es	2.772186	-1.638387	0.928185	99
Es	-2.346488	1.944858	-1.103994	99
Es	-1.821344	1.126317	0.821231	99
Es	1.965742	-1.529724	-0.133199	99
Es	3.245986	-1.138686	-0.078430	99
Es	0.057041	-0.606085	0.902095	99
Es	-0.133259	0.243465	-0.750902	99
Es	-1.270704	1.317080	0.350744	99
Es	-0.175262	-0.761676	0.776551	99
Es	-0.978053	0.684497	0.035117	99
Es	-0.356410	-0.480889	0.356296	99
Es	-0.416000	-0.854904	0.940483	99
48
Properties=species:S:1:pos:R:3:Z:I:1 energy=-346.1584119930105 field_type=dipole dipole="0.000000 0.000000 0.000000" charge=0
C	-1.808464	2.271906	-0.699716	6
C	-1.270704	1.317086	0.350804	6
C	-0.683694	0.056906	-0.274286	6
O	-0.175274	-0.761584	0.776844	8
C	0.405986	-1.961224	0.281234	6
O	1.594526	-1.734394	-0.469276	8
C	2.631216	-1.190814	0.338394	6
H	-2.227574	3.162716	-0.222446	1
H	-2.597944	1.799507	-1.292096	1
H	-1.013434	2.593176	-1.379526	1
H	-2.070294	1.041546	1.049114	1
H	-0.504474	1.819506	0.952804	1
H	-1.458854	-0.488954	-0.824296	1
H	0.123956	0.324176	-0.964976	1
H	-0.311994	-2.488533	-0.356566	1
H	0.626006	-2.617304	1.130704	1
H	3.533406	-1.111734	-0.273276	1
H	2.843866	-1.843014	1.189784	1
H	2.363736	-0.188973	0.686784	1
Es	-0.683625	0.056782	-0.274095	99
Es	-2.346595	1.944676	-1.103971	99
Es	-0.086605	-2.317210	-0.167015	99
Es	-0.418175	-0.855998	0.940234	99
Es	-2.093576	2.877578	-0.373579	99
Es	0.057649	-0.605963	0.902633	99
Es	3.246285	-1.138573	-0.078513	99
Es	-0.354862	-0.481157	0.356446	99
Es	1.159912	-1.804889	-0.157218	99
Es	2.631049	-1.190910	0.338263	99
Es	-1.539024	1.791395	-0.183461	99
Es	-0.742239	1.661340	0.753999	99
Es	-0.978022	0.684509	0.035070	99
Es	1.520926	-1.517284	-0.669456	99
Es	-1.219290	-0.322511	-0.657918	99
Es	-0.175252	-0.761630	0.776689	99
Es	-1.270705	1.317084	0.350748	99
Es	-1.262808	2.487728	-1.163819	99
Es	1.594495	-1.734330	-0.468958	99
Es	0.406105	-1.960947	0.281181	99
Es	-1.821692	1.126346	0.821273	99
Es	-0.133199	0.243486	-0.751000	99
Es	1.684343	-2.012464	-0.556677	99
Es	2.772065	-1.638239	0.928023	99
Es	2.451963	-0.507729	0.581467	99
Es	0.562446	-2.404734	0.872493	99
Es	1.966822	-1.531014	-0.132978	99
Es	-1.808454	2.271887	-0.699700	99
Es	0.041030	-1.204269	0.556703	99
48
Properties=species:S:1:pos:R:3:Z:I:1 energy=-346.1584119930105 field_type=dipole dipole="0.000000 0.000000 0.000000" charge=0
C	-1.808464	2.271906	-0.699716	6
C	-1.270704	1.317086	0.350804	6
C	-0.683694	0.056906	-0.274286	6
O	-0.175274	-0.761584	0.776844	8
C	0.405986	-1.961224	0.281234	6
O	1.594526	-1.734394	-0.469276	8
C	2.631216	-1.190814	0.338394	6
H	-2.227574	3.162716	-0.222446	1
H	-2.597944	1.799507	-1.292096	1
H	-1.013434	2.593176	-1.379526	1
H	-2.070294	1.041546	1.049114	1
H	-0.504474	1.819506	0.952804	1
H	-1.458854	-0.488954	-0.824296	1
H	0.123956	0.324176	-0.964976	1
H	-0.311994	-2.488533	-0.356566	1
H	0.626006	-2.617304	1.130704	1
H	3.533406	-1.111734	-0.273276	1
H	2.843866	-1.843014	1.189784	1
H	2.363736	-0.188973	0.686784	1
Es	-2.346726	1.944660	-1.103939	99
Es	-0.354331	-0.481347	0.356403	99
Es	-0.133089	0.243640	-0.751006	99
Es	3.246386	-1.138606	-0.078507	99
Es	-0.175245	-0.761648	0.776539	99
Es	0.056925	-0.605250	0.904317	99
Es	0.562572	-2.404580	0.872474	99
Es	-1.270705	1.317082	0.350747	99
Es	-0.978044	0.684489	0.035067	99
Es	0.041975	-1.203776	0.556728	99
Es	2.631045	-1.190911	0.338267	99
Es	2.771967	-1.638149	0.928042	99
Es	-2.093527	2.877351	-0.373573	99
Es	-0.683623	0.056784	-0.274097	99
Es	-1.262589	2.487855	-1.163866	99
Es	1.966409	-1.529214	-0.133427	99
Es	-0.742149	1.661369	0.753944	99
Es	1.684647	-2.013093	-0.553658	99
Es	0.406104	-1.960946	0.281180	99
Es	1.159033	-1.803548	-0.157576	99
Es	-1.219379	-0.322557	-0.657917	99
Es	2.451967	-0.507769	0.581435	99
Es	-1.808454	2.271886	-0.699700	99
Es	1.594498	-1.734314	-0.468902	99
Es	1.521864	-1.519767	-0.671705	99
Es	-0.086670	-2.317383	-0.167044	99
Es	-0.418977	-0.856969	0.938709	99
Es	-1.539049	1.791410	-0.183406	99
Es	-1.821872	1.126263	0.821336	99
48
Properties=species:S:1:pos:R:3:Z:I:1 energy=-346.1584119930105 field_type=dipole dipole="0.000000 0.000000 0.000000" charge=0
C	-1.808464	2.271906	-0.699716	6
C	-1.270704	1.317086	0.350804	6
C	-0.683694	0.056906	-0.274286	6
O	-0.175274	-0.761584	0.776844	8
C	0.405986	-1.961224	0.281234	6
O	1.594526	-1.734394	-0.469276	8
C	2.631216	-1.190814	0.338394	6
H	-2.227574	3.162716	-0.222446	1
H	-2.597944	1.799507	-1.292096	1
H	-1.013434	2.593176	-1.379526	1
H	-2.070294	1.041546	1.049114	1
H	-0.504474	1.819506	0.952804	1
H	-1.458854	-0.488954	-0.824296	1
H	0.123956	0.324176	-0.964976	1
H	-0.311994	-2.488533	-0.356566	1
H	0.626006	-2.617304	1.130704	1
H	3.533406	-1.111734	-0.273276	1
H	2.843866	-1.843014	1.189784	1
H	2.363736	-0.188973	0.686784	1
Es	0.040416	-1.204450	0.556686	99
Es	-0.742050	1.661491	0.753983	99
Es	-2.346870	1.944548	-1.103879	99
Es	-0.086704	-2.317475	-0.166967	99
Es	1.159079	-1.804072	-0.157628	99
Es	-1.219451	-0.322522	-0.657895	99
Es	-0.133067	0.243631	-0.751026	99
Es	-1.270706	1.317084	0.350750	99
Es	3.246558	-1.138575	-0.078524	99
Es	2.771895	-1.638024	0.927960	99
Es	-1.822041	1.126244	0.821277	99
Es	-0.418533	-0.855160	0.942118	99
Es	0.406103	-1.960950	0.281183	99
Es	-1.538988	1.791406	-0.183461	99
Es	1.594513	-1.734409	-0.468857	99
Es	-0.683618	0.056781	-0.274090	99
Es	0.562567	-2.404473	0.872473	99
Es	1.966468	-1.528723	-0.133464	99
Es	2.631045	-1.190914	0.338261	99
Es	1.521472	-1.519961	-0.670654	99
Es	0.058557	-0.605880	0.900806	99
Es	-0.978006	0.684529	0.034991	99
Es	1.684868	-2.012801	-0.554680	99
Es	-2.093468	2.877222	-0.373475	99
Es	-1.262458	2.487926	-1.163916	99
Es	2.451966	-0.507900	0.581520	99
Es	-0.175282	-0.761685	0.776519	99
Es	-1.808454	2.271886	-0.699699	99
Es	-0.354844	-0.481817	0.356554	99
48
Properties=species:S:1:pos:R:3:Z:I:1 energy=-346.1584119930105 field_type=dipole dipole="0.000000 0.000000 0.000000" charge=0
C	-1.808464	2.271906	-0.699716	6
C	-1.270704	1.317086	0.350804	6
C	-0.683694	0.056906	-0.274286	6
O	-0.175274	-0.761584	0.776844	8
C	0.405986	-1.961224	0.281234	6
O	1.594526	-1.734394	-0.469276	8
C	2.631216	-1.190814	0.338394	6
H	-2.227574	3.162716	-0.222446	1
H	-2.597944	1.799507	-1.292096	1
H	-1.013434	2.593176	-1.379526	1
H	-2.070294	1.041546	1.049114	1
H	-0.504474	1.819506	0.952804	1
H	-1.458854	-0.488954	-0.824296	1
H	0.123956	0.324176	-0.964976	1
H	-0.311994	-2.488533	-0.356566	1
H	0.626006	-2.617304	1.130704	1
H	3.533406	-1.111734	-0.273276	1
H	2.843866	-1.843014	1.189784	1
H	2.363736	-0.188973	0.686784	1
Es	2.771890	-1.638044	0.927925	99
Es	-2.093514	2.877141	-0.373461	99
Es	-1.262406	2.487999	-1.163957	99
Es	0.406103	-1.960947	0.281183	99
Es	-0.977913	0.684578	0.034966	99
Es	-1.270706	1.317084	0.350749	99
Es	1.966704	-1.528130	-0.133576	99
Es	-1.219536	-0.322555	-0.657919	99
Es	-1.822087	1.126210	0.821358	99
Es	-0.133064	0.243632	-0.750990	99
Es	-1.538977	1.791444	-0.183440	99
Es	0.041151	-1.203710	0.556426	99
Es	-0.175238	-0.761669	0.776487	99
Es	0.057978	-0.605209	0.903482	99
Es	1.684482	-2.013161	-0.552803	99
Es	3.246601	-1.138502	-0.078585	99
Es	-1.808453	2.271886	-0.699699	99
Es	0.562484	-2.404619	0.872450	99
Es	-2.346861	1.944524	-1.103841	99
Es	1.522373	-1.521629	-0.671960	99
Es	-0.683625	0.056782	-0.274094	99
Es	1.158479	-1.802851	-0.158022	99
Es	-0.742045	1.661466	0.753914	99
Es	2.631052	-1.190909	0.338266	99
Es	1.594434	-1.734187	-0.468898	99
Es	-0.086662	-2.317333	-0.166981	99
Es	-0.419776	-0.856569	0.939665	99
Es	-0.353785	-0.481806	0.356645	99
Es	2.451883	-0.507955	0.581574	99
48
Properties=species:S:1:pos:R:3:Z:I:1 energy=-346.1584119930105 field_type=dipole dipole="0.000000 0.000000 0.000000" charge=0
C	-1.808464	2.271906	-0.699716	6
C	-1.270704	1.317086	0.350804	6
C	-0.683694	0.056906	-0.274286	6
O	-0.175274	-0.761584	0.776844	8
C	0.405986	-1.961224	0.281234	6
O	1.594526	-1.734394	-0.469276	8
C	2.631216	-1.190814	0.338394	6
H	-2.227574	3.162716	-0.222446	1
H	-2.597944	1.799507	-1.292096	1
H	-1.013434	2.593176	-1.379526	1
H	-2.070294	1.041546	1.049114	1
H	-0.504474	1.819506	0.952804	1
H	-1.458854	-0.488954	-0.824296	1
H	0.123956	0.324176	-0.964976	1
H	-0.311994	-2.488533	-0.356566	1
H	0.626006	-2.617304	1.130704	1
H	3.533406	-1.111734	-0.273276	1
H	2.843866	-1.843014	1.189784	1
H	2.363736	-0.188973	0.686784	1
Es	0.406100	-1.960950	0.281183	99
Es	-0.132953	0.243712	-0.751050	99
Es	0.059279	-0.605455	0.901027	99
Es	2.451919	-0.507922	0.581553	99
Es	1.594518	-1.734393	-0.468862	99
Es	-0.741952	1.661609	0.753872	99
Es	-1.822131	1.126221	0.821368	99
Es	-0.354915	-0.482167	0.356743	99
Es	-0.977980	0.684476	0.034974	99
Es	2.631050	-1.190911	0.338262	99
Es	-1.539067	1.791303	-0.183455	99
Es	1.522598	-1.522395	-0.673627	99
Es	3.246627	-1.138576	-0.078560	99
Es	-1.808454	2.271886	-0.699700	99
Es	1.158262	-1.802725	-0.157884	99
Es	-0.175203	-0.761659	0.776496	99
Es	-1.262346	2.487895	-1.163942	99
Es	1.684763	-2.013051	-0.550904	99
Es	0.040039	-1.204059	0.556284	99
Es	-1.270706	1.317082	0.350749	99
Es	0.562544	-2.404422	0.872457	99
Es	-2.093334	2.877180	-0.373358	99
Es	-0.418915	-0.855568	0.942027	99
Es	-0.683622	0.056780	-0.274093	99
Es	1.966324	-1.527395	-0.133997	99
Es	-0.086727	-2.317516	-0.166918	99
Es	-2.347021	1.944569	-1.103846	99
Es	2.771847	-1.638008	0.927926	99
Es	-1.219579	-0.322580	-0.657861	99
48
Properties=species:S:1:pos:R:3:Z:I:1 energy=-346.1584119930105 field_type=dipole dipole="0.000000 0.000000 0.000000" charge=0
C	-1.808464	2.271906	-0.699716	6
C	-1.270704	1.317086	0.350804	6
C	-0.683694	0.056906	-0.274286	6
O	-0.175274	-0.761584	0.776844	8
C	0.405986	-1.961224	0.281234	6
O	1.594526	-1.734394	-0.469276	8
C	2.631216	-1.190814	0.338394	6
H	-2.227574	3.162716	-0.222446	1
H	-2.597944	1.799507	-1.292096	1
H	-1.013434	2.593176	-1.379526	1
H	-2.070294	1.041546	1.049114	1
H	-0.504474	1.819506	0.952804	1
H	-1.458854	-0.488954	-0.824296	1
H	0.123956	0.324176	-0.964976	1
H	-0.311994	-2.488533	-0.356566	1
H	0.626006	-2.617304	1.130704	1
H	3.533406	-1.111734	-0.273276	1
H	2.843866	-1.843014	1.189784	1
H	2.363736	-0.188973	0.686784	1
Es	1.158924	-1.806276	-0.157105	99
Es	-1.539019	1.791426	-0.183493	99
Es	1.966900	-1.529488	-0.133498	99
Es	0.057520	-0.604637	0.904765	99
Es	-1.270704	1.317084	0.350749	99
Es	-0.354127	-0.481800	0.356793	99
Es	-0.419680	-0.857490	0.938417	99
Es	-0.132910	0.243776	-0.751120	99
Es	-0.741949	1.661512	0.753806	99
Es	1.594507	-1.734321	-0.468961	99
Es	-0.683623	0.056780	-0.274093	99
Es	-1.808454	2.271886	-0.699699	99
Es	-0.175285	-0.761688	0.776502	99
Es	-2.347018	1.944522	-1.103733	99
Es	2.631052	-1.190910	0.338262	99
Es	-2.093417	2.876988	-0.373398	99
Es	1.685445	-2.011273	-0.559113	99
Es	1.520672	-1.518556	-0.666559	99
Es	0.041846	-1.203295	0.556252	99
Es	2.451910	-0.508054	0.581505	99
Es	-1.219642	-0.322536	-0.657800	99
Es	-1.262288	2.488072	-1.164068	99
Es	0.406104	-1.960946	0.281184	99
Es	0.562537	-2.404471	0.872436	99
Es	-0.086719	-2.317487	-0.166967	99
Es	-1.822162	1.126141	0.821456	99
Es	-0.977950	0.684468	0.034935	99
Es	2.771806	-1.637980	0.928004	99
Es	3.246690	-1.138486	-0.078597	99
48
Properties=species:S:1:pos:R:3:Z:I:1 energy=-346.1584119930105 field_type=dipole dipole="0.000000 0.000000 0.000000" charge=0
C	-1.808464	2.271906	-0.699716	6
C	-1.270704	1.317086	0.350804	6
C	-0.683694	0.056906	-0.274286	6
O	-0.175274	-0.761584	0.776844	8
C	0.405986	-1.961224	0.281234	6
O	1.594526	-1.734394	-0.469276	8
C	2.631216	-1.190814	0.338394	6
H	-2.227574	3.162716	-0.222446	1
H	-2.597944	1.799507	-1.292096	1
H	-1.013434	2.593176	-1.379526	1
H	-2.070294	1.041546	1.049114	1
H	-0.504474	1.819506	0.952804	1
H	-1.458854	-0.488954	-0.824296	1
H	0.123956	0.324176	-0.964976	1
H	-0.311994	-2.488533	-0.356566	1
H	0.626006	-2.617304	1.130704	1
H	3.533406	-1.111734	-0.273276	1
H	2.843866	-1.843014	1.189784	1
H	2.363736	-0.188973	0.686784	1
Es	1.521337	-1.521035	-0.671286	99
Es	-1.808454	2.271886	-0.699699	99
Es	0.562516	-2.404431	0.872393	99
Es	1.594477	-1.734264	-0.468909	99
Es	-0.354196	-0.482669	0.356492	99
Es	2.451915	-0.508024	0.581625	99
Es	-0.977916	0.684486	0.034906	99
Es	2.631051	-1.190911	0.338263	99
Es	-1.219642	-0.322545	-0.657848	99
Es	0.406104	-1.960945	0.281183	99
Es	-2.347032	1.944435	-1.103864	99
Es	3.246746	-1.138543	-0.078582	99
Es	-1.262251	2.488081	-1.163921	99
Es	2.771803	-1.637915	0.927850	99
Es	0.040815	-1.203987	0.556775	99
Es	-0.419706	-0.855815	0.940944	99
Es	-1.538947	1.791370	-0.183291	99
Es	-1.822298	1.126176	0.821376	99
Es	-1.270706	1.317084	0.350749	99
Es	-2.093418	2.876981	-0.373459	99
Es	0.058638	-0.604792	0.901967	99
Es	-0.741930	1.661648	0.753854	99
Es	-0.132923	0.243759	-0.751073	99
Es	-0.086748	-2.317507	-0.166945	99
Es	1.158871	-1.804869	-0.157446	99
Es	1.966144	-1.527528	-0.133847	99
Es	-0.683626	0.056782	-0.274096	99
Es	1.685599	-2.012290	-0.553723	99
Es	-0.175257	-0.761660	0.776475	99
48
Properties=species:S:1:pos:R:3:Z:I:1 energy=-346.1584119930105 field_type=dipole dipole="0.000000 0.000000 0.000000" charge=0
C	-1.808464	2.271906	-0.699716	6
C	-1.270704	1.317086	0.350804	6
C	-0.683694	0.056906	-0.274286	6
O	-0.175274	-0.761584	0.776844	8
C	0.405986	-1.961224	0.281234	6
O	1.594526	-1.734394	-0.469276	8
C	2.631216	-1.190814	0.338394	6
H	-2.227574	3.162716	-0.222446	1
H	-2.597944	1.799507	-1.292096	1
H	-1.013434	2.593176	-1.379526	1
H	-2.070294	1.041546	1.049114	1
H	-0.504474	1.819506	0.952804	1
H	-1.458854	-0.488954	-0.824296	1
H	0.123956	0.324176	-0.964976	1
H	-0.311994	-2.488533	-0.356566	1
H	0.626006	-2.617304	1.130704	1
H	3.533406	-1.111734	-0.273276	1
H	2.843866	-1.843014	1.189784	1
H	2.363736	-0.188973	0.686784	1
Es	-1.219673	-0.322554	-0.657888	99
Es	2.451881	-0.507921	0.581498	99
Es	-0.977953	0.684475	0.034959	99
Es	2.631051	-1.190911	0.338263	99
Es	0.057979	-0.605460	0.903052	99
Es	-2.093404	2.876993	-0.373359	99
Es	-0.741869	1.661607	0.753876	99
Es	1.157652	-1.803205	-0.158026	99
Es	1.967587	-1.529972	-0.133359	99
Es	-2.347053	1.944419	-1.103842	99
Es	3.246714	-1.138617	-0.078549	99
Es	2.771775	-1.637900	0.927946	99
Es	-1.270706	1.317084	0.350750	99
Es	-0.420255	-0.856997	0.940256	99
Es	1.522893	-1.520451	-0.669315	99
Es	1.683874	-2.012045	-0.555575	99
Es	0.041380	-1.203101	0.556398	99
Es	0.562533	-2.404425	0.872396	99
Es	-0.683624	0.056782	-0.274096	99
Es	-1.822285	1.126231	0.821355	99
Es	-0.175216	-0.761674	0.776491	99
Es	0.406106	-1.960944	0.281185	99
Es	-1.262202	2.488057	-1.163935	99
Es	-0.086748	-2.317544	-0.166930	99
Es	-0.353631	-0.481692	0.356463	99
Es	-0.132913	0.243750	-0.751022	99
Es	1.594496	-1.734320	-0.468965	99
Es	-1.538969	1.791407	-0.183465	99
Es	-1.808454	2.271886	-0.699699	99
48
Properties=species:S:1:pos:R:3:Z:I:1 energy=-346.1584119930105 field_type=dipole dipole="0.000000 0.000000 0.000000" charge=0
C	-1.808464	2.271906	-0.699716	6
C	-1.270704	1.317086	0.350804	6
C	-0.683694	0.056906	-0.274286	6
O	-0.175274	-0.761584	0.776844	8
C	0.405986	-1.961224	0.281234	6
O	1.594526	-1.734394	-0.469276	8
C	2.631216	-1.190814	0.338394	6
H	-2.227574	3.162716	-0.222446	1
H	-2.597944	1.799507	-1.292096	1
H	-1.013434	2.593176	-1.379526	1
H	-2.070294	1.041546	1.049114	1
H	-0.504474	1.819506	0.952804	1
H	-1.458854	-0.488954	-0.824296	1
H	0.123956	0.324176	-0.964976	1
H	-0.311994	-2.488533	-0.356566	1
H	0.626006	-2.617304	1.130704	1
H	3.533406	-1.111734	-0.273276	1
H	2.843866	-1.843014	1.189784	1
H	2.363736	-0.188973	0.686784	1
Es	-0.683625	0.056784	-0.274098	99
Es	-1.270706	1.317084	0.350750	99
Es	2.771763	-1.637885	0.927857	99
Es	-2.093361	2.876919	-0.373272	99
Es	-0.132893	0.243692	-0.751039	99
Es	-1.219650	-0.322563	-0.657868	99
Es	2.451900	-0.508075	0.581625	99
Es	3.246804	-1.138525	-0.078599	99
Es	1.521654	-1.521683	-0.671257	99
Es	-0.355404	-0.483080	0.356822	99
Es	-0.741953	1.661667	0.753927	99
Es	-1.808454	2.271886	-0.699699	99
Es	0.406104	-1.960946	0.281182	99
Es	0.562476	-2.404433	0.872383	99
Es	1.966833	-1.527557	-0.133905	99
Es	1.158543	-1.804337	-0.157678	99
Es	-2.347126	1.944434	-1.103776	99
Es	-0.418754	-0.854570	0.943735	99
Es	2.631050	-1.190911	0.338264	99
Es	1.684908	-2.011985	-0.553582	99
Es	-0.175173	-0.761655	0.776496	99
Es	-1.538918	1.791380	-0.183482	99
Es	-1.822270	1.126154	0.821307	99
Es	1.594523	-1.734402	-0.468847	99
Es	-1.262265	2.488139	-1.164023	99
Es	-0.977858	0.684523	0.034854	99
Es	-0.086733	-2.317510	-0.166864	99
Es	0.060136	-0.605150	0.899078	99
Es	0.039418	-1.204435	0.556573	99
48
Properties=species:S:1:pos:R:3:Z:I:1 energy=-346.1584119930105 field_type=dipole dipole="0.000000 0.000000 0.000000" charge=0
C	-1.808464	2.271906	-0.699716	6
C	-1.270704	1.317086	0.350804	6
C	-0.683694	0.056906	-0.274286	6
O	-0.175274	-0.761584	0.776844	8
C	0.405986	-1.961224	0.281234	6
O	1.594526	-1.734394	-0.469276	8
C	2.631216	-1.190814	0.338394	6
H	-2.227574	3.162716	-0.222446	1
H	-2.597944	1.799507	-1.292096	1
H	-1.013434	2.593176	-1.379526	1
H	-2.070294	1.041546	1.049114	1
H	-0.504474	1.819506	0.952804	1
H	-1.458854	-0.488954	-0.824296	1
H	0.123956	0.324176	-0.964976	1
H	-0.311994	-2.488533	-0.356566	1
H	0.626006	-2.617304	1.130704	1
H	3.533406	-1.111734	-0.273276	1
H	2.843866	-1.843014	1.189784	1
H	2.363736	-0.188973	0.686784	1
Es	-0.353511	-0.482367	0.356800	99
Es	0.406104	-1.960947	0.281185	99
Es	-1.262186	2.488135	-1.163955	99
Es	-1.270706	1.317084	0.350749	99
Es	1.521545	-1.520598	-0.669628	99
Es	-2.093341	2.876889	-0.373333	99
Es	-1.219674	-0.322577	-0.657879	99
Es	3.246724	-1.138560	-0.078577	99
Es	-2.347112	1.944545	-1.103853	99
Es	-0.683623	0.056781	-0.274093	99
Es	2.771803	-1.637905	0.927914	99
Es	-0.175247	-0.761644	0.776467	99
Es	-1.808454	2.271886	-0.699699	99
Es	-1.538888	1.791337	-0.183454	99
Es	0.562565	-2.404375	0.872366	99
Es	1.966766	-1.528354	-0.133922	99
Es	1.158427	-1.804900	-0.157379	99
Es	0.057605	-0.604496	0.903747	99
Es	-0.741985	1.661603	0.754027	99
Es	-1.822429	1.126050	0.821227	99
Es	2.451944	-0.508016	0.581560	99
Es	1.685188	-2.011779	-0.555394	99
Es	-0.977847	0.684525	0.034915	99
Es	-0.420621	-0.857273	0.939394	99
Es	1.594479	-1.734311	-0.468951	99
Es	-0.086767	-2.317589	-0.166881	99
Es	0.042055	-1.203132	0.556285	99
Es	2.631050	-1.190911	0.338264	99
Es	-0.132895	0.243856	-0.751041	99
48
Properties=species:S:1:pos:R:3:Z:I:1 energy=-346.1584119930105 field_type=dipole dipole="0.000000 0.000000 0.000000" charge=0
C	-1.808464	2.271906	-0.699716	6
C	-1.270704	1.317086	0.350804	6
C	-0.683694	0.056906	-0.274286	6
O	-0.175274	-0.761584	0.776844	8
C	0.405986	-1.961224	0.281234	6
O	1.594526	-1.734394	-0.469276	8
C	2.631216	-1.190814	0.338394	6
H	-2.227574	3.162716	-0.222446	1
H	-2.597944	1.799507	-1.292096	1
H	-1.013434	2.593176	-1.379526	1
H	-2.070294	1.041546	1.049114	1
H	-0.504474	1.819506	0.952804	1
H	-1.458854	-0.488954	-0.824296	1
H	0.123956	0.324176	-0.964976	1
H	-0.311994	-2.488533	-0.356566	1
H	0.626006	-2.617304	1.130704	1
H	3.533406	-1.111734	-0.273276	1
H	2.843866	-1.843014	1.189784	1
H	2.363736	-0.188973	0.686784	1
Es	0.061226	-0.605824	0.898818	99
Es	2.771787	-1.637915	0.927861	99
Es	-0.683625	0.056782	-0.274094	99
Es	-2.093320	2.876941	-0.373450	99
Es	-0.978072	0.684548	0.034931	99
Es	2.631048	-1.190911	0.338263	99
Es	1.521415	-1.519827	-0.667960	99
Es	0.406105	-1.960944	0.281183	99
Es	0.038048	-1.204593	0.556198	99
Es	-2.347136	1.944466	-1.103831	99
Es	-1.270706	1.317084	0.350749	99
Es	1.684468	-2.011869	-0.557364	99
Es	-0.419003	-0.854112	0.944181	99
Es	3.246725	-1.138629	-0.078573	99
Es	2.451959	-0.507957	0.581593	99
Es	-1.808454	2.271886	-0.699698	99
Es	-1.822345	1.126066	0.821291	99
Es	-0.175155	-0.761642	0.776430	99
Es	-1.539058	1.791409	-0.183419	99
Es	1.158646	-1.804560	-0.157159	99
Es	-1.219632	-0.322585	-0.657870	99
Es	-0.354889	-0.482716	0.357064	99
Es	1.967448	-1.529362	-0.133834	99
Es	-1.262110	2.488031	-1.163948	99
Es	-0.086716	-2.317528	-0.166924	99
Es	-0.132850	0.243850	-0.751049	99
Es	1.594477	-1.734306	-0.468881	99
Es	0.562477	-2.404435	0.872394	99
Es	-0.741794	1.661613	0.753960	99
48
Properties=species:S:1:pos:R:3:Z:I:1 energy=-346.1584119930105 field_type=dipole dipole="0.000000 0.000000 0.000000" charge=0
C	-1.808464	2.271906	-0.699716	6
C	-1.270704	1.317086	0.350804	6
C	-0.683694	0.056906	-0.274286	6
O	-0.175274	-0.761584	0.776844	8
C	0.405986	-1.961224	0.281234	6
O	1.594526	-1.734394	-0.469276	8
C	2.631216	-1.190814	0.338394	6
H	-2.227574	3.162716	-0.222446	1
H	-2.597944	1.799507	-1.292096	1
H	-1.013434	2.593176	-1.379526	1
H	-2.070294	1.041546	1.049114	1
H	-0.504474	1.819506	0.952804	1
H	-1.458854	-0.488954	-0.824296	1
H	0.123956	0.324176	-0.964976	1
H	-0.311994	-2.488533	-0.356566	1
H	0.626006	-2.617304	1.130704	1
H	3.533406	-1.111734	-0.273276	1
H	2.843866	-1.843014	1.189784	1
H	2.363736	-0.188973	0.686784	1
Es	1.685500	-2.011040	-0.554936	99
Es	-0.175238	-0.761674	0.776547	99
Es	0.562441	-2.404474	0.872408	99
Es	2.451984	-0.508003	0.581470	99
Es	-0.086705	-2.317458	-0.166938	99
Es	-1.262153	2.488016	-1.164034	99
Es	-0.741884	1.661578	0.753894	99
Es	-1.219644	-0.322555	-0.657900	99
Es	2.631052	-1.190910	0.338264	99
Es	0.059319	-0.604857	0.901781	99
Es	-1.808454	2.271885	-0.699699	99
Es	-0.419986	-0.855160	0.940979	99
Es	-1.538981	1.791487	-0.183447	99
Es	1.158580	-1.805811	-0.156932	99
Es	-2.093224	2.876935	-0.373370	99
Es	-0.353785	-0.482736	0.356923	99
Es	3.246882	-1.138726	-0.078563	99
Es	0.039942	-1.204491	0.556424	99
Es	0.406103	-1.960949	0.281184	99
Es	1.966811	-1.527521	-0.134304	99
Es	1.521109	-1.521298	-0.670114	99
Es	-0.977976	0.684491	0.034922	99
Es	-2.347244	1.944465	-1.103742	99
Es	-0.683626	0.056778	-0.274092	99
Es	1.594466	-1.734285	-0.468886	99
Es	-0.132898	0.243779	-0.751019	99
Es	2.771607	-1.637778	0.927956	99
Es	-1.822323	1.126186	0.821341	99
Es	-1.270707	1.317084	0.350749	99
