41
Properties=species:S:1:pos:R:3:Z:I:1 energy=-306.74112178796753 field_type=dipole dipole="0.000000 0.000000 0.000000" charge=0
C	-1.586778	-2.204815	0.617505	6
C	-1.981298	-0.939375	0.797585	6
O	-1.300588	0.218865	0.553325	8
C	0.020182	0.099985	0.016505	6
C	0.583102	1.503055	-0.193015	6
C	1.926432	1.461895	-0.787795	6
C	3.022352	1.428385	-1.278045	6
H	-2.258638	-3.021085	0.864265	1
H	-0.611388	-2.472915	0.230795	1
H	-2.964838	-0.698925	1.188625	1
H	-0.014548	-0.432535	-0.942515	1
H	0.658572	-0.455025	0.715755	1
H	0.609172	2.033955	0.766055	1
H	-0.095548	2.078495	-0.833995	1
H	3.993812	1.400035	-1.715055	1
Es	-0.003797	-0.264486	-0.636920	99
Es	2.590269	1.209929	-0.782684	99
Es	-0.810909	0.134892	0.353447	99
Es	2.513837	1.796023	-0.981588	99
Es	0.455347	-0.279760	0.493319	99
Es	-0.927510	-2.382743	0.356070	99
Es	0.019959	0.100078	0.016598	99
Es	2.345215	1.319567	-1.345337	99
Es	3.655831	1.409883	-1.562587	99
Es	-1.515680	-0.253273	0.629365	99
Es	1.281808	1.473755	-0.501616	99
Es	0.145752	1.880880	-0.632976	99
Es	0.583228	1.503005	-0.193071	99
Es	-1.887218	-1.611769	0.390124	99
Es	3.022568	1.428375	-1.278141	99
Es	-1.586750	-2.204867	0.617498	99
Es	0.315383	0.810799	-0.094553	99
Es	1.926170	1.461903	-0.787678	99
Es	-1.300476	0.218585	0.553257	99
Es	-1.472195	0.334887	0.347550	99
Es	0.619427	1.851693	0.444261	99
Es	-2.646693	-0.776002	1.062162	99
Es	-1.281249	0.328222	0.824970	99
Es	-1.981192	-0.939055	0.797549	99
Es	-1.644921	-1.624283	1.008728	99
Es	-2.039098	-2.751821	0.783576	99
41
Properties=species:S:1:pos:R:3:Z:I:1 energy=-306.74112178796753 field_type=dipole dipole="0.000000 0.000000 0.000000" charge=0
C	-1.586778	-2.204815	0.617505	6
C	-1.981298	-0.939375	0.797585	6
O	-1.300588	0.218865	0.553325	8
C	0.020182	0.099985	0.016505	6
C	0.583102	1.503055	-0.193015	6
C	1.926432	1.461895	-0.787795	6
C	3.022352	1.428385	-1.278045	6
H	-2.258638	-3.021085	0.864265	1
H	-0.611388	-2.472915	0.230795	1
H	-2.964838	-0.698925	1.188625	1
H	-0.014548	-0.432535	-0.942515	1
H	0.658572	-0.455025	0.715755	1
H	0.609172	2.033955	0.766055	1
H	-0.095548	2.078495	-0.833995	1
H	3.993812	1.400035	-1.715055	1
Es	0.019960	0.100077	0.016600	99
Es	-0.924535	-2.382603	0.354786	99
Es	-0.806406	0.137049	0.353231	99
Es	2.584914	1.203956	-0.792384	99
Es	0.583228	1.503005	-0.193073	99
Es	-1.466015	0.321549	0.351522	99
Es	1.926165	1.461897	-0.787680	99
Es	0.314781	0.811727	-0.093651	99
Es	0.617940	1.850876	0.441680	99
Es	-1.288827	0.339269	0.816446	99
Es	3.022573	1.428374	-1.278142	99
Es	-1.586751	-2.204863	0.617496	99
Es	-1.519539	-0.253462	0.634394	99
Es	-2.648578	-0.776669	1.063307	99
Es	1.283843	1.475704	-0.502588	99
Es	3.656937	1.407128	-1.563351	99
Es	-0.003493	-0.264579	-0.635795	99
Es	-1.981185	-0.939047	0.797552	99
Es	-1.646881	-1.624210	1.002498	99
Es	2.351332	1.321211	-1.332652	99
Es	0.454680	-0.279918	0.492048	99
Es	0.145886	1.880366	-0.630362	99
Es	-2.040637	-2.750732	0.784575	99
Es	-1.300402	0.218481	0.553311	99
Es	-1.884991	-1.611981	0.395640	99
Es	2.513109	1.801812	-0.984084	99
41
Properties=species:S:1:pos:R:3:Z:I:1 energy=-306.74112178796753 field_type=dipole dipole="0.000000 0.000000 0.000000" charge=0
C	-1.586778	-2.204815	0.617505	6
C	-1.981298	-0.939375	0.797585	6
O	-1.300588	0.218865	0.553325	8
C	0.020182	0.099985	0.016505	6
C	0.583102	1.503055	-0.193015	6
C	1.926432	1.461895	-0.787795	6
C	3.022352	1.428385	-1.278045	6
H	-2.258638	-3.021085	0.864265	1
H	-0.611388	-2.472915	0.230795	1
H	-2.964838	-0.698925	1.188625	1
H	-0.014548	-0.432535	-0.942515	1
H	0.658572	-0.455025	0.715755	1
H	0.609172	2.033955	0.766055	1
H	-0.095548	2.078495	-0.833995	1
H	3.993812	1.400035	-1.715055	1
Es	-1.884342	-1.611504	0.397498	99
Es	-1.586752	-2.204865	0.617492	99
Es	-0.003643	-0.263820	-0.634964	99
Es	-1.300490	0.218454	0.553132	99
Es	2.372017	1.637789	-1.305064	99
Es	0.617414	1.849321	0.440161	99
Es	0.455101	-0.280659	0.491762	99
Es	-2.649607	-0.776985	1.062954	99
Es	0.314811	0.812625	-0.093640	99
Es	-2.040611	-2.749847	0.786131	99
Es	-1.416656	0.208779	0.372971	99
Es	3.022582	1.428370	-1.278139	99
Es	3.657948	1.407180	-1.562551	99
Es	1.285204	1.477863	-0.502189	99
Es	1.926166	1.461910	-0.787675	99
Es	2.611777	1.607966	-0.768849	99
Es	0.144903	1.880834	-0.629603	99
Es	-1.349896	0.447225	0.761196	99
Es	-1.513561	-0.250448	0.661013	99
Es	2.464852	1.078879	-1.036308	99
Es	-0.801142	0.138797	0.360231	99
Es	0.583230	1.503004	-0.193071	99
Es	-1.648001	-1.624787	0.999565	99
Es	-1.981193	-0.939051	0.797545	99
Es	0.019955	0.100078	0.016598	99
Es	-0.922962	-2.382694	0.355124	99
41
Properties=species:S:1:pos:R:3:Z:I:1 energy=-306.74112178796753 field_type=dipole dipole="0.000000 0.000000 0.000000" charge=0
C	-1.586778	-2.204815	0.617505	6
C	-1.981298	-0.939375	0.797585	6
O	-1.300588	0.218865	0.553325	8
C	0.020182	0.099985	0.016505	6
C	0.583102	1.503055	-0.193015	6
C	1.926432	1.461895	-0.787795	6
C	3.022352	1.428385	-1.278045	6
H	-2.258638	-3.021085	0.864265	1
H	-0.611388	-2.472915	0.230795	1
H	-2.964838	-0.698925	1.188625	1
H	-0.014548	-0.432535	-0.942515	1
H	0.658572	-0.455025	0.715755	1
H	0.609172	2.033955	0.766055	1
H	-0.095548	2.078495	-0.833995	1
H	3.993812	1.400035	-1.715055	1
Es	0.314501	0.813173	-0.093727	99
Es	-2.649385	-0.777233	1.064949	99
Es	1.285425	1.476522	-0.503160	99
Es	1.926164	1.461903	-0.787672	99
Es	0.454035	-0.278634	0.491498	99
Es	2.350108	1.330686	-1.335500	99
Es	-1.647863	-1.623649	0.999893	99
Es	0.146866	1.878065	-0.628599	99
Es	-2.041938	-2.749347	0.783289	99
Es	2.519876	1.796428	-0.969120	99
Es	-1.981191	-0.939056	0.797552	99
Es	-1.883461	-1.612765	0.401093	99
Es	-0.808258	0.140849	0.338816	99
Es	0.583229	1.503005	-0.193070	99
Es	0.019953	0.100083	0.016602	99
Es	-0.923536	-2.382386	0.351528	99
Es	-1.265868	0.166069	0.700867	99
Es	3.657335	1.405998	-1.564506	99
Es	0.615789	1.851198	0.442159	99
Es	-1.539798	-0.248836	0.608476	99
Es	-1.300314	0.218422	0.553454	99
Es	-1.467016	0.486044	0.507858	99
Es	3.022578	1.428367	-1.278145	99
Es	2.579301	1.199842	-0.804382	99
Es	-0.002672	-0.265466	-0.636319	99
Es	-1.586753	-2.204866	0.617490	99
41
Properties=species:S:1:pos:R:3:Z:I:1 energy=-306.74112178796753 field_type=dipole dipole="0.000000 0.000000 0.000000" charge=0
C	-1.586778	-2.204815	0.617505	6
C	-1.981298	-0.939375	0.797585	6
O	-1.300588	0.218865	0.553325	8
C	0.020182	0.099985	0.016505	6
C	0.583102	1.503055	-0.193015	6
C	1.926432	1.461895	-0.787795	6
C	3.022352	1.428385	-1.278045	6
H	-2.258638	-3.021085	0.864265	1
H	-0.611388	-2.472915	0.230795	1
H	-2.964838	-0.698925	1.188625	1
H	-0.014548	-0.432535	-0.942515	1
H	0.658572	-0.455025	0.715755	1
H	0.609172	2.033955	0.766055	1
H	-0.095548	2.078495	-0.833995	1
H	3.993812	1.400035	-1.715055	1
Es	1.926162	1.461903	-0.787672	99
Es	0.455322	-0.280058	0.491757	99
Es	-1.586756	-2.204868	0.617482	99
Es	-1.520089	-0.249564	0.661112	99
Es	0.314595	0.813604	-0.093234	99
Es	3.022583	1.428366	-1.278148	99
Es	0.144574	1.879777	-0.628718	99
Es	2.608364	1.283704	-0.752011	99
Es	-1.405623	0.495381	0.675604	99
Es	-0.799706	0.141467	0.356350	99
Es	0.019953	0.100080	0.016601	99
Es	-2.650299	-0.777311	1.063620	99
Es	-0.922018	-2.382531	0.353872	99
Es	0.616560	1.849029	0.440159	99
Es	1.285944	1.476305	-0.502975	99
Es	-2.041145	-2.748926	0.786018	99
Es	-0.003184	-0.263856	-0.635558	99
Es	-1.883635	-1.611944	0.400557	99
Es	2.476743	1.801472	-1.065165	99
Es	-1.981193	-0.939057	0.797551	99
Es	3.658137	1.406092	-1.563198	99
Es	-1.649090	-1.624341	0.997287	99
Es	-1.355775	0.156667	0.462203	99
Es	-1.300361	0.218476	0.553436	99
Es	2.363812	1.241547	-1.292535	99
Es	0.583229	1.503004	-0.193071	99
41
Properties=species:S:1:pos:R:3:Z:I:1 energy=-306.74112178796753 field_type=dipole dipole="0.000000 0.000000 0.000000" charge=0
C	-1.586778	-2.204815	0.617505	6
C	-1.981298	-0.939375	0.797585	6
O	-1.300588	0.218865	0.553325	8
C	0.020182	0.099985	0.016505	6
C	0.583102	1.503055	-0.193015	6
C	1.926432	1.461895	-0.787795	6
C	3.022352	1.428385	-1.278045	6
H	-2.258638	-3.021085	0.864265	1
H	-0.611388	-2.472915	0.230795	1
H	-2.964838	-0.698925	1.188625	1
H	-0.014548	-0.432535	-0.942515	1
H	0.658572	-0.455025	0.715755	1
H	0.609172	2.033955	0.766055	1
H	-0.095548	2.078495	-0.833995	1
H	3.993812	1.400035	-1.715055	1
Es	1.286345	1.476404	-0.502992	99
Es	0.615970	1.849082	0.440587	99
Es	0.144722	1.879105	-0.628446	99
Es	-2.650424	-0.777455	1.064194	99
Es	-1.981193	-0.939059	0.797551	99
Es	-1.419245	0.501241	0.649542	99
Es	0.455182	-0.279783	0.491640	99
Es	-0.003002	-0.264006	-0.635844	99
Es	-2.041419	-2.748549	0.785745	99
Es	3.658230	1.405946	-1.563355	99
Es	-1.883313	-1.612248	0.401770	99
Es	2.368799	1.219596	-1.277491	99
Es	-1.586752	-2.204867	0.617491	99
Es	-0.800822	0.141513	0.352077	99
Es	0.583227	1.503003	-0.193066	99
Es	2.613746	1.309606	-0.743655	99
Es	3.022585	1.428373	-1.278143	99
Es	-1.649422	-1.623999	0.996455	99
Es	0.314756	0.814178	-0.093313	99
Es	-0.921832	-2.382499	0.353204	99
Es	2.466245	1.797277	-1.088760	99
Es	0.019955	0.100079	0.016602	99
Es	-1.335381	0.153427	0.500306	99
Es	-1.525613	-0.249996	0.652570	99
Es	-1.300400	0.216143	0.554317	99
Es	1.926162	1.461903	-0.787665	99
41
Properties=species:S:1:pos:R:3:Z:I:1 energy=-306.74112178796753 field_type=dipole dipole="0.000000 0.000000 0.000000" charge=0
C	-1.586778	-2.204815	0.617505	6
C	-1.981298	-0.939375	0.797585	6
O	-1.300588	0.218865	0.553325	8
C	0.020182	0.099985	0.016505	6
C	0.583102	1.503055	-0.193015	6
C	1.926432	1.461895	-0.787795	6
C	3.022352	1.428385	-1.278045	6
H	-2.258638	-3.021085	0.864265	1
H	-0.611388	-2.472915	0.230795	1
H	-2.964838	-0.698925	1.188625	1
H	-0.014548	-0.432535	-0.942515	1
H	0.658572	-0.455025	0.715755	1
H	0.609172	2.033955	0.766055	1
H	-0.095548	2.078495	-0.833995	1
H	3.993812	1.400035	-1.715055	1
Es	-1.527418	-0.249721	0.649391	99
Es	3.658200	1.405455	-1.563669	99
Es	-0.002962	-0.263957	-0.635657	99
Es	0.615743	1.848611	0.440181	99
Es	0.583229	1.503005	-0.193070	99
Es	-1.649665	-1.624276	0.995068	99
Es	2.612131	1.304920	-0.746814	99
Es	-0.921451	-2.382311	0.353074	99
Es	0.314701	0.814548	-0.093438	99
Es	-1.332991	0.152148	0.506126	99
Es	-2.041573	-2.748313	0.786360	99
Es	-2.650715	-0.777642	1.064187	99
Es	3.022585	1.428369	-1.278146	99
Es	0.144493	1.879030	-0.628003	99
Es	-1.301035	0.217747	0.551989	99
Es	-0.801117	0.141017	0.351086	99
Es	-1.882999	-1.612025	0.402806	99
Es	2.368064	1.223712	-1.279701	99
Es	0.455317	-0.279759	0.491628	99
Es	2.468745	1.798166	-1.083089	99
Es	-1.419034	0.501073	0.650136	99
Es	-1.981194	-0.939058	0.797549	99
Es	1.926160	1.461907	-0.787671	99
Es	1.286689	1.476561	-0.503091	99
Es	-1.586750	-2.204868	0.617498	99
Es	0.019955	0.100077	0.016597	99
