40
Properties=species:S:1:pos:R:3:Z:I:1 energy=-269.7039430828988 field_type=dipole dipole="0.000000 0.000000 0.000000" charge=0
C	-3.008803	-0.211167	0.324045	6
C	-1.564803	-0.211167	0.324045	6
C	-0.374644	-0.211167	0.324045	6
C	1.069356	-0.211167	0.324045	6
C	1.609076	-0.975577	-0.881765	6
C	1.551376	1.150003	0.324045	6
C	1.948657	2.271903	0.324045	6
H	-3.402773	0.809723	0.335695	1
H	-3.402864	-0.731697	1.202285	1
H	-3.402783	-0.711467	-0.565915	1
H	1.427006	-0.717297	1.229645	1
H	1.287867	-0.522927	-1.829875	1
H	1.258996	-2.014897	-0.878405	1
H	2.705697	-0.991477	-0.879825	1
H	2.298636	3.278373	0.323885	1
Es	1.551277	1.149745	0.324026	99
Es	1.323481	-0.567526	-0.268034	99
Es	-2.265079	-0.211361	0.323712	99
Es	2.178150	2.929334	0.323685	99
Es	-3.008692	-0.211171	0.324041	99
Es	1.609056	-0.975545	-0.881706	99
Es	1.069297	-0.211068	0.324012	99
Es	1.388089	-0.663991	-1.516921	99
Es	-0.965683	-0.014187	0.625818	99
Es	0.332658	-0.200898	0.323648	99
Es	-0.374351	-0.211170	0.324048	99
Es	-3.256402	-0.546652	-0.272187	99
Es	2.352525	-0.982698	-0.870315	99
Es	1.299585	-0.533156	0.925924	99
Es	2.095035	1.599107	0.360190	99
Es	1.309649	0.490088	0.323592	99
Es	1.557511	1.790913	0.614385	99
Es	1.617671	1.766162	-0.005605	99
Es	-3.256133	-0.560115	0.912321	99
Es	-1.565074	-0.211160	0.324038	99
Es	-0.962313	-0.051534	-0.002046	99
Es	1.368341	-1.678481	-0.868909	99
Es	-0.961526	-0.578357	0.345189	99
Es	-3.256094	0.471989	0.331826	99
Es	1.948743	2.272154	0.324044	99
40
Properties=species:S:1:pos:R:3:Z:I:1 energy=-269.7039430828988 field_type=dipole dipole="0.000000 0.000000 0.000000" charge=0
C	-3.008803	-0.211167	0.324045	6
C	-1.564803	-0.211167	0.324045	6
C	-0.374644	-0.211167	0.324045	6
C	1.069356	-0.211167	0.324045	6
C	1.609076	-0.975577	-0.881765	6
C	1.551376	1.150003	0.324045	6
C	1.948657	2.271903	0.324045	6
H	-3.402773	0.809723	0.335695	1
H	-3.402864	-0.731697	1.202285	1
H	-3.402783	-0.711467	-0.565915	1
H	1.427006	-0.717297	1.229645	1
H	1.287867	-0.522927	-1.829875	1
H	1.258996	-2.014897	-0.878405	1
H	2.705697	-0.991477	-0.879825	1
H	2.298636	3.278373	0.323885	1
Es	-3.258450	0.471256	0.331721	99
Es	1.948751	2.272152	0.324038	99
Es	-2.262784	-0.214279	0.323322	99
Es	1.323366	-0.567022	-0.267166	99
Es	1.299606	-0.532524	0.921075	99
Es	0.330101	-0.200185	0.324180	99
Es	-0.962391	-0.054386	0.009630	99
Es	2.100950	1.594729	0.371225	99
Es	-0.966125	-0.005812	0.610938	99
Es	1.540594	1.797900	0.593023	99
Es	1.364732	-1.680010	-0.869523	99
Es	-0.960926	-0.585117	0.348321	99
Es	1.551273	1.149728	0.324046	99
Es	2.181851	2.929111	0.323160	99
Es	-0.374349	-0.211159	0.324046	99
Es	1.388302	-0.664596	-1.511908	99
Es	-1.565085	-0.211172	0.324036	99
Es	-3.008692	-0.211168	0.324045	99
Es	1.069295	-0.211067	0.324011	99
Es	-3.256918	-0.559805	0.909814	99
Es	2.355960	-0.980437	-0.870966	99
Es	1.609053	-0.975544	-0.881705	99
Es	-3.256693	-0.545778	-0.269485	99
Es	1.629134	1.763080	0.005229	99
Es	1.309166	0.492528	0.323669	99
40
Properties=species:S:1:pos:R:3:Z:I:1 energy=-269.7039430828988 field_type=dipole dipole="0.000000 0.000000 0.000000" charge=0
C	-3.008803	-0.211167	0.324045	6
C	-1.564803	-0.211167	0.324045	6
C	-0.374644	-0.211167	0.324045	6
C	1.069356	-0.211167	0.324045	6
C	1.609076	-0.975577	-0.881765	6
C	1.551376	1.150003	0.324045	6
C	1.948657	2.271903	0.324045	6
H	-3.402773	0.809723	0.335695	1
H	-3.402864	-0.731697	1.202285	1
H	-3.402783	-0.711467	-0.565915	1
H	1.427006	-0.717297	1.229645	1
H	1.287867	-0.522927	-1.829875	1
H	1.258996	-2.014897	-0.878405	1
H	2.705697	-0.991477	-0.879825	1
H	2.298636	3.278373	0.323885	1
Es	1.299283	-0.532164	0.917919	99
Es	-0.960838	-0.589094	0.333220	99
Es	1.069295	-0.211066	0.324011	99
Es	-3.257127	-0.559349	0.908286	99
Es	-2.261605	-0.216013	0.323227	99
Es	-3.259793	0.470900	0.331542	99
Es	2.357666	-0.978593	-0.871487	99
Es	2.183821	2.928780	0.323144	99
Es	1.609053	-0.975545	-0.881703	99
Es	0.328676	-0.200117	0.324354	99
Es	1.388656	-0.665193	-1.508272	99
Es	-0.962390	-0.039923	0.024652	99
Es	1.599835	1.773861	0.024554	99
Es	1.309616	0.493924	0.323870	99
Es	1.565274	1.789603	0.604177	99
Es	-1.565086	-0.211176	0.324039	99
Es	1.948764	2.272145	0.324046	99
Es	-0.966135	-0.016914	0.610795	99
Es	2.105929	1.591878	0.340356	99
Es	-0.374345	-0.211163	0.324043	99
Es	-3.008693	-0.211169	0.324045	99
Es	1.322942	-0.566680	-0.266217	99
Es	1.551267	1.149726	0.324045	99
Es	1.362398	-1.680731	-0.870039	99
Es	-3.256740	-0.545505	-0.267831	99
40
Properties=species:S:1:pos:R:3:Z:I:1 energy=-269.7039430828988 field_type=dipole dipole="0.000000 0.000000 0.000000" charge=0
C	-3.008803	-0.211167	0.324045	6
C	-1.564803	-0.211167	0.324045	6
C	-0.374644	-0.211167	0.324045	6
C	1.069356	-0.211167	0.324045	6
C	1.609076	-0.975577	-0.881765	6
C	1.551376	1.150003	0.324045	6
C	1.948657	2.271903	0.324045	6
H	-3.402773	0.809723	0.335695	1
H	-3.402864	-0.731697	1.202285	1
H	-3.402783	-0.711467	-0.565915	1
H	1.427006	-0.717297	1.229645	1
H	1.287867	-0.522927	-1.829875	1
H	1.258996	-2.014897	-0.878405	1
H	2.705697	-0.991477	-0.879825	1
H	2.298636	3.278373	0.323885	1
Es	-0.374339	-0.211158	0.324046	99
Es	1.728155	1.732295	0.614886	99
Es	1.069295	-0.211065	0.324010	99
Es	2.086873	1.598286	0.208023	99
Es	1.388661	-0.665402	-1.507102	99
Es	1.361884	-1.681061	-0.870174	99
Es	-1.565085	-0.211175	0.324037	99
Es	1.609054	-0.975544	-0.881703	99
Es	1.299156	-0.531952	0.916785	99
Es	-3.258423	-0.560284	0.909081	99
Es	2.358008	-0.977754	-0.871793	99
Es	-3.008693	-0.211170	0.324044	99
Es	1.551276	1.149723	0.324049	99
Es	1.948763	2.272149	0.324050	99
Es	-3.256204	-0.544168	-0.267895	99
Es	-0.960553	-0.578134	0.408195	99
Es	2.186735	2.927602	0.323638	99
Es	-0.962050	-0.133393	0.010325	99
Es	0.328188	-0.199363	0.323396	99
Es	1.322789	-0.566643	-0.265771	99
Es	-2.261186	-0.217107	0.322827	99
Es	-0.966779	0.065960	0.551205	99
Es	-3.259351	0.469657	0.331157	99
Es	1.453586	1.825796	0.144352	99
Es	1.309962	0.494325	0.325109	99
40
Properties=species:S:1:pos:R:3:Z:I:1 energy=-269.7039430828988 field_type=dipole dipole="0.000000 0.000000 0.000000" charge=0
C	-3.008803	-0.211167	0.324045	6
C	-1.564803	-0.211167	0.324045	6
C	-0.374644	-0.211167	0.324045	6
C	1.069356	-0.211167	0.324045	6
C	1.609076	-0.975577	-0.881765	6
C	1.551376	1.150003	0.324045	6
C	1.948657	2.271903	0.324045	6
H	-3.402773	0.809723	0.335695	1
H	-3.402864	-0.731697	1.202285	1
H	-3.402783	-0.711467	-0.565915	1
H	1.427006	-0.717297	1.229645	1
H	1.287867	-0.522927	-1.829875	1
H	1.258996	-2.014897	-0.878405	1
H	2.705697	-0.991477	-0.879825	1
H	2.298636	3.278373	0.323885	1
Es	-3.257857	-0.545866	-0.268720	99
Es	-0.374343	-0.211148	0.324051	99
Es	-3.008692	-0.211170	0.324045	99
Es	2.188095	2.927123	0.323264	99
Es	1.298370	-0.531216	0.914931	99
Es	1.360825	-1.681369	-0.870879	99
Es	-3.259387	0.469218	0.332001	99
Es	1.435660	1.834300	0.465131	99
Es	-3.257001	-0.558383	0.908344	99
Es	2.081104	1.599943	0.455626	99
Es	1.069295	-0.211066	0.324010	99
Es	1.551267	1.149725	0.324041	99
Es	1.389364	-0.665913	-1.505208	99
Es	-0.963484	0.039990	0.069948	99
Es	2.358385	-0.976997	-0.872122	99
Es	1.948756	2.272154	0.324037	99
Es	1.751148	1.722442	0.049705	99
Es	0.327683	-0.199100	0.325331	99
Es	-0.965398	-0.100484	0.626763	99
Es	-1.565086	-0.211176	0.324037	99
Es	-2.260917	-0.217883	0.323826	99
Es	-0.960396	-0.585251	0.271058	99
Es	1.609054	-0.975547	-0.881705	99
Es	1.322846	-0.566711	-0.265588	99
Es	1.310431	0.494806	0.322847	99
40
Properties=species:S:1:pos:R:3:Z:I:1 energy=-269.7039430828988 field_type=dipole dipole="0.000000 0.000000 0.000000" charge=0
C	-3.008803	-0.211167	0.324045	6
C	-1.564803	-0.211167	0.324045	6
C	-0.374644	-0.211167	0.324045	6
C	1.069356	-0.211167	0.324045	6
C	1.609076	-0.975577	-0.881765	6
C	1.551376	1.150003	0.324045	6
C	1.948657	2.271903	0.324045	6
H	-3.402773	0.809723	0.335695	1
H	-3.402864	-0.731697	1.202285	1
H	-3.402783	-0.711467	-0.565915	1
H	1.427006	-0.717297	1.229645	1
H	1.287867	-0.522927	-1.829875	1
H	1.258996	-2.014897	-0.878405	1
H	2.705697	-0.991477	-0.879825	1
H	2.298636	3.278373	0.323885	1
Es	-0.960477	-0.577072	0.234646	99
Es	-1.565088	-0.211180	0.324042	99
Es	2.082610	1.599123	0.450999	99
Es	0.327375	-0.199276	0.325552	99
Es	-3.257422	-0.558245	0.908430	99
Es	-0.374342	-0.211142	0.324049	99
Es	-0.964208	0.082281	0.111158	99
Es	1.310023	0.495233	0.322880	99
Es	1.360267	-1.681252	-0.871022	99
Es	1.389493	-0.666065	-1.504497	99
Es	-3.008691	-0.211171	0.324046	99
Es	1.437897	1.833841	0.469276	99
Es	-3.259166	0.468057	0.332058	99
Es	1.948742	2.272161	0.324042	99
Es	1.551266	1.149725	0.324044	99
Es	1.322989	-0.566761	-0.265519	99
Es	1.069295	-0.211065	0.324009	99
Es	1.747075	1.723908	0.050285	99
Es	1.609055	-0.975545	-0.881704	99
Es	-2.260410	-0.218218	0.323769	99
Es	-3.258134	-0.545489	-0.268949	99
Es	-0.964670	-0.150245	0.621765	99
Es	2.189373	2.926433	0.323342	99
Es	2.358755	-0.976713	-0.872073	99
Es	1.298115	-0.530901	0.914150	99
40
Properties=species:S:1:pos:R:3:Z:I:1 energy=-269.7039430828988 field_type=dipole dipole="0.000000 0.000000 0.000000" charge=0
C	-3.008803	-0.211167	0.324045	6
C	-1.564803	-0.211167	0.324045	6
C	-0.374644	-0.211167	0.324045	6
C	1.069356	-0.211167	0.324045	6
C	1.609076	-0.975577	-0.881765	6
C	1.551376	1.150003	0.324045	6
C	1.948657	2.271903	0.324045	6
H	-3.402773	0.809723	0.335695	1
H	-3.402864	-0.731697	1.202285	1
H	-3.402783	-0.711467	-0.565915	1
H	1.427006	-0.717297	1.229645	1
H	1.287867	-0.522927	-1.829875	1
H	1.258996	-2.014897	-0.878405	1
H	2.705697	-0.991477	-0.879825	1
H	2.298636	3.278373	0.323885	1
Es	1.298622	-0.531694	0.913477	99
Es	2.189241	2.926762	0.321961	99
Es	1.310943	0.495420	0.323164	99
Es	1.948740	2.272148	0.324027	99
Es	1.427283	1.836965	0.443850	99
Es	-3.008691	-0.211170	0.324044	99
Es	-0.962434	-0.058852	0.025574	99
Es	-3.259786	0.468639	0.331419	99
Es	-0.960146	-0.589325	0.348148	99
Es	-0.374340	-0.211148	0.324044	99
Es	-0.966538	0.001712	0.595278	99
Es	0.326997	-0.198594	0.324024	99
Es	-1.565090	-0.211190	0.324044	99
Es	1.756674	1.721064	0.077598	99
Es	-2.260351	-0.218741	0.322887	99
Es	-3.257003	-0.544775	-0.267871	99
Es	2.083797	1.598770	0.449373	99
Es	1.389475	-0.665925	-1.503580	99
Es	1.609055	-0.975545	-0.881705	99
Es	1.069294	-0.211065	0.324009	99
Es	1.322391	-0.566012	-0.265020	99
Es	-3.257941	-0.559302	0.908543	99
Es	2.358764	-0.975654	-0.871969	99
Es	1.551259	1.149724	0.324038	99
Es	1.359507	-1.681789	-0.870584	99
40
Properties=species:S:1:pos:R:3:Z:I:1 energy=-269.7039430828988 field_type=dipole dipole="0.000000 0.000000 0.000000" charge=0
C	-3.008803	-0.211167	0.324045	6
C	-1.564803	-0.211167	0.324045	6
C	-0.374644	-0.211167	0.324045	6
C	1.069356	-0.211167	0.324045	6
C	1.609076	-0.975577	-0.881765	6
C	1.551376	1.150003	0.324045	6
C	1.948657	2.271903	0.324045	6
H	-3.402773	0.809723	0.335695	1
H	-3.402864	-0.731697	1.202285	1
H	-3.402783	-0.711467	-0.565915	1
H	1.427006	-0.717297	1.229645	1
H	1.287867	-0.522927	-1.829875	1
H	1.258996	-2.014897	-0.878405	1
H	2.705697	-0.991477	-0.879825	1
H	2.298636	3.278373	0.323885	1
Es	1.609055	-0.975546	-0.881706	99
Es	0.326936	-0.199172	0.323449	99
Es	1.322295	-0.565669	-0.265075	99
Es	-3.257804	-0.544404	-0.268761	99
Es	-0.961617	-0.193098	0.032606	99
Es	1.389060	-0.665765	-1.504101	99
Es	1.434133	1.835359	0.459907	99
Es	-3.008691	-0.211171	0.324046	99
Es	1.751822	1.722264	0.057886	99
Es	2.190858	2.925647	0.322085	99
Es	-1.565092	-0.211201	0.324042	99
Es	1.551264	1.149727	0.324047	99
Es	-2.259909	-0.218692	0.322324	99
Es	1.359541	-1.681191	-0.870311	99
Es	1.299218	-0.532133	0.913829	99
Es	1.069297	-0.211069	0.323999	99
Es	2.359157	-0.976121	-0.871727	99
Es	-0.967202	0.112691	0.487138	99
Es	1.309382	0.495941	0.323122	99
Es	-3.258521	-0.558794	0.909101	99
Es	-3.258826	0.466708	0.331601	99
Es	1.948763	2.272151	0.324040	99
Es	2.081548	1.599271	0.452862	99
Es	-0.374343	-0.211152	0.324048	99
Es	-0.960603	-0.564158	0.450320	99
40
Properties=species:S:1:pos:R:3:Z:I:1 energy=-269.7039430828988 field_type=dipole dipole="0.000000 0.000000 0.000000" charge=0
C	-3.008803	-0.211167	0.324045	6
C	-1.564803	-0.211167	0.324045	6
C	-0.374644	-0.211167	0.324045	6
C	1.069356	-0.211167	0.324045	6
C	1.609076	-0.975577	-0.881765	6
C	1.551376	1.150003	0.324045	6
C	1.948657	2.271903	0.324045	6
H	-3.402773	0.809723	0.335695	1
H	-3.402864	-0.731697	1.202285	1
H	-3.402783	-0.711467	-0.565915	1
H	1.427006	-0.717297	1.229645	1
H	1.287867	-0.522927	-1.829875	1
H	1.258996	-2.014897	-0.878405	1
H	2.705697	-0.991477	-0.879825	1
H	2.298636	3.278373	0.323885	1
Es	1.309587	0.496060	0.323238	99
Es	2.191498	2.925342	0.321779	99
Es	-3.008692	-0.211170	0.324045	99
Es	-3.257465	-0.543959	-0.268522	99
Es	1.389147	-0.665885	-1.503455	99
Es	1.948769	2.272150	0.324038	99
Es	2.078469	1.600406	0.459647	99
Es	-0.374341	-0.211140	0.324042	99
Es	1.359299	-1.681315	-0.870513	99
Es	-0.960505	-0.567107	0.442960	99
Es	-3.258982	-0.559133	0.909255	99
Es	1.551262	1.149726	0.324041	99
Es	1.609055	-0.975547	-0.881707	99
Es	-0.961664	-0.186427	0.032989	99
Es	1.298840	-0.531546	0.913279	99
Es	0.326736	-0.198985	0.323367	99
Es	1.322464	-0.566119	-0.264856	99
Es	-2.259715	-0.218788	0.322557	99
Es	1.759849	1.719577	0.064724	99
Es	-0.967221	0.108726	0.493958	99
Es	1.428739	1.837154	0.446402	99
Es	1.069294	-0.211065	0.324009	99
Es	-1.565087	-0.211179	0.324042	99
Es	-3.258852	0.466364	0.331352	99
Es	2.359238	-0.975717	-0.871897	99
40
Properties=species:S:1:pos:R:3:Z:I:1 energy=-269.7039430828988 field_type=dipole dipole="0.000000 0.000000 0.000000" charge=0
C	-3.008803	-0.211167	0.324045	6
C	-1.564803	-0.211167	0.324045	6
C	-0.374644	-0.211167	0.324045	6
C	1.069356	-0.211167	0.324045	6
C	1.609076	-0.975577	-0.881765	6
C	1.551376	1.150003	0.324045	6
C	1.948657	2.271903	0.324045	6
H	-3.402773	0.809723	0.335695	1
H	-3.402864	-0.731697	1.202285	1
H	-3.402783	-0.711467	-0.565915	1
H	1.427006	-0.717297	1.229645	1
H	1.287867	-0.522927	-1.829875	1
H	1.258996	-2.014897	-0.878405	1
H	2.705697	-0.991477	-0.879825	1
H	2.298636	3.278373	0.323885	1
Es	-0.961688	-0.168986	0.032183	99
Es	1.299017	-0.531836	0.913038	99
Es	1.069295	-0.211066	0.324011	99
Es	-3.259152	-0.559345	0.909358	99
Es	-0.967220	0.097191	0.511302	99
Es	2.081187	1.599349	0.453382	99
Es	-3.008692	-0.211170	0.324045	99
Es	1.309784	0.496244	0.323156	99
Es	1.322314	-0.565824	-0.264538	99
Es	-3.258921	0.466263	0.331210	99
Es	-3.257250	-0.543786	-0.268376	99
Es	-0.374340	-0.211149	0.324044	99
Es	1.551261	1.149728	0.324045	99
Es	-2.259651	-0.218960	0.322430	99
Es	1.427877	1.837350	0.444207	99
Es	1.758065	1.720393	0.073122	99
Es	1.948765	2.272150	0.324035	99
Es	-0.960415	-0.573300	0.426349	99
Es	2.359270	-0.975492	-0.871745	99
Es	1.389041	-0.665724	-1.503355	99
Es	1.609055	-0.975545	-0.881702	99
Es	0.326564	-0.198790	0.323169	99
Es	1.358966	-1.681371	-0.870133	99
Es	2.191680	2.925280	0.321502	99
Es	-1.565090	-0.211183	0.324037	99
40
Properties=species:S:1:pos:R:3:Z:I:1 energy=-269.7039430828988 field_type=dipole dipole="0.000000 0.000000 0.000000" charge=0
C	-3.008803	-0.211167	0.324045	6
C	-1.564803	-0.211167	0.324045	6
C	-0.374644	-0.211167	0.324045	6
C	1.069356	-0.211167	0.324045	6
C	1.609076	-0.975577	-0.881765	6
C	1.551376	1.150003	0.324045	6
C	1.948657	2.271903	0.324045	6
H	-3.402773	0.809723	0.335695	1
H	-3.402864	-0.731697	1.202285	1
H	-3.402783	-0.711467	-0.565915	1
H	1.427006	-0.717297	1.229645	1
H	1.287867	-0.522927	-1.829875	1
H	1.258996	-2.014897	-0.878405	1
H	2.705697	-0.991477	-0.879825	1
H	2.298636	3.278373	0.323885	1
Es	1.309337	0.496497	0.322975	99
Es	1.298881	-0.531651	0.912773	99
Es	1.389145	-0.665858	-1.502930	99
Es	2.359462	-0.975426	-0.871808	99
Es	2.192319	2.924886	0.321995	99
Es	1.431011	1.836437	0.451988	99
Es	-0.960571	-0.565457	0.447042	99
Es	1.551264	1.149726	0.324044	99
Es	1.358788	-1.681234	-0.870449	99
Es	1.322353	-0.565977	-0.264647	99
Es	-3.258824	-0.558702	0.909331	99
Es	-3.008692	-0.211171	0.324045	99
Es	-3.258011	-0.544123	-0.268850	99
Es	-2.259510	-0.219164	0.322269	99
Es	-1.565090	-0.211185	0.324037	99
Es	1.753684	1.721892	0.069316	99
Es	-0.374341	-0.211148	0.324046	99
Es	1.069294	-0.211065	0.324008	99
Es	2.082348	1.598786	0.449341	99
Es	-0.961560	-0.193553	0.039476	99
Es	1.609055	-0.975545	-0.881705	99
Es	0.326484	-0.198868	0.323567	99
Es	-3.258612	0.465697	0.331561	99
Es	1.948768	2.272152	0.324036	99
Es	-0.967261	0.114476	0.483315	99
40
Properties=species:S:1:pos:R:3:Z:I:1 energy=-269.7039430828988 field_type=dipole dipole="0.000000 0.000000 0.000000" charge=0
C	-3.008803	-0.211167	0.324045	6
C	-1.564803	-0.211167	0.324045	6
C	-0.374644	-0.211167	0.324045	6
C	1.069356	-0.211167	0.324045	6
C	1.609076	-0.975577	-0.881765	6
C	1.551376	1.150003	0.324045	6
C	1.948657	2.271903	0.324045	6
H	-3.402773	0.809723	0.335695	1
H	-3.402864	-0.731697	1.202285	1
H	-3.402783	-0.711467	-0.565915	1
H	1.427006	-0.717297	1.229645	1
H	1.287867	-0.522927	-1.829875	1
H	1.258996	-2.014897	-0.878405	1
H	2.705697	-0.991477	-0.879825	1
H	2.298636	3.278373	0.323885	1
Es	-3.258597	0.465359	0.331401	99
Es	1.428492	1.837204	0.445675	99
Es	-3.257866	-0.543893	-0.268731	99
Es	2.081146	1.599257	0.451843	99
Es	-3.008693	-0.211170	0.324044	99
Es	1.389270	-0.665995	-1.502637	99
Es	1.069294	-0.211065	0.324009	99
Es	-1.565090	-0.211183	0.324044	99
Es	2.192543	2.924783	0.321881	99
Es	1.948763	2.272151	0.324036	99
Es	-2.259405	-0.219007	0.322326	99
Es	1.298803	-0.531555	0.912317	99
Es	1.358553	-1.681262	-0.870414	99
Es	1.309470	0.496581	0.323173	99
Es	-0.967245	0.112290	0.487147	99
Es	-3.259085	-0.558841	0.909473	99
Es	-0.374337	-0.211153	0.324045	99
Es	-0.960510	-0.567056	0.442985	99
Es	1.551275	1.149729	0.324065	99
Es	0.326343	-0.198763	0.323461	99
Es	1.322305	-0.565836	-0.264651	99
Es	1.757323	1.720685	0.073092	99
Es	2.359501	-0.975258	-0.871831	99
Es	1.609055	-0.975546	-0.881705	99
Es	-0.961586	-0.190034	0.039726	99
40
Properties=species:S:1:pos:R:3:Z:I:1 energy=-269.7039430828988 field_type=dipole dipole="0.000000 0.000000 0.000000" charge=0
C	-3.008803	-0.211167	0.324045	6
C	-1.564803	-0.211167	0.324045	6
C	-0.374644	-0.211167	0.324045	6
C	1.069356	-0.211167	0.324045	6
C	1.609076	-0.975577	-0.881765	6
C	1.551376	1.150003	0.324045	6
C	1.948657	2.271903	0.324045	6
H	-3.402773	0.809723	0.335695	1
H	-3.402864	-0.731697	1.202285	1
H	-3.402783	-0.711467	-0.565915	1
H	1.427006	-0.717297	1.229645	1
H	1.287867	-0.522927	-1.829875	1
H	1.258996	-2.014897	-0.878405	1
H	2.705697	-0.991477	-0.879825	1
H	2.298636	3.278373	0.323885	1
Es	1.551261	1.149726	0.324050	99
Es	1.358463	-1.681329	-0.870732	99
Es	1.435767	1.832622	0.178728	99
Es	1.741592	1.728383	0.568377	99
Es	-3.258499	0.465138	0.331191	99
Es	-0.960458	-0.565224	0.446723	99
Es	2.359532	-0.975079	-0.872526	99
Es	-0.961669	-0.194014	0.039813	99
Es	1.298397	-0.530831	0.911699	99
Es	2.089401	1.596267	0.220673	99
Es	1.948765	2.272150	0.324041	99
Es	1.322360	-0.565937	-0.264752	99
Es	1.609055	-0.975546	-0.881707	99
Es	2.192834	2.924624	0.323153	99
Es	-2.259338	-0.219133	0.322900	99
Es	-3.257160	-0.542933	-0.268518	99
Es	0.326306	-0.198734	0.323388	99
Es	-3.008693	-0.211171	0.324043	99
Es	-3.259906	-0.559732	0.909688	99
Es	1.069299	-0.211072	0.324009	99
Es	1.309478	0.496651	0.325061	99
Es	-0.967237	0.114582	0.483275	99
Es	1.389602	-0.666654	-1.501884	99
Es	-1.565090	-0.211184	0.324039	99
Es	-0.374340	-0.211148	0.324044	99
40
Properties=species:S:1:pos:R:3:Z:I:1 energy=-269.7039430828988 field_type=dipole dipole="0.000000 0.000000 0.000000" charge=0
C	-3.008803	-0.211167	0.324045	6
C	-1.564803	-0.211167	0.324045	6
C	-0.374644	-0.211167	0.324045	6
C	1.069356	-0.211167	0.324045	6
C	1.609076	-0.975577	-0.881765	6
C	1.551376	1.150003	0.324045	6
C	1.948657	2.271903	0.324045	6
H	-3.402773	0.809723	0.335695	1
H	-3.402864	-0.731697	1.202285	1
H	-3.402783	-0.711467	-0.565915	1
H	1.427006	-0.717297	1.229645	1
H	1.287867	-0.522927	-1.829875	1
H	1.258996	-2.014897	-0.878405	1
H	2.705697	-0.991477	-0.879825	1
H	2.298636	3.278373	0.323885	1
Es	1.309479	0.496755	0.325152	99
Es	1.390506	-0.667560	-1.500437	99
Es	1.948764	2.272152	0.324042	99
Es	0.326227	-0.198744	0.325352	99
Es	1.609055	-0.975546	-0.881705	99
Es	1.069294	-0.211064	0.324009	99
Es	1.551259	1.149726	0.324051	99
Es	1.297073	-0.529250	0.910312	99
Es	-0.964823	0.099881	0.136431	99
Es	-3.008692	-0.211171	0.324047	99
Es	-2.259239	-0.219194	0.324138	99
Es	-3.258717	-0.544580	-0.269226	99
Es	-0.960489	-0.575514	0.228736	99
Es	2.089038	1.596415	0.218824	99
Es	-3.258466	-0.557985	0.909237	99
Es	1.322859	-0.566628	-0.265022	99
Es	-0.374342	-0.211157	0.324052	99
Es	-1.565087	-0.211183	0.324028	99
Es	-0.964062	-0.169076	0.602774	99
Es	-3.258446	0.465000	0.331816	99
Es	1.434278	1.833259	0.182679	99
Es	2.359614	-0.974905	-0.873189	99
Es	2.192861	2.924634	0.324813	99
Es	1.743592	1.727500	0.565853	99
Es	1.358185	-1.681345	-0.871991	99
40
Properties=species:S:1:pos:R:3:Z:I:1 energy=-269.7039430828988 field_type=dipole dipole="0.000000 0.000000 0.000000" charge=0
C	-3.008803	-0.211167	0.324045	6
C	-1.564803	-0.211167	0.324045	6
C	-0.374644	-0.211167	0.324045	6
C	1.069356	-0.211167	0.324045	6
C	1.609076	-0.975577	-0.881765	6
C	1.551376	1.150003	0.324045	6
C	1.948657	2.271903	0.324045	6
H	-3.402773	0.809723	0.335695	1
H	-3.402864	-0.731697	1.202285	1
H	-3.402783	-0.711467	-0.565915	1
H	1.427006	-0.717297	1.229645	1
H	1.287867	-0.522927	-1.829875	1
H	1.258996	-2.014897	-0.878405	1
H	2.705697	-0.991477	-0.879825	1
H	2.298636	3.278373	0.323885	1
Es	1.358070	-1.681269	-0.870469	99
Es	-3.258282	0.464429	0.331490	99
Es	-3.259356	-0.558766	0.909653	99
Es	1.948768	2.272150	0.324035	99
Es	-0.960525	-0.566956	0.443059	99
Es	1.758350	1.720482	0.079186	99
Es	2.081484	1.599039	0.450472	99
Es	-1.565090	-0.211188	0.324037	99
Es	1.426930	1.837738	0.440699	99
Es	-0.374340	-0.211146	0.324045	99
Es	1.389412	-0.666166	-1.501912	99
Es	0.326154	-0.198763	0.323462	99
Es	-3.258082	-0.543630	-0.269040	99
Es	-3.008693	-0.211171	0.324047	99
Es	1.309469	0.496877	0.323248	99
Es	1.298598	-0.531267	0.911674	99
Es	-0.967286	0.114333	0.483250	99
Es	-2.259136	-0.219030	0.322491	99
Es	1.322363	-0.565818	-0.264417	99
Es	1.609054	-0.975545	-0.881704	99
Es	1.069297	-0.211069	0.324004	99
Es	1.551261	1.149726	0.324045	99
Es	2.359627	-0.974957	-0.872054	99
Es	2.193243	2.924382	0.322020	99
Es	-0.961569	-0.191995	0.043453	99
40
Properties=species:S:1:pos:R:3:Z:I:1 energy=-269.7039430828988 field_type=dipole dipole="0.000000 0.000000 0.000000" charge=0
C	-3.008803	-0.211167	0.324045	6
C	-1.564803	-0.211167	0.324045	6
C	-0.374644	-0.211167	0.324045	6
C	1.069356	-0.211167	0.324045	6
C	1.609076	-0.975577	-0.881765	6
C	1.551376	1.150003	0.324045	6
C	1.948657	2.271903	0.324045	6
H	-3.402773	0.809723	0.335695	1
H	-3.402864	-0.731697	1.202285	1
H	-3.402783	-0.711467	-0.565915	1
H	1.427006	-0.717297	1.229645	1
H	1.287867	-0.522927	-1.829875	1
H	1.258996	-2.014897	-0.878405	1
H	2.705697	-0.991477	-0.879825	1
H	2.298636	3.278373	0.323885	1
Es	-3.008692	-0.211170	0.324046	99
Es	2.193566	2.924202	0.322865	99
Es	-0.961609	-0.184612	0.044551	99
Es	1.551261	1.149727	0.324052	99
Es	-3.257091	-0.542528	-0.268417	99
Es	-3.258476	0.464644	0.331216	99
Es	1.948760	2.272149	0.324025	99
Es	0.326080	-0.198581	0.323263	99
Es	1.609051	-0.975540	-0.881706	99
Es	-3.260206	-0.559923	0.909638	99
Es	-2.259132	-0.219128	0.322599	99
Es	1.357987	-1.681301	-0.870439	99
Es	-0.960489	-0.570308	0.434603	99
Es	-0.374339	-0.211138	0.324047	99
Es	1.745697	1.726928	0.566090	99
Es	1.389414	-0.666448	-1.501488	99
Es	1.433128	1.833617	0.185258	99
Es	1.298726	-0.531320	0.911383	99
Es	2.087564	1.596933	0.216481	99
Es	1.069294	-0.211064	0.324008	99
Es	1.322172	-0.565682	-0.264611	99
Es	-1.565091	-0.211188	0.324038	99
Es	1.309653	0.496806	0.324946	99
Es	-0.967208	0.109987	0.490659	99
Es	2.359700	-0.974639	-0.872332	99
40
Properties=species:S:1:pos:R:3:Z:I:1 energy=-269.7039430828988 field_type=dipole dipole="0.000000 0.000000 0.000000" charge=0
C	-3.008803	-0.211167	0.324045	6
C	-1.564803	-0.211167	0.324045	6
C	-0.374644	-0.211167	0.324045	6
C	1.069356	-0.211167	0.324045	6
C	1.609076	-0.975577	-0.881765	6
C	1.551376	1.150003	0.324045	6
C	1.948657	2.271903	0.324045	6
H	-3.402773	0.809723	0.335695	1
H	-3.402864	-0.731697	1.202285	1
H	-3.402783	-0.711467	-0.565915	1
H	1.427006	-0.717297	1.229645	1
H	1.287867	-0.522927	-1.829875	1
H	1.258996	-2.014897	-0.878405	1
H	2.705697	-0.991477	-0.879825	1
H	2.298636	3.278373	0.323885	1
Es	1.948766	2.272151	0.324041	99
Es	1.358019	-1.681220	-0.870681	99
Es	1.434780	1.833103	0.181384	99
Es	-0.967217	0.116535	0.479299	99
Es	-0.961593	-0.193312	0.049301	99
Es	1.298458	-0.530893	0.911211	99
Es	2.088094	1.596688	0.218767	99
Es	1.309368	0.496988	0.325005	99
Es	-0.374340	-0.211146	0.324044	99
Es	-2.259001	-0.218957	0.322880	99
Es	-3.008692	-0.211171	0.324044	99
Es	0.326083	-0.198664	0.323382	99
Es	2.359743	-0.974783	-0.872400	99
Es	-3.258246	0.464054	0.331047	99
Es	1.743448	1.727711	0.567566	99
Es	2.193934	2.923954	0.323036	99
Es	1.389595	-0.666644	-1.501415	99
Es	-0.960559	-0.567868	0.440976	99
Es	1.069295	-0.211066	0.324011	99
Es	1.322193	-0.565825	-0.264533	99
Es	-1.565090	-0.211185	0.324039	99
Es	1.609055	-0.975546	-0.881706	99
Es	-3.257591	-0.542975	-0.268530	99
Es	1.551260	1.149727	0.324052	99
Es	-3.260041	-0.559233	0.909956	99
