36
Properties=species:S:1:pos:R:3:Z:I:1 energy=-341.42847146758146 field_type=dipole dipole="0.000000 0.000000 0.000000" charge=0
C	-1.708575	-1.229157	-0.003944	6
C	-0.209535	-1.305507	0.004126	6
O	0.412675	-2.359057	0.008896	8
C	0.513746	-0.056007	0.002436	6
C	1.126745	0.977103	0.001736	6
C	1.864125	2.212993	0.001376	6
O	1.278645	3.285842	0.000856	8
H	-2.053804	-0.192097	0.011496	1
H	-2.098165	-1.741127	0.880116	1
H	-2.087355	-1.712157	-0.908764	1
H	2.961495	2.119173	0.001666	1
Es	-1.949427	-1.570340	0.582486	99
Es	1.126862	0.977297	0.001740	99
Es	0.546537	0.631993	-0.153425	99
Es	2.599214	2.137031	0.001525	99
Es	1.496104	2.867639	0.252327	99
Es	-1.941067	-1.550739	-0.604239	99
Es	-1.931494	-0.530107	0.006244	99
Es	1.495866	2.867398	-0.250351	99
Es	0.836663	0.454198	0.346333	99
Es	0.188431	-1.954387	0.257937	99
Es	1.083917	0.311580	-0.184879	99
Es	0.160720	-0.638339	0.002285	99
Es	0.971534	3.254726	0.000976	99
Es	0.412520	-2.358795	0.008888	99
Es	1.486743	1.557742	0.000850	99
Es	-1.708499	-1.229159	-0.003944	99
Es	1.477679	3.526088	0.000608	99
Es	-0.952318	-1.246738	0.000740	99
Es	-0.209482	-1.305369	0.004130	99
Es	0.721174	-2.323350	0.010187	99
Es	1.864048	2.212873	0.001371	99
Es	0.513628	-0.056193	0.002439	99
Es	1.278789	3.285575	0.000850	99
Es	0.215724	-2.603349	0.008663	99
Es	0.190950	-1.956108	-0.243762	99
36
Properties=species:S:1:pos:R:3:Z:I:1 energy=-341.42847146758146 field_type=dipole dipole="0.000000 0.000000 0.000000" charge=0
C	-1.708575	-1.229157	-0.003944	6
C	-0.209535	-1.305507	0.004126	6
O	0.412675	-2.359057	0.008896	8
C	0.513746	-0.056007	0.002436	6
C	1.126745	0.977103	0.001736	6
C	1.864125	2.212993	0.001376	6
O	1.278645	3.285842	0.000856	8
H	-2.053804	-0.192097	0.011496	1
H	-2.098165	-1.741127	0.880116	1
H	-2.087355	-1.712157	-0.908764	1
H	2.961495	2.119173	0.001666	1
Es	1.482349	1.560493	0.001683	99
Es	1.111870	0.296845	-0.137724	99
Es	-0.953024	-1.250609	0.000316	99
Es	-1.933940	-0.524488	0.006028	99
Es	1.490736	2.865650	0.246062	99
Es	0.165004	-0.640997	0.003132	99
Es	0.696368	-2.297359	0.009416	99
Es	0.807280	0.471857	0.309352	99
Es	-1.947443	-1.571762	0.578910	99
Es	1.278822	3.285573	0.000856	99
Es	0.412483	-2.358780	0.008893	99
Es	-1.708498	-1.229160	-0.003946	99
Es	0.547965	0.629023	-0.165512	99
Es	1.864050	2.212864	0.001373	99
Es	0.227922	-2.634969	0.008737	99
Es	-0.209483	-1.305366	0.004107	99
Es	1.463896	3.558791	0.001222	99
Es	0.996637	3.226702	0.000908	99
Es	0.513629	-0.056206	0.002441	99
Es	2.598106	2.137811	0.001477	99
Es	0.194839	-1.952572	0.252100	99
Es	0.195972	-1.953264	-0.237071	99
Es	-1.938686	-1.551645	-0.600074	99
Es	1.126858	0.977317	0.001741	99
Es	1.491105	2.865421	-0.244446	99
36
Properties=species:S:1:pos:R:3:Z:I:1 energy=-341.42847146758146 field_type=dipole dipole="0.000000 0.000000 0.000000" charge=0
C	-1.708575	-1.229157	-0.003944	6
C	-0.209535	-1.305507	0.004126	6
O	0.412675	-2.359057	0.008896	8
C	0.513746	-0.056007	0.002436	6
C	1.126745	0.977103	0.001736	6
C	1.864125	2.212993	0.001376	6
O	1.278645	3.285842	0.000856	8
H	-2.053804	-0.192097	0.011496	1
H	-2.098165	-1.741127	0.880116	1
H	-2.087355	-1.712157	-0.908764	1
H	2.961495	2.119173	0.001666	1
Es	0.677580	-2.287932	0.009361	99
Es	0.199932	-1.952165	-0.234587	99
Es	0.412461	-2.358791	0.008895	99
Es	1.864053	2.212864	0.001371	99
Es	0.525496	0.642143	-0.122137	99
Es	0.166615	-0.641650	0.003396	99
Es	1.486864	2.864300	-0.242514	99
Es	-1.937880	-1.551525	-0.598157	99
Es	-0.209485	-1.305367	0.004127	99
Es	0.238561	-2.647416	0.008421	99
Es	-0.953534	-1.252740	-0.000071	99
Es	0.198262	-1.950955	0.249952	99
Es	-1.946714	-1.572247	0.577369	99
Es	0.819342	0.465182	0.244692	99
Es	-1.934032	-0.522389	0.006053	99
Es	1.126866	0.977319	0.001746	99
Es	1.453314	3.571130	0.001067	99
Es	1.016548	3.217902	0.000371	99
Es	-1.708499	-1.229159	-0.003944	99
Es	0.513634	-0.056214	0.002441	99
Es	2.597157	2.138402	0.001591	99
Es	1.486267	2.863470	0.244760	99
Es	1.278850	3.285556	0.000856	99
Es	1.122569	0.290249	-0.117036	99
Es	1.480591	1.561200	0.001955	99
36
Properties=species:S:1:pos:R:3:Z:I:1 energy=-341.42847146758146 field_type=dipole dipole="0.000000 0.000000 0.000000" charge=0
C	-1.708575	-1.229157	-0.003944	6
C	-0.209535	-1.305507	0.004126	6
O	0.412675	-2.359057	0.008896	8
C	0.513746	-0.056007	0.002436	6
C	1.126745	0.977103	0.001736	6
C	1.864125	2.212993	0.001376	6
O	1.278645	3.285842	0.000856	8
H	-2.053804	-0.192097	0.011496	1
H	-2.098165	-1.741127	0.880116	1
H	-2.087355	-1.712157	-0.908764	1
H	2.961495	2.119173	0.001666	1
Es	0.513633	-0.056215	0.002431	99
Es	-1.708499	-1.229159	-0.003944	99
Es	0.204380	-1.950024	-0.235129	99
Es	0.660589	-2.285227	0.009775	99
Es	1.864051	2.212865	0.001379	99
Es	1.135804	0.282385	0.071413	99
Es	0.167095	-0.641767	0.002867	99
Es	1.480005	1.561342	0.001490	99
Es	-0.954669	-1.253892	0.000249	99
Es	0.511017	0.650628	0.073862	99
Es	0.202447	-1.949656	0.249803	99
Es	1.445923	3.577403	0.000927	99
Es	0.820698	0.464521	-0.138876	99
Es	-1.936723	-1.551147	-0.597892	99
Es	-1.947046	-1.573025	0.576878	99
Es	1.481913	2.861882	-0.243016	99
Es	1.126863	0.977319	0.001737	99
Es	0.412505	-2.358786	0.008891	99
Es	0.246244	-2.653693	0.008843	99
Es	1.034538	3.215435	0.000623	99
Es	-0.209484	-1.305366	0.004120	99
Es	1.278830	3.285575	0.000854	99
Es	-1.932900	-0.521137	0.005913	99
Es	1.481293	2.862241	0.245074	99
Es	2.596312	2.138665	0.001706	99
36
Properties=species:S:1:pos:R:3:Z:I:1 energy=-341.42847146758146 field_type=dipole dipole="0.000000 0.000000 0.000000" charge=0
C	-1.708575	-1.229157	-0.003944	6
C	-0.209535	-1.305507	0.004126	6
O	0.412675	-2.359057	0.008896	8
C	0.513746	-0.056007	0.002436	6
C	1.126745	0.977103	0.001736	6
C	1.864125	2.212993	0.001376	6
O	1.278645	3.285842	0.000856	8
H	-2.053804	-0.192097	0.011496	1
H	-2.098165	-1.741127	0.880116	1
H	-2.087355	-1.712157	-0.908764	1
H	2.961495	2.119173	0.001666	1
Es	-1.708498	-1.229160	-0.003943	99
Es	-0.209483	-1.305364	0.004126	99
Es	0.208369	-1.948991	0.250230	99
Es	1.864051	2.212864	0.001380	99
Es	1.047315	3.214305	0.001455	99
Es	0.246371	-2.655201	0.008411	99
Es	0.821438	0.464358	-0.001774	99
Es	1.477788	2.858858	-0.242878	99
Es	0.505027	0.654278	0.001131	99
Es	0.650057	-2.287048	0.008856	99
Es	1.477903	2.863014	0.244629	99
Es	1.140997	0.278903	0.006884	99
Es	0.167491	-0.641839	0.002883	99
Es	0.513639	-0.056219	0.002434	99
Es	-1.947591	-1.574377	0.576237	99
Es	-1.935684	-1.549911	-0.597122	99
Es	2.595630	2.138909	0.001618	99
Es	-1.932105	-0.520276	0.006081	99
Es	1.479787	1.561303	0.001655	99
Es	-0.955419	-1.254832	0.000044	99
Es	1.441103	3.580856	0.000584	99
Es	0.412474	-2.358790	0.008889	99
Es	1.126851	0.977330	0.001740	99
Es	0.208474	-1.947400	-0.234425	99
Es	1.278832	3.285596	0.000854	99
36
Properties=species:S:1:pos:R:3:Z:I:1 energy=-341.42847146758146 field_type=dipole dipole="0.000000 0.000000 0.000000" charge=0
C	-1.708575	-1.229157	-0.003944	6
C	-0.209535	-1.305507	0.004126	6
O	0.412675	-2.359057	0.008896	8
C	0.513746	-0.056007	0.002436	6
C	1.126745	0.977103	0.001736	6
C	1.864125	2.212993	0.001376	6
O	1.278645	3.285842	0.000856	8
H	-2.053804	-0.192097	0.011496	1
H	-2.098165	-1.741127	0.880116	1
H	-2.087355	-1.712157	-0.908764	1
H	2.961495	2.119173	0.001666	1
Es	0.821483	0.464323	-0.001508	99
Es	-1.931206	-1.544829	-0.595139	99
Es	1.864050	2.212864	0.001376	99
Es	-1.708500	-1.229159	-0.003946	99
Es	1.440884	3.581616	0.001322	99
Es	0.216259	-1.972542	-0.214514	99
Es	-0.209484	-1.305366	0.004127	99
Es	0.505619	0.654018	-0.004924	99
Es	1.278805	3.285594	0.000855	99
Es	0.513640	-0.056220	0.002430	99
Es	0.412446	-2.358799	0.008895	99
Es	1.479503	1.561318	0.001988	99
Es	-1.931557	-0.519638	0.006009	99
Es	1.126851	0.977330	0.001745	99
Es	1.474397	2.855911	0.243832	99
Es	0.167765	-0.641859	0.002795	99
Es	0.641287	-2.286754	0.007338	99
Es	1.474811	2.864266	-0.242080	99
Es	1.140422	0.279185	0.012573	99
Es	2.595242	2.139083	0.002084	99
Es	0.206492	-1.922238	0.229897	99
Es	-0.956202	-1.255629	0.000623	99
Es	1.054284	3.215257	0.000196	99
Es	-1.951559	-1.579481	0.573935	99
Es	0.249086	-2.657084	0.010068	99
36
Properties=species:S:1:pos:R:3:Z:I:1 energy=-341.42847146758146 field_type=dipole dipole="0.000000 0.000000 0.000000" charge=0
C	-1.708575	-1.229157	-0.003944	6
C	-0.209535	-1.305507	0.004126	6
O	0.412675	-2.359057	0.008896	8
C	0.513746	-0.056007	0.002436	6
C	1.126745	0.977103	0.001736	6
C	1.864125	2.212993	0.001376	6
O	1.278645	3.285842	0.000856	8
H	-2.053804	-0.192097	0.011496	1
H	-2.098165	-1.741127	0.880116	1
H	-2.087355	-1.712157	-0.908764	1
H	2.961495	2.119173	0.001666	1
Es	0.506132	0.653786	-0.012317	99
Es	0.211821	-1.902108	0.184286	99
Es	-1.708500	-1.229162	-0.003942	99
Es	2.594967	2.139063	0.002006	99
Es	1.479358	1.561368	0.001916	99
Es	1.139923	0.279406	0.017893	99
Es	0.221792	-1.989716	-0.169385	99
Es	0.412576	-2.358851	0.008888	99
Es	1.864050	2.212864	0.001377	99
Es	-0.957103	-1.255794	0.000410	99
Es	-0.209484	-1.305365	0.004126	99
Es	1.062074	3.216040	0.001656	99
Es	1.439227	3.582505	0.000053	99
Es	-1.928085	-1.540967	-0.593127	99
Es	0.250083	-2.657851	0.011265	99
Es	-1.930820	-0.519366	0.006000	99
Es	1.126855	0.977328	0.001738	99
Es	0.513639	-0.056220	0.002435	99
Es	-1.954368	-1.583554	0.572115	99
Es	0.167865	-0.641861	0.002873	99
Es	1.471411	2.853564	-0.242653	99
Es	1.471830	2.865032	0.244287	99
Es	0.821463	0.464332	0.000550	99
Es	1.278853	3.285580	0.000858	99
Es	0.629259	-2.288884	0.006669	99
36
Properties=species:S:1:pos:R:3:Z:I:1 energy=-341.42847146758146 field_type=dipole dipole="0.000000 0.000000 0.000000" charge=0
C	-1.708575	-1.229157	-0.003944	6
C	-0.209535	-1.305507	0.004126	6
O	0.412675	-2.359057	0.008896	8
C	0.513746	-0.056007	0.002436	6
C	1.126745	0.977103	0.001736	6
C	1.864125	2.212993	0.001376	6
O	1.278645	3.285842	0.000856	8
H	-2.053804	-0.192097	0.011496	1
H	-2.098165	-1.741127	0.880116	1
H	-2.087355	-1.712157	-0.908764	1
H	2.961495	2.119173	0.001666	1
Es	0.224936	-2.003463	0.100834	99
Es	1.126847	0.977334	0.001737	99
Es	0.513641	-0.056221	0.002441	99
Es	1.070119	3.216660	0.002319	99
Es	-1.934821	-1.549976	-0.597733	99
Es	2.594516	2.139065	0.001154	99
Es	0.620222	-2.290537	0.010499	99
Es	0.412474	-2.358804	0.008895	99
Es	1.278848	3.285576	0.000856	99
Es	0.821399	0.464384	-0.000174	99
Es	-1.947261	-1.574915	0.576265	99
Es	1.140026	0.279295	0.003819	99
Es	0.506163	0.653817	0.002555	99
Es	-1.708499	-1.229161	-0.003942	99
Es	0.167918	-0.641852	0.002533	99
Es	-1.929878	-0.519205	0.006368	99
Es	1.437214	3.583370	0.001322	99
Es	1.469744	2.868173	0.243168	99
Es	0.250236	-2.658173	0.005543	99
Es	1.864051	2.212865	0.001381	99
Es	-0.958389	-1.255692	0.000044	99
Es	-0.209487	-1.305365	0.004128	99
Es	0.217695	-1.886394	-0.083649	99
Es	1.479347	1.561341	0.001944	99
Es	1.467756	2.849048	-0.242325	99
36
Properties=species:S:1:pos:R:3:Z:I:1 energy=-341.42847146758146 field_type=dipole dipole="0.000000 0.000000 0.000000" charge=0
C	-1.708575	-1.229157	-0.003944	6
C	-0.209535	-1.305507	0.004126	6
O	0.412675	-2.359057	0.008896	8
C	0.513746	-0.056007	0.002436	6
C	1.126745	0.977103	0.001736	6
C	1.864125	2.212993	0.001376	6
O	1.278645	3.285842	0.000856	8
H	-2.053804	-0.192097	0.011496	1
H	-2.098165	-1.741127	0.880116	1
H	-2.087355	-1.712157	-0.908764	1
H	2.961495	2.119173	0.001666	1
Es	0.821316	0.464439	0.012281	99
Es	0.226024	-2.007606	0.038751	99
Es	0.168002	-0.641870	0.002730	99
Es	1.073197	3.216407	0.003041	99
Es	1.126855	0.977329	0.001744	99
Es	1.278859	3.285555	0.000852	99
Es	0.506451	0.653692	-0.006477	99
Es	0.513638	-0.056220	0.002436	99
Es	1.139815	0.279364	0.000153	99
Es	1.479292	1.561354	0.002017	99
Es	1.864050	2.212864	0.001378	99
Es	2.594355	2.139093	0.001451	99
Es	-1.932983	-1.547594	-0.597046	99
Es	-1.708499	-1.229159	-0.003944	99
Es	0.251831	-2.658970	0.007311	99
Es	-1.948881	-1.577443	0.576050	99
Es	1.436095	3.583951	0.000004	99
Es	1.465795	2.845103	-0.238525	99
Es	0.612401	-2.290870	0.010514	99
Es	-0.959318	-1.255871	-0.000342	99
Es	-0.209485	-1.305365	0.004126	99
Es	0.412458	-2.358796	0.008895	99
Es	-1.929067	-0.518921	0.006226	99
Es	1.469827	2.871837	0.239551	99
Es	0.222791	-1.881135	-0.023196	99
36
Properties=species:S:1:pos:R:3:Z:I:1 energy=-341.42847146758146 field_type=dipole dipole="0.000000 0.000000 0.000000" charge=0
C	-1.708575	-1.229157	-0.003944	6
C	-0.209535	-1.305507	0.004126	6
O	0.412675	-2.359057	0.008896	8
C	0.513746	-0.056007	0.002436	6
C	1.126745	0.977103	0.001736	6
C	1.864125	2.212993	0.001376	6
O	1.278645	3.285842	0.000856	8
H	-2.053804	-0.192097	0.011496	1
H	-2.098165	-1.741127	0.880116	1
H	-2.087355	-1.712157	-0.908764	1
H	2.961495	2.119173	0.001666	1
Es	0.226265	-2.006901	-0.043172	99
Es	1.436247	3.584051	0.003056	99
Es	0.821395	0.464391	0.003777	99
Es	0.506534	0.653702	-0.000112	99
Es	1.864050	2.212864	0.001380	99
Es	1.463580	2.834819	0.222801	99
Es	1.077948	3.217127	0.000003	99
Es	0.513638	-0.056221	0.002436	99
Es	0.227068	-1.881136	0.059402	99
Es	-1.708498	-1.229159	-0.003944	99
Es	0.606126	-2.290875	0.008015	99
Es	2.594321	2.139168	0.002157	99
Es	1.467245	2.881233	-0.222525	99
Es	0.168078	-0.641890	0.002671	99
Es	-0.959195	-1.256157	0.000361	99
Es	1.126845	0.977336	0.001744	99
Es	0.253494	-2.659662	0.008426	99
Es	-1.934922	-1.550117	-0.597478	99
Es	1.479190	1.561358	0.002145	99
Es	-1.946976	-1.574791	0.576125	99
Es	1.278778	3.285588	0.000855	99
Es	-1.929007	-0.518784	0.006380	99
Es	1.139603	0.279419	0.002450	99
Es	0.412496	-2.358830	0.008895	99
Es	-0.209484	-1.305366	0.004131	99
36
Properties=species:S:1:pos:R:3:Z:I:1 energy=-341.42847146758146 field_type=dipole dipole="0.000000 0.000000 0.000000" charge=0
C	-1.708575	-1.229157	-0.003944	6
C	-0.209535	-1.305507	0.004126	6
O	0.412675	-2.359057	0.008896	8
C	0.513746	-0.056007	0.002436	6
C	1.126745	0.977103	0.001736	6
C	1.864125	2.212993	0.001376	6
O	1.278645	3.285842	0.000856	8
H	-2.053804	-0.192097	0.011496	1
H	-2.098165	-1.741127	0.880116	1
H	-2.087355	-1.712157	-0.908764	1
H	2.961495	2.119173	0.001666	1
Es	-0.209483	-1.305366	0.004129	99
Es	-0.959690	-1.255661	0.000506	99
Es	1.466472	2.909004	-0.074424	99
Es	1.451226	2.805063	0.073752	99
Es	1.278821	3.285601	0.000855	99
Es	-1.940169	-1.557849	-0.598283	99
Es	1.092352	3.218057	0.000037	99
Es	1.139482	0.279495	-0.008045	99
Es	1.479119	1.561347	0.002326	99
Es	0.255969	-2.660328	0.003463	99
Es	0.225129	-1.903016	-0.178212	99
Es	0.506720	0.653585	0.008703	99
Es	0.513642	-0.056221	0.002437	99
Es	1.126843	0.977336	0.001737	99
Es	0.412523	-2.358843	0.008894	99
Es	0.821497	0.464369	0.005410	99
Es	-1.928189	-0.518693	0.006529	99
Es	0.167981	-0.641836	0.002365	99
Es	-1.941418	-1.567551	0.576197	99
Es	1.864049	2.212864	0.001372	99
Es	-1.708499	-1.229159	-0.003944	99
Es	0.609486	-2.289312	0.011627	99
Es	1.434516	3.584896	0.004852	99
Es	2.594612	2.139440	0.001513	99
Es	0.221825	-1.986057	0.196185	99
36
Properties=species:S:1:pos:R:3:Z:I:1 energy=-341.42847146758146 field_type=dipole dipole="0.000000 0.000000 0.000000" charge=0
C	-1.708575	-1.229157	-0.003944	6
C	-0.209535	-1.305507	0.004126	6
O	0.412675	-2.359057	0.008896	8
C	0.513746	-0.056007	0.002436	6
C	1.126745	0.977103	0.001736	6
C	1.864125	2.212993	0.001376	6
O	1.278645	3.285842	0.000856	8
H	-2.053804	-0.192097	0.011496	1
H	-2.098165	-1.741127	0.880116	1
H	-2.087355	-1.712157	-0.908764	1
H	2.961495	2.119173	0.001666	1
Es	1.864051	2.212864	0.001376	99
Es	1.126848	0.977334	0.001737	99
Es	1.479174	1.561342	0.002148	99
Es	0.231693	-1.879623	0.036149	99
Es	2.594135	2.139242	0.001569	99
Es	1.433333	3.585265	-0.000258	99
Es	0.598680	-2.290590	0.009203	99
Es	-0.209489	-1.305365	0.004123	99
Es	-1.708500	-1.229159	-0.003945	99
Es	1.139318	0.279602	0.013636	99
Es	0.168108	-0.641878	0.002476	99
Es	1.455777	2.827465	-0.207043	99
Es	0.513643	-0.056223	0.002436	99
Es	-0.960069	-1.255952	-0.000153	99
Es	0.506898	0.653496	-0.010824	99
Es	0.255985	-2.660666	0.008214	99
Es	0.226487	-2.007768	-0.020136	99
Es	-1.928423	-0.518646	0.006489	99
Es	1.278846	3.285579	0.000855	99
Es	0.821365	0.464394	0.003315	99
Es	1.089062	3.217211	0.003446	99
Es	1.466816	2.887310	0.207841	99
Es	0.412466	-2.358798	0.008894	99
Es	-1.955773	-1.586694	0.570736	99
Es	-1.925612	-1.538575	-0.592305	99
36
Properties=species:S:1:pos:R:3:Z:I:1 energy=-341.42847146758146 field_type=dipole dipole="0.000000 0.000000 0.000000" charge=0
C	-1.708575	-1.229157	-0.003944	6
C	-0.209535	-1.305507	0.004126	6
O	0.412675	-2.359057	0.008896	8
C	0.513746	-0.056007	0.002436	6
C	1.126745	0.977103	0.001736	6
C	1.864125	2.212993	0.001376	6
O	1.278645	3.285842	0.000856	8
H	-2.053804	-0.192097	0.011496	1
H	-2.098165	-1.741127	0.880116	1
H	-2.087355	-1.712157	-0.908764	1
H	2.961495	2.119173	0.001666	1
Es	1.432540	3.585610	-0.000357	99
Es	-1.954882	-1.585486	0.571907	99
Es	0.412453	-2.358815	0.008896	99
Es	1.093044	3.217261	0.003523	99
Es	1.864050	2.212864	0.001375	99
Es	0.226512	-2.007950	-0.012903	99
Es	-1.708499	-1.229159	-0.003944	99
Es	1.278857	3.285569	0.000855	99
Es	0.232530	-1.879362	0.027731	99
Es	0.821066	0.464579	0.013738	99
Es	0.256252	-2.660752	0.008622	99
Es	1.466650	2.891589	0.193570	99
Es	-1.926476	-1.539828	-0.593068	99
Es	-0.960477	-1.256075	-0.000094	99
Es	0.168087	-0.641857	0.002632	99
Es	-1.927823	-0.518473	0.006154	99
Es	1.452833	2.822825	-0.192666	99
Es	0.507167	0.653346	-0.015355	99
Es	1.479140	1.561340	0.002054	99
Es	2.593993	2.139258	0.001450	99
Es	-0.209483	-1.305366	0.004127	99
Es	0.597423	-2.290623	0.009869	99
Es	1.139373	0.279561	0.007688	99
Es	0.513643	-0.056223	0.002437	99
Es	1.126846	0.977335	0.001738	99
36
Properties=species:S:1:pos:R:3:Z:I:1 energy=-341.42847146758146 field_type=dipole dipole="0.000000 0.000000 0.000000" charge=0
C	-1.708575	-1.229157	-0.003944	6
C	-0.209535	-1.305507	0.004126	6
O	0.412675	-2.359057	0.008896	8
C	0.513746	-0.056007	0.002436	6
C	1.126745	0.977103	0.001736	6
C	1.864125	2.212993	0.001376	6
O	1.278645	3.285842	0.000856	8
H	-2.053804	-0.192097	0.011496	1
H	-2.098165	-1.741127	0.880116	1
H	-2.087355	-1.712157	-0.908764	1
H	2.961495	2.119173	0.001666	1
Es	1.278848	3.285594	0.000856	99
Es	0.168052	-0.641846	0.002465	99
Es	0.821373	0.464390	0.003102	99
Es	1.479130	1.561337	0.002187	99
Es	1.097179	3.217279	0.003308	99
Es	2.593967	2.139272	0.001514	99
Es	1.864050	2.212866	0.001376	99
Es	0.412505	-2.358835	0.008884	99
Es	-1.927684	-0.518455	0.006340	99
Es	-1.955351	-1.586127	0.571354	99
Es	-0.960610	-1.256048	-0.000088	99
Es	0.226472	-2.008062	-0.005333	99
Es	-1.708498	-1.229160	-0.003945	99
Es	1.139300	0.279627	0.012293	99
Es	0.513644	-0.056224	0.002435	99
Es	0.506979	0.653461	-0.009283	99
Es	1.450085	2.819848	-0.182212	99
Es	0.235144	-1.878972	0.020586	99
Es	-0.209484	-1.305366	0.004123	99
Es	-1.925971	-1.539224	-0.592818	99
Es	1.126854	0.977328	0.001739	99
Es	0.593341	-2.290363	0.009995	99
Es	0.257681	-2.661283	0.008150	99
Es	1.431642	3.585962	-0.000326	99
Es	1.466171	2.894167	0.183275	99
36
Properties=species:S:1:pos:R:3:Z:I:1 energy=-341.42847146758146 field_type=dipole dipole="0.000000 0.000000 0.000000" charge=0
C	-1.708575	-1.229157	-0.003944	6
C	-0.209535	-1.305507	0.004126	6
O	0.412675	-2.359057	0.008896	8
C	0.513746	-0.056007	0.002436	6
C	1.126745	0.977103	0.001736	6
C	1.864125	2.212993	0.001376	6
O	1.278645	3.285842	0.000856	8
H	-2.053804	-0.192097	0.011496	1
H	-2.098165	-1.741127	0.880116	1
H	-2.087355	-1.712157	-0.908764	1
H	2.961495	2.119173	0.001666	1
Es	-0.961247	-1.255853	-0.000204	99
Es	1.278855	3.285595	0.000857	99
Es	0.513650	-0.056224	0.002433	99
Es	-1.954991	-1.586186	0.571834	99
Es	1.100104	3.217329	0.003197	99
Es	1.479119	1.561336	0.002068	99
Es	-1.927240	-0.518376	0.006343	99
Es	-0.209484	-1.305365	0.004120	99
Es	0.507113	0.653425	-0.009861	99
Es	1.466192	2.897649	0.167414	99
Es	-1.926015	-1.539425	-0.593131	99
Es	-1.708502	-1.229162	-0.003942	99
Es	0.257810	-2.661340	0.008621	99
Es	0.226612	-2.007745	-0.020662	99
Es	0.235621	-1.879225	0.035508	99
Es	0.592532	-2.290408	0.009948	99
Es	1.431107	3.586165	-0.000764	99
Es	1.864050	2.212864	0.001373	99
Es	1.447726	2.816142	-0.165870	99
Es	1.139135	0.279664	0.012856	99
Es	0.821379	0.464390	0.003086	99
Es	0.168159	-0.641881	0.002629	99
Es	0.412451	-2.358820	0.008893	99
Es	1.126842	0.977337	0.001732	99
Es	2.593840	2.139282	0.001500	99
36
Properties=species:S:1:pos:R:3:Z:I:1 energy=-341.42847146758146 field_type=dipole dipole="0.000000 0.000000 0.000000" charge=0
C	-1.708575	-1.229157	-0.003944	6
C	-0.209535	-1.305507	0.004126	6
O	0.412675	-2.359057	0.008896	8
C	0.513746	-0.056007	0.002436	6
C	1.126745	0.977103	0.001736	6
C	1.864125	2.212993	0.001376	6
O	1.278645	3.285842	0.000856	8
H	-2.053804	-0.192097	0.011496	1
H	-2.098165	-1.741127	0.880116	1
H	-2.087355	-1.712157	-0.908764	1
H	2.961495	2.119173	0.001666	1
Es	0.507255	0.653341	-0.012134	99
Es	0.513643	-0.056223	0.002433	99
Es	0.257955	-2.661414	0.007723	99
Es	1.139165	0.279654	0.010122	99
Es	0.412457	-2.358803	0.008898	99
Es	0.589163	-2.290645	0.010292	99
Es	1.431485	3.586062	-0.000117	99
Es	0.821230	0.464477	0.008088	99
Es	-1.708500	-1.229159	-0.003944	99
Es	1.466059	2.899306	0.158248	99
Es	2.593743	2.139303	0.001312	99
Es	-0.961523	-1.255964	0.000039	99
Es	1.278822	3.285604	0.000859	99
Es	1.100254	3.217459	0.002964	99
Es	-1.927061	-0.518280	0.006359	99
Es	0.239084	-1.878552	0.012201	99
Es	1.447424	2.814454	-0.156862	99
Es	1.864050	2.212864	0.001384	99
Es	-1.926576	-1.540390	-0.593859	99
Es	-1.954275	-1.585228	0.572385	99
Es	1.126844	0.977335	0.001741	99
Es	1.478981	1.561366	0.002098	99
Es	0.226411	-2.008150	0.003046	99
Es	-0.209484	-1.305366	0.004124	99
Es	0.168211	-0.641884	0.002579	99
36
Properties=species:S:1:pos:R:3:Z:I:1 energy=-341.42847146758146 field_type=dipole dipole="0.000000 0.000000 0.000000" charge=0
C	-1.708575	-1.229157	-0.003944	6
C	-0.209535	-1.305507	0.004126	6
O	0.412675	-2.359057	0.008896	8
C	0.513746	-0.056007	0.002436	6
C	1.126745	0.977103	0.001736	6
C	1.864125	2.212993	0.001376	6
O	1.278645	3.285842	0.000856	8
H	-2.053804	-0.192097	0.011496	1
H	-2.098165	-1.741127	0.880116	1
H	-2.087355	-1.712157	-0.908764	1
H	2.961495	2.119173	0.001666	1
Es	-1.926798	-0.518326	0.006544	99
Es	1.105107	3.217303	-0.000651	99
Es	0.412476	-2.358825	0.008902	99
Es	1.466430	2.906004	-0.109405	99
Es	1.126847	0.977335	0.001739	99
Es	0.588319	-2.290357	0.008376	99
Es	1.479063	1.561340	0.002244	99
Es	0.513651	-0.056227	0.002436	99
Es	1.864050	2.212864	0.001378	99
Es	1.278830	3.285602	0.000856	99
Es	-0.961783	-1.255680	0.000861	99
Es	0.507124	0.653450	-0.003656	99
Es	-1.708499	-1.229159	-0.003944	99
Es	-1.946443	-1.575167	0.577085	99
Es	2.593859	2.139381	0.002186	99
Es	0.821373	0.464405	0.005868	99
Es	1.139071	0.279644	0.003849	99
Es	0.168201	-0.641880	0.002616	99
Es	0.258739	-2.661695	0.008088	99
Es	0.226473	-2.006643	-0.046724	99
Es	1.430147	3.586538	0.003991	99
Es	1.443401	2.807372	0.109447	99
Es	-1.934256	-1.550719	-0.598928	99
Es	0.238918	-1.880027	0.062691	99
Es	-0.209483	-1.305366	0.004129	99
36
Properties=species:S:1:pos:R:3:Z:I:1 energy=-341.42847146758146 field_type=dipole dipole="0.000000 0.000000 0.000000" charge=0
C	-1.708575	-1.229157	-0.003944	6
C	-0.209535	-1.305507	0.004126	6
O	0.412675	-2.359057	0.008896	8
C	0.513746	-0.056007	0.002436	6
C	1.126745	0.977103	0.001736	6
C	1.864125	2.212993	0.001376	6
O	1.278645	3.285842	0.000856	8
H	-2.053804	-0.192097	0.011496	1
H	-2.098165	-1.741127	0.880116	1
H	-2.087355	-1.712157	-0.908764	1
H	2.961495	2.119173	0.001666	1
Es	2.593883	2.139380	0.001270	99
Es	1.278812	3.285598	0.000855	99
Es	0.821046	0.464592	0.016333	99
Es	-1.952255	-1.582801	0.574517	99
Es	0.259525	-2.661972	0.008679	99
Es	1.108424	3.217295	0.002144	99
Es	-1.928451	-1.542989	-0.595559	99
Es	-1.927047	-0.518342	0.006078	99
Es	-0.209485	-1.305366	0.004130	99
Es	0.226476	-2.008036	-0.008151	99
Es	1.479005	1.561368	0.001731	99
Es	1.126847	0.977334	0.001732	99
Es	0.507429	0.653259	-0.014997	99
Es	1.465655	2.904132	0.126637	99
Es	1.139130	0.279628	0.004752	99
Es	0.585669	-2.290272	0.009710	99
Es	1.441514	2.809002	-0.123923	99
Es	0.168265	-0.641908	0.002868	99
Es	1.864050	2.212864	0.001372	99
Es	-0.961593	-1.255700	0.000098	99
Es	0.240808	-1.878519	0.022961	99
Es	1.429471	3.586794	-0.000652	99
Es	-1.708499	-1.229158	-0.003944	99
Es	0.513638	-0.056218	0.002447	99
Es	0.412502	-2.358797	0.008891	99
36
Properties=species:S:1:pos:R:3:Z:I:1 energy=-341.42847146758146 field_type=dipole dipole="0.000000 0.000000 0.000000" charge=0
C	-1.708575	-1.229157	-0.003944	6
C	-0.209535	-1.305507	0.004126	6
O	0.412675	-2.359057	0.008896	8
C	0.513746	-0.056007	0.002436	6
C	1.126745	0.977103	0.001736	6
C	1.864125	2.212993	0.001376	6
O	1.278645	3.285842	0.000856	8
H	-2.053804	-0.192097	0.011496	1
H	-2.098165	-1.741127	0.880116	1
H	-2.087355	-1.712157	-0.908764	1
H	2.961495	2.119173	0.001666	1
Es	1.429041	3.586943	-0.000437	99
Es	1.108068	3.217043	0.003043	99
Es	0.584315	-2.290494	0.008652	99
Es	0.821533	0.464288	-0.002623	99
Es	1.466277	2.903849	0.128383	99
Es	2.593705	2.139372	0.001497	99
Es	0.226422	-2.007798	-0.019430	99
Es	-0.961848	-1.255914	-0.000045	99
Es	1.138814	0.279793	0.016144	99
Es	0.412443	-2.358796	0.008896	99
Es	0.259213	-2.661880	0.008699	99
Es	1.864066	2.212860	0.001375	99
Es	-1.926612	-0.518179	0.006309	99
Es	-1.926335	-1.540106	-0.593659	99
Es	-1.954401	-1.585616	0.572353	99
Es	1.278814	3.285601	0.000857	99
Es	1.441800	2.809424	-0.126958	99
Es	0.242489	-1.878670	0.035334	99
Es	1.126842	0.977337	0.001732	99
Es	1.478940	1.561371	0.002033	99
Es	0.507276	0.653398	-0.007353	99
Es	0.168297	-0.641909	0.002560	99
Es	-1.708499	-1.229159	-0.003944	99
Es	-0.209486	-1.305365	0.004127	99
Es	0.513644	-0.056223	0.002434	99
