42
Properties=species:S:1:pos:R:3:Z:I:1 energy=-343.7734668946491 field_type=dipole dipole="0.000000 0.000000 0.000000" charge=0
C	-1.620592	-1.691848	0.190435	6
C	-0.099242	-1.632758	0.184555	6
O	0.379158	-2.306628	-0.976125	8
C	0.382778	-0.271588	0.184555	6
C	0.780058	0.850312	0.184555	6
C	1.262078	2.211482	0.184555	6
O	0.232278	3.076232	-0.272895	8
H	-2.036612	-1.205648	1.078085	1
H	-1.961412	-2.731968	0.168145	1
H	-2.039602	-1.204058	-0.696775	1
H	0.284948	-2.174268	1.055035	1
H	0.155738	-1.742178	-1.736205	1
H	2.125528	2.322572	-0.478505	1
H	1.555208	2.525412	1.191045	1
H	0.599688	3.974932	-0.260465	1
Es	-1.842661	-2.397840	0.180488	99
Es	0.923816	0.198596	0.264721	99
Es	0.164245	-1.982955	0.772905	99
Es	0.378962	-2.306317	-0.976122	99
Es	0.247584	-1.990296	-1.371318	99
Es	-1.896056	-1.360953	0.795103	99
Es	0.780146	0.850559	0.184549	99
Es	0.478828	0.316778	-0.165905	99
Es	0.685586	-2.312992	-0.958588	99
Es	0.347007	0.361108	0.450190	99
Es	0.451609	3.552770	-0.258758	99
Es	-1.893588	-1.356485	-0.415522	99
Es	-0.099159	-1.632736	0.184344	99
Es	-1.620559	-1.691837	0.190439	99
Es	1.849639	2.270631	-0.261955	99
Es	1.463109	2.407560	0.869338	99
Es	0.232529	3.076309	-0.272800	99
Es	0.382699	-0.271813	0.184560	99
Es	0.014166	3.069202	-0.058754	99
Es	0.150286	-0.918276	0.187348	99
Es	1.261867	2.211507	0.184480	99
Es	-0.857067	-1.638497	0.192652	99
Es	0.194091	-2.021539	-0.545629	99
Es	0.640465	2.755413	-0.095669	99
Es	1.011104	1.507390	0.183951	99
Es	0.183703	3.005654	-0.565868	99
Es	0.205903	-2.559727	-0.996928	99
42
Properties=species:S:1:pos:R:3:Z:I:1 energy=-343.7734668946491 field_type=dipole dipole="0.000000 0.000000 0.000000" charge=0
C	-1.620592	-1.691848	0.190435	6
C	-0.099242	-1.632758	0.184555	6
O	0.379158	-2.306628	-0.976125	8
C	0.382778	-0.271588	0.184555	6
C	0.780058	0.850312	0.184555	6
C	1.262078	2.211482	0.184555	6
O	0.232278	3.076232	-0.272895	8
H	-2.036612	-1.205648	1.078085	1
H	-1.961412	-2.731968	0.168145	1
H	-2.039602	-1.204058	-0.696775	1
H	0.284948	-2.174268	1.055035	1
H	0.155738	-1.742178	-1.736205	1
H	2.125528	2.322572	-0.478505	1
H	1.555208	2.525412	1.191045	1
H	0.599688	3.974932	-0.260465	1
Es	0.020802	3.066754	-0.067830	99
Es	0.182086	3.003033	-0.559922	99
Es	0.254827	-1.985590	-1.368598	99
Es	0.200577	-2.019198	-0.548352	99
Es	0.382701	-0.271817	0.184563	99
Es	-1.893723	-1.360083	0.792357	99
Es	-0.856910	-1.638042	0.192740	99
Es	1.011261	1.505338	0.183631	99
Es	0.636672	2.752202	-0.093076	99
Es	0.451405	3.561418	-0.257932	99
Es	-1.844421	-2.402420	0.180878	99
Es	1.848213	2.272454	-0.259796	99
Es	0.378986	-2.306273	-0.976089	99
Es	-0.099163	-1.632733	0.184351	99
Es	0.663114	-2.290602	-0.957518	99
Es	0.213902	-2.589517	-0.997165	99
Es	0.351484	0.359412	0.445773	99
Es	0.150676	-0.916768	0.188547	99
Es	-1.620558	-1.691838	0.190439	99
Es	0.780150	0.850575	0.184548	99
Es	0.480528	0.315966	-0.165298	99
Es	0.232682	3.076342	-0.272899	99
Es	0.917391	0.201197	0.268135	99
Es	1.463706	2.408974	0.867018	99
Es	1.261866	2.211507	0.184480	99
Es	0.162109	-1.984291	0.771646	99
Es	-1.892111	-1.354789	-0.413378	99
42
Properties=species:S:1:pos:R:3:Z:I:1 energy=-343.7734668946491 field_type=dipole dipole="0.000000 0.000000 0.000000" charge=0
C	-1.620592	-1.691848	0.190435	6
C	-0.099242	-1.632758	0.184555	6
O	0.379158	-2.306628	-0.976125	8
C	0.382778	-0.271588	0.184555	6
C	0.780058	0.850312	0.184555	6
C	1.262078	2.211482	0.184555	6
O	0.232278	3.076232	-0.272895	8
H	-2.036612	-1.205648	1.078085	1
H	-1.961412	-2.731968	0.168145	1
H	-2.039602	-1.204058	-0.696775	1
H	0.284948	-2.174268	1.055035	1
H	0.155738	-1.742178	-1.736205	1
H	2.125528	2.322572	-0.478505	1
H	1.555208	2.525412	1.191045	1
H	0.599688	3.974932	-0.260465	1
Es	-1.845557	-2.404308	0.181385	99
Es	0.150380	-0.915841	0.189444	99
Es	1.463966	2.409608	0.865558	99
Es	1.261864	2.211507	0.184479	99
Es	-0.856611	-1.637942	0.192944	99
Es	0.780149	0.850579	0.184548	99
Es	0.634592	2.749706	-0.092271	99
Es	0.511251	0.300659	-0.171115	99
Es	0.217406	-2.600632	-0.996031	99
Es	-0.099162	-1.632734	0.184349	99
Es	-1.892356	-1.359939	0.790327	99
Es	0.232591	3.076338	-0.272836	99
Es	0.205948	-2.017410	-0.550474	99
Es	0.382692	-0.271815	0.184577	99
Es	0.262488	-1.981987	-1.367858	99
Es	-1.891409	-1.354025	-0.412066	99
Es	0.451662	3.564642	-0.259804	99
Es	0.646204	-2.284883	-0.956624	99
Es	0.906668	0.205123	0.300780	99
Es	-1.620559	-1.691836	0.190441	99
Es	0.331477	0.370800	0.418369	99
Es	0.161100	-1.984792	0.770795	99
Es	0.378955	-2.306315	-0.976126	99
Es	1.011697	1.504252	0.183714	99
Es	0.027623	3.067905	-0.071115	99
Es	1.847360	2.273229	-0.258652	99
Es	0.177833	3.001322	-0.555485	99
42
Properties=species:S:1:pos:R:3:Z:I:1 energy=-343.7734668946491 field_type=dipole dipole="0.000000 0.000000 0.000000" charge=0
C	-1.620592	-1.691848	0.190435	6
C	-0.099242	-1.632758	0.184555	6
O	0.379158	-2.306628	-0.976125	8
C	0.382778	-0.271588	0.184555	6
C	0.780058	0.850312	0.184555	6
C	1.262078	2.211482	0.184555	6
O	0.232278	3.076232	-0.272895	8
H	-2.036612	-1.205648	1.078085	1
H	-1.961412	-2.731968	0.168145	1
H	-2.039602	-1.204058	-0.696775	1
H	0.284948	-2.174268	1.055035	1
H	0.155738	-1.742178	-1.736205	1
H	2.125528	2.322572	-0.478505	1
H	1.555208	2.525412	1.191045	1
H	0.599688	3.974932	-0.260465	1
Es	0.232727	3.076331	-0.272944	99
Es	0.780154	0.850581	0.184549	99
Es	0.220908	-2.606947	-0.994959	99
Es	0.382702	-0.271823	0.184569	99
Es	0.452199	3.566164	-0.261300	99
Es	-1.890976	-1.353730	-0.410696	99
Es	1.011975	1.503552	0.183869	99
Es	0.160426	-1.984908	0.769941	99
Es	-0.099161	-1.632734	0.184347	99
Es	0.633871	-2.281547	-0.957600	99
Es	0.378979	-2.306347	-0.976102	99
Es	1.463934	2.409956	0.864350	99
Es	0.904781	0.205878	0.299610	99
Es	0.034404	3.069558	-0.072386	99
Es	-1.846462	-2.405349	0.181503	99
Es	0.210755	-2.016597	-0.551200	99
Es	-1.620557	-1.691837	0.190439	99
Es	-0.856157	-1.637626	0.193253	99
Es	0.633219	2.747440	-0.092749	99
Es	0.509951	0.301414	-0.170765	99
Es	0.150328	-0.915252	0.189823	99
Es	1.261865	2.211507	0.184480	99
Es	0.334691	0.369281	0.419243	99
Es	-1.891662	-1.360122	0.788658	99
Es	1.846966	2.273790	-0.257925	99
Es	0.172203	3.000437	-0.551994	99
Es	0.266190	-1.979860	-1.366761	99
42
Properties=species:S:1:pos:R:3:Z:I:1 energy=-343.7734668946491 field_type=dipole dipole="0.000000 0.000000 0.000000" charge=0
C	-1.620592	-1.691848	0.190435	6
C	-0.099242	-1.632758	0.184555	6
O	0.379158	-2.306628	-0.976125	8
C	0.382778	-0.271588	0.184555	6
C	0.780058	0.850312	0.184555	6
C	1.262078	2.211482	0.184555	6
O	0.232278	3.076232	-0.272895	8
H	-2.036612	-1.205648	1.078085	1
H	-1.961412	-2.731968	0.168145	1
H	-2.039602	-1.204058	-0.696775	1
H	0.284948	-2.174268	1.055035	1
H	0.155738	-1.742178	-1.736205	1
H	2.125528	2.322572	-0.478505	1
H	1.555208	2.525412	1.191045	1
H	0.599688	3.974932	-0.260465	1
Es	0.378989	-2.306395	-0.976124	99
Es	1.464008	2.410121	0.863409	99
Es	0.221381	-2.610029	-0.995990	99
Es	1.012321	1.503030	0.184442	99
Es	0.358938	0.356174	0.445439	99
Es	0.631825	2.745841	-0.092426	99
Es	1.261863	2.211507	0.184476	99
Es	0.232505	3.076336	-0.272833	99
Es	1.846573	2.274129	-0.257399	99
Es	0.166137	2.999224	-0.550518	99
Es	-1.890478	-1.353781	-0.409619	99
Es	0.622539	-2.281574	-0.957130	99
Es	0.214070	-2.016428	-0.551763	99
Es	0.273564	-1.976823	-1.365322	99
Es	-1.891313	-1.360074	0.787589	99
Es	0.159935	-1.984998	0.769244	99
Es	0.382699	-0.271827	0.184558	99
Es	0.780155	0.850583	0.184544	99
Es	-0.099163	-1.632733	0.184347	99
Es	0.042162	3.071589	-0.073660	99
Es	0.476093	0.318530	-0.159722	99
Es	0.914024	0.201990	0.262465	99
Es	-1.620558	-1.691839	0.190439	99
Es	-0.855962	-1.637412	0.193358	99
Es	0.452503	3.567033	-0.261730	99
Es	-1.847026	-2.406010	0.181455	99
Es	0.150467	-0.914953	0.189722	99
42
Properties=species:S:1:pos:R:3:Z:I:1 energy=-343.7734668946491 field_type=dipole dipole="0.000000 0.000000 0.000000" charge=0
C	-1.620592	-1.691848	0.190435	6
C	-0.099242	-1.632758	0.184555	6
O	0.379158	-2.306628	-0.976125	8
C	0.382778	-0.271588	0.184555	6
C	0.780058	0.850312	0.184555	6
C	1.262078	2.211482	0.184555	6
O	0.232278	3.076232	-0.272895	8
H	-2.036612	-1.205648	1.078085	1
H	-1.961412	-2.731968	0.168145	1
H	-2.039602	-1.204058	-0.696775	1
H	0.284948	-2.174268	1.055035	1
H	0.155738	-1.742178	-1.736205	1
H	2.125528	2.322572	-0.478505	1
H	1.555208	2.525412	1.191045	1
H	0.599688	3.974932	-0.260465	1
Es	0.361275	0.355030	0.447090	99
Es	-1.891000	-1.360371	0.786584	99
Es	-0.099163	-1.632733	0.184350	99
Es	0.382702	-0.271827	0.184550	99
Es	0.780163	0.850580	0.184552	99
Es	0.150547	-0.914738	0.189747	99
Es	1.012624	1.502659	0.184338	99
Es	0.172058	3.001306	-0.548744	99
Es	-0.855857	-1.637292	0.193606	99
Es	0.473782	0.319810	-0.157794	99
Es	0.218757	-2.015963	-0.552351	99
Es	0.159581	-1.984947	0.768626	99
Es	-1.620559	-1.691838	0.190439	99
Es	0.612839	-2.283366	-0.957420	99
Es	0.232653	3.076351	-0.272812	99
Es	-1.890163	-1.353613	-0.408741	99
Es	1.845919	2.274388	-0.256819	99
Es	0.629091	2.743519	-0.089189	99
Es	0.452655	3.567568	-0.260819	99
Es	0.280256	-1.974402	-1.364484	99
Es	-1.847580	-2.406406	0.181321	99
Es	0.378942	-2.306362	-0.976133	99
Es	1.464195	2.410296	0.863053	99
Es	0.914014	0.201854	0.258871	99
Es	0.219687	-2.611102	-0.995543	99
Es	1.261865	2.211507	0.184479	99
Es	0.038970	3.071306	-0.079503	99
42
Properties=species:S:1:pos:R:3:Z:I:1 energy=-343.7734668946491 field_type=dipole dipole="0.000000 0.000000 0.000000" charge=0
C	-1.620592	-1.691848	0.190435	6
C	-0.099242	-1.632758	0.184555	6
O	0.379158	-2.306628	-0.976125	8
C	0.382778	-0.271588	0.184555	6
C	0.780058	0.850312	0.184555	6
C	1.262078	2.211482	0.184555	6
O	0.232278	3.076232	-0.272895	8
H	-2.036612	-1.205648	1.078085	1
H	-1.961412	-2.731968	0.168145	1
H	-2.039602	-1.204058	-0.696775	1
H	0.284948	-2.174268	1.055035	1
H	0.155738	-1.742178	-1.736205	1
H	2.125528	2.322572	-0.478505	1
H	1.555208	2.525412	1.191045	1
H	0.599688	3.974932	-0.260465	1
Es	0.911009	0.203221	0.271062	99
Es	0.232652	3.076395	-0.272538	99
Es	0.056154	3.075456	-0.076015	99
Es	0.150543	-0.914563	0.190150	99
Es	0.285656	-1.972174	-1.363349	99
Es	-1.890832	-1.360336	0.785672	99
Es	0.219184	-2.612143	-0.995531	99
Es	-0.855472	-1.636928	0.193518	99
Es	-0.099161	-1.632733	0.184348	99
Es	0.378999	-2.306278	-0.976110	99
Es	1.463672	2.410091	0.862159	99
Es	-1.620560	-1.691838	0.190439	99
Es	0.352586	0.359655	0.437844	99
Es	0.154083	2.997696	-0.546025	99
Es	1.846378	2.274823	-0.256596	99
Es	0.604653	-2.284161	-0.957670	99
Es	0.382693	-0.271824	0.184558	99
Es	0.221959	-2.016583	-0.552997	99
Es	1.012683	1.502469	0.184484	99
Es	-1.890058	-1.354022	-0.407906	99
Es	0.485453	0.313823	-0.160711	99
Es	0.629732	2.742504	-0.092726	99
Es	0.452960	3.567997	-0.263622	99
Es	0.780156	0.850584	0.184547	99
Es	1.261869	2.211505	0.184480	99
Es	0.159261	-1.984760	0.768231	99
Es	-1.847999	-2.406663	0.181555	99
42
Properties=species:S:1:pos:R:3:Z:I:1 energy=-343.7734668946491 field_type=dipole dipole="0.000000 0.000000 0.000000" charge=0
C	-1.620592	-1.691848	0.190435	6
C	-0.099242	-1.632758	0.184555	6
O	0.379158	-2.306628	-0.976125	8
C	0.382778	-0.271588	0.184555	6
C	0.780058	0.850312	0.184555	6
C	1.262078	2.211482	0.184555	6
O	0.232278	3.076232	-0.272895	8
H	-2.036612	-1.205648	1.078085	1
H	-1.961412	-2.731968	0.168145	1
H	-2.039602	-1.204058	-0.696775	1
H	0.284948	-2.174268	1.055035	1
H	0.155738	-1.742178	-1.736205	1
H	2.125528	2.322572	-0.478505	1
H	1.555208	2.525412	1.191045	1
H	0.599688	3.974932	-0.260465	1
Es	-0.855431	-1.636883	0.193650	99
Es	-0.099163	-1.632732	0.184351	99
Es	0.291872	-1.970471	-1.362460	99
Es	-1.890006	-1.354027	-0.407101	99
Es	0.382692	-0.271825	0.184558	99
Es	1.846319	2.274987	-0.256315	99
Es	1.463549	2.410106	0.861711	99
Es	0.478308	0.317532	-0.157299	99
Es	0.065605	3.077834	-0.076701	99
Es	0.224275	-2.016928	-0.553395	99
Es	1.261865	2.211506	0.184479	99
Es	-1.848356	-2.406836	0.181374	99
Es	0.453430	3.568155	-0.263917	99
Es	0.912677	0.202356	0.261582	99
Es	0.159151	-1.984506	0.767619	99
Es	0.628881	2.739535	-0.094791	99
Es	0.219630	-2.613254	-0.995651	99
Es	0.150617	-0.914437	0.190252	99
Es	1.012800	1.502280	0.184723	99
Es	0.358001	0.356840	0.443868	99
Es	0.379196	-2.306415	-0.976106	99
Es	0.780177	0.850574	0.184549	99
Es	0.595414	-2.284279	-0.957811	99
Es	0.145176	2.998190	-0.542530	99
Es	0.232727	3.076343	-0.272946	99
Es	-1.620557	-1.691838	0.190440	99
Es	-1.890594	-1.360593	0.785118	99
42
Properties=species:S:1:pos:R:3:Z:I:1 energy=-343.7734668946491 field_type=dipole dipole="0.000000 0.000000 0.000000" charge=0
C	-1.620592	-1.691848	0.190435	6
C	-0.099242	-1.632758	0.184555	6
O	0.379158	-2.306628	-0.976125	8
C	0.382778	-0.271588	0.184555	6
C	0.780058	0.850312	0.184555	6
C	1.262078	2.211482	0.184555	6
O	0.232278	3.076232	-0.272895	8
H	-2.036612	-1.205648	1.078085	1
H	-1.961412	-2.731968	0.168145	1
H	-2.039602	-1.204058	-0.696775	1
H	0.284948	-2.174268	1.055035	1
H	0.155738	-1.742178	-1.736205	1
H	2.125528	2.322572	-0.478505	1
H	1.555208	2.525412	1.191045	1
H	0.599688	3.974932	-0.260465	1
Es	0.158978	-1.984201	0.767135	99
Es	-1.620558	-1.691839	0.190438	99
Es	1.463070	2.409857	0.861227	99
Es	0.780156	0.850586	0.184562	99
Es	0.081849	3.081736	-0.078581	99
Es	0.150612	-0.914333	0.190340	99
Es	0.456519	0.328994	-0.147224	99
Es	1.261865	2.211507	0.184479	99
Es	0.375751	0.348002	0.461201	99
Es	0.225356	-2.017975	-0.553316	99
Es	0.378948	-2.306367	-0.976124	99
Es	1.846722	2.275417	-0.256126	99
Es	0.453680	3.568260	-0.265707	99
Es	-1.890937	-1.360121	0.784765	99
Es	-0.855231	-1.636729	0.193613	99
Es	0.628227	2.738485	-0.094799	99
Es	1.012959	1.502136	0.184839	99
Es	0.129347	2.995153	-0.538598	99
Es	0.382689	-0.271822	0.184568	99
Es	0.220808	-2.614307	-0.996969	99
Es	0.298178	-1.968551	-1.361020	99
Es	0.232815	3.076355	-0.273051	99
Es	0.916606	0.199770	0.234317	99
Es	-0.099161	-1.632732	0.184349	99
Es	0.587151	-2.284270	-0.957924	99
Es	-1.889566	-1.354839	-0.406337	99
Es	-1.848582	-2.406958	0.181195	99
42
Properties=species:S:1:pos:R:3:Z:I:1 energy=-343.7734668946491 field_type=dipole dipole="0.000000 0.000000 0.000000" charge=0
C	-1.620592	-1.691848	0.190435	6
C	-0.099242	-1.632758	0.184555	6
O	0.379158	-2.306628	-0.976125	8
C	0.382778	-0.271588	0.184555	6
C	0.780058	0.850312	0.184555	6
C	1.262078	2.211482	0.184555	6
O	0.232278	3.076232	-0.272895	8
H	-2.036612	-1.205648	1.078085	1
H	-1.961412	-2.731968	0.168145	1
H	-2.039602	-1.204058	-0.696775	1
H	0.284948	-2.174268	1.055035	1
H	0.155738	-1.742178	-1.736205	1
H	2.125528	2.322572	-0.478505	1
H	1.555208	2.525412	1.191045	1
H	0.599688	3.974932	-0.260465	1
Es	-1.848823	-2.407061	0.181355	99
Es	0.453819	3.568384	-0.265369	99
Es	0.909434	0.203815	0.271974	99
Es	0.625792	2.736335	-0.092733	99
Es	0.347281	0.362510	0.435118	99
Es	1.261865	2.211506	0.184479	99
Es	-0.855100	-1.636509	0.193825	99
Es	-1.889767	-1.354588	-0.405941	99
Es	1.462833	2.409699	0.860772	99
Es	0.379029	-2.306411	-0.976145	99
Es	0.150512	-0.914228	0.190680	99
Es	0.780156	0.850586	0.184546	99
Es	0.082287	3.082366	-0.081811	99
Es	1.846861	2.275642	-0.255905	99
Es	0.232725	3.076352	-0.272949	99
Es	0.492225	0.310424	-0.159017	99
Es	-1.620557	-1.691838	0.190440	99
Es	0.158907	-1.984103	0.766898	99
Es	-0.099159	-1.632735	0.184349	99
Es	0.228320	-2.018715	-0.554236	99
Es	-1.890610	-1.360720	0.783971	99
Es	0.300517	-1.967117	-1.360424	99
Es	0.382695	-0.271826	0.184559	99
Es	0.221033	-2.614999	-0.995608	99
Es	0.581521	-2.284178	-0.958659	99
Es	1.013051	1.502018	0.184876	99
Es	0.131409	2.996603	-0.537795	99
42
Properties=species:S:1:pos:R:3:Z:I:1 energy=-343.7734668946491 field_type=dipole dipole="0.000000 0.000000 0.000000" charge=0
C	-1.620592	-1.691848	0.190435	6
C	-0.099242	-1.632758	0.184555	6
O	0.379158	-2.306628	-0.976125	8
C	0.382778	-0.271588	0.184555	6
C	0.780058	0.850312	0.184555	6
C	1.262078	2.211482	0.184555	6
O	0.232278	3.076232	-0.272895	8
H	-2.036612	-1.205648	1.078085	1
H	-1.961412	-2.731968	0.168145	1
H	-2.039602	-1.204058	-0.696775	1
H	0.284948	-2.174268	1.055035	1
H	0.155738	-1.742178	-1.736205	1
H	2.125528	2.322572	-0.478505	1
H	1.555208	2.525412	1.191045	1
H	0.599688	3.974932	-0.260465	1
Es	0.575737	-2.284122	-0.958673	99
Es	0.221306	-2.615434	-0.996318	99
Es	0.453775	3.568560	-0.264219	99
Es	-0.854921	-1.636224	0.194141	99
Es	1.463190	2.409970	0.860727	99
Es	0.130559	2.997925	-0.536480	99
Es	0.379018	-2.306409	-0.976142	99
Es	0.910876	0.203063	0.268170	99
Es	0.232682	3.076354	-0.272933	99
Es	0.158898	-1.984073	0.766610	99
Es	0.150556	-0.914172	0.190504	99
Es	1.261865	2.211506	0.184479	99
Es	0.382696	-0.271826	0.184541	99
Es	0.350923	0.360609	0.437401	99
Es	0.625046	2.734725	-0.093935	99
Es	0.306016	-1.965448	-1.358931	99
Es	-1.890547	-1.360920	0.783350	99
Es	-1.848973	-2.407166	0.181457	99
Es	0.780156	0.850584	0.184543	99
Es	0.487058	0.313102	-0.157367	99
Es	-0.099163	-1.632731	0.184350	99
Es	-1.889728	-1.354706	-0.405550	99
Es	1.846336	2.275656	-0.255931	99
Es	-1.620558	-1.691839	0.190439	99
Es	1.013234	1.501877	0.184914	99
Es	0.228167	-2.019979	-0.554966	99
Es	0.084049	3.082331	-0.082930	99
42
Properties=species:S:1:pos:R:3:Z:I:1 energy=-343.7734668946491 field_type=dipole dipole="0.000000 0.000000 0.000000" charge=0
C	-1.620592	-1.691848	0.190435	6
C	-0.099242	-1.632758	0.184555	6
O	0.379158	-2.306628	-0.976125	8
C	0.382778	-0.271588	0.184555	6
C	0.780058	0.850312	0.184555	6
C	1.262078	2.211482	0.184555	6
O	0.232278	3.076232	-0.272895	8
H	-2.036612	-1.205648	1.078085	1
H	-1.961412	-2.731968	0.168145	1
H	-2.039602	-1.204058	-0.696775	1
H	0.284948	-2.174268	1.055035	1
H	0.155738	-1.742178	-1.736205	1
H	2.125528	2.322572	-0.478505	1
H	1.555208	2.525412	1.191045	1
H	0.599688	3.974932	-0.260465	1
Es	1.013240	1.501810	0.185054	99
Es	0.485108	0.314125	-0.155998	99
Es	0.219961	-2.615246	-0.996137	99
Es	0.382695	-0.271827	0.184557	99
Es	0.379027	-2.306406	-0.976166	99
Es	-0.854915	-1.636242	0.194216	99
Es	-1.890451	-1.361090	0.782970	99
Es	1.463282	2.410045	0.860522	99
Es	1.261865	2.211506	0.184480	99
Es	0.351812	0.360175	0.437283	99
Es	-0.099164	-1.632731	0.184351	99
Es	0.158818	-1.983910	0.766289	99
Es	1.846093	2.275596	-0.255719	99
Es	0.082938	3.082375	-0.085477	99
Es	0.569380	-2.284958	-0.959682	99
Es	0.133810	2.999279	-0.535592	99
Es	0.623029	2.733270	-0.092749	99
Es	-1.849206	-2.407201	0.181385	99
Es	0.780157	0.850585	0.184546	99
Es	0.453844	3.568674	-0.264073	99
Es	0.310154	-1.965694	-1.358098	99
Es	-1.620556	-1.691838	0.190440	99
Es	0.912040	0.202438	0.266893	99
Es	0.150603	-0.914129	0.190527	99
Es	0.231770	-2.019050	-0.554738	99
Es	-1.889669	-1.354729	-0.405171	99
Es	0.232590	3.076386	-0.272659	99
42
Properties=species:S:1:pos:R:3:Z:I:1 energy=-343.7734668946491 field_type=dipole dipole="0.000000 0.000000 0.000000" charge=0
C	-1.620592	-1.691848	0.190435	6
C	-0.099242	-1.632758	0.184555	6
O	0.379158	-2.306628	-0.976125	8
C	0.382778	-0.271588	0.184555	6
C	0.780058	0.850312	0.184555	6
C	1.262078	2.211482	0.184555	6
O	0.232278	3.076232	-0.272895	8
H	-2.036612	-1.205648	1.078085	1
H	-1.961412	-2.731968	0.168145	1
H	-2.039602	-1.204058	-0.696775	1
H	0.284948	-2.174268	1.055035	1
H	0.155738	-1.742178	-1.736205	1
H	2.125528	2.322572	-0.478505	1
H	1.555208	2.525412	1.191045	1
H	0.599688	3.974932	-0.260465	1
Es	-0.855095	-1.636666	0.193485	99
Es	0.319770	-1.965149	-1.357145	99
Es	0.087806	2.990571	-0.520661	99
Es	0.125450	3.089422	-0.092096	99
Es	-1.620557	-1.691838	0.190439	99
Es	0.626456	2.734726	-0.096785	99
Es	0.150634	-0.914164	0.190637	99
Es	0.453796	3.568648	-0.267841	99
Es	1.462463	2.409602	0.860308	99
Es	1.847154	2.276153	-0.255946	99
Es	1.261868	2.211505	0.184480	99
Es	1.012911	1.501985	0.185005	99
Es	0.382693	-0.271826	0.184549	99
Es	0.780153	0.850586	0.184539	99
Es	0.158701	-1.983625	0.766377	99
Es	-1.889107	-1.355645	-0.405158	99
Es	0.558495	-2.283152	-0.960127	99
Es	0.224278	-2.616891	-0.997731	99
Es	-0.099165	-1.632731	0.184352	99
Es	-1.890888	-1.359643	0.784246	99
Es	0.441078	0.337629	-0.134660	99
Es	0.389709	0.341711	0.475538	99
Es	-1.848871	-2.407225	0.181098	99
Es	0.917941	0.197475	0.207505	99
Es	0.379002	-2.306397	-0.976127	99
Es	0.232697	3.076354	-0.272946	99
Es	0.228882	-2.020203	-0.554083	99
42
Properties=species:S:1:pos:R:3:Z:I:1 energy=-343.7734668946491 field_type=dipole dipole="0.000000 0.000000 0.000000" charge=0
C	-1.620592	-1.691848	0.190435	6
C	-0.099242	-1.632758	0.184555	6
O	0.379158	-2.306628	-0.976125	8
C	0.382778	-0.271588	0.184555	6
C	0.780058	0.850312	0.184555	6
C	1.262078	2.211482	0.184555	6
O	0.232278	3.076232	-0.272895	8
H	-2.036612	-1.205648	1.078085	1
H	-1.961412	-2.731968	0.168145	1
H	-2.039602	-1.204058	-0.696775	1
H	0.284948	-2.174268	1.055035	1
H	0.155738	-1.742178	-1.736205	1
H	2.125528	2.322572	-0.478505	1
H	1.555208	2.525412	1.191045	1
H	0.599688	3.974932	-0.260465	1
Es	0.497010	0.308225	-0.172341	99
Es	0.240978	3.079020	-0.268405	99
Es	0.624712	2.735674	-0.087600	99
Es	1.845787	2.274912	-0.257235	99
Es	1.464036	2.411077	0.863173	99
Es	-1.620556	-1.691838	0.190439	99
Es	0.264619	3.078653	-0.294071	99
Es	1.011862	1.502774	0.183899	99
Es	0.445845	3.572072	-0.260708	99
Es	-0.855818	-1.637632	0.191555	99
Es	-1.890467	-1.356999	0.789107	99
Es	-1.846369	-2.407299	0.180659	99
Es	0.371117	0.350767	0.472319	99
Es	0.157097	-1.985885	0.769511	99
Es	0.312760	-1.970993	-1.363554	99
Es	-1.887741	-1.354732	-0.408927	99
Es	-0.049910	2.993436	-0.339892	99
Es	0.150342	-0.914259	0.190434	99
Es	-0.099165	-1.632732	0.184345	99
Es	0.378918	-2.306360	-0.976133	99
Es	0.227452	-2.015552	-0.548066	99
Es	1.261866	2.211506	0.184479	99
Es	0.780156	0.850584	0.184547	99
Es	0.555164	-2.279820	-0.960893	99
Es	0.235659	-2.619481	-0.998219	99
Es	0.382699	-0.271827	0.184559	99
Es	0.880200	0.217923	0.248269	99
42
Properties=species:S:1:pos:R:3:Z:I:1 energy=-343.7734668946491 field_type=dipole dipole="0.000000 0.000000 0.000000" charge=0
C	-1.620592	-1.691848	0.190435	6
C	-0.099242	-1.632758	0.184555	6
O	0.379158	-2.306628	-0.976125	8
C	0.382778	-0.271588	0.184555	6
C	0.780058	0.850312	0.184555	6
C	1.262078	2.211482	0.184555	6
O	0.232278	3.076232	-0.272895	8
H	-2.036612	-1.205648	1.078085	1
H	-1.961412	-2.731968	0.168145	1
H	-2.039602	-1.204058	-0.696775	1
H	0.284948	-2.174268	1.055035	1
H	0.155738	-1.742178	-1.736205	1
H	2.125528	2.322572	-0.478505	1
H	1.555208	2.525412	1.191045	1
H	0.599688	3.974932	-0.260465	1
Es	0.150617	-0.914077	0.191023	99
Es	0.378943	-2.306337	-0.976136	99
Es	0.077821	2.990773	-0.512381	99
Es	0.623969	2.732392	-0.095635	99
Es	0.324196	-1.963684	-1.355785	99
Es	0.158193	-1.983950	0.766586	99
Es	0.382697	-0.271827	0.184558	99
Es	1.847498	2.276478	-0.255775	99
Es	-0.854653	-1.636080	0.193034	99
Es	0.359243	0.356329	0.452352	99
Es	-0.099163	-1.632731	0.184350	99
Es	0.137378	3.091799	-0.099191	99
Es	0.232746	3.076353	-0.272987	99
Es	1.012825	1.501946	0.184926	99
Es	-1.888972	-1.355997	-0.404899	99
Es	1.462086	2.409277	0.859735	99
Es	0.477783	0.317935	-0.151208	99
Es	0.911762	0.202536	0.247186	99
Es	0.551851	-2.282367	-0.961003	99
Es	-1.848846	-2.407360	0.181351	99
Es	-1.620563	-1.691837	0.190441	99
Es	0.229635	-2.021734	-0.555000	99
Es	1.261865	2.211507	0.184479	99
Es	0.454353	3.568476	-0.269973	99
Es	0.780158	0.850585	0.184546	99
Es	0.225703	-2.617739	-0.997224	99
Es	-1.890872	-1.359451	0.783879	99
42
Properties=species:S:1:pos:R:3:Z:I:1 energy=-343.7734668946491 field_type=dipole dipole="0.000000 0.000000 0.000000" charge=0
C	-1.620592	-1.691848	0.190435	6
C	-0.099242	-1.632758	0.184555	6
O	0.379158	-2.306628	-0.976125	8
C	0.382778	-0.271588	0.184555	6
C	0.780058	0.850312	0.184555	6
C	1.262078	2.211482	0.184555	6
O	0.232278	3.076232	-0.272895	8
H	-2.036612	-1.205648	1.078085	1
H	-1.961412	-2.731968	0.168145	1
H	-2.039602	-1.204058	-0.696775	1
H	0.284948	-2.174268	1.055035	1
H	0.155738	-1.742178	-1.736205	1
H	2.125528	2.322572	-0.478505	1
H	1.555208	2.525412	1.191045	1
H	0.599688	3.974932	-0.260465	1
Es	0.228304	-2.023593	-0.556261	99
Es	-1.888819	-1.355752	-0.405176	99
Es	0.494324	0.309357	-0.158834	99
Es	0.232562	3.076399	-0.272374	99
Es	1.847722	2.276660	-0.255696	99
Es	-0.855035	-1.636661	0.193568	99
Es	0.158554	-1.983772	0.766364	99
Es	0.453859	3.568727	-0.269638	99
Es	0.549198	-2.281681	-0.961166	99
Es	0.327281	-1.961936	-1.354173	99
Es	1.461880	2.409087	0.859567	99
Es	0.378997	-2.306403	-0.976123	99
Es	0.150608	-0.914071	0.191030	99
Es	0.226463	-2.618146	-0.997401	99
Es	0.145780	3.092418	-0.104913	99
Es	-1.620559	-1.691839	0.190439	99
Es	0.070507	2.990986	-0.506935	99
Es	-1.848893	-2.407344	0.181305	99
Es	0.382694	-0.271827	0.184561	99
Es	-1.890817	-1.359432	0.783969	99
Es	0.349295	0.361387	0.443546	99
Es	-0.099163	-1.632732	0.184345	99
Es	0.905170	0.206052	0.263653	99
Es	0.623529	2.731282	-0.096242	99
Es	0.780154	0.850587	0.184540	99
Es	1.261863	2.211506	0.184477	99
Es	1.012795	1.501953	0.184818	99
