45
Properties=species:S:1:pos:R:3:Z:I:1 energy=-344.97771946160276 field_type=dipole dipole="0.000000 0.000000 0.000000" charge=0
C	-2.767905	1.102540	0.822902	6
C	-1.300785	0.765480	0.630162	6
O	-1.218835	-0.443290	-0.125758	8
C	0.027235	-0.927280	-0.407298	6
C	1.225805	-0.395880	-0.123468	6
C	2.518655	-1.048210	-0.482068	6
O	3.208965	-0.205700	-1.390218	8
H	-2.884135	2.003610	1.431212	1
H	-3.294215	0.275240	1.309952	1
H	-3.254665	1.264720	-0.144248	1
H	-0.829055	0.626210	1.610002	1
H	-0.808625	1.584500	0.093122	1
H	-0.080285	-1.869570	-0.935598	1
H	1.313995	0.550590	0.399182	1
H	2.384905	-2.030880	-0.944458	1
H	3.137214	-1.172140	0.412342	1
H	2.621725	-0.079940	-2.155758	1
Es	-1.322235	-0.662289	0.039787	99
Es	0.026914	-0.927224	-0.407267	99
Es	-1.218496	-0.443100	-0.125671	99
Es	1.283407	0.243511	0.228995	99
Es	-1.300804	0.765268	0.630027	99
Es	-0.040358	-1.567429	-0.766028	99
Es	-2.835993	1.716303	1.237008	99
Es	2.936208	-1.129102	0.127845	99
Es	2.878620	-0.151825	-1.793840	99
Es	-2.035567	0.931362	0.725014	99
Es	0.669558	-0.483596	-0.557849	99
Es	-1.314444	-0.390490	-0.396439	99
Es	3.208678	-0.205856	-1.390239	99
Es	3.228416	0.067156	-1.252728	99
Es	1.225848	-0.395866	-0.123455	99
Es	-1.205300	0.008602	0.155606	99
Es	-3.092802	1.217288	0.165562	99
Es	0.666442	-0.806741	0.034813	99
Es	-0.970359	0.670603	1.300209	99
Es	2.927376	-0.527472	-1.060093	99
Es	-0.956765	1.325620	0.262838	99
Es	2.411682	-1.727304	-0.797708	99
Es	2.518710	-1.048046	-0.482203	99
Es	1.847463	-0.732536	-0.299437	99
Es	-2.767866	1.102544	0.822905	99
Es	-0.717126	-0.584587	-0.208179	99
Es	3.455720	-0.361990	-1.489162	99
Es	-3.119021	0.542589	1.158938	99
45
Properties=species:S:1:pos:R:3:Z:I:1 energy=-344.97771946160276 field_type=dipole dipole="0.000000 0.000000 0.000000" charge=0
C	-2.767905	1.102540	0.822902	6
C	-1.300785	0.765480	0.630162	6
O	-1.218835	-0.443290	-0.125758	8
C	0.027235	-0.927280	-0.407298	6
C	1.225805	-0.395880	-0.123468	6
C	2.518655	-1.048210	-0.482068	6
O	3.208965	-0.205700	-1.390218	8
H	-2.884135	2.003610	1.431212	1
H	-3.294215	0.275240	1.309952	1
H	-3.254665	1.264720	-0.144248	1
H	-0.829055	0.626210	1.610002	1
H	-0.808625	1.584500	0.093122	1
H	-0.080285	-1.869570	-0.935598	1
H	1.313995	0.550590	0.399182	1
H	2.384905	-2.030880	-0.944458	1
H	3.137214	-1.172140	0.412342	1
H	2.621725	-0.079940	-2.155758	1
Es	-1.300803	0.765268	0.630028	99
Es	-0.969870	0.670379	1.299566	99
Es	1.225848	-0.395865	-0.123453	99
Es	-3.119624	0.543128	1.159266	99
Es	-3.093408	1.217884	0.166033	99
Es	2.928021	-0.526929	-1.060824	99
Es	2.411660	-1.726578	-0.797957	99
Es	2.518709	-1.048045	-0.482207	99
Es	3.457922	-0.361438	-1.487607	99
Es	2.878295	-0.152866	-1.794852	99
Es	3.208638	-0.205823	-1.390258	99
Es	-2.767865	1.102544	0.822904	99
Es	0.026911	-0.927223	-0.407269	99
Es	3.225975	0.066842	-1.252139	99
Es	-0.040283	-1.566954	-0.766395	99
Es	0.666555	-0.806686	0.035471	99
Es	-0.715889	-0.585686	-0.206330	99
Es	-2.034905	0.931790	0.725337	99
Es	0.669436	-0.482816	-0.558176	99
Es	2.936552	-1.129510	0.128419	99
Es	1.847302	-0.732569	-0.299587	99
Es	-2.836414	1.714941	1.236108	99
Es	-1.204916	0.006405	0.155729	99
Es	1.283452	0.243003	0.229087	99
Es	-1.218509	-0.443146	-0.125617	99
Es	-0.956387	1.325024	0.262929	99
Es	-1.325701	-0.662092	0.038734	99
Es	-1.312796	-0.387590	-0.397692	99
45
Properties=species:S:1:pos:R:3:Z:I:1 energy=-344.97771946160276 field_type=dipole dipole="0.000000 0.000000 0.000000" charge=0
C	-2.767905	1.102540	0.822902	6
C	-1.300785	0.765480	0.630162	6
O	-1.218835	-0.443290	-0.125758	8
C	0.027235	-0.927280	-0.407298	6
C	1.225805	-0.395880	-0.123468	6
C	2.518655	-1.048210	-0.482068	6
O	3.208965	-0.205700	-1.390218	8
H	-2.884135	2.003610	1.431212	1
H	-3.294215	0.275240	1.309952	1
H	-3.254665	1.264720	-0.144248	1
H	-0.829055	0.626210	1.610002	1
H	-0.808625	1.584500	0.093122	1
H	-0.080285	-1.869570	-0.935598	1
H	1.313995	0.550590	0.399182	1
H	2.384905	-2.030880	-0.944458	1
H	3.137214	-1.172140	0.412342	1
H	2.621725	-0.079940	-2.155758	1
Es	1.847249	-0.732125	-0.300220	99
Es	2.936591	-1.129784	0.128704	99
Es	3.208725	-0.205792	-1.390268	99
Es	0.666457	-0.806750	0.036579	99
Es	-0.715468	-0.577709	-0.219675	99
Es	1.225849	-0.395864	-0.123455	99
Es	-1.300803	0.765267	0.630028	99
Es	-0.969923	0.670096	1.298794	99
Es	3.229067	0.068493	-1.251770	99
Es	3.455363	-0.364075	-1.488240	99
Es	2.878012	-0.153053	-1.794364	99
Es	2.411642	-1.726118	-0.798015	99
Es	-1.204515	0.009248	0.148213	99
Es	-2.767866	1.102544	0.822903	99
Es	-2.034293	0.932701	0.725883	99
Es	-3.120579	0.542986	1.159696	99
Es	2.927822	-0.525789	-1.060895	99
Es	0.669482	-0.482576	-0.558304	99
Es	-2.836877	1.713602	1.234821	99
Es	0.026907	-0.927225	-0.407262	99
Es	-3.093299	1.218552	0.166614	99
Es	-1.218499	-0.443108	-0.125661	99
Es	-0.955700	1.324771	0.263033	99
Es	1.283536	0.242938	0.228342	99
Es	-1.280002	-0.645894	0.057076	99
Es	2.518706	-1.048050	-0.482201	99
Es	-1.359514	-0.415021	-0.395022	99
Es	-0.040164	-1.566875	-0.766090	99
45
Properties=species:S:1:pos:R:3:Z:I:1 energy=-344.97771946160276 field_type=dipole dipole="0.000000 0.000000 0.000000" charge=0
C	-2.767905	1.102540	0.822902	6
C	-1.300785	0.765480	0.630162	6
O	-1.218835	-0.443290	-0.125758	8
C	0.027235	-0.927280	-0.407298	6
C	1.225805	-0.395880	-0.123468	6
C	2.518655	-1.048210	-0.482068	6
O	3.208965	-0.205700	-1.390218	8
H	-2.884135	2.003610	1.431212	1
H	-3.294215	0.275240	1.309952	1
H	-3.254665	1.264720	-0.144248	1
H	-0.829055	0.626210	1.610002	1
H	-0.808625	1.584500	0.093122	1
H	-0.080285	-1.869570	-0.935598	1
H	1.313995	0.550590	0.399182	1
H	2.384905	-2.030880	-0.944458	1
H	3.137214	-1.172140	0.412342	1
H	2.621725	-0.079940	-2.155758	1
Es	0.667666	-0.807391	0.036489	99
Es	-3.094947	1.218822	0.164800	99
Es	2.877714	-0.155383	-1.798361	99
Es	-1.300804	0.765269	0.630028	99
Es	-2.767865	1.102544	0.822910	99
Es	-2.034062	0.933054	0.726088	99
Es	-1.438402	-0.666652	-0.058185	99
Es	0.668462	-0.481019	-0.560014	99
Es	1.847266	-0.732922	-0.299272	99
Es	1.225847	-0.395862	-0.123461	99
Es	3.208610	-0.205831	-1.390262	99
Es	-3.119287	0.544273	1.160169	99
Es	2.411147	-1.725154	-0.798273	99
Es	2.930254	-0.527100	-1.061370	99
Es	-0.040235	-1.565742	-0.767053	99
Es	3.220019	0.064567	-1.252186	99
Es	-1.196051	-0.349064	-0.347074	99
Es	-1.206202	-0.006600	0.169766	99
Es	-0.968792	0.670460	1.299997	99
Es	-2.836618	1.711996	1.234979	99
Es	1.283771	0.241389	0.230089	99
Es	0.026910	-0.927222	-0.407269	99
Es	-0.956805	1.323711	0.262697	99
Es	2.937285	-1.130177	0.129894	99
Es	2.518708	-1.048046	-0.482207	99
Es	3.461894	-0.356706	-1.483336	99
Es	-1.218436	-0.443205	-0.125511	99
Es	-0.719141	-0.606617	-0.174823	99
45
Properties=species:S:1:pos:R:3:Z:I:1 energy=-344.97771946160276 field_type=dipole dipole="0.000000 0.000000 0.000000" charge=0
C	-2.767905	1.102540	0.822902	6
C	-1.300785	0.765480	0.630162	6
O	-1.218835	-0.443290	-0.125758	8
C	0.027235	-0.927280	-0.407298	6
C	1.225805	-0.395880	-0.123468	6
C	2.518655	-1.048210	-0.482068	6
O	3.208965	-0.205700	-1.390218	8
H	-2.884135	2.003610	1.431212	1
H	-3.294215	0.275240	1.309952	1
H	-3.254665	1.264720	-0.144248	1
H	-0.829055	0.626210	1.610002	1
H	-0.808625	1.584500	0.093122	1
H	-0.080285	-1.869570	-0.935598	1
H	1.313995	0.550590	0.399182	1
H	2.384905	-2.030880	-0.944458	1
H	3.137214	-1.172140	0.412342	1
H	2.621725	-0.079940	-2.155758	1
Es	-2.836533	1.710787	1.234161	99
Es	-0.968522	0.670395	1.300063	99
Es	3.453458	-0.362285	-1.485109	99
Es	-1.206577	-0.008151	0.170341	99
Es	2.937522	-1.130398	0.130189	99
Es	1.225850	-0.395864	-0.123453	99
Es	-3.119286	0.544564	1.160856	99
Es	-2.767865	1.102544	0.822904	99
Es	1.847177	-0.732915	-0.299383	99
Es	2.518708	-1.048047	-0.482206	99
Es	2.876607	-0.153224	-1.798171	99
Es	3.230247	0.066178	-1.251645	99
Es	0.667777	-0.807700	0.036982	99
Es	-0.956899	1.323486	0.262506	99
Es	-0.718927	-0.607705	-0.172875	99
Es	-2.033708	0.933470	0.726311	99
Es	-1.300803	0.765268	0.630026	99
Es	-1.452589	-0.662718	-0.078503	99
Es	-3.095548	1.219195	0.164570	99
Es	0.668350	-0.480373	-0.560479	99
Es	-0.040220	-1.565391	-0.767151	99
Es	0.026912	-0.927222	-0.407270	99
Es	-1.218490	-0.443104	-0.125641	99
Es	-1.181763	-0.350412	-0.329148	99
Es	2.411121	-1.724678	-0.798264	99
Es	2.929504	-0.525428	-1.060433	99
Es	3.208529	-0.205722	-1.390187	99
Es	1.283874	0.240845	0.230254	99
45
Properties=species:S:1:pos:R:3:Z:I:1 energy=-344.97771946160276 field_type=dipole dipole="0.000000 0.000000 0.000000" charge=0
C	-2.767905	1.102540	0.822902	6
C	-1.300785	0.765480	0.630162	6
O	-1.218835	-0.443290	-0.125758	8
C	0.027235	-0.927280	-0.407298	6
C	1.225805	-0.395880	-0.123468	6
C	2.518655	-1.048210	-0.482068	6
O	3.208965	-0.205700	-1.390218	8
H	-2.884135	2.003610	1.431212	1
H	-3.294215	0.275240	1.309952	1
H	-3.254665	1.264720	-0.144248	1
H	-0.829055	0.626210	1.610002	1
H	-0.808625	1.584500	0.093122	1
H	-0.080285	-1.869570	-0.935598	1
H	1.313995	0.550590	0.399182	1
H	2.384905	-2.030880	-0.944458	1
H	3.137214	-1.172140	0.412342	1
H	2.621725	-0.079940	-2.155758	1
Es	2.411386	-1.724950	-0.797945	99
Es	2.928106	-0.528072	-1.058963	99
Es	1.847178	-0.731397	-0.300833	99
Es	2.936530	-1.130576	0.129483	99
Es	-3.093209	1.220450	0.166590	99
Es	-0.970345	0.669294	1.298475	99
Es	-1.206441	0.013588	0.133900	99
Es	-1.300803	0.765268	0.630026	99
Es	2.878552	-0.150799	-1.795197	99
Es	1.283914	0.242353	0.226428	99
Es	-2.836503	1.710187	1.231987	99
Es	-2.767866	1.102545	0.822904	99
Es	-1.218342	-0.442937	-0.125953	99
Es	3.443502	-0.364953	-1.489470	99
Es	-1.173313	-0.568026	0.035426	99
Es	-0.954905	1.325220	0.262555	99
Es	-0.040219	-1.566381	-0.765029	99
Es	0.665719	-0.807645	0.039709	99
Es	-2.033391	0.934070	0.726855	99
Es	3.208553	-0.205746	-1.390221	99
Es	0.026911	-0.927224	-0.407267	99
Es	2.518706	-1.048051	-0.482202	99
Es	0.670297	-0.481815	-0.560260	99
Es	-3.122182	0.542366	1.161574	99
Es	3.240512	0.069723	-1.251900	99
Es	-0.717706	-0.562540	-0.246451	99
Es	-1.462586	-0.512699	-0.331521	99
Es	1.225850	-0.395863	-0.123455	99
45
Properties=species:S:1:pos:R:3:Z:I:1 energy=-344.97771946160276 field_type=dipole dipole="0.000000 0.000000 0.000000" charge=0
C	-2.767905	1.102540	0.822902	6
C	-1.300785	0.765480	0.630162	6
O	-1.218835	-0.443290	-0.125758	8
C	0.027235	-0.927280	-0.407298	6
C	1.225805	-0.395880	-0.123468	6
C	2.518655	-1.048210	-0.482068	6
O	3.208965	-0.205700	-1.390218	8
H	-2.884135	2.003610	1.431212	1
H	-3.294215	0.275240	1.309952	1
H	-3.254665	1.264720	-0.144248	1
H	-0.829055	0.626210	1.610002	1
H	-0.808625	1.584500	0.093122	1
H	-0.080285	-1.869570	-0.935598	1
H	1.313995	0.550590	0.399182	1
H	2.384905	-2.030880	-0.944458	1
H	3.137214	-1.172140	0.412342	1
H	2.621725	-0.079940	-2.155758	1
Es	-2.033139	0.934326	0.726911	99
Es	1.283554	0.241626	0.226110	99
Es	-1.206536	0.014014	0.131273	99
Es	2.875782	-0.144880	-1.792494	99
Es	-1.468385	-0.521373	-0.322398	99
Es	-1.218168	-0.442828	-0.126123	99
Es	2.518708	-1.048047	-0.482206	99
Es	-0.954866	1.324979	0.262614	99
Es	-0.970216	0.669202	1.298360	99
Es	0.666072	-0.807733	0.040141	99
Es	-1.168878	-0.557793	0.028562	99
Es	3.208683	-0.206029	-1.390353	99
Es	-3.093599	1.220718	0.166711	99
Es	3.411977	-0.377230	-1.493745	99
Es	0.669829	-0.481501	-0.560447	99
Es	2.926268	-0.523770	-1.056150	99
Es	-2.767866	1.102544	0.822904	99
Es	1.847261	-0.731493	-0.300972	99
Es	1.225849	-0.395865	-0.123454	99
Es	0.026908	-0.927221	-0.407268	99
Es	3.276578	0.071964	-1.253100	99
Es	2.936680	-1.130893	0.129406	99
Es	-1.300804	0.765270	0.630028	99
Es	2.411804	-1.724381	-0.797676	99
Es	-0.040164	-1.565889	-0.764917	99
Es	-0.716583	-0.564376	-0.245795	99
Es	-3.122278	0.542714	1.161808	99
Es	-2.836566	1.709338	1.231515	99
45
Properties=species:S:1:pos:R:3:Z:I:1 energy=-344.97771946160276 field_type=dipole dipole="0.000000 0.000000 0.000000" charge=0
C	-2.767905	1.102540	0.822902	6
C	-1.300785	0.765480	0.630162	6
O	-1.218835	-0.443290	-0.125758	8
C	0.027235	-0.927280	-0.407298	6
C	1.225805	-0.395880	-0.123468	6
C	2.518655	-1.048210	-0.482068	6
O	3.208965	-0.205700	-1.390218	8
H	-2.884135	2.003610	1.431212	1
H	-3.294215	0.275240	1.309952	1
H	-3.254665	1.264720	-0.144248	1
H	-0.829055	0.626210	1.610002	1
H	-0.808625	1.584500	0.093122	1
H	-0.080285	-1.869570	-0.935598	1
H	1.313995	0.550590	0.399182	1
H	2.384905	-2.030880	-0.944458	1
H	3.137214	-1.172140	0.412342	1
H	2.621725	-0.079940	-2.155758	1
Es	3.400489	-0.379736	-1.493680	99
Es	2.518707	-1.048046	-0.482206	99
Es	1.847321	-0.731470	-0.300841	99
Es	-0.040156	-1.565806	-0.764761	99
Es	-1.472507	-0.526106	-0.316347	99
Es	2.875448	-0.143697	-1.792238	99
Es	2.925559	-0.522383	-1.055290	99
Es	0.669850	-0.481362	-0.560714	99
Es	-2.032879	0.934492	0.727144	99
Es	-0.954888	1.324896	0.262487	99
Es	-1.218057	-0.442933	-0.125988	99
Es	-2.767867	1.102545	0.822905	99
Es	-2.836692	1.708731	1.231111	99
Es	0.026910	-0.927223	-0.407267	99
Es	-3.093651	1.220909	0.166731	99
Es	3.208623	-0.205875	-1.390283	99
Es	-0.716014	-0.563530	-0.246660	99
Es	-1.206840	0.012630	0.132772	99
Es	1.283410	0.241314	0.225972	99
Es	-3.122460	0.542862	1.161897	99
Es	0.666026	-0.807712	0.040285	99
Es	2.936824	-1.131059	0.129405	99
Es	-0.970145	0.669232	1.298356	99
Es	1.225850	-0.395862	-0.123459	99
Es	3.289137	0.071683	-1.254355	99
Es	2.411881	-1.724130	-0.797622	99
Es	-1.165171	-0.552243	0.021864	99
Es	-1.300804	0.765272	0.630028	99
45
Properties=species:S:1:pos:R:3:Z:I:1 energy=-344.97771946160276 field_type=dipole dipole="0.000000 0.000000 0.000000" charge=0
C	-2.767905	1.102540	0.822902	6
C	-1.300785	0.765480	0.630162	6
O	-1.218835	-0.443290	-0.125758	8
C	0.027235	-0.927280	-0.407298	6
C	1.225805	-0.395880	-0.123468	6
C	2.518655	-1.048210	-0.482068	6
O	3.208965	-0.205700	-1.390218	8
H	-2.884135	2.003610	1.431212	1
H	-3.294215	0.275240	1.309952	1
H	-3.254665	1.264720	-0.144248	1
H	-0.829055	0.626210	1.610002	1
H	-0.808625	1.584500	0.093122	1
H	-0.080285	-1.869570	-0.935598	1
H	1.313995	0.550590	0.399182	1
H	2.384905	-2.030880	-0.944458	1
H	3.137214	-1.172140	0.412342	1
H	2.621725	-0.079940	-2.155758	1
Es	-1.476970	-0.531737	-0.308990	99
Es	-3.093877	1.221263	0.166586	99
Es	2.412052	-1.723799	-0.797529	99
Es	-0.970038	0.669198	1.298403	99
Es	1.283331	0.241046	0.225828	99
Es	3.298418	0.070200	-1.254978	99
Es	1.847216	-0.731543	-0.300766	99
Es	-2.032966	0.934477	0.727096	99
Es	1.225849	-0.395863	-0.123457	99
Es	-0.040198	-1.565607	-0.764709	99
Es	-1.300805	0.765274	0.630031	99
Es	-0.954951	1.324791	0.262482	99
Es	-1.206444	0.012007	0.134198	99
Es	2.936904	-1.131273	0.129396	99
Es	2.518708	-1.048044	-0.482207	99
Es	0.669773	-0.481209	-0.561001	99
Es	-1.160919	-0.545497	0.013697	99
Es	-2.836370	1.708295	1.230949	99
Es	-2.767865	1.102544	0.822904	99
Es	2.874939	-0.141696	-1.791777	99
Es	2.925225	-0.521829	-1.055002	99
Es	3.392077	-0.380802	-1.493813	99
Es	3.208616	-0.205878	-1.390282	99
Es	-3.122519	0.542980	1.162181	99
Es	-1.218397	-0.442958	-0.125843	99
Es	-0.715895	-0.563930	-0.247485	99
Es	0.026911	-0.927224	-0.407267	99
Es	0.666100	-0.807796	0.040601	99
