47
Properties=species:S:1:pos:R:3:Z:I:1 energy=-309.12043988356584 field_type=dipole dipole="0.000000 0.000000 0.000000" charge=0
C	-2.664618	0.684858	0.845952	6
O	-1.248618	0.571478	0.856772	8
C	-0.773498	-0.180151	-0.259248	6
C	0.734432	-0.244761	-0.189788	6
C	1.274442	-1.092201	0.932101	6
C	1.515772	-0.214381	-1.488648	6
C	1.519693	0.988238	-0.588328	6
H	-2.969957	1.265258	1.720422	1
H	-3.128877	-0.304201	0.903342	1
H	-3.000587	1.207759	-0.054458	1
H	-1.102677	0.304259	-1.186818	1
H	-1.192087	-1.192901	-0.230368	1
H	2.370363	-1.090322	0.955922	1
H	0.944873	-2.130221	0.816501	1
H	0.920552	-0.723722	1.900332	1
H	0.973862	-0.141951	-2.425138	1
H	2.429612	-0.794441	-1.560558	1
H	2.429942	1.219729	-0.046148	1
H	0.967383	1.867679	-0.901838	1
Es	-0.017323	-0.208345	-0.232237	99
Es	-1.248855	0.571313	0.856501	99
Es	-1.181222	0.403687	1.103409	99
Es	-1.792226	0.595600	0.822886	99
Es	1.515720	-0.214299	-1.488509	99
Es	-1.001093	0.154439	-0.903853	99
Es	-1.064423	-0.881038	-0.240780	99
Es	2.135261	-0.611405	-1.531250	99
Es	1.141519	1.580904	-0.806740	99
Es	-2.664399	0.684837	0.845948	99
Es	1.274440	-1.092194	0.932073	99
Es	1.035496	-0.843668	1.585539	99
Es	-2.875017	1.079710	1.440629	99
Es	1.140718	-0.164520	-2.122584	99
Es	1.630006	0.474659	-1.160836	99
Es	-1.141097	0.855878	0.816858	99
Es	-2.899078	1.039084	0.220767	99
Es	1.045856	-1.801313	0.849206	99
Es	-2.987410	0.002446	0.877765	99
Es	1.062737	-0.414192	-0.888984	99
Es	1.519637	0.988060	-0.588385	99
Es	2.138330	1.138247	-0.218674	99
Es	0.734520	-0.244693	-0.189902	99
Es	1.070873	0.464547	-0.232658	99
Es	2.022904	-1.087036	0.939806	99
Es	-1.102470	0.281112	0.423284	99
Es	-0.773550	-0.180032	-0.259068	99
Es	1.010710	-0.665935	0.367178	99
47
Properties=species:S:1:pos:R:3:Z:I:1 energy=-309.12043988356584 field_type=dipole dipole="0.000000 0.000000 0.000000" charge=0
C	-2.664618	0.684858	0.845952	6
O	-1.248618	0.571478	0.856772	8
C	-0.773498	-0.180151	-0.259248	6
C	0.734432	-0.244761	-0.189788	6
C	1.274442	-1.092201	0.932101	6
C	1.515772	-0.214381	-1.488648	6
C	1.519693	0.988238	-0.588328	6
H	-2.969957	1.265258	1.720422	1
H	-3.128877	-0.304201	0.903342	1
H	-3.000587	1.207759	-0.054458	1
H	-1.102677	0.304259	-1.186818	1
H	-1.192087	-1.192901	-0.230368	1
H	2.370363	-1.090322	0.955922	1
H	0.944873	-2.130221	0.816501	1
H	0.920552	-0.723722	1.900332	1
H	0.973862	-0.141951	-2.425138	1
H	2.429612	-0.794441	-1.560558	1
H	2.429942	1.219729	-0.046148	1
H	0.967383	1.867679	-0.901838	1
Es	2.134376	-0.611033	-1.531600	99
Es	-2.898451	1.038419	0.221426	99
Es	1.515717	-0.214303	-1.488505	99
Es	1.069989	0.465256	-0.230591	99
Es	1.631575	0.475531	-1.163046	99
Es	-1.791719	0.593261	0.825266	99
Es	-2.875268	1.080647	1.440897	99
Es	1.519648	0.988077	-0.588375	99
Es	1.010884	-0.666038	0.367321	99
Es	1.045962	-1.801927	0.848468	99
Es	1.141440	-0.164937	-2.122009	99
Es	-1.185884	0.401599	1.094990	99
Es	-1.102246	0.281337	0.421640	99
Es	-0.017246	-0.208003	-0.232125	99
Es	-0.773549	-0.180035	-0.259071	99
Es	-2.987549	0.002072	0.877196	99
Es	2.022164	-1.086625	0.938950	99
Es	1.274441	-1.092195	0.932073	99
Es	-1.000474	0.154481	-0.903174	99
Es	2.137535	1.138770	-0.219064	99
Es	-1.137459	0.860350	0.824442	99
Es	0.734519	-0.244695	-0.189902	99
Es	1.035230	-0.842582	1.586446	99
Es	1.142338	1.580049	-0.806179	99
Es	1.062406	-0.416024	-0.889283	99
Es	-1.248788	0.571381	0.856541	99
Es	-1.064625	-0.881816	-0.241295	99
Es	-2.664402	0.684838	0.845949	99
47
Properties=species:S:1:pos:R:3:Z:I:1 energy=-309.12043988356584 field_type=dipole dipole="0.000000 0.000000 0.000000" charge=0
C	-2.664618	0.684858	0.845952	6
O	-1.248618	0.571478	0.856772	8
C	-0.773498	-0.180151	-0.259248	6
C	0.734432	-0.244761	-0.189788	6
C	1.274442	-1.092201	0.932101	6
C	1.515772	-0.214381	-1.488648	6
C	1.519693	0.988238	-0.588328	6
H	-2.969957	1.265258	1.720422	1
H	-3.128877	-0.304201	0.903342	1
H	-3.000587	1.207759	-0.054458	1
H	-1.102677	0.304259	-1.186818	1
H	-1.192087	-1.192901	-0.230368	1
H	2.370363	-1.090322	0.955922	1
H	0.944873	-2.130221	0.816501	1
H	0.920552	-0.723722	1.900332	1
H	0.973862	-0.141951	-2.425138	1
H	2.429612	-0.794441	-1.560558	1
H	2.429942	1.219729	-0.046148	1
H	0.967383	1.867679	-0.901838	1
Es	-1.000035	0.154485	-0.902802	99
Es	0.734515	-0.244696	-0.189900	99
Es	1.045946	-1.802321	0.847913	99
Es	-0.017237	-0.207832	-0.231956	99
Es	2.021647	-1.086413	0.938465	99
Es	-1.791690	0.589575	0.828703	99
Es	1.274440	-1.092194	0.932071	99
Es	-0.773549	-0.180033	-0.259069	99
Es	-1.064736	-0.882329	-0.241556	99
Es	-1.139101	0.862523	0.824057	99
Es	-1.184282	0.404205	1.092325	99
Es	1.062110	-0.416897	-0.889255	99
Es	2.133949	-0.610667	-1.531903	99
Es	-2.898049	1.037953	0.221947	99
Es	1.632481	0.476060	-1.164833	99
Es	1.519648	0.988075	-0.588379	99
Es	-2.664408	0.684837	0.845947	99
Es	1.141867	-0.165129	-2.121569	99
Es	1.515717	-0.214295	-1.488507	99
Es	1.069135	0.465628	-0.228927	99
Es	1.143096	1.579370	-0.805714	99
Es	-2.987640	0.001794	0.876807	99
Es	-1.102310	0.280660	0.421055	99
Es	2.137034	1.139030	-0.219507	99
Es	1.011172	-0.666173	0.367408	99
Es	1.035103	-0.841912	1.586949	99
Es	-2.875380	1.081292	1.441076	99
Es	-1.248882	0.571258	0.856543	99
47
Properties=species:S:1:pos:R:3:Z:I:1 energy=-309.12043988356584 field_type=dipole dipole="0.000000 0.000000 0.000000" charge=0
C	-2.664618	0.684858	0.845952	6
O	-1.248618	0.571478	0.856772	8
C	-0.773498	-0.180151	-0.259248	6
C	0.734432	-0.244761	-0.189788	6
C	1.274442	-1.092201	0.932101	6
C	1.515772	-0.214381	-1.488648	6
C	1.519693	0.988238	-0.588328	6
H	-2.969957	1.265258	1.720422	1
H	-3.128877	-0.304201	0.903342	1
H	-3.000587	1.207759	-0.054458	1
H	-1.102677	0.304259	-1.186818	1
H	-1.192087	-1.192901	-0.230368	1
H	2.370363	-1.090322	0.955922	1
H	0.944873	-2.130221	0.816501	1
H	0.920552	-0.723722	1.900332	1
H	0.973862	-0.141951	-2.425138	1
H	2.429612	-0.794441	-1.560558	1
H	2.429942	1.219729	-0.046148	1
H	0.967383	1.867679	-0.901838	1
Es	-2.875442	1.081540	1.441222	99
Es	1.142322	-0.165139	-2.121456	99
Es	-0.773550	-0.180032	-0.259069	99
Es	1.274440	-1.092194	0.932073	99
Es	1.143623	1.578794	-0.805532	99
Es	-1.102012	0.281621	0.419842	99
Es	1.068482	0.465858	-0.227936	99
Es	-0.999736	0.154540	-0.902512	99
Es	-2.664400	0.684837	0.845948	99
Es	-2.987648	0.001686	0.876560	99
Es	1.034959	-0.841565	1.587432	99
Es	1.061819	-0.417772	-0.889297	99
Es	2.133536	-0.610332	-1.531970	99
Es	-1.185958	0.403282	1.087975	99
Es	-2.897809	1.037803	0.222130	99
Es	-1.791444	0.587630	0.830240	99
Es	1.515731	-0.214286	-1.488518	99
Es	2.136605	1.139304	-0.219774	99
Es	2.021203	-1.086220	0.938109	99
Es	-0.017153	-0.207714	-0.231945	99
Es	1.633254	0.476432	-1.165762	99
Es	1.519648	0.988072	-0.588379	99
Es	0.734515	-0.244681	-0.189890	99
Es	-1.138128	0.864464	0.828139	99
Es	1.046160	-1.802504	0.847467	99
Es	-1.248845	0.571313	0.856517	99
Es	1.011232	-0.666221	0.367566	99
Es	-1.064842	-0.882659	-0.241794	99
47
Properties=species:S:1:pos:R:3:Z:I:1 energy=-309.12043988356584 field_type=dipole dipole="0.000000 0.000000 0.000000" charge=0
C	-2.664618	0.684858	0.845952	6
O	-1.248618	0.571478	0.856772	8
C	-0.773498	-0.180151	-0.259248	6
C	0.734432	-0.244761	-0.189788	6
C	1.274442	-1.092201	0.932101	6
C	1.515772	-0.214381	-1.488648	6
C	1.519693	0.988238	-0.588328	6
H	-2.969957	1.265258	1.720422	1
H	-3.128877	-0.304201	0.903342	1
H	-3.000587	1.207759	-0.054458	1
H	-1.102677	0.304259	-1.186818	1
H	-1.192087	-1.192901	-0.230368	1
H	2.370363	-1.090322	0.955922	1
H	0.944873	-2.130221	0.816501	1
H	0.920552	-0.723722	1.900332	1
H	0.973862	-0.141951	-2.425138	1
H	2.429612	-0.794441	-1.560558	1
H	2.429942	1.219729	-0.046148	1
H	0.967383	1.867679	-0.901838	1
Es	-1.791222	0.585690	0.831284	99
Es	-1.186953	0.405015	1.085531	99
Es	1.011436	-0.666180	0.367684	99
Es	1.633929	0.476863	-1.166693	99
Es	1.515718	-0.214298	-1.488507	99
Es	-2.897682	1.037627	0.222204	99
Es	-1.248848	0.571313	0.856545	99
Es	1.519648	0.988073	-0.588378	99
Es	1.142774	-0.165075	-2.121382	99
Es	0.734521	-0.244691	-0.189899	99
Es	-2.664401	0.684833	0.845947	99
Es	-0.017167	-0.207664	-0.231864	99
Es	1.061522	-0.418423	-0.889295	99
Es	-1.064732	-0.882847	-0.241880	99
Es	1.034874	-0.841281	1.587738	99
Es	1.046128	-1.802515	0.847168	99
Es	-0.773549	-0.180032	-0.259068	99
Es	-2.987579	0.001668	0.876412	99
Es	1.274441	-1.092195	0.932073	99
Es	1.144056	1.578312	-0.805216	99
Es	-0.999584	0.154578	-0.902474	99
Es	-1.138049	0.866256	0.828903	99
Es	1.067847	0.465819	-0.227213	99
Es	-2.875518	1.081720	1.441369	99
Es	2.133222	-0.609951	-1.532027	99
Es	2.020943	-1.086302	0.937912	99
Es	2.136218	1.139462	-0.219983	99
Es	-1.101431	0.280080	0.420498	99
47
Properties=species:S:1:pos:R:3:Z:I:1 energy=-309.12043988356584 field_type=dipole dipole="0.000000 0.000000 0.000000" charge=0
C	-2.664618	0.684858	0.845952	6
O	-1.248618	0.571478	0.856772	8
C	-0.773498	-0.180151	-0.259248	6
C	0.734432	-0.244761	-0.189788	6
C	1.274442	-1.092201	0.932101	6
C	1.515772	-0.214381	-1.488648	6
C	1.519693	0.988238	-0.588328	6
H	-2.969957	1.265258	1.720422	1
H	-3.128877	-0.304201	0.903342	1
H	-3.000587	1.207759	-0.054458	1
H	-1.102677	0.304259	-1.186818	1
H	-1.192087	-1.192901	-0.230368	1
H	2.370363	-1.090322	0.955922	1
H	0.944873	-2.130221	0.816501	1
H	0.920552	-0.723722	1.900332	1
H	0.973862	-0.141951	-2.425138	1
H	2.429612	-0.794441	-1.560558	1
H	2.429942	1.219729	-0.046148	1
H	0.967383	1.867679	-0.901838	1
Es	1.142973	-0.165227	-2.121224	99
Es	1.634419	0.477210	-1.167403	99
Es	1.515723	-0.214295	-1.488507	99
Es	2.132960	-0.609740	-1.532086	99
Es	-0.017193	-0.207581	-0.231874	99
Es	-2.987638	0.001541	0.876328	99
Es	1.274440	-1.092194	0.932072	99
Es	0.734520	-0.244689	-0.189901	99
Es	1.034781	-0.841076	1.587946	99
Es	-1.101755	0.281584	0.419186	99
Es	2.020661	-1.086124	0.937759	99
Es	1.011428	-0.666239	0.367723	99
Es	1.046293	-1.802679	0.846938	99
Es	-0.999365	0.154592	-0.902301	99
Es	1.067554	0.465831	-0.226600	99
Es	1.061430	-0.418810	-0.889123	99
Es	1.519648	0.988074	-0.588380	99
Es	-2.875467	1.081928	1.441397	99
Es	-1.138703	0.866609	0.830086	99
Es	-1.791219	0.584211	0.832981	99
Es	-0.773549	-0.180032	-0.259068	99
Es	-2.897559	1.037507	0.222418	99
Es	2.135950	1.139502	-0.220216	99
Es	1.144363	1.578081	-0.805086	99
Es	-1.248899	0.571094	0.856612	99
Es	-1.186014	0.404975	1.083789	99
Es	-1.064816	-0.883035	-0.242030	99
Es	-2.664403	0.684837	0.845948	99
47
Properties=species:S:1:pos:R:3:Z:I:1 energy=-309.12043988356584 field_type=dipole dipole="0.000000 0.000000 0.000000" charge=0
C	-2.664618	0.684858	0.845952	6
O	-1.248618	0.571478	0.856772	8
C	-0.773498	-0.180151	-0.259248	6
C	0.734432	-0.244761	-0.189788	6
C	1.274442	-1.092201	0.932101	6
C	1.515772	-0.214381	-1.488648	6
C	1.519693	0.988238	-0.588328	6
H	-2.969957	1.265258	1.720422	1
H	-3.128877	-0.304201	0.903342	1
H	-3.000587	1.207759	-0.054458	1
H	-1.102677	0.304259	-1.186818	1
H	-1.192087	-1.192901	-0.230368	1
H	2.370363	-1.090322	0.955922	1
H	0.944873	-2.130221	0.816501	1
H	0.920552	-0.723722	1.900332	1
H	0.973862	-0.141951	-2.425138	1
H	2.429612	-0.794441	-1.560558	1
H	2.429942	1.219729	-0.046148	1
H	0.967383	1.867679	-0.901838	1
Es	1.034819	-0.840805	1.588053	99
Es	-1.248855	0.571265	0.856559	99
Es	-1.064734	-0.883195	-0.242060	99
Es	-2.987626	0.001493	0.876259	99
Es	-1.791135	0.581903	0.834899	99
Es	1.143023	-0.165183	-2.121077	99
Es	1.046243	-1.802789	0.846853	99
Es	1.144663	1.577715	-0.805038	99
Es	1.274439	-1.092194	0.932070	99
Es	1.634685	0.477328	-1.167782	99
Es	-0.773548	-0.180034	-0.259071	99
Es	1.011638	-0.666220	0.367825	99
Es	2.135784	1.139653	-0.220299	99
Es	0.734517	-0.244701	-0.189903	99
Es	-0.999308	0.154567	-0.902222	99
Es	1.515717	-0.214299	-1.488509	99
Es	-1.184988	0.405910	1.082489	99
Es	-1.140134	0.867454	0.830082	99
Es	-2.664405	0.684837	0.845948	99
Es	2.020492	-1.086099	0.937572	99
Es	2.132860	-0.609567	-1.532273	99
Es	1.067238	0.466034	-0.226375	99
Es	-0.017238	-0.207479	-0.231734	99
Es	1.519645	0.988065	-0.588381	99
Es	-2.897511	1.037506	0.222476	99
Es	1.061248	-0.419279	-0.889084	99
Es	-2.875445	1.081951	1.441462	99
Es	-1.101520	0.282016	0.418649	99
47
Properties=species:S:1:pos:R:3:Z:I:1 energy=-309.12043988356584 field_type=dipole dipole="0.000000 0.000000 0.000000" charge=0
C	-2.664618	0.684858	0.845952	6
O	-1.248618	0.571478	0.856772	8
C	-0.773498	-0.180151	-0.259248	6
C	0.734432	-0.244761	-0.189788	6
C	1.274442	-1.092201	0.932101	6
C	1.515772	-0.214381	-1.488648	6
C	1.519693	0.988238	-0.588328	6
H	-2.969957	1.265258	1.720422	1
H	-3.128877	-0.304201	0.903342	1
H	-3.000587	1.207759	-0.054458	1
H	-1.102677	0.304259	-1.186818	1
H	-1.192087	-1.192901	-0.230368	1
H	2.370363	-1.090322	0.955922	1
H	0.944873	-2.130221	0.816501	1
H	0.920552	-0.723722	1.900332	1
H	0.973862	-0.141951	-2.425138	1
H	2.429612	-0.794441	-1.560558	1
H	2.429942	1.219729	-0.046148	1
H	0.967383	1.867679	-0.901838	1
Es	-1.186412	0.404850	1.079979	99
Es	-0.999106	0.154608	-0.902131	99
Es	1.635107	0.477356	-1.168121	99
Es	2.135565	1.139714	-0.220451	99
Es	-1.248734	0.571379	0.856605	99
Es	1.519647	0.988070	-0.588379	99
Es	1.061201	-0.419602	-0.889058	99
Es	1.274440	-1.092193	0.932071	99
Es	-0.017274	-0.207432	-0.231763	99
Es	-1.138720	0.867849	0.832583	99
Es	-2.875453	1.082064	1.441501	99
Es	-2.897444	1.037407	0.222490	99
Es	2.020236	-1.086142	0.937495	99
Es	1.143298	-0.165106	-2.121166	99
Es	0.734515	-0.244688	-0.189891	99
Es	2.132583	-0.609301	-1.532226	99
Es	-1.064748	-0.883338	-0.242196	99
Es	-1.791265	0.581846	0.835344	99
Es	1.144862	1.577519	-0.804981	99
Es	-0.773551	-0.180032	-0.259065	99
Es	-2.664406	0.684837	0.845948	99
Es	1.515719	-0.214298	-1.488508	99
Es	1.011645	-0.666145	0.367834	99
Es	1.046330	-1.802795	0.846666	99
Es	1.034810	-0.840730	1.588283	99
Es	-2.987594	0.001464	0.876238	99
Es	1.066927	0.466019	-0.225888	99
Es	-1.101617	0.282674	0.418174	99
47
Properties=species:S:1:pos:R:3:Z:I:1 energy=-309.12043988356584 field_type=dipole dipole="0.000000 0.000000 0.000000" charge=0
C	-2.664618	0.684858	0.845952	6
O	-1.248618	0.571478	0.856772	8
C	-0.773498	-0.180151	-0.259248	6
C	0.734432	-0.244761	-0.189788	6
C	1.274442	-1.092201	0.932101	6
C	1.515772	-0.214381	-1.488648	6
C	1.519693	0.988238	-0.588328	6
H	-2.969957	1.265258	1.720422	1
H	-3.128877	-0.304201	0.903342	1
H	-3.000587	1.207759	-0.054458	1
H	-1.102677	0.304259	-1.186818	1
H	-1.192087	-1.192901	-0.230368	1
H	2.370363	-1.090322	0.955922	1
H	0.944873	-2.130221	0.816501	1
H	0.920552	-0.723722	1.900332	1
H	0.973862	-0.141951	-2.425138	1
H	2.429612	-0.794441	-1.560558	1
H	2.429942	1.219729	-0.046148	1
H	0.967383	1.867679	-0.901838	1
Es	2.135305	1.139775	-0.220644	99
Es	1.515718	-0.214299	-1.488507	99
Es	-1.791004	0.579505	0.836660	99
Es	1.144999	1.577336	-0.804846	99
Es	1.011688	-0.666249	0.367897	99
Es	1.519647	0.988069	-0.588379	99
Es	1.060963	-0.419878	-0.889151	99
Es	-1.140117	0.868817	0.832685	99
Es	-0.999110	0.154635	-0.902143	99
Es	-0.773551	-0.180031	-0.259068	99
Es	-2.897383	1.037369	0.222618	99
Es	1.635386	0.477548	-1.168560	99
Es	2.132449	-0.609132	-1.532220	99
Es	-0.017238	-0.207319	-0.231657	99
Es	-2.987593	0.001433	0.876098	99
Es	-2.875488	1.082115	1.441573	99
Es	-2.664406	0.684838	0.845948	99
Es	1.034709	-0.840688	1.588430	99
Es	1.046415	-1.802768	0.846495	99
Es	1.066824	0.466033	-0.225464	99
Es	1.274439	-1.092193	0.932071	99
Es	-1.185355	0.405691	1.079057	99
Es	0.734513	-0.244698	-0.189897	99
Es	2.020170	-1.086085	0.937387	99
Es	-1.101384	0.283281	0.417707	99
Es	-1.248857	0.571319	0.856519	99
Es	1.143543	-0.165151	-2.121064	99
Es	-1.064726	-0.883419	-0.242157	99
47
Properties=species:S:1:pos:R:3:Z:I:1 energy=-309.12043988356584 field_type=dipole dipole="0.000000 0.000000 0.000000" charge=0
C	-2.664618	0.684858	0.845952	6
O	-1.248618	0.571478	0.856772	8
C	-0.773498	-0.180151	-0.259248	6
C	0.734432	-0.244761	-0.189788	6
C	1.274442	-1.092201	0.932101	6
C	1.515772	-0.214381	-1.488648	6
C	1.519693	0.988238	-0.588328	6
H	-2.969957	1.265258	1.720422	1
H	-3.128877	-0.304201	0.903342	1
H	-3.000587	1.207759	-0.054458	1
H	-1.102677	0.304259	-1.186818	1
H	-1.192087	-1.192901	-0.230368	1
H	2.370363	-1.090322	0.955922	1
H	0.944873	-2.130221	0.816501	1
H	0.920552	-0.723722	1.900332	1
H	0.973862	-0.141951	-2.425138	1
H	2.429612	-0.794441	-1.560558	1
H	2.429942	1.219729	-0.046148	1
H	0.967383	1.867679	-0.901838	1
Es	1.519649	0.988070	-0.588383	99
Es	-1.102315	0.284267	0.416594	99
Es	2.019995	-1.086116	0.937327	99
Es	-1.248805	0.571343	0.856502	99
Es	0.734517	-0.244695	-0.189899	99
Es	-0.999006	0.154730	-0.902201	99
Es	-1.791114	0.580367	0.837653	99
Es	-2.987548	0.001455	0.876111	99
Es	1.143537	-0.165138	-2.121094	99
Es	-2.897341	1.037360	0.222509	99
Es	-1.064709	-0.883458	-0.242199	99
Es	1.635736	0.477557	-1.168988	99
Es	-0.773550	-0.180032	-0.259067	99
Es	1.274440	-1.092194	0.932073	99
Es	-1.188239	0.403512	1.074035	99
Es	2.132373	-0.609103	-1.532233	99
Es	1.515719	-0.214298	-1.488507	99
Es	-1.136294	0.869087	0.837954	99
Es	-0.017281	-0.207345	-0.231665	99
Es	-2.664406	0.684837	0.845947	99
Es	1.060987	-0.419615	-0.888933	99
Es	2.135054	1.139656	-0.220908	99
Es	1.066460	0.465869	-0.225066	99
Es	1.145242	1.577324	-0.804788	99
Es	1.011663	-0.666249	0.367958	99
Es	1.046501	-1.802774	0.846465	99
Es	-2.875489	1.082124	1.441617	99
Es	1.034785	-0.840686	1.588571	99
47
Properties=species:S:1:pos:R:3:Z:I:1 energy=-309.12043988356584 field_type=dipole dipole="0.000000 0.000000 0.000000" charge=0
C	-2.664618	0.684858	0.845952	6
O	-1.248618	0.571478	0.856772	8
C	-0.773498	-0.180151	-0.259248	6
C	0.734432	-0.244761	-0.189788	6
C	1.274442	-1.092201	0.932101	6
C	1.515772	-0.214381	-1.488648	6
C	1.519693	0.988238	-0.588328	6
H	-2.969957	1.265258	1.720422	1
H	-3.128877	-0.304201	0.903342	1
H	-3.000587	1.207759	-0.054458	1
H	-1.102677	0.304259	-1.186818	1
H	-1.192087	-1.192901	-0.230368	1
H	2.370363	-1.090322	0.955922	1
H	0.944873	-2.130221	0.816501	1
H	0.920552	-0.723722	1.900332	1
H	0.973862	-0.141951	-2.425138	1
H	2.429612	-0.794441	-1.560558	1
H	2.429942	1.219729	-0.046148	1
H	0.967383	1.867679	-0.901838	1
Es	2.132112	-0.608934	-1.532126	99
Es	-0.017283	-0.207356	-0.231565	99
Es	-1.139919	0.869125	0.833417	99
Es	-2.987578	0.001354	0.876032	99
Es	1.515725	-0.214296	-1.488516	99
Es	1.034794	-0.840524	1.588638	99
Es	1.143765	-0.165223	-2.121125	99
Es	-1.101411	0.282924	0.417517	99
Es	1.636008	0.477848	-1.169280	99
Es	1.011657	-0.666347	0.367992	99
Es	1.046492	-1.802902	0.846331	99
Es	-0.773550	-0.180032	-0.259069	99
Es	-1.791188	0.578520	0.838310	99
Es	-2.875476	1.082239	1.441623	99
Es	-0.998825	0.154833	-0.902084	99
Es	1.145329	1.576946	-0.804708	99
Es	0.734518	-0.244701	-0.189904	99
Es	1.519645	0.988065	-0.588379	99
Es	-2.664405	0.684836	0.845948	99
Es	1.066350	0.465852	-0.224776	99
Es	1.274440	-1.092194	0.932072	99
Es	2.019870	-1.086005	0.937183	99
Es	-1.248891	0.571181	0.856577	99
Es	1.060864	-0.419890	-0.888988	99
Es	-1.064841	-0.883508	-0.242380	99
Es	-2.897276	1.037275	0.222675	99
Es	-1.185389	0.406875	1.076877	99
Es	2.135024	1.139892	-0.220905	99
47
Properties=species:S:1:pos:R:3:Z:I:1 energy=-309.12043988356584 field_type=dipole dipole="0.000000 0.000000 0.000000" charge=0
C	-2.664618	0.684858	0.845952	6
O	-1.248618	0.571478	0.856772	8
C	-0.773498	-0.180151	-0.259248	6
C	0.734432	-0.244761	-0.189788	6
C	1.274442	-1.092201	0.932101	6
C	1.515772	-0.214381	-1.488648	6
C	1.519693	0.988238	-0.588328	6
H	-2.969957	1.265258	1.720422	1
H	-3.128877	-0.304201	0.903342	1
H	-3.000587	1.207759	-0.054458	1
H	-1.102677	0.304259	-1.186818	1
H	-1.192087	-1.192901	-0.230368	1
H	2.370363	-1.090322	0.955922	1
H	0.944873	-2.130221	0.816501	1
H	0.920552	-0.723722	1.900332	1
H	0.973862	-0.141951	-2.425138	1
H	2.429612	-0.794441	-1.560558	1
H	2.429942	1.219729	-0.046148	1
H	0.967383	1.867679	-0.901838	1
Es	-2.897236	1.037268	0.222809	99
Es	2.134843	1.139844	-0.221073	99
Es	1.515721	-0.214298	-1.488508	99
Es	-1.790622	0.580986	0.836085	99
Es	-2.987608	0.001333	0.875934	99
Es	1.034724	-0.840441	1.588717	99
Es	1.011752	-0.666361	0.368081	99
Es	2.019802	-1.085945	0.937106	99
Es	1.636177	0.477967	-1.169675	99
Es	-1.064767	-0.883669	-0.242414	99
Es	1.046540	-1.802920	0.846218	99
Es	-2.875500	1.082264	1.441641	99
Es	1.143947	-0.165086	-2.120863	99
Es	1.519645	0.988067	-0.588379	99
Es	-1.188291	0.403116	1.076062	99
Es	-0.773550	-0.180031	-0.259068	99
Es	1.274440	-1.092194	0.932072	99
Es	-1.248879	0.571442	0.856398	99
Es	-0.017315	-0.207197	-0.231591	99
Es	1.066103	0.465878	-0.224551	99
Es	-2.664404	0.684836	0.845948	99
Es	-1.137246	0.868806	0.837558	99
Es	1.060603	-0.420230	-0.888871	99
Es	1.145594	1.576807	-0.804629	99
Es	-1.101749	0.284324	0.416570	99
Es	-0.998805	0.154754	-0.901949	99
Es	2.132124	-0.608775	-1.532342	99
Es	0.734519	-0.244691	-0.189900	99
47
Properties=species:S:1:pos:R:3:Z:I:1 energy=-309.12043988356584 field_type=dipole dipole="0.000000 0.000000 0.000000" charge=0
C	-2.664618	0.684858	0.845952	6
O	-1.248618	0.571478	0.856772	8
C	-0.773498	-0.180151	-0.259248	6
C	0.734432	-0.244761	-0.189788	6
C	1.274442	-1.092201	0.932101	6
C	1.515772	-0.214381	-1.488648	6
C	1.519693	0.988238	-0.588328	6
H	-2.969957	1.265258	1.720422	1
H	-3.128877	-0.304201	0.903342	1
H	-3.000587	1.207759	-0.054458	1
H	-1.102677	0.304259	-1.186818	1
H	-1.192087	-1.192901	-0.230368	1
H	2.370363	-1.090322	0.955922	1
H	0.944873	-2.130221	0.816501	1
H	0.920552	-0.723722	1.900332	1
H	0.973862	-0.141951	-2.425138	1
H	2.429612	-0.794441	-1.560558	1
H	2.429942	1.219729	-0.046148	1
H	0.967383	1.867679	-0.901838	1
Es	-0.017252	-0.207292	-0.231501	99
Es	0.734518	-0.244699	-0.189906	99
Es	-1.790639	0.578552	0.837714	99
Es	-0.998689	0.154766	-0.901882	99
Es	1.145660	1.576643	-0.804534	99
Es	1.011796	-0.666305	0.368148	99
Es	1.046498	-1.802876	0.846127	99
Es	-1.064876	-0.883687	-0.242473	99
Es	1.144040	-0.165225	-2.120991	99
Es	1.060663	-0.420447	-0.888932	99
Es	-2.875450	1.082294	1.441657	99
Es	1.065962	0.465921	-0.224368	99
Es	-2.664406	0.684837	0.845948	99
Es	-1.101466	0.283072	0.417362	99
Es	-1.140082	0.869598	0.833765	99
Es	1.034634	-0.840360	1.588758	99
Es	-0.773549	-0.180033	-0.259070	99
Es	2.131972	-0.608625	-1.532194	99
Es	2.134773	1.139912	-0.221135	99
Es	1.519642	0.988070	-0.588386	99
Es	1.636292	0.478119	-1.169867	99
Es	1.274439	-1.092194	0.932072	99
Es	2.019839	-1.085958	0.937044	99
Es	-1.248854	0.571329	0.856482	99
Es	-2.897251	1.037240	0.222812	99
Es	-1.185795	0.406216	1.077275	99
Es	-2.987580	0.001285	0.875969	99
Es	1.515720	-0.214297	-1.488506	99
47
Properties=species:S:1:pos:R:3:Z:I:1 energy=-309.12043988356584 field_type=dipole dipole="0.000000 0.000000 0.000000" charge=0
C	-2.664618	0.684858	0.845952	6
O	-1.248618	0.571478	0.856772	8
C	-0.773498	-0.180151	-0.259248	6
C	0.734432	-0.244761	-0.189788	6
C	1.274442	-1.092201	0.932101	6
C	1.515772	-0.214381	-1.488648	6
C	1.519693	0.988238	-0.588328	6
H	-2.969957	1.265258	1.720422	1
H	-3.128877	-0.304201	0.903342	1
H	-3.000587	1.207759	-0.054458	1
H	-1.102677	0.304259	-1.186818	1
H	-1.192087	-1.192901	-0.230368	1
H	2.370363	-1.090322	0.955922	1
H	0.944873	-2.130221	0.816501	1
H	0.920552	-0.723722	1.900332	1
H	0.973862	-0.141951	-2.425138	1
H	2.429612	-0.794441	-1.560558	1
H	2.429942	1.219729	-0.046148	1
H	0.967383	1.867679	-0.901838	1
Es	1.636551	0.478081	-1.169949	99
Es	1.143983	-0.165148	-2.120963	99
Es	-1.138449	0.869293	0.834973	99
Es	2.134627	1.139972	-0.221168	99
Es	-0.773549	-0.180032	-0.259068	99
Es	-0.017293	-0.207265	-0.231576	99
Es	-1.102210	0.283272	0.417067	99
Es	-2.987548	0.001310	0.875932	99
Es	1.034728	-0.840371	1.588853	99
Es	-1.186153	0.406174	1.074611	99
Es	2.131896	-0.608599	-1.532300	99
Es	-2.664410	0.684838	0.845948	99
Es	1.274440	-1.092194	0.932071	99
Es	0.734518	-0.244695	-0.189900	99
Es	-1.064734	-0.883733	-0.242419	99
Es	-1.791312	0.578612	0.839582	99
Es	1.519647	0.988069	-0.588379	99
Es	-2.897172	1.037282	0.222698	99
Es	-0.998680	0.154829	-0.902029	99
Es	1.065750	0.465996	-0.224180	99
Es	1.060694	-0.420420	-0.888860	99
Es	-1.248759	0.571351	0.856529	99
Es	1.011720	-0.666366	0.368199	99
Es	-2.875481	1.082269	1.441698	99
Es	1.515720	-0.214297	-1.488507	99
Es	1.046611	-1.802966	0.846097	99
Es	1.145797	1.576503	-0.804593	99
Es	2.019631	-1.085911	0.937019	99
47
Properties=species:S:1:pos:R:3:Z:I:1 energy=-309.12043988356584 field_type=dipole dipole="0.000000 0.000000 0.000000" charge=0
C	-2.664618	0.684858	0.845952	6
O	-1.248618	0.571478	0.856772	8
C	-0.773498	-0.180151	-0.259248	6
C	0.734432	-0.244761	-0.189788	6
C	1.274442	-1.092201	0.932101	6
C	1.515772	-0.214381	-1.488648	6
C	1.519693	0.988238	-0.588328	6
H	-2.969957	1.265258	1.720422	1
H	-3.128877	-0.304201	0.903342	1
H	-3.000587	1.207759	-0.054458	1
H	-1.102677	0.304259	-1.186818	1
H	-1.192087	-1.192901	-0.230368	1
H	2.370363	-1.090322	0.955922	1
H	0.944873	-2.130221	0.816501	1
H	0.920552	-0.723722	1.900332	1
H	0.973862	-0.141951	-2.425138	1
H	2.429612	-0.794441	-1.560558	1
H	2.429942	1.219729	-0.046148	1
H	0.967383	1.867679	-0.901838	1
Es	2.131844	-0.608556	-1.532287	99
Es	-1.101145	0.282646	0.417511	99
Es	-2.987568	0.001275	0.875934	99
Es	2.019608	-1.085941	0.936983	99
Es	-1.790564	0.576211	0.839541	99
Es	1.060565	-0.420574	-0.888795	99
Es	1.145913	1.576359	-0.804492	99
Es	-2.897190	1.037171	0.222829	99
Es	1.519647	0.988067	-0.588378	99
Es	-1.184413	0.408274	1.076669	99
Es	1.636684	0.478172	-1.170191	99
Es	1.011800	-0.666370	0.368172	99
Es	2.134527	1.139992	-0.221131	99
Es	1.274439	-1.092194	0.932072	99
Es	-0.017265	-0.207225	-0.231583	99
Es	1.046569	-1.802954	0.846031	99
Es	1.144100	-0.165135	-2.120927	99
Es	1.065758	0.466051	-0.224157	99
Es	-1.248856	0.571334	0.856477	99
Es	-2.875465	1.082370	1.441693	99
Es	-1.064846	-0.883738	-0.242500	99
Es	-0.773549	-0.180032	-0.259069	99
Es	-2.664404	0.684836	0.845947	99
Es	-0.998668	0.154811	-0.901872	99
Es	-1.141878	0.870264	0.832433	99
Es	0.734517	-0.244695	-0.189899	99
Es	1.515719	-0.214298	-1.488508	99
Es	1.034682	-0.840268	1.588883	99
