42
Properties=species:S:1:pos:R:3:Z:I:1 energy=-343.752198101644 field_type=dipole dipole="0.000000 0.000000 0.000000" charge=0
C	-0.417615	-2.636949	-0.217713	6
O	-1.420445	-1.628959	-0.283613	8
C	-0.998975	-0.329639	-0.320353	6
C	0.250285	0.161451	-0.309853	6
C	0.598505	1.585821	-0.350523	6
C	0.579945	2.372101	0.936697	6
O	1.803695	2.085661	0.250927	8
H	-0.918795	-3.609279	-0.190763	1
H	0.177045	-2.538059	0.696307	1
H	0.222345	-2.610929	-1.105423	1
H	-1.869035	0.317711	-0.361493	1
H	1.101165	-0.511649	-0.271363	1
H	0.273025	2.095001	-1.252643	1
H	0.401935	1.856311	1.871847	1
H	0.216925	3.391402	0.907957	1
Es	-0.006224	-2.563143	0.402434	99
Es	-1.201556	-1.147138	-0.297927	99
Es	0.580206	2.372040	0.936531	99
Es	-1.587094	0.112777	-0.348492	99
Es	0.598756	1.585877	-0.350360	99
Es	0.465029	2.021950	1.573660	99
Es	-1.013770	-1.976336	-0.259099	99
Es	0.348581	1.960015	0.301618	99
Es	0.819671	-0.292376	-0.283170	99
Es	-0.417788	-2.636763	-0.217727	99
Es	1.395144	2.250487	0.590029	99
Es	0.024532	-2.612695	-0.820115	99
Es	-1.420052	-1.628856	-0.283626	99
Es	-0.999126	-0.329914	-0.320349	99
Es	1.893567	2.335308	0.095083	99
Es	-1.563995	-1.623996	-0.029769	99
Es	0.342317	3.072025	0.921965	99
Es	-0.322733	-0.076120	-0.652865	99
Es	-1.554510	-1.646439	-0.543076	99
Es	1.946560	1.853635	0.395759	99
Es	-0.339660	-0.057663	0.021270	99
Es	0.250337	0.161489	-0.309850	99
Es	0.384480	1.930416	-0.965961	99
Es	1.403858	1.841601	-0.061231	99
Es	-0.760340	-3.294421	-0.199550	99
Es	1.803362	2.085637	0.250934	99
Es	0.431672	0.865709	-0.331565	99
42
Properties=species:S:1:pos:R:3:Z:I:1 energy=-343.752198101644 field_type=dipole dipole="0.000000 0.000000 0.000000" charge=0
C	-0.417615	-2.636949	-0.217713	6
O	-1.420445	-1.628959	-0.283613	8
C	-0.998975	-0.329639	-0.320353	6
C	0.250285	0.161451	-0.309853	6
C	0.598505	1.585821	-0.350523	6
C	0.579945	2.372101	0.936697	6
O	1.803695	2.085661	0.250927	8
H	-0.918795	-3.609279	-0.190763	1
H	0.177045	-2.538059	0.696307	1
H	0.222345	-2.610929	-1.105423	1
H	-1.869035	0.317711	-0.361493	1
H	1.101165	-0.511649	-0.271363	1
H	0.273025	2.095001	-1.252643	1
H	0.401935	1.856311	1.871847	1
H	0.216925	3.391402	0.907957	1
Es	-1.547188	-1.624366	-0.027493	99
Es	1.403088	1.837194	-0.062348	99
Es	1.399940	2.251170	0.592549	99
Es	0.598774	1.585881	-0.350359	99
Es	0.343174	3.070987	0.923276	99
Es	0.818941	-0.291698	-0.283660	99
Es	-0.999122	-0.329910	-0.320356	99
Es	-0.760802	-3.295699	-0.200036	99
Es	-0.338844	-0.058720	0.021928	99
Es	0.250343	0.161494	-0.309853	99
Es	-1.201074	-1.145780	-0.294647	99
Es	-0.005998	-2.562402	0.402050	99
Es	-0.322925	-0.075837	-0.654604	99
Es	-1.586840	0.112613	-0.348085	99
Es	-1.571435	-1.649699	-0.541667	99
Es	1.932903	1.858803	0.394549	99
Es	0.385394	1.929365	-0.964064	99
Es	-1.420029	-1.628836	-0.283594	99
Es	-1.014562	-1.974063	-0.266620	99
Es	0.344698	1.959949	0.299568	99
Es	0.024154	-2.611669	-0.819421	99
Es	-0.417788	-2.636768	-0.217725	99
Es	1.905905	2.334874	0.095731	99
Es	0.465589	2.023277	1.572176	99
Es	1.803404	2.085600	0.250961	99
Es	0.431312	0.865305	-0.330238	99
Es	0.580214	2.372040	0.936531	99
42
Properties=species:S:1:pos:R:3:Z:I:1 energy=-343.752198101644 field_type=dipole dipole="0.000000 0.000000 0.000000" charge=0
C	-0.417615	-2.636949	-0.217713	6
O	-1.420445	-1.628959	-0.283613	8
C	-0.998975	-0.329639	-0.320353	6
C	0.250285	0.161451	-0.309853	6
C	0.598505	1.585821	-0.350523	6
C	0.579945	2.372101	0.936697	6
O	1.803695	2.085661	0.250927	8
H	-0.918795	-3.609279	-0.190763	1
H	0.177045	-2.538059	0.696307	1
H	0.222345	-2.610929	-1.105423	1
H	-1.869035	0.317711	-0.361493	1
H	1.101165	-0.511649	-0.271363	1
H	0.273025	2.095001	-1.252643	1
H	0.401935	1.856311	1.871847	1
H	0.216925	3.391402	0.907957	1
Es	0.386356	1.928350	-0.962550	99
Es	-1.499657	-1.611050	-0.029386	99
Es	0.250345	0.161495	-0.309856	99
Es	1.401393	2.252699	0.593848	99
Es	-0.417794	-2.636767	-0.217725	99
Es	-0.999123	-0.329914	-0.320364	99
Es	-1.618138	-1.665214	-0.520931	99
Es	0.466090	2.024081	1.570978	99
Es	1.803299	2.085611	0.250950	99
Es	-0.338230	-0.059370	0.022632	99
Es	-1.015172	-1.972599	-0.277274	99
Es	1.910003	1.864220	0.391916	99
Es	-0.005965	-2.561942	0.401717	99
Es	0.598761	1.585874	-0.350355	99
Es	-0.323286	-0.075313	-0.655057	99
Es	-1.586686	0.112548	-0.347543	99
Es	-0.760976	-3.296142	-0.199908	99
Es	0.431135	0.865033	-0.330239	99
Es	0.580198	2.372038	0.936535	99
Es	0.341818	1.960279	0.299117	99
Es	0.343460	3.070264	0.924046	99
Es	0.024009	-2.611375	-0.819346	99
Es	0.818827	-0.291506	-0.284755	99
Es	1.404209	1.834875	-0.063382	99
Es	-1.201622	-1.144933	-0.302974	99
Es	1.928011	2.330709	0.098127	99
Es	-1.420038	-1.628848	-0.283670	99
42
Properties=species:S:1:pos:R:3:Z:I:1 energy=-343.752198101644 field_type=dipole dipole="0.000000 0.000000 0.000000" charge=0
C	-0.417615	-2.636949	-0.217713	6
O	-1.420445	-1.628959	-0.283613	8
C	-0.998975	-0.329639	-0.320353	6
C	0.250285	0.161451	-0.309853	6
C	0.598505	1.585821	-0.350523	6
C	0.579945	2.372101	0.936697	6
O	1.803695	2.085661	0.250927	8
H	-0.918795	-3.609279	-0.190763	1
H	0.177045	-2.538059	0.696307	1
H	0.222345	-2.610929	-1.105423	1
H	-1.869035	0.317711	-0.361493	1
H	1.101165	-0.511649	-0.271363	1
H	0.273025	2.095001	-1.252643	1
H	0.401935	1.856311	1.871847	1
H	0.216925	3.391402	0.907957	1
Es	-1.202811	-1.143410	-0.305603	99
Es	0.580217	2.372035	0.936522	99
Es	-1.586711	0.112468	-0.347143	99
Es	-0.323432	-0.075132	-0.655680	99
Es	0.024135	-2.611274	-0.819578	99
Es	-1.462602	-1.602749	-0.044395	99
Es	0.387011	1.927771	-0.961657	99
Es	1.404805	1.834361	-0.064643	99
Es	0.431256	0.864764	-0.330646	99
Es	0.250345	0.161495	-0.309854	99
Es	-0.761080	-3.296020	-0.199876	99
Es	-0.417788	-2.636767	-0.217726	99
Es	-0.999123	-0.329912	-0.320362	99
Es	-0.337927	-0.059697	0.023333	99
Es	-0.006153	-2.561832	0.401823	99
Es	0.340242	1.960857	0.298958	99
Es	1.803257	2.085246	0.251178	99
Es	0.818769	-0.291200	-0.285341	99
Es	0.466080	2.024315	1.570721	99
Es	-1.419994	-1.628744	-0.283554	99
Es	-1.015848	-1.971601	-0.285936	99
Es	1.947133	2.324134	0.102666	99
Es	1.890287	1.871153	0.386799	99
Es	-1.653480	-1.676109	-0.494773	99
Es	0.343835	3.069734	0.924302	99
Es	0.598765	1.585877	-0.350354	99
Es	1.402038	2.253341	0.595369	99
42
Properties=species:S:1:pos:R:3:Z:I:1 energy=-343.752198101644 field_type=dipole dipole="0.000000 0.000000 0.000000" charge=0
C	-0.417615	-2.636949	-0.217713	6
O	-1.420445	-1.628959	-0.283613	8
C	-0.998975	-0.329639	-0.320353	6
C	0.250285	0.161451	-0.309853	6
C	0.598505	1.585821	-0.350523	6
C	0.579945	2.372101	0.936697	6
O	1.803695	2.085661	0.250927	8
H	-0.918795	-3.609279	-0.190763	1
H	0.177045	-2.538059	0.696307	1
H	0.222345	-2.610929	-1.105423	1
H	-1.869035	0.317711	-0.361493	1
H	1.101165	-0.511649	-0.271363	1
H	0.273025	2.095001	-1.252643	1
H	0.401935	1.856311	1.871847	1
H	0.216925	3.391402	0.907957	1
Es	-1.203802	-1.142871	-0.305707	99
Es	0.466323	2.024669	1.570540	99
Es	-0.323189	-0.074812	-0.655970	99
Es	-1.669505	-1.680624	-0.479284	99
Es	-1.420019	-1.628860	-0.283726	99
Es	-0.417789	-2.636766	-0.217726	99
Es	1.869722	1.879752	0.381497	99
Es	-0.761129	-3.295906	-0.199950	99
Es	0.387121	1.927635	-0.961406	99
Es	0.580213	2.372034	0.936526	99
Es	0.598764	1.585872	-0.350354	99
Es	0.818779	-0.291121	-0.285483	99
Es	1.405042	1.834237	-0.065781	99
Es	0.250345	0.161493	-0.309848	99
Es	-0.999124	-0.329913	-0.320357	99
Es	0.024204	-2.611265	-0.819644	99
Es	0.431247	0.864701	-0.330492	99
Es	1.402332	2.254938	0.595237	99
Es	-0.006244	-2.561824	0.401981	99
Es	1.803305	2.085686	0.250887	99
Es	-1.445425	-1.599800	-0.054453	99
Es	-1.016049	-1.970460	-0.291243	99
Es	-0.338127	-0.060003	0.023490	99
Es	1.967396	2.313709	0.109488	99
Es	0.339481	1.960748	0.298977	99
Es	0.344015	3.069425	0.924413	99
Es	-1.586664	0.112431	-0.347061	99
42
Properties=species:S:1:pos:R:3:Z:I:1 energy=-343.752198101644 field_type=dipole dipole="0.000000 0.000000 0.000000" charge=0
C	-0.417615	-2.636949	-0.217713	6
O	-1.420445	-1.628959	-0.283613	8
C	-0.998975	-0.329639	-0.320353	6
C	0.250285	0.161451	-0.309853	6
C	0.598505	1.585821	-0.350523	6
C	0.579945	2.372101	0.936697	6
O	1.803695	2.085661	0.250927	8
H	-0.918795	-3.609279	-0.190763	1
H	0.177045	-2.538059	0.696307	1
H	0.222345	-2.610929	-1.105423	1
H	-1.869035	0.317711	-0.361493	1
H	1.101165	-0.511649	-0.271363	1
H	0.273025	2.095001	-1.252643	1
H	0.401935	1.856311	1.871847	1
H	0.216925	3.391402	0.907957	1
Es	0.580216	2.372037	0.936526	99
Es	0.431342	0.864495	-0.330657	99
Es	-1.016771	-1.969506	-0.295342	99
Es	-0.417790	-2.636766	-0.217724	99
Es	0.598760	1.585875	-0.350356	99
Es	-1.435035	-1.599429	-0.063222	99
Es	1.803494	2.085634	0.250936	99
Es	-0.999122	-0.329907	-0.320356	99
Es	0.818805	-0.291016	-0.285641	99
Es	-0.006291	-2.561754	0.402110	99
Es	1.862065	1.884400	0.378364	99
Es	1.402994	2.255178	0.595763	99
Es	-0.337834	-0.059898	0.023893	99
Es	-1.586644	0.112341	-0.346973	99
Es	-1.679052	-1.682751	-0.468837	99
Es	0.387555	1.927290	-0.961079	99
Es	1.974621	2.309407	0.112181	99
Es	1.404812	1.833821	-0.065768	99
Es	-0.323475	-0.074816	-0.656295	99
Es	0.024214	-2.611216	-0.819694	99
Es	-1.419998	-1.628849	-0.283797	99
Es	0.344238	3.069145	0.924643	99
Es	-0.761141	-3.295838	-0.200030	99
Es	-1.204041	-1.142066	-0.303331	99
Es	0.466324	2.024694	1.570362	99
Es	0.338634	1.961106	0.298729	99
Es	0.250345	0.161495	-0.309854	99
42
Properties=species:S:1:pos:R:3:Z:I:1 energy=-343.752198101644 field_type=dipole dipole="0.000000 0.000000 0.000000" charge=0
C	-0.417615	-2.636949	-0.217713	6
O	-1.420445	-1.628959	-0.283613	8
C	-0.998975	-0.329639	-0.320353	6
C	0.250285	0.161451	-0.309853	6
C	0.598505	1.585821	-0.350523	6
C	0.579945	2.372101	0.936697	6
O	1.803695	2.085661	0.250927	8
H	-0.918795	-3.609279	-0.190763	1
H	0.177045	-2.538059	0.696307	1
H	0.222345	-2.610929	-1.105423	1
H	-1.869035	0.317711	-0.361493	1
H	1.101165	-0.511649	-0.271363	1
H	0.273025	2.095001	-1.252643	1
H	0.401935	1.856311	1.871847	1
H	0.216925	3.391402	0.907957	1
Es	0.818754	-0.290988	-0.285554	99
Es	1.405360	1.832552	-0.065561	99
Es	-0.323661	-0.074899	-0.656470	99
Es	-0.006235	-2.561702	0.402082	99
Es	-1.586615	0.112320	-0.347023	99
Es	0.431385	0.864481	-0.330515	99
Es	1.803274	2.085723	0.250877	99
Es	1.403070	2.256008	0.595870	99
Es	-1.681827	-1.684447	-0.465572	99
Es	0.024132	-2.611248	-0.819714	99
Es	0.338148	1.960983	0.298664	99
Es	-0.761179	-3.295833	-0.200003	99
Es	-1.204746	-1.142014	-0.304163	99
Es	0.344347	3.068972	0.924731	99
Es	-0.337627	-0.059793	0.023932	99
Es	1.852161	1.891739	0.374236	99
Es	-1.419960	-1.628916	-0.283678	99
Es	0.466483	2.024927	1.570167	99
Es	0.598769	1.585875	-0.350351	99
Es	-0.417789	-2.636768	-0.217726	99
Es	0.580209	2.372039	0.936529	99
Es	0.250345	0.161495	-0.309853	99
Es	-1.016167	-1.969163	-0.294988	99
Es	-1.432221	-1.598011	-0.066175	99
Es	-0.999125	-0.329914	-0.320358	99
Es	0.387599	1.927163	-0.960917	99
Es	1.984343	2.302520	0.116086	99
42
Properties=species:S:1:pos:R:3:Z:I:1 energy=-343.752198101644 field_type=dipole dipole="0.000000 0.000000 0.000000" charge=0
C	-0.417615	-2.636949	-0.217713	6
O	-1.420445	-1.628959	-0.283613	8
C	-0.998975	-0.329639	-0.320353	6
C	0.250285	0.161451	-0.309853	6
C	0.598505	1.585821	-0.350523	6
C	0.579945	2.372101	0.936697	6
O	1.803695	2.085661	0.250927	8
H	-0.918795	-3.609279	-0.190763	1
H	0.177045	-2.538059	0.696307	1
H	0.222345	-2.610929	-1.105423	1
H	-1.869035	0.317711	-0.361493	1
H	1.101165	-0.511649	-0.271363	1
H	0.273025	2.095001	-1.252643	1
H	0.401935	1.856311	1.871847	1
H	0.216925	3.391402	0.907957	1
Es	1.405915	1.832211	-0.066132	99
Es	-0.417788	-2.636769	-0.217725	99
Es	1.989598	2.298715	0.119268	99
Es	-0.323318	-0.074798	-0.656845	99
Es	0.818801	-0.290775	-0.285420	99
Es	-0.761205	-3.295808	-0.200105	99
Es	0.431264	0.864465	-0.330378	99
Es	1.846520	1.896395	0.371011	99
Es	1.803287	2.085608	0.250950	99
Es	0.344424	3.068809	0.924818	99
Es	0.250345	0.161495	-0.309855	99
Es	0.598765	1.585875	-0.350354	99
Es	0.024088	-2.611204	-0.819702	99
Es	-1.204673	-1.141569	-0.303720	99
Es	-0.999123	-0.329916	-0.320365	99
Es	0.580208	2.372036	0.936525	99
Es	-0.337876	-0.060057	0.023959	99
Es	-1.016652	-1.969035	-0.296458	99
Es	0.387734	1.927011	-0.960818	99
Es	0.337680	1.960978	0.298624	99
Es	-1.686066	-1.685679	-0.459996	99
Es	-1.419995	-1.628815	-0.283801	99
Es	-1.586610	0.112300	-0.346903	99
Es	0.466635	2.025100	1.570032	99
Es	1.403040	2.255670	0.596429	99
Es	-1.427551	-1.597471	-0.070678	99
Es	-0.006219	-2.561667	0.402190	99
42
Properties=species:S:1:pos:R:3:Z:I:1 energy=-343.752198101644 field_type=dipole dipole="0.000000 0.000000 0.000000" charge=0
C	-0.417615	-2.636949	-0.217713	6
O	-1.420445	-1.628959	-0.283613	8
C	-0.998975	-0.329639	-0.320353	6
C	0.250285	0.161451	-0.309853	6
C	0.598505	1.585821	-0.350523	6
C	0.579945	2.372101	0.936697	6
O	1.803695	2.085661	0.250927	8
H	-0.918795	-3.609279	-0.190763	1
H	0.177045	-2.538059	0.696307	1
H	0.222345	-2.610929	-1.105423	1
H	-1.869035	0.317711	-0.361493	1
H	1.101165	-0.511649	-0.271363	1
H	0.273025	2.095001	-1.252643	1
H	0.401935	1.856311	1.871847	1
H	0.216925	3.391402	0.907957	1
Es	1.997147	2.292520	0.123626	99
Es	0.431283	0.864305	-0.330402	99
Es	0.337730	1.961047	0.298573	99
Es	0.250345	0.161495	-0.309857	99
Es	0.598769	1.585887	-0.350358	99
Es	0.024044	-2.611238	-0.819750	99
Es	0.344457	3.068829	0.924811	99
Es	-1.425124	-1.595493	-0.074066	99
Es	-0.999122	-0.329908	-0.320355	99
Es	-1.420016	-1.628891	-0.283669	99
Es	1.803317	2.085727	0.250870	99
Es	0.580214	2.372041	0.936528	99
Es	-1.688637	-1.687601	-0.456687	99
Es	-0.006179	-2.561669	0.402247	99
Es	-1.204607	-1.141520	-0.305237	99
Es	-1.016499	-1.969073	-0.295014	99
Es	-0.323466	-0.074769	-0.656866	99
Es	-1.586605	0.112257	-0.346949	99
Es	0.818780	-0.290824	-0.285478	99
Es	-0.761257	-3.295745	-0.200127	99
Es	1.402914	2.255817	0.596579	99
Es	1.838726	1.902526	0.367042	99
Es	0.387799	1.927016	-0.960765	99
Es	1.406140	1.831968	-0.066555	99
Es	-0.417788	-2.636766	-0.217727	99
Es	0.466635	2.025107	1.570069	99
Es	-0.337774	-0.059941	0.024066	99
42
Properties=species:S:1:pos:R:3:Z:I:1 energy=-343.752198101644 field_type=dipole dipole="0.000000 0.000000 0.000000" charge=0
C	-0.417615	-2.636949	-0.217713	6
O	-1.420445	-1.628959	-0.283613	8
C	-0.998975	-0.329639	-0.320353	6
C	0.250285	0.161451	-0.309853	6
C	0.598505	1.585821	-0.350523	6
C	0.579945	2.372101	0.936697	6
O	1.803695	2.085661	0.250927	8
H	-0.918795	-3.609279	-0.190763	1
H	0.177045	-2.538059	0.696307	1
H	0.222345	-2.610929	-1.105423	1
H	-1.869035	0.317711	-0.361493	1
H	1.101165	-0.511649	-0.271363	1
H	0.273025	2.095001	-1.252643	1
H	0.401935	1.856311	1.871847	1
H	0.216925	3.391402	0.907957	1
Es	0.250344	0.161495	-0.309854	99
Es	0.818722	-0.290742	-0.285552	99
Es	-1.204778	-1.140614	-0.299244	99
Es	-0.323472	-0.074854	-0.656933	99
Es	-1.586579	0.112276	-0.346906	99
Es	1.405486	1.832493	-0.066310	99
Es	-1.422873	-1.598386	-0.078584	99
Es	0.580209	2.372037	0.936526	99
Es	-0.999122	-0.329908	-0.320359	99
Es	-1.420028	-1.628805	-0.283443	99
Es	1.999751	2.290697	0.124891	99
Es	-0.337739	-0.059939	0.024218	99
Es	-0.417785	-2.636771	-0.217725	99
Es	0.387764	1.926981	-0.960816	99
Es	0.337653	1.961180	0.298419	99
Es	-1.690253	-1.686350	-0.454948	99
Es	0.598762	1.585873	-0.350354	99
Es	-0.006242	-2.561633	0.402184	99
Es	-1.016986	-1.968405	-0.298423	99
Es	-0.761286	-3.295742	-0.200016	99
Es	0.024102	-2.611261	-0.819801	99
Es	1.836167	1.904480	0.365327	99
Es	0.466479	2.025063	1.570311	99
Es	0.344590	3.068602	0.924686	99
Es	0.431341	0.864364	-0.330393	99
Es	1.803424	2.085613	0.250965	99
Es	1.403574	2.255360	0.596685	99
42
Properties=species:S:1:pos:R:3:Z:I:1 energy=-343.752198101644 field_type=dipole dipole="0.000000 0.000000 0.000000" charge=0
C	-0.417615	-2.636949	-0.217713	6
O	-1.420445	-1.628959	-0.283613	8
C	-0.998975	-0.329639	-0.320353	6
C	0.250285	0.161451	-0.309853	6
C	0.598505	1.585821	-0.350523	6
C	0.579945	2.372101	0.936697	6
O	1.803695	2.085661	0.250927	8
H	-0.918795	-3.609279	-0.190763	1
H	0.177045	-2.538059	0.696307	1
H	0.222345	-2.610929	-1.105423	1
H	-1.869035	0.317711	-0.361493	1
H	1.101165	-0.511649	-0.271363	1
H	0.273025	2.095001	-1.252643	1
H	0.401935	1.856311	1.871847	1
H	0.216925	3.391402	0.907957	1
Es	1.852855	1.889882	0.373032	99
Es	-0.761296	-3.295091	-0.201614	99
Es	-1.727217	-1.707602	-0.216032	99
Es	0.598765	1.585873	-0.350357	99
Es	-1.585633	0.111286	-0.349105	99
Es	1.400892	1.836233	-0.068762	99
Es	-1.419990	-1.628656	-0.283278	99
Es	0.580216	2.372034	0.936524	99
Es	0.346083	3.067426	0.924610	99
Es	0.817583	-0.289329	-0.281209	99
Es	-0.337567	-0.058309	0.023849	99
Es	1.407285	2.255808	0.598083	99
Es	-0.323150	-0.076898	-0.660362	99
Es	-0.999122	-0.329910	-0.320363	99
Es	-1.019655	-1.978839	-0.265504	99
Es	-0.417787	-2.636769	-0.217726	99
Es	1.982681	2.301971	0.120748	99
Es	1.803273	2.085650	0.250907	99
Es	0.386314	1.928367	-0.963212	99
Es	0.250344	0.161494	-0.309847	99
Es	-1.373653	-1.544323	-0.456180	99
Es	-0.004082	-2.561569	0.403568	99
Es	0.467222	2.026157	1.571076	99
Es	-1.214739	-1.163167	-0.195156	99
Es	0.337788	1.958718	0.296947	99
Es	0.021721	-2.611622	-0.819289	99
Es	0.432092	0.864286	-0.326801	99
42
Properties=species:S:1:pos:R:3:Z:I:1 energy=-343.752198101644 field_type=dipole dipole="0.000000 0.000000 0.000000" charge=0
C	-0.417615	-2.636949	-0.217713	6
O	-1.420445	-1.628959	-0.283613	8
C	-0.998975	-0.329639	-0.320353	6
C	0.250285	0.161451	-0.309853	6
C	0.598505	1.585821	-0.350523	6
C	0.579945	2.372101	0.936697	6
O	1.803695	2.085661	0.250927	8
H	-0.918795	-3.609279	-0.190763	1
H	0.177045	-2.538059	0.696307	1
H	0.222345	-2.610929	-1.105423	1
H	-1.869035	0.317711	-0.361493	1
H	1.101165	-0.511649	-0.271363	1
H	0.273025	2.095001	-1.252643	1
H	0.401935	1.856311	1.871847	1
H	0.216925	3.391402	0.907957	1
Es	-1.204912	-1.140823	-0.300910	99
Es	-0.323419	-0.074898	-0.657006	99
Es	0.024029	-2.611204	-0.819776	99
Es	0.580216	2.372034	0.936525	99
Es	1.403488	2.255195	0.596884	99
Es	-0.006201	-2.561563	0.402216	99
Es	0.387773	1.927016	-0.960692	99
Es	0.431372	0.864380	-0.330445	99
Es	-1.016821	-1.968807	-0.298117	99
Es	0.344613	3.068480	0.924635	99
Es	0.598769	1.585875	-0.350353	99
Es	0.250346	0.161494	-0.309857	99
Es	1.405998	1.831604	-0.066483	99
Es	-1.586533	0.112249	-0.346929	99
Es	0.337584	1.961048	0.298315	99
Es	0.466514	2.025201	1.570265	99
Es	2.007948	2.283258	0.130436	99
Es	1.827955	1.913200	0.359868	99
Es	-0.999123	-0.329912	-0.320358	99
Es	-1.691932	-1.687188	-0.452266	99
Es	0.818602	-0.290690	-0.285437	99
Es	-0.337755	-0.059979	0.024207	99
Es	1.803049	2.085539	0.251012	99
Es	-1.419991	-1.628793	-0.283805	99
Es	-1.421235	-1.597062	-0.079582	99
Es	-0.761320	-3.295784	-0.200071	99
Es	-0.417787	-2.636769	-0.217725	99
42
Properties=species:S:1:pos:R:3:Z:I:1 energy=-343.752198101644 field_type=dipole dipole="0.000000 0.000000 0.000000" charge=0
C	-0.417615	-2.636949	-0.217713	6
O	-1.420445	-1.628959	-0.283613	8
C	-0.998975	-0.329639	-0.320353	6
C	0.250285	0.161451	-0.309853	6
C	0.598505	1.585821	-0.350523	6
C	0.579945	2.372101	0.936697	6
O	1.803695	2.085661	0.250927	8
H	-0.918795	-3.609279	-0.190763	1
H	0.177045	-2.538059	0.696307	1
H	0.222345	-2.610929	-1.105423	1
H	-1.869035	0.317711	-0.361493	1
H	1.101165	-0.511649	-0.271363	1
H	0.273025	2.095001	-1.252643	1
H	0.401935	1.856311	1.871847	1
H	0.216925	3.391402	0.907957	1
Es	1.403990	2.256135	0.596802	99
Es	1.405611	1.830951	-0.065913	99
Es	-0.999123	-0.329913	-0.320362	99
Es	-0.006362	-2.561557	0.402160	99
Es	0.024170	-2.611106	-0.819800	99
Es	1.803175	2.085930	0.250749	99
Es	-1.204783	-1.140569	-0.299449	99
Es	-1.420029	-1.628869	-0.283645	99
Es	-0.337635	-0.059904	0.024617	99
Es	0.337386	1.961174	0.298222	99
Es	-1.420491	-1.597209	-0.081848	99
Es	0.466532	2.025208	1.570169	99
Es	0.580218	2.372035	0.936525	99
Es	0.250345	0.161495	-0.309854	99
Es	0.598770	1.585870	-0.350355	99
Es	0.430987	0.864238	-0.330669	99
Es	-1.586491	0.112094	-0.346917	99
Es	-0.323533	-0.074916	-0.657120	99
Es	-1.016944	-1.968362	-0.297862	99
Es	2.008569	2.282192	0.130041	99
Es	0.387883	1.926980	-0.960465	99
Es	-1.692729	-1.687623	-0.451859	99
Es	0.818873	-0.290505	-0.285652	99
Es	-0.417786	-2.636770	-0.217725	99
Es	1.827178	1.913573	0.360028	99
Es	0.344725	3.068355	0.924758	99
Es	-0.761280	-3.295825	-0.200026	99
42
Properties=species:S:1:pos:R:3:Z:I:1 energy=-343.752198101644 field_type=dipole dipole="0.000000 0.000000 0.000000" charge=0
C	-0.417615	-2.636949	-0.217713	6
O	-1.420445	-1.628959	-0.283613	8
C	-0.998975	-0.329639	-0.320353	6
C	0.250285	0.161451	-0.309853	6
C	0.598505	1.585821	-0.350523	6
C	0.579945	2.372101	0.936697	6
O	1.803695	2.085661	0.250927	8
H	-0.918795	-3.609279	-0.190763	1
H	0.177045	-2.538059	0.696307	1
H	0.222345	-2.610929	-1.105423	1
H	-1.869035	0.317711	-0.361493	1
H	1.101165	-0.511649	-0.271363	1
H	0.273025	2.095001	-1.252643	1
H	0.401935	1.856311	1.871847	1
H	0.216925	3.391402	0.907957	1
Es	0.818479	-0.290576	-0.285487	99
Es	-0.337593	-0.059892	0.024510	99
Es	0.337512	1.961019	0.298317	99
Es	-0.323552	-0.075010	-0.657203	99
Es	0.598763	1.585875	-0.350354	99
Es	-0.417787	-2.636769	-0.217725	99
Es	0.023960	-2.611205	-0.819803	99
Es	0.580208	2.372035	0.936528	99
Es	0.466547	2.025237	1.570201	99
Es	0.387804	1.927049	-0.960663	99
Es	-1.419927	-1.628839	-0.283918	99
Es	1.404036	2.255267	0.597436	99
Es	1.803436	2.085628	0.250959	99
Es	-1.695453	-1.688117	-0.446989	99
Es	0.431433	0.864373	-0.330503	99
Es	1.824549	1.915478	0.357825	99
Es	-0.999123	-0.329912	-0.320358	99
Es	2.011108	2.279776	0.132333	99
Es	-1.417183	-1.597208	-0.083654	99
Es	-1.586451	0.112133	-0.346970	99
Es	-1.205062	-1.140441	-0.299857	99
Es	1.405305	1.832625	-0.066777	99
Es	-0.006153	-2.561537	0.402236	99
Es	0.250344	0.161494	-0.309852	99
Es	0.344679	3.068436	0.924689	99
Es	-0.761370	-3.295757	-0.200085	99
Es	-1.017283	-1.968058	-0.300287	99
42
Properties=species:S:1:pos:R:3:Z:I:1 energy=-343.752198101644 field_type=dipole dipole="0.000000 0.000000 0.000000" charge=0
C	-0.417615	-2.636949	-0.217713	6
O	-1.420445	-1.628959	-0.283613	8
C	-0.998975	-0.329639	-0.320353	6
C	0.250285	0.161451	-0.309853	6
C	0.598505	1.585821	-0.350523	6
C	0.579945	2.372101	0.936697	6
O	1.803695	2.085661	0.250927	8
H	-0.918795	-3.609279	-0.190763	1
H	0.177045	-2.538059	0.696307	1
H	0.222345	-2.610929	-1.105423	1
H	-1.869035	0.317711	-0.361493	1
H	1.101165	-0.511649	-0.271363	1
H	0.273025	2.095001	-1.252643	1
H	0.401935	1.856311	1.871847	1
H	0.216925	3.391402	0.907957	1
Es	0.598767	1.585875	-0.350354	99
Es	-0.006259	-2.561613	0.402378	99
Es	1.803308	2.085706	0.250889	99
Es	1.824572	1.915806	0.358621	99
Es	-0.761430	-3.295733	-0.200328	99
Es	0.818412	-0.290610	-0.285472	99
Es	0.250345	0.161495	-0.309854	99
Es	0.431485	0.864305	-0.330522	99
Es	-1.419999	-1.628870	-0.283791	99
Es	-0.337733	-0.059953	0.024542	99
Es	0.024026	-2.611070	-0.819736	99
Es	1.405679	1.831271	-0.066070	99
Es	0.580218	2.372034	0.936524	99
Es	-1.695404	-1.688135	-0.447525	99
Es	-1.205406	-1.140447	-0.298980	99
Es	0.337161	1.961123	0.298328	99
Es	2.011228	2.279977	0.131904	99
Es	-1.016936	-1.967537	-0.300634	99
Es	-0.999121	-0.329909	-0.320364	99
Es	0.387824	1.927012	-0.960452	99
Es	-1.417119	-1.597694	-0.083781	99
Es	-0.323428	-0.074838	-0.657397	99
Es	0.344885	3.068188	0.924618	99
Es	0.466566	2.025404	1.570337	99
Es	-1.586444	0.112101	-0.346850	99
Es	1.403817	2.255986	0.596245	99
Es	-0.417787	-2.636768	-0.217726	99
42
Properties=species:S:1:pos:R:3:Z:I:1 energy=-343.752198101644 field_type=dipole dipole="0.000000 0.000000 0.000000" charge=0
C	-0.417615	-2.636949	-0.217713	6
O	-1.420445	-1.628959	-0.283613	8
C	-0.998975	-0.329639	-0.320353	6
C	0.250285	0.161451	-0.309853	6
C	0.598505	1.585821	-0.350523	6
C	0.579945	2.372101	0.936697	6
O	1.803695	2.085661	0.250927	8
H	-0.918795	-3.609279	-0.190763	1
H	0.177045	-2.538059	0.696307	1
H	0.222345	-2.610929	-1.105423	1
H	-1.869035	0.317711	-0.361493	1
H	1.101165	-0.511649	-0.271363	1
H	0.273025	2.095001	-1.252643	1
H	0.401935	1.856311	1.871847	1
H	0.216925	3.391402	0.907957	1
Es	-0.417786	-2.636770	-0.217726	99
Es	0.387857	1.927016	-0.960661	99
Es	-1.697843	-1.689397	-0.443436	99
Es	-1.586372	0.112059	-0.346926	99
Es	0.598767	1.585874	-0.350354	99
Es	-1.420029	-1.628784	-0.283683	99
Es	1.404098	2.255947	0.597345	99
Es	-1.017118	-1.967979	-0.300128	99
Es	0.431440	0.864255	-0.330330	99
Es	-0.337641	-0.059948	0.024653	99
Es	-0.323487	-0.074942	-0.657670	99
Es	-1.414612	-1.596040	-0.086651	99
Es	-1.205308	-1.140439	-0.300843	99
Es	-0.761450	-3.295691	-0.200259	99
Es	-0.006195	-2.561612	0.402367	99
Es	0.466594	2.025219	1.570243	99
Es	0.344832	3.068267	0.924809	99
Es	1.822113	1.918799	0.356347	99
Es	0.023990	-2.611149	-0.819785	99
Es	2.013143	2.277337	0.133440	99
Es	0.337235	1.961146	0.298215	99
Es	1.803354	2.085699	0.250883	99
Es	0.818458	-0.290411	-0.285363	99
Es	1.405744	1.831029	-0.066253	99
Es	0.580218	2.372034	0.936525	99
Es	0.250345	0.161495	-0.309852	99
Es	-0.999122	-0.329908	-0.320357	99
