41
Properties=species:S:1:pos:R:3:Z:I:1 energy=-306.72588435944067 field_type=dipole dipole="0.000000 0.000000 0.000000" charge=0
C	-0.399441	-2.014871	-0.984529	6
O	-0.532811	-1.174211	0.154271	8
C	-0.021161	0.145259	-0.064149	6
C	-0.527041	0.983459	1.075981	6
C	-1.265521	2.096019	0.951431	6
C	1.422839	0.145259	-0.064149	6
C	2.612999	0.145259	-0.064149	6
H	-0.909981	-2.958511	-0.773519	1
H	0.653539	-2.235361	-1.183759	1
H	-0.863271	-1.559421	-1.864719	1
H	-0.413801	0.532419	-1.012659	1
H	-0.279091	0.628209	2.074311	1
H	-1.553411	2.486749	-0.019189	1
H	-1.602281	2.635619	1.831171	1
H	3.678439	0.144129	-0.056349	1
Es	0.319966	-2.160501	-1.128081	99
Es	1.422582	0.145267	-0.064153	99
Es	-1.461849	2.364386	0.293929	99
Es	-0.257167	0.568577	0.498448	99
Es	-1.169915	1.366521	1.009976	99
Es	-1.495328	2.465974	1.541355	99
Es	-0.461180	-1.463809	-0.296341	99
Es	-0.832299	-1.127065	0.184680	99
Es	2.026156	0.084539	0.289178	99
Es	-0.747363	-2.654293	-0.841172	99
Es	-0.621158	1.722825	0.996786	99
Es	-0.526968	0.983358	1.075936	99
Es	-0.311102	-0.676911	0.036035	99
Es	2.014022	0.481727	-0.189333	99
Es	-0.351825	0.736613	1.742246	99
Es	-0.362113	-1.295478	0.377797	99
Es	0.732293	0.144975	-0.068280	99
Es	-0.399470	-2.014724	-0.984347	99
Es	3.308173	0.144719	-0.060083	99
Es	2.613263	0.145262	-0.064143	99
Es	-1.265561	2.096100	0.951414	99
Es	-0.021112	0.145063	-0.064073	99
Es	2.022384	-0.129315	-0.296686	99
Es	-0.270083	0.408819	-0.710069	99
Es	-0.532742	-1.174067	0.153903	99
Es	-0.713754	-1.694819	-1.592058	99
41
Properties=species:S:1:pos:R:3:Z:I:1 energy=-306.72588435944067 field_type=dipole dipole="0.000000 0.000000 0.000000" charge=0
C	-0.399441	-2.014871	-0.984529	6
O	-0.532811	-1.174211	0.154271	8
C	-0.021161	0.145259	-0.064149	6
C	-0.527041	0.983459	1.075981	6
C	-1.265521	2.096019	0.951431	6
C	1.422839	0.145259	-0.064149	6
C	2.612999	0.145259	-0.064149	6
H	-0.909981	-2.958511	-0.773519	1
H	0.653539	-2.235361	-1.183759	1
H	-0.863271	-1.559421	-1.864719	1
H	-0.413801	0.532419	-1.012659	1
H	-0.279091	0.628209	2.074311	1
H	-1.553411	2.486749	-0.019189	1
H	-1.602281	2.635619	1.831171	1
H	3.678439	0.144129	-0.056349	1
Es	-1.464567	2.362450	0.295861	99
Es	2.613271	0.145262	-0.064137	99
Es	-1.265570	2.096099	0.951418	99
Es	-0.309656	-0.680056	0.034323	99
Es	-0.454157	-1.461524	-0.291301	99
Es	2.024714	0.043189	0.267001	99
Es	-1.498208	2.464101	1.539682	99
Es	-0.349461	0.738462	1.739965	99
Es	-0.532713	-1.174162	0.154146	99
Es	-1.173562	1.364292	1.010633	99
Es	0.733675	0.148190	-0.068955	99
Es	-0.616637	1.725881	0.996912	99
Es	0.322304	-2.161511	-1.128780	99
Es	-0.255947	0.568821	0.498078	99
Es	-0.526957	0.983363	1.075941	99
Es	1.422572	0.145255	-0.064152	99
Es	-0.271158	0.408512	-0.707951	99
Es	2.014138	0.498338	-0.146063	99
Es	3.309589	0.141280	-0.059468	99
Es	-0.399470	-2.014728	-0.984351	99
Es	-0.021113	0.145061	-0.064071	99
Es	2.023596	-0.103711	-0.318184	99
Es	-0.748099	-2.652221	-0.841027	99
Es	-0.714969	-1.695524	-1.590737	99
Es	-0.847909	-1.130757	0.191700	99
Es	-0.355853	-1.290619	0.366382	99
41
Properties=species:S:1:pos:R:3:Z:I:1 energy=-306.72588435944067 field_type=dipole dipole="0.000000 0.000000 0.000000" charge=0
C	-0.399441	-2.014871	-0.984529	6
O	-0.532811	-1.174211	0.154271	8
C	-0.021161	0.145259	-0.064149	6
C	-0.527041	0.983459	1.075981	6
C	-1.265521	2.096019	0.951431	6
C	1.422839	0.145259	-0.064149	6
C	2.612999	0.145259	-0.064149	6
H	-0.909981	-2.958511	-0.773519	1
H	0.653539	-2.235361	-1.183759	1
H	-0.863271	-1.559421	-1.864719	1
H	-0.413801	0.532419	-1.012659	1
H	-0.279091	0.628209	2.074311	1
H	-1.553411	2.486749	-0.019189	1
H	-1.602281	2.635619	1.831171	1
H	3.678439	0.144129	-0.056349	1
Es	2.022660	-0.111762	-0.307877	99
Es	1.422575	0.145262	-0.064150	99
Es	2.613271	0.145256	-0.064141	99
Es	0.323448	-2.162399	-1.128874	99
Es	-0.526959	0.983362	1.075941	99
Es	-0.715613	-1.695830	-1.590171	99
Es	2.025118	0.049914	0.258316	99
Es	-1.175353	1.362838	1.011147	99
Es	0.734465	0.150296	-0.069310	99
Es	-0.348373	0.739902	1.738577	99
Es	-0.532691	-1.174099	0.153957	99
Es	-0.255316	0.568836	0.497935	99
Es	2.014720	0.500258	-0.148072	99
Es	-0.021111	0.145068	-0.064069	99
Es	-0.614355	1.727875	0.996698	99
Es	-0.399470	-2.014722	-0.984348	99
Es	-0.450755	-1.458672	-0.287894	99
Es	-1.499580	2.462946	1.538621	99
Es	-0.353377	-1.289825	0.363889	99
Es	-1.265570	2.096099	0.951414	99
Es	-0.271514	0.408194	-0.706790	99
Es	3.310016	0.138913	-0.058870	99
Es	-0.748425	-2.650713	-0.840914	99
Es	-1.466065	2.361178	0.297091	99
Es	-0.309374	-0.681818	0.033357	99
Es	-0.854523	-1.132612	0.191405	99
41
Properties=species:S:1:pos:R:3:Z:I:1 energy=-306.72588435944067 field_type=dipole dipole="0.000000 0.000000 0.000000" charge=0
C	-0.399441	-2.014871	-0.984529	6
O	-0.532811	-1.174211	0.154271	8
C	-0.021161	0.145259	-0.064149	6
C	-0.527041	0.983459	1.075981	6
C	-1.265521	2.096019	0.951431	6
C	1.422839	0.145259	-0.064149	6
C	2.612999	0.145259	-0.064149	6
H	-0.909981	-2.958511	-0.773519	1
H	0.653539	-2.235361	-1.183759	1
H	-0.863271	-1.559421	-1.864719	1
H	-0.413801	0.532419	-1.012659	1
H	-0.279091	0.628209	2.074311	1
H	-1.553411	2.486749	-0.019189	1
H	-1.602281	2.635619	1.831171	1
H	3.678439	0.144129	-0.056349	1
Es	-0.748416	-2.649550	-0.840796	99
Es	-0.271754	0.408032	-0.706113	99
Es	-0.532716	-1.174139	0.154069	99
Es	-1.500710	2.462250	1.538120	99
Es	2.027860	0.103563	0.252075	99
Es	-1.175961	1.362229	1.011394	99
Es	2.613273	0.145251	-0.064145	99
Es	-1.265569	2.096099	0.951415	99
Es	0.324106	-2.163081	-1.128809	99
Es	2.018919	-0.154613	-0.262092	99
Es	-0.021112	0.145064	-0.064071	99
Es	-0.349948	-1.290135	0.363157	99
Es	-0.716186	-1.696024	-1.589932	99
Es	0.735071	0.152181	-0.069264	99
Es	-0.399468	-2.014724	-0.984348	99
Es	-0.526960	0.983358	1.075940	99
Es	3.310135	0.137497	-0.058627	99
Es	2.015763	0.489133	-0.187919	99
Es	-0.254681	0.568702	0.497794	99
Es	-0.859317	-1.131835	0.190243	99
Es	1.422569	0.145267	-0.064154	99
Es	-0.308946	-0.685024	0.031812	99
Es	-0.613440	1.728844	0.996709	99
Es	-1.466825	2.360113	0.297691	99
Es	-0.449975	-1.455747	-0.284994	99
Es	-0.347863	0.741033	1.737711	99
41
Properties=species:S:1:pos:R:3:Z:I:1 energy=-306.72588435944067 field_type=dipole dipole="0.000000 0.000000 0.000000" charge=0
C	-0.399441	-2.014871	-0.984529	6
O	-0.532811	-1.174211	0.154271	8
C	-0.021161	0.145259	-0.064149	6
C	-0.527041	0.983459	1.075981	6
C	-1.265521	2.096019	0.951431	6
C	1.422839	0.145259	-0.064149	6
C	2.612999	0.145259	-0.064149	6
H	-0.909981	-2.958511	-0.773519	1
H	0.653539	-2.235361	-1.183759	1
H	-0.863271	-1.559421	-1.864719	1
H	-0.413801	0.532419	-1.012659	1
H	-0.279091	0.628209	2.074311	1
H	-1.553411	2.486749	-0.019189	1
H	-1.602281	2.635619	1.831171	1
H	3.678439	0.144129	-0.056349	1
Es	-1.265574	2.096096	0.951415	99
Es	-1.467567	2.359723	0.298218	99
Es	-0.021111	0.145064	-0.064071	99
Es	-0.308252	-0.686786	0.031538	99
Es	-0.532593	-1.174197	0.153922	99
Es	0.324586	-2.163592	-1.128687	99
Es	3.310187	0.136282	-0.058371	99
Es	-0.612720	1.729701	0.996662	99
Es	-1.176573	1.361549	1.011520	99
Es	-0.347471	0.741848	1.737073	99
Es	2.027869	0.095006	0.240560	99
Es	-0.862318	-1.131446	0.185092	99
Es	2.019045	-0.152210	-0.264336	99
Es	-0.399470	-2.014729	-0.984351	99
Es	-0.446221	-1.455260	-0.281893	99
Es	1.422567	0.145270	-0.064152	99
Es	2.613273	0.145255	-0.064138	99
Es	-0.351681	-1.289293	0.365247	99
Es	-0.272005	0.408026	-0.705575	99
Es	-0.254056	0.568637	0.497849	99
Es	2.015675	0.495483	-0.174276	99
Es	-1.501200	2.461372	1.537679	99
Es	-0.526957	0.983364	1.075941	99
Es	-0.748337	-2.648618	-0.840684	99
Es	-0.716667	-1.696106	-1.589772	99
Es	0.735420	0.153305	-0.069543	99
41
Properties=species:S:1:pos:R:3:Z:I:1 energy=-306.72588435944067 field_type=dipole dipole="0.000000 0.000000 0.000000" charge=0
C	-0.399441	-2.014871	-0.984529	6
O	-0.532811	-1.174211	0.154271	8
C	-0.021161	0.145259	-0.064149	6
C	-0.527041	0.983459	1.075981	6
C	-1.265521	2.096019	0.951431	6
C	1.422839	0.145259	-0.064149	6
C	2.612999	0.145259	-0.064149	6
H	-0.909981	-2.958511	-0.773519	1
H	0.653539	-2.235361	-1.183759	1
H	-0.863271	-1.559421	-1.864719	1
H	-0.413801	0.532419	-1.012659	1
H	-0.279091	0.628209	2.074311	1
H	-1.553411	2.486749	-0.019189	1
H	-1.602281	2.635619	1.831171	1
H	3.678439	0.144129	-0.056349	1
Es	-0.532713	-1.174113	0.154059	99
Es	-0.443759	-1.455196	-0.280349	99
Es	-1.265574	2.096099	0.951421	99
Es	-0.346968	0.742609	1.736730	99
Es	-0.526958	0.983359	1.075938	99
Es	-0.864663	-1.130536	0.182809	99
Es	-0.748077	-2.647587	-0.840690	99
Es	2.613275	0.145246	-0.064145	99
Es	2.016238	0.486027	-0.198624	99
Es	-1.467974	2.358676	0.298433	99
Es	0.735707	0.154220	-0.069635	99
Es	-0.351620	-1.287969	0.365589	99
Es	-1.176346	1.361643	1.011749	99
Es	2.029638	0.130012	0.228276	99
Es	-0.399469	-2.014727	-0.984350	99
Es	1.422566	0.145272	-0.064154	99
Es	-1.502179	2.461050	1.537579	99
Es	-0.272220	0.408042	-0.705348	99
Es	-0.253474	0.568726	0.497727	99
Es	2.016674	-0.178220	-0.227724	99
Es	-0.308366	-0.689023	0.031648	99
Es	-0.612714	1.729871	0.996631	99
Es	3.310234	0.135689	-0.058313	99
Es	-0.717187	-1.696219	-1.589773	99
Es	0.324888	-2.164270	-1.128547	99
Es	-0.021112	0.145062	-0.064070	99
41
Properties=species:S:1:pos:R:3:Z:I:1 energy=-306.72588435944067 field_type=dipole dipole="0.000000 0.000000 0.000000" charge=0
C	-0.399441	-2.014871	-0.984529	6
O	-0.532811	-1.174211	0.154271	8
C	-0.021161	0.145259	-0.064149	6
C	-0.527041	0.983459	1.075981	6
C	-1.265521	2.096019	0.951431	6
C	1.422839	0.145259	-0.064149	6
C	2.612999	0.145259	-0.064149	6
H	-0.909981	-2.958511	-0.773519	1
H	0.653539	-2.235361	-1.183759	1
H	-0.863271	-1.559421	-1.864719	1
H	-0.413801	0.532419	-1.012659	1
H	-0.279091	0.628209	2.074311	1
H	-1.553411	2.486749	-0.019189	1
H	-1.602281	2.635619	1.831171	1
H	3.678439	0.144129	-0.056349	1
Es	0.325100	-2.164667	-1.128501	99
Es	-0.399468	-2.014730	-0.984355	99
Es	3.310204	0.135085	-0.058237	99
Es	-0.308445	-0.690265	0.031418	99
Es	2.613271	0.145260	-0.064143	99
Es	2.030156	0.133371	0.216256	99
Es	-0.021111	0.145064	-0.064072	99
Es	-1.265572	2.096098	0.951415	99
Es	-0.346718	0.743331	1.736447	99
Es	-0.253111	0.568869	0.497756	99
Es	-1.176240	1.361633	1.011766	99
Es	-0.866171	-1.130306	0.181751	99
Es	-0.350217	-1.288497	0.365747	99
Es	-1.502533	2.460391	1.537622	99
Es	-0.526955	0.983364	1.075942	99
Es	-1.468648	2.358283	0.298680	99
Es	-0.532656	-1.174119	0.153963	99
Es	-0.717610	-1.696369	-1.589717	99
Es	2.016156	-0.183610	-0.218509	99
Es	1.422566	0.145275	-0.064152	99
Es	2.016258	0.487848	-0.195807	99
Es	-0.612686	1.730027	0.996417	99
Es	-0.747826	-2.646878	-0.840644	99
Es	-0.272235	0.407830	-0.705105	99
Es	0.735955	0.154968	-0.069813	99
Es	-0.443612	-1.453513	-0.279260	99
41
Properties=species:S:1:pos:R:3:Z:I:1 energy=-306.72588435944067 field_type=dipole dipole="0.000000 0.000000 0.000000" charge=0
C	-0.399441	-2.014871	-0.984529	6
O	-0.532811	-1.174211	0.154271	8
C	-0.021161	0.145259	-0.064149	6
C	-0.527041	0.983459	1.075981	6
C	-1.265521	2.096019	0.951431	6
C	1.422839	0.145259	-0.064149	6
C	2.612999	0.145259	-0.064149	6
H	-0.909981	-2.958511	-0.773519	1
H	0.653539	-2.235361	-1.183759	1
H	-0.863271	-1.559421	-1.864719	1
H	-0.413801	0.532419	-1.012659	1
H	-0.279091	0.628209	2.074311	1
H	-1.553411	2.486749	-0.019189	1
H	-1.602281	2.635619	1.831171	1
H	3.678439	0.144129	-0.056349	1
Es	-0.309205	-0.692411	0.031747	99
Es	-0.866666	-1.128267	0.181103	99
Es	-0.347921	-1.289797	0.366675	99
Es	-0.718264	-1.697010	-1.589975	99
Es	-0.612807	1.729926	0.995502	99
Es	-1.265570	2.096098	0.951411	99
Es	3.310154	0.134468	-0.058092	99
Es	-1.502743	2.460694	1.537621	99
Es	0.325156	-2.165377	-1.128434	99
Es	0.736101	0.155120	-0.072076	99
Es	-0.253096	0.568312	0.497922	99
Es	2.011591	-0.182656	0.088300	99
Es	-1.469345	2.357032	0.298869	99
Es	-0.272152	0.407714	-0.705038	99
Es	1.422564	0.145275	-0.064160	99
Es	2.016714	0.493018	0.047416	99
Es	-1.176028	1.361832	1.012762	99
Es	-0.021110	0.145065	-0.064072	99
Es	-0.526951	0.983368	1.075943	99
Es	2.613277	0.145248	-0.064143	99
Es	-0.444688	-1.451572	-0.279907	99
Es	-0.747094	-2.645810	-0.840697	99
Es	-0.532658	-1.174087	0.153921	99
Es	-0.346226	0.744656	1.736022	99
Es	2.034287	0.127630	-0.331404	99
Es	-0.399469	-2.014727	-0.984351	99
41
Properties=species:S:1:pos:R:3:Z:I:1 energy=-306.72588435944067 field_type=dipole dipole="0.000000 0.000000 0.000000" charge=0
C	-0.399441	-2.014871	-0.984529	6
O	-0.532811	-1.174211	0.154271	8
C	-0.021161	0.145259	-0.064149	6
C	-0.527041	0.983459	1.075981	6
C	-1.265521	2.096019	0.951431	6
C	1.422839	0.145259	-0.064149	6
C	2.612999	0.145259	-0.064149	6
H	-0.909981	-2.958511	-0.773519	1
H	0.653539	-2.235361	-1.183759	1
H	-0.863271	-1.559421	-1.864719	1
H	-0.413801	0.532419	-1.012659	1
H	-0.279091	0.628209	2.074311	1
H	-1.553411	2.486749	-0.019189	1
H	-1.602281	2.635619	1.831171	1
H	3.678439	0.144129	-0.056349	1
Es	-0.021110	0.145067	-0.064072	99
Es	2.613274	0.145241	-0.064140	99
Es	2.016277	0.487460	-0.195979	99
Es	-0.868005	-1.128654	0.181323	99
Es	-0.446029	-1.449476	-0.278359	99
Es	-1.265575	2.096096	0.951417	99
Es	-0.252745	0.568904	0.497875	99
Es	2.031062	0.143820	0.197392	99
Es	-0.346495	0.744637	1.735804	99
Es	0.325389	-2.165285	-1.128407	99
Es	-0.747296	-2.645726	-0.840625	99
Es	-0.345957	-1.291336	0.364998	99
Es	1.422566	0.145274	-0.064150	99
Es	-0.271982	0.407432	-0.704753	99
Es	-1.469228	2.357200	0.298923	99
Es	-0.399469	-2.014727	-0.984348	99
Es	3.310178	0.134170	-0.058424	99
Es	-0.612734	1.730186	0.996277	99
Es	-1.175925	1.361798	1.012117	99
Es	2.015227	-0.193719	-0.199126	99
Es	-0.526948	0.983367	1.075935	99
Es	-1.503435	2.459896	1.537559	99
Es	0.736289	0.155760	-0.070038	99
Es	-0.532703	-1.174108	0.154015	99
Es	-0.718350	-1.696670	-1.589667	99
Es	-0.308426	-0.692865	0.031322	99
41
Properties=species:S:1:pos:R:3:Z:I:1 energy=-306.72588435944067 field_type=dipole dipole="0.000000 0.000000 0.000000" charge=0
C	-0.399441	-2.014871	-0.984529	6
O	-0.532811	-1.174211	0.154271	8
C	-0.021161	0.145259	-0.064149	6
C	-0.527041	0.983459	1.075981	6
C	-1.265521	2.096019	0.951431	6
C	1.422839	0.145259	-0.064149	6
C	2.612999	0.145259	-0.064149	6
H	-0.909981	-2.958511	-0.773519	1
H	0.653539	-2.235361	-1.183759	1
H	-0.863271	-1.559421	-1.864719	1
H	-0.413801	0.532419	-1.012659	1
H	-0.279091	0.628209	2.074311	1
H	-1.553411	2.486749	-0.019189	1
H	-1.602281	2.635619	1.831171	1
H	3.678439	0.144129	-0.056349	1
Es	-0.344268	-1.292535	0.365730	99
Es	-0.446948	-1.447939	-0.278940	99
Es	-0.718995	-1.697211	-1.590014	99
Es	-1.469662	2.356054	0.299121	99
Es	-0.272070	0.407461	-0.704799	99
Es	1.422568	0.145275	-0.064173	99
Es	2.034565	0.131334	-0.314999	99
Es	0.736327	0.155674	-0.072204	99
Es	-1.175843	1.361887	1.012989	99
Es	-1.265573	2.096098	0.951415	99
Es	-0.345961	0.745646	1.735603	99
Es	-0.868353	-1.126164	0.180659	99
Es	-0.526944	0.983364	1.075933	99
Es	3.310137	0.133837	-0.058018	99
Es	-0.308877	-0.695293	0.031942	99
Es	-0.021111	0.145065	-0.064071	99
Es	-0.532709	-1.174117	0.154055	99
Es	2.613276	0.145246	-0.064144	99
Es	0.325358	-2.166013	-1.128291	99
Es	-0.612902	1.729996	0.995326	99
Es	2.016586	0.495010	0.042256	99
Es	2.011423	-0.188450	0.077038	99
Es	-0.399469	-2.014728	-0.984352	99
Es	-0.746526	-2.644695	-0.840723	99
Es	-0.252669	0.568460	0.498008	99
Es	-1.503510	2.460482	1.537524	99
41
Properties=species:S:1:pos:R:3:Z:I:1 energy=-306.72588435944067 field_type=dipole dipole="0.000000 0.000000 0.000000" charge=0
C	-0.399441	-2.014871	-0.984529	6
O	-0.532811	-1.174211	0.154271	8
C	-0.021161	0.145259	-0.064149	6
C	-0.527041	0.983459	1.075981	6
C	-1.265521	2.096019	0.951431	6
C	1.422839	0.145259	-0.064149	6
C	2.612999	0.145259	-0.064149	6
H	-0.909981	-2.958511	-0.773519	1
H	0.653539	-2.235361	-1.183759	1
H	-0.863271	-1.559421	-1.864719	1
H	-0.413801	0.532419	-1.012659	1
H	-0.279091	0.628209	2.074311	1
H	-1.553411	2.486749	-0.019189	1
H	-1.602281	2.635619	1.831171	1
H	3.678439	0.144129	-0.056349	1
Es	-0.308839	-0.696136	0.031939	99
Es	-0.612993	1.729932	0.995188	99
Es	-0.399471	-2.014729	-0.984350	99
Es	-0.252324	0.568288	0.498105	99
Es	2.034723	0.130875	-0.306284	99
Es	-0.719400	-1.697417	-1.590087	99
Es	1.422562	0.145268	-0.064158	99
Es	-1.470144	2.355812	0.299142	99
Es	2.016443	0.497022	0.036440	99
Es	-0.345727	0.746146	1.735424	99
Es	-0.021110	0.145066	-0.064071	99
Es	-0.346638	-1.290506	0.367560	99
Es	-1.175663	1.362047	1.013194	99
Es	-0.746146	-2.644254	-0.840663	99
Es	0.325408	-2.166198	-1.128273	99
Es	-1.503635	2.460050	1.537566	99
Es	-0.869240	-1.125852	0.177594	99
Es	2.613277	0.145246	-0.064144	99
Es	3.310128	0.133589	-0.057868	99
Es	-1.265576	2.096095	0.951414	99
Es	-0.272237	0.407616	-0.704775	99
Es	0.736409	0.155721	-0.072171	99
Es	-0.443767	-1.449254	-0.277661	99
Es	-0.532662	-1.174126	0.153913	99
Es	-0.526959	0.983362	1.075943	99
Es	2.011431	-0.189921	0.073949	99
41
Properties=species:S:1:pos:R:3:Z:I:1 energy=-306.72588435944067 field_type=dipole dipole="0.000000 0.000000 0.000000" charge=0
C	-0.399441	-2.014871	-0.984529	6
O	-0.532811	-1.174211	0.154271	8
C	-0.021161	0.145259	-0.064149	6
C	-0.527041	0.983459	1.075981	6
C	-1.265521	2.096019	0.951431	6
C	1.422839	0.145259	-0.064149	6
C	2.612999	0.145259	-0.064149	6
H	-0.909981	-2.958511	-0.773519	1
H	0.653539	-2.235361	-1.183759	1
H	-0.863271	-1.559421	-1.864719	1
H	-0.413801	0.532419	-1.012659	1
H	-0.279091	0.628209	2.074311	1
H	-1.553411	2.486749	-0.019189	1
H	-1.602281	2.635619	1.831171	1
H	3.678439	0.144129	-0.056349	1
Es	2.034777	0.132422	-0.301800	99
Es	-0.252151	0.568126	0.498139	99
Es	1.422564	0.145275	-0.064160	99
Es	-0.343657	-1.290720	0.366298	99
Es	2.613277	0.145246	-0.064141	99
Es	2.011384	-0.191683	0.070319	99
Es	-0.399473	-2.014726	-0.984342	99
Es	-0.612805	1.730275	0.995233	99
Es	-0.309596	-0.697907	0.031266	99
Es	0.325494	-2.166371	-1.128188	99
Es	-0.021111	0.145062	-0.064070	99
Es	-0.272272	0.407604	-0.704692	99
Es	-1.504041	2.460087	1.537392	99
Es	-0.445467	-1.448396	-0.277777	99
Es	-0.345843	0.746342	1.735256	99
Es	2.016425	0.497107	0.035681	99
Es	-0.719581	-1.697475	-1.590053	99
Es	3.310117	0.133440	-0.057873	99
Es	-1.470116	2.355316	0.299266	99
Es	-0.869714	-1.124781	0.179306	99
Es	-1.265576	2.096093	0.951417	99
Es	-0.526954	0.983367	1.075943	99
Es	-0.532718	-1.174138	0.154114	99
Es	-0.746054	-2.643923	-0.840621	99
Es	0.736505	0.156042	-0.072231	99
Es	-1.175561	1.362055	1.013186	99
41
Properties=species:S:1:pos:R:3:Z:I:1 energy=-306.72588435944067 field_type=dipole dipole="0.000000 0.000000 0.000000" charge=0
C	-0.399441	-2.014871	-0.984529	6
O	-0.532811	-1.174211	0.154271	8
C	-0.021161	0.145259	-0.064149	6
C	-0.527041	0.983459	1.075981	6
C	-1.265521	2.096019	0.951431	6
C	1.422839	0.145259	-0.064149	6
C	2.612999	0.145259	-0.064149	6
H	-0.909981	-2.958511	-0.773519	1
H	0.653539	-2.235361	-1.183759	1
H	-0.863271	-1.559421	-1.864719	1
H	-0.413801	0.532419	-1.012659	1
H	-0.279091	0.628209	2.074311	1
H	-1.553411	2.486749	-0.019189	1
H	-1.602281	2.635619	1.831171	1
H	3.678439	0.144129	-0.056349	1
Es	-0.450299	-1.442713	-0.276673	99
Es	1.422565	0.145279	-0.064151	99
Es	2.014841	-0.198079	-0.188105	99
Es	-0.532703	-1.174109	0.154039	99
Es	-0.612906	1.730243	0.996122	99
Es	-0.312019	-0.696587	0.030001	99
Es	-1.175587	1.361965	1.012203	99
Es	-1.469717	2.355970	0.299325	99
Es	0.736595	0.156329	-0.070256	99
Es	3.310097	0.133065	-0.058598	99
Es	0.325630	-2.166082	-1.128104	99
Es	2.016022	0.493559	-0.181254	99
Es	-1.504557	2.459323	1.537502	99
Es	-0.526952	0.983365	1.075939	99
Es	-0.399469	-2.014727	-0.984351	99
Es	-0.251997	0.569254	0.498063	99
Es	-0.746783	-2.644403	-0.840649	99
Es	-0.271830	0.406962	-0.704363	99
Es	-0.719041	-1.696840	-1.589704	99
Es	2.613278	0.145246	-0.064141	99
Es	-0.335784	-1.294297	0.362401	99
Es	2.031765	0.142326	0.171789	99
Es	-0.021113	0.145061	-0.064071	99
Es	-1.265579	2.096093	0.951415	99
Es	-0.346296	0.746041	1.735168	99
Es	-0.870309	-1.128501	0.183319	99
41
Properties=species:S:1:pos:R:3:Z:I:1 energy=-306.72588435944067 field_type=dipole dipole="0.000000 0.000000 0.000000" charge=0
C	-0.399441	-2.014871	-0.984529	6
O	-0.532811	-1.174211	0.154271	8
C	-0.021161	0.145259	-0.064149	6
C	-0.527041	0.983459	1.075981	6
C	-1.265521	2.096019	0.951431	6
C	1.422839	0.145259	-0.064149	6
C	2.612999	0.145259	-0.064149	6
H	-0.909981	-2.958511	-0.773519	1
H	0.653539	-2.235361	-1.183759	1
H	-0.863271	-1.559421	-1.864719	1
H	-0.413801	0.532419	-1.012659	1
H	-0.279091	0.628209	2.074311	1
H	-1.553411	2.486749	-0.019189	1
H	-1.602281	2.635619	1.831171	1
H	3.678439	0.144129	-0.056349	1
Es	-1.175693	1.361825	1.012295	99
Es	-0.870457	-1.126950	0.182091	99
Es	-0.526953	0.983367	1.075938	99
Es	-0.335138	-1.295350	0.363316	99
Es	2.031933	0.143859	0.167306	99
Es	-0.746646	-2.644169	-0.840635	99
Es	-0.311803	-0.697792	0.029860	99
Es	1.422565	0.145276	-0.064141	99
Es	-1.265576	2.096096	0.951406	99
Es	-0.021112	0.145062	-0.064069	99
Es	3.310118	0.133065	-0.058675	99
Es	2.014660	-0.199776	-0.183602	99
Es	-1.469621	2.355669	0.299528	99
Es	0.325688	-2.166172	-1.128189	99
Es	-0.719118	-1.697229	-1.589654	99
Es	-0.399469	-2.014728	-0.984352	99
Es	-0.451057	-1.441610	-0.276241	99
Es	-0.612833	1.730371	0.996087	99
Es	-0.532686	-1.174103	0.153992	99
Es	2.015987	0.493423	-0.181186	99
Es	2.613277	0.145245	-0.064143	99
Es	-0.251845	0.569052	0.498277	99
Es	-1.504877	2.459337	1.537395	99
Es	-0.271860	0.406955	-0.704338	99
Es	0.736670	0.156577	-0.070272	99
Es	-0.346305	0.746444	1.734876	99
41
Properties=species:S:1:pos:R:3:Z:I:1 energy=-306.72588435944067 field_type=dipole dipole="0.000000 0.000000 0.000000" charge=0
C	-0.399441	-2.014871	-0.984529	6
O	-0.532811	-1.174211	0.154271	8
C	-0.021161	0.145259	-0.064149	6
C	-0.527041	0.983459	1.075981	6
C	-1.265521	2.096019	0.951431	6
C	1.422839	0.145259	-0.064149	6
C	2.612999	0.145259	-0.064149	6
H	-0.909981	-2.958511	-0.773519	1
H	0.653539	-2.235361	-1.183759	1
H	-0.863271	-1.559421	-1.864719	1
H	-0.413801	0.532419	-1.012659	1
H	-0.279091	0.628209	2.074311	1
H	-1.553411	2.486749	-0.019189	1
H	-1.602281	2.635619	1.831171	1
H	3.678439	0.144129	-0.056349	1
Es	2.034933	0.137464	-0.286149	99
Es	-0.251681	0.568288	0.498117	99
Es	-0.272353	0.407487	-0.704562	99
Es	-1.265575	2.096095	0.951415	99
Es	2.613276	0.145239	-0.064140	99
Es	-0.345624	0.747019	1.735039	99
Es	-0.310546	-0.700130	0.030464	99
Es	-0.021109	0.145067	-0.064072	99
Es	-0.445996	-1.446803	-0.276196	99
Es	-0.613035	1.730164	0.995329	99
Es	2.011281	-0.197365	0.056559	99
Es	0.325619	-2.166737	-1.128078	99
Es	-0.399469	-2.014727	-0.984350	99
Es	3.310104	0.133027	-0.058007	99
Es	-0.745772	-2.643253	-0.840660	99
Es	-0.719970	-1.697524	-1.589991	99
Es	0.736732	0.156427	-0.071997	99
Es	-1.504538	2.459406	1.537386	99
Es	-0.341242	-1.291311	0.367681	99
Es	1.422566	0.145274	-0.064167	99
Es	-0.870673	-1.123423	0.177244	99
Es	2.016364	0.497605	0.033665	99
Es	-0.526951	0.983367	1.075938	99
Es	-0.532660	-1.174094	0.153927	99
Es	-1.470527	2.354949	0.299310	99
Es	-1.175302	1.362231	1.013160	99
41
Properties=species:S:1:pos:R:3:Z:I:1 energy=-306.72588435944067 field_type=dipole dipole="0.000000 0.000000 0.000000" charge=0
C	-0.399441	-2.014871	-0.984529	6
O	-0.532811	-1.174211	0.154271	8
C	-0.021161	0.145259	-0.064149	6
C	-0.527041	0.983459	1.075981	6
C	-1.265521	2.096019	0.951431	6
C	1.422839	0.145259	-0.064149	6
C	2.612999	0.145259	-0.064149	6
H	-0.909981	-2.958511	-0.773519	1
H	0.653539	-2.235361	-1.183759	1
H	-0.863271	-1.559421	-1.864719	1
H	-0.413801	0.532419	-1.012659	1
H	-0.279091	0.628209	2.074311	1
H	-1.553411	2.486749	-0.019189	1
H	-1.602281	2.635619	1.831171	1
H	3.678439	0.144129	-0.056349	1
Es	2.011267	-0.198050	0.054509	99
Es	0.325631	-2.166750	-1.128155	99
Es	2.034969	0.137635	-0.282865	99
Es	-0.332538	-1.294741	0.364138	99
Es	1.422565	0.145279	-0.064159	99
Es	-0.526952	0.983366	1.075939	99
Es	-0.399469	-2.014729	-0.984352	99
Es	-0.870655	-1.124570	0.181947	99
Es	-0.451572	-1.441273	-0.276540	99
Es	-0.745669	-2.643160	-0.840652	99
Es	-1.504892	2.459908	1.537370	99
Es	0.736717	0.156401	-0.072067	99
Es	2.613277	0.145244	-0.064143	99
Es	2.016354	0.498200	0.032437	99
Es	-1.265575	2.096096	0.951415	99
Es	-1.470149	2.354487	0.299579	99
Es	-0.720026	-1.697772	-1.589989	99
Es	-1.175405	1.362135	1.013281	99
Es	-0.021112	0.145063	-0.064074	99
Es	-0.532686	-1.174088	0.153968	99
Es	-0.251779	0.568495	0.498144	99
Es	-0.613071	1.730106	0.995225	99
Es	3.310095	0.132943	-0.058074	99
Es	-0.345675	0.747233	1.734780	99
Es	-0.272043	0.407232	-0.704379	99
Es	-0.313756	-0.700948	0.029584	99
41
Properties=species:S:1:pos:R:3:Z:I:1 energy=-306.72588435944067 field_type=dipole dipole="0.000000 0.000000 0.000000" charge=0
C	-0.399441	-2.014871	-0.984529	6
O	-0.532811	-1.174211	0.154271	8
C	-0.021161	0.145259	-0.064149	6
C	-0.527041	0.983459	1.075981	6
C	-1.265521	2.096019	0.951431	6
C	1.422839	0.145259	-0.064149	6
C	2.612999	0.145259	-0.064149	6
H	-0.909981	-2.958511	-0.773519	1
H	0.653539	-2.235361	-1.183759	1
H	-0.863271	-1.559421	-1.864719	1
H	-0.413801	0.532419	-1.012659	1
H	-0.279091	0.628209	2.074311	1
H	-1.553411	2.486749	-0.019189	1
H	-1.602281	2.635619	1.831171	1
H	3.678439	0.144129	-0.056349	1
Es	-0.313007	-0.701033	0.029719	99
Es	-0.613125	1.730078	0.995265	99
Es	-1.265574	2.096097	0.951416	99
Es	-0.333529	-1.295048	0.364959	99
Es	2.034974	0.139542	-0.279248	99
Es	-1.470389	2.354509	0.299519	99
Es	-0.870935	-1.124204	0.180155	99
Es	-0.720115	-1.697637	-1.589933	99
Es	-0.745604	-2.642950	-0.840783	99
Es	-1.504964	2.459531	1.537440	99
Es	2.011249	-0.199645	0.050195	99
Es	-0.399468	-2.014729	-0.984355	99
Es	1.422565	0.145280	-0.064159	99
Es	-0.345670	0.747394	1.734749	99
Es	-0.251558	0.568493	0.498212	99
Es	0.736773	0.156566	-0.071971	99
Es	0.325682	-2.166866	-1.128081	99
Es	-0.526952	0.983366	1.075938	99
Es	-1.175252	1.362265	1.013164	99
Es	3.310077	0.132780	-0.058208	99
Es	-0.451028	-1.441345	-0.275722	99
Es	2.613278	0.145242	-0.064156	99
Es	-0.021110	0.145066	-0.064071	99
Es	-0.272152	0.407247	-0.704385	99
Es	-0.532689	-1.174108	0.154027	99
Es	2.016375	0.497852	0.033178	99
41
Properties=species:S:1:pos:R:3:Z:I:1 energy=-306.72588435944067 field_type=dipole dipole="0.000000 0.000000 0.000000" charge=0
C	-0.399441	-2.014871	-0.984529	6
O	-0.532811	-1.174211	0.154271	8
C	-0.021161	0.145259	-0.064149	6
C	-0.527041	0.983459	1.075981	6
C	-1.265521	2.096019	0.951431	6
C	1.422839	0.145259	-0.064149	6
C	2.612999	0.145259	-0.064149	6
H	-0.909981	-2.958511	-0.773519	1
H	0.653539	-2.235361	-1.183759	1
H	-0.863271	-1.559421	-1.864719	1
H	-0.413801	0.532419	-1.012659	1
H	-0.279091	0.628209	2.074311	1
H	-1.553411	2.486749	-0.019189	1
H	-1.602281	2.635619	1.831171	1
H	3.678439	0.144129	-0.056349	1
Es	-1.470295	2.354379	0.299538	99
Es	-0.021111	0.145065	-0.064072	99
Es	-0.251726	0.568793	0.498090	99
Es	0.325698	-2.166884	-1.128033	99
Es	2.011259	-0.200368	0.047892	99
Es	-0.272025	0.407049	-0.704327	99
Es	3.310047	0.132608	-0.058200	99
Es	-0.313017	-0.701907	0.029796	99
Es	-0.745495	-2.642842	-0.840733	99
Es	-0.720224	-1.697719	-1.589970	99
Es	-0.613266	1.729930	0.995298	99
Es	-1.505076	2.459641	1.537408	99
Es	-0.526952	0.983366	1.075939	99
Es	1.422564	0.145287	-0.064162	99
Es	-1.265578	2.096094	0.951418	99
Es	-0.399469	-2.014729	-0.984352	99
Es	-0.332123	-1.295959	0.364060	99
Es	-1.175258	1.362257	1.013189	99
Es	-0.452016	-1.440030	-0.275411	99
Es	-0.871282	-1.123690	0.180588	99
Es	2.035001	0.140116	-0.276226	99
Es	2.613277	0.145244	-0.064143	99
Es	0.736791	0.156635	-0.072014	99
Es	2.016377	0.498122	0.032433	99
Es	-0.532705	-1.174123	0.154064	99
Es	-0.345545	0.747410	1.734796	99
41
Properties=species:S:1:pos:R:3:Z:I:1 energy=-306.72588435944067 field_type=dipole dipole="0.000000 0.000000 0.000000" charge=0
C	-0.399441	-2.014871	-0.984529	6
O	-0.532811	-1.174211	0.154271	8
C	-0.021161	0.145259	-0.064149	6
C	-0.527041	0.983459	1.075981	6
C	-1.265521	2.096019	0.951431	6
C	1.422839	0.145259	-0.064149	6
C	2.612999	0.145259	-0.064149	6
H	-0.909981	-2.958511	-0.773519	1
H	0.653539	-2.235361	-1.183759	1
H	-0.863271	-1.559421	-1.864719	1
H	-0.413801	0.532419	-1.012659	1
H	-0.279091	0.628209	2.074311	1
H	-1.553411	2.486749	-0.019189	1
H	-1.602281	2.635619	1.831171	1
H	3.678439	0.144129	-0.056349	1
Es	-0.526950	0.983364	1.075934	99
Es	-1.175442	1.361997	1.012502	99
Es	-0.271503	0.406528	-0.703959	99
Es	-0.613013	1.730307	0.995971	99
Es	3.310047	0.132450	-0.058871	99
Es	-1.505740	2.459521	1.537367	99
Es	-0.251473	0.569146	0.498406	99
Es	-0.719633	-1.697542	-1.589669	99
Es	-0.746095	-2.643308	-0.840773	99
Es	-0.313383	-0.700657	0.029382	99
Es	-1.265576	2.096096	0.951410	99
Es	0.325810	-2.166598	-1.128091	99
Es	-1.469548	2.354588	0.299888	99
Es	-0.532698	-1.174115	0.153990	99
Es	-0.457019	-1.433789	-0.273205	99
Es	-0.346466	0.747422	1.734174	99
Es	2.014481	-0.201571	-0.178419	99
Es	2.015854	0.496099	-0.172983	99
Es	-0.399472	-2.014730	-0.984349	99
Es	-0.021110	0.145067	-0.064073	99
Es	1.422564	0.145281	-0.064153	99
Es	2.613277	0.145235	-0.064147	99
Es	2.032252	0.143012	0.153962	99
Es	-0.871616	-1.125900	0.183443	99
Es	-0.326577	-1.301181	0.359398	99
Es	0.736878	0.157021	-0.070269	99
