47
Properties=species:S:1:pos:R:3:Z:I:1 energy=-309.1370348523235 field_type=dipole dipole="0.000000 0.000000 0.000000" charge=0
C	-0.091544	-1.811775	1.704115	6
O	-0.768193	-0.561235	1.673605	8
C	-0.982813	-0.077395	0.345285	6
C	-2.094293	0.964955	0.416195	6
C	0.285956	0.551005	-0.161695	6
C	0.920197	0.179995	-1.286095	6
C	2.189647	0.800695	-1.770565	6
H	-0.006123	-2.128075	2.747475	1
H	0.916717	-1.723795	1.288975	1
H	-0.659994	-2.571095	1.158095	1
H	-1.318023	-0.897475	-0.301735	1
H	-1.837693	1.776505	1.107465	1
H	-3.014813	0.510445	0.799335	1
H	-2.305263	1.397095	-0.567705	1
H	0.700407	1.347165	0.455225	1
H	0.512496	-0.621775	-1.897765	1
H	2.528946	1.612175	-1.119345	1
H	2.044926	1.207625	-2.775725	1
H	2.979466	0.044955	-1.815145	1
Es	0.646416	-0.367189	-1.707372	99
Es	0.285900	0.551020	-0.161611	99
Es	-0.091654	-1.811589	1.704107	99
Es	-2.231262	1.253332	-0.257313	99
Es	2.189614	0.800673	-1.770559	99
Es	0.920268	0.179980	-1.286204	99
Es	-1.048786	-0.619109	1.785727	99
Es	-1.910277	1.516004	0.880441	99
Es	-0.338465	0.235886	0.078637	99
Es	-0.982764	-0.077419	0.345493	99
Es	-0.504449	-1.036379	1.647618	99
Es	-1.534151	0.451823	0.377474	99
Es	-0.580715	-0.356656	1.803374	99
Es	-0.033475	-2.028315	2.414640	99
Es	2.716829	0.284605	-1.799535	99
Es	2.085715	1.071625	-2.449714	99
Es	-0.828867	-0.409999	1.155738	99
Es	0.418028	0.585930	-0.891852	99
Es	1.554215	0.494418	-1.526809	99
Es	-2.718668	0.650850	0.670700	99
Es	0.773603	0.144080	-0.550423	99
Es	-2.094277	0.964942	0.416183	99
Es	-1.205217	-0.646314	-0.104807	99
Es	-0.768018	-0.561396	1.673308	99
Es	2.415413	1.350480	-1.324577	99
Es	0.598021	-1.756963	1.414211	99
Es	0.560992	1.092668	0.260444	99
Es	-0.480582	-2.335421	1.320617	99
47
Properties=species:S:1:pos:R:3:Z:I:1 energy=-309.1370348523235 field_type=dipole dipole="0.000000 0.000000 0.000000" charge=0
C	-0.091544	-1.811775	1.704115	6
O	-0.768193	-0.561235	1.673605	8
C	-0.982813	-0.077395	0.345285	6
C	-2.094293	0.964955	0.416195	6
C	0.285956	0.551005	-0.161695	6
C	0.920197	0.179995	-1.286095	6
C	2.189647	0.800695	-1.770565	6
H	-0.006123	-2.128075	2.747475	1
H	0.916717	-1.723795	1.288975	1
H	-0.659994	-2.571095	1.158095	1
H	-1.318023	-0.897475	-0.301735	1
H	-1.837693	1.776505	1.107465	1
H	-3.014813	0.510445	0.799335	1
H	-2.305263	1.397095	-0.567705	1
H	0.700407	1.347165	0.455225	1
H	0.512496	-0.621775	-1.897765	1
H	2.528946	1.612175	-1.119345	1
H	2.044926	1.207625	-2.775725	1
H	2.979466	0.044955	-1.815145	1
Es	0.560889	1.092325	0.260644	99
Es	0.597840	-1.757024	1.413103	99
Es	-1.052758	-0.616212	1.791414	99
Es	-0.982765	-0.077417	0.345486	99
Es	2.189612	0.800673	-1.770559	99
Es	-2.231507	1.253323	-0.257716	99
Es	-1.910453	1.516157	0.881349	99
Es	0.285902	0.551017	-0.161610	99
Es	1.554252	0.494155	-1.527210	99
Es	0.646350	-0.366781	-1.707651	99
Es	-2.094276	0.964942	0.416183	99
Es	-0.480138	-2.333979	1.320712	99
Es	-0.504681	-1.035571	1.647404	99
Es	-0.768151	-0.561224	1.673523	99
Es	2.085666	1.071564	-2.450380	99
Es	-1.204815	-0.646533	-0.104941	99
Es	2.716326	0.284609	-1.799245	99
Es	-0.091652	-1.811589	1.704108	99
Es	-2.717856	0.650991	0.670122	99
Es	-1.534537	0.451687	0.377349	99
Es	0.920269	0.179979	-1.286209	99
Es	-0.825884	-0.407782	1.155305	99
Es	-0.338122	0.235973	0.079140	99
Es	-0.579448	-0.362816	1.798342	99
Es	2.415356	1.350410	-1.324148	99
Es	0.417484	0.586818	-0.892467	99
Es	-0.033791	-2.029345	2.415621	99
Es	0.774275	0.143216	-0.549734	99
47
Properties=species:S:1:pos:R:3:Z:I:1 energy=-309.1370348523235 field_type=dipole dipole="0.000000 0.000000 0.000000" charge=0
C	-0.091544	-1.811775	1.704115	6
O	-0.768193	-0.561235	1.673605	8
C	-0.982813	-0.077395	0.345285	6
C	-2.094293	0.964955	0.416195	6
C	0.285956	0.551005	-0.161695	6
C	0.920197	0.179995	-1.286095	6
C	2.189647	0.800695	-1.770565	6
H	-0.006123	-2.128075	2.747475	1
H	0.916717	-1.723795	1.288975	1
H	-0.659994	-2.571095	1.158095	1
H	-1.318023	-0.897475	-0.301735	1
H	-1.837693	1.776505	1.107465	1
H	-3.014813	0.510445	0.799335	1
H	-2.305263	1.397095	-0.567705	1
H	0.700407	1.347165	0.455225	1
H	0.512496	-0.621775	-1.897765	1
H	2.528946	1.612175	-1.119345	1
H	2.044926	1.207625	-2.775725	1
H	2.979466	0.044955	-1.815145	1
Es	-0.826927	-0.408943	1.154631	99
Es	-0.034041	-2.029796	2.416145	99
Es	-0.982763	-0.077419	0.345490	99
Es	-0.505706	-1.035333	1.647850	99
Es	-1.055717	-0.603884	1.809794	99
Es	-0.768138	-0.561344	1.673362	99
Es	-0.337877	0.235949	0.079456	99
Es	0.920271	0.179978	-1.286209	99
Es	0.417150	0.587256	-0.892782	99
Es	2.415330	1.350694	-1.323600	99
Es	0.597821	-1.757026	1.412392	99
Es	2.715806	0.284599	-1.799117	99
Es	-0.574548	-0.374132	1.780568	99
Es	-0.479958	-2.333170	1.320883	99
Es	-1.910645	1.516609	0.882137	99
Es	-1.204551	-0.646824	-0.105216	99
Es	2.085616	1.071232	-2.450768	99
Es	-2.231900	1.253005	-0.257916	99
Es	-2.094276	0.964943	0.416184	99
Es	2.189612	0.800673	-1.770558	99
Es	0.774621	0.143018	-0.549490	99
Es	-2.716989	0.651052	0.669600	99
Es	0.646473	-0.366975	-1.708011	99
Es	0.285895	0.551022	-0.161614	99
Es	1.554234	0.493960	-1.527406	99
Es	0.560831	1.092349	0.260937	99
Es	-1.534582	0.451657	0.377090	99
Es	-0.091656	-1.811582	1.704106	99
47
Properties=species:S:1:pos:R:3:Z:I:1 energy=-309.1370348523235 field_type=dipole dipole="0.000000 0.000000 0.000000" charge=0
C	-0.091544	-1.811775	1.704115	6
O	-0.768193	-0.561235	1.673605	8
C	-0.982813	-0.077395	0.345285	6
C	-2.094293	0.964955	0.416195	6
C	0.285956	0.551005	-0.161695	6
C	0.920197	0.179995	-1.286095	6
C	2.189647	0.800695	-1.770565	6
H	-0.006123	-2.128075	2.747475	1
H	0.916717	-1.723795	1.288975	1
H	-0.659994	-2.571095	1.158095	1
H	-1.318023	-0.897475	-0.301735	1
H	-1.837693	1.776505	1.107465	1
H	-3.014813	0.510445	0.799335	1
H	-2.305263	1.397095	-0.567705	1
H	0.700407	1.347165	0.455225	1
H	0.512496	-0.621775	-1.897765	1
H	2.528946	1.612175	-1.119345	1
H	2.044926	1.207625	-2.775725	1
H	2.979466	0.044955	-1.815145	1
Es	-0.091655	-1.811585	1.704107	99
Es	-2.716433	0.650805	0.668956	99
Es	0.646284	-0.367117	-1.708348	99
Es	0.417388	0.587238	-0.892696	99
Es	-0.337742	0.236067	0.079452	99
Es	1.554247	0.493531	-1.527645	99
Es	-2.231974	1.252551	-0.257936	99
Es	0.285898	0.551022	-0.161612	99
Es	0.597614	-1.756865	1.412006	99
Es	0.920269	0.179980	-1.286209	99
Es	-0.831330	-0.411082	1.154139	99
Es	2.714986	0.284915	-1.799171	99
Es	0.774571	0.143006	-0.549478	99
Es	0.560856	1.092569	0.261323	99
Es	-0.569248	-0.395824	1.751576	99
Es	-1.050972	-0.578064	1.840342	99
Es	-1.204616	-0.647126	-0.105582	99
Es	-0.033960	-2.029958	2.416468	99
Es	-0.768122	-0.561443	1.673236	99
Es	-2.094276	0.964942	0.416183	99
Es	-1.534578	0.451808	0.376954	99
Es	2.415618	1.351114	-1.322915	99
Es	-1.910687	1.517192	0.882991	99
Es	2.189613	0.800673	-1.770559	99
Es	-0.479956	-2.332864	1.320833	99
Es	-0.982763	-0.077419	0.345490	99
Es	2.085796	1.070741	-2.451050	99
Es	-0.511442	-1.037238	1.647082	99
47
Properties=species:S:1:pos:R:3:Z:I:1 energy=-309.1370348523235 field_type=dipole dipole="0.000000 0.000000 0.000000" charge=0
C	-0.091544	-1.811775	1.704115	6
O	-0.768193	-0.561235	1.673605	8
C	-0.982813	-0.077395	0.345285	6
C	-2.094293	0.964955	0.416195	6
C	0.285956	0.551005	-0.161695	6
C	0.920197	0.179995	-1.286095	6
C	2.189647	0.800695	-1.770565	6
H	-0.006123	-2.128075	2.747475	1
H	0.916717	-1.723795	1.288975	1
H	-0.659994	-2.571095	1.158095	1
H	-1.318023	-0.897475	-0.301735	1
H	-1.837693	1.776505	1.107465	1
H	-3.014813	0.510445	0.799335	1
H	-2.305263	1.397095	-0.567705	1
H	0.700407	1.347165	0.455225	1
H	0.512496	-0.621775	-1.897765	1
H	2.528946	1.612175	-1.119345	1
H	2.044926	1.207625	-2.775725	1
H	2.979466	0.044955	-1.815145	1
Es	0.646194	-0.367295	-1.708679	99
Es	0.417683	0.586969	-0.892418	99
Es	2.714558	0.285174	-1.799188	99
Es	-1.534559	0.451815	0.376819	99
Es	-0.513368	-1.037423	1.647054	99
Es	1.554299	0.493380	-1.527734	99
Es	-0.091655	-1.811588	1.704107	99
Es	-2.231840	1.252291	-0.257772	99
Es	-0.337782	0.236106	0.079444	99
Es	0.920270	0.179979	-1.286211	99
Es	-2.716266	0.650625	0.668428	99
Es	-0.833063	-0.412486	1.153706	99
Es	2.189614	0.800673	-1.770559	99
Es	0.597829	-1.756769	1.411821	99
Es	0.560973	1.092705	0.261655	99
Es	-1.044373	-0.560847	1.858709	99
Es	0.774282	0.143302	-0.549777	99
Es	-0.034271	-2.029899	2.416616	99
Es	2.415670	1.351515	-1.322498	99
Es	-0.768117	-0.561350	1.673384	99
Es	-0.480039	-2.332635	1.320888	99
Es	-1.910715	1.517552	0.883556	99
Es	-0.982764	-0.077418	0.345488	99
Es	0.285896	0.551018	-0.161612	99
Es	-2.094276	0.964943	0.416180	99
Es	-1.204608	-0.647391	-0.105884	99
Es	2.085986	1.070301	-2.451119	99
Es	-0.572172	-0.411679	1.733533	99
47
Properties=species:S:1:pos:R:3:Z:I:1 energy=-309.1370348523235 field_type=dipole dipole="0.000000 0.000000 0.000000" charge=0
C	-0.091544	-1.811775	1.704115	6
O	-0.768193	-0.561235	1.673605	8
C	-0.982813	-0.077395	0.345285	6
C	-2.094293	0.964955	0.416195	6
C	0.285956	0.551005	-0.161695	6
C	0.920197	0.179995	-1.286095	6
C	2.189647	0.800695	-1.770565	6
H	-0.006123	-2.128075	2.747475	1
H	0.916717	-1.723795	1.288975	1
H	-0.659994	-2.571095	1.158095	1
H	-1.318023	-0.897475	-0.301735	1
H	-1.837693	1.776505	1.107465	1
H	-3.014813	0.510445	0.799335	1
H	-2.305263	1.397095	-0.567705	1
H	0.700407	1.347165	0.455225	1
H	0.512496	-0.621775	-1.897765	1
H	2.528946	1.612175	-1.119345	1
H	2.044926	1.207625	-2.775725	1
H	2.979466	0.044955	-1.815145	1
Es	1.554267	0.493048	-1.527998	99
Es	-2.231801	1.252013	-0.257536	99
Es	0.646030	-0.367365	-1.708696	99
Es	-2.094275	0.964940	0.416183	99
Es	-1.037678	-0.547719	1.870949	99
Es	0.417985	0.586819	-0.892262	99
Es	-0.833398	-0.413281	1.153132	99
Es	-1.204664	-0.647495	-0.105985	99
Es	-2.716145	0.650280	0.668083	99
Es	-1.534401	0.451943	0.376519	99
Es	-1.910802	1.517919	0.883927	99
Es	2.714240	0.285424	-1.799309	99
Es	-0.091658	-1.811581	1.704106	99
Es	2.086208	1.070024	-2.451044	99
Es	-0.480168	-2.332487	1.320982	99
Es	-0.768125	-0.561450	1.673287	99
Es	2.189614	0.800673	-1.770559	99
Es	-0.034428	-2.029841	2.416678	99
Es	0.561179	1.092795	0.261677	99
Es	-0.982763	-0.077422	0.345491	99
Es	0.920271	0.179980	-1.286210	99
Es	0.774056	0.143366	-0.549873	99
Es	0.597974	-1.756667	1.411587	99
Es	0.285897	0.551022	-0.161613	99
Es	-0.576055	-0.423927	1.721935	99
Es	-0.337889	0.236303	0.079454	99
Es	-0.515874	-1.037502	1.647248	99
Es	2.415789	1.351756	-1.322215	99
47
Properties=species:S:1:pos:R:3:Z:I:1 energy=-309.1370348523235 field_type=dipole dipole="0.000000 0.000000 0.000000" charge=0
C	-0.091544	-1.811775	1.704115	6
O	-0.768193	-0.561235	1.673605	8
C	-0.982813	-0.077395	0.345285	6
C	-2.094293	0.964955	0.416195	6
C	0.285956	0.551005	-0.161695	6
C	0.920197	0.179995	-1.286095	6
C	2.189647	0.800695	-1.770565	6
H	-0.006123	-2.128075	2.747475	1
H	0.916717	-1.723795	1.288975	1
H	-0.659994	-2.571095	1.158095	1
H	-1.318023	-0.897475	-0.301735	1
H	-1.837693	1.776505	1.107465	1
H	-3.014813	0.510445	0.799335	1
H	-2.305263	1.397095	-0.567705	1
H	0.700407	1.347165	0.455225	1
H	0.512496	-0.621775	-1.897765	1
H	2.528946	1.612175	-1.119345	1
H	2.044926	1.207625	-2.775725	1
H	2.979466	0.044955	-1.815145	1
Es	2.713767	0.285786	-1.799378	99
Es	0.773865	0.143634	-0.550057	99
Es	0.418371	0.586522	-0.891985	99
Es	-0.768297	-0.561560	1.673222	99
Es	-1.204843	-0.647649	-0.106127	99
Es	-0.514840	-1.036483	1.646722	99
Es	2.416139	1.352009	-1.322104	99
Es	-0.480355	-2.332401	1.321119	99
Es	-0.091656	-1.811583	1.704106	99
Es	1.554069	0.492917	-1.527854	99
Es	-0.583736	-0.435484	1.711510	99
Es	-2.716293	0.650194	0.667892	99
Es	-2.094275	0.964941	0.416184	99
Es	2.086493	1.069643	-2.451055	99
Es	0.598184	-1.756622	1.411411	99
Es	0.920271	0.179979	-1.286211	99
Es	-0.834121	-0.413271	1.153002	99
Es	-0.982764	-0.077417	0.345487	99
Es	-0.337803	0.236372	0.079252	99
Es	2.189614	0.800673	-1.770559	99
Es	0.285898	0.551023	-0.161613	99
Es	-1.910589	1.518212	0.884094	99
Es	-2.231605	1.251743	-0.257333	99
Es	0.645971	-0.367513	-1.708888	99
Es	-0.034631	-2.029648	2.416717	99
Es	0.561138	1.092938	0.261894	99
Es	-1.030228	-0.537168	1.882075	99
Es	-1.534356	0.451781	0.376412	99
47
Properties=species:S:1:pos:R:3:Z:I:1 energy=-309.1370348523235 field_type=dipole dipole="0.000000 0.000000 0.000000" charge=0
C	-0.091544	-1.811775	1.704115	6
O	-0.768193	-0.561235	1.673605	8
C	-0.982813	-0.077395	0.345285	6
C	-2.094293	0.964955	0.416195	6
C	0.285956	0.551005	-0.161695	6
C	0.920197	0.179995	-1.286095	6
C	2.189647	0.800695	-1.770565	6
H	-0.006123	-2.128075	2.747475	1
H	0.916717	-1.723795	1.288975	1
H	-0.659994	-2.571095	1.158095	1
H	-1.318023	-0.897475	-0.301735	1
H	-1.837693	1.776505	1.107465	1
H	-3.014813	0.510445	0.799335	1
H	-2.305263	1.397095	-0.567705	1
H	0.700407	1.347165	0.455225	1
H	0.512496	-0.621775	-1.897765	1
H	2.528946	1.612175	-1.119345	1
H	2.044926	1.207625	-2.775725	1
H	2.979466	0.044955	-1.815145	1
Es	-1.204866	-0.647749	-0.106077	99
Es	0.645940	-0.367501	-1.708916	99
Es	1.554088	0.492741	-1.527891	99
Es	-0.337934	0.236470	0.079281	99
Es	0.773582	0.143736	-0.550315	99
Es	0.561358	1.092922	0.261813	99
Es	0.920272	0.179980	-1.286210	99
Es	-2.716379	0.650009	0.667686	99
Es	2.416235	1.352122	-1.321999	99
Es	-0.034829	-2.029616	2.416761	99
Es	0.598370	-1.756653	1.411014	99
Es	-1.534302	0.451746	0.376135	99
Es	-2.231525	1.251627	-0.257012	99
Es	-0.767707	-0.561256	1.673284	99
Es	-1.023951	-0.527541	1.889135	99
Es	-0.982765	-0.077416	0.345485	99
Es	0.418536	0.586416	-0.891789	99
Es	-0.516640	-1.036454	1.647673	99
Es	2.086910	1.069384	-2.451168	99
Es	-0.834720	-0.415215	1.152352	99
Es	2.189613	0.800674	-1.770558	99
Es	-0.588227	-0.443580	1.704122	99
Es	0.285898	0.551021	-0.161612	99
Es	2.713419	0.286050	-1.799217	99
Es	-2.094275	0.964942	0.416184	99
Es	-1.910583	1.518404	0.884251	99
Es	-0.480480	-2.332105	1.321417	99
Es	-0.091653	-1.811589	1.704108	99
47
Properties=species:S:1:pos:R:3:Z:I:1 energy=-309.1370348523235 field_type=dipole dipole="0.000000 0.000000 0.000000" charge=0
C	-0.091544	-1.811775	1.704115	6
O	-0.768193	-0.561235	1.673605	8
C	-0.982813	-0.077395	0.345285	6
C	-2.094293	0.964955	0.416195	6
C	0.285956	0.551005	-0.161695	6
C	0.920197	0.179995	-1.286095	6
C	2.189647	0.800695	-1.770565	6
H	-0.006123	-2.128075	2.747475	1
H	0.916717	-1.723795	1.288975	1
H	-0.659994	-2.571095	1.158095	1
H	-1.318023	-0.897475	-0.301735	1
H	-1.837693	1.776505	1.107465	1
H	-3.014813	0.510445	0.799335	1
H	-2.305263	1.397095	-0.567705	1
H	0.700407	1.347165	0.455225	1
H	0.512496	-0.621775	-1.897765	1
H	2.528946	1.612175	-1.119345	1
H	2.044926	1.207625	-2.775725	1
H	2.979466	0.044955	-1.815145	1
Es	-0.833063	-0.414906	1.151592	99
Es	2.087098	1.069212	-2.450980	99
Es	-1.534146	0.451579	0.375875	99
Es	2.713258	0.286269	-1.799376	99
Es	0.645806	-0.367522	-1.708925	99
Es	-0.034996	-2.029468	2.416767	99
Es	1.554004	0.492485	-1.527853	99
Es	-0.594907	-0.452084	1.698518	99
Es	-1.910501	1.518589	0.884294	99
Es	-1.204958	-0.647871	-0.106117	99
Es	0.418844	0.586290	-0.891577	99
Es	-2.094278	0.964943	0.416180	99
Es	0.773359	0.143797	-0.550478	99
Es	-0.768299	-0.561616	1.673179	99
Es	-0.091654	-1.811587	1.704107	99
Es	0.561425	1.092968	0.261898	99
Es	-2.716518	0.649882	0.667588	99
Es	-2.231490	1.251509	-0.256646	99
Es	0.920269	0.179979	-1.286211	99
Es	2.189614	0.800674	-1.770559	99
Es	-0.516799	-1.035594	1.648101	99
Es	0.285899	0.551021	-0.161611	99
Es	0.598508	-1.756460	1.411045	99
Es	-0.337995	0.236717	0.079098	99
Es	-1.018207	-0.519955	1.895178	99
Es	2.416446	1.352260	-1.321994	99
Es	-0.982764	-0.077418	0.345490	99
Es	-0.480570	-2.332124	1.321354	99
47
Properties=species:S:1:pos:R:3:Z:I:1 energy=-309.1370348523235 field_type=dipole dipole="0.000000 0.000000 0.000000" charge=0
C	-0.091544	-1.811775	1.704115	6
O	-0.768193	-0.561235	1.673605	8
C	-0.982813	-0.077395	0.345285	6
C	-2.094293	0.964955	0.416195	6
C	0.285956	0.551005	-0.161695	6
C	0.920197	0.179995	-1.286095	6
C	2.189647	0.800695	-1.770565	6
H	-0.006123	-2.128075	2.747475	1
H	0.916717	-1.723795	1.288975	1
H	-0.659994	-2.571095	1.158095	1
H	-1.318023	-0.897475	-0.301735	1
H	-1.837693	1.776505	1.107465	1
H	-3.014813	0.510445	0.799335	1
H	-2.305263	1.397095	-0.567705	1
H	0.700407	1.347165	0.455225	1
H	0.512496	-0.621775	-1.897765	1
H	2.528946	1.612175	-1.119345	1
H	2.044926	1.207625	-2.775725	1
H	2.979466	0.044955	-1.815145	1
Es	0.920271	0.179980	-1.286211	99
Es	-0.480653	-2.331816	1.321754	99
Es	-0.833543	-0.415867	1.151271	99
Es	-0.982762	-0.077419	0.345492	99
Es	2.416456	1.352460	-1.322020	99
Es	0.418945	0.586138	-0.891483	99
Es	-2.231401	1.251438	-0.256373	99
Es	-2.716624	0.649798	0.667426	99
Es	-1.204966	-0.647915	-0.106121	99
Es	2.189613	0.800673	-1.770558	99
Es	0.598614	-1.756579	1.410555	99
Es	-0.768217	-0.561552	1.673213	99
Es	-0.598419	-0.456598	1.694697	99
Es	0.561389	1.093071	0.261866	99
Es	0.645873	-0.367641	-1.708916	99
Es	-1.910485	1.518716	0.884393	99
Es	0.285902	0.551017	-0.161608	99
Es	-0.091655	-1.811585	1.704106	99
Es	2.087309	1.068965	-2.450872	99
Es	-0.517006	-1.034812	1.648215	99
Es	-1.014161	-0.515449	1.899163	99
Es	-0.338021	0.236681	0.079057	99
Es	0.773289	0.143907	-0.550549	99
Es	2.713185	0.286446	-1.799363	99
Es	-2.094277	0.964943	0.416181	99
Es	1.553888	0.492374	-1.527875	99
Es	-0.035187	-2.029321	2.416961	99
Es	-1.533970	0.451518	0.375538	99
47
Properties=species:S:1:pos:R:3:Z:I:1 energy=-309.1370348523235 field_type=dipole dipole="0.000000 0.000000 0.000000" charge=0
C	-0.091544	-1.811775	1.704115	6
O	-0.768193	-0.561235	1.673605	8
C	-0.982813	-0.077395	0.345285	6
C	-2.094293	0.964955	0.416195	6
C	0.285956	0.551005	-0.161695	6
C	0.920197	0.179995	-1.286095	6
C	2.189647	0.800695	-1.770565	6
H	-0.006123	-2.128075	2.747475	1
H	0.916717	-1.723795	1.288975	1
H	-0.659994	-2.571095	1.158095	1
H	-1.318023	-0.897475	-0.301735	1
H	-1.837693	1.776505	1.107465	1
H	-3.014813	0.510445	0.799335	1
H	-2.305263	1.397095	-0.567705	1
H	0.700407	1.347165	0.455225	1
H	0.512496	-0.621775	-1.897765	1
H	2.528946	1.612175	-1.119345	1
H	2.044926	1.207625	-2.775725	1
H	2.979466	0.044955	-1.815145	1
Es	-1.204947	-0.648014	-0.106199	99
Es	2.712913	0.286499	-1.799285	99
Es	2.416473	1.352499	-1.321793	99
Es	0.645903	-0.367682	-1.708863	99
Es	-0.338027	0.236684	0.079090	99
Es	-0.832516	-0.416942	1.150688	99
Es	-0.768227	-0.561514	1.673279	99
Es	0.285897	0.551022	-0.161612	99
Es	1.554103	0.492336	-1.528017	99
Es	-2.716555	0.649665	0.667125	99
Es	-2.231396	1.251398	-0.256064	99
Es	-1.910649	1.518851	0.884660	99
Es	-0.091655	-1.811586	1.704107	99
Es	-0.517177	-1.033457	1.648695	99
Es	-0.600380	-0.458823	1.693086	99
Es	-0.035370	-2.029366	2.416971	99
Es	-1.012981	-0.513555	1.900755	99
Es	0.598747	-1.756734	1.410196	99
Es	0.773270	0.143968	-0.550608	99
Es	-0.480714	-2.331481	1.322070	99
Es	0.561341	1.093169	0.261869	99
Es	-0.982764	-0.077418	0.345487	99
Es	0.418923	0.586075	-0.891447	99
Es	2.189614	0.800674	-1.770565	99
Es	2.087393	1.068853	-2.451025	99
Es	-2.094275	0.964941	0.416183	99
Es	-1.533825	0.451528	0.375364	99
Es	0.920270	0.179979	-1.286211	99
47
Properties=species:S:1:pos:R:3:Z:I:1 energy=-309.1370348523235 field_type=dipole dipole="0.000000 0.000000 0.000000" charge=0
C	-0.091544	-1.811775	1.704115	6
O	-0.768193	-0.561235	1.673605	8
C	-0.982813	-0.077395	0.345285	6
C	-2.094293	0.964955	0.416195	6
C	0.285956	0.551005	-0.161695	6
C	0.920197	0.179995	-1.286095	6
C	2.189647	0.800695	-1.770565	6
H	-0.006123	-2.128075	2.747475	1
H	0.916717	-1.723795	1.288975	1
H	-0.659994	-2.571095	1.158095	1
H	-1.318023	-0.897475	-0.301735	1
H	-1.837693	1.776505	1.107465	1
H	-3.014813	0.510445	0.799335	1
H	-2.305263	1.397095	-0.567705	1
H	0.700407	1.347165	0.455225	1
H	0.512496	-0.621775	-1.897765	1
H	2.528946	1.612175	-1.119345	1
H	2.044926	1.207625	-2.775725	1
H	2.979466	0.044955	-1.815145	1
Es	-2.716500	0.649654	0.667096	99
Es	-0.982764	-0.077417	0.345487	99
Es	0.773184	0.144005	-0.550674	99
Es	-0.035465	-2.029327	2.416973	99
Es	-0.768178	-0.561527	1.673299	99
Es	-0.831855	-0.416923	1.150342	99
Es	0.285893	0.551027	-0.161616	99
Es	1.554036	0.492144	-1.528113	99
Es	0.419167	0.586061	-0.891313	99
Es	2.189613	0.800673	-1.770559	99
Es	0.561421	1.093132	0.261866	99
Es	-1.204917	-0.648096	-0.106236	99
Es	-1.533847	0.451455	0.375247	99
Es	0.920271	0.179980	-1.286211	99
Es	-0.516743	-1.032595	1.648836	99
Es	-0.480749	-2.331386	1.322122	99
Es	-0.338160	0.236785	0.079079	99
Es	2.087474	1.068755	-2.450811	99
Es	0.598808	-1.756616	1.410087	99
Es	-0.091652	-1.811590	1.704108	99
Es	2.712895	0.286593	-1.799445	99
Es	-0.604435	-0.462665	1.690704	99
Es	-2.094276	0.964941	0.416184	99
Es	-1.010179	-0.510651	1.903363	99
Es	0.645825	-0.367708	-1.708849	99
Es	-2.231436	1.251253	-0.255990	99
Es	2.416522	1.352618	-1.321755	99
Es	-1.910568	1.518994	0.884718	99
47
Properties=species:S:1:pos:R:3:Z:I:1 energy=-309.1370348523235 field_type=dipole dipole="0.000000 0.000000 0.000000" charge=0
C	-0.091544	-1.811775	1.704115	6
O	-0.768193	-0.561235	1.673605	8
C	-0.982813	-0.077395	0.345285	6
C	-2.094293	0.964955	0.416195	6
C	0.285956	0.551005	-0.161695	6
C	0.920197	0.179995	-1.286095	6
C	2.189647	0.800695	-1.770565	6
H	-0.006123	-2.128075	2.747475	1
H	0.916717	-1.723795	1.288975	1
H	-0.659994	-2.571095	1.158095	1
H	-1.318023	-0.897475	-0.301735	1
H	-1.837693	1.776505	1.107465	1
H	-3.014813	0.510445	0.799335	1
H	-2.305263	1.397095	-0.567705	1
H	0.700407	1.347165	0.455225	1
H	0.512496	-0.621775	-1.897765	1
H	2.528946	1.612175	-1.119345	1
H	2.044926	1.207625	-2.775725	1
H	2.979466	0.044955	-1.815145	1
Es	-2.716869	0.649524	0.667002	99
Es	-0.609420	-0.469702	1.686879	99
Es	-0.982761	-0.077417	0.345489	99
Es	0.419453	0.586021	-0.891151	99
Es	-2.231272	1.251278	-0.255498	99
Es	0.561446	1.093101	0.261839	99
Es	-0.830504	-0.417186	1.149427	99
Es	1.554030	0.491990	-1.528012	99
Es	2.712997	0.286617	-1.799740	99
Es	-2.094275	0.964941	0.416183	99
Es	2.416657	1.352631	-1.321809	99
Es	0.645731	-0.367673	-1.708846	99
Es	-1.004232	-0.503922	1.907601	99
Es	-0.338221	0.236877	0.078858	99
Es	-0.480863	-2.331254	1.322203	99
Es	-0.518918	-1.032272	1.649265	99
Es	-0.035702	-2.029175	2.417000	99
Es	2.087447	1.068799	-2.450474	99
Es	-1.533743	0.451380	0.374977	99
Es	0.920269	0.179982	-1.286212	99
Es	0.773012	0.144036	-0.550789	99
Es	0.598975	-1.756632	1.410013	99
Es	-1.910566	1.519058	0.884623	99
Es	2.189615	0.800672	-1.770559	99
Es	-1.204959	-0.648098	-0.106085	99
Es	0.285897	0.551024	-0.161613	99
Es	-0.091653	-1.811589	1.704108	99
Es	-0.768184	-0.561442	1.673258	99
47
Properties=species:S:1:pos:R:3:Z:I:1 energy=-309.1370348523235 field_type=dipole dipole="0.000000 0.000000 0.000000" charge=0
C	-0.091544	-1.811775	1.704115	6
O	-0.768193	-0.561235	1.673605	8
C	-0.982813	-0.077395	0.345285	6
C	-2.094293	0.964955	0.416195	6
C	0.285956	0.551005	-0.161695	6
C	0.920197	0.179995	-1.286095	6
C	2.189647	0.800695	-1.770565	6
H	-0.006123	-2.128075	2.747475	1
H	0.916717	-1.723795	1.288975	1
H	-0.659994	-2.571095	1.158095	1
H	-1.318023	-0.897475	-0.301735	1
H	-1.837693	1.776505	1.107465	1
H	-3.014813	0.510445	0.799335	1
H	-2.305263	1.397095	-0.567705	1
H	0.700407	1.347165	0.455225	1
H	0.512496	-0.621775	-1.897765	1
H	2.528946	1.612175	-1.119345	1
H	2.044926	1.207625	-2.775725	1
H	2.979466	0.044955	-1.815145	1
Es	-0.768147	-0.561475	1.673337	99
Es	-1.533531	0.451237	0.374594	99
Es	2.087780	1.068519	-2.450715	99
Es	-0.614638	-0.471760	1.684884	99
Es	-2.231267	1.251170	-0.255176	99
Es	0.419464	0.585809	-0.891069	99
Es	0.561510	1.093265	0.261790	99
Es	2.416840	1.352712	-1.321834	99
Es	-0.091653	-1.811587	1.704107	99
Es	-1.205060	-0.648180	-0.106060	99
Es	-0.515153	-1.030729	1.649636	99
Es	0.285898	0.551022	-0.161613	99
Es	2.189614	0.800673	-1.770559	99
Es	0.772937	0.144225	-0.550890	99
Es	-0.480912	-2.331150	1.322278	99
Es	2.712594	0.286800	-1.799478	99
Es	-2.094277	0.964942	0.416182	99
Es	-0.982765	-0.077417	0.345486	99
Es	-1.910613	1.519230	0.884893	99
Es	-1.002783	-0.503053	1.909153	99
Es	0.645748	-0.367816	-1.708778	99
Es	-0.830652	-0.417496	1.149463	99
Es	-0.338123	0.236871	0.078875	99
Es	0.599007	-1.756597	1.409868	99
Es	-0.035814	-2.029076	2.417089	99
Es	-2.716788	0.649427	0.666717	99
Es	0.920271	0.179980	-1.286212	99
Es	1.553897	0.492021	-1.528032	99
47
Properties=species:S:1:pos:R:3:Z:I:1 energy=-309.1370348523235 field_type=dipole dipole="0.000000 0.000000 0.000000" charge=0
C	-0.091544	-1.811775	1.704115	6
O	-0.768193	-0.561235	1.673605	8
C	-0.982813	-0.077395	0.345285	6
C	-2.094293	0.964955	0.416195	6
C	0.285956	0.551005	-0.161695	6
C	0.920197	0.179995	-1.286095	6
C	2.189647	0.800695	-1.770565	6
H	-0.006123	-2.128075	2.747475	1
H	0.916717	-1.723795	1.288975	1
H	-0.659994	-2.571095	1.158095	1
H	-1.318023	-0.897475	-0.301735	1
H	-1.837693	1.776505	1.107465	1
H	-3.014813	0.510445	0.799335	1
H	-2.305263	1.397095	-0.567705	1
H	0.700407	1.347165	0.455225	1
H	0.512496	-0.621775	-1.897765	1
H	2.528946	1.612175	-1.119345	1
H	2.044926	1.207625	-2.775725	1
H	2.979466	0.044955	-1.815145	1
Es	0.561441	1.093239	0.261816	99
Es	-0.480901	-2.330779	1.322697	99
Es	0.772969	0.144067	-0.550861	99
Es	0.285897	0.551023	-0.161612	99
Es	-0.035946	-2.029039	2.417228	99
Es	-0.091655	-1.811586	1.704106	99
Es	0.599024	-1.756756	1.409365	99
Es	-2.231499	1.251207	-0.255055	99
Es	-0.338257	0.236946	0.078911	99
Es	-1.204929	-0.648242	-0.106186	99
Es	-2.094276	0.964941	0.416184	99
Es	-2.716527	0.649511	0.666632	99
Es	2.712795	0.286693	-1.799592	99
Es	-0.518054	-1.030195	1.649621	99
Es	-0.613538	-0.472444	1.685474	99
Es	-0.828834	-0.418083	1.148845	99
Es	-1.533506	0.451209	0.374462	99
Es	2.087711	1.068580	-2.450526	99
Es	-0.982762	-0.077416	0.345487	99
Es	0.419444	0.585959	-0.891098	99
Es	-1.910712	1.519243	0.885076	99
Es	0.645824	-0.367811	-1.708811	99
Es	2.189614	0.800673	-1.770559	99
Es	-1.003052	-0.502706	1.909110	99
Es	2.416623	1.352749	-1.321727	99
Es	0.920272	0.179979	-1.286211	99
Es	-0.767770	-0.561294	1.673274	99
Es	1.553993	0.491902	-1.528114	99
47
Properties=species:S:1:pos:R:3:Z:I:1 energy=-309.1370348523235 field_type=dipole dipole="0.000000 0.000000 0.000000" charge=0
C	-0.091544	-1.811775	1.704115	6
O	-0.768193	-0.561235	1.673605	8
C	-0.982813	-0.077395	0.345285	6
C	-2.094293	0.964955	0.416195	6
C	0.285956	0.551005	-0.161695	6
C	0.920197	0.179995	-1.286095	6
C	2.189647	0.800695	-1.770565	6
H	-0.006123	-2.128075	2.747475	1
H	0.916717	-1.723795	1.288975	1
H	-0.659994	-2.571095	1.158095	1
H	-1.318023	-0.897475	-0.301735	1
H	-1.837693	1.776505	1.107465	1
H	-3.014813	0.510445	0.799335	1
H	-2.305263	1.397095	-0.567705	1
H	0.700407	1.347165	0.455225	1
H	0.512496	-0.621775	-1.897765	1
H	2.528946	1.612175	-1.119345	1
H	2.044926	1.207625	-2.775725	1
H	2.979466	0.044955	-1.815145	1
Es	2.189614	0.800673	-1.770559	99
Es	0.285897	0.551023	-0.161612	99
Es	-2.231263	1.251188	-0.254637	99
Es	-0.091655	-1.811585	1.704106	99
Es	-0.982766	-0.077415	0.345484	99
Es	-0.036106	-2.028864	2.417211	99
Es	0.772862	0.144267	-0.551017	99
Es	1.553875	0.491894	-1.528200	99
Es	-0.481004	-2.330780	1.322710	99
Es	-1.910542	1.519294	0.884902	99
Es	-0.828816	-0.419198	1.148132	99
Es	0.645776	-0.367863	-1.708702	99
Es	-0.338213	0.236954	0.078845	99
Es	0.920271	0.179980	-1.286210	99
Es	0.599162	-1.756711	1.409376	99
Es	-0.998186	-0.497964	1.912231	99
Es	0.561470	1.093302	0.261762	99
Es	-0.767582	-0.561199	1.673298	99
Es	-1.205114	-0.648250	-0.106141	99
Es	2.712544	0.286861	-1.799537	99
Es	0.419564	0.585751	-0.890939	99
Es	-2.094276	0.964941	0.416184	99
Es	-0.515420	-1.028841	1.650840	99
Es	2.088008	1.068295	-2.450456	99
Es	-0.621251	-0.477634	1.681735	99
Es	-1.533304	0.451143	0.374287	99
Es	-2.716998	0.649380	0.666650	99
Es	2.416838	1.352928	-1.321804	99
47
Properties=species:S:1:pos:R:3:Z:I:1 energy=-309.1370348523235 field_type=dipole dipole="0.000000 0.000000 0.000000" charge=0
C	-0.091544	-1.811775	1.704115	6
O	-0.768193	-0.561235	1.673605	8
C	-0.982813	-0.077395	0.345285	6
C	-2.094293	0.964955	0.416195	6
C	0.285956	0.551005	-0.161695	6
C	0.920197	0.179995	-1.286095	6
C	2.189647	0.800695	-1.770565	6
H	-0.006123	-2.128075	2.747475	1
H	0.916717	-1.723795	1.288975	1
H	-0.659994	-2.571095	1.158095	1
H	-1.318023	-0.897475	-0.301735	1
H	-1.837693	1.776505	1.107465	1
H	-3.014813	0.510445	0.799335	1
H	-2.305263	1.397095	-0.567705	1
H	0.700407	1.347165	0.455225	1
H	0.512496	-0.621775	-1.897765	1
H	2.528946	1.612175	-1.119345	1
H	2.044926	1.207625	-2.775725	1
H	2.979466	0.044955	-1.815145	1
Es	-1.205065	-0.648252	-0.106102	99
Es	-0.995136	-0.494536	1.913978	99
Es	-1.533221	0.451138	0.374030	99
Es	-0.827495	-0.420404	1.147223	99
Es	-0.480984	-2.330593	1.322867	99
Es	0.645723	-0.367847	-1.708652	99
Es	0.285899	0.551019	-0.161609	99
Es	2.712837	0.286857	-1.799846	99
Es	2.416796	1.352847	-1.321854	99
Es	0.419686	0.585809	-0.890878	99
Es	-0.622770	-0.480529	1.680159	99
Es	0.920271	0.179980	-1.286211	99
Es	2.087778	1.068489	-2.450186	99
Es	1.553987	0.491664	-1.528080	99
Es	-0.768180	-0.561511	1.673295	99
Es	-0.036191	-2.028927	2.417192	99
Es	-2.231409	1.251200	-0.254328	99
Es	0.772759	0.144307	-0.551101	99
Es	-0.091654	-1.811587	1.704107	99
Es	-2.717015	0.649290	0.666697	99
Es	-1.910576	1.519341	0.884838	99
Es	-0.982764	-0.077418	0.345486	99
Es	0.561514	1.093261	0.261741	99
Es	2.189614	0.800673	-1.770559	99
Es	-0.338299	0.237016	0.078783	99
Es	-0.517633	-1.027837	1.651534	99
Es	0.599191	-1.756826	1.409231	99
Es	-2.094277	0.964943	0.416183	99
47
Properties=species:S:1:pos:R:3:Z:I:1 energy=-309.1370348523235 field_type=dipole dipole="0.000000 0.000000 0.000000" charge=0
C	-0.091544	-1.811775	1.704115	6
O	-0.768193	-0.561235	1.673605	8
C	-0.982813	-0.077395	0.345285	6
C	-2.094293	0.964955	0.416195	6
C	0.285956	0.551005	-0.161695	6
C	0.920197	0.179995	-1.286095	6
C	2.189647	0.800695	-1.770565	6
H	-0.006123	-2.128075	2.747475	1
H	0.916717	-1.723795	1.288975	1
H	-0.659994	-2.571095	1.158095	1
H	-1.318023	-0.897475	-0.301735	1
H	-1.837693	1.776505	1.107465	1
H	-3.014813	0.510445	0.799335	1
H	-2.305263	1.397095	-0.567705	1
H	0.700407	1.347165	0.455225	1
H	0.512496	-0.621775	-1.897765	1
H	2.528946	1.612175	-1.119345	1
H	2.044926	1.207625	-2.775725	1
H	2.979466	0.044955	-1.815145	1
Es	0.285897	0.551023	-0.161612	99
Es	0.772768	0.144324	-0.551019	99
Es	-0.091655	-1.811583	1.704105	99
Es	-0.768192	-0.561517	1.673179	99
Es	-0.516377	-1.026938	1.651863	99
Es	0.645797	-0.367943	-1.708593	99
Es	-0.982765	-0.077416	0.345485	99
Es	-0.338289	0.237080	0.078802	99
Es	2.088016	1.068280	-2.450388	99
Es	2.712562	0.286983	-1.799620	99
Es	0.920272	0.179979	-1.286210	99
Es	-1.205124	-0.648321	-0.106111	99
Es	-0.625742	-0.482279	1.679001	99
Es	-1.910504	1.519357	0.884940	99
Es	0.561490	1.093358	0.261657	99
Es	1.553895	0.491727	-1.528159	99
Es	-2.231504	1.251275	-0.253826	99
Es	-2.717077	0.649273	0.666594	99
Es	-1.533008	0.450971	0.373534	99
Es	-0.481019	-2.330442	1.323157	99
Es	-0.993631	-0.493265	1.915027	99
Es	0.599267	-1.756882	1.408942	99
Es	0.419732	0.585675	-0.890892	99
Es	-0.036309	-2.028777	2.417243	99
Es	-2.094276	0.964942	0.416183	99
Es	-0.827320	-0.420917	1.147056	99
Es	2.416868	1.352928	-1.321839	99
Es	2.189614	0.800673	-1.770559	99
47
Properties=species:S:1:pos:R:3:Z:I:1 energy=-309.1370348523235 field_type=dipole dipole="0.000000 0.000000 0.000000" charge=0
C	-0.091544	-1.811775	1.704115	6
O	-0.768193	-0.561235	1.673605	8
C	-0.982813	-0.077395	0.345285	6
C	-2.094293	0.964955	0.416195	6
C	0.285956	0.551005	-0.161695	6
C	0.920197	0.179995	-1.286095	6
C	2.189647	0.800695	-1.770565	6
H	-0.006123	-2.128075	2.747475	1
H	0.916717	-1.723795	1.288975	1
H	-0.659994	-2.571095	1.158095	1
H	-1.318023	-0.897475	-0.301735	1
H	-1.837693	1.776505	1.107465	1
H	-3.014813	0.510445	0.799335	1
H	-2.305263	1.397095	-0.567705	1
H	0.700407	1.347165	0.455225	1
H	0.512496	-0.621775	-1.897765	1
H	2.528946	1.612175	-1.119345	1
H	2.044926	1.207625	-2.775725	1
H	2.979466	0.044955	-1.815145	1
Es	0.285898	0.551023	-0.161612	99
Es	-0.091654	-1.811587	1.704107	99
Es	2.189614	0.800673	-1.770559	99
Es	2.712585	0.286956	-1.799847	99
Es	-2.231590	1.251191	-0.253570	99
Es	0.772762	0.144295	-0.551023	99
Es	-0.516549	-1.026316	1.651870	99
Es	2.416831	1.352944	-1.321616	99
Es	0.599268	-1.756882	1.408837	99
Es	0.419761	0.585696	-0.890883	99
Es	-0.993580	-0.493132	1.915204	99
Es	0.920271	0.179979	-1.286210	99
Es	-0.825812	-0.420737	1.146800	99
Es	1.554061	0.491623	-1.528301	99
Es	-0.481040	-2.330296	1.323200	99
Es	-0.982765	-0.077416	0.345484	99
Es	-2.716991	0.649355	0.666464	99
Es	-0.768293	-0.561557	1.673252	99
Es	-2.094275	0.964941	0.416184	99
Es	-1.910634	1.519486	0.884999	99
Es	2.087915	1.068354	-2.450210	99
Es	-0.626923	-0.483285	1.678923	99
Es	0.645752	-0.367863	-1.708640	99
Es	-1.204988	-0.648417	-0.106205	99
Es	-0.338345	0.236982	0.078872	99
Es	0.561415	1.093365	0.261713	99
Es	-0.036428	-2.028683	2.417352	99
Es	-1.532879	0.450874	0.373352	99
47
Properties=species:S:1:pos:R:3:Z:I:1 energy=-309.1370348523235 field_type=dipole dipole="0.000000 0.000000 0.000000" charge=0
C	-0.091544	-1.811775	1.704115	6
O	-0.768193	-0.561235	1.673605	8
C	-0.982813	-0.077395	0.345285	6
C	-2.094293	0.964955	0.416195	6
C	0.285956	0.551005	-0.161695	6
C	0.920197	0.179995	-1.286095	6
C	2.189647	0.800695	-1.770565	6
H	-0.006123	-2.128075	2.747475	1
H	0.916717	-1.723795	1.288975	1
H	-0.659994	-2.571095	1.158095	1
H	-1.318023	-0.897475	-0.301735	1
H	-1.837693	1.776505	1.107465	1
H	-3.014813	0.510445	0.799335	1
H	-2.305263	1.397095	-0.567705	1
H	0.700407	1.347165	0.455225	1
H	0.512496	-0.621775	-1.897765	1
H	2.528946	1.612175	-1.119345	1
H	2.044926	1.207625	-2.775725	1
H	2.979466	0.044955	-1.815145	1
Es	-1.205083	-0.648404	-0.106105	99
Es	0.645810	-0.367942	-1.708611	99
Es	-0.515866	-1.025109	1.652734	99
Es	-0.481036	-2.330251	1.323254	99
Es	0.285897	0.551023	-0.161613	99
Es	-1.532709	0.450855	0.373019	99
Es	2.088411	1.068044	-2.450514	99
Es	-0.036405	-2.028793	2.417246	99
Es	-2.231552	1.251179	-0.253220	99
Es	-0.091654	-1.811587	1.704107	99
Es	2.416910	1.353012	-1.321854	99
Es	-0.982764	-0.077417	0.345485	99
Es	2.712305	0.287147	-1.799360	99
Es	0.419801	0.585581	-0.890730	99
Es	0.561461	1.093419	0.261623	99
Es	-0.338381	0.237098	0.078740	99
Es	-2.717174	0.649216	0.666458	99
Es	0.920272	0.179979	-1.286210	99
Es	-1.910568	1.519536	0.884944	99
Es	-0.825376	-0.421660	1.146404	99
Es	0.772785	0.144307	-0.551099	99
Es	1.553766	0.491683	-1.528216	99
Es	2.189613	0.800673	-1.770558	99
Es	-2.094276	0.964941	0.416184	99
Es	-0.990771	-0.490256	1.916735	99
Es	0.599287	-1.756856	1.408770	99
Es	-0.767980	-0.561394	1.673299	99
Es	-0.631337	-0.486454	1.677027	99
47
Properties=species:S:1:pos:R:3:Z:I:1 energy=-309.1370348523235 field_type=dipole dipole="0.000000 0.000000 0.000000" charge=0
C	-0.091544	-1.811775	1.704115	6
O	-0.768193	-0.561235	1.673605	8
C	-0.982813	-0.077395	0.345285	6
C	-2.094293	0.964955	0.416195	6
C	0.285956	0.551005	-0.161695	6
C	0.920197	0.179995	-1.286095	6
C	2.189647	0.800695	-1.770565	6
H	-0.006123	-2.128075	2.747475	1
H	0.916717	-1.723795	1.288975	1
H	-0.659994	-2.571095	1.158095	1
H	-1.318023	-0.897475	-0.301735	1
H	-1.837693	1.776505	1.107465	1
H	-3.014813	0.510445	0.799335	1
H	-2.305263	1.397095	-0.567705	1
H	0.700407	1.347165	0.455225	1
H	0.512496	-0.621775	-1.897765	1
H	2.528946	1.612175	-1.119345	1
H	2.044926	1.207625	-2.775725	1
H	2.979466	0.044955	-1.815145	1
Es	-0.091654	-1.811589	1.704107	99
Es	-0.982765	-0.077417	0.345485	99
Es	-0.823931	-0.422511	1.145701	99
Es	2.416683	1.353081	-1.321775	99
Es	0.419646	0.585709	-0.890857	99
Es	-0.518145	-1.024211	1.652799	99
Es	-2.716826	0.649273	0.666242	99
Es	-0.036613	-2.028664	2.417419	99
Es	0.285897	0.551022	-0.161612	99
Es	-0.628952	-0.485466	1.678036	99
Es	-2.231750	1.251223	-0.253100	99
Es	-0.480955	-2.329996	1.323492	99
Es	-1.204972	-0.648475	-0.106137	99
Es	2.189615	0.800672	-1.770561	99
Es	2.087731	1.068340	-2.449841	99
Es	0.645895	-0.367988	-1.708618	99
Es	0.561347	1.093417	0.261657	99
Es	0.772926	0.144249	-0.551014	99
Es	-1.532672	0.450841	0.372853	99
Es	1.553929	0.491589	-1.528252	99
Es	0.920272	0.179979	-1.286210	99
Es	-1.910817	1.519541	0.885237	99
Es	-2.094277	0.964942	0.416183	99
Es	-0.991894	-0.491341	1.916186	99
Es	0.599308	-1.756989	1.408522	99
Es	-0.338342	0.237044	0.078791	99
Es	-0.768252	-0.561538	1.673267	99
Es	2.712956	0.286830	-1.800061	99
47
Properties=species:S:1:pos:R:3:Z:I:1 energy=-309.1370348523235 field_type=dipole dipole="0.000000 0.000000 0.000000" charge=0
C	-0.091544	-1.811775	1.704115	6
O	-0.768193	-0.561235	1.673605	8
C	-0.982813	-0.077395	0.345285	6
C	-2.094293	0.964955	0.416195	6
C	0.285956	0.551005	-0.161695	6
C	0.920197	0.179995	-1.286095	6
C	2.189647	0.800695	-1.770565	6
H	-0.006123	-2.128075	2.747475	1
H	0.916717	-1.723795	1.288975	1
H	-0.659994	-2.571095	1.158095	1
H	-1.318023	-0.897475	-0.301735	1
H	-1.837693	1.776505	1.107465	1
H	-3.014813	0.510445	0.799335	1
H	-2.305263	1.397095	-0.567705	1
H	0.700407	1.347165	0.455225	1
H	0.512496	-0.621775	-1.897765	1
H	2.528946	1.612175	-1.119345	1
H	2.044926	1.207625	-2.775725	1
H	2.979466	0.044955	-1.815145	1
Es	1.553885	0.491502	-1.528209	99
Es	-0.767091	-0.560990	1.673225	99
Es	0.419753	0.585663	-0.890755	99
Es	2.416809	1.353158	-1.321917	99
Es	0.772805	0.144303	-0.551124	99
Es	2.712836	0.286939	-1.799959	99
Es	-1.532635	0.450793	0.372768	99
Es	-2.094276	0.964942	0.416184	99
Es	-0.338337	0.237084	0.078710	99
Es	2.087921	1.068172	-2.449861	99
Es	-0.481033	-2.330144	1.323248	99
Es	-2.717045	0.649264	0.666301	99
Es	-0.036648	-2.028609	2.417381	99
Es	0.561425	1.093424	0.261616	99
Es	0.599368	-1.756836	1.408785	99
Es	0.645802	-0.367976	-1.708535	99
Es	0.285896	0.551021	-0.161612	99
Es	-1.205098	-0.648453	-0.106076	99
Es	-0.091653	-1.811588	1.704107	99
Es	-2.231679	1.251143	-0.252855	99
Es	-0.982763	-0.077416	0.345485	99
Es	-0.635302	-0.489592	1.676389	99
Es	-0.516967	-1.023040	1.653243	99
Es	-1.910670	1.519631	0.885096	99
Es	2.189614	0.800673	-1.770559	99
Es	-0.822583	-0.422499	1.145340	99
Es	-0.989220	-0.488980	1.917732	99
Es	0.920272	0.179979	-1.286210	99
47
Properties=species:S:1:pos:R:3:Z:I:1 energy=-309.1370348523235 field_type=dipole dipole="0.000000 0.000000 0.000000" charge=0
C	-0.091544	-1.811775	1.704115	6
O	-0.768193	-0.561235	1.673605	8
C	-0.982813	-0.077395	0.345285	6
C	-2.094293	0.964955	0.416195	6
C	0.285956	0.551005	-0.161695	6
C	0.920197	0.179995	-1.286095	6
C	2.189647	0.800695	-1.770565	6
H	-0.006123	-2.128075	2.747475	1
H	0.916717	-1.723795	1.288975	1
H	-0.659994	-2.571095	1.158095	1
H	-1.318023	-0.897475	-0.301735	1
H	-1.837693	1.776505	1.107465	1
H	-3.014813	0.510445	0.799335	1
H	-2.305263	1.397095	-0.567705	1
H	0.700407	1.347165	0.455225	1
H	0.512496	-0.621775	-1.897765	1
H	2.528946	1.612175	-1.119345	1
H	2.044926	1.207625	-2.775725	1
H	2.979466	0.044955	-1.815145	1
Es	0.645774	-0.367941	-1.708536	99
Es	-0.638278	-0.491934	1.675523	99
Es	0.772765	0.144304	-0.551125	99
Es	-0.767049	-0.560961	1.673203	99
Es	-1.910669	1.519601	0.885074	99
Es	-0.982764	-0.077417	0.345486	99
Es	0.419807	0.585661	-0.890753	99
Es	1.553959	0.491520	-1.528334	99
Es	0.561438	1.093383	0.261637	99
Es	-0.517295	-1.021950	1.654007	99
Es	-1.532392	0.450751	0.372309	99
Es	-2.717107	0.649189	0.666326	99
Es	2.087658	1.068468	-2.449466	99
Es	-0.820888	-0.423173	1.144790	99
Es	-2.094276	0.964941	0.416184	99
Es	-0.091652	-1.811590	1.704109	99
Es	2.713011	0.286764	-1.800443	99
Es	-0.987645	-0.487116	1.918404	99
Es	-0.481021	-2.330073	1.323216	99
Es	2.416856	1.353036	-1.321714	99
Es	0.920271	0.179978	-1.286211	99
Es	-2.231830	1.251234	-0.252394	99
Es	-0.338341	0.237092	0.078735	99
Es	0.285896	0.551025	-0.161614	99
Es	-1.205095	-0.648478	-0.106106	99
Es	2.189614	0.800673	-1.770559	99
Es	-0.036723	-2.028602	2.417402	99
Es	0.599364	-1.756815	1.408789	99
