43
Properties=species:S:1:pos:R:3:Z:I:1 energy=-270.90576261977674 field_type=dipole dipole="0.000000 0.000000 0.000000" charge=0
C	-0.179096	-2.098002	-0.874025	6
C	-0.528826	-1.052022	0.179785	6
C	0.040444	0.342648	-0.139165	6
C	-0.446737	1.340458	0.885775	6
C	-1.201836	2.411808	0.605165	6
C	1.484443	0.342648	-0.139165	6
C	2.674604	0.342648	-0.139165	6
H	-0.675806	-3.045582	-0.641785	1
H	0.898054	-2.289083	-0.907795	1
H	-0.505006	-1.779042	-1.869045	1
H	-0.169766	-1.403592	1.156205	1
H	-1.622766	-0.991572	0.249575	1
H	-0.317906	0.640068	-1.133515	1
H	-0.156776	1.163178	1.920575	1
H	-1.517436	2.639708	-0.408105	1
H	-1.515726	3.089818	1.392795	1
H	3.740144	0.345918	-0.138105	1
Es	0.788282	0.340166	-0.136726	99
Es	2.088994	0.358222	-0.493961	99
Es	-0.521175	-2.741152	-0.712452	99
Es	-0.279080	-1.283801	0.847188	99
Es	-0.528785	-1.051987	0.179742	99
Es	2.091172	0.642601	0.054627	99
Es	-0.179116	-2.097977	-0.874002	99
Es	-0.188037	0.840883	0.369822	99
Es	1.484173	0.342650	-0.139165	99
Es	-0.187777	0.544007	-0.807337	99
Es	-0.345552	-1.566308	-0.352740	99
Es	2.674858	0.342646	-0.139158	99
Es	0.550768	-2.224203	-0.895901	99
Es	-1.419004	2.874220	1.133800	99
Es	-1.274412	-1.001060	0.223363	99
Es	0.040545	0.342651	-0.139110	99
Es	-0.245302	1.207804	1.582686	99
Es	2.092072	0.022708	0.027142	99
Es	-0.404029	-1.874044	-1.552298	99
Es	-1.105371	1.702739	0.783343	99
Es	-1.418030	2.569381	-0.082186	99
Es	3.371303	0.344157	-0.138545	99
Es	-0.446655	1.340336	0.885763	99
Es	-0.564477	2.062726	0.697421	99
Es	-0.216671	-0.336798	0.022178	99
Es	-1.201897	2.411885	0.605141	99
43
Properties=species:S:1:pos:R:3:Z:I:1 energy=-270.90576261977674 field_type=dipole dipole="0.000000 0.000000 0.000000" charge=0
C	-0.179096	-2.098002	-0.874025	6
C	-0.528826	-1.052022	0.179785	6
C	0.040444	0.342648	-0.139165	6
C	-0.446737	1.340458	0.885775	6
C	-1.201836	2.411808	0.605165	6
C	1.484443	0.342648	-0.139165	6
C	2.674604	0.342648	-0.139165	6
H	-0.675806	-3.045582	-0.641785	1
H	0.898054	-2.289083	-0.907795	1
H	-0.505006	-1.779042	-1.869045	1
H	-0.169766	-1.403592	1.156205	1
H	-1.622766	-0.991572	0.249575	1
H	-0.317906	0.640068	-1.133515	1
H	-0.156776	1.163178	1.920575	1
H	-1.517436	2.639708	-0.408105	1
H	-1.515726	3.089818	1.392795	1
H	3.740144	0.345918	-0.138105	1
Es	-0.345677	-1.566171	-0.352797	99
Es	-0.528782	-1.051986	0.179740	99
Es	3.372876	0.340929	-0.137827	99
Es	-0.277373	-1.283705	0.845235	99
Es	-1.421780	2.567501	-0.080020	99
Es	-0.522765	-2.738465	-0.712691	99
Es	2.091164	0.005468	-0.007124	99
Es	-0.242321	1.209811	1.580348	99
Es	2.089458	0.398529	-0.480875	99
Es	-0.189289	0.543776	-0.805392	99
Es	-0.179115	-2.097976	-0.874001	99
Es	2.091301	0.619659	0.075997	99
Es	2.674879	0.342646	-0.139161	99
Es	-0.405684	-1.874151	-1.549991	99
Es	0.040545	0.342652	-0.139111	99
Es	-1.422466	2.871039	1.132677	99
Es	0.791061	0.342920	-0.137571	99
Es	-1.201897	2.411881	0.605142	99
Es	-0.186420	0.840909	0.369333	99
Es	-1.278385	-1.001102	0.223397	99
Es	1.484163	0.342651	-0.139168	99
Es	-0.446650	1.340345	0.885763	99
Es	-0.559899	2.065692	0.696649	99
Es	0.555224	-2.225055	-0.895902	99
Es	-1.108533	1.700933	0.784206	99
Es	-0.216834	-0.336278	0.021776	99
43
Properties=species:S:1:pos:R:3:Z:I:1 energy=-270.90576261977674 field_type=dipole dipole="0.000000 0.000000 0.000000" charge=0
C	-0.179096	-2.098002	-0.874025	6
C	-0.528826	-1.052022	0.179785	6
C	0.040444	0.342648	-0.139165	6
C	-0.446737	1.340458	0.885775	6
C	-1.201836	2.411808	0.605165	6
C	1.484443	0.342648	-0.139165	6
C	2.674604	0.342648	-0.139165	6
H	-0.675806	-3.045582	-0.641785	1
H	0.898054	-2.289083	-0.907795	1
H	-0.505006	-1.779042	-1.869045	1
H	-0.169766	-1.403592	1.156205	1
H	-1.622766	-0.991572	0.249575	1
H	-0.317906	0.640068	-1.133515	1
H	-0.156776	1.163178	1.920575	1
H	-1.517436	2.639708	-0.408105	1
H	-1.515726	3.089818	1.392795	1
H	3.740144	0.345918	-0.138105	1
Es	-0.345787	-1.565942	-0.352920	99
Es	-0.216823	-0.335932	0.021606	99
Es	2.092648	0.670828	-0.292688	99
Es	-0.189959	0.543427	-0.804297	99
Es	-1.424255	2.869080	1.132006	99
Es	-0.179114	-2.097978	-0.874002	99
Es	-0.406606	-1.874141	-1.548836	99
Es	-1.423594	2.566274	-0.078855	99
Es	2.087010	0.311851	0.200593	99
Es	0.557288	-2.225574	-0.895622	99
Es	-0.523545	-2.736665	-0.712627	99
Es	0.792496	0.343759	-0.137719	99
Es	2.092315	0.042938	-0.321248	99
Es	1.484161	0.342664	-0.139171	99
Es	-0.185722	0.841216	0.369063	99
Es	3.373282	0.337657	-0.136306	99
Es	-1.109742	1.699926	0.784732	99
Es	-0.276366	-1.283957	0.844245	99
Es	-1.201902	2.411880	0.605142	99
Es	0.040545	0.342653	-0.139111	99
Es	2.674881	0.342639	-0.139158	99
Es	-1.280289	-1.001044	0.223108	99
Es	-0.557861	2.067553	0.696230	99
Es	-0.528784	-1.051987	0.179742	99
Es	-0.446656	1.340345	0.885762	99
Es	-0.240820	1.210982	1.578963	99
43
Properties=species:S:1:pos:R:3:Z:I:1 energy=-270.90576261977674 field_type=dipole dipole="0.000000 0.000000 0.000000" charge=0
C	-0.179096	-2.098002	-0.874025	6
C	-0.528826	-1.052022	0.179785	6
C	0.040444	0.342648	-0.139165	6
C	-0.446737	1.340458	0.885775	6
C	-1.201836	2.411808	0.605165	6
C	1.484443	0.342648	-0.139165	6
C	2.674604	0.342648	-0.139165	6
H	-0.675806	-3.045582	-0.641785	1
H	0.898054	-2.289083	-0.907795	1
H	-0.505006	-1.779042	-1.869045	1
H	-0.169766	-1.403592	1.156205	1
H	-1.622766	-0.991572	0.249575	1
H	-0.317906	0.640068	-1.133515	1
H	-0.156776	1.163178	1.920575	1
H	-1.517436	2.639708	-0.408105	1
H	-1.515726	3.089818	1.392795	1
H	3.740144	0.345918	-0.138105	1
Es	-0.523850	-2.735218	-0.712900	99
Es	1.484163	0.342652	-0.139171	99
Es	-0.185027	0.841419	0.369022	99
Es	2.091259	0.594756	-0.394113	99
Es	-0.216894	-0.335596	0.021351	99
Es	-0.406972	-1.874352	-1.548106	99
Es	-0.557034	2.068436	0.695812	99
Es	-0.345950	-1.565718	-0.353089	99
Es	-1.110141	1.699516	0.785232	99
Es	0.793446	0.344822	-0.138011	99
Es	-0.528789	-1.051989	0.179740	99
Es	-0.239918	1.212433	1.577777	99
Es	-1.424922	2.564940	-0.077847	99
Es	-0.275744	-1.283929	0.843596	99
Es	2.088934	0.446029	0.162692	99
Es	-0.190163	0.543065	-0.803501	99
Es	0.558362	-2.226222	-0.895369	99
Es	-0.179114	-2.097978	-0.874002	99
Es	-1.201905	2.411879	0.605143	99
Es	0.040545	0.342653	-0.139112	99
Es	2.674876	0.342657	-0.139157	99
Es	-0.446654	1.340346	0.885762	99
Es	-1.281327	-1.000683	0.223041	99
Es	2.091701	-0.016207	-0.182059	99
Es	-1.425591	2.867866	1.131738	99
Es	3.373507	0.336878	-0.135836	99
43
Properties=species:S:1:pos:R:3:Z:I:1 energy=-270.90576261977674 field_type=dipole dipole="0.000000 0.000000 0.000000" charge=0
C	-0.179096	-2.098002	-0.874025	6
C	-0.528826	-1.052022	0.179785	6
C	0.040444	0.342648	-0.139165	6
C	-0.446737	1.340458	0.885775	6
C	-1.201836	2.411808	0.605165	6
C	1.484443	0.342648	-0.139165	6
C	2.674604	0.342648	-0.139165	6
H	-0.675806	-3.045582	-0.641785	1
H	0.898054	-2.289083	-0.907795	1
H	-0.505006	-1.779042	-1.869045	1
H	-0.169766	-1.403592	1.156205	1
H	-1.622766	-0.991572	0.249575	1
H	-0.317906	0.640068	-1.133515	1
H	-0.156776	1.163178	1.920575	1
H	-1.517436	2.639708	-0.408105	1
H	-1.515726	3.089818	1.392795	1
H	3.740144	0.345918	-0.138105	1
Es	-0.555826	2.069808	0.695367	99
Es	2.674883	0.342635	-0.139158	99
Es	-0.179113	-2.097978	-0.874002	99
Es	0.040546	0.342652	-0.139111	99
Es	2.087272	0.189342	0.173836	99
Es	1.484156	0.342647	-0.139163	99
Es	-0.216786	-0.335238	0.021149	99
Es	-1.111096	1.698573	0.785905	99
Es	0.794168	0.344828	-0.138931	99
Es	-0.184399	0.840948	0.369054	99
Es	-0.446648	1.340349	0.885760	99
Es	2.092168	0.134214	-0.387267	99
Es	-0.275331	-1.284279	0.842772	99
Es	-0.524498	-2.734383	-0.713125	99
Es	-0.528788	-1.051987	0.179741	99
Es	-0.239798	1.213210	1.576413	99
Es	2.092747	0.703940	-0.199288	99
Es	-1.426113	2.867162	1.131250	99
Es	-1.425566	2.564354	-0.076887	99
Es	-0.190421	0.543041	-0.802662	99
Es	0.559195	-2.226547	-0.895373	99
Es	-1.282130	-1.000816	0.222925	99
Es	-0.345964	-1.565669	-0.352881	99
Es	-0.407264	-1.873937	-1.547086	99
Es	-1.201897	2.411882	0.605142	99
Es	3.373304	0.333701	-0.135748	99
43
Properties=species:S:1:pos:R:3:Z:I:1 energy=-270.90576261977674 field_type=dipole dipole="0.000000 0.000000 0.000000" charge=0
C	-0.179096	-2.098002	-0.874025	6
C	-0.528826	-1.052022	0.179785	6
C	0.040444	0.342648	-0.139165	6
C	-0.446737	1.340458	0.885775	6
C	-1.201836	2.411808	0.605165	6
C	1.484443	0.342648	-0.139165	6
C	2.674604	0.342648	-0.139165	6
H	-0.675806	-3.045582	-0.641785	1
H	0.898054	-2.289083	-0.907795	1
H	-0.505006	-1.779042	-1.869045	1
H	-0.169766	-1.403592	1.156205	1
H	-1.622766	-0.991572	0.249575	1
H	-0.317906	0.640068	-1.133515	1
H	-0.156776	1.163178	1.920575	1
H	-1.517436	2.639708	-0.408105	1
H	-1.515726	3.089818	1.392795	1
H	3.740144	0.345918	-0.138105	1
Es	-0.183823	0.841427	0.368985	99
Es	-0.238846	1.214139	1.576463	99
Es	-0.191043	0.542887	-0.802859	99
Es	0.559556	-2.227053	-0.895220	99
Es	-0.523759	-2.733098	-0.713086	99
Es	-1.109950	1.699464	0.785517	99
Es	2.674885	0.342633	-0.139154	99
Es	-1.201905	2.411878	0.605142	99
Es	2.091319	-0.014592	-0.197659	99
Es	1.484160	0.342657	-0.139166	99
Es	-1.427224	2.865591	1.131617	99
Es	-0.556401	2.069446	0.695609	99
Es	-1.426816	2.563437	-0.076931	99
Es	-0.446654	1.340349	0.885763	99
Es	2.089308	0.411542	0.145934	99
Es	-0.274461	-1.284468	0.843021	99
Es	0.794605	0.345038	-0.138009	99
Es	-0.179115	-2.097976	-0.874001	99
Es	3.373506	0.334447	-0.135395	99
Es	-1.282490	-1.000237	0.222599	99
Es	2.091357	0.628605	-0.362030	99
Es	-0.528788	-1.051987	0.179740	99
Es	-0.216764	-0.334802	0.021022	99
Es	-0.408159	-1.874174	-1.547305	99
Es	-0.346241	-1.565356	-0.352843	99
Es	0.040542	0.342657	-0.139122	99
43
Properties=species:S:1:pos:R:3:Z:I:1 energy=-270.90576261977674 field_type=dipole dipole="0.000000 0.000000 0.000000" charge=0
C	-0.179096	-2.098002	-0.874025	6
C	-0.528826	-1.052022	0.179785	6
C	0.040444	0.342648	-0.139165	6
C	-0.446737	1.340458	0.885775	6
C	-1.201836	2.411808	0.605165	6
C	1.484443	0.342648	-0.139165	6
C	2.674604	0.342648	-0.139165	6
H	-0.675806	-3.045582	-0.641785	1
H	0.898054	-2.289083	-0.907795	1
H	-0.505006	-1.779042	-1.869045	1
H	-0.169766	-1.403592	1.156205	1
H	-1.622766	-0.991572	0.249575	1
H	-0.317906	0.640068	-1.133515	1
H	-0.156776	1.163178	1.920575	1
H	-1.517436	2.639708	-0.408105	1
H	-1.515726	3.089818	1.392795	1
H	3.740144	0.345918	-0.138105	1
Es	2.091153	-0.015715	-0.193892	99
Es	-1.282837	-0.999929	0.222542	99
Es	-0.216566	-0.334527	0.020909	99
Es	-0.179114	-2.097979	-0.874003	99
Es	-0.408514	-1.873976	-1.547062	99
Es	-0.523793	-2.732347	-0.713150	99
Es	-1.201904	2.411877	0.605143	99
Es	-1.427907	2.864723	1.131701	99
Es	0.040546	0.342654	-0.139111	99
Es	-0.238504	1.214897	1.576005	99
Es	2.091244	0.634900	-0.354898	99
Es	-0.183508	0.841427	0.369081	99
Es	2.674881	0.342641	-0.139156	99
Es	-0.446647	1.340351	0.885760	99
Es	0.559895	-2.227370	-0.895013	99
Es	-1.109711	1.699609	0.785493	99
Es	-0.346300	-1.565363	-0.352965	99
Es	-1.427435	2.562851	-0.076522	99
Es	0.794963	0.345185	-0.138031	99
Es	3.373496	0.333735	-0.135296	99
Es	2.089597	0.406436	0.135067	99
Es	-0.528783	-1.051976	0.179735	99
Es	1.484159	0.342662	-0.139163	99
Es	-0.273862	-1.284577	0.842836	99
Es	-0.191431	0.542604	-0.802828	99
Es	-0.556317	2.069660	0.695451	99
43
Properties=species:S:1:pos:R:3:Z:I:1 energy=-270.90576261977674 field_type=dipole dipole="0.000000 0.000000 0.000000" charge=0
C	-0.179096	-2.098002	-0.874025	6
C	-0.528826	-1.052022	0.179785	6
C	0.040444	0.342648	-0.139165	6
C	-0.446737	1.340458	0.885775	6
C	-1.201836	2.411808	0.605165	6
C	1.484443	0.342648	-0.139165	6
C	2.674604	0.342648	-0.139165	6
H	-0.675806	-3.045582	-0.641785	1
H	0.898054	-2.289083	-0.907795	1
H	-0.505006	-1.779042	-1.869045	1
H	-0.169766	-1.403592	1.156205	1
H	-1.622766	-0.991572	0.249575	1
H	-0.317906	0.640068	-1.133515	1
H	-0.156776	1.163178	1.920575	1
H	-1.517436	2.639708	-0.408105	1
H	-1.515726	3.089818	1.392795	1
H	3.740144	0.345918	-0.138105	1
Es	-0.179114	-2.097978	-0.874002	99
Es	0.040546	0.342653	-0.139112	99
Es	-0.528786	-1.051986	0.179740	99
Es	2.092128	0.704704	-0.096414	99
Es	-0.216334	-0.334273	0.020673	99
Es	0.560104	-2.227906	-0.894896	99
Es	-0.273471	-1.284857	0.842690	99
Es	-0.446648	1.340350	0.885761	99
Es	2.674885	0.342630	-0.139161	99
Es	-0.523542	-2.731429	-0.713269	99
Es	2.091756	0.269277	-0.396960	99
Es	-0.556449	2.069591	0.695236	99
Es	-0.191635	0.542506	-0.802665	99
Es	-0.238254	1.215828	1.575579	99
Es	-0.183110	0.841313	0.369348	99
Es	-1.428502	2.864272	1.131749	99
Es	-0.346567	-1.565017	-0.352815	99
Es	3.373448	0.332782	-0.136159	99
Es	-0.408864	-1.874109	-1.546978	99
Es	-1.283074	-0.999593	0.222359	99
Es	-1.201899	2.411881	0.605140	99
Es	2.088137	0.052333	0.081520	99
Es	1.484158	0.342661	-0.139170	99
Es	-1.109426	1.699826	0.785565	99
Es	-1.427937	2.562040	-0.076183	99
Es	0.795250	0.344954	-0.138942	99
43
Properties=species:S:1:pos:R:3:Z:I:1 energy=-270.90576261977674 field_type=dipole dipole="0.000000 0.000000 0.000000" charge=0
C	-0.179096	-2.098002	-0.874025	6
C	-0.528826	-1.052022	0.179785	6
C	0.040444	0.342648	-0.139165	6
C	-0.446737	1.340458	0.885775	6
C	-1.201836	2.411808	0.605165	6
C	1.484443	0.342648	-0.139165	6
C	2.674604	0.342648	-0.139165	6
H	-0.675806	-3.045582	-0.641785	1
H	0.898054	-2.289083	-0.907795	1
H	-0.505006	-1.779042	-1.869045	1
H	-0.169766	-1.403592	1.156205	1
H	-1.622766	-0.991572	0.249575	1
H	-0.317906	0.640068	-1.133515	1
H	-0.156776	1.163178	1.920575	1
H	-1.517436	2.639708	-0.408105	1
H	-1.515726	3.089818	1.392795	1
H	3.740144	0.345918	-0.138105	1
Es	-0.179114	-2.097976	-0.874000	99
Es	-1.109183	1.700046	0.785618	99
Es	-0.409221	-1.874212	-1.546884	99
Es	-1.201910	2.411876	0.605147	99
Es	2.090928	-0.018017	-0.181557	99
Es	-0.523438	-2.730847	-0.713110	99
Es	-0.182688	0.841389	0.369243	99
Es	1.484162	0.342660	-0.139180	99
Es	-0.273188	-1.284932	0.842542	99
Es	-0.216296	-0.333890	0.020755	99
Es	-1.428934	2.863658	1.131808	99
Es	-0.446647	1.340352	0.885760	99
Es	-0.191991	0.542468	-0.802572	99
Es	0.040546	0.342652	-0.139111	99
Es	0.560282	-2.228128	-0.894874	99
Es	-1.428366	2.561618	-0.075954	99
Es	2.674886	0.342630	-0.139163	99
Es	-0.556555	2.069575	0.695271	99
Es	-1.283259	-0.999338	0.222299	99
Es	0.795445	0.344749	-0.138159	99
Es	3.373466	0.332809	-0.135273	99
Es	-0.528784	-1.051986	0.179739	99
Es	-0.237953	1.216284	1.575268	99
Es	-0.346479	-1.564903	-0.353016	99
Es	2.090957	0.642539	-0.346021	99
Es	2.090135	0.401376	0.114056	99
43
Properties=species:S:1:pos:R:3:Z:I:1 energy=-270.90576261977674 field_type=dipole dipole="0.000000 0.000000 0.000000" charge=0
C	-0.179096	-2.098002	-0.874025	6
C	-0.528826	-1.052022	0.179785	6
C	0.040444	0.342648	-0.139165	6
C	-0.446737	1.340458	0.885775	6
C	-1.201836	2.411808	0.605165	6
C	1.484443	0.342648	-0.139165	6
C	2.674604	0.342648	-0.139165	6
H	-0.675806	-3.045582	-0.641785	1
H	0.898054	-2.289083	-0.907795	1
H	-0.505006	-1.779042	-1.869045	1
H	-0.169766	-1.403592	1.156205	1
H	-1.622766	-0.991572	0.249575	1
H	-0.317906	0.640068	-1.133515	1
H	-0.156776	1.163178	1.920575	1
H	-1.517436	2.639708	-0.408105	1
H	-1.515726	3.089818	1.392795	1
H	3.740144	0.345918	-0.138105	1
Es	2.090335	0.401107	0.106151	99
Es	0.795611	0.344703	-0.138205	99
Es	-0.346665	-1.564842	-0.352962	99
Es	3.373429	0.332452	-0.135135	99
Es	-0.238056	1.217070	1.574766	99
Es	-0.523219	-2.730281	-0.713153	99
Es	-1.108929	1.700198	0.785649	99
Es	-0.528788	-1.051988	0.179741	99
Es	-1.201907	2.411878	0.605146	99
Es	0.560431	-2.228342	-0.894765	99
Es	-1.429373	2.863185	1.131816	99
Es	1.484156	0.342658	-0.139168	99
Es	-0.272814	-1.285097	0.842368	99
Es	-0.556574	2.069723	0.695249	99
Es	-0.215994	-0.333583	0.020527	99
Es	-1.283408	-0.999177	0.222307	99
Es	-1.428719	2.561095	-0.075792	99
Es	-0.446646	1.340353	0.885768	99
Es	2.090802	-0.019066	-0.175878	99
Es	2.674886	0.342629	-0.139154	99
Es	2.090926	0.643983	-0.343838	99
Es	-0.192121	0.542176	-0.802503	99
Es	-0.182436	0.841143	0.369622	99
Es	0.040548	0.342653	-0.139110	99
Es	-0.179114	-2.097974	-0.873997	99
Es	-0.409559	-1.874202	-1.546818	99
43
Properties=species:S:1:pos:R:3:Z:I:1 energy=-270.90576261977674 field_type=dipole dipole="0.000000 0.000000 0.000000" charge=0
C	-0.179096	-2.098002	-0.874025	6
C	-0.528826	-1.052022	0.179785	6
C	0.040444	0.342648	-0.139165	6
C	-0.446737	1.340458	0.885775	6
C	-1.201836	2.411808	0.605165	6
C	1.484443	0.342648	-0.139165	6
C	2.674604	0.342648	-0.139165	6
H	-0.675806	-3.045582	-0.641785	1
H	0.898054	-2.289083	-0.907795	1
H	-0.505006	-1.779042	-1.869045	1
H	-0.169766	-1.403592	1.156205	1
H	-1.622766	-0.991572	0.249575	1
H	-0.317906	0.640068	-1.133515	1
H	-0.156776	1.163178	1.920575	1
H	-1.517436	2.639708	-0.408105	1
H	-1.515726	3.089818	1.392795	1
H	3.740144	0.345918	-0.138105	1
Es	-0.556930	2.069389	0.695179	99
Es	-0.179114	-2.097977	-0.874000	99
Es	-0.346619	-1.565086	-0.352824	99
Es	-0.192212	0.541874	-0.802569	99
Es	0.795721	0.344373	-0.138784	99
Es	-0.528789	-1.051987	0.179741	99
Es	-0.182498	0.841568	0.369571	99
Es	0.040547	0.342653	-0.139110	99
Es	-1.429613	2.862540	1.132059	99
Es	2.088161	0.039788	0.065739	99
Es	2.091620	0.707076	-0.111548	99
Es	-0.409897	-1.874165	-1.546893	99
Es	-0.215893	-0.333475	0.020501	99
Es	-1.283476	-0.998772	0.222137	99
Es	2.674887	0.342634	-0.139156	99
Es	2.092260	0.279424	-0.366316	99
Es	-1.108398	1.700706	0.785590	99
Es	-0.272684	-1.284898	0.842459	99
Es	0.560474	-2.228671	-0.894681	99
Es	-1.429399	2.560634	-0.075676	99
Es	-0.237596	1.217551	1.574756	99
Es	-0.522783	-2.729699	-0.713404	99
Es	1.484158	0.342665	-0.139170	99
Es	3.373432	0.332079	-0.135857	99
Es	-0.446645	1.340353	0.885760	99
Es	-1.201914	2.411874	0.605131	99
43
Properties=species:S:1:pos:R:3:Z:I:1 energy=-270.90576261977674 field_type=dipole dipole="0.000000 0.000000 0.000000" charge=0
C	-0.179096	-2.098002	-0.874025	6
C	-0.528826	-1.052022	0.179785	6
C	0.040444	0.342648	-0.139165	6
C	-0.446737	1.340458	0.885775	6
C	-1.201836	2.411808	0.605165	6
C	1.484443	0.342648	-0.139165	6
C	2.674604	0.342648	-0.139165	6
H	-0.675806	-3.045582	-0.641785	1
H	0.898054	-2.289083	-0.907795	1
H	-0.505006	-1.779042	-1.869045	1
H	-0.169766	-1.403592	1.156205	1
H	-1.622766	-0.991572	0.249575	1
H	-0.317906	0.640068	-1.133515	1
H	-0.156776	1.163178	1.920575	1
H	-1.517436	2.639708	-0.408105	1
H	-1.515726	3.089818	1.392795	1
H	3.740144	0.345918	-0.138105	1
Es	-0.182470	0.841378	0.369671	99
Es	2.674885	0.342628	-0.139157	99
Es	-0.192320	0.541843	-0.802380	99
Es	-0.409717	-1.874649	-1.546689	99
Es	-0.522688	-2.729357	-0.713586	99
Es	2.091460	0.708043	-0.121682	99
Es	-0.528784	-1.051980	0.179740	99
Es	-0.346753	-1.564702	-0.352801	99
Es	-0.179123	-2.097989	-0.873995	99
Es	-1.429423	2.559818	-0.075339	99
Es	1.484156	0.342662	-0.139173	99
Es	-0.446645	1.340354	0.885759	99
Es	-0.215915	-0.333297	0.020470	99
Es	0.560574	-2.228835	-0.894677	99
Es	0.040547	0.342653	-0.139110	99
Es	3.373388	0.331743	-0.135502	99
Es	-0.272663	-1.284690	0.842339	99
Es	-1.283608	-0.998737	0.222064	99
Es	-0.556882	2.069405	0.694843	99
Es	2.092436	0.275820	-0.359460	99
Es	-1.108348	1.700825	0.785906	99
Es	-1.430062	2.862747	1.131950	99
Es	2.088169	0.042578	0.068875	99
Es	-1.201913	2.411872	0.605144	99
Es	-0.237383	1.218005	1.574408	99
Es	0.795879	0.344313	-0.138983	99
43
Properties=species:S:1:pos:R:3:Z:I:1 energy=-270.90576261977674 field_type=dipole dipole="0.000000 0.000000 0.000000" charge=0
C	-0.179096	-2.098002	-0.874025	6
C	-0.528826	-1.052022	0.179785	6
C	0.040444	0.342648	-0.139165	6
C	-0.446737	1.340458	0.885775	6
C	-1.201836	2.411808	0.605165	6
C	1.484443	0.342648	-0.139165	6
C	2.674604	0.342648	-0.139165	6
H	-0.675806	-3.045582	-0.641785	1
H	0.898054	-2.289083	-0.907795	1
H	-0.505006	-1.779042	-1.869045	1
H	-0.169766	-1.403592	1.156205	1
H	-1.622766	-0.991572	0.249575	1
H	-0.317906	0.640068	-1.133515	1
H	-0.156776	1.163178	1.920575	1
H	-1.517436	2.639708	-0.408105	1
H	-1.515726	3.089818	1.392795	1
H	3.740144	0.345918	-0.138105	1
Es	-1.429645	2.559899	-0.075338	99
Es	-0.179113	-2.097978	-0.874001	99
Es	-0.237616	1.218215	1.574153	99
Es	2.090658	0.652551	-0.331813	99
Es	-1.201916	2.411869	0.605145	99
Es	0.560665	-2.228880	-0.894606	99
Es	-0.192568	0.541804	-0.802417	99
Es	-0.446644	1.340356	0.885761	99
Es	2.674887	0.342625	-0.139154	99
Es	-0.181906	0.841377	0.369823	99
Es	-0.556811	2.069662	0.695146	99
Es	-0.522728	-2.729136	-0.713515	99
Es	-0.272149	-1.285334	0.842184	99
Es	1.484158	0.342661	-0.139178	99
Es	-0.528788	-1.051986	0.179740	99
Es	-1.430422	2.861884	1.132079	99
Es	3.373396	0.331795	-0.135161	99
Es	-0.215813	-0.332777	0.020505	99
Es	-1.283676	-0.998727	0.222075	99
Es	0.040546	0.342654	-0.139107	99
Es	-0.346731	-1.564861	-0.352819	99
Es	-0.410232	-1.873903	-1.546616	99
Es	0.795949	0.344128	-0.138139	99
Es	2.090793	0.393886	0.083824	99
Es	-1.108110	1.700960	0.785494	99
Es	2.090616	-0.020291	-0.165430	99
43
Properties=species:S:1:pos:R:3:Z:I:1 energy=-270.90576261977674 field_type=dipole dipole="0.000000 0.000000 0.000000" charge=0
C	-0.179096	-2.098002	-0.874025	6
C	-0.528826	-1.052022	0.179785	6
C	0.040444	0.342648	-0.139165	6
C	-0.446737	1.340458	0.885775	6
C	-1.201836	2.411808	0.605165	6
C	1.484443	0.342648	-0.139165	6
C	2.674604	0.342648	-0.139165	6
H	-0.675806	-3.045582	-0.641785	1
H	0.898054	-2.289083	-0.907795	1
H	-0.505006	-1.779042	-1.869045	1
H	-0.169766	-1.403592	1.156205	1
H	-1.622766	-0.991572	0.249575	1
H	-0.317906	0.640068	-1.133515	1
H	-0.156776	1.163178	1.920575	1
H	-1.517436	2.639708	-0.408105	1
H	-1.515726	3.089818	1.392795	1
H	3.740144	0.345918	-0.138105	1
Es	-0.347025	-1.564489	-0.352711	99
Es	-1.201909	2.411876	0.605142	99
Es	0.560694	-2.229150	-0.894589	99
Es	-0.215730	-0.332986	0.020243	99
Es	-0.237389	1.219094	1.573763	99
Es	-0.410286	-1.874292	-1.546612	99
Es	-0.557014	2.069294	0.694597	99
Es	-1.283729	-0.998389	0.222013	99
Es	2.088239	0.038165	0.062381	99
Es	-1.107894	1.701354	0.785988	99
Es	1.484158	0.342660	-0.139173	99
Es	2.092558	0.280088	-0.349049	99
Es	3.373357	0.331400	-0.135468	99
Es	-1.430521	2.862026	1.132106	99
Es	2.091292	0.708285	-0.125594	99
Es	-0.271924	-1.285328	0.842144	99
Es	0.040547	0.342652	-0.139110	99
Es	-0.528788	-1.051986	0.179739	99
Es	-0.179113	-2.097977	-0.874000	99
Es	-0.192502	0.541668	-0.802220	99
Es	0.796028	0.343964	-0.139067	99
Es	-0.522446	-2.728684	-0.713637	99
Es	2.674886	0.342631	-0.139148	99
Es	-0.446642	1.340356	0.885757	99
Es	-1.430040	2.559148	-0.075011	99
Es	-0.182007	0.841073	0.370150	99
43
Properties=species:S:1:pos:R:3:Z:I:1 energy=-270.90576261977674 field_type=dipole dipole="0.000000 0.000000 0.000000" charge=0
C	-0.179096	-2.098002	-0.874025	6
C	-0.528826	-1.052022	0.179785	6
C	0.040444	0.342648	-0.139165	6
C	-0.446737	1.340458	0.885775	6
C	-1.201836	2.411808	0.605165	6
C	1.484443	0.342648	-0.139165	6
C	2.674604	0.342648	-0.139165	6
H	-0.675806	-3.045582	-0.641785	1
H	0.898054	-2.289083	-0.907795	1
H	-0.505006	-1.779042	-1.869045	1
H	-0.169766	-1.403592	1.156205	1
H	-1.622766	-0.991572	0.249575	1
H	-0.317906	0.640068	-1.133515	1
H	-0.156776	1.163178	1.920575	1
H	-1.517436	2.639708	-0.408105	1
H	-1.515726	3.089818	1.392795	1
H	3.740144	0.345918	-0.138105	1
Es	2.090535	0.656401	-0.325627	99
Es	-0.179114	-2.097977	-0.874000	99
Es	3.373378	0.331492	-0.135260	99
Es	1.484157	0.342666	-0.139167	99
Es	-0.193005	0.541896	-0.802369	99
Es	-0.271526	-1.285652	0.842063	99
Es	0.796074	0.344058	-0.138108	99
Es	-0.181318	0.841030	0.370099	99
Es	-0.528789	-1.051988	0.179740	99
Es	-1.429962	2.559319	-0.075108	99
Es	-0.237524	1.219008	1.573660	99
Es	-1.201911	2.411876	0.605147	99
Es	-0.557066	2.069406	0.695099	99
Es	2.090984	0.390346	0.073428	99
Es	-0.347020	-1.564640	-0.352662	99
Es	-1.107833	1.701260	0.785579	99
Es	-0.446645	1.340352	0.885763	99
Es	2.674888	0.342630	-0.139150	99
Es	-1.430867	2.861468	1.132174	99
Es	-0.522383	-2.728459	-0.713425	99
Es	0.040545	0.342651	-0.139111	99
Es	-1.283798	-0.998326	0.221980	99
Es	-0.215562	-0.332762	0.020212	99
Es	0.560768	-2.229120	-0.894520	99
Es	2.090560	-0.020580	-0.161187	99
Es	-0.410767	-1.873903	-1.546620	99
43
Properties=species:S:1:pos:R:3:Z:I:1 energy=-270.90576261977674 field_type=dipole dipole="0.000000 0.000000 0.000000" charge=0
C	-0.179096	-2.098002	-0.874025	6
C	-0.528826	-1.052022	0.179785	6
C	0.040444	0.342648	-0.139165	6
C	-0.446737	1.340458	0.885775	6
C	-1.201836	2.411808	0.605165	6
C	1.484443	0.342648	-0.139165	6
C	2.674604	0.342648	-0.139165	6
H	-0.675806	-3.045582	-0.641785	1
H	0.898054	-2.289083	-0.907795	1
H	-0.505006	-1.779042	-1.869045	1
H	-0.169766	-1.403592	1.156205	1
H	-1.622766	-0.991572	0.249575	1
H	-0.317906	0.640068	-1.133515	1
H	-0.156776	1.163178	1.920575	1
H	-1.517436	2.639708	-0.408105	1
H	-1.515726	3.089818	1.392795	1
H	3.740144	0.345918	-0.138105	1
Es	0.560801	-2.229373	-0.894604	99
Es	2.090426	-0.021349	-0.152846	99
Es	-0.522173	-2.728072	-0.713570	99
Es	-0.181515	0.841170	0.370289	99
Es	-1.430212	2.558826	-0.074891	99
Es	-0.192785	0.541637	-0.802232	99
Es	-0.215623	-0.332490	0.020204	99
Es	-0.528789	-1.051987	0.179740	99
Es	-0.410783	-1.874240	-1.546520	99
Es	2.091159	0.391979	0.066422	99
Es	0.040547	0.342653	-0.139111	99
Es	0.796130	0.343898	-0.138275	99
Es	-0.557210	2.069229	0.694814	99
Es	-1.107706	1.701399	0.785759	99
Es	-0.179114	-2.097973	-0.873996	99
Es	-1.201916	2.411869	0.605146	99
Es	-0.446641	1.340357	0.885759	99
Es	-0.347049	-1.564313	-0.352729	99
Es	1.484157	0.342670	-0.139156	99
Es	2.674886	0.342623	-0.139152	99
Es	-0.237345	1.219547	1.573470	99
Es	-1.430989	2.861463	1.132156	99
Es	-0.271469	-1.285624	0.841950	99
Es	3.373383	0.331501	-0.135066	99
Es	-1.283850	-0.998400	0.222028	99
Es	2.090480	0.655453	-0.326956	99
43
Properties=species:S:1:pos:R:3:Z:I:1 energy=-270.90576261977674 field_type=dipole dipole="0.000000 0.000000 0.000000" charge=0
C	-0.179096	-2.098002	-0.874025	6
C	-0.528826	-1.052022	0.179785	6
C	0.040444	0.342648	-0.139165	6
C	-0.446737	1.340458	0.885775	6
C	-1.201836	2.411808	0.605165	6
C	1.484443	0.342648	-0.139165	6
C	2.674604	0.342648	-0.139165	6
H	-0.675806	-3.045582	-0.641785	1
H	0.898054	-2.289083	-0.907795	1
H	-0.505006	-1.779042	-1.869045	1
H	-0.169766	-1.403592	1.156205	1
H	-1.622766	-0.991572	0.249575	1
H	-0.317906	0.640068	-1.133515	1
H	-0.156776	1.163178	1.920575	1
H	-1.517436	2.639708	-0.408105	1
H	-1.515726	3.089818	1.392795	1
H	3.740144	0.345918	-0.138105	1
Es	2.092693	0.289559	-0.330990	99
Es	-0.521968	-2.727799	-0.713636	99
Es	0.040547	0.342654	-0.139111	99
Es	-1.201911	2.411873	0.605147	99
Es	-0.410916	-1.874262	-1.546646	99
Es	-0.528790	-1.051988	0.179740	99
Es	-1.283833	-0.998036	0.221869	99
Es	2.674887	0.342628	-0.139156	99
Es	-0.179113	-2.097979	-0.874003	99
Es	-0.557477	2.068901	0.694982	99
Es	-0.446644	1.340353	0.885758	99
Es	-1.431075	2.860952	1.132274	99
Es	-0.271394	-1.285369	0.842156	99
Es	-0.215468	-0.332464	0.020226	99
Es	1.484157	0.342666	-0.139167	99
Es	-0.193033	0.541410	-0.802416	99
Es	0.796137	0.343579	-0.138624	99
Es	3.373374	0.331271	-0.135612	99
Es	-0.346984	-1.564522	-0.352789	99
Es	2.088324	0.028557	0.047925	99
Es	0.560799	-2.229508	-0.894463	99
Es	-1.107358	1.701849	0.785627	99
Es	-0.237052	1.219694	1.573639	99
Es	2.091077	0.708325	-0.129279	99
Es	-1.430601	2.558685	-0.074957	99
Es	-0.181578	0.841426	0.370141	99
43
Properties=species:S:1:pos:R:3:Z:I:1 energy=-270.90576261977674 field_type=dipole dipole="0.000000 0.000000 0.000000" charge=0
C	-0.179096	-2.098002	-0.874025	6
C	-0.528826	-1.052022	0.179785	6
C	0.040444	0.342648	-0.139165	6
C	-0.446737	1.340458	0.885775	6
C	-1.201836	2.411808	0.605165	6
C	1.484443	0.342648	-0.139165	6
C	2.674604	0.342648	-0.139165	6
H	-0.675806	-3.045582	-0.641785	1
H	0.898054	-2.289083	-0.907795	1
H	-0.505006	-1.779042	-1.869045	1
H	-0.169766	-1.403592	1.156205	1
H	-1.622766	-0.991572	0.249575	1
H	-0.317906	0.640068	-1.133515	1
H	-0.156776	1.163178	1.920575	1
H	-1.517436	2.639708	-0.408105	1
H	-1.515726	3.089818	1.392795	1
H	3.740144	0.345918	-0.138105	1
Es	-0.270842	-1.285891	0.841934	99
Es	2.088365	0.028666	0.047658	99
Es	-1.283901	-0.998019	0.221937	99
Es	-0.521896	-2.727700	-0.713714	99
Es	-0.411055	-1.874131	-1.546538	99
Es	-0.181375	0.841144	0.370448	99
Es	-1.201915	2.411869	0.605145	99
Es	-1.431356	2.860946	1.132305	99
Es	-0.557392	2.069031	0.694769	99
Es	-0.193073	0.541279	-0.802328	99
Es	-0.237215	1.220154	1.573196	99
Es	-0.528789	-1.051986	0.179739	99
Es	-1.430619	2.558297	-0.074791	99
Es	0.560850	-2.229500	-0.894500	99
Es	-0.215405	-0.332297	0.020057	99
Es	-0.446646	1.340353	0.885759	99
Es	2.091049	0.708358	-0.130168	99
Es	1.484157	0.342661	-0.139168	99
Es	2.092712	0.289545	-0.329747	99
Es	0.796207	0.343515	-0.138777	99
Es	-0.347450	-1.564091	-0.352482	99
Es	2.674885	0.342630	-0.139163	99
Es	3.373323	0.331001	-0.135559	99
Es	-1.107253	1.701941	0.785732	99
Es	-0.179113	-2.097978	-0.874001	99
Es	0.040547	0.342653	-0.139111	99
43
Properties=species:S:1:pos:R:3:Z:I:1 energy=-270.90576261977674 field_type=dipole dipole="0.000000 0.000000 0.000000" charge=0
C	-0.179096	-2.098002	-0.874025	6
C	-0.528826	-1.052022	0.179785	6
C	0.040444	0.342648	-0.139165	6
C	-0.446737	1.340458	0.885775	6
C	-1.201836	2.411808	0.605165	6
C	1.484443	0.342648	-0.139165	6
C	2.674604	0.342648	-0.139165	6
H	-0.675806	-3.045582	-0.641785	1
H	0.898054	-2.289083	-0.907795	1
H	-0.505006	-1.779042	-1.869045	1
H	-0.169766	-1.403592	1.156205	1
H	-1.622766	-0.991572	0.249575	1
H	-0.317906	0.640068	-1.133515	1
H	-0.156776	1.163178	1.920575	1
H	-1.517436	2.639708	-0.408105	1
H	-1.515726	3.089818	1.392795	1
H	3.740144	0.345918	-0.138105	1
Es	3.373322	0.331011	-0.135146	99
Es	-0.557326	2.069227	0.694987	99
Es	0.560929	-2.229385	-0.894558	99
Es	-0.522104	-2.727731	-0.713520	99
Es	-0.347574	-1.563854	-0.352461	99
Es	-1.431565	2.860750	1.132230	99
Es	-0.446643	1.340356	0.885759	99
Es	-0.270323	-1.286538	0.841674	99
Es	-1.430433	2.558415	-0.074729	99
Es	-1.201911	2.411875	0.605145	99
Es	-0.528789	-1.051986	0.179740	99
Es	0.040548	0.342653	-0.139110	99
Es	-1.283961	-0.998003	0.221975	99
Es	-0.411312	-1.873694	-1.546334	99
Es	-0.193109	0.541265	-0.802154	99
Es	-0.179113	-2.097978	-0.874001	99
Es	-0.237565	1.220238	1.572922	99
Es	1.484157	0.342668	-0.139163	99
Es	2.090445	-0.021011	-0.154264	99
Es	-0.180947	0.841103	0.370584	99
Es	0.796298	0.343890	-0.138164	99
Es	-0.215374	-0.332366	0.020000	99
Es	-1.107390	1.701686	0.785528	99
Es	2.091233	0.386787	0.059296	99
Es	2.090419	0.660439	-0.318445	99
Es	2.674887	0.342637	-0.139156	99
43
Properties=species:S:1:pos:R:3:Z:I:1 energy=-270.90576261977674 field_type=dipole dipole="0.000000 0.000000 0.000000" charge=0
C	-0.179096	-2.098002	-0.874025	6
C	-0.528826	-1.052022	0.179785	6
C	0.040444	0.342648	-0.139165	6
C	-0.446737	1.340458	0.885775	6
C	-1.201836	2.411808	0.605165	6
C	1.484443	0.342648	-0.139165	6
C	2.674604	0.342648	-0.139165	6
H	-0.675806	-3.045582	-0.641785	1
H	0.898054	-2.289083	-0.907795	1
H	-0.505006	-1.779042	-1.869045	1
H	-0.169766	-1.403592	1.156205	1
H	-1.622766	-0.991572	0.249575	1
H	-0.317906	0.640068	-1.133515	1
H	-0.156776	1.163178	1.920575	1
H	-1.517436	2.639708	-0.408105	1
H	-1.515726	3.089818	1.392795	1
H	3.740144	0.345918	-0.138105	1
Es	0.040547	0.342653	-0.139110	99
Es	-0.179113	-2.097978	-0.874000	99
Es	-0.557654	2.068779	0.694960	99
Es	2.092799	0.293114	-0.319431	99
Es	-0.521749	-2.727420	-0.713848	99
Es	2.088383	0.024911	0.041512	99
Es	0.796287	0.343547	-0.138668	99
Es	-1.431670	2.860383	1.132413	99
Es	-0.181353	0.841172	0.370492	99
Es	-0.528788	-1.051986	0.179739	99
Es	3.373374	0.331097	-0.135559	99
Es	-0.347147	-1.564587	-0.352598	99
Es	-0.193267	0.541260	-0.802352	99
Es	-0.446645	1.340357	0.885760	99
Es	-1.201913	2.411875	0.605149	99
Es	-0.270887	-1.285475	0.842073	99
Es	-1.283933	-0.997795	0.221790	99
Es	2.674887	0.342627	-0.139156	99
Es	-1.430905	2.558008	-0.074780	99
Es	1.484157	0.342669	-0.139170	99
Es	-0.237014	1.220426	1.573199	99
Es	-1.106873	1.702379	0.785539	99
Es	2.090871	0.708274	-0.134380	99
Es	0.560893	-2.229601	-0.894392	99
Es	-0.411227	-1.873984	-1.546488	99
Es	-0.215261	-0.332255	0.019936	99
