41
Properties=species:S:1:pos:R:3:Z:I:1 energy=-306.7340968038715 field_type=dipole dipole="0.000000 0.000000 0.000000" charge=0
O	-2.545421	0.055761	-0.388417	8
C	-1.109871	0.061351	-0.464647	6
C	-0.392431	1.105651	0.419013	6
C	0.671869	0.031931	0.751453	6
C	-0.382651	-1.029369	0.353153	6
C	1.865600	0.060241	-0.075017	6
C	2.849909	0.083591	-0.762357	6
H	-2.821961	-0.706739	-0.925347	1
H	-0.781861	0.099761	-1.511377	1
H	-0.977261	1.428151	1.289163	1
H	-0.038081	1.997991	-0.106187	1
H	0.924379	0.000431	1.818363	1
H	-0.020741	-1.884359	-0.226177	1
H	-0.964411	-1.410079	1.201573	1
H	3.722929	0.105681	-1.373187	1
Es	0.862582	0.011202	1.460798	99
Es	0.671906	0.031932	0.751348	99
Es	3.419662	0.097803	-1.161000	99
Es	1.865390	0.060222	-0.074867	99
Es	0.222032	-0.554671	0.570377	99
Es	1.288704	0.046950	0.315692	99
Es	-2.641909	0.305932	-0.535612	99
Es	-0.776737	-1.270653	0.931636	99
Es	-0.786062	1.304884	1.011036	99
Es	2.567174	0.117293	-0.134773	99
Es	-2.545217	0.055509	-0.388563	99
Es	-2.678323	-0.360351	-0.681582	99
Es	-0.392397	1.105575	0.419003	99
Es	-2.006285	0.042532	-0.430138	99
Es	2.850105	0.083576	-0.762501	99
Es	-1.110078	0.061343	-0.464579	99
Es	-0.133898	-1.615588	-0.041561	99
Es	0.215994	0.620907	0.605482	99
Es	-2.615717	-0.008981	-0.095642	99
Es	-0.789789	-0.555631	-0.087075	99
Es	-0.382607	-1.029305	0.353154	99
Es	-0.878754	0.082446	-1.180416	99
Es	-0.147907	1.713606	0.062653	99
Es	2.237168	0.355942	-0.601630	99
Es	-0.803818	0.649455	-0.051041	99
Es	2.293208	-0.257655	-0.544255	99
41
Properties=species:S:1:pos:R:3:Z:I:1 energy=-306.7340968038715 field_type=dipole dipole="0.000000 0.000000 0.000000" charge=0
O	-2.545421	0.055761	-0.388417	8
C	-1.109871	0.061351	-0.464647	6
C	-0.392431	1.105651	0.419013	6
C	0.671869	0.031931	0.751453	6
C	-0.382651	-1.029369	0.353153	6
C	1.865600	0.060241	-0.075017	6
C	2.849909	0.083591	-0.762357	6
H	-2.821961	-0.706739	-0.925347	1
H	-0.781861	0.099761	-1.511377	1
H	-0.977261	1.428151	1.289163	1
H	-0.038081	1.997991	-0.106187	1
H	0.924379	0.000431	1.818363	1
H	-0.020741	-1.884359	-0.226177	1
H	-0.964411	-1.410079	1.201573	1
H	3.722929	0.105681	-1.373187	1
Es	-2.629590	0.281219	-0.542177	99
Es	-1.110071	0.061343	-0.464579	99
Es	2.850112	0.083602	-0.762504	99
Es	-0.779378	-1.270742	0.933322	99
Es	-2.631710	0.007394	-0.084174	99
Es	-0.788326	1.305301	1.013111	99
Es	-0.877648	0.082441	-1.181465	99
Es	2.483579	0.360636	-0.248757	99
Es	0.860193	0.011243	1.458686	99
Es	3.421336	0.097565	-1.161620	99
Es	-0.801400	0.648815	-0.049870	99
Es	0.215403	0.619236	0.605982	99
Es	1.290971	0.047373	0.314307	99
Es	0.671907	0.031932	0.751347	99
Es	-0.392398	1.105573	0.419004	99
Es	0.220718	-0.552792	0.570537	99
Es	-0.787206	-0.555487	-0.085703	99
Es	1.865379	0.060235	-0.074863	99
Es	-0.133940	-1.614642	-0.043150	99
Es	2.162895	0.110195	-0.713828	99
Es	-2.002739	0.046851	-0.435620	99
Es	-2.678798	-0.356547	-0.680271	99
Es	-2.545314	0.055658	-0.388561	99
Es	2.450744	-0.255101	-0.317828	99
Es	-0.382606	-1.029309	0.353156	99
Es	-0.147683	1.712283	0.061463	99
41
Properties=species:S:1:pos:R:3:Z:I:1 energy=-306.7340968038715 field_type=dipole dipole="0.000000 0.000000 0.000000" charge=0
O	-2.545421	0.055761	-0.388417	8
C	-1.109871	0.061351	-0.464647	6
C	-0.392431	1.105651	0.419013	6
C	0.671869	0.031931	0.751453	6
C	-0.382651	-1.029369	0.353153	6
C	1.865600	0.060241	-0.075017	6
C	2.849909	0.083591	-0.762357	6
H	-2.821961	-0.706739	-0.925347	1
H	-0.781861	0.099761	-1.511377	1
H	-0.977261	1.428151	1.289163	1
H	-0.038081	1.997991	-0.106187	1
H	0.924379	0.000431	1.818363	1
H	-0.020741	-1.884359	-0.226177	1
H	-0.964411	-1.410079	1.201573	1
H	3.722929	0.105681	-1.373187	1
Es	2.287149	-0.251341	-0.551855	99
Es	-0.785430	-0.555701	-0.084589	99
Es	-2.677439	-0.355713	-0.675715	99
Es	-2.619572	0.260501	-0.547363	99
Es	-2.000877	0.049497	-0.438593	99
Es	0.215015	0.618205	0.606457	99
Es	-0.781225	-1.270581	0.933860	99
Es	-0.382606	-1.029303	0.353153	99
Es	-0.876958	0.082287	-1.181923	99
Es	2.850118	0.083596	-0.762501	99
Es	-2.545220	0.055515	-0.388558	99
Es	0.858968	0.011516	1.456400	99
Es	-2.645485	0.024843	-0.080042	99
Es	-0.147610	1.711504	0.060831	99
Es	1.865380	0.060244	-0.074868	99
Es	1.291993	0.047761	0.313659	99
Es	-0.392398	1.105573	0.419003	99
Es	2.247802	0.359454	-0.586721	99
Es	0.220178	-0.551841	0.571335	99
Es	-0.799759	0.648790	-0.049110	99
Es	-0.789856	1.305382	1.013836	99
Es	3.422584	0.097856	-1.160978	99
Es	-0.133954	-1.614025	-0.044100	99
Es	2.561798	0.106975	-0.142441	99
Es	0.671907	0.031932	0.751346	99
Es	-1.110075	0.061348	-0.464578	99
41
Properties=species:S:1:pos:R:3:Z:I:1 energy=-306.7340968038715 field_type=dipole dipole="0.000000 0.000000 0.000000" charge=0
O	-2.545421	0.055761	-0.388417	8
C	-1.109871	0.061351	-0.464647	6
C	-0.392431	1.105651	0.419013	6
C	0.671869	0.031931	0.751453	6
C	-0.382651	-1.029369	0.353153	6
C	1.865600	0.060241	-0.075017	6
C	2.849909	0.083591	-0.762357	6
H	-2.821961	-0.706739	-0.925347	1
H	-0.781861	0.099761	-1.511377	1
H	-0.977261	1.428151	1.289163	1
H	-0.038081	1.997991	-0.106187	1
H	0.924379	0.000431	1.818363	1
H	-0.020741	-1.884359	-0.226177	1
H	-0.964411	-1.410079	1.201573	1
H	3.722929	0.105681	-1.373187	1
Es	-2.545198	0.055501	-0.388539	99
Es	0.214764	0.617776	0.606793	99
Es	-2.609137	0.240550	-0.546812	99
Es	-0.147739	1.711314	0.060129	99
Es	-2.658573	0.039857	-0.078965	99
Es	3.422966	0.097351	-1.160973	99
Es	2.850125	0.083593	-0.762490	99
Es	-2.676304	-0.352868	-0.673875	99
Es	1.292547	0.047341	0.313107	99
Es	-0.382606	-1.029304	0.353154	99
Es	-0.133935	-1.613486	-0.044640	99
Es	-0.392399	1.105575	0.419005	99
Es	0.219759	-0.551372	0.571746	99
Es	-0.783969	-0.556038	-0.083752	99
Es	-0.791328	1.304874	1.014068	99
Es	-0.798343	0.648770	-0.048103	99
Es	2.167461	0.030685	-0.710570	99
Es	2.442718	0.399093	-0.306394	99
Es	1.865374	0.060230	-0.074867	99
Es	0.671907	0.031930	0.751345	99
Es	-1.110079	0.061344	-0.464580	99
Es	-0.876399	0.082586	-1.182263	99
Es	0.858274	0.011564	1.454504	99
Es	2.486769	-0.213813	-0.263578	99
Es	-1.999627	0.051625	-0.441672	99
Es	-0.782603	-1.270403	0.934166	99
41
Properties=species:S:1:pos:R:3:Z:I:1 energy=-306.7340968038715 field_type=dipole dipole="0.000000 0.000000 0.000000" charge=0
O	-2.545421	0.055761	-0.388417	8
C	-1.109871	0.061351	-0.464647	6
C	-0.392431	1.105651	0.419013	6
C	0.671869	0.031931	0.751453	6
C	-0.382651	-1.029369	0.353153	6
C	1.865600	0.060241	-0.075017	6
C	2.849909	0.083591	-0.762357	6
H	-2.821961	-0.706739	-0.925347	1
H	-0.781861	0.099761	-1.511377	1
H	-0.977261	1.428151	1.289163	1
H	-0.038081	1.997991	-0.106187	1
H	0.924379	0.000431	1.818363	1
H	-0.020741	-1.884359	-0.226177	1
H	-0.964411	-1.410079	1.201573	1
H	3.722929	0.105681	-1.373187	1
Es	-1.998878	0.052799	-0.443783	99
Es	2.167675	0.081007	-0.708718	99
Es	-0.382610	-1.029306	0.353153	99
Es	2.463244	-0.242186	-0.298593	99
Es	-0.783013	-0.556190	-0.083084	99
Es	-2.669133	0.052781	-0.080444	99
Es	-0.792397	1.304503	1.014049	99
Es	-2.600441	0.224216	-0.544711	99
Es	-1.110078	0.061342	-0.464581	99
Es	-0.875844	0.082769	-1.182566	99
Es	-0.797464	0.648695	-0.047508	99
Es	0.219776	-0.550989	0.571797	99
Es	2.465910	0.376870	-0.273339	99
Es	-0.147759	1.711160	0.059694	99
Es	0.671906	0.031930	0.751346	99
Es	1.865375	0.060234	-0.074863	99
Es	-0.392400	1.105573	0.419003	99
Es	-2.545267	0.055556	-0.388542	99
Es	-0.783570	-1.270210	0.934287	99
Es	1.292854	0.047243	0.312822	99
Es	2.850121	0.083586	-0.762498	99
Es	0.857852	0.011389	1.453292	99
Es	-2.675294	-0.350572	-0.672056	99
Es	-0.134095	-1.613048	-0.044776	99
Es	0.214550	0.617340	0.607208	99
Es	3.423408	0.097781	-1.160645	99
41
Properties=species:S:1:pos:R:3:Z:I:1 energy=-306.7340968038715 field_type=dipole dipole="0.000000 0.000000 0.000000" charge=0
O	-2.545421	0.055761	-0.388417	8
C	-1.109871	0.061351	-0.464647	6
C	-0.392431	1.105651	0.419013	6
C	0.671869	0.031931	0.751453	6
C	-0.382651	-1.029369	0.353153	6
C	1.865600	0.060241	-0.075017	6
C	2.849909	0.083591	-0.762357	6
H	-2.821961	-0.706739	-0.925347	1
H	-0.781861	0.099761	-1.511377	1
H	-0.977261	1.428151	1.289163	1
H	-0.038081	1.997991	-0.106187	1
H	0.924379	0.000431	1.818363	1
H	-0.020741	-1.884359	-0.226177	1
H	-0.964411	-1.410079	1.201573	1
H	3.722929	0.105681	-1.373187	1
Es	-2.674452	0.056290	-0.081020	99
Es	3.423720	0.097876	-1.160368	99
Es	-0.875504	0.082910	-1.182718	99
Es	2.471792	0.369540	-0.264977	99
Es	0.671908	0.031935	0.751344	99
Es	-1.998875	0.055090	-0.446381	99
Es	1.865374	0.060226	-0.074863	99
Es	0.219773	-0.550730	0.572140	99
Es	-0.782148	-0.556487	-0.082595	99
Es	2.456816	-0.247283	-0.308110	99
Es	2.168175	0.093335	-0.707592	99
Es	-2.545192	0.055510	-0.388596	99
Es	-0.134269	-1.612632	-0.044960	99
Es	-0.793391	1.304308	1.013932	99
Es	-0.147819	1.710857	0.059372	99
Es	0.214548	0.616895	0.607450	99
Es	-2.597779	0.216214	-0.542975	99
Es	-0.392402	1.105572	0.419003	99
Es	2.850122	0.083596	-0.762506	99
Es	1.293232	0.047239	0.312690	99
Es	-0.796562	0.648791	-0.046885	99
Es	-2.672826	-0.348309	-0.670296	99
Es	-0.784495	-1.270071	0.934221	99
Es	-1.110074	0.061352	-0.464575	99
Es	0.857361	0.011558	1.452054	99
Es	-0.382607	-1.029309	0.353156	99
41
Properties=species:S:1:pos:R:3:Z:I:1 energy=-306.7340968038715 field_type=dipole dipole="0.000000 0.000000 0.000000" charge=0
O	-2.545421	0.055761	-0.388417	8
C	-1.109871	0.061351	-0.464647	6
C	-0.392431	1.105651	0.419013	6
C	0.671869	0.031931	0.751453	6
C	-0.382651	-1.029369	0.353153	6
C	1.865600	0.060241	-0.075017	6
C	2.849909	0.083591	-0.762357	6
H	-2.821961	-0.706739	-0.925347	1
H	-0.781861	0.099761	-1.511377	1
H	-0.977261	1.428151	1.289163	1
H	-0.038081	1.997991	-0.106187	1
H	0.924379	0.000431	1.818363	1
H	-0.020741	-1.884359	-0.226177	1
H	-0.964411	-1.410079	1.201573	1
H	3.722929	0.105681	-1.373187	1
Es	0.214558	0.616646	0.607618	99
Es	0.671908	0.031932	0.751346	99
Es	-0.134365	-1.612401	-0.045124	99
Es	-2.545224	0.055510	-0.388634	99
Es	-2.671723	-0.346250	-0.669072	99
Es	3.423951	0.097970	-1.160160	99
Es	2.850122	0.083598	-0.762505	99
Es	-0.382607	-1.029308	0.353157	99
Es	-0.794225	1.303866	1.013819	99
Es	-0.781261	-0.556662	-0.081978	99
Es	1.293396	0.047136	0.312525	99
Es	-2.679377	0.061083	-0.082452	99
Es	2.168391	0.066331	-0.708240	99
Es	0.857152	0.011581	1.451120	99
Es	0.219758	-0.550582	0.572391	99
Es	2.469983	-0.233922	-0.288495	99
Es	-0.148013	1.710767	0.059090	99
Es	-0.875097	0.082979	-1.182855	99
Es	-1.110083	0.061336	-0.464580	99
Es	-0.785413	-1.269733	0.934063	99
Es	-0.392399	1.105573	0.419003	99
Es	-2.594156	0.208634	-0.540751	99
Es	-1.998747	0.055821	-0.448176	99
Es	1.865370	0.060234	-0.074865	99
Es	-0.795825	0.648896	-0.046307	99
Es	2.458355	0.383237	-0.283995	99
41
Properties=species:S:1:pos:R:3:Z:I:1 energy=-306.7340968038715 field_type=dipole dipole="0.000000 0.000000 0.000000" charge=0
O	-2.545421	0.055761	-0.388417	8
C	-1.109871	0.061351	-0.464647	6
C	-0.392431	1.105651	0.419013	6
C	0.671869	0.031931	0.751453	6
C	-0.382651	-1.029369	0.353153	6
C	1.865600	0.060241	-0.075017	6
C	2.849909	0.083591	-0.762357	6
H	-2.821961	-0.706739	-0.925347	1
H	-0.781861	0.099761	-1.511377	1
H	-0.977261	1.428151	1.289163	1
H	-0.038081	1.997991	-0.106187	1
H	0.924379	0.000431	1.818363	1
H	-0.020741	-1.884359	-0.226177	1
H	-0.964411	-1.410079	1.201573	1
H	3.722929	0.105681	-1.373187	1
Es	-0.134629	-1.612072	-0.045193	99
Es	0.671907	0.031932	0.751345	99
Es	2.436905	-0.262471	-0.337424	99
Es	2.850125	0.083600	-0.762502	99
Es	-2.545139	0.055412	-0.388574	99
Es	-0.785917	-1.269668	0.934027	99
Es	-2.589691	0.199346	-0.538475	99
Es	-1.110080	0.061344	-0.464581	99
Es	0.857047	0.011640	1.450416	99
Es	-2.685768	0.067569	-0.084951	99
Es	-1.998713	0.057026	-0.449470	99
Es	-0.794863	1.303535	1.013664	99
Es	-0.148027	1.710728	0.058819	99
Es	-0.874829	0.083290	-1.182967	99
Es	2.488974	0.344206	-0.240909	99
Es	2.170798	0.133545	-0.702482	99
Es	-0.795339	0.648815	-0.045892	99
Es	0.219962	-0.550616	0.572554	99
Es	1.293472	0.047168	0.312399	99
Es	-0.382607	-1.029308	0.353156	99
Es	-0.780701	-0.556849	-0.081550	99
Es	-2.669961	-0.344523	-0.667449	99
Es	3.424118	0.098361	-1.159982	99
Es	1.865370	0.060238	-0.074865	99
Es	-0.392398	1.105573	0.419004	99
Es	0.214415	0.616451	0.607826	99
41
Properties=species:S:1:pos:R:3:Z:I:1 energy=-306.7340968038715 field_type=dipole dipole="0.000000 0.000000 0.000000" charge=0
O	-2.545421	0.055761	-0.388417	8
C	-1.109871	0.061351	-0.464647	6
C	-0.392431	1.105651	0.419013	6
C	0.671869	0.031931	0.751453	6
C	-0.382651	-1.029369	0.353153	6
C	1.865600	0.060241	-0.075017	6
C	2.849909	0.083591	-0.762357	6
H	-2.821961	-0.706739	-0.925347	1
H	-0.781861	0.099761	-1.511377	1
H	-0.977261	1.428151	1.289163	1
H	-0.038081	1.997991	-0.106187	1
H	0.924379	0.000431	1.818363	1
H	-0.020741	-1.884359	-0.226177	1
H	-0.964411	-1.410079	1.201573	1
H	3.722929	0.105681	-1.373187	1
Es	-0.382607	-1.029308	0.353157	99
Es	1.865368	0.060243	-0.074868	99
Es	0.214451	0.616304	0.607987	99
Es	2.168969	0.099969	-0.706223	99
Es	-0.134883	-1.611816	-0.045246	99
Es	0.219940	-0.550445	0.572423	99
Es	-2.668997	-0.342130	-0.667127	99
Es	0.856786	0.011635	1.449776	99
Es	2.454224	-0.249399	-0.311848	99
Es	-0.392399	1.105575	0.419005	99
Es	2.473458	0.364825	-0.262768	99
Es	-0.794895	0.648705	-0.045387	99
Es	-2.689953	0.070761	-0.086668	99
Es	-0.786233	-1.269609	0.934011	99
Es	-0.874516	0.083424	-1.183069	99
Es	0.671908	0.031934	0.751344	99
Es	-1.998643	0.056969	-0.450480	99
Es	-0.795357	1.303251	1.013576	99
Es	-0.780452	-0.556932	-0.081261	99
Es	2.850122	0.083597	-0.762505	99
Es	-2.545234	0.055539	-0.388584	99
Es	1.293692	0.047069	0.312481	99
Es	-0.147991	1.710698	0.058573	99
Es	3.424241	0.098387	-1.159868	99
Es	-1.110074	0.061343	-0.464579	99
Es	-2.586497	0.193685	-0.535909	99
41
Properties=species:S:1:pos:R:3:Z:I:1 energy=-306.7340968038715 field_type=dipole dipole="0.000000 0.000000 0.000000" charge=0
O	-2.545421	0.055761	-0.388417	8
C	-1.109871	0.061351	-0.464647	6
C	-0.392431	1.105651	0.419013	6
C	0.671869	0.031931	0.751453	6
C	-0.382651	-1.029369	0.353153	6
C	1.865600	0.060241	-0.075017	6
C	2.849909	0.083591	-0.762357	6
H	-2.821961	-0.706739	-0.925347	1
H	-0.781861	0.099761	-1.511377	1
H	-0.977261	1.428151	1.289163	1
H	-0.038081	1.997991	-0.106187	1
H	0.924379	0.000431	1.818363	1
H	-0.020741	-1.884359	-0.226177	1
H	-0.964411	-1.410079	1.201573	1
H	3.722929	0.105681	-1.373187	1
Es	0.214555	0.616316	0.608324	99
Es	0.219883	-0.550548	0.572866	99
Es	1.293839	0.047180	0.312572	99
Es	2.850125	0.083595	-0.762503	99
Es	-0.786865	-1.269376	0.933772	99
Es	-0.148119	1.710557	0.058618	99
Es	-0.874303	0.083437	-1.183099	99
Es	-2.690734	0.069264	-0.086626	99
Es	3.424709	0.098488	-1.159171	99
Es	-0.134842	-1.611687	-0.045255	99
Es	1.865370	0.060233	-0.074863	99
Es	-0.795863	1.303071	1.013378	99
Es	-0.779918	-0.557021	-0.081016	99
Es	-2.667858	-0.340830	-0.666495	99
Es	-2.545203	0.055405	-0.388499	99
Es	2.233944	0.335633	-0.606909	99
Es	-0.382608	-1.029309	0.353157	99
Es	-0.392399	1.105574	0.419004	99
Es	-1.110079	0.061347	-0.464580	99
Es	-0.794501	0.648697	-0.045277	99
Es	-1.998817	0.057940	-0.451566	99
Es	0.856702	0.011692	1.448950	99
Es	0.671908	0.031932	0.751345	99
Es	2.307674	-0.262647	-0.522989	99
Es	2.554587	0.142246	-0.151709	99
Es	-2.586761	0.193083	-0.535483	99
41
Properties=species:S:1:pos:R:3:Z:I:1 energy=-306.7340968038715 field_type=dipole dipole="0.000000 0.000000 0.000000" charge=0
O	-2.545421	0.055761	-0.388417	8
C	-1.109871	0.061351	-0.464647	6
C	-0.392431	1.105651	0.419013	6
C	0.671869	0.031931	0.751453	6
C	-0.382651	-1.029369	0.353153	6
C	1.865600	0.060241	-0.075017	6
C	2.849909	0.083591	-0.762357	6
H	-2.821961	-0.706739	-0.925347	1
H	-0.781861	0.099761	-1.511377	1
H	-0.977261	1.428151	1.289163	1
H	-0.038081	1.997991	-0.106187	1
H	0.924379	0.000431	1.818363	1
H	-0.020741	-1.884359	-0.226177	1
H	-0.964411	-1.410079	1.201573	1
H	3.722929	0.105681	-1.373187	1
Es	2.850127	0.083593	-0.762500	99
Es	1.865362	0.060232	-0.074879	99
Es	-0.794043	0.648747	-0.044767	99
Es	-1.998966	0.058225	-0.453214	99
Es	-1.110080	0.061344	-0.464580	99
Es	-0.135152	-1.611494	-0.045324	99
Es	-0.874025	0.083498	-1.183190	99
Es	-0.382608	-1.029309	0.353156	99
Es	2.460260	0.379000	-0.281421	99
Es	2.168883	0.072747	-0.707321	99
Es	-2.667819	-0.338168	-0.667367	99
Es	0.220183	-0.550504	0.572915	99
Es	-2.545225	0.055756	-0.388882	99
Es	-2.693881	0.071534	-0.087980	99
Es	3.424520	0.098407	-1.159539	99
Es	-0.796384	1.302829	1.013238	99
Es	1.293875	0.047054	0.312384	99
Es	-2.583500	0.187513	-0.531092	99
Es	-0.148126	1.710475	0.058394	99
Es	-0.392398	1.105573	0.419005	99
Es	-0.787346	-1.269166	0.933642	99
Es	2.467388	-0.236276	-0.292263	99
Es	0.214403	0.616051	0.608279	99
Es	0.856579	0.011805	1.448554	99
Es	-0.779507	-0.557125	-0.080645	99
Es	0.671908	0.031932	0.751345	99
41
Properties=species:S:1:pos:R:3:Z:I:1 energy=-306.7340968038715 field_type=dipole dipole="0.000000 0.000000 0.000000" charge=0
O	-2.545421	0.055761	-0.388417	8
C	-1.109871	0.061351	-0.464647	6
C	-0.392431	1.105651	0.419013	6
C	0.671869	0.031931	0.751453	6
C	-0.382651	-1.029369	0.353153	6
C	1.865600	0.060241	-0.075017	6
C	2.849909	0.083591	-0.762357	6
H	-2.821961	-0.706739	-0.925347	1
H	-0.781861	0.099761	-1.511377	1
H	-0.977261	1.428151	1.289163	1
H	-0.038081	1.997991	-0.106187	1
H	0.924379	0.000431	1.818363	1
H	-0.020741	-1.884359	-0.226177	1
H	-0.964411	-1.410079	1.201573	1
H	3.722929	0.105681	-1.373187	1
Es	1.293888	0.047097	0.312290	99
Es	2.850125	0.083595	-0.762502	99
Es	0.219916	-0.550339	0.572955	99
Es	-2.582553	0.185047	-0.530488	99
Es	-1.999012	0.058730	-0.453610	99
Es	-0.382607	-1.029308	0.353157	99
Es	-0.392398	1.105572	0.419003	99
Es	-0.779022	-0.557459	-0.080234	99
Es	2.493594	0.334586	-0.234579	99
Es	-2.666705	-0.337359	-0.666430	99
Es	3.424559	0.098687	-1.159523	99
Es	-0.135158	-1.611373	-0.045400	99
Es	-0.796819	1.302494	1.013098	99
Es	-0.787799	-1.268961	0.933508	99
Es	-0.793658	0.648944	-0.044473	99
Es	2.431314	-0.264524	-0.345653	99
Es	-0.873884	0.083580	-1.183214	99
Es	-2.545194	0.055725	-0.388920	99
Es	1.865371	0.060233	-0.074863	99
Es	0.671908	0.031932	0.751345	99
Es	0.856566	0.011696	1.447891	99
Es	-1.110084	0.061338	-0.464579	99
Es	-0.148090	1.710501	0.058313	99
Es	2.171661	0.145082	-0.700716	99
Es	-2.695950	0.072713	-0.089009	99
Es	0.214460	0.616045	0.608577	99
41
Properties=species:S:1:pos:R:3:Z:I:1 energy=-306.7340968038715 field_type=dipole dipole="0.000000 0.000000 0.000000" charge=0
O	-2.545421	0.055761	-0.388417	8
C	-1.109871	0.061351	-0.464647	6
C	-0.392431	1.105651	0.419013	6
C	0.671869	0.031931	0.751453	6
C	-0.382651	-1.029369	0.353153	6
C	1.865600	0.060241	-0.075017	6
C	2.849909	0.083591	-0.762357	6
H	-2.821961	-0.706739	-0.925347	1
H	-0.781861	0.099761	-1.511377	1
H	-0.977261	1.428151	1.289163	1
H	-0.038081	1.997991	-0.106187	1
H	0.924379	0.000431	1.818363	1
H	-0.020741	-1.884359	-0.226177	1
H	-0.964411	-1.410079	1.201573	1
H	3.722929	0.105681	-1.373187	1
Es	2.445056	0.392534	-0.302965	99
Es	-0.778864	-0.557358	-0.079977	99
Es	-1.110081	0.061343	-0.464581	99
Es	0.220100	-0.550446	0.572947	99
Es	-2.580048	0.180913	-0.528465	99
Es	-2.545195	0.055571	-0.388689	99
Es	1.865372	0.060233	-0.074863	99
Es	-0.797093	1.302410	1.012993	99
Es	-2.699309	0.075145	-0.090778	99
Es	-0.873711	0.083632	-1.183262	99
Es	-0.787957	-1.268937	0.933492	99
Es	0.856432	0.011871	1.447772	99
Es	0.214550	0.615880	0.608490	99
Es	2.850129	0.083599	-0.762496	99
Es	2.481601	-0.218754	-0.271051	99
Es	-0.135421	-1.611200	-0.045412	99
Es	0.671910	0.031934	0.751343	99
Es	1.293995	0.046928	0.312364	99
Es	-0.148146	1.710420	0.058168	99
Es	-0.392399	1.105573	0.419004	99
Es	-0.793486	0.648772	-0.044372	99
Es	2.169821	0.041703	-0.707051	99
Es	-0.382608	-1.029309	0.353156	99
Es	-1.999043	0.058737	-0.454050	99
Es	-2.665830	-0.335482	-0.666368	99
Es	3.424653	0.098561	-1.159407	99
41
Properties=species:S:1:pos:R:3:Z:I:1 energy=-306.7340968038715 field_type=dipole dipole="0.000000 0.000000 0.000000" charge=0
O	-2.545421	0.055761	-0.388417	8
C	-1.109871	0.061351	-0.464647	6
C	-0.392431	1.105651	0.419013	6
C	0.671869	0.031931	0.751453	6
C	-0.382651	-1.029369	0.353153	6
C	1.865600	0.060241	-0.075017	6
C	2.849909	0.083591	-0.762357	6
H	-2.821961	-0.706739	-0.925347	1
H	-0.781861	0.099761	-1.511377	1
H	-0.977261	1.428151	1.289163	1
H	-0.038081	1.997991	-0.106187	1
H	0.924379	0.000431	1.818363	1
H	-0.020741	-1.884359	-0.226177	1
H	-0.964411	-1.410079	1.201573	1
H	3.722929	0.105681	-1.373187	1
Es	-0.135555	-1.611056	-0.045521	99
Es	-1.110075	0.061345	-0.464579	99
Es	3.424672	0.098695	-1.159407	99
Es	0.671910	0.031931	0.751344	99
Es	2.167906	0.086406	-0.707982	99
Es	-0.778615	-0.557367	-0.079665	99
Es	1.294000	0.047018	0.312270	99
Es	-2.700744	0.077650	-0.091814	99
Es	-2.664432	-0.336144	-0.663381	99
Es	-0.392398	1.105571	0.419002	99
Es	0.856353	0.011871	1.447585	99
Es	-0.797457	1.302134	1.012876	99
Es	0.214656	0.615836	0.608517	99
Es	-0.788264	-1.268833	0.933363	99
Es	-0.148216	1.710401	0.058117	99
Es	0.220101	-0.550380	0.572938	99
Es	2.850127	0.083587	-0.762502	99
Es	-1.999307	0.059548	-0.454986	99
Es	-2.545206	0.055476	-0.388543	99
Es	1.865370	0.060233	-0.074864	99
Es	-0.873449	0.083719	-1.183312	99
Es	2.461048	-0.240992	-0.301807	99
Es	-0.382607	-1.029307	0.353157	99
Es	-2.579757	0.178361	-0.529565	99
Es	-0.793216	0.648680	-0.044131	99
Es	2.467584	0.369892	-0.271165	99
41
Properties=species:S:1:pos:R:3:Z:I:1 energy=-306.7340968038715 field_type=dipole dipole="0.000000 0.000000 0.000000" charge=0
O	-2.545421	0.055761	-0.388417	8
C	-1.109871	0.061351	-0.464647	6
C	-0.392431	1.105651	0.419013	6
C	0.671869	0.031931	0.751453	6
C	-0.382651	-1.029369	0.353153	6
C	1.865600	0.060241	-0.075017	6
C	2.849909	0.083591	-0.762357	6
H	-2.821961	-0.706739	-0.925347	1
H	-0.781861	0.099761	-1.511377	1
H	-0.977261	1.428151	1.289163	1
H	-0.038081	1.997991	-0.106187	1
H	0.924379	0.000431	1.818363	1
H	-0.020741	-1.884359	-0.226177	1
H	-0.964411	-1.410079	1.201573	1
H	3.722929	0.105681	-1.373187	1
Es	0.220098	-0.550469	0.573104	99
Es	-0.793007	0.648766	-0.043939	99
Es	-0.873393	0.083701	-1.183324	99
Es	-0.392398	1.105573	0.419005	99
Es	2.474019	-0.227564	-0.282411	99
Es	1.294094	0.047034	0.312342	99
Es	0.856276	0.011911	1.446996	99
Es	3.424758	0.098649	-1.159307	99
Es	0.214675	0.615880	0.608632	99
Es	-2.578246	0.177776	-0.525894	99
Es	-0.797636	1.302069	1.012829	99
Es	-0.382608	-1.029309	0.353157	99
Es	2.453474	0.384693	-0.291063	99
Es	-0.778409	-0.557454	-0.079604	99
Es	-2.702242	0.074615	-0.092036	99
Es	-0.148281	1.710309	0.058065	99
Es	-1.999250	0.059376	-0.455293	99
Es	-1.110082	0.061349	-0.464579	99
Es	-0.788503	-1.268627	0.933275	99
Es	-2.664575	-0.332248	-0.666557	99
Es	-0.135610	-1.611059	-0.045475	99
Es	0.671909	0.031931	0.751344	99
Es	2.850125	0.083597	-0.762502	99
Es	2.169014	0.058204	-0.707526	99
Es	-2.545143	0.055336	-0.388430	99
Es	1.865368	0.060234	-0.074864	99
41
Properties=species:S:1:pos:R:3:Z:I:1 energy=-306.7340968038715 field_type=dipole dipole="0.000000 0.000000 0.000000" charge=0
O	-2.545421	0.055761	-0.388417	8
C	-1.109871	0.061351	-0.464647	6
C	-0.392431	1.105651	0.419013	6
C	0.671869	0.031931	0.751453	6
C	-0.382651	-1.029369	0.353153	6
C	1.865600	0.060241	-0.075017	6
C	2.849909	0.083591	-0.762357	6
H	-2.821961	-0.706739	-0.925347	1
H	-0.781861	0.099761	-1.511377	1
H	-0.977261	1.428151	1.289163	1
H	-0.038081	1.997991	-0.106187	1
H	0.924379	0.000431	1.818363	1
H	-0.020741	-1.884359	-0.226177	1
H	-0.964411	-1.410079	1.201573	1
H	3.722929	0.105681	-1.373187	1
Es	0.856312	0.011826	1.446812	99
Es	-1.999511	0.060316	-0.456158	99
Es	1.294053	0.046965	0.312205	99
Es	3.424773	0.098801	-1.159262	99
Es	-0.135679	-1.610926	-0.045473	99
Es	-0.148225	1.710279	0.057916	99
Es	2.437699	-0.260090	-0.336268	99
Es	-1.110077	0.061349	-0.464579	99
Es	1.865368	0.060234	-0.074868	99
Es	-2.577083	0.173759	-0.524209	99
Es	-0.382608	-1.029310	0.353156	99
Es	-0.873270	0.083758	-1.183350	99
Es	0.219955	-0.550372	0.573037	99
Es	-0.797927	1.301925	1.012674	99
Es	2.170352	0.134010	-0.702866	99
Es	2.488462	0.341364	-0.241877	99
Es	-2.663781	-0.332611	-0.665081	99
Es	0.214779	0.615814	0.608917	99
Es	-2.703845	0.077243	-0.093246	99
Es	-0.788767	-1.268545	0.933188	99
Es	-2.545244	0.056153	-0.389455	99
Es	-0.778187	-0.557545	-0.079450	99
Es	2.850125	0.083598	-0.762504	99
Es	0.671909	0.031932	0.751345	99
Es	-0.392399	1.105573	0.419004	99
Es	-0.792758	0.648772	-0.043664	99
41
Properties=species:S:1:pos:R:3:Z:I:1 energy=-306.7340968038715 field_type=dipole dipole="0.000000 0.000000 0.000000" charge=0
O	-2.545421	0.055761	-0.388417	8
C	-1.109871	0.061351	-0.464647	6
C	-0.392431	1.105651	0.419013	6
C	0.671869	0.031931	0.751453	6
C	-0.382651	-1.029369	0.353153	6
C	1.865600	0.060241	-0.075017	6
C	2.849909	0.083591	-0.762357	6
H	-2.821961	-0.706739	-0.925347	1
H	-0.781861	0.099761	-1.511377	1
H	-0.977261	1.428151	1.289163	1
H	-0.038081	1.997991	-0.106187	1
H	0.924379	0.000431	1.818363	1
H	-0.020741	-1.884359	-0.226177	1
H	-0.964411	-1.410079	1.201573	1
H	3.722929	0.105681	-1.373187	1
Es	-1.999448	0.060046	-0.456115	99
Es	-0.382606	-1.029308	0.353158	99
Es	-0.777986	-0.557743	-0.079237	99
Es	-0.792546	0.648920	-0.043535	99
Es	0.856301	0.012024	1.446485	99
Es	0.214573	0.615665	0.608832	99
Es	2.488871	-0.207847	-0.260128	99
Es	2.170191	0.026330	-0.706906	99
Es	-2.705718	0.077867	-0.094341	99
Es	2.850127	0.083595	-0.762499	99
Es	0.219981	-0.550415	0.573314	99
Es	-0.135681	-1.610866	-0.045551	99
Es	2.437419	0.397031	-0.314010	99
Es	-0.798125	1.301790	1.012606	99
Es	0.671908	0.031932	0.751344	99
Es	1.294104	0.046904	0.312242	99
Es	-0.148130	1.710280	0.057862	99
Es	-0.873255	0.083784	-1.183339	99
Es	-2.576114	0.172544	-0.523957	99
Es	-0.788924	-1.268492	0.933111	99
Es	-2.545195	0.055709	-0.388882	99
Es	-2.663005	-0.331259	-0.664801	99
Es	3.424794	0.098639	-1.159271	99
Es	1.865370	0.060230	-0.074862	99
Es	-0.392399	1.105573	0.419005	99
Es	-1.110080	0.061343	-0.464580	99
41
Properties=species:S:1:pos:R:3:Z:I:1 energy=-306.7340968038715 field_type=dipole dipole="0.000000 0.000000 0.000000" charge=0
O	-2.545421	0.055761	-0.388417	8
C	-1.109871	0.061351	-0.464647	6
C	-0.392431	1.105651	0.419013	6
C	0.671869	0.031931	0.751453	6
C	-0.382651	-1.029369	0.353153	6
C	1.865600	0.060241	-0.075017	6
C	2.849909	0.083591	-0.762357	6
H	-2.821961	-0.706739	-0.925347	1
H	-0.781861	0.099761	-1.511377	1
H	-0.977261	1.428151	1.289163	1
H	-0.038081	1.997991	-0.106187	1
H	0.924379	0.000431	1.818363	1
H	-0.020741	-1.884359	-0.226177	1
H	-0.964411	-1.410079	1.201573	1
H	3.722929	0.105681	-1.373187	1
Es	-0.148178	1.710277	0.057877	99
Es	0.856139	0.012072	1.446427	99
Es	-1.110078	0.061348	-0.464580	99
Es	-1.999647	0.060207	-0.457085	99
Es	-2.662710	-0.330985	-0.663661	99
Es	0.214689	0.615563	0.608754	99
Es	-0.873082	0.083797	-1.183371	99
Es	3.424855	0.098851	-1.159166	99
Es	-0.382607	-1.029309	0.353157	99
Es	-0.135769	-1.610798	-0.045495	99
Es	-0.777804	-0.557706	-0.079127	99
Es	2.450964	-0.249308	-0.316786	99
Es	0.220031	-0.550335	0.573263	99
Es	-2.545241	0.055555	-0.388629	99
Es	-0.792453	0.648762	-0.043485	99
Es	2.850124	0.083599	-0.762504	99
Es	-0.798293	1.301643	1.012534	99
Es	2.168476	0.106747	-0.706424	99
Es	2.477053	0.357786	-0.257842	99
Es	-2.575969	0.171824	-0.524143	99
Es	0.671908	0.031932	0.751345	99
Es	-0.392399	1.105574	0.419004	99
Es	-2.705924	0.078314	-0.094484	99
Es	1.294164	0.046962	0.312234	99
Es	1.865369	0.060235	-0.074864	99
Es	-0.789190	-1.268332	0.932995	99
41
Properties=species:S:1:pos:R:3:Z:I:1 energy=-306.7340968038715 field_type=dipole dipole="0.000000 0.000000 0.000000" charge=0
O	-2.545421	0.055761	-0.388417	8
C	-1.109871	0.061351	-0.464647	6
C	-0.392431	1.105651	0.419013	6
C	0.671869	0.031931	0.751453	6
C	-0.382651	-1.029369	0.353153	6
C	1.865600	0.060241	-0.075017	6
C	2.849909	0.083591	-0.762357	6
H	-2.821961	-0.706739	-0.925347	1
H	-0.781861	0.099761	-1.511377	1
H	-0.977261	1.428151	1.289163	1
H	-0.038081	1.997991	-0.106187	1
H	0.924379	0.000431	1.818363	1
H	-0.020741	-1.884359	-0.226177	1
H	-0.964411	-1.410079	1.201573	1
H	3.722929	0.105681	-1.373187	1
Es	-2.575851	0.171577	-0.523757	99
Es	2.415004	-0.270866	-0.369620	99
Es	-2.706557	0.077638	-0.094838	99
Es	-2.662320	-0.330311	-0.663857	99
Es	-0.148333	1.710219	0.057966	99
Es	0.671910	0.031930	0.751344	99
Es	3.424923	0.099028	-1.159047	99
Es	-1.999615	0.060542	-0.457010	99
Es	-0.777684	-0.557627	-0.078756	99
Es	-2.545153	0.055420	-0.388573	99
Es	-1.110087	0.061344	-0.464582	99
Es	2.175503	0.173683	-0.694263	99
Es	0.856149	0.011986	1.446172	99
Es	0.214868	0.615562	0.608831	99
Es	-0.798627	1.301422	1.012391	99
Es	-0.872853	0.083743	-1.183383	99
Es	-0.792252	0.648929	-0.043356	99
Es	0.220026	-0.550315	0.573212	99
Es	-0.382610	-1.029308	0.353156	99
Es	-0.789339	-1.268282	0.932935	99
Es	2.850125	0.083593	-0.762504	99
Es	-0.392398	1.105572	0.419005	99
Es	-0.135877	-1.610706	-0.045605	99
Es	1.294198	0.047075	0.312266	99
Es	1.865369	0.060231	-0.074864	99
Es	2.505907	0.312196	-0.217318	99
41
Properties=species:S:1:pos:R:3:Z:I:1 energy=-306.7340968038715 field_type=dipole dipole="0.000000 0.000000 0.000000" charge=0
O	-2.545421	0.055761	-0.388417	8
C	-1.109871	0.061351	-0.464647	6
C	-0.392431	1.105651	0.419013	6
C	0.671869	0.031931	0.751453	6
C	-0.382651	-1.029369	0.353153	6
C	1.865600	0.060241	-0.075017	6
C	2.849909	0.083591	-0.762357	6
H	-2.821961	-0.706739	-0.925347	1
H	-0.781861	0.099761	-1.511377	1
H	-0.977261	1.428151	1.289163	1
H	-0.038081	1.997991	-0.106187	1
H	0.924379	0.000431	1.818363	1
H	-0.020741	-1.884359	-0.226177	1
H	-0.964411	-1.410079	1.201573	1
H	3.722929	0.105681	-1.373187	1
Es	0.214842	0.615444	0.608891	99
Es	-0.777371	-0.557866	-0.078505	99
Es	3.424879	0.098873	-1.159150	99
Es	2.167940	0.087323	-0.707848	99
Es	-1.110080	0.061344	-0.464580	99
Es	0.220147	-0.550387	0.573343	99
Es	1.865368	0.060235	-0.074865	99
Es	-2.662926	-0.329380	-0.664899	99
Es	-2.707495	0.079106	-0.095555	99
Es	2.467088	0.368722	-0.272077	99
Es	-2.574259	0.169356	-0.521266	99
Es	-0.392399	1.105571	0.419003	99
Es	2.850126	0.083598	-0.762502	99
Es	-0.136112	-1.610601	-0.045641	99
Es	-2.545191	0.055694	-0.388856	99
Es	-0.792113	0.648855	-0.043084	99
Es	0.671907	0.031932	0.751345	99
Es	1.294180	0.046986	0.312205	99
Es	-1.999618	0.060110	-0.457386	99
Es	-0.872801	0.083851	-1.183398	99
Es	0.856178	0.012126	1.445985	99
Es	-0.789645	-1.268126	0.932756	99
Es	2.461434	-0.240765	-0.301173	99
Es	-0.382608	-1.029304	0.353154	99
Es	-0.798769	1.301468	1.012333	99
Es	-0.148275	1.710109	0.057716	99
