36
Properties=species:S:1:pos:R:3:Z:I:1 energy=-341.3937205946019 field_type=dipole dipole="0.000000 0.000000 0.000000" charge=0
O	-1.962265	0.750271	0.836976	8
C	-0.780555	0.659711	0.576826	6
C	0.315455	1.648741	0.200676	6
O	1.229196	0.531981	0.084606	8
C	0.260405	-0.459389	0.516686	6
C	0.047935	-1.450209	-0.509834	6
C	-0.125515	-2.286319	-1.354974	6
H	0.604155	2.336291	0.997386	1
H	0.166405	2.164691	-0.748674	1
H	0.522185	-0.861819	1.500006	1
H	-0.277405	-3.033949	-2.099684	1
Es	-2.085839	0.480190	0.903008	99
Es	0.260504	-0.459304	0.516530	99
Es	0.421948	-0.734899	1.162812	99
Es	1.443593	0.555760	0.302376	99
Es	-0.780500	0.659680	0.576814	99
Es	-0.316860	0.016293	0.558840	99
Es	-1.585242	0.679728	0.495899	99
Es	0.315566	1.648544	0.200672	99
Es	-2.052292	1.038578	0.816324	99
Es	0.144393	-0.971824	-0.006417	99
Es	0.497611	2.106420	0.740301	99
Es	1.228871	0.532027	0.084730	99
Es	-0.114605	-1.606447	-1.172284	99
Es	-1.474989	0.749292	0.989676	99
Es	-0.300796	-1.997250	-0.723767	99
Es	-0.125546	-2.286476	-1.355136	99
Es	0.047968	-1.450015	-0.509639	99
Es	-1.961967	0.750242	0.836914	99
Es	0.894588	0.969119	0.126201	99
Es	1.278388	0.484405	-0.210560	99
Es	0.206544	1.992572	-0.432639	99
Es	-0.284473	1.223674	0.391054	99
Es	-0.224166	-2.770390	-1.839141	99
Es	0.865843	0.134273	0.248333	99
Es	0.296782	-1.977481	-0.882273	99
36
Properties=species:S:1:pos:R:3:Z:I:1 energy=-341.3937205946019 field_type=dipole dipole="0.000000 0.000000 0.000000" charge=0
O	-1.962265	0.750271	0.836976	8
C	-0.780555	0.659711	0.576826	6
C	0.315455	1.648741	0.200676	6
O	1.229196	0.531981	0.084606	8
C	0.260405	-0.459389	0.516686	6
C	0.047935	-1.450209	-0.509834	6
C	-0.125515	-2.286319	-1.354974	6
H	0.604155	2.336291	0.997386	1
H	0.166405	2.164691	-0.748674	1
H	0.522185	-0.861819	1.500006	1
H	-0.277405	-3.033949	-2.099684	1
Es	-1.585832	0.681734	0.493440	99
Es	-0.307794	-1.990358	-0.729052	99
Es	-1.475109	0.747019	0.988821	99
Es	-0.223962	-2.772141	-1.839263	99
Es	0.143665	-0.972816	-0.007521	99
Es	-0.780498	0.659680	0.576806	99
Es	0.865373	0.133464	0.243198	99
Es	-0.284935	1.223563	0.389025	99
Es	1.228882	0.532003	0.084683	99
Es	0.421397	-0.732301	1.159703	99
Es	1.439417	0.550453	0.302378	99
Es	0.315567	1.648545	0.200673	99
Es	-2.080319	0.480286	0.901806	99
Es	-1.961942	0.750266	0.836909	99
Es	1.281432	0.489115	-0.212958	99
Es	-0.125552	-2.286469	-1.355143	99
Es	0.047972	-1.449996	-0.509633	99
Es	0.298910	-1.975536	-0.884182	99
Es	0.498261	2.109996	0.741261	99
Es	0.206642	1.989223	-0.429734	99
Es	-2.056912	1.038891	0.821298	99
Es	-0.109288	-1.615807	-1.164784	99
Es	0.260506	-0.459303	0.516526	99
Es	0.896151	0.970524	0.133845	99
Es	-0.316708	0.016673	0.560525	99
36
Properties=species:S:1:pos:R:3:Z:I:1 energy=-341.3937205946019 field_type=dipole dipole="0.000000 0.000000 0.000000" charge=0
O	-1.962265	0.750271	0.836976	8
C	-0.780555	0.659711	0.576826	6
C	0.315455	1.648741	0.200676	6
O	1.229196	0.531981	0.084606	8
C	0.260405	-0.459389	0.516686	6
C	0.047935	-1.450209	-0.509834	6
C	-0.125515	-2.286319	-1.354974	6
H	0.604155	2.336291	0.997386	1
H	0.166405	2.164691	-0.748674	1
H	0.522185	-0.861819	1.500006	1
H	-0.277405	-3.033949	-2.099684	1
Es	0.206809	1.986814	-0.427074	99
Es	-1.584857	0.679328	0.492852	99
Es	-1.476597	0.742259	0.989839	99
Es	1.228897	0.532014	0.084694	99
Es	-0.125542	-2.286478	-1.355150	99
Es	-0.316672	0.016900	0.561599	99
Es	1.435726	0.545220	0.302950	99
Es	0.898260	0.971991	0.139464	99
Es	-0.223833	-2.773032	-1.839299	99
Es	-2.051291	1.041856	0.821285	99
Es	-0.314291	-1.985248	-0.732937	99
Es	-0.780509	0.659684	0.576812	99
Es	0.420905	-0.730685	1.157200	99
Es	0.498493	2.112373	0.741497	99
Es	0.047971	-1.449996	-0.509632	99
Es	-2.085184	0.484555	0.901599	99
Es	-1.961960	0.750238	0.836911	99
Es	0.260505	-0.459302	0.516524	99
Es	0.864044	0.133040	0.236981	99
Es	0.143673	-0.973734	-0.007804	99
Es	0.301930	-1.971756	-0.888064	99
Es	-0.285175	1.223715	0.387544	99
Es	-0.105882	-1.624754	-1.156867	99
Es	1.284340	0.493159	-0.212972	99
Es	0.315565	1.648546	0.200674	99
36
Properties=species:S:1:pos:R:3:Z:I:1 energy=-341.3937205946019 field_type=dipole dipole="0.000000 0.000000 0.000000" charge=0
O	-1.962265	0.750271	0.836976	8
C	-0.780555	0.659711	0.576826	6
C	0.315455	1.648741	0.200676	6
O	1.229196	0.531981	0.084606	8
C	0.260405	-0.459389	0.516686	6
C	0.047935	-1.450209	-0.509834	6
C	-0.125515	-2.286319	-1.354974	6
H	0.604155	2.336291	0.997386	1
H	0.166405	2.164691	-0.748674	1
H	0.522185	-0.861819	1.500006	1
H	-0.277405	-3.033949	-2.099684	1
Es	0.498555	2.113891	0.741429	99
Es	1.228807	0.531990	0.084720	99
Es	-2.080916	0.484362	0.901605	99
Es	0.308671	-1.958176	-0.901156	99
Es	-1.961941	0.750250	0.836907	99
Es	0.047971	-1.449996	-0.509629	99
Es	-0.307594	-1.991269	-0.728875	99
Es	1.431002	0.541020	0.302669	99
Es	0.143452	-0.974324	-0.007920	99
Es	-0.285418	1.223761	0.386645	99
Es	1.287899	0.495891	-0.213052	99
Es	-0.224156	-2.773519	-1.839220	99
Es	-1.476460	0.741892	0.988708	99
Es	-0.118945	-1.632245	-1.148028	99
Es	-1.585414	0.679860	0.491544	99
Es	-0.780501	0.659682	0.576810	99
Es	0.863077	0.133012	0.232501	99
Es	0.420562	-0.729789	1.155072	99
Es	0.315563	1.648545	0.200674	99
Es	-0.125541	-2.286487	-1.355144	99
Es	-2.054981	1.041974	0.823587	99
Es	0.207065	1.985193	-0.424822	99
Es	0.260509	-0.459303	0.516526	99
Es	-0.316499	0.016983	0.562793	99
Es	0.900560	0.973511	0.144286	99
36
Properties=species:S:1:pos:R:3:Z:I:1 energy=-341.3937205946019 field_type=dipole dipole="0.000000 0.000000 0.000000" charge=0
O	-1.962265	0.750271	0.836976	8
C	-0.780555	0.659711	0.576826	6
C	0.315455	1.648741	0.200676	6
O	1.229196	0.531981	0.084606	8
C	0.260405	-0.459389	0.516686	6
C	0.047935	-1.450209	-0.509834	6
C	-0.125515	-2.286319	-1.354974	6
H	0.604155	2.336291	0.997386	1
H	0.166405	2.164691	-0.748674	1
H	0.522185	-0.861819	1.500006	1
H	-0.277405	-3.033949	-2.099684	1
Es	1.283521	0.498038	-0.213317	99
Es	0.315563	1.648550	0.200673	99
Es	0.047968	-1.449994	-0.509629	99
Es	-0.224012	-2.773679	-1.839446	99
Es	0.294500	-1.986844	-0.874166	99
Es	0.207363	1.983989	-0.423060	99
Es	-0.338562	-1.959625	-0.753169	99
Es	1.228826	0.532018	0.084697	99
Es	0.902797	0.974494	0.149374	99
Es	0.143780	-0.974900	-0.008000	99
Es	-2.080853	0.485783	0.901683	99
Es	0.498656	2.114952	0.741379	99
Es	-0.285584	1.223926	0.385852	99
Es	-0.780497	0.659681	0.576812	99
Es	-1.586191	0.680350	0.489430	99
Es	-2.054230	1.041727	0.825907	99
Es	-0.316203	0.016911	0.563179	99
Es	1.432896	0.538403	0.298167	99
Es	-0.074471	-1.635268	-1.150523	99
Es	0.863220	0.132566	0.232273	99
Es	-1.476288	0.740163	0.988527	99
Es	0.260503	-0.459304	0.516529	99
Es	0.420087	-0.728960	1.153699	99
Es	-1.961906	0.750213	0.836903	99
Es	-0.125554	-2.286481	-1.355147	99
36
Properties=species:S:1:pos:R:3:Z:I:1 energy=-341.3937205946019 field_type=dipole dipole="0.000000 0.000000 0.000000" charge=0
O	-1.962265	0.750271	0.836976	8
C	-0.780555	0.659711	0.576826	6
C	0.315455	1.648741	0.200676	6
O	1.229196	0.531981	0.084606	8
C	0.260405	-0.459389	0.516686	6
C	0.047935	-1.450209	-0.509834	6
C	-0.125515	-2.286319	-1.354974	6
H	0.604155	2.336291	0.997386	1
H	0.166405	2.164691	-0.748674	1
H	0.522185	-0.861819	1.500006	1
H	-0.277405	-3.033949	-2.099684	1
Es	-2.079440	0.487891	0.901677	99
Es	-0.316041	0.016929	0.563780	99
Es	-1.585765	0.678707	0.488343	99
Es	0.419893	-0.728499	1.152489	99
Es	-0.328168	-1.970564	-0.744666	99
Es	1.228840	0.532015	0.084711	99
Es	0.047966	-1.449986	-0.509633	99
Es	-0.125549	-2.286483	-1.355151	99
Es	0.498507	2.115620	0.741483	99
Es	1.428849	0.534362	0.296597	99
Es	-1.961956	0.750249	0.836925	99
Es	-0.780503	0.659682	0.576810	99
Es	-0.091598	-1.637710	-1.146207	99
Es	1.285558	0.500678	-0.211882	99
Es	0.260505	-0.459304	0.516526	99
Es	-2.055326	1.041674	0.825742	99
Es	-0.285900	1.224121	0.384788	99
Es	0.862242	0.132271	0.227330	99
Es	0.143710	-0.975105	-0.008126	99
Es	-1.476810	0.739760	0.989612	99
Es	0.315567	1.648545	0.200674	99
Es	0.207880	1.983113	-0.421197	99
Es	-0.224349	-2.773730	-1.839535	99
Es	0.905705	0.976115	0.154404	99
Es	0.301509	-1.973643	-0.886867	99
36
Properties=species:S:1:pos:R:3:Z:I:1 energy=-341.3937205946019 field_type=dipole dipole="0.000000 0.000000 0.000000" charge=0
O	-1.962265	0.750271	0.836976	8
C	-0.780555	0.659711	0.576826	6
C	0.315455	1.648741	0.200676	6
O	1.229196	0.531981	0.084606	8
C	0.260405	-0.459389	0.516686	6
C	0.047935	-1.450209	-0.509834	6
C	-0.125515	-2.286319	-1.354974	6
H	0.604155	2.336291	0.997386	1
H	0.166405	2.164691	-0.748674	1
H	0.522185	-0.861819	1.500006	1
H	-0.277405	-3.033949	-2.099684	1
Es	-0.780509	0.659684	0.576809	99
Es	1.228897	0.531998	0.084681	99
Es	0.315564	1.648544	0.200674	99
Es	-0.285681	1.224242	0.384869	99
Es	0.304859	-1.967545	-0.892890	99
Es	-1.961911	0.750220	0.836899	99
Es	-0.125552	-2.286481	-1.355153	99
Es	1.285631	0.502777	-0.211359	99
Es	-0.326936	-1.971806	-0.743866	99
Es	0.207842	1.982403	-0.420239	99
Es	0.143742	-0.975409	-0.008065	99
Es	0.498438	2.116173	0.741486	99
Es	-2.081403	0.489412	0.899537	99
Es	-1.586175	0.679849	0.487811	99
Es	0.862143	0.131542	0.224997	99
Es	-0.315850	0.016836	0.564204	99
Es	0.260507	-0.459304	0.516526	99
Es	-1.477679	0.733608	0.988007	99
Es	0.906664	0.976110	0.157291	99
Es	0.419890	-0.728223	1.151785	99
Es	0.047977	-1.449992	-0.509631	99
Es	-0.096172	-1.642389	-1.141199	99
Es	-2.051957	1.045216	0.829603	99
Es	1.427588	0.533078	0.295395	99
Es	-0.224590	-2.773831	-1.839543	99
36
Properties=species:S:1:pos:R:3:Z:I:1 energy=-341.3937205946019 field_type=dipole dipole="0.000000 0.000000 0.000000" charge=0
O	-1.962265	0.750271	0.836976	8
C	-0.780555	0.659711	0.576826	6
C	0.315455	1.648741	0.200676	6
O	1.229196	0.531981	0.084606	8
C	0.260405	-0.459389	0.516686	6
C	0.047935	-1.450209	-0.509834	6
C	-0.125515	-2.286319	-1.354974	6
H	0.604155	2.336291	0.997386	1
H	0.166405	2.164691	-0.748674	1
H	0.522185	-0.861819	1.500006	1
H	-0.277405	-3.033949	-2.099684	1
Es	0.419620	-0.727963	1.151219	99
Es	1.424439	0.530935	0.293126	99
Es	0.208177	1.981969	-0.419327	99
Es	-0.315605	0.016777	0.564282	99
Es	0.315567	1.648545	0.200674	99
Es	0.861735	0.130690	0.221762	99
Es	0.143718	-0.975471	-0.008209	99
Es	-2.055619	1.043170	0.827296	99
Es	-0.089252	-1.644193	-1.140264	99
Es	1.286795	0.504697	-0.209484	99
Es	-1.961876	0.750246	0.836892	99
Es	1.228884	0.532011	0.084696	99
Es	0.260506	-0.459304	0.516526	99
Es	-1.587477	0.675413	0.485793	99
Es	-0.125547	-2.286484	-1.355151	99
Es	-0.331747	-1.967208	-0.747575	99
Es	0.909021	0.977169	0.161118	99
Es	-0.285856	1.224422	0.384421	99
Es	-0.224852	-2.773938	-1.839484	99
Es	0.047969	-1.449987	-0.509633	99
Es	0.302819	-1.970316	-0.890180	99
Es	-1.476537	0.736903	0.989076	99
Es	-0.780507	0.659683	0.576813	99
Es	-2.077438	0.492459	0.902703	99
Es	0.498389	2.116484	0.741537	99
36
Properties=species:S:1:pos:R:3:Z:I:1 energy=-341.3937205946019 field_type=dipole dipole="0.000000 0.000000 0.000000" charge=0
O	-1.962265	0.750271	0.836976	8
C	-0.780555	0.659711	0.576826	6
C	0.315455	1.648741	0.200676	6
O	1.229196	0.531981	0.084606	8
C	0.260405	-0.459389	0.516686	6
C	0.047935	-1.450209	-0.509834	6
C	-0.125515	-2.286319	-1.354974	6
H	0.604155	2.336291	0.997386	1
H	0.166405	2.164691	-0.748674	1
H	0.522185	-0.861819	1.500006	1
H	-0.277405	-3.033949	-2.099684	1
Es	0.315565	1.648549	0.200674	99
Es	0.860955	0.131392	0.220221	99
Es	0.272234	-1.760119	-1.072267	99
Es	-0.780504	0.659683	0.576813	99
Es	-1.476776	0.735510	0.989368	99
Es	0.419692	-0.727940	1.151619	99
Es	0.260505	-0.459304	0.516526	99
Es	1.228908	0.532002	0.084690	99
Es	-2.078843	0.496472	0.904762	99
Es	-0.285259	1.224378	0.384477	99
Es	-0.371598	-1.739375	-0.980636	99
Es	0.909995	0.977176	0.162582	99
Es	0.498154	2.116283	0.741999	99
Es	-2.052267	1.043605	0.827814	99
Es	-0.315438	0.016661	0.563738	99
Es	-1.961980	0.750269	0.836920	99
Es	1.293071	0.504742	-0.210763	99
Es	-0.019101	-2.080656	-0.726806	99
Es	1.417541	0.530174	0.294428	99
Es	0.143218	-0.976522	-0.007044	99
Es	0.207884	1.982110	-0.419809	99
Es	-0.125556	-2.286478	-1.355154	99
Es	0.047962	-1.449975	-0.509641	99
Es	-1.588812	0.672428	0.483359	99
Es	-0.224225	-2.774355	-1.839243	99
36
Properties=species:S:1:pos:R:3:Z:I:1 energy=-341.3937205946019 field_type=dipole dipole="0.000000 0.000000 0.000000" charge=0
O	-1.962265	0.750271	0.836976	8
C	-0.780555	0.659711	0.576826	6
C	0.315455	1.648741	0.200676	6
O	1.229196	0.531981	0.084606	8
C	0.260405	-0.459389	0.516686	6
C	0.047935	-1.450209	-0.509834	6
C	-0.125515	-2.286319	-1.354974	6
H	0.604155	2.336291	0.997386	1
H	0.166405	2.164691	-0.748674	1
H	0.522185	-0.861819	1.500006	1
H	-0.277405	-3.033949	-2.099684	1
Es	1.228893	0.531996	0.084684	99
Es	-2.050657	1.045717	0.829385	99
Es	0.143708	-0.975783	-0.008129	99
Es	-1.961995	0.750254	0.836920	99
Es	0.419419	-0.727611	1.150569	99
Es	0.260506	-0.459303	0.516525	99
Es	-2.080134	0.497039	0.902595	99
Es	-0.329552	-1.968634	-0.746670	99
Es	-0.315353	0.016733	0.564328	99
Es	1.420670	0.527631	0.290379	99
Es	-0.780504	0.659683	0.576815	99
Es	-0.285896	1.224692	0.383965	99
Es	0.498160	2.116926	0.741699	99
Es	0.304925	-1.965895	-0.894519	99
Es	0.047975	-1.449987	-0.509631	99
Es	0.860774	0.129208	0.214568	99
Es	0.315553	1.648564	0.200659	99
Es	1.287503	0.508751	-0.205353	99
Es	-0.093501	-1.647169	-1.136882	99
Es	-0.125554	-2.286483	-1.355152	99
Es	-0.225132	-2.773849	-1.839682	99
Es	0.912830	0.977869	0.166899	99
Es	0.208532	1.981206	-0.417774	99
Es	-1.588468	0.673464	0.483626	99
Es	-1.477378	0.731688	0.988804	99
36
Properties=species:S:1:pos:R:3:Z:I:1 energy=-341.3937205946019 field_type=dipole dipole="0.000000 0.000000 0.000000" charge=0
O	-1.962265	0.750271	0.836976	8
C	-0.780555	0.659711	0.576826	6
C	0.315455	1.648741	0.200676	6
O	1.229196	0.531981	0.084606	8
C	0.260405	-0.459389	0.516686	6
C	0.047935	-1.450209	-0.509834	6
C	-0.125515	-2.286319	-1.354974	6
H	0.604155	2.336291	0.997386	1
H	0.166405	2.164691	-0.748674	1
H	0.522185	-0.861819	1.500006	1
H	-0.277405	-3.033949	-2.099684	1
Es	0.419402	-0.727634	1.151172	99
Es	0.047973	-1.449994	-0.509622	99
Es	0.860618	0.130371	0.215892	99
Es	0.498053	2.116688	0.742022	99
Es	-1.962048	0.750256	0.836919	99
Es	1.414531	0.527031	0.289159	99
Es	-0.371668	-1.739205	-0.980760	99
Es	0.272915	-1.762058	-1.070526	99
Es	1.291709	0.508026	-0.208535	99
Es	-0.224574	-2.774261	-1.839389	99
Es	0.208127	1.981477	-0.418521	99
Es	-0.780505	0.659684	0.576820	99
Es	-1.589703	0.670764	0.481555	99
Es	1.228855	0.531981	0.084660	99
Es	-2.078398	0.499708	0.904823	99
Es	-0.315214	0.016678	0.563559	99
Es	-0.019740	-2.078863	-0.728447	99
Es	0.260506	-0.459304	0.516525	99
Es	-1.477051	0.733235	0.989630	99
Es	0.914715	0.978004	0.169988	99
Es	-0.285327	1.224562	0.384123	99
Es	0.315568	1.648544	0.200674	99
Es	-0.125555	-2.286482	-1.355153	99
Es	0.143341	-0.976753	-0.007047	99
Es	-2.051204	1.044254	0.829104	99
36
Properties=species:S:1:pos:R:3:Z:I:1 energy=-341.3937205946019 field_type=dipole dipole="0.000000 0.000000 0.000000" charge=0
O	-1.962265	0.750271	0.836976	8
C	-0.780555	0.659711	0.576826	6
C	0.315455	1.648741	0.200676	6
O	1.229196	0.531981	0.084606	8
C	0.260405	-0.459389	0.516686	6
C	0.047935	-1.450209	-0.509834	6
C	-0.125515	-2.286319	-1.354974	6
H	0.604155	2.336291	0.997386	1
H	0.166405	2.164691	-0.748674	1
H	0.522185	-0.861819	1.500006	1
H	-0.277405	-3.033949	-2.099684	1
Es	-0.225464	-2.774082	-1.839414	99
Es	0.142720	-0.976888	-0.006888	99
Es	-1.961924	0.750244	0.836913	99
Es	1.411020	0.524939	0.288010	99
Es	0.315568	1.648543	0.200673	99
Es	-0.168574	-2.057551	-0.701341	99
Es	1.293179	0.509851	-0.206918	99
Es	-1.475867	0.736542	0.990937	99
Es	0.498295	2.117684	0.741073	99
Es	0.318643	-1.856539	-0.993212	99
Es	-0.780505	0.659683	0.576815	99
Es	-0.125554	-2.286490	-1.355145	99
Es	-2.053768	1.041377	0.827774	99
Es	-0.287565	1.224862	0.380928	99
Es	1.228907	0.532008	0.084686	99
Es	-0.315807	0.017022	0.567313	99
Es	0.860758	0.130319	0.212549	99
Es	-0.266838	-1.666671	-1.084835	99
Es	-1.590809	0.669777	0.480211	99
Es	0.209812	1.979514	-0.412997	99
Es	0.418921	-0.727020	1.145960	99
Es	0.260505	-0.459302	0.516526	99
Es	0.917834	0.978630	0.172438	99
Es	-2.076147	0.500247	0.906203	99
Es	0.047987	-1.449990	-0.509633	99
36
Properties=species:S:1:pos:R:3:Z:I:1 energy=-341.3937205946019 field_type=dipole dipole="0.000000 0.000000 0.000000" charge=0
O	-1.962265	0.750271	0.836976	8
C	-0.780555	0.659711	0.576826	6
C	0.315455	1.648741	0.200676	6
O	1.229196	0.531981	0.084606	8
C	0.260405	-0.459389	0.516686	6
C	0.047935	-1.450209	-0.509834	6
C	-0.125515	-2.286319	-1.354974	6
H	0.604155	2.336291	0.997386	1
H	0.166405	2.164691	-0.748674	1
H	0.522185	-0.861819	1.500006	1
H	-0.277405	-3.033949	-2.099684	1
Es	1.414778	0.524866	0.286056	99
Es	0.306097	-1.962317	-0.897934	99
Es	-2.051065	1.045387	0.829106	99
Es	-0.780509	0.659684	0.576820	99
Es	0.315568	1.648543	0.200675	99
Es	-2.076182	0.504652	0.907032	99
Es	0.208920	1.980600	-0.416400	99
Es	0.260507	-0.459303	0.516524	99
Es	1.288521	0.513045	-0.198629	99
Es	-0.094078	-1.650961	-1.133192	99
Es	1.229033	0.531995	0.084661	99
Es	-0.125561	-2.286479	-1.355153	99
Es	-1.592561	0.665762	0.479178	99
Es	0.498105	2.117302	0.741704	99
Es	0.047978	-1.449993	-0.509625	99
Es	0.419212	-0.727357	1.150537	99
Es	-1.476591	0.731935	0.988473	99
Es	0.860422	0.126943	0.205262	99
Es	0.143665	-0.975918	-0.008189	99
Es	-0.225489	-2.773844	-1.839716	99
Es	-1.961965	0.750245	0.836910	99
Es	-0.314838	0.016651	0.564088	99
Es	-0.330164	-1.968339	-0.747061	99
Es	0.917668	0.978617	0.173821	99
Es	-0.286146	1.224991	0.383679	99
36
Properties=species:S:1:pos:R:3:Z:I:1 energy=-341.3937205946019 field_type=dipole dipole="0.000000 0.000000 0.000000" charge=0
O	-1.962265	0.750271	0.836976	8
C	-0.780555	0.659711	0.576826	6
C	0.315455	1.648741	0.200676	6
O	1.229196	0.531981	0.084606	8
C	0.260405	-0.459389	0.516686	6
C	0.047935	-1.450209	-0.509834	6
C	-0.125515	-2.286319	-1.354974	6
H	0.604155	2.336291	0.997386	1
H	0.166405	2.164691	-0.748674	1
H	0.522185	-0.861819	1.500006	1
H	-0.277405	-3.033949	-2.099684	1
Es	-2.074656	0.508051	0.909947	99
Es	-0.314824	0.016503	0.563797	99
Es	-0.012980	-2.076197	-0.733242	99
Es	0.419329	-0.727461	1.150815	99
Es	-0.780510	0.659684	0.576817	99
Es	0.860181	0.128975	0.210592	99
Es	0.208375	1.980982	-0.417487	99
Es	1.412561	0.524714	0.283990	99
Es	0.269618	-1.757791	-1.074193	99
Es	0.497983	2.116995	0.742041	99
Es	0.260509	-0.459303	0.516525	99
Es	0.919314	0.978563	0.176288	99
Es	-0.224862	-2.774269	-1.839425	99
Es	-0.375323	-1.746250	-0.972133	99
Es	-0.125553	-2.286489	-1.355148	99
Es	-1.961944	0.750237	0.836904	99
Es	-1.594751	0.661894	0.477321	99
Es	1.289234	0.511332	-0.204472	99
Es	0.047973	-1.449993	-0.509623	99
Es	-2.050904	1.043780	0.827859	99
Es	-1.475926	0.734140	0.989244	99
Es	0.315565	1.648547	0.200675	99
Es	0.143474	-0.976675	-0.007352	99
Es	-0.285468	1.224739	0.384202	99
Es	1.228910	0.532000	0.084685	99
36
Properties=species:S:1:pos:R:3:Z:I:1 energy=-341.3937205946019 field_type=dipole dipole="0.000000 0.000000 0.000000" charge=0
O	-1.962265	0.750271	0.836976	8
C	-0.780555	0.659711	0.576826	6
C	0.315455	1.648741	0.200676	6
O	1.229196	0.531981	0.084606	8
C	0.260405	-0.459389	0.516686	6
C	0.047935	-1.450209	-0.509834	6
C	-0.125515	-2.286319	-1.354974	6
H	0.604155	2.336291	0.997386	1
H	0.166405	2.164691	-0.748674	1
H	0.522185	-0.861819	1.500006	1
H	-0.277405	-3.033949	-2.099684	1
Es	1.408162	0.523602	0.279247	99
Es	-0.225454	-2.773884	-1.839730	99
Es	-0.285931	1.225004	0.384051	99
Es	-2.055435	1.039608	0.825519	99
Es	0.860107	0.126584	0.203921	99
Es	-1.474364	0.739056	0.990880	99
Es	-0.125557	-2.286479	-1.355156	99
Es	0.923954	0.979121	0.181422	99
Es	-0.314770	0.016477	0.563836	99
Es	-2.072978	0.504110	0.909337	99
Es	1.228833	0.532075	0.084841	99
Es	0.293194	-1.986108	-0.875114	99
Es	0.143793	-0.975942	-0.008317	99
Es	-0.060549	-1.651775	-1.135737	99
Es	-1.593329	0.664981	0.478243	99
Es	0.419170	-0.727244	1.150403	99
Es	0.260506	-0.459303	0.516524	99
Es	0.315565	1.648547	0.200675	99
Es	0.047972	-1.449986	-0.509629	99
Es	1.289198	0.514143	-0.198209	99
Es	0.498124	2.117410	0.741692	99
Es	-0.351240	-1.943699	-0.767267	99
Es	-1.961932	0.750212	0.836906	99
Es	0.208802	1.980510	-0.416533	99
Es	-0.780516	0.659686	0.576824	99
36
Properties=species:S:1:pos:R:3:Z:I:1 energy=-341.3937205946019 field_type=dipole dipole="0.000000 0.000000 0.000000" charge=0
O	-1.962265	0.750271	0.836976	8
C	-0.780555	0.659711	0.576826	6
C	0.315455	1.648741	0.200676	6
O	1.229196	0.531981	0.084606	8
C	0.260405	-0.459389	0.516686	6
C	0.047935	-1.450209	-0.509834	6
C	-0.125515	-2.286319	-1.354974	6
H	0.604155	2.336291	0.997386	1
H	0.166405	2.164691	-0.748674	1
H	0.522185	-0.861819	1.500006	1
H	-0.277405	-3.033949	-2.099684	1
Es	-0.225740	-2.773836	-1.839727	99
Es	-0.336212	-1.961964	-0.752195	99
Es	-1.961985	0.750250	0.836914	99
Es	0.303893	-1.966614	-0.893879	99
Es	0.143730	-0.975941	-0.008326	99
Es	0.260504	-0.459304	0.516526	99
Es	0.419158	-0.727263	1.150457	99
Es	-0.314627	0.016472	0.563894	99
Es	0.860299	0.126061	0.200073	99
Es	0.498063	2.117445	0.741738	99
Es	-0.085969	-1.652980	-1.132142	99
Es	-2.050073	1.045555	0.829010	99
Es	-2.074903	0.509232	0.908502	99
Es	0.208932	1.980371	-0.416094	99
Es	1.411476	0.522848	0.279947	99
Es	-1.594867	0.661880	0.477333	99
Es	-0.125554	-2.286488	-1.355149	99
Es	0.315561	1.648552	0.200672	99
Es	0.047976	-1.449988	-0.509627	99
Es	-0.286084	1.225096	0.384064	99
Es	-1.476219	0.730943	0.988687	99
Es	0.923332	0.978684	0.181366	99
Es	-0.780508	0.659686	0.576804	99
Es	1.228900	0.532031	0.084726	99
Es	1.286244	0.515982	-0.194947	99
36
Properties=species:S:1:pos:R:3:Z:I:1 energy=-341.3937205946019 field_type=dipole dipole="0.000000 0.000000 0.000000" charge=0
O	-1.962265	0.750271	0.836976	8
C	-0.780555	0.659711	0.576826	6
C	0.315455	1.648741	0.200676	6
O	1.229196	0.531981	0.084606	8
C	0.260405	-0.459389	0.516686	6
C	0.047935	-1.450209	-0.509834	6
C	-0.125515	-2.286319	-1.354974	6
H	0.604155	2.336291	0.997386	1
H	0.166405	2.164691	-0.748674	1
H	0.522185	-0.861819	1.500006	1
H	-0.277405	-3.033949	-2.099684	1
Es	0.419196	-0.727195	1.150334	99
Es	0.047977	-1.449977	-0.509639	99
Es	1.286415	0.516680	-0.194112	99
Es	0.143721	-0.976020	-0.008272	99
Es	-0.780512	0.659685	0.576819	99
Es	-0.125555	-2.286484	-1.355152	99
Es	-0.078024	-1.652592	-1.133305	99
Es	-1.475927	0.732087	0.989209	99
Es	-0.341052	-1.956232	-0.756867	99
Es	1.228963	0.532004	0.084676	99
Es	-0.314634	0.016486	0.563939	99
Es	-2.048809	1.044686	0.827607	99
Es	-1.595122	0.661030	0.477066	99
Es	0.300745	-1.972755	-0.888003	99
Es	0.260507	-0.459304	0.516524	99
Es	-0.286056	1.225118	0.384042	99
Es	0.498046	2.117466	0.741766	99
Es	0.925235	0.978637	0.183930	99
Es	0.315565	1.648547	0.200675	99
Es	0.860306	0.126103	0.198272	99
Es	1.409243	0.522195	0.278298	99
Es	-2.076185	0.509778	0.909626	99
Es	-0.225719	-2.773813	-1.839777	99
Es	-1.961945	0.750270	0.836912	99
Es	0.208947	1.980310	-0.415939	99
36
Properties=species:S:1:pos:R:3:Z:I:1 energy=-341.3937205946019 field_type=dipole dipole="0.000000 0.000000 0.000000" charge=0
O	-1.962265	0.750271	0.836976	8
C	-0.780555	0.659711	0.576826	6
C	0.315455	1.648741	0.200676	6
O	1.229196	0.531981	0.084606	8
C	0.260405	-0.459389	0.516686	6
C	0.047935	-1.450209	-0.509834	6
C	-0.125515	-2.286319	-1.354974	6
H	0.604155	2.336291	0.997386	1
H	0.166405	2.164691	-0.748674	1
H	0.522185	-0.861819	1.500006	1
H	-0.277405	-3.033949	-2.099684	1
Es	-1.475220	0.734197	0.989635	99
Es	1.408571	0.522714	0.279451	99
Es	0.047973	-1.449988	-0.509628	99
Es	-2.069909	0.516087	0.912629	99
Es	-0.780525	0.659686	0.576823	99
Es	0.419207	-0.727357	1.150730	99
Es	1.228913	0.531997	0.084677	99
Es	0.924228	0.978176	0.183196	99
Es	-0.285693	1.224944	0.383894	99
Es	-0.380012	-1.755384	-0.961018	99
Es	0.497911	2.117191	0.742052	99
Es	0.860148	0.126870	0.201808	99
Es	0.260506	-0.459304	0.516525	99
Es	-1.961915	0.750199	0.836895	99
Es	1.288305	0.515744	-0.198023	99
Es	-1.599758	0.653991	0.474286	99
Es	0.143518	-0.976736	-0.007388	99
Es	-0.225074	-2.774171	-1.839527	99
Es	0.315565	1.648548	0.200674	99
Es	0.208735	1.980614	-0.416570	99
Es	-0.000949	-2.075777	-0.737419	99
Es	0.262141	-1.749095	-1.081084	99
Es	-2.051285	1.043449	0.827344	99
Es	-0.125553	-2.286485	-1.355152	99
Es	-0.314504	0.016600	0.563818	99
36
Properties=species:S:1:pos:R:3:Z:I:1 energy=-341.3937205946019 field_type=dipole dipole="0.000000 0.000000 0.000000" charge=0
O	-1.962265	0.750271	0.836976	8
C	-0.780555	0.659711	0.576826	6
C	0.315455	1.648741	0.200676	6
O	1.229196	0.531981	0.084606	8
C	0.260405	-0.459389	0.516686	6
C	0.047935	-1.450209	-0.509834	6
C	-0.125515	-2.286319	-1.354974	6
H	0.604155	2.336291	0.997386	1
H	0.166405	2.164691	-0.748674	1
H	0.522185	-0.861819	1.500006	1
H	-0.277405	-3.033949	-2.099684	1
Es	-0.337229	-1.960476	-0.753448	99
Es	-0.780507	0.659684	0.576817	99
Es	1.406614	0.522624	0.277070	99
Es	1.287706	0.516865	-0.192545	99
Es	-1.475513	0.733884	0.990395	99
Es	-1.961936	0.750243	0.836906	99
Es	0.926524	0.978961	0.184657	99
Es	-0.125554	-2.286482	-1.355156	99
Es	0.418950	-0.727055	1.150276	99
Es	-0.286504	1.225282	0.383442	99
Es	0.860403	0.125195	0.197320	99
Es	0.303253	-1.967609	-0.892935	99
Es	-2.072641	0.514265	0.911422	99
Es	0.143776	-0.976015	-0.008342	99
Es	-2.050575	1.043824	0.825548	99
Es	0.498114	2.117636	0.741669	99
Es	-0.084363	-1.653456	-1.131847	99
Es	0.260505	-0.459304	0.516525	99
Es	-1.597212	0.655506	0.476082	99
Es	0.315566	1.648546	0.200675	99
Es	0.209354	1.979981	-0.414964	99
Es	0.047974	-1.449986	-0.509629	99
Es	-0.314471	0.016479	0.563680	99
Es	1.228952	0.532009	0.084682	99
Es	-0.225864	-2.773892	-1.839672	99
36
Properties=species:S:1:pos:R:3:Z:I:1 energy=-341.3937205946019 field_type=dipole dipole="0.000000 0.000000 0.000000" charge=0
O	-1.962265	0.750271	0.836976	8
C	-0.780555	0.659711	0.576826	6
C	0.315455	1.648741	0.200676	6
O	1.229196	0.531981	0.084606	8
C	0.260405	-0.459389	0.516686	6
C	0.047935	-1.450209	-0.509834	6
C	-0.125515	-2.286319	-1.354974	6
H	0.604155	2.336291	0.997386	1
H	0.166405	2.164691	-0.748674	1
H	0.522185	-0.861819	1.500006	1
H	-0.277405	-3.033949	-2.099684	1
Es	0.209313	1.979995	-0.415041	99
Es	-0.286449	1.225267	0.383525	99
Es	-0.125556	-2.286483	-1.355154	99
Es	-1.474821	0.735352	0.990990	99
Es	1.404713	0.522085	0.275309	99
Es	-1.597623	0.655967	0.475665	99
Es	1.287475	0.517794	-0.190500	99
Es	0.928520	0.978831	0.187162	99
Es	-0.337112	-1.960338	-0.753557	99
Es	0.047977	-1.449983	-0.509633	99
Es	0.143692	-0.975981	-0.008354	99
Es	-0.780515	0.659685	0.576820	99
Es	0.860588	0.124931	0.194470	99
Es	-0.314529	0.016400	0.563678	99
Es	0.303342	-1.967801	-0.892800	99
Es	-2.071249	0.514053	0.911450	99
Es	0.260514	-0.459306	0.516528	99
Es	-2.052192	1.042222	0.825401	99
Es	-0.225780	-2.773883	-1.839698	99
Es	1.228919	0.531997	0.084685	99
Es	-1.961925	0.750229	0.836903	99
Es	0.315566	1.648547	0.200675	99
Es	-0.084608	-1.653433	-1.131843	99
Es	0.498048	2.117645	0.741665	99
Es	0.419017	-0.727081	1.150281	99
36
Properties=species:S:1:pos:R:3:Z:I:1 energy=-341.3937205946019 field_type=dipole dipole="0.000000 0.000000 0.000000" charge=0
O	-1.962265	0.750271	0.836976	8
C	-0.780555	0.659711	0.576826	6
C	0.315455	1.648741	0.200676	6
O	1.229196	0.531981	0.084606	8
C	0.260405	-0.459389	0.516686	6
C	0.047935	-1.450209	-0.509834	6
C	-0.125515	-2.286319	-1.354974	6
H	0.604155	2.336291	0.997386	1
H	0.166405	2.164691	-0.748674	1
H	0.522185	-0.861819	1.500006	1
H	-0.277405	-3.033949	-2.099684	1
Es	-0.286102	1.225032	0.383386	99
Es	-0.225218	-2.774219	-1.839485	99
Es	-2.055593	1.040032	0.826716	99
Es	1.403434	0.522100	0.277391	99
Es	0.047972	-1.449990	-0.509624	99
Es	0.860106	0.126865	0.199597	99
Es	-0.125554	-2.286485	-1.355151	99
Es	-0.780514	0.659685	0.576820	99
Es	-2.065103	0.516641	0.913866	99
Es	1.290764	0.516136	-0.196761	99
Es	-0.378148	-1.752374	-0.964727	99
Es	-1.473674	0.738102	0.990224	99
Es	1.228838	0.532016	0.084729	99
Es	0.143569	-0.976818	-0.007421	99
Es	0.260506	-0.459303	0.516524	99
Es	0.263967	-1.751723	-1.078874	99
Es	0.497880	2.117334	0.742033	99
Es	-0.314496	0.016516	0.563825	99
Es	0.209159	1.980278	-0.415474	99
Es	-1.961857	0.750252	0.836897	99
Es	-1.601665	0.652917	0.472909	99
Es	0.315567	1.648545	0.200675	99
Es	-0.004553	-2.076173	-0.735924	99
Es	0.927011	0.978491	0.186163	99
Es	0.419030	-0.727150	1.150315	99
36
Properties=species:S:1:pos:R:3:Z:I:1 energy=-341.3937205946019 field_type=dipole dipole="0.000000 0.000000 0.000000" charge=0
O	-1.962265	0.750271	0.836976	8
C	-0.780555	0.659711	0.576826	6
C	0.315455	1.648741	0.200676	6
O	1.229196	0.531981	0.084606	8
C	0.260405	-0.459389	0.516686	6
C	0.047935	-1.450209	-0.509834	6
C	-0.125515	-2.286319	-1.354974	6
H	0.604155	2.336291	0.997386	1
H	0.166405	2.164691	-0.748674	1
H	0.522185	-0.861819	1.500006	1
H	-0.277405	-3.033949	-2.099684	1
Es	-0.342042	-1.955612	-0.757452	99
Es	0.260504	-0.459303	0.516525	99
Es	0.209414	1.979877	-0.414714	99
Es	-0.076894	-1.653971	-1.132089	99
Es	-1.600232	0.654233	0.474078	99
Es	-1.961969	0.750258	0.836927	99
Es	-2.070622	0.515729	0.913466	99
Es	1.228956	0.531988	0.084677	99
Es	1.404232	0.521627	0.274075	99
Es	0.860473	0.124877	0.192614	99
Es	0.315565	1.648548	0.200675	99
Es	0.418980	-0.727021	1.150398	99
Es	0.300567	-1.972000	-0.888636	99
Es	0.143722	-0.976059	-0.008310	99
Es	-0.286552	1.225376	0.383563	99
Es	-0.314388	0.016434	0.563583	99
Es	-2.050523	1.042997	0.826761	99
Es	0.498098	2.117686	0.741673	99
Es	-0.125557	-2.286486	-1.355151	99
Es	-0.780517	0.659686	0.576821	99
Es	-0.225890	-2.773808	-1.839772	99
Es	1.286478	0.518572	-0.189084	99
Es	0.929973	0.978638	0.188745	99
Es	0.047977	-1.449986	-0.509630	99
Es	-1.474429	0.734433	0.988881	99
36
Properties=species:S:1:pos:R:3:Z:I:1 energy=-341.3937205946019 field_type=dipole dipole="0.000000 0.000000 0.000000" charge=0
O	-1.962265	0.750271	0.836976	8
C	-0.780555	0.659711	0.576826	6
C	0.315455	1.648741	0.200676	6
O	1.229196	0.531981	0.084606	8
C	0.260405	-0.459389	0.516686	6
C	0.047935	-1.450209	-0.509834	6
C	-0.125515	-2.286319	-1.354974	6
H	0.604155	2.336291	0.997386	1
H	0.166405	2.164691	-0.748674	1
H	0.522185	-0.861819	1.500006	1
H	-0.277405	-3.033949	-2.099684	1
Es	-0.314449	0.016504	0.564037	99
Es	0.931569	0.978495	0.190467	99
Es	0.498022	2.117513	0.741813	99
Es	1.228890	0.531987	0.084681	99
Es	-0.125556	-2.286482	-1.355155	99
Es	0.279290	-1.770714	-1.064043	99
Es	1.398492	0.522194	0.273134	99
Es	-0.780519	0.659685	0.576820	99
Es	-1.473942	0.737336	0.990832	99
Es	0.209113	1.980127	-0.415379	99
Es	0.143207	-0.976775	-0.007414	99
Es	0.419031	-0.727133	1.149923	99
Es	-1.961968	0.750249	0.836917	99
Es	0.859783	0.126710	0.200027	99
Es	-0.286147	1.225083	0.383407	99
Es	-2.052143	1.040889	0.825078	99
Es	-0.029357	-2.073206	-0.731014	99
Es	0.260507	-0.459302	0.516523	99
Es	-2.067988	0.518209	0.914626	99
Es	0.315567	1.648546	0.200676	99
Es	1.291450	0.516248	-0.197181	99
Es	-0.368286	-1.736383	-0.984529	99
Es	0.047973	-1.449988	-0.509626	99
Es	-0.225442	-2.774215	-1.839445	99
Es	-1.601772	0.651134	0.473454	99
36
Properties=species:S:1:pos:R:3:Z:I:1 energy=-341.3937205946019 field_type=dipole dipole="0.000000 0.000000 0.000000" charge=0
O	-1.962265	0.750271	0.836976	8
C	-0.780555	0.659711	0.576826	6
C	0.315455	1.648741	0.200676	6
O	1.229196	0.531981	0.084606	8
C	0.260405	-0.459389	0.516686	6
C	0.047935	-1.450209	-0.509834	6
C	-0.125515	-2.286319	-1.354974	6
H	0.604155	2.336291	0.997386	1
H	0.166405	2.164691	-0.748674	1
H	0.522185	-0.861819	1.500006	1
H	-0.277405	-3.033949	-2.099684	1
Es	1.400776	0.522043	0.272807	99
Es	-1.603084	0.648470	0.472920	99
Es	0.208941	1.980234	-0.415770	99
Es	0.497958	2.117458	0.741918	99
Es	-0.314263	0.016447	0.563464	99
Es	-0.780514	0.659685	0.576818	99
Es	0.931095	0.978333	0.190698	99
Es	0.315569	1.648544	0.200674	99
Es	-0.285920	1.224980	0.383793	99
Es	0.860132	0.126196	0.198529	99
Es	-0.377490	-1.749572	-0.968014	99
Es	0.268745	-1.757677	-1.074111	99
Es	-0.125554	-2.286485	-1.355151	99
Es	-2.051683	1.041731	0.825147	99
Es	-2.066850	0.520788	0.915141	99
Es	0.047967	-1.449987	-0.509625	99
Es	-1.474331	0.736630	0.990464	99
Es	-1.961922	0.750229	0.836906	99
Es	1.289049	0.517122	-0.195614	99
Es	0.143441	-0.976743	-0.007498	99
Es	-0.225450	-2.774208	-1.839450	99
Es	-0.009783	-2.073080	-0.737393	99
Es	0.260505	-0.459304	0.516525	99
Es	1.228986	0.531980	0.084675	99
Es	0.419006	-0.727105	1.150775	99
