38
Properties=species:S:1:pos:R:3:Z:I:1 energy=-305.61478997634646 field_type=dipole dipole="0.000000 0.000000 0.000000" charge=0
O	-1.098992	-2.478135	-0.400258	8
C	-0.920522	-1.597035	0.438402	6
C	0.253688	-0.626935	0.444752	6
C	-0.179402	0.724725	0.953102	6
C	0.017608	1.653185	0.001972	6
C	0.571238	1.025085	-1.170398	6
C	0.721228	-0.287805	-0.943928	6
H	-1.579892	-1.543735	1.322812	1
H	1.058238	-1.034875	1.063642	1
H	-0.571512	0.919165	1.940352	1
H	-0.191252	2.709765	0.082872	1
H	0.815998	1.547665	-2.083308	1
H	1.103578	-1.011075	-1.650018	1
Es	-0.887353	-2.472626	-0.629662	99
Es	-0.446953	0.838523	1.624963	99
Es	0.944051	0.430920	-0.948916	99
Es	-0.122485	2.369714	0.051601	99
Es	-1.366265	-1.542135	1.047662	99
Es	-0.886685	-2.312778	0.033425	99
Es	0.017626	1.653256	0.001891	99
Es	-1.347669	-2.651506	-0.333257	99
Es	-0.179403	0.724603	0.953164	99
Es	-0.920486	-1.596991	0.438385	99
Es	-1.098917	-2.477896	-0.400065	99
Es	0.571220	1.025201	-1.170403	99
Es	0.205165	1.238010	0.599175	99
Es	0.734428	1.385777	-1.785872	99
Es	0.980519	-0.780154	-1.409347	99
Es	0.721212	-0.287916	-0.943847	99
Es	0.493458	-0.501854	-0.246872	99
Es	-0.327884	-1.088909	0.432174	99
Es	-1.179059	-1.992788	-0.225365	99
Es	0.354443	0.325732	-1.165439	99
Es	0.021414	0.022178	0.736009	99
Es	-0.383646	1.135575	0.376566	99
Es	0.295298	1.391923	-0.609607	99
Es	0.253635	-0.626946	0.444753	99
Es	0.768489	-0.901411	0.850187	99
38
Properties=species:S:1:pos:R:3:Z:I:1 energy=-305.61478997634646 field_type=dipole dipole="0.000000 0.000000 0.000000" charge=0
O	-1.098992	-2.478135	-0.400258	8
C	-0.920522	-1.597035	0.438402	6
C	0.253688	-0.626935	0.444752	6
C	-0.179402	0.724725	0.953102	6
C	0.017608	1.653185	0.001972	6
C	0.571238	1.025085	-1.170398	6
C	0.721228	-0.287805	-0.943928	6
H	-1.579892	-1.543735	1.322812	1
H	1.058238	-1.034875	1.063642	1
H	-0.571512	0.919165	1.940352	1
H	-0.191252	2.709765	0.082872	1
H	0.815998	1.547665	-2.083308	1
H	1.103578	-1.011075	-1.650018	1
Es	0.493913	-0.502762	-0.247351	99
Es	-0.179400	0.724598	0.953168	99
Es	-0.445612	0.840119	1.625309	99
Es	-1.185066	-1.989245	-0.229267	99
Es	-1.366041	-1.542002	1.047545	99
Es	-0.122326	2.371911	0.052484	99
Es	0.978384	-0.780550	-1.411035	99
Es	-1.098970	-2.478049	-0.400188	99
Es	-0.888578	-2.310564	0.031995	99
Es	0.020811	0.022384	0.737340	99
Es	0.571225	1.025206	-1.170402	99
Es	0.356457	0.325398	-1.162769	99
Es	0.735608	1.386071	-1.786784	99
Es	-0.920488	-1.596987	0.438383	99
Es	0.940709	0.430278	-0.950364	99
Es	0.017625	1.653256	0.001890	99
Es	-0.327125	-1.088434	0.431822	99
Es	0.201485	1.237166	0.596179	99
Es	0.765227	-0.901692	0.848021	99
Es	0.253634	-0.626946	0.444753	99
Es	-0.883564	-2.474065	-0.622966	99
Es	-0.379390	1.137499	0.378209	99
Es	0.296232	1.390192	-0.607654	99
Es	-1.341816	-2.657361	-0.333173	99
Es	0.721218	-0.287919	-0.943844	99
38
Properties=species:S:1:pos:R:3:Z:I:1 energy=-305.61478997634646 field_type=dipole dipole="0.000000 0.000000 0.000000" charge=0
O	-1.098992	-2.478135	-0.400258	8
C	-0.920522	-1.597035	0.438402	6
C	0.253688	-0.626935	0.444752	6
C	-0.179402	0.724725	0.953102	6
C	0.017608	1.653185	0.001972	6
C	0.571238	1.025085	-1.170398	6
C	0.721228	-0.287805	-0.943928	6
H	-1.579892	-1.543735	1.322812	1
H	1.058238	-1.034875	1.063642	1
H	-0.571512	0.919165	1.940352	1
H	-0.191252	2.709765	0.082872	1
H	0.815998	1.547665	-2.083308	1
H	1.103578	-1.011075	-1.650018	1
Es	-0.885466	-2.310974	0.027618	99
Es	0.358072	0.325038	-1.161278	99
Es	0.736182	1.386563	-1.787437	99
Es	0.020944	0.022483	0.738681	99
Es	-0.920492	-1.596982	0.438379	99
Es	0.296744	1.388613	-0.606280	99
Es	0.938046	0.430189	-0.951195	99
Es	-0.326926	-1.088131	0.431696	99
Es	-1.339232	-2.654239	-0.324897	99
Es	-0.377004	1.138331	0.378921	99
Es	-1.365900	-1.541955	1.047461	99
Es	-0.887679	-2.481685	-0.625443	99
Es	0.721213	-0.287922	-0.943845	99
Es	0.494092	-0.503491	-0.247566	99
Es	0.762700	-0.901466	0.846114	99
Es	0.976868	-0.780505	-1.412144	99
Es	-0.444137	0.841193	1.625577	99
Es	-1.098944	-2.477899	-0.400061	99
Es	0.017627	1.653260	0.001890	99
Es	-0.179392	0.724601	0.953170	99
Es	0.253633	-0.626946	0.444753	99
Es	-0.121987	2.373113	0.052905	99
Es	0.199111	1.236729	0.594322	99
Es	0.571221	1.025206	-1.170404	99
Es	-1.185141	-1.985622	-0.229633	99
38
Properties=species:S:1:pos:R:3:Z:I:1 energy=-305.61478997634646 field_type=dipole dipole="0.000000 0.000000 0.000000" charge=0
O	-1.098992	-2.478135	-0.400258	8
C	-0.920522	-1.597035	0.438402	6
C	0.253688	-0.626935	0.444752	6
C	-0.179402	0.724725	0.953102	6
C	0.017608	1.653185	0.001972	6
C	0.571238	1.025085	-1.170398	6
C	0.721228	-0.287805	-0.943928	6
H	-1.579892	-1.543735	1.322812	1
H	1.058238	-1.034875	1.063642	1
H	-0.571512	0.919165	1.940352	1
H	-0.191252	2.709765	0.082872	1
H	0.815998	1.547665	-2.083308	1
H	1.103578	-1.011075	-1.650018	1
Es	-1.365677	-1.542070	1.047506	99
Es	0.359919	0.324966	-1.160243	99
Es	-0.885301	-2.308297	0.023442	99
Es	0.296682	1.387051	-0.605495	99
Es	-1.187862	-1.984026	-0.231102	99
Es	-0.374979	1.139223	0.379616	99
Es	-0.179399	0.724597	0.953168	99
Es	0.935769	0.430343	-0.951689	99
Es	0.571236	1.025207	-1.170396	99
Es	0.017624	1.653260	0.001888	99
Es	0.736155	1.386828	-1.788114	99
Es	0.494133	-0.504322	-0.247939	99
Es	-0.122084	2.373723	0.052925	99
Es	-1.336480	-2.662192	-0.324711	99
Es	-0.920492	-1.596982	0.438379	99
Es	0.760472	-0.900387	0.844164	99
Es	-1.098959	-2.477901	-0.400015	99
Es	-0.886653	-2.478611	-0.619181	99
Es	-0.442881	0.842116	1.625789	99
Es	0.021192	0.022541	0.740029	99
Es	0.197617	1.236133	0.593253	99
Es	-0.326399	-1.088522	0.432178	99
Es	0.975668	-0.780306	-1.413052	99
Es	0.721215	-0.287922	-0.943847	99
Es	0.253634	-0.626945	0.444753	99
38
Properties=species:S:1:pos:R:3:Z:I:1 energy=-305.61478997634646 field_type=dipole dipole="0.000000 0.000000 0.000000" charge=0
O	-1.098992	-2.478135	-0.400258	8
C	-0.920522	-1.597035	0.438402	6
C	0.253688	-0.626935	0.444752	6
C	-0.179402	0.724725	0.953102	6
C	0.017608	1.653185	0.001972	6
C	0.571238	1.025085	-1.170398	6
C	0.721228	-0.287805	-0.943928	6
H	-1.579892	-1.543735	1.322812	1
H	1.058238	-1.034875	1.063642	1
H	-0.571512	0.919165	1.940352	1
H	-0.191252	2.709765	0.082872	1
H	0.815998	1.547665	-2.083308	1
H	1.103578	-1.011075	-1.650018	1
Es	-1.335622	-2.658971	-0.316465	99
Es	-1.365377	-1.542105	1.047571	99
Es	0.493816	-0.504940	-0.248139	99
Es	-0.325995	-1.089777	0.432945	99
Es	0.362537	0.324571	-1.160328	99
Es	-0.372806	1.139161	0.379746	99
Es	0.571223	1.025207	-1.170403	99
Es	0.758785	-0.898513	0.842196	99
Es	0.296565	1.385734	-0.604670	99
Es	-1.186066	-1.981781	-0.231383	99
Es	-0.122071	2.374211	0.052767	99
Es	0.974724	-0.780053	-1.413569	99
Es	-0.179398	0.724597	0.953168	99
Es	-0.883278	-2.307728	0.018886	99
Es	-0.890250	-2.485128	-0.621705	99
Es	0.253632	-0.626945	0.444753	99
Es	0.736002	1.387233	-1.788503	99
Es	-0.920495	-1.596979	0.438375	99
Es	-1.098951	-2.477904	-0.400016	99
Es	0.195720	1.236572	0.592643	99
Es	0.721212	-0.287923	-0.943845	99
Es	0.017624	1.653261	0.001888	99
Es	-0.441662	0.842743	1.625826	99
Es	0.932907	0.430570	-0.951345	99
Es	0.021377	0.022392	0.740912	99
38
Properties=species:S:1:pos:R:3:Z:I:1 energy=-305.61478997634646 field_type=dipole dipole="0.000000 0.000000 0.000000" charge=0
O	-1.098992	-2.478135	-0.400258	8
C	-0.920522	-1.597035	0.438402	6
C	0.253688	-0.626935	0.444752	6
C	-0.179402	0.724725	0.953102	6
C	0.017608	1.653185	0.001972	6
C	0.571238	1.025085	-1.170398	6
C	0.721228	-0.287805	-0.943928	6
H	-1.579892	-1.543735	1.322812	1
H	1.058238	-1.034875	1.063642	1
H	-0.571512	0.919165	1.940352	1
H	-0.191252	2.709765	0.082872	1
H	0.815998	1.547665	-2.083308	1
H	1.103578	-1.011075	-1.650018	1
Es	0.021702	0.022415	0.741629	99
Es	-0.179402	0.724595	0.953167	99
Es	-0.440628	0.843354	1.626124	99
Es	0.017622	1.653260	0.001888	99
Es	-1.188694	-1.981349	-0.232579	99
Es	0.757059	-0.897615	0.840897	99
Es	0.367227	0.324427	-1.161071	99
Es	0.721216	-0.287922	-0.943844	99
Es	0.735812	1.387414	-1.788814	99
Es	0.192637	1.237048	0.592170	99
Es	-1.098874	-2.477832	-0.400035	99
Es	-0.325421	-1.090099	0.433386	99
Es	-1.365024	-1.542207	1.047830	99
Es	-0.883928	-2.304363	0.014174	99
Es	-1.332991	-2.670498	-0.318588	99
Es	0.253636	-0.626948	0.444754	99
Es	0.493724	-0.505546	-0.248321	99
Es	0.974288	-0.779832	-1.413875	99
Es	-0.122252	2.374429	0.052659	99
Es	-0.369547	1.138641	0.380134	99
Es	0.296184	1.384662	-0.604295	99
Es	-0.920491	-1.596980	0.438378	99
Es	0.927886	0.430833	-0.950866	99
Es	-0.888822	-2.477592	-0.613196	99
Es	0.571231	1.025208	-1.170399	99
38
Properties=species:S:1:pos:R:3:Z:I:1 energy=-305.61478997634646 field_type=dipole dipole="0.000000 0.000000 0.000000" charge=0
O	-1.098992	-2.478135	-0.400258	8
C	-0.920522	-1.597035	0.438402	6
C	0.253688	-0.626935	0.444752	6
C	-0.179402	0.724725	0.953102	6
C	0.017608	1.653185	0.001972	6
C	0.571238	1.025085	-1.170398	6
C	0.721228	-0.287805	-0.943928	6
H	-1.579892	-1.543735	1.322812	1
H	1.058238	-1.034875	1.063642	1
H	-0.571512	0.919165	1.940352	1
H	-0.191252	2.709765	0.082872	1
H	0.815998	1.547665	-2.083308	1
H	1.103578	-1.011075	-1.650018	1
Es	-0.920490	-1.596977	0.438379	99
Es	-0.365126	1.137812	0.380669	99
Es	0.920643	0.430865	-0.950427	99
Es	-1.188413	-1.980392	-0.232551	99
Es	-1.098936	-2.477903	-0.400034	99
Es	-0.890335	-2.476222	-0.610827	99
Es	-1.364584	-1.542330	1.047977	99
Es	0.721210	-0.287924	-0.943845	99
Es	-0.179400	0.724597	0.953167	99
Es	0.374571	0.324433	-1.161507	99
Es	0.756078	-0.897408	0.840319	99
Es	0.017621	1.653260	0.001887	99
Es	0.493512	-0.505780	-0.248404	99
Es	0.735572	1.387668	-1.788976	99
Es	0.571218	1.025206	-1.170405	99
Es	0.253636	-0.626946	0.444753	99
Es	-0.325327	-1.089993	0.433225	99
Es	0.188333	1.238102	0.591586	99
Es	-0.883393	-2.302832	0.009464	99
Es	0.973755	-0.779676	-1.414049	99
Es	-0.439941	0.843647	1.626055	99
Es	-0.122214	2.374622	0.052409	99
Es	-1.331596	-2.674367	-0.315836	99
Es	0.295919	1.383807	-0.603911	99
Es	0.021841	0.022237	0.742189	99
38
Properties=species:S:1:pos:R:3:Z:I:1 energy=-305.61478997634646 field_type=dipole dipole="0.000000 0.000000 0.000000" charge=0
O	-1.098992	-2.478135	-0.400258	8
C	-0.920522	-1.597035	0.438402	6
C	0.253688	-0.626935	0.444752	6
C	-0.179402	0.724725	0.953102	6
C	0.017608	1.653185	0.001972	6
C	0.571238	1.025085	-1.170398	6
C	0.721228	-0.287805	-0.943928	6
H	-1.579892	-1.543735	1.322812	1
H	1.058238	-1.034875	1.063642	1
H	-0.571512	0.919165	1.940352	1
H	-0.191252	2.709765	0.082872	1
H	0.815998	1.547665	-2.083308	1
H	1.103578	-1.011075	-1.650018	1
Es	0.571225	1.025208	-1.170403	99
Es	-1.190707	-1.980340	-0.234839	99
Es	0.721219	-0.287922	-0.943842	99
Es	-1.329009	-2.684327	-0.326253	99
Es	0.253632	-0.626944	0.444751	99
Es	0.381712	0.324952	-1.161703	99
Es	-0.179394	0.724597	0.953169	99
Es	0.735224	1.387816	-1.789137	99
Es	-0.122510	2.374569	0.052191	99
Es	0.754767	-0.894360	0.838345	99
Es	-0.357919	1.136643	0.381982	99
Es	0.181145	1.239336	0.590562	99
Es	-1.099007	-2.477895	-0.399954	99
Es	-1.364145	-1.542290	1.048253	99
Es	-0.885335	-2.301998	0.010744	99
Es	0.295469	1.383227	-0.603968	99
Es	0.017619	1.653258	0.001886	99
Es	0.913214	0.430525	-0.950675	99
Es	-0.888340	-2.467070	-0.599446	99
Es	0.021789	0.022178	0.742272	99
Es	-0.920491	-1.596975	0.438377	99
Es	-0.324080	-1.092929	0.435190	99
Es	0.973975	-0.779528	-1.413922	99
Es	0.493488	-0.505957	-0.248429	99
Es	-0.439387	0.843729	1.626151	99
38
Properties=species:S:1:pos:R:3:Z:I:1 energy=-305.61478997634646 field_type=dipole dipole="0.000000 0.000000 0.000000" charge=0
O	-1.098992	-2.478135	-0.400258	8
C	-0.920522	-1.597035	0.438402	6
C	0.253688	-0.626935	0.444752	6
C	-0.179402	0.724725	0.953102	6
C	0.017608	1.653185	0.001972	6
C	0.571238	1.025085	-1.170398	6
C	0.721228	-0.287805	-0.943928	6
H	-1.579892	-1.543735	1.322812	1
H	1.058238	-1.034875	1.063642	1
H	-0.571512	0.919165	1.940352	1
H	-0.191252	2.709765	0.082872	1
H	0.815998	1.547665	-2.083308	1
H	1.103578	-1.011075	-1.650018	1
Es	-0.324350	-1.092124	0.434681	99
Es	-0.886760	-2.300724	0.009981	99
Es	-1.326134	-2.691914	-0.332303	99
Es	-1.098957	-2.477902	-0.400019	99
Es	-0.179386	0.724598	0.953170	99
Es	0.735075	1.387912	-1.789206	99
Es	-1.363641	-1.542319	1.048434	99
Es	-0.888081	-2.460540	-0.591377	99
Es	0.017623	1.653260	0.001888	99
Es	0.571228	1.025207	-1.170398	99
Es	0.721201	-0.287925	-0.943847	99
Es	-0.920495	-1.596977	0.438375	99
Es	0.295611	1.382861	-0.603668	99
Es	0.180470	1.239284	0.590406	99
Es	0.901015	0.429890	-0.951806	99
Es	-1.192281	-1.980498	-0.235910	99
Es	-0.439349	0.843819	1.626153	99
Es	0.393917	0.325821	-1.160966	99
Es	-0.357111	1.136524	0.382190	99
Es	0.493345	-0.506141	-0.248446	99
Es	0.022091	0.022169	0.742610	99
Es	0.253633	-0.626946	0.444752	99
Es	0.754147	-0.895098	0.838468	99
Es	-0.122436	2.374646	0.052059	99
Es	0.973776	-0.779380	-1.413916	99
38
Properties=species:S:1:pos:R:3:Z:I:1 energy=-305.61478997634646 field_type=dipole dipole="0.000000 0.000000 0.000000" charge=0
O	-1.098992	-2.478135	-0.400258	8
C	-0.920522	-1.597035	0.438402	6
C	0.253688	-0.626935	0.444752	6
C	-0.179402	0.724725	0.953102	6
C	0.017608	1.653185	0.001972	6
C	0.571238	1.025085	-1.170398	6
C	0.721228	-0.287805	-0.943928	6
H	-1.579892	-1.543735	1.322812	1
H	1.058238	-1.034875	1.063642	1
H	-0.571512	0.919165	1.940352	1
H	-0.191252	2.709765	0.082872	1
H	0.815998	1.547665	-2.083308	1
H	1.103578	-1.011075	-1.650018	1
Es	-0.889639	-2.456344	-0.585312	99
Es	-0.920486	-1.596986	0.438382	99
Es	0.721209	-0.287921	-0.943848	99
Es	-1.323720	-2.696728	-0.336937	99
Es	0.397274	0.326298	-1.160615	99
Es	-0.179395	0.724598	0.953168	99
Es	0.021830	0.022053	0.742410	99
Es	-1.098953	-2.477886	-0.400006	99
Es	0.571224	1.025208	-1.170403	99
Es	-0.438924	0.843799	1.626206	99
Es	0.752771	-0.891604	0.836364	99
Es	0.734678	1.387961	-1.789386	99
Es	-0.322650	-1.095690	0.437206	99
Es	-0.350989	1.135894	0.383485	99
Es	-0.886716	-2.300363	0.009578	99
Es	0.295103	1.382631	-0.603846	99
Es	0.897776	0.429559	-0.952245	99
Es	-0.122731	2.374568	0.051832	99
Es	0.174346	1.239901	0.589320	99
Es	0.493311	-0.506173	-0.248433	99
Es	0.017624	1.653260	0.001889	99
Es	0.253634	-0.626946	0.444751	99
Es	0.973868	-0.779251	-1.413791	99
Es	-1.193190	-1.980095	-0.237126	99
Es	-1.363105	-1.542239	1.048659	99
38
Properties=species:S:1:pos:R:3:Z:I:1 energy=-305.61478997634646 field_type=dipole dipole="0.000000 0.000000 0.000000" charge=0
O	-1.098992	-2.478135	-0.400258	8
C	-0.920522	-1.597035	0.438402	6
C	0.253688	-0.626935	0.444752	6
C	-0.179402	0.724725	0.953102	6
C	0.017608	1.653185	0.001972	6
C	0.571238	1.025085	-1.170398	6
C	0.721228	-0.287805	-0.943928	6
H	-1.579892	-1.543735	1.322812	1
H	1.058238	-1.034875	1.063642	1
H	-0.571512	0.919165	1.940352	1
H	-0.191252	2.709765	0.082872	1
H	0.815998	1.547665	-2.083308	1
H	1.103578	-1.011075	-1.650018	1
Es	-1.109642	-2.696503	-0.589088	99
Es	-0.317685	-1.107404	0.444927	99
Es	-1.366201	-1.541375	1.046814	99
Es	0.738482	1.389381	-1.788010	99
Es	-0.969966	-2.359569	0.059461	99
Es	-0.373780	1.132835	0.378812	99
Es	-1.148620	-1.972659	-0.284864	99
Es	0.197023	1.238609	0.594903	99
Es	0.301317	1.385169	-0.603138	99
Es	0.253634	-0.626945	0.444751	99
Es	0.017627	1.653260	0.001890	99
Es	0.721211	-0.287921	-0.943843	99
Es	0.360660	0.326050	-1.161868	99
Es	-0.179415	0.724595	0.953160	99
Es	-1.087755	-2.441194	-0.359927	99
Es	0.571237	1.025207	-1.170398	99
Es	0.975614	-0.777855	-1.412200	99
Es	-0.447574	0.841000	1.623302	99
Es	-0.119961	2.374634	0.051768	99
Es	0.494837	-0.505939	-0.248165	99
Es	0.933756	0.433008	-0.952117	99
Es	0.020623	0.021102	0.741507	99
Es	-0.920489	-1.596980	0.438378	99
Es	0.745291	-0.879807	0.828166	99
Es	-1.076072	-2.443197	-0.372917	99
38
Properties=species:S:1:pos:R:3:Z:I:1 energy=-305.61478997634646 field_type=dipole dipole="0.000000 0.000000 0.000000" charge=0
O	-1.098992	-2.478135	-0.400258	8
C	-0.920522	-1.597035	0.438402	6
C	0.253688	-0.626935	0.444752	6
C	-0.179402	0.724725	0.953102	6
C	0.017608	1.653185	0.001972	6
C	0.571238	1.025085	-1.170398	6
C	0.721228	-0.287805	-0.943928	6
H	-1.579892	-1.543735	1.322812	1
H	1.058238	-1.034875	1.063642	1
H	-0.571512	0.919165	1.940352	1
H	-0.191252	2.709765	0.082872	1
H	0.815998	1.547665	-2.083308	1
H	1.103578	-1.011075	-1.650018	1
Es	0.721215	-0.287922	-0.943844	99
Es	0.884513	0.428705	-0.954274	99
Es	0.734472	1.388100	-1.789494	99
Es	0.571230	1.025209	-1.170401	99
Es	0.167198	1.240542	0.587934	99
Es	0.410666	0.327746	-1.159224	99
Es	0.974103	-0.779004	-1.413534	99
Es	-0.920487	-1.596977	0.438380	99
Es	-0.889398	-2.445981	-0.566371	99
Es	-0.321922	-1.097456	0.438282	99
Es	-1.098910	-2.477885	-0.400069	99
Es	0.253627	-0.626948	0.444752	99
Es	-0.179394	0.724598	0.953169	99
Es	0.751631	-0.889883	0.835190	99
Es	0.021831	0.021874	0.742586	99
Es	-0.122836	2.374505	0.051612	99
Es	-1.362732	-1.542231	1.048838	99
Es	-0.890887	-2.301214	0.015849	99
Es	-0.343996	1.134611	0.385210	99
Es	-1.194584	-1.979936	-0.241627	99
Es	0.017627	1.653259	0.001890	99
Es	0.493414	-0.506040	-0.248352	99
Es	-0.439198	0.843619	1.626167	99
Es	0.295213	1.382534	-0.603896	99
Es	-1.318242	-2.706322	-0.357470	99
38
Properties=species:S:1:pos:R:3:Z:I:1 energy=-305.61478997634646 field_type=dipole dipole="0.000000 0.000000 0.000000" charge=0
O	-1.098992	-2.478135	-0.400258	8
C	-0.920522	-1.597035	0.438402	6
C	0.253688	-0.626935	0.444752	6
C	-0.179402	0.724725	0.953102	6
C	0.017608	1.653185	0.001972	6
C	0.571238	1.025085	-1.170398	6
C	0.721228	-0.287805	-0.943928	6
H	-1.579892	-1.543735	1.322812	1
H	1.058238	-1.034875	1.063642	1
H	-0.571512	0.919165	1.940352	1
H	-0.191252	2.709765	0.082872	1
H	0.815998	1.547665	-2.083308	1
H	1.103578	-1.011075	-1.650018	1
Es	-0.985453	-2.370645	0.058620	99
Es	-1.139936	-1.972720	-0.288659	99
Es	0.196805	1.238926	0.594675	99
Es	0.253633	-0.626945	0.444752	99
Es	0.738191	1.389650	-1.787981	99
Es	-0.120014	2.374859	0.051392	99
Es	0.934595	0.432462	-0.952450	99
Es	0.571225	1.025208	-1.170402	99
Es	-0.179405	0.724597	0.953165	99
Es	0.300977	1.384877	-0.602858	99
Es	-0.373534	1.133241	0.378643	99
Es	0.359673	0.325937	-1.161084	99
Es	-1.101816	-2.690895	-0.594011	99
Es	0.721213	-0.287922	-0.943844	99
Es	0.020736	0.021021	0.741903	99
Es	-0.316009	-1.108846	0.446282	99
Es	0.975218	-0.777836	-1.412175	99
Es	-1.065129	-2.402317	-0.325043	99
Es	0.494631	-0.506121	-0.247945	99
Es	-1.366044	-1.541308	1.046532	99
Es	-1.099554	-2.476760	-0.397888	99
Es	-0.920498	-1.596978	0.438372	99
Es	0.743733	-0.878476	0.826413	99
Es	-0.446712	0.841235	1.623008	99
Es	0.017627	1.653261	0.001889	99
38
Properties=species:S:1:pos:R:3:Z:I:1 energy=-305.61478997634646 field_type=dipole dipole="0.000000 0.000000 0.000000" charge=0
O	-1.098992	-2.478135	-0.400258	8
C	-0.920522	-1.597035	0.438402	6
C	0.253688	-0.626935	0.444752	6
C	-0.179402	0.724725	0.953102	6
C	0.017608	1.653185	0.001972	6
C	0.571238	1.025085	-1.170398	6
C	0.721228	-0.287805	-0.943928	6
H	-1.579892	-1.543735	1.322812	1
H	1.058238	-1.034875	1.063642	1
H	-0.571512	0.919165	1.940352	1
H	-0.191252	2.709765	0.082872	1
H	0.815998	1.547665	-2.083308	1
H	1.103578	-1.011075	-1.650018	1
Es	-0.973338	-2.363387	0.060077	99
Es	-0.920497	-1.596977	0.438372	99
Es	0.740037	-0.875640	0.823343	99
Es	0.300697	1.384690	-0.603006	99
Es	-1.086302	-2.438680	-0.357688	99
Es	-0.120272	2.374838	0.051305	99
Es	0.253625	-0.626952	0.444754	99
Es	0.017626	1.653260	0.001890	99
Es	0.975410	-0.777699	-1.412087	99
Es	-0.373643	1.133097	0.378779	99
Es	0.571227	1.025208	-1.170404	99
Es	-1.078061	-2.444112	-0.372195	99
Es	-1.108957	-2.694601	-0.589232	99
Es	-0.179407	0.724596	0.953164	99
Es	0.020654	0.020933	0.741993	99
Es	0.197282	1.238545	0.594838	99
Es	0.361793	0.325758	-1.162516	99
Es	-1.144916	-1.972553	-0.287719	99
Es	-0.312482	-1.111553	0.449151	99
Es	0.737995	1.389755	-1.788050	99
Es	-1.365962	-1.541300	1.046715	99
Es	0.721212	-0.287922	-0.943844	99
Es	0.932804	0.433126	-0.951294	99
Es	-0.446930	0.841211	1.623056	99
Es	0.494557	-0.506137	-0.248099	99
38
Properties=species:S:1:pos:R:3:Z:I:1 energy=-305.61478997634646 field_type=dipole dipole="0.000000 0.000000 0.000000" charge=0
O	-1.098992	-2.478135	-0.400258	8
C	-0.920522	-1.597035	0.438402	6
C	0.253688	-0.626935	0.444752	6
C	-0.179402	0.724725	0.953102	6
C	0.017608	1.653185	0.001972	6
C	0.571238	1.025085	-1.170398	6
C	0.721228	-0.287805	-0.943928	6
H	-1.579892	-1.543735	1.322812	1
H	1.058238	-1.034875	1.063642	1
H	-0.571512	0.919165	1.940352	1
H	-0.191252	2.709765	0.082872	1
H	0.815998	1.547665	-2.083308	1
H	1.103578	-1.011075	-1.650018	1
Es	-0.439097	0.843603	1.626221	99
Es	0.294989	1.382138	-0.603868	99
Es	0.160315	1.240740	0.586268	99
Es	0.749403	-0.887820	0.833602	99
Es	0.493423	-0.506284	-0.248451	99
Es	0.878430	0.428349	-0.955492	99
Es	-0.920489	-1.596981	0.438380	99
Es	-0.179392	0.724598	0.953170	99
Es	0.416638	0.328565	-1.158414	99
Es	-1.313907	-2.711487	-0.366173	99
Es	-0.320481	-1.099518	0.439998	99
Es	-1.194342	-1.979098	-0.247494	99
Es	0.021751	0.021752	0.742616	99
Es	-0.122921	2.374498	0.051343	99
Es	-0.336829	1.134052	0.387133	99
Es	-0.893910	-2.300322	0.017769	99
Es	0.974198	-0.778712	-1.413370	99
Es	0.017619	1.653259	0.001887	99
Es	0.721209	-0.287922	-0.943845	99
Es	-1.098985	-2.477869	-0.399895	99
Es	-0.890844	-2.442396	-0.553920	99
Es	0.571222	1.025207	-1.170403	99
Es	0.734240	1.388288	-1.789592	99
Es	0.253633	-0.626945	0.444751	99
Es	-1.361718	-1.542192	1.049086	99
38
Properties=species:S:1:pos:R:3:Z:I:1 energy=-305.61478997634646 field_type=dipole dipole="0.000000 0.000000 0.000000" charge=0
O	-1.098992	-2.478135	-0.400258	8
C	-0.920522	-1.597035	0.438402	6
C	0.253688	-0.626935	0.444752	6
C	-0.179402	0.724725	0.953102	6
C	0.017608	1.653185	0.001972	6
C	0.571238	1.025085	-1.170398	6
C	0.721228	-0.287805	-0.943928	6
H	-1.579892	-1.543735	1.322812	1
H	1.058238	-1.034875	1.063642	1
H	-0.571512	0.919165	1.940352	1
H	-0.191252	2.709765	0.082872	1
H	0.815998	1.547665	-2.083308	1
H	1.103578	-1.011075	-1.650018	1
Es	-1.106341	-2.692975	-0.590022	99
Es	-1.140948	-1.973161	-0.291345	99
Es	-0.986500	-2.369472	0.058990	99
Es	-0.179406	0.724596	0.953165	99
Es	0.933081	0.432899	-0.951114	99
Es	-0.120356	2.374944	0.050872	99
Es	-0.920495	-1.596979	0.438374	99
Es	0.738661	-0.874435	0.822043	99
Es	-1.365781	-1.541414	1.046653	99
Es	-0.310542	-1.112810	0.450590	99
Es	0.017627	1.653259	0.001889	99
Es	0.361398	0.325623	-1.162336	99
Es	-0.373362	1.133187	0.378482	99
Es	0.253633	-0.626947	0.444753	99
Es	0.020540	0.020825	0.742112	99
Es	0.571216	1.025206	-1.170405	99
Es	0.737671	1.389937	-1.788075	99
Es	-1.099157	-2.477748	-0.399584	99
Es	0.494536	-0.506258	-0.247953	99
Es	0.300238	1.384490	-0.602860	99
Es	-1.058801	-2.399930	-0.324844	99
Es	0.721210	-0.287922	-0.943846	99
Es	0.196881	1.238835	0.594820	99
Es	0.975398	-0.777603	-1.411999	99
Es	-0.446247	0.841356	1.622943	99
38
Properties=species:S:1:pos:R:3:Z:I:1 energy=-305.61478997634646 field_type=dipole dipole="0.000000 0.000000 0.000000" charge=0
O	-1.098992	-2.478135	-0.400258	8
C	-0.920522	-1.597035	0.438402	6
C	0.253688	-0.626935	0.444752	6
C	-0.179402	0.724725	0.953102	6
C	0.017608	1.653185	0.001972	6
C	0.571238	1.025085	-1.170398	6
C	0.721228	-0.287805	-0.943928	6
H	-1.579892	-1.543735	1.322812	1
H	1.058238	-1.034875	1.063642	1
H	-0.571512	0.919165	1.940352	1
H	-0.191252	2.709765	0.082872	1
H	0.815998	1.547665	-2.083308	1
H	1.103578	-1.011075	-1.650018	1
Es	-0.920487	-1.596980	0.438380	99
Es	0.161045	1.240661	0.586736	99
Es	0.493418	-0.506134	-0.248416	99
Es	-0.895688	-2.300573	0.019480	99
Es	-0.179396	0.724598	0.953167	99
Es	-1.196080	-1.979372	-0.248628	99
Es	-1.361482	-1.542225	1.049300	99
Es	-1.307425	-2.717030	-0.377225	99
Es	0.294774	1.382083	-0.604014	99
Es	0.253633	-0.626945	0.444752	99
Es	-0.893711	-2.436151	-0.543298	99
Es	-0.439173	0.843479	1.626318	99
Es	0.571223	1.025207	-1.170404	99
Es	0.734031	1.388400	-1.789722	99
Es	0.747276	-0.884722	0.831212	99
Es	0.421125	0.329233	-1.157911	99
Es	-0.123269	2.374392	0.051047	99
Es	0.017617	1.653258	0.001886	99
Es	0.874042	0.428165	-0.956403	99
Es	0.021728	0.021639	0.742620	99
Es	0.721212	-0.287922	-0.943842	99
Es	-1.098903	-2.477908	-0.400003	99
Es	-0.318378	-1.102642	0.442427	99
Es	0.974534	-0.778520	-1.413109	99
Es	-0.337515	1.133512	0.386955	99
38
Properties=species:S:1:pos:R:3:Z:I:1 energy=-305.61478997634646 field_type=dipole dipole="0.000000 0.000000 0.000000" charge=0
O	-1.098992	-2.478135	-0.400258	8
C	-0.920522	-1.597035	0.438402	6
C	0.253688	-0.626935	0.444752	6
C	-0.179402	0.724725	0.953102	6
C	0.017608	1.653185	0.001972	6
C	0.571238	1.025085	-1.170398	6
C	0.721228	-0.287805	-0.943928	6
H	-1.579892	-1.543735	1.322812	1
H	1.058238	-1.034875	1.063642	1
H	-0.571512	0.919165	1.940352	1
H	-0.191252	2.709765	0.082872	1
H	0.815998	1.547665	-2.083308	1
H	1.103578	-1.011075	-1.650018	1
Es	0.017620	1.653260	0.001887	99
Es	-1.308687	-2.715822	-0.379910	99
Es	0.295045	1.382083	-0.603850	99
Es	0.748897	-0.885936	0.832512	99
Es	0.571227	1.025208	-1.170401	99
Es	-1.362006	-1.542350	1.049057	99
Es	-1.098932	-2.477887	-0.400029	99
Es	0.021570	0.021545	0.742485	99
Es	0.974313	-0.778531	-1.413122	99
Es	-0.333127	1.133350	0.388152	99
Es	0.734045	1.388495	-1.789637	99
Es	0.156453	1.240934	0.585515	99
Es	-0.319435	-1.101242	0.441390	99
Es	-0.179390	0.724597	0.953170	99
Es	0.493570	-0.506106	-0.248365	99
Es	-0.920489	-1.596978	0.438379	99
Es	-0.893088	-2.436870	-0.541203	99
Es	-1.194510	-1.978705	-0.250327	99
Es	-0.122945	2.374457	0.050986	99
Es	0.867450	0.427436	-0.957620	99
Es	0.253639	-0.626949	0.444755	99
Es	-0.896725	-2.301853	0.021871	99
Es	0.721214	-0.287922	-0.943844	99
Es	0.427747	0.329880	-1.156690	99
Es	-0.439302	0.843409	1.626143	99
38
Properties=species:S:1:pos:R:3:Z:I:1 energy=-305.61478997634646 field_type=dipole dipole="0.000000 0.000000 0.000000" charge=0
O	-1.098992	-2.478135	-0.400258	8
C	-0.920522	-1.597035	0.438402	6
C	0.253688	-0.626935	0.444752	6
C	-0.179402	0.724725	0.953102	6
C	0.017608	1.653185	0.001972	6
C	0.571238	1.025085	-1.170398	6
C	0.721228	-0.287805	-0.943928	6
H	-1.579892	-1.543735	1.322812	1
H	1.058238	-1.034875	1.063642	1
H	-0.571512	0.919165	1.940352	1
H	-0.191252	2.709765	0.082872	1
H	0.815998	1.547665	-2.083308	1
H	1.103578	-1.011075	-1.650018	1
Es	-1.076450	-2.440866	-0.369327	99
Es	-0.120413	2.374979	0.050560	99
Es	0.933205	0.433079	-0.951377	99
Es	-0.971132	-2.361299	0.060787	99
Es	-0.179404	0.724594	0.953165	99
Es	0.253634	-0.626947	0.444753	99
Es	-0.304192	-1.116663	0.455542	99
Es	-0.446016	0.841388	1.622940	99
Es	-0.920496	-1.596978	0.438373	99
Es	0.020556	0.020689	0.742229	99
Es	0.571225	1.025208	-1.170403	99
Es	-1.089537	-2.442763	-0.361085	99
Es	-1.145649	-1.972778	-0.290432	99
Es	0.361185	0.325952	-1.162514	99
Es	0.494605	-0.506550	-0.247955	99
Es	0.721213	-0.287922	-0.943844	99
Es	0.300148	1.384105	-0.602875	99
Es	0.017624	1.653261	0.001888	99
Es	-0.372885	1.132518	0.378478	99
Es	0.737337	1.390168	-1.788153	99
Es	0.732249	-0.870423	0.817184	99
Es	-1.108717	-2.695592	-0.586529	99
Es	0.975448	-0.777188	-1.411749	99
Es	0.196231	1.238968	0.594954	99
Es	-1.365616	-1.541437	1.046694	99
38
Properties=species:S:1:pos:R:3:Z:I:1 energy=-305.61478997634646 field_type=dipole dipole="0.000000 0.000000 0.000000" charge=0
O	-1.098992	-2.478135	-0.400258	8
C	-0.920522	-1.597035	0.438402	6
C	0.253688	-0.626935	0.444752	6
C	-0.179402	0.724725	0.953102	6
C	0.017608	1.653185	0.001972	6
C	0.571238	1.025085	-1.170398	6
C	0.721228	-0.287805	-0.943928	6
H	-1.579892	-1.543735	1.322812	1
H	1.058238	-1.034875	1.063642	1
H	-0.571512	0.919165	1.940352	1
H	-0.191252	2.709765	0.082872	1
H	0.815998	1.547665	-2.083308	1
H	1.103578	-1.011075	-1.650018	1
Es	0.253631	-0.626949	0.444754	99
Es	-1.365542	-1.541444	1.046507	99
Es	0.299664	1.384165	-0.602881	99
Es	0.734418	-0.871659	0.818529	99
Es	0.020540	0.020845	0.742273	99
Es	0.932622	0.432881	-0.950557	99
Es	0.737210	1.390214	-1.788069	99
Es	0.494364	-0.506613	-0.247810	99
Es	-1.098785	-2.477801	-0.400078	99
Es	0.571222	1.025208	-1.170404	99
Es	-0.445514	0.841494	1.622826	99
Es	-1.139561	-1.972695	-0.291749	99
Es	0.017626	1.653260	0.001889	99
Es	-0.120455	2.375076	0.050528	99
Es	0.197185	1.238663	0.594678	99
Es	-0.179415	0.724595	0.953159	99
Es	-0.373579	1.133584	0.378404	99
Es	0.362054	0.325412	-1.162657	99
Es	-1.054490	-2.397412	-0.322510	99
Es	-0.991403	-2.374276	0.058379	99
Es	-0.920495	-1.596979	0.438374	99
Es	-1.107477	-2.691130	-0.590716	99
Es	0.975125	-0.777399	-1.411856	99
Es	0.721211	-0.287921	-0.943845	99
Es	-0.306003	-1.115613	0.454137	99
38
Properties=species:S:1:pos:R:3:Z:I:1 energy=-305.61478997634646 field_type=dipole dipole="0.000000 0.000000 0.000000" charge=0
O	-1.098992	-2.478135	-0.400258	8
C	-0.920522	-1.597035	0.438402	6
C	0.253688	-0.626935	0.444752	6
C	-0.179402	0.724725	0.953102	6
C	0.017608	1.653185	0.001972	6
C	0.571238	1.025085	-1.170398	6
C	0.721228	-0.287805	-0.943928	6
H	-1.579892	-1.543735	1.322812	1
H	1.058238	-1.034875	1.063642	1
H	-0.571512	0.919165	1.940352	1
H	-0.191252	2.709765	0.082872	1
H	0.815998	1.547665	-2.083308	1
H	1.103578	-1.011075	-1.650018	1
Es	0.737266	1.390316	-1.788031	99
Es	-1.105354	-2.691780	-0.589496	99
Es	0.721213	-0.287921	-0.943844	99
Es	0.195714	1.239440	0.594796	99
Es	0.253631	-0.626949	0.444754	99
Es	0.017627	1.653261	0.001889	99
Es	0.734115	-0.871503	0.818421	99
Es	0.299702	1.384027	-0.602816	99
Es	0.571226	1.025208	-1.170402	99
Es	0.931376	0.433086	-0.950183	99
Es	0.494495	-0.506602	-0.247820	99
Es	-0.986974	-2.371364	0.059211	99
Es	-0.305963	-1.115683	0.454146	99
Es	0.975307	-0.777351	-1.411827	99
Es	-1.098689	-2.477679	-0.400044	99
Es	-0.920499	-1.596977	0.438372	99
Es	-0.445626	0.841454	1.622675	99
Es	-1.062494	-2.399608	-0.322313	99
Es	0.020630	0.020726	0.742300	99
Es	-0.120466	2.375079	0.050428	99
Es	-1.365624	-1.541359	1.046454	99
Es	-1.137942	-1.973012	-0.293770	99
Es	0.363229	0.325347	-1.163156	99
Es	-0.372345	1.132752	0.378393	99
Es	-0.179404	0.724596	0.953166	99
38
Properties=species:S:1:pos:R:3:Z:I:1 energy=-305.61478997634646 field_type=dipole dipole="0.000000 0.000000 0.000000" charge=0
O	-1.098992	-2.478135	-0.400258	8
C	-0.920522	-1.597035	0.438402	6
C	0.253688	-0.626935	0.444752	6
C	-0.179402	0.724725	0.953102	6
C	0.017608	1.653185	0.001972	6
C	0.571238	1.025085	-1.170398	6
C	0.721228	-0.287805	-0.943928	6
H	-1.579892	-1.543735	1.322812	1
H	1.058238	-1.034875	1.063642	1
H	-0.571512	0.919165	1.940352	1
H	-0.191252	2.709765	0.082872	1
H	0.815998	1.547665	-2.083308	1
H	1.103578	-1.011075	-1.650018	1
Es	0.494302	-0.506554	-0.247884	99
Es	-1.140304	-1.972788	-0.293264	99
Es	0.932502	0.432964	-0.950731	99
Es	-1.054214	-2.398676	-0.325238	99
Es	0.299348	1.383905	-0.602949	99
Es	-1.111815	-2.694127	-0.586604	99
Es	-1.365493	-1.541448	1.046577	99
Es	0.731592	-0.869932	0.816412	99
Es	0.253641	-0.626950	0.444757	99
Es	-1.098526	-2.477624	-0.400093	99
Es	0.571224	1.025208	-1.170403	99
Es	-0.986598	-2.370105	0.058681	99
Es	-0.179405	0.724595	0.953166	99
Es	0.017626	1.653261	0.001889	99
Es	0.737050	1.390259	-1.788170	99
Es	-0.445448	0.841518	1.622946	99
Es	0.362182	0.325680	-1.162850	99
Es	-0.303039	-1.117211	0.456335	99
Es	0.020622	0.020786	0.742322	99
Es	-0.120639	2.375036	0.050361	99
Es	-0.373913	1.133592	0.378407	99
Es	0.975376	-0.777336	-1.411716	99
Es	0.721209	-0.287920	-0.943845	99
Es	-0.920499	-1.596978	0.438371	99
Es	0.197374	1.238351	0.594828	99
38
Properties=species:S:1:pos:R:3:Z:I:1 energy=-305.61478997634646 field_type=dipole dipole="0.000000 0.000000 0.000000" charge=0
O	-1.098992	-2.478135	-0.400258	8
C	-0.920522	-1.597035	0.438402	6
C	0.253688	-0.626935	0.444752	6
C	-0.179402	0.724725	0.953102	6
C	0.017608	1.653185	0.001972	6
C	0.571238	1.025085	-1.170398	6
C	0.721228	-0.287805	-0.943928	6
H	-1.579892	-1.543735	1.322812	1
H	1.058238	-1.034875	1.063642	1
H	-0.571512	0.919165	1.940352	1
H	-0.191252	2.709765	0.082872	1
H	0.815998	1.547665	-2.083308	1
H	1.103578	-1.011075	-1.650018	1
Es	0.571226	1.025208	-1.170402	99
Es	0.361473	0.325507	-1.162567	99
Es	0.020675	0.020680	0.742505	99
Es	-1.138241	-1.972610	-0.292598	99
Es	-0.920488	-1.596968	0.438374	99
Es	-1.365510	-1.541421	1.046413	99
Es	-1.107235	-2.690493	-0.590576	99
Es	-0.374220	1.134032	0.378387	99
Es	-0.120564	2.375099	0.050289	99
Es	-0.445258	0.841548	1.622673	99
Es	0.253633	-0.626945	0.444752	99
Es	0.975208	-0.777258	-1.411741	99
Es	0.933041	0.432739	-0.950618	99
Es	0.197987	1.238329	0.594730	99
Es	-1.059388	-2.398774	-0.322494	99
Es	0.730832	-0.869595	0.815645	99
Es	0.721213	-0.287922	-0.943845	99
Es	-1.098480	-2.477584	-0.400108	99
Es	-0.302287	-1.117690	0.456975	99
Es	-0.179404	0.724596	0.953165	99
Es	0.299227	1.383919	-0.602974	99
Es	0.017628	1.653258	0.001890	99
Es	0.494225	-0.506621	-0.247790	99
Es	-0.988195	-2.373940	0.059267	99
Es	0.737054	1.390410	-1.788048	99
38
Properties=species:S:1:pos:R:3:Z:I:1 energy=-305.61478997634646 field_type=dipole dipole="0.000000 0.000000 0.000000" charge=0
O	-1.098992	-2.478135	-0.400258	8
C	-0.920522	-1.597035	0.438402	6
C	0.253688	-0.626935	0.444752	6
C	-0.179402	0.724725	0.953102	6
C	0.017608	1.653185	0.001972	6
C	0.571238	1.025085	-1.170398	6
C	0.721228	-0.287805	-0.943928	6
H	-1.579892	-1.543735	1.322812	1
H	1.058238	-1.034875	1.063642	1
H	-0.571512	0.919165	1.940352	1
H	-0.191252	2.709765	0.082872	1
H	0.815998	1.547665	-2.083308	1
H	1.103578	-1.011075	-1.650018	1
Es	-1.055203	-2.397362	-0.322343	99
Es	-1.365550	-1.541439	1.046291	99
Es	0.020544	0.020726	0.742428	99
Es	0.253635	-0.626945	0.444753	99
Es	0.721202	-0.287922	-0.943848	99
Es	-1.107152	-2.689718	-0.591046	99
Es	-1.138343	-1.972620	-0.292398	99
Es	-0.179405	0.724596	0.953165	99
Es	-0.371937	1.132847	0.378427	99
Es	-0.920495	-1.596979	0.438375	99
Es	0.931450	0.432968	-0.950061	99
Es	-0.445154	0.841493	1.622525	99
Es	0.017625	1.653261	0.001889	99
Es	0.732141	-0.870310	0.816669	99
Es	0.975149	-0.777234	-1.411730	99
Es	0.494278	-0.506773	-0.247718	99
Es	-0.120506	2.375115	0.050226	99
Es	0.571225	1.025207	-1.170402	99
Es	0.195455	1.239678	0.594731	99
Es	-0.991585	-2.376077	0.058867	99
Es	0.299435	1.383868	-0.602803	99
Es	0.363171	0.325237	-1.163142	99
Es	-1.099230	-2.477690	-0.399427	99
Es	-0.303606	-1.116904	0.455880	99
Es	0.737008	1.390481	-1.788003	99
38
Properties=species:S:1:pos:R:3:Z:I:1 energy=-305.61478997634646 field_type=dipole dipole="0.000000 0.000000 0.000000" charge=0
O	-1.098992	-2.478135	-0.400258	8
C	-0.920522	-1.597035	0.438402	6
C	0.253688	-0.626935	0.444752	6
C	-0.179402	0.724725	0.953102	6
C	0.017608	1.653185	0.001972	6
C	0.571238	1.025085	-1.170398	6
C	0.721228	-0.287805	-0.943928	6
H	-1.579892	-1.543735	1.322812	1
H	1.058238	-1.034875	1.063642	1
H	-0.571512	0.919165	1.940352	1
H	-0.191252	2.709765	0.082872	1
H	0.815998	1.547665	-2.083308	1
H	1.103578	-1.011075	-1.650018	1
Es	-0.301232	-1.118319	0.457605	99
Es	-0.445234	0.841599	1.622777	99
Es	0.932287	0.432874	-0.950341	99
Es	0.729782	-0.868975	0.815051	99
Es	0.196438	1.238970	0.594759	99
Es	0.721212	-0.287922	-0.943844	99
Es	-1.110967	-2.692804	-0.587110	99
Es	-0.120713	2.375093	0.050206	99
Es	-0.987757	-2.371602	0.059446	99
Es	-0.920502	-1.596975	0.438369	99
Es	-1.138944	-1.973012	-0.294774	99
Es	0.494298	-0.506599	-0.247804	99
Es	0.362395	0.325489	-1.162981	99
Es	-0.372861	1.133188	0.378300	99
Es	0.299063	1.383843	-0.602929	99
Es	0.571224	1.025208	-1.170403	99
Es	-1.365346	-1.541388	1.046587	99
Es	-1.054636	-2.398023	-0.324293	99
Es	0.017627	1.653261	0.001890	99
Es	-1.099229	-2.477889	-0.399764	99
Es	0.253631	-0.626946	0.444752	99
Es	0.975446	-0.777244	-1.411657	99
Es	0.020672	0.020647	0.742402	99
Es	-0.179404	0.724596	0.953166	99
Es	0.736902	1.390431	-1.788105	99
38
Properties=species:S:1:pos:R:3:Z:I:1 energy=-305.61478997634646 field_type=dipole dipole="0.000000 0.000000 0.000000" charge=0
O	-1.098992	-2.478135	-0.400258	8
C	-0.920522	-1.597035	0.438402	6
C	0.253688	-0.626935	0.444752	6
C	-0.179402	0.724725	0.953102	6
C	0.017608	1.653185	0.001972	6
C	0.571238	1.025085	-1.170398	6
C	0.721228	-0.287805	-0.943928	6
H	-1.579892	-1.543735	1.322812	1
H	1.058238	-1.034875	1.063642	1
H	-0.571512	0.919165	1.940352	1
H	-0.191252	2.709765	0.082872	1
H	0.815998	1.547665	-2.083308	1
H	1.103578	-1.011075	-1.650018	1
Es	-0.920486	-1.596980	0.438380	99
Es	0.747416	-0.884332	0.831400	99
Es	0.974613	-0.778070	-1.412795	99
Es	0.733973	1.388634	-1.789857	99
Es	-0.123041	2.374383	0.050772	99
Es	-0.901309	-2.301818	0.024221	99
Es	0.017620	1.653259	0.001887	99
Es	0.253630	-0.626946	0.444751	99
Es	-1.099131	-2.477868	-0.399783	99
Es	0.864321	0.427962	-0.958574	99
Es	-0.318461	-1.102809	0.442535	99
Es	0.493626	-0.506241	-0.248500	99
Es	0.145128	1.241093	0.582581	99
Es	-1.194259	-1.978093	-0.256204	99
Es	-1.361661	-1.542396	1.049308	99
Es	-0.321749	1.132002	0.391638	99
Es	0.721215	-0.287921	-0.943843	99
Es	-0.899513	-2.429683	-0.521032	99
Es	-0.439626	0.843141	1.626094	99
Es	-1.297457	-2.723513	-0.396667	99
Es	0.430942	0.330621	-1.156289	99
Es	0.021338	0.021277	0.742525	99
Es	0.295193	1.381996	-0.604010	99
Es	0.571222	1.025207	-1.170405	99
Es	-0.179392	0.724598	0.953170	99
38
Properties=species:S:1:pos:R:3:Z:I:1 energy=-305.61478997634646 field_type=dipole dipole="0.000000 0.000000 0.000000" charge=0
O	-1.098992	-2.478135	-0.400258	8
C	-0.920522	-1.597035	0.438402	6
C	0.253688	-0.626935	0.444752	6
C	-0.179402	0.724725	0.953102	6
C	0.017608	1.653185	0.001972	6
C	0.571238	1.025085	-1.170398	6
C	0.721228	-0.287805	-0.943928	6
H	-1.579892	-1.543735	1.322812	1
H	1.058238	-1.034875	1.063642	1
H	-0.571512	0.919165	1.940352	1
H	-0.191252	2.709765	0.082872	1
H	0.815998	1.547665	-2.083308	1
H	1.103578	-1.011075	-1.650018	1
Es	0.194769	1.239487	0.594679	99
Es	0.736779	1.390373	-1.788219	99
Es	-0.987338	-2.369664	0.059304	99
Es	-0.179403	0.724596	0.953165	99
Es	0.017625	1.653260	0.001889	99
Es	0.728286	-0.868046	0.813925	99
Es	-0.299333	-1.119102	0.458978	99
Es	0.494178	-0.506656	-0.247786	99
Es	0.360081	0.326016	-1.162000	99
Es	-1.112326	-2.694506	-0.585337	99
Es	0.020522	0.020590	0.742386	99
Es	-1.099199	-2.477755	-0.399588	99
Es	-1.052029	-2.398155	-0.325838	99
Es	-0.120797	2.375076	0.050091	99
Es	0.721212	-0.287922	-0.943844	99
Es	-1.140714	-1.973153	-0.295060	99
Es	0.253633	-0.626946	0.444752	99
Es	-1.365190	-1.541575	1.046568	99
Es	0.975405	-0.777099	-1.411518	99
Es	-0.444742	0.841605	1.622870	99
Es	0.934397	0.432513	-0.951582	99
Es	0.571224	1.025208	-1.170403	99
Es	-0.920492	-1.596976	0.438375	99
Es	0.299103	1.383832	-0.602901	99
Es	-0.371501	1.132502	0.378396	99
