49
Properties=species:S:1:pos:R:3:Z:I:1 energy=-273.3047931025636 field_type=dipole dipole="0.000000 0.000000 0.000000" charge=0
C	-0.400930	-2.219872	-1.284556	6
C	-0.774080	-1.427372	-0.037636	6
C	-0.238190	0.019998	-0.043586	6
C	-0.796500	0.779888	1.178434	6
C	-0.401740	2.251258	1.216454	6
C	1.274610	0.037138	-0.050656	6
C	2.012980	0.587248	-1.021916	6
H	-0.863390	-3.211462	-1.249556	1
H	0.680820	-2.362202	-1.363916	1
H	-0.752060	-1.714562	-2.189536	1
H	-0.410280	-1.963302	0.848394	1
H	-1.868770	-1.405782	0.036354	1
H	-0.615890	0.515968	-0.948286	1
H	-0.468760	0.297888	2.108474	1
H	-1.892490	0.721898	1.164524	1
H	0.675250	2.374438	1.363774	1
H	-0.907960	2.752808	2.047244	1
H	-0.686290	2.758868	0.289864	1
H	1.778790	-0.429392	0.793494	1
H	1.557570	1.065868	-1.884366	1
H	3.097310	0.570678	-0.973006	1
Es	-0.796472	0.779909	1.178408	99
Es	0.528698	0.027724	-0.045379	99
Es	-0.590813	1.518052	1.191383	99
Es	-0.579158	-1.819892	-0.666342	99
Es	0.334353	-2.315114	-1.336190	99
Es	-0.492736	0.361504	-0.666434	99
Es	-1.525366	-1.406104	0.012423	99
Es	-0.499702	0.401508	0.568154	99
Es	1.607187	-0.283905	0.529833	99
Es	0.330570	2.332518	1.316605	99
Es	-1.548506	0.737181	1.163081	99
Es	-0.565518	0.445226	1.814512	99
Es	1.651303	0.603433	-0.388556	99
Es	-0.597812	2.594613	0.580304	99
Es	1.656470	0.033613	-0.707141	99
Es	-0.489627	-0.704528	-0.041787	99
Es	-0.518447	-1.790954	0.572578	99
Es	-0.774054	-1.427362	-0.037667	99
Es	-0.238154	0.019976	-0.043545	99
Es	-0.750744	2.591830	1.784649	99
Es	2.013037	0.587288	-1.021997	99
Es	-0.401755	2.251229	1.216452	99
Es	1.274533	0.037087	-0.050573	99
Es	-0.642461	-1.870056	-1.901709	99
Es	-0.719729	-2.896946	-1.258532	99
Es	-0.400946	-2.219862	-1.284535	99
Es	2.750765	0.579758	-0.996068	99
Es	1.707564	0.913647	-1.610320	99
49
Properties=species:S:1:pos:R:3:Z:I:1 energy=-273.3047931025636 field_type=dipole dipole="0.000000 0.000000 0.000000" charge=0
C	-0.400930	-2.219872	-1.284556	6
C	-0.774080	-1.427372	-0.037636	6
C	-0.238190	0.019998	-0.043586	6
C	-0.796500	0.779888	1.178434	6
C	-0.401740	2.251258	1.216454	6
C	1.274610	0.037138	-0.050656	6
C	2.012980	0.587248	-1.021916	6
H	-0.863390	-3.211462	-1.249556	1
H	0.680820	-2.362202	-1.363916	1
H	-0.752060	-1.714562	-2.189536	1
H	-0.410280	-1.963302	0.848394	1
H	-1.868770	-1.405782	0.036354	1
H	-0.615890	0.515968	-0.948286	1
H	-0.468760	0.297888	2.108474	1
H	-1.892490	0.721898	1.164524	1
H	0.675250	2.374438	1.363774	1
H	-0.907960	2.752808	2.047244	1
H	-0.686290	2.758868	0.289864	1
H	1.778790	-0.429392	0.793494	1
H	1.557570	1.065868	-1.884366	1
H	3.097310	0.570678	-0.973006	1
Es	-0.774053	-1.427362	-0.037666	99
Es	2.013043	0.587293	-1.021998	99
Es	-0.597922	2.594727	0.579364	99
Es	-1.525667	-1.406112	0.012315	99
Es	-0.401757	2.251233	1.216454	99
Es	0.334489	-2.315001	-1.335685	99
Es	1.274532	0.037087	-0.050569	99
Es	-0.590752	1.518368	1.191572	99
Es	0.529000	0.027527	-0.045148	99
Es	-1.548604	0.737447	1.162778	99
Es	-0.493176	0.361657	-0.666672	99
Es	-0.489684	-0.704190	-0.041690	99
Es	-0.238155	0.019976	-0.043545	99
Es	1.656754	0.033380	-0.707416	99
Es	1.707490	0.913979	-1.610245	99
Es	2.750798	0.580157	-0.995761	99
Es	-0.517990	-1.791220	0.572696	99
Es	-0.400947	-2.219860	-1.284533	99
Es	-0.565287	0.445030	1.815021	99
Es	0.330444	2.331850	1.316888	99
Es	1.607233	-0.283677	0.529829	99
Es	-0.499564	0.401387	0.567929	99
Es	-0.796473	0.779909	1.178410	99
Es	-0.719881	-2.897042	-1.258137	99
Es	-0.579124	-1.820016	-0.666623	99
Es	-0.642661	-1.869497	-1.901984	99
Es	-0.750708	2.591550	1.784951	99
Es	1.651100	0.602791	-0.388924	99
49
Properties=species:S:1:pos:R:3:Z:I:1 energy=-273.3047931025636 field_type=dipole dipole="0.000000 0.000000 0.000000" charge=0
C	-0.400930	-2.219872	-1.284556	6
C	-0.774080	-1.427372	-0.037636	6
C	-0.238190	0.019998	-0.043586	6
C	-0.796500	0.779888	1.178434	6
C	-0.401740	2.251258	1.216454	6
C	1.274610	0.037138	-0.050656	6
C	2.012980	0.587248	-1.021916	6
H	-0.863390	-3.211462	-1.249556	1
H	0.680820	-2.362202	-1.363916	1
H	-0.752060	-1.714562	-2.189536	1
H	-0.410280	-1.963302	0.848394	1
H	-1.868770	-1.405782	0.036354	1
H	-0.615890	0.515968	-0.948286	1
H	-0.468760	0.297888	2.108474	1
H	-1.892490	0.721898	1.164524	1
H	0.675250	2.374438	1.363774	1
H	-0.907960	2.752808	2.047244	1
H	-0.686290	2.758868	0.289864	1
H	1.778790	-0.429392	0.793494	1
H	1.557570	1.065868	-1.884366	1
H	3.097310	0.570678	-0.973006	1
Es	-1.548698	0.737555	1.162625	99
Es	-0.565113	0.444973	1.815304	99
Es	-0.642631	-1.869081	-1.902156	99
Es	0.529127	0.027356	-0.044781	99
Es	-0.597988	2.594955	0.578655	99
Es	-0.517904	-1.791336	0.572779	99
Es	-0.238152	0.019976	-0.043546	99
Es	2.750749	0.579922	-0.995978	99
Es	-0.774055	-1.427360	-0.037667	99
Es	-0.590469	1.518589	1.191557	99
Es	2.013043	0.587295	-1.021998	99
Es	-0.750654	2.591217	1.785579	99
Es	-1.525939	-1.406029	0.012115	99
Es	-0.720124	-2.897292	-1.257782	99
Es	1.656626	0.033417	-0.707323	99
Es	1.274532	0.037089	-0.050573	99
Es	-0.796471	0.779907	1.178411	99
Es	-0.578966	-1.820176	-0.666880	99
Es	-0.499468	0.401284	0.567720	99
Es	1.651360	0.603530	-0.388666	99
Es	-0.400947	-2.219863	-1.284535	99
Es	1.707512	0.913699	-1.610381	99
Es	0.329999	2.331352	1.316918	99
Es	0.334511	-2.314825	-1.335213	99
Es	-0.401755	2.251232	1.216453	99
Es	-0.493340	0.361776	-0.666893	99
Es	1.607109	-0.283709	0.529545	99
Es	-0.489413	-0.704080	-0.041681	99
49
Properties=species:S:1:pos:R:3:Z:I:1 energy=-273.3047931025636 field_type=dipole dipole="0.000000 0.000000 0.000000" charge=0
C	-0.400930	-2.219872	-1.284556	6
C	-0.774080	-1.427372	-0.037636	6
C	-0.238190	0.019998	-0.043586	6
C	-0.796500	0.779888	1.178434	6
C	-0.401740	2.251258	1.216454	6
C	1.274610	0.037138	-0.050656	6
C	2.012980	0.587248	-1.021916	6
H	-0.863390	-3.211462	-1.249556	1
H	0.680820	-2.362202	-1.363916	1
H	-0.752060	-1.714562	-2.189536	1
H	-0.410280	-1.963302	0.848394	1
H	-1.868770	-1.405782	0.036354	1
H	-0.615890	0.515968	-0.948286	1
H	-0.468760	0.297888	2.108474	1
H	-1.892490	0.721898	1.164524	1
H	0.675250	2.374438	1.363774	1
H	-0.907960	2.752808	2.047244	1
H	-0.686290	2.758868	0.289864	1
H	1.778790	-0.429392	0.793494	1
H	1.557570	1.065868	-1.884366	1
H	3.097310	0.570678	-0.973006	1
Es	2.750790	0.580009	-0.996077	99
Es	-0.750762	2.590996	1.786069	99
Es	1.274531	0.037088	-0.050570	99
Es	-0.493485	0.361793	-0.667052	99
Es	-0.238154	0.019975	-0.043543	99
Es	-0.774054	-1.427361	-0.037667	99
Es	-0.642715	-1.868675	-1.902262	99
Es	-1.548835	0.737729	1.162494	99
Es	-0.401756	2.251233	1.216455	99
Es	-0.400946	-2.219861	-1.284535	99
Es	0.529149	0.027113	-0.044329	99
Es	1.707555	0.913681	-1.610212	99
Es	-0.597720	2.595124	0.577877	99
Es	-0.590255	1.518785	1.191615	99
Es	0.329494	2.330741	1.317175	99
Es	1.656669	0.033189	-0.707525	99
Es	1.607154	-0.283464	0.529209	99
Es	1.651362	0.603654	-0.388624	99
Es	2.013044	0.587295	-1.021999	99
Es	-0.720506	-2.897470	-1.257242	99
Es	-0.796472	0.779907	1.178410	99
Es	-0.578725	-1.820391	-0.667212	99
Es	-0.499370	0.401333	0.567424	99
Es	0.334565	-2.314758	-1.334907	99
Es	-1.526078	-1.405893	0.011952	99
Es	-0.489115	-0.703803	-0.041679	99
Es	-0.564956	0.444895	1.815528	99
Es	-0.517933	-1.791493	0.572832	99
49
Properties=species:S:1:pos:R:3:Z:I:1 energy=-273.3047931025636 field_type=dipole dipole="0.000000 0.000000 0.000000" charge=0
C	-0.400930	-2.219872	-1.284556	6
C	-0.774080	-1.427372	-0.037636	6
C	-0.238190	0.019998	-0.043586	6
C	-0.796500	0.779888	1.178434	6
C	-0.401740	2.251258	1.216454	6
C	1.274610	0.037138	-0.050656	6
C	2.012980	0.587248	-1.021916	6
H	-0.863390	-3.211462	-1.249556	1
H	0.680820	-2.362202	-1.363916	1
H	-0.752060	-1.714562	-2.189536	1
H	-0.410280	-1.963302	0.848394	1
H	-1.868770	-1.405782	0.036354	1
H	-0.615890	0.515968	-0.948286	1
H	-0.468760	0.297888	2.108474	1
H	-1.892490	0.721898	1.164524	1
H	0.675250	2.374438	1.363774	1
H	-0.907960	2.752808	2.047244	1
H	-0.686290	2.758868	0.289864	1
H	1.778790	-0.429392	0.793494	1
H	1.557570	1.065868	-1.884366	1
H	3.097310	0.570678	-0.973006	1
Es	0.529241	0.026982	-0.044027	99
Es	-0.565030	0.444848	1.815816	99
Es	-0.642656	-1.868340	-1.902345	99
Es	-0.774053	-1.427360	-0.037667	99
Es	2.750799	0.579967	-0.996108	99
Es	-0.517604	-1.791398	0.572763	99
Es	1.707629	0.913621	-1.610194	99
Es	-0.238154	0.019975	-0.043543	99
Es	-0.489112	-0.703578	-0.042008	99
Es	-0.796475	0.779910	1.178411	99
Es	0.329034	2.330202	1.317477	99
Es	-0.597367	2.595226	0.577191	99
Es	-0.589967	1.519346	1.191448	99
Es	-0.400946	-2.219861	-1.284534	99
Es	-0.499149	0.401242	0.567143	99
Es	0.334491	-2.314550	-1.334575	99
Es	-0.751193	2.590583	1.786673	99
Es	-1.526330	-1.406139	0.012026	99
Es	-1.548685	0.737822	1.162338	99
Es	-0.578454	-1.820482	-0.667534	99
Es	1.656634	0.032990	-0.707687	99
Es	-0.493584	0.361879	-0.667050	99
Es	1.607050	-0.283323	0.528894	99
Es	2.013046	0.587288	-1.022005	99
Es	-0.401755	2.251238	1.216457	99
Es	1.274534	0.037089	-0.050568	99
Es	-0.720884	-2.897817	-1.256677	99
Es	1.651418	0.604012	-0.388509	99
49
Properties=species:S:1:pos:R:3:Z:I:1 energy=-273.3047931025636 field_type=dipole dipole="0.000000 0.000000 0.000000" charge=0
C	-0.400930	-2.219872	-1.284556	6
C	-0.774080	-1.427372	-0.037636	6
C	-0.238190	0.019998	-0.043586	6
C	-0.796500	0.779888	1.178434	6
C	-0.401740	2.251258	1.216454	6
C	1.274610	0.037138	-0.050656	6
C	2.012980	0.587248	-1.021916	6
H	-0.863390	-3.211462	-1.249556	1
H	0.680820	-2.362202	-1.363916	1
H	-0.752060	-1.714562	-2.189536	1
H	-0.410280	-1.963302	0.848394	1
H	-1.868770	-1.405782	0.036354	1
H	-0.615890	0.515968	-0.948286	1
H	-0.468760	0.297888	2.108474	1
H	-1.892490	0.721898	1.164524	1
H	0.675250	2.374438	1.363774	1
H	-0.907960	2.752808	2.047244	1
H	-0.686290	2.758868	0.289864	1
H	1.778790	-0.429392	0.793494	1
H	1.557570	1.065868	-1.884366	1
H	3.097310	0.570678	-0.973006	1
Es	-0.774054	-1.427361	-0.037667	99
Es	-1.526483	-1.406214	0.012090	99
Es	-0.400943	-2.219860	-1.284533	99
Es	2.013045	0.587296	-1.021999	99
Es	-0.493611	0.361941	-0.667081	99
Es	-0.589520	1.519773	1.191266	99
Es	-0.578139	-1.820492	-0.668152	99
Es	2.750858	0.580059	-0.996224	99
Es	1.707639	0.913465	-1.610086	99
Es	-0.488810	-0.703301	-0.042261	99
Es	0.328264	2.329668	1.317861	99
Es	-0.238154	0.019976	-0.043546	99
Es	-0.642554	-1.868045	-1.902454	99
Es	1.607079	-0.283009	0.528473	99
Es	-1.548562	0.738005	1.162175	99
Es	-0.517508	-1.791494	0.572602	99
Es	-0.721503	-2.898112	-1.255789	99
Es	-0.751744	2.589984	1.787435	99
Es	-0.596771	2.595481	0.576461	99
Es	-0.498923	0.401310	0.566715	99
Es	-0.796474	0.779907	1.178412	99
Es	1.274534	0.037090	-0.050568	99
Es	1.656640	0.032742	-0.707795	99
Es	-0.401756	2.251233	1.216454	99
Es	1.651434	0.604295	-0.388485	99
Es	-0.565128	0.444743	1.816069	99
Es	0.529203	0.026739	-0.043518	99
Es	0.334419	-2.314449	-1.334247	99
49
Properties=species:S:1:pos:R:3:Z:I:1 energy=-273.3047931025636 field_type=dipole dipole="0.000000 0.000000 0.000000" charge=0
C	-0.400930	-2.219872	-1.284556	6
C	-0.774080	-1.427372	-0.037636	6
C	-0.238190	0.019998	-0.043586	6
C	-0.796500	0.779888	1.178434	6
C	-0.401740	2.251258	1.216454	6
C	1.274610	0.037138	-0.050656	6
C	2.012980	0.587248	-1.021916	6
H	-0.863390	-3.211462	-1.249556	1
H	0.680820	-2.362202	-1.363916	1
H	-0.752060	-1.714562	-2.189536	1
H	-0.410280	-1.963302	0.848394	1
H	-1.868770	-1.405782	0.036354	1
H	-0.615890	0.515968	-0.948286	1
H	-0.468760	0.297888	2.108474	1
H	-1.892490	0.721898	1.164524	1
H	0.675250	2.374438	1.363774	1
H	-0.907960	2.752808	2.047244	1
H	-0.686290	2.758868	0.289864	1
H	1.778790	-0.429392	0.793494	1
H	1.557570	1.065868	-1.884366	1
H	3.097310	0.570678	-0.973006	1
Es	1.651628	0.604743	-0.388343	99
Es	-0.493589	0.361971	-0.667231	99
Es	-0.400946	-2.219860	-1.284534	99
Es	-0.577655	-1.820502	-0.669059	99
Es	1.707645	0.913299	-1.609969	99
Es	-0.589083	1.520506	1.190935	99
Es	-0.774055	-1.427361	-0.037665	99
Es	-0.796474	0.779907	1.178411	99
Es	0.529010	0.026309	-0.043089	99
Es	2.013045	0.587296	-1.021999	99
Es	1.656642	0.032545	-0.707720	99
Es	-0.565200	0.444690	1.816271	99
Es	-0.498445	0.401612	0.566193	99
Es	0.327514	2.329058	1.318158	99
Es	-0.722232	-2.898475	-1.254598	99
Es	-1.548468	0.738059	1.162021	99
Es	-0.238154	0.019976	-0.043546	99
Es	0.334237	-2.314274	-1.333840	99
Es	1.607108	-0.282726	0.527999	99
Es	-0.752385	2.589191	1.788332	99
Es	-0.488691	-0.703143	-0.042338	99
Es	-0.517437	-1.791457	0.572488	99
Es	1.274529	0.037081	-0.050572	99
Es	-1.526645	-1.406280	0.012146	99
Es	-0.642323	-1.867839	-1.902636	99
Es	-0.596158	2.595735	0.575828	99
Es	2.750815	0.580077	-0.996490	99
Es	-0.401756	2.251233	1.216455	99
49
Properties=species:S:1:pos:R:3:Z:I:1 energy=-273.3047931025636 field_type=dipole dipole="0.000000 0.000000 0.000000" charge=0
C	-0.400930	-2.219872	-1.284556	6
C	-0.774080	-1.427372	-0.037636	6
C	-0.238190	0.019998	-0.043586	6
C	-0.796500	0.779888	1.178434	6
C	-0.401740	2.251258	1.216454	6
C	1.274610	0.037138	-0.050656	6
C	2.012980	0.587248	-1.021916	6
H	-0.863390	-3.211462	-1.249556	1
H	0.680820	-2.362202	-1.363916	1
H	-0.752060	-1.714562	-2.189536	1
H	-0.410280	-1.963302	0.848394	1
H	-1.868770	-1.405782	0.036354	1
H	-0.615890	0.515968	-0.948286	1
H	-0.468760	0.297888	2.108474	1
H	-1.892490	0.721898	1.164524	1
H	0.675250	2.374438	1.363774	1
H	-0.907960	2.752808	2.047244	1
H	-0.686290	2.758868	0.289864	1
H	1.778790	-0.429392	0.793494	1
H	1.557570	1.065868	-1.884366	1
H	3.097310	0.570678	-0.973006	1
Es	1.651487	0.604931	-0.388135	99
Es	-0.400946	-2.219859	-1.284534	99
Es	-0.576972	-1.820641	-0.670190	99
Es	2.750880	0.580263	-0.996649	99
Es	0.334007	-2.314333	-1.333524	99
Es	-0.594980	2.596047	0.574968	99
Es	-0.488274	-0.702939	-0.042863	99
Es	-0.588400	1.521331	1.190621	99
Es	-0.753328	2.588164	1.789306	99
Es	2.013042	0.587299	-1.022002	99
Es	-0.642037	-1.867523	-1.902773	99
Es	1.274531	0.037089	-0.050571	99
Es	1.656777	0.032164	-0.708130	99
Es	-0.565321	0.444612	1.816443	99
Es	1.707633	0.913250	-1.609709	99
Es	0.528938	0.026069	-0.042502	99
Es	-1.548351	0.738202	1.161900	99
Es	-0.774056	-1.427363	-0.037665	99
Es	-0.796472	0.779907	1.178406	99
Es	-0.401756	2.251235	1.216455	99
Es	-0.517338	-1.791405	0.572246	99
Es	-0.723328	-2.898633	-1.253026	99
Es	-0.493561	0.362009	-0.667193	99
Es	0.326246	2.328387	1.318706	99
Es	-0.498112	0.401879	0.565771	99
Es	-0.238151	0.019976	-0.043548	99
Es	-1.526827	-1.406357	0.012353	99
Es	1.607148	-0.282389	0.527445	99
49
Properties=species:S:1:pos:R:3:Z:I:1 energy=-273.3047931025636 field_type=dipole dipole="0.000000 0.000000 0.000000" charge=0
C	-0.400930	-2.219872	-1.284556	6
C	-0.774080	-1.427372	-0.037636	6
C	-0.238190	0.019998	-0.043586	6
C	-0.796500	0.779888	1.178434	6
C	-0.401740	2.251258	1.216454	6
C	1.274610	0.037138	-0.050656	6
C	2.012980	0.587248	-1.021916	6
H	-0.863390	-3.211462	-1.249556	1
H	0.680820	-2.362202	-1.363916	1
H	-0.752060	-1.714562	-2.189536	1
H	-0.410280	-1.963302	0.848394	1
H	-1.868770	-1.405782	0.036354	1
H	-0.615890	0.515968	-0.948286	1
H	-0.468760	0.297888	2.108474	1
H	-1.892490	0.721898	1.164524	1
H	0.675250	2.374438	1.363774	1
H	-0.907960	2.752808	2.047244	1
H	-0.686290	2.758868	0.289864	1
H	1.778790	-0.429392	0.793494	1
H	1.557570	1.065868	-1.884366	1
H	3.097310	0.570678	-0.973006	1
Es	-0.774057	-1.427362	-0.037666	99
Es	1.607243	-0.281966	0.526854	99
Es	1.657029	0.031951	-0.708356	99
Es	-0.400945	-2.219861	-1.284536	99
Es	-1.526977	-1.406533	0.012650	99
Es	-0.238152	0.019977	-0.043547	99
Es	-0.641726	-1.867208	-1.902941	99
Es	1.651227	0.605069	-0.388017	99
Es	-0.517264	-1.791268	0.571900	99
Es	2.013044	0.587297	-1.021999	99
Es	0.325041	2.327804	1.319178	99
Es	-0.593793	2.596377	0.574323	99
Es	2.750931	0.580476	-0.996732	99
Es	-0.796475	0.779909	1.178410	99
Es	0.528906	0.025794	-0.042153	99
Es	-0.587417	1.522906	1.189921	99
Es	-0.401755	2.251233	1.216454	99
Es	-0.754561	2.586547	1.790407	99
Es	-0.493695	0.361856	-0.667037	99
Es	1.274532	0.037090	-0.050570	99
Es	-0.576132	-1.821036	-0.671748	99
Es	-0.497860	0.402029	0.565453	99
Es	-0.724542	-2.898718	-1.250967	99
Es	0.333691	-2.314276	-1.333175	99
Es	-1.548006	0.738320	1.161768	99
Es	-0.487801	-0.702617	-0.043341	99
Es	1.707619	0.913070	-1.609597	99
Es	-0.565626	0.444511	1.816672	99
49
Properties=species:S:1:pos:R:3:Z:I:1 energy=-273.3047931025636 field_type=dipole dipole="0.000000 0.000000 0.000000" charge=0
C	-0.400930	-2.219872	-1.284556	6
C	-0.774080	-1.427372	-0.037636	6
C	-0.238190	0.019998	-0.043586	6
C	-0.796500	0.779888	1.178434	6
C	-0.401740	2.251258	1.216454	6
C	1.274610	0.037138	-0.050656	6
C	2.012980	0.587248	-1.021916	6
H	-0.863390	-3.211462	-1.249556	1
H	0.680820	-2.362202	-1.363916	1
H	-0.752060	-1.714562	-2.189536	1
H	-0.410280	-1.963302	0.848394	1
H	-1.868770	-1.405782	0.036354	1
H	-0.615890	0.515968	-0.948286	1
H	-0.468760	0.297888	2.108474	1
H	-1.892490	0.721898	1.164524	1
H	0.675250	2.374438	1.363774	1
H	-0.907960	2.752808	2.047244	1
H	-0.686290	2.758868	0.289864	1
H	1.778790	-0.429392	0.793494	1
H	1.557570	1.065868	-1.884366	1
H	3.097310	0.570678	-0.973006	1
Es	1.651192	0.605389	-0.387792	99
Es	-0.586692	1.524148	1.189539	99
Es	-0.517055	-1.791006	0.571539	99
Es	1.707636	0.912930	-1.609268	99
Es	-0.400944	-2.219859	-1.284534	99
Es	-0.796475	0.779906	1.178411	99
Es	-0.238153	0.019977	-0.043546	99
Es	-0.565821	0.444439	1.816853	99
Es	-0.401756	2.251234	1.216454	99
Es	0.323412	2.327180	1.319705	99
Es	1.607251	-0.281595	0.526093	99
Es	2.751058	0.580578	-0.996992	99
Es	1.657048	0.031725	-0.708595	99
Es	1.274532	0.037090	-0.050571	99
Es	0.528623	0.025384	-0.041312	99
Es	-0.592280	2.596890	0.573627	99
Es	-0.774057	-1.427363	-0.037665	99
Es	-1.547839	0.738413	1.161584	99
Es	-1.527199	-1.406708	0.013083	99
Es	2.013044	0.587297	-1.021999	99
Es	-0.487628	-0.702634	-0.043803	99
Es	-0.641171	-1.866989	-1.903154	99
Es	-0.725730	-2.898571	-1.249020	99
Es	-0.755595	2.584822	1.791350	99
Es	-0.497350	0.402515	0.564892	99
Es	-0.575336	-1.821394	-0.673292	99
Es	0.333224	-2.314379	-1.332836	99
Es	-0.493461	0.361953	-0.667143	99
49
Properties=species:S:1:pos:R:3:Z:I:1 energy=-273.3047931025636 field_type=dipole dipole="0.000000 0.000000 0.000000" charge=0
C	-0.400930	-2.219872	-1.284556	6
C	-0.774080	-1.427372	-0.037636	6
C	-0.238190	0.019998	-0.043586	6
C	-0.796500	0.779888	1.178434	6
C	-0.401740	2.251258	1.216454	6
C	1.274610	0.037138	-0.050656	6
C	2.012980	0.587248	-1.021916	6
H	-0.863390	-3.211462	-1.249556	1
H	0.680820	-2.362202	-1.363916	1
H	-0.752060	-1.714562	-2.189536	1
H	-0.410280	-1.963302	0.848394	1
H	-1.868770	-1.405782	0.036354	1
H	-0.615890	0.515968	-0.948286	1
H	-0.468760	0.297888	2.108474	1
H	-1.892490	0.721898	1.164524	1
H	0.675250	2.374438	1.363774	1
H	-0.907960	2.752808	2.047244	1
H	-0.686290	2.758868	0.289864	1
H	1.778790	-0.429392	0.793494	1
H	1.557570	1.065868	-1.884366	1
H	3.097310	0.570678	-0.973006	1
Es	-0.400945	-2.219859	-1.284535	99
Es	-0.566115	0.444291	1.817047	99
Es	0.321618	2.326570	1.320272	99
Es	2.751144	0.580879	-0.997396	99
Es	-0.487128	-0.702496	-0.044399	99
Es	-0.726725	-2.898229	-1.246790	99
Es	1.274529	0.037091	-0.050573	99
Es	-0.574687	-1.821995	-0.674883	99
Es	-0.590528	2.597323	0.572918	99
Es	-0.238154	0.019975	-0.043548	99
Es	-0.516929	-1.790844	0.571059	99
Es	-0.756832	2.582672	1.792212	99
Es	-0.585661	1.526222	1.189059	99
Es	2.013044	0.587280	-1.022007	99
Es	-0.640990	-1.866898	-1.903284	99
Es	-1.527386	-1.406950	0.013505	99
Es	1.656970	0.031337	-0.708627	99
Es	-1.547437	0.738539	1.161484	99
Es	-0.401755	2.251234	1.216454	99
Es	-0.493413	0.361877	-0.667072	99
Es	1.607406	-0.281065	0.525299	99
Es	1.651272	0.605780	-0.387778	99
Es	0.332987	-2.314279	-1.332653	99
Es	1.707505	0.912646	-1.608909	99
Es	-0.796478	0.779908	1.178411	99
Es	0.528440	0.024950	-0.040591	99
Es	-0.774057	-1.427361	-0.037663	99
Es	-0.497218	0.402773	0.564596	99
49
Properties=species:S:1:pos:R:3:Z:I:1 energy=-273.3047931025636 field_type=dipole dipole="0.000000 0.000000 0.000000" charge=0
C	-0.400930	-2.219872	-1.284556	6
C	-0.774080	-1.427372	-0.037636	6
C	-0.238190	0.019998	-0.043586	6
C	-0.796500	0.779888	1.178434	6
C	-0.401740	2.251258	1.216454	6
C	1.274610	0.037138	-0.050656	6
C	2.012980	0.587248	-1.021916	6
H	-0.863390	-3.211462	-1.249556	1
H	0.680820	-2.362202	-1.363916	1
H	-0.752060	-1.714562	-2.189536	1
H	-0.410280	-1.963302	0.848394	1
H	-1.868770	-1.405782	0.036354	1
H	-0.615890	0.515968	-0.948286	1
H	-0.468760	0.297888	2.108474	1
H	-1.892490	0.721898	1.164524	1
H	0.675250	2.374438	1.363774	1
H	-0.907960	2.752808	2.047244	1
H	-0.686290	2.758868	0.289864	1
H	1.778790	-0.429392	0.793494	1
H	1.557570	1.065868	-1.884366	1
H	3.097310	0.570678	-0.973006	1
Es	-0.584507	1.528585	1.188613	99
Es	-0.401756	2.251233	1.216454	99
Es	-0.516995	-1.790610	0.570801	99
Es	-0.727962	-2.897563	-1.244310	99
Es	1.274531	0.037091	-0.050571	99
Es	-0.758098	2.580235	1.792914	99
Es	-1.527483	-1.407052	0.013732	99
Es	0.332448	-2.314418	-1.332192	99
Es	0.528251	0.024397	-0.039806	99
Es	1.651571	0.606212	-0.387932	99
Es	-0.640291	-1.866797	-1.903657	99
Es	1.707619	0.912411	-1.608839	99
Es	0.319751	2.326052	1.320787	99
Es	-0.496782	0.403202	0.564146	99
Es	-0.400945	-2.219858	-1.284535	99
Es	2.013045	0.587296	-1.021999	99
Es	-0.238153	0.019977	-0.043546	99
Es	-0.487559	-0.702650	-0.043878	99
Es	-1.547164	0.738638	1.161223	99
Es	-0.493189	0.361841	-0.667076	99
Es	1.656719	0.031028	-0.708389	99
Es	-0.774059	-1.427363	-0.037665	99
Es	2.751153	0.580961	-0.997470	99
Es	1.607356	-0.280541	0.524458	99
Es	-0.573403	-1.822725	-0.677630	99
Es	-0.566508	0.444108	1.817175	99
Es	-0.588636	2.597775	0.572385	99
Es	-0.796475	0.779908	1.178414	99
49
Properties=species:S:1:pos:R:3:Z:I:1 energy=-273.3047931025636 field_type=dipole dipole="0.000000 0.000000 0.000000" charge=0
C	-0.400930	-2.219872	-1.284556	6
C	-0.774080	-1.427372	-0.037636	6
C	-0.238190	0.019998	-0.043586	6
C	-0.796500	0.779888	1.178434	6
C	-0.401740	2.251258	1.216454	6
C	1.274610	0.037138	-0.050656	6
C	2.012980	0.587248	-1.021916	6
H	-0.863390	-3.211462	-1.249556	1
H	0.680820	-2.362202	-1.363916	1
H	-0.752060	-1.714562	-2.189536	1
H	-0.410280	-1.963302	0.848394	1
H	-1.868770	-1.405782	0.036354	1
H	-0.615890	0.515968	-0.948286	1
H	-0.468760	0.297888	2.108474	1
H	-1.892490	0.721898	1.164524	1
H	0.675250	2.374438	1.363774	1
H	-0.907960	2.752808	2.047244	1
H	-0.686290	2.758868	0.289864	1
H	1.778790	-0.429392	0.793494	1
H	1.557570	1.065868	-1.884366	1
H	3.097310	0.570678	-0.973006	1
Es	0.331979	-2.314475	-1.331826	99
Es	0.528079	0.024023	-0.038880	99
Es	1.607406	-0.280011	0.523537	99
Es	-0.487745	-0.702907	-0.043882	99
Es	1.657150	0.030961	-0.708867	99
Es	-0.774055	-1.427363	-0.037664	99
Es	-0.639848	-1.866595	-1.903958	99
Es	-0.401755	2.251231	1.216453	99
Es	-0.584937	1.528576	1.189169	99
Es	-0.728659	-2.897047	-1.242635	99
Es	-0.495405	0.404397	0.562785	99
Es	2.751411	0.581248	-0.997901	99
Es	-0.566856	0.444019	1.817421	99
Es	1.274530	0.037091	-0.050572	99
Es	-0.796476	0.779907	1.178413	99
Es	0.317980	2.325462	1.321106	99
Es	-0.400945	-2.219859	-1.284535	99
Es	-0.586855	2.598160	0.571957	99
Es	-0.758514	2.579308	1.793250	99
Es	-0.238153	0.019977	-0.043547	99
Es	-1.527710	-1.407355	0.014315	99
Es	1.651137	0.606164	-0.387552	99
Es	2.013045	0.587300	-1.021997	99
Es	1.707372	0.912211	-1.608353	99
Es	-0.516705	-1.790360	0.570269	99
Es	-1.546827	0.738799	1.161003	99
Es	-0.573032	-1.823418	-0.678881	99
Es	-0.493134	0.361928	-0.667022	99
49
Properties=species:S:1:pos:R:3:Z:I:1 energy=-273.3047931025636 field_type=dipole dipole="0.000000 0.000000 0.000000" charge=0
C	-0.400930	-2.219872	-1.284556	6
C	-0.774080	-1.427372	-0.037636	6
C	-0.238190	0.019998	-0.043586	6
C	-0.796500	0.779888	1.178434	6
C	-0.401740	2.251258	1.216454	6
C	1.274610	0.037138	-0.050656	6
C	2.012980	0.587248	-1.021916	6
H	-0.863390	-3.211462	-1.249556	1
H	0.680820	-2.362202	-1.363916	1
H	-0.752060	-1.714562	-2.189536	1
H	-0.410280	-1.963302	0.848394	1
H	-1.868770	-1.405782	0.036354	1
H	-0.615890	0.515968	-0.948286	1
H	-0.468760	0.297888	2.108474	1
H	-1.892490	0.721898	1.164524	1
H	0.675250	2.374438	1.363774	1
H	-0.907960	2.752808	2.047244	1
H	-0.686290	2.758868	0.289864	1
H	1.778790	-0.429392	0.793494	1
H	1.557570	1.065868	-1.884366	1
H	3.097310	0.570678	-0.973006	1
Es	-0.583292	1.531904	1.188228	99
Es	-0.487872	-0.702797	-0.043453	99
Es	-0.639348	-1.866465	-1.904244	99
Es	1.274531	0.037092	-0.050571	99
Es	-0.729604	-2.896172	-1.240412	99
Es	1.651567	0.606532	-0.387859	99
Es	-0.571826	-1.824317	-0.681540	99
Es	-0.796476	0.779907	1.178413	99
Es	0.528028	0.023413	-0.038141	99
Es	-0.759568	2.576650	1.793803	99
Es	-0.585037	2.598568	0.571603	99
Es	-0.774058	-1.427363	-0.037663	99
Es	1.607437	-0.279469	0.522624	99
Es	1.656711	0.030742	-0.708491	99
Es	2.013045	0.587295	-1.021999	99
Es	0.331520	-2.314607	-1.331509	99
Es	-0.493101	0.361793	-0.666971	99
Es	-0.496039	0.403788	0.563350	99
Es	-0.400945	-2.219858	-1.284534	99
Es	-0.401756	2.251233	1.216453	99
Es	-0.238153	0.019977	-0.043546	99
Es	1.707252	0.911859	-1.607984	99
Es	0.316053	2.325055	1.321375	99
Es	-1.546584	0.738872	1.160958	99
Es	-1.527805	-1.407521	0.014563	99
Es	-0.567029	0.443943	1.817547	99
Es	-0.516710	-1.790183	0.569939	99
Es	2.751537	0.581500	-0.998333	99
49
Properties=species:S:1:pos:R:3:Z:I:1 energy=-273.3047931025636 field_type=dipole dipole="0.000000 0.000000 0.000000" charge=0
C	-0.400930	-2.219872	-1.284556	6
C	-0.774080	-1.427372	-0.037636	6
C	-0.238190	0.019998	-0.043586	6
C	-0.796500	0.779888	1.178434	6
C	-0.401740	2.251258	1.216454	6
C	1.274610	0.037138	-0.050656	6
C	2.012980	0.587248	-1.021916	6
H	-0.863390	-3.211462	-1.249556	1
H	0.680820	-2.362202	-1.363916	1
H	-0.752060	-1.714562	-2.189536	1
H	-0.410280	-1.963302	0.848394	1
H	-1.868770	-1.405782	0.036354	1
H	-0.615890	0.515968	-0.948286	1
H	-0.468760	0.297888	2.108474	1
H	-1.892490	0.721898	1.164524	1
H	0.675250	2.374438	1.363774	1
H	-0.907960	2.752808	2.047244	1
H	-0.686290	2.758868	0.289864	1
H	1.778790	-0.429392	0.793494	1
H	1.557570	1.065868	-1.884366	1
H	3.097310	0.570678	-0.973006	1
Es	-1.528069	-1.407830	0.015157	99
Es	1.707234	0.911789	-1.607791	99
Es	-0.493007	0.361891	-0.667011	99
Es	-0.774057	-1.427365	-0.037664	99
Es	0.314161	2.324649	1.321636	99
Es	0.527959	0.023057	-0.037392	99
Es	2.751570	0.581660	-0.998466	99
Es	-0.796476	0.779906	1.178413	99
Es	-0.516447	-1.789909	0.569358	99
Es	-0.497047	0.403009	0.564378	99
Es	-0.639167	-1.866392	-1.904236	99
Es	1.656834	0.030561	-0.708645	99
Es	-0.729800	-2.896074	-1.240043	99
Es	-0.486282	-0.702341	-0.045773	99
Es	-0.401755	2.251233	1.216453	99
Es	2.013049	0.587294	-1.021998	99
Es	-0.238153	0.019976	-0.043547	99
Es	-0.583159	2.598955	0.571323	99
Es	-0.567296	0.443789	1.817683	99
Es	1.607384	-0.279084	0.521942	99
Es	1.651459	0.606692	-0.387714	99
Es	1.274532	0.037090	-0.050571	99
Es	-1.546330	0.738981	1.160772	99
Es	0.331348	-2.314572	-1.331449	99
Es	-0.572486	-1.824586	-0.680541	99
Es	-0.400941	-2.219857	-1.284534	99
Es	-0.760425	2.574331	1.794115	99
Es	-0.582155	1.534518	1.187750	99
