39
Properties=species:S:1:pos:R:3:Z:I:1 energy=-342.63509698152114 field_type=dipole dipole="0.000000 0.000000 0.000000" charge=0
O	-1.991412	-1.465266	0.544133	8
C	-1.027122	-1.547836	-0.215767	6
C	0.087788	-0.495256	-0.376017	6
C	-0.357542	0.971464	-0.661347	6
C	0.733618	1.399833	0.339483	6
O	1.338938	2.429914	0.540113	8
C	0.810158	-0.024036	0.923273	6
H	-0.914552	-2.438616	-0.856067	1
H	0.817198	-0.835346	-1.126887	1
H	-1.366882	1.233914	-0.331757	1
H	-0.195012	1.315104	-1.685017	1
H	1.824028	-0.406736	1.055693	1
H	0.240788	-0.137136	1.850163	1
Es	-1.772246	-1.378789	0.086722	99
Es	0.820605	0.698518	0.697184	99
Es	0.164468	1.257913	-0.193196	99
Es	-1.990073	-1.198603	0.710271	99
Es	-0.357493	0.971403	-0.661309	99
Es	0.810122	-0.024023	0.923197	99
Es	-1.991141	-1.465309	0.543907	99
Es	1.295316	1.984539	0.293520	99
Es	1.546671	2.398415	0.761536	99
Es	-1.027104	-1.547788	-0.215775	99
Es	1.490763	-0.280182	1.008056	99
Es	1.244124	2.649994	0.352828	99
Es	0.423774	-0.085895	1.524115	99
Es	0.435760	-0.350866	0.291570	99
Es	-1.013928	1.140059	-0.427106	99
Es	-2.175069	-1.710981	0.524229	99
Es	-0.469656	-1.020264	-0.295047	99
Es	0.087742	-0.495232	-0.375969	99
Es	-1.505784	-1.607010	0.450168	99
Es	1.338764	2.429628	0.540053	99
Es	0.948455	2.129817	0.639736	99
Es	-0.197977	0.189410	-0.568500	99
Es	0.581893	-0.726825	-0.885354	99
Es	-0.245028	1.199958	-1.347835	99
Es	-0.936825	-2.153180	-0.660975	99
Es	0.733582	1.399752	0.339460	99
39
Properties=species:S:1:pos:R:3:Z:I:1 energy=-342.63509698152114 field_type=dipole dipole="0.000000 0.000000 0.000000" charge=0
O	-1.991412	-1.465266	0.544133	8
C	-1.027122	-1.547836	-0.215767	6
C	0.087788	-0.495256	-0.376017	6
C	-0.357542	0.971464	-0.661347	6
C	0.733618	1.399833	0.339483	6
O	1.338938	2.429914	0.540113	8
C	0.810158	-0.024036	0.923273	6
H	-0.914552	-2.438616	-0.856067	1
H	0.817198	-0.835346	-1.126887	1
H	-1.366882	1.233914	-0.331757	1
H	-0.195012	1.315104	-1.685017	1
H	1.824028	-0.406736	1.055693	1
H	0.240788	-0.137136	1.850163	1
Es	0.435200	-0.350198	0.289901	99
Es	-1.769630	-1.381921	0.091273	99
Es	1.297530	1.984081	0.291012	99
Es	-0.244559	1.199391	-1.346661	99
Es	-1.991175	-1.465275	0.543952	99
Es	-1.027092	-1.547796	-0.215765	99
Es	-0.357493	0.971404	-0.661309	99
Es	1.338777	2.429626	0.540072	99
Es	1.544535	2.397014	0.757209	99
Es	1.489796	-0.279500	1.007282	99
Es	-1.982526	-1.195167	0.705581	99
Es	-1.014838	1.140588	-0.427552	99
Es	-0.196540	0.188430	-0.567452	99
Es	0.943762	2.131877	0.643620	99
Es	-0.471302	-1.020796	-0.294242	99
Es	0.164847	1.257855	-0.192927	99
Es	0.087743	-0.495233	-0.375969	99
Es	0.583084	-0.726035	-0.885839	99
Es	-0.937052	-2.153385	-0.660967	99
Es	0.733586	1.399751	0.339456	99
Es	1.249399	2.649704	0.355236	99
Es	0.810124	-0.024021	0.923196	99
Es	0.820586	0.698855	0.696788	99
Es	-1.508829	-1.602629	0.446043	99
Es	-2.182207	-1.715893	0.528342	99
Es	0.423987	-0.086273	1.525206	99
39
Properties=species:S:1:pos:R:3:Z:I:1 energy=-342.63509698152114 field_type=dipole dipole="0.000000 0.000000 0.000000" charge=0
O	-1.991412	-1.465266	0.544133	8
C	-1.027122	-1.547836	-0.215767	6
C	0.087788	-0.495256	-0.376017	6
C	-0.357542	0.971464	-0.661347	6
C	0.733618	1.399833	0.339483	6
O	1.338938	2.429914	0.540113	8
C	0.810158	-0.024036	0.923273	6
H	-0.914552	-2.438616	-0.856067	1
H	0.817198	-0.835346	-1.126887	1
H	-1.366882	1.233914	-0.331757	1
H	-0.195012	1.315104	-1.685017	1
H	1.824028	-0.406736	1.055693	1
H	0.240788	-0.137136	1.850163	1
Es	1.545362	2.400881	0.753427	99
Es	0.820396	0.699268	0.696648	99
Es	0.942276	2.132088	0.647868	99
Es	0.434781	-0.349796	0.288599	99
Es	0.733574	1.399756	0.339468	99
Es	0.810123	-0.024023	0.923193	99
Es	0.424270	-0.086752	1.525809	99
Es	0.583969	-0.725446	-0.886059	99
Es	0.087742	-0.495233	-0.375969	99
Es	0.165255	1.257894	-0.192829	99
Es	-1.991165	-1.465285	0.543939	99
Es	-0.937214	-2.153609	-0.660919	99
Es	-1.027090	-1.547797	-0.215761	99
Es	-1.767319	-1.382440	0.094939	99
Es	-1.979288	-1.193997	0.705007	99
Es	1.248473	2.645854	0.356281	99
Es	1.299575	1.983792	0.289102	99
Es	-0.195584	0.187433	-0.566946	99
Es	-0.357492	0.971405	-0.661308	99
Es	-0.472317	-1.021117	-0.293676	99
Es	1.489002	-0.278856	1.006851	99
Es	-1.015413	1.140995	-0.427808	99
Es	-1.511363	-1.600383	0.443312	99
Es	1.338761	2.429606	0.540059	99
Es	-2.185195	-1.718801	0.527917	99
Es	-0.244406	1.199021	-1.345661	99
39
Properties=species:S:1:pos:R:3:Z:I:1 energy=-342.63509698152114 field_type=dipole dipole="0.000000 0.000000 0.000000" charge=0
O	-1.991412	-1.465266	0.544133	8
C	-1.027122	-1.547836	-0.215767	6
C	0.087788	-0.495256	-0.376017	6
C	-0.357542	0.971464	-0.661347	6
C	0.733618	1.399833	0.339483	6
O	1.338938	2.429914	0.540113	8
C	0.810158	-0.024036	0.923273	6
H	-0.914552	-2.438616	-0.856067	1
H	0.817198	-0.835346	-1.126887	1
H	-1.366882	1.233914	-0.331757	1
H	-0.195012	1.315104	-1.685017	1
H	1.824028	-0.406736	1.055693	1
H	0.240788	-0.137136	1.850163	1
Es	-1.513403	-1.598836	0.440502	99
Es	-1.766266	-1.384064	0.098273	99
Es	-0.473114	-1.021216	-0.293201	99
Es	1.488148	-0.278698	1.006682	99
Es	0.424216	-0.086732	1.526323	99
Es	0.584512	-0.724941	-0.886360	99
Es	0.733573	1.399752	0.339465	99
Es	1.338695	2.429626	0.539983	99
Es	-0.194714	0.186816	-0.566324	99
Es	0.938755	2.134505	0.647965	99
Es	0.434506	-0.349796	0.287467	99
Es	-2.187615	-1.720740	0.528383	99
Es	-0.244540	1.198644	-1.344737	99
Es	1.542119	2.395869	0.752267	99
Es	-1.027086	-1.547802	-0.215755	99
Es	-0.357493	0.971404	-0.661309	99
Es	1.254792	2.648162	0.358781	99
Es	-0.937368	-2.153703	-0.660913	99
Es	-1.015745	1.141123	-0.428215	99
Es	0.165733	1.258175	-0.192689	99
Es	1.300296	1.984025	0.287569	99
Es	0.820877	0.699453	0.696231	99
Es	-1.975861	-1.192024	0.703937	99
Es	0.087740	-0.495233	-0.375970	99
Es	0.810122	-0.024023	0.923196	99
Es	-1.991164	-1.465292	0.543934	99
39
Properties=species:S:1:pos:R:3:Z:I:1 energy=-342.63509698152114 field_type=dipole dipole="0.000000 0.000000 0.000000" charge=0
O	-1.991412	-1.465266	0.544133	8
C	-1.027122	-1.547836	-0.215767	6
C	0.087788	-0.495256	-0.376017	6
C	-0.357542	0.971464	-0.661347	6
C	0.733618	1.399833	0.339483	6
O	1.338938	2.429914	0.540113	8
C	0.810158	-0.024036	0.923273	6
H	-0.914552	-2.438616	-0.856067	1
H	0.817198	-0.835346	-1.126887	1
H	-1.366882	1.233914	-0.331757	1
H	-0.195012	1.315104	-1.685017	1
H	1.824028	-0.406736	1.055693	1
H	0.240788	-0.137136	1.850163	1
Es	1.487958	-0.278223	1.006622	99
Es	1.525504	2.367701	0.746430	99
Es	0.424488	-0.086317	1.526603	99
Es	1.338712	2.429618	0.539999	99
Es	0.434146	-0.348931	0.287491	99
Es	-1.973679	-1.191539	0.704135	99
Es	0.820737	0.699258	0.696135	99
Es	0.810120	-0.024023	0.923194	99
Es	-1.514030	-1.597978	0.437571	99
Es	-1.027090	-1.547796	-0.215765	99
Es	1.298664	1.986539	0.282535	99
Es	0.166408	1.258466	-0.192619	99
Es	-1.016377	1.140987	-0.428578	99
Es	-2.189152	-1.722040	0.527518	99
Es	1.277209	2.670471	0.371572	99
Es	0.733575	1.399757	0.339465	99
Es	-0.937529	-2.153736	-0.660970	99
Es	-0.194074	0.185298	-0.566414	99
Es	0.584880	-0.724492	-0.886764	99
Es	-0.473706	-1.021092	-0.293061	99
Es	0.087743	-0.495233	-0.375969	99
Es	0.934896	2.137670	0.646036	99
Es	-1.766342	-1.384064	0.101676	99
Es	-0.244690	1.198030	-1.343991	99
Es	-0.357492	0.971404	-0.661308	99
Es	-1.991165	-1.465278	0.543942	99
39
Properties=species:S:1:pos:R:3:Z:I:1 energy=-342.63509698152114 field_type=dipole dipole="0.000000 0.000000 0.000000" charge=0
O	-1.991412	-1.465266	0.544133	8
C	-1.027122	-1.547836	-0.215767	6
C	0.087788	-0.495256	-0.376017	6
C	-0.357542	0.971464	-0.661347	6
C	0.733618	1.399833	0.339483	6
O	1.338938	2.429914	0.540113	8
C	0.810158	-0.024036	0.923273	6
H	-0.914552	-2.438616	-0.856067	1
H	0.817198	-0.835346	-1.126887	1
H	-1.366882	1.233914	-0.331757	1
H	-0.195012	1.315104	-1.685017	1
H	1.824028	-0.406736	1.055693	1
H	0.240788	-0.137136	1.850163	1
Es	-1.517625	-1.596359	0.437411	99
Es	-2.189784	-1.723685	0.527958	99
Es	0.810121	-0.024022	0.923194	99
Es	1.486601	-0.278210	1.006451	99
Es	0.424503	-0.087030	1.526938	99
Es	-1.016310	1.141610	-0.428514	99
Es	1.338767	2.429598	0.540063	99
Es	0.936712	2.136611	0.652133	99
Es	1.542881	2.400698	0.748793	99
Es	-1.991137	-1.465337	0.543887	99
Es	0.166583	1.258313	-0.192833	99
Es	0.433739	-0.349570	0.285704	99
Es	1.254398	2.642504	0.358192	99
Es	-0.937521	-2.153939	-0.660803	99
Es	0.585658	-0.724201	-0.886586	99
Es	-0.357493	0.971403	-0.661308	99
Es	-0.474089	-1.021314	-0.292478	99
Es	-1.971927	-1.189236	0.703072	99
Es	-1.763757	-1.386376	0.102573	99
Es	0.087742	-0.495234	-0.375969	99
Es	-0.193782	0.185498	-0.565688	99
Es	-1.027086	-1.547798	-0.215761	99
Es	0.733581	1.399754	0.339462	99
Es	0.821400	0.700046	0.695847	99
Es	-0.244644	1.198033	-1.343359	99
Es	1.302181	1.982700	0.287105	99
39
Properties=species:S:1:pos:R:3:Z:I:1 energy=-342.63509698152114 field_type=dipole dipole="0.000000 0.000000 0.000000" charge=0
O	-1.991412	-1.465266	0.544133	8
C	-1.027122	-1.547836	-0.215767	6
C	0.087788	-0.495256	-0.376017	6
C	-0.357542	0.971464	-0.661347	6
C	0.733618	1.399833	0.339483	6
O	1.338938	2.429914	0.540113	8
C	0.810158	-0.024036	0.923273	6
H	-0.914552	-2.438616	-0.856067	1
H	0.817198	-0.835346	-1.126887	1
H	-1.366882	1.233914	-0.331757	1
H	-0.195012	1.315104	-1.685017	1
H	1.824028	-0.406736	1.055693	1
H	0.240788	-0.137136	1.850163	1
Es	1.338726	2.429610	0.540017	99
Es	-0.473910	-1.020751	-0.293671	99
Es	-0.244914	1.197388	-1.344183	99
Es	-1.017100	1.139885	-0.428919	99
Es	1.349719	2.710014	0.422893	99
Es	0.087742	-0.495233	-0.375970	99
Es	0.733576	1.399753	0.339464	99
Es	1.467483	2.311277	0.713912	99
Es	1.489306	-0.277916	1.006811	99
Es	-0.937712	-2.153415	-0.661198	99
Es	-1.764987	-1.382367	0.101132	99
Es	-0.357492	0.971403	-0.661308	99
Es	-1.973871	-1.193359	0.702785	99
Es	0.424369	-0.084979	1.526495	99
Es	0.926531	2.147466	0.636188	99
Es	-0.193446	0.184524	-0.566642	99
Es	0.819971	0.697940	0.696474	99
Es	1.292910	1.993316	0.273711	99
Es	-1.991156	-1.465281	0.543939	99
Es	0.810122	-0.024024	0.923196	99
Es	-1.512872	-1.600382	0.440376	99
Es	0.434465	-0.347846	0.288860	99
Es	-1.027093	-1.547794	-0.215768	99
Es	0.584084	-0.724200	-0.887342	99
Es	0.166891	1.258913	-0.192293	99
Es	-2.191625	-1.719484	0.526527	99
39
Properties=species:S:1:pos:R:3:Z:I:1 energy=-342.63509698152114 field_type=dipole dipole="0.000000 0.000000 0.000000" charge=0
O	-1.991412	-1.465266	0.544133	8
C	-1.027122	-1.547836	-0.215767	6
C	0.087788	-0.495256	-0.376017	6
C	-0.357542	0.971464	-0.661347	6
C	0.733618	1.399833	0.339483	6
O	1.338938	2.429914	0.540113	8
C	0.810158	-0.024036	0.923273	6
H	-0.914552	-2.438616	-0.856067	1
H	0.817198	-0.835346	-1.126887	1
H	-1.366882	1.233914	-0.331757	1
H	-0.195012	1.315104	-1.685017	1
H	1.824028	-0.406736	1.055693	1
H	0.240788	-0.137136	1.850163	1
Es	1.486885	-0.279517	1.006184	99
Es	1.205122	2.518964	0.365677	99
Es	-1.974937	-1.192962	0.701328	99
Es	0.585596	-0.725453	-0.885202	99
Es	-0.243348	1.199901	-1.345432	99
Es	-1.766119	-1.384612	0.096111	99
Es	0.810121	-0.024023	0.923194	99
Es	0.434007	-0.350343	0.284960	99
Es	1.313505	1.976069	0.301273	99
Es	-1.991191	-1.465273	0.543950	99
Es	0.733575	1.399755	0.339465	99
Es	-0.194990	0.189052	-0.565253	99
Es	-0.357491	0.971404	-0.661308	99
Es	-1.027088	-1.547798	-0.215762	99
Es	1.338823	2.429442	0.540184	99
Es	-0.937135	-2.153868	-0.660403	99
Es	-2.187225	-1.723377	0.532588	99
Es	0.423561	-0.088703	1.526387	99
Es	-1.015106	1.142467	-0.426927	99
Es	0.951218	2.127088	0.669821	99
Es	1.565964	2.540763	0.708581	99
Es	-0.472675	-1.021837	-0.292117	99
Es	0.164084	1.256625	-0.193058	99
Es	0.821504	0.700905	0.695923	99
Es	0.087744	-0.495234	-0.375968	99
Es	-1.514691	-1.594977	0.441287	99
39
Properties=species:S:1:pos:R:3:Z:I:1 energy=-342.63509698152114 field_type=dipole dipole="0.000000 0.000000 0.000000" charge=0
O	-1.991412	-1.465266	0.544133	8
C	-1.027122	-1.547836	-0.215767	6
C	0.087788	-0.495256	-0.376017	6
C	-0.357542	0.971464	-0.661347	6
C	0.733618	1.399833	0.339483	6
O	1.338938	2.429914	0.540113	8
C	0.810158	-0.024036	0.923273	6
H	-0.914552	-2.438616	-0.856067	1
H	0.817198	-0.835346	-1.126887	1
H	-1.366882	1.233914	-0.331757	1
H	-0.195012	1.315104	-1.685017	1
H	1.824028	-0.406736	1.055693	1
H	0.240788	-0.137136	1.850163	1
Es	0.733577	1.399757	0.339466	99
Es	0.924661	2.149704	0.634508	99
Es	1.489819	-0.277695	1.006756	99
Es	0.087743	-0.495233	-0.375968	99
Es	0.810120	-0.024024	0.923194	99
Es	1.373389	2.715206	0.443251	99
Es	-0.357495	0.971400	-0.661307	99
Es	-1.027095	-1.547791	-0.215771	99
Es	-1.991180	-1.465271	0.543963	99
Es	-1.973703	-1.194740	0.701771	99
Es	0.819518	0.697638	0.696691	99
Es	-1.017225	1.139775	-0.428849	99
Es	0.434503	-0.347627	0.289175	99
Es	-0.937762	-2.153326	-0.661269	99
Es	0.583967	-0.724146	-0.887360	99
Es	1.446965	2.301670	0.697371	99
Es	-0.244856	1.197306	-1.344357	99
Es	0.166928	1.258785	-0.192294	99
Es	-0.193453	0.184504	-0.566687	99
Es	0.424370	-0.084847	1.526455	99
Es	1.338741	2.429588	0.540042	99
Es	-1.764932	-1.381385	0.100695	99
Es	-2.192667	-1.718734	0.526979	99
Es	-0.473922	-1.020722	-0.293884	99
Es	1.291740	1.995410	0.271531	99
Es	-1.512036	-1.600746	0.441383	99
39
Properties=species:S:1:pos:R:3:Z:I:1 energy=-342.63509698152114 field_type=dipole dipole="0.000000 0.000000 0.000000" charge=0
O	-1.991412	-1.465266	0.544133	8
C	-1.027122	-1.547836	-0.215767	6
C	0.087788	-0.495256	-0.376017	6
C	-0.357542	0.971464	-0.661347	6
C	0.733618	1.399833	0.339483	6
O	1.338938	2.429914	0.540113	8
C	0.810158	-0.024036	0.923273	6
H	-0.914552	-2.438616	-0.856067	1
H	0.817198	-0.835346	-1.126887	1
H	-1.366882	1.233914	-0.331757	1
H	-0.195012	1.315104	-1.685017	1
H	1.824028	-0.406736	1.055693	1
H	0.240788	-0.137136	1.850163	1
Es	0.163851	1.256492	-0.192945	99
Es	-0.357492	0.971404	-0.661308	99
Es	0.585572	-0.725493	-0.885083	99
Es	1.338789	2.429423	0.540143	99
Es	-1.015043	1.142473	-0.426964	99
Es	-0.243106	1.200082	-1.345563	99
Es	0.733578	1.399756	0.339466	99
Es	0.423407	-0.088959	1.526399	99
Es	0.950176	2.129765	0.670409	99
Es	1.563785	2.558031	0.698359	99
Es	-2.188809	-1.722150	0.534983	99
Es	-1.991122	-1.465278	0.543914	99
Es	0.434168	-0.350311	0.284916	99
Es	-0.195062	0.189295	-0.565216	99
Es	-1.514607	-1.595626	0.441350	99
Es	1.486890	-0.279540	1.006105	99
Es	0.810121	-0.024024	0.923195	99
Es	-1.027089	-1.547797	-0.215763	99
Es	-1.766639	-1.384781	0.095201	99
Es	-0.937128	-2.153827	-0.660353	99
Es	-1.972947	-1.193450	0.699903	99
Es	0.087743	-0.495233	-0.375968	99
Es	-0.472579	-1.021893	-0.292137	99
Es	1.207376	2.501334	0.372354	99
Es	1.314453	1.973795	0.304221	99
Es	0.821429	0.700968	0.695867	99
39
Properties=species:S:1:pos:R:3:Z:I:1 energy=-342.63509698152114 field_type=dipole dipole="0.000000 0.000000 0.000000" charge=0
O	-1.991412	-1.465266	0.544133	8
C	-1.027122	-1.547836	-0.215767	6
C	0.087788	-0.495256	-0.376017	6
C	-0.357542	0.971464	-0.661347	6
C	0.733618	1.399833	0.339483	6
O	1.338938	2.429914	0.540113	8
C	0.810158	-0.024036	0.923273	6
H	-0.914552	-2.438616	-0.856067	1
H	0.817198	-0.835346	-1.126887	1
H	-1.366882	1.233914	-0.331757	1
H	-0.195012	1.315104	-1.685017	1
H	1.824028	-0.406736	1.055693	1
H	0.240788	-0.137136	1.850163	1
Es	0.733576	1.399755	0.339466	99
Es	-1.973074	-1.194875	0.700494	99
Es	1.433617	2.298257	0.685864	99
Es	-1.991145	-1.465274	0.543935	99
Es	-0.473855	-1.020699	-0.294085	99
Es	0.819478	0.697576	0.696825	99
Es	0.810122	-0.024023	0.923194	99
Es	1.489949	-0.277859	1.006763	99
Es	-0.357491	0.971403	-0.661310	99
Es	1.338572	2.429603	0.539864	99
Es	-0.244851	1.197256	-1.344646	99
Es	-1.765125	-1.381707	0.100147	99
Es	0.434691	-0.347610	0.289384	99
Es	1.388082	2.716529	0.456631	99
Es	0.166850	1.258830	-0.192154	99
Es	0.923771	2.151174	0.633891	99
Es	-0.193501	0.184866	-0.566581	99
Es	1.291596	1.995932	0.270323	99
Es	-2.193700	-1.717604	0.528110	99
Es	0.424247	-0.084808	1.526417	99
Es	-1.511504	-1.601518	0.442134	99
Es	0.087742	-0.495232	-0.375969	99
Es	0.583736	-0.724095	-0.887383	99
Es	-0.937753	-2.153207	-0.661257	99
Es	-1.017225	1.139580	-0.428806	99
Es	-1.027092	-1.547795	-0.215766	99
39
Properties=species:S:1:pos:R:3:Z:I:1 energy=-342.63509698152114 field_type=dipole dipole="0.000000 0.000000 0.000000" charge=0
O	-1.991412	-1.465266	0.544133	8
C	-1.027122	-1.547836	-0.215767	6
C	0.087788	-0.495256	-0.376017	6
C	-0.357542	0.971464	-0.661347	6
C	0.733618	1.399833	0.339483	6
O	1.338938	2.429914	0.540113	8
C	0.810158	-0.024036	0.923273	6
H	-0.914552	-2.438616	-0.856067	1
H	0.817198	-0.835346	-1.126887	1
H	-1.366882	1.233914	-0.331757	1
H	-0.195012	1.315104	-1.685017	1
H	1.824028	-0.406736	1.055693	1
H	0.240788	-0.137136	1.850163	1
Es	0.583808	-0.724101	-0.887383	99
Es	0.434610	-0.347542	0.289299	99
Es	-0.244882	1.197139	-1.344568	99
Es	-0.937746	-2.153233	-0.661220	99
Es	1.389828	2.716440	0.457084	99
Es	-1.511961	-1.602861	0.439879	99
Es	0.923797	2.152024	0.634014	99
Es	1.291676	1.994830	0.270828	99
Es	-1.017369	1.139451	-0.428860	99
Es	-1.027090	-1.547797	-0.215763	99
Es	1.338635	2.429609	0.539924	99
Es	0.087743	-0.495233	-0.375969	99
Es	-0.473946	-1.020688	-0.293955	99
Es	-0.357492	0.971404	-0.661308	99
Es	-1.969629	-1.195048	0.700624	99
Es	1.489867	-0.277879	1.006816	99
Es	-1.991211	-1.465272	0.543977	99
Es	-2.195528	-1.716261	0.529701	99
Es	0.819543	0.697616	0.696724	99
Es	1.431756	2.298552	0.684745	99
Es	0.733576	1.399757	0.339465	99
Es	-1.766297	-1.381475	0.100511	99
Es	0.424259	-0.084717	1.526417	99
Es	-0.193229	0.184820	-0.566539	99
Es	0.166877	1.258944	-0.192151	99
Es	0.810121	-0.024021	0.923193	99
39
Properties=species:S:1:pos:R:3:Z:I:1 energy=-342.63509698152114 field_type=dipole dipole="0.000000 0.000000 0.000000" charge=0
O	-1.991412	-1.465266	0.544133	8
C	-1.027122	-1.547836	-0.215767	6
C	0.087788	-0.495256	-0.376017	6
C	-0.357542	0.971464	-0.661347	6
C	0.733618	1.399833	0.339483	6
O	1.338938	2.429914	0.540113	8
C	0.810158	-0.024036	0.923273	6
H	-0.914552	-2.438616	-0.856067	1
H	0.817198	-0.835346	-1.126887	1
H	-1.366882	1.233914	-0.331757	1
H	-0.195012	1.315104	-1.685017	1
H	1.824028	-0.406736	1.055693	1
H	0.240788	-0.137136	1.850163	1
Es	-1.767863	-1.385505	0.094706	99
Es	1.315994	1.975034	0.303654	99
Es	0.821423	0.701013	0.695902	99
Es	-0.357492	0.971404	-0.661308	99
Es	0.423258	-0.088967	1.526333	99
Es	-1.969802	-1.193270	0.698256	99
Es	-1.027091	-1.547796	-0.215764	99
Es	1.206835	2.487357	0.380411	99
Es	1.560445	2.573472	0.687715	99
Es	0.434268	-0.350349	0.284932	99
Es	-0.472588	-1.021867	-0.292074	99
Es	-2.190996	-1.720230	0.537819	99
Es	0.087745	-0.495231	-0.375968	99
Es	0.952717	2.126895	0.673303	99
Es	0.733577	1.399756	0.339463	99
Es	-1.991163	-1.465283	0.543939	99
Es	-0.937026	-2.153829	-0.660273	99
Es	0.163847	1.256606	-0.192935	99
Es	-0.243243	1.199993	-1.345496	99
Es	1.486930	-0.279688	1.006145	99
Es	-1.514412	-1.596977	0.440506	99
Es	0.585509	-0.725503	-0.885149	99
Es	1.338822	2.429467	0.540171	99
Es	-0.194965	0.189492	-0.565122	99
Es	-1.015135	1.142485	-0.426874	99
Es	0.810121	-0.024023	0.923195	99
39
Properties=species:S:1:pos:R:3:Z:I:1 energy=-342.63509698152114 field_type=dipole dipole="0.000000 0.000000 0.000000" charge=0
O	-1.991412	-1.465266	0.544133	8
C	-1.027122	-1.547836	-0.215767	6
C	0.087788	-0.495256	-0.376017	6
C	-0.357542	0.971464	-0.661347	6
C	0.733618	1.399833	0.339483	6
O	1.338938	2.429914	0.540113	8
C	0.810158	-0.024036	0.923273	6
H	-0.914552	-2.438616	-0.856067	1
H	0.817198	-0.835346	-1.126887	1
H	-1.366882	1.233914	-0.331757	1
H	-0.195012	1.315104	-1.685017	1
H	1.824028	-0.406736	1.055693	1
H	0.240788	-0.137136	1.850163	1
Es	-2.193753	-1.717449	0.526385	99
Es	1.291537	1.996628	0.269686	99
Es	-1.763312	-1.379692	0.099312	99
Es	-0.193449	0.185082	-0.566619	99
Es	0.434650	-0.347501	0.289390	99
Es	-0.244787	1.197236	-1.344744	99
Es	-1.512191	-1.601901	0.444021	99
Es	0.922719	2.152523	0.632071	99
Es	-1.017335	1.139525	-0.428719	99
Es	0.733573	1.399757	0.339469	99
Es	0.810122	-0.024023	0.923195	99
Es	0.087742	-0.495232	-0.375969	99
Es	1.490014	-0.277944	1.006752	99
Es	1.338184	2.429526	0.539497	99
Es	0.583804	-0.724169	-0.887287	99
Es	-0.937772	-2.153155	-0.661269	99
Es	-0.473823	-1.020750	-0.294052	99
Es	0.424145	-0.084774	1.526432	99
Es	1.423245	2.296220	0.677361	99
Es	-0.357492	0.971404	-0.661308	99
Es	0.166733	1.258808	-0.192126	99
Es	-1.974105	-1.196692	0.701238	99
Es	0.819454	0.697568	0.696790	99
Es	-1.991162	-1.465285	0.543937	99
Es	1.400066	2.716543	0.467804	99
Es	-1.027090	-1.547796	-0.215764	99
39
Properties=species:S:1:pos:R:3:Z:I:1 energy=-342.63509698152114 field_type=dipole dipole="0.000000 0.000000 0.000000" charge=0
O	-1.991412	-1.465266	0.544133	8
C	-1.027122	-1.547836	-0.215767	6
C	0.087788	-0.495256	-0.376017	6
C	-0.357542	0.971464	-0.661347	6
C	0.733618	1.399833	0.339483	6
O	1.338938	2.429914	0.540113	8
C	0.810158	-0.024036	0.923273	6
H	-0.914552	-2.438616	-0.856067	1
H	0.817198	-0.835346	-1.126887	1
H	-1.366882	1.233914	-0.331757	1
H	-0.195012	1.315104	-1.685017	1
H	1.824028	-0.406736	1.055693	1
H	0.240788	-0.137136	1.850163	1
Es	1.290624	1.996088	0.270004	99
Es	0.583885	-0.724002	-0.887405	99
Es	1.426084	2.296699	0.678782	99
Es	-1.511721	-1.600996	0.442173	99
Es	0.810121	-0.024023	0.923194	99
Es	0.733575	1.399757	0.339467	99
Es	0.166936	1.258923	-0.192112	99
Es	-1.017486	1.139521	-0.428952	99
Es	-1.991170	-1.465318	0.543919	99
Es	-1.764693	-1.381842	0.100599	99
Es	-0.357492	0.971404	-0.661309	99
Es	1.338619	2.429592	0.539910	99
Es	-0.937835	-2.153190	-0.661270	99
Es	1.397162	2.716571	0.463650	99
Es	0.923290	2.152459	0.634137	99
Es	-1.027091	-1.547795	-0.215765	99
Es	-0.244779	1.197003	-1.344481	99
Es	-0.474013	-1.020684	-0.294039	99
Es	0.819382	0.697472	0.696761	99
Es	0.087742	-0.495233	-0.375969	99
Es	0.434552	-0.347404	0.289265	99
Es	0.424226	-0.084701	1.526570	99
Es	-2.193988	-1.718019	0.528081	99
Es	-1.972965	-1.194828	0.700053	99
Es	-0.193228	0.184740	-0.566445	99
Es	1.489978	-0.277739	1.006668	99
39
Properties=species:S:1:pos:R:3:Z:I:1 energy=-342.63509698152114 field_type=dipole dipole="0.000000 0.000000 0.000000" charge=0
O	-1.991412	-1.465266	0.544133	8
C	-1.027122	-1.547836	-0.215767	6
C	0.087788	-0.495256	-0.376017	6
C	-0.357542	0.971464	-0.661347	6
C	0.733618	1.399833	0.339483	6
O	1.338938	2.429914	0.540113	8
C	0.810158	-0.024036	0.923273	6
H	-0.914552	-2.438616	-0.856067	1
H	0.817198	-0.835346	-1.126887	1
H	-1.366882	1.233914	-0.331757	1
H	-0.195012	1.315104	-1.685017	1
H	1.824028	-0.406736	1.055693	1
H	0.240788	-0.137136	1.850163	1
Es	0.423275	-0.088917	1.526367	99
Es	1.316904	1.974207	0.306033	99
Es	-2.189879	-1.721007	0.535722	99
Es	0.163837	1.256451	-0.193033	99
Es	1.487171	-0.279686	1.006039	99
Es	-1.027091	-1.547796	-0.215763	99
Es	1.557645	2.584792	0.679474	99
Es	-0.195186	0.189347	-0.565310	99
Es	-0.472521	-1.021901	-0.292077	99
Es	-0.357492	0.971404	-0.661308	99
Es	0.434371	-0.350008	0.285222	99
Es	1.338812	2.429330	0.540216	99
Es	-1.015002	1.142555	-0.426742	99
Es	-0.243168	1.200033	-1.345773	99
Es	0.952102	2.127801	0.673759	99
Es	-1.767038	-1.383553	0.094421	99
Es	1.209306	2.476101	0.385850	99
Es	0.821243	0.700878	0.695935	99
Es	0.733575	1.399757	0.339466	99
Es	-1.972646	-1.195149	0.699031	99
Es	-1.991125	-1.465276	0.543910	99
Es	0.087742	-0.495232	-0.375968	99
Es	-0.937096	-2.153789	-0.660326	99
Es	0.810121	-0.024022	0.923194	99
Es	-1.513506	-1.596278	0.442223	99
Es	0.585361	-0.725585	-0.885075	99
39
Properties=species:S:1:pos:R:3:Z:I:1 energy=-342.63509698152114 field_type=dipole dipole="0.000000 0.000000 0.000000" charge=0
O	-1.991412	-1.465266	0.544133	8
C	-1.027122	-1.547836	-0.215767	6
C	0.087788	-0.495256	-0.376017	6
C	-0.357542	0.971464	-0.661347	6
C	0.733618	1.399833	0.339483	6
O	1.338938	2.429914	0.540113	8
C	0.810158	-0.024036	0.923273	6
H	-0.914552	-2.438616	-0.856067	1
H	0.817198	-0.835346	-1.126887	1
H	-1.366882	1.233914	-0.331757	1
H	-0.195012	1.315104	-1.685017	1
H	1.824028	-0.406736	1.055693	1
H	0.240788	-0.137136	1.850163	1
Es	0.434124	-0.350250	0.284760	99
Es	0.810121	-0.024023	0.923195	99
Es	-1.014997	1.142586	-0.426734	99
Es	-0.195091	0.189515	-0.565061	99
Es	-0.937073	-2.153800	-0.660291	99
Es	1.558870	2.582054	0.681139	99
Es	0.423269	-0.089001	1.526310	99
Es	0.733574	1.399758	0.339467	99
Es	-0.357492	0.971404	-0.661307	99
Es	-2.190435	-1.720920	0.536386	99
Es	0.821332	0.701063	0.695916	99
Es	-0.243148	1.200091	-1.345676	99
Es	0.087742	-0.495233	-0.375969	99
Es	-1.991194	-1.465280	0.543972	99
Es	-1.027090	-1.547795	-0.215765	99
Es	1.486997	-0.279722	1.006106	99
Es	1.315860	1.974991	0.303932	99
Es	1.338799	2.429488	0.540141	99
Es	-1.971755	-1.193936	0.698162	99
Es	-1.514743	-1.596254	0.442483	99
Es	-1.766057	-1.384913	0.094316	99
Es	-0.472535	-1.021967	-0.291965	99
Es	0.163683	1.256444	-0.192942	99
Es	0.951826	2.127612	0.673534	99
Es	0.585621	-0.725517	-0.885023	99
Es	1.209506	2.478061	0.386400	99
39
Properties=species:S:1:pos:R:3:Z:I:1 energy=-342.63509698152114 field_type=dipole dipole="0.000000 0.000000 0.000000" charge=0
O	-1.991412	-1.465266	0.544133	8
C	-1.027122	-1.547836	-0.215767	6
C	0.087788	-0.495256	-0.376017	6
C	-0.357542	0.971464	-0.661347	6
C	0.733618	1.399833	0.339483	6
O	1.338938	2.429914	0.540113	8
C	0.810158	-0.024036	0.923273	6
H	-0.914552	-2.438616	-0.856067	1
H	0.817198	-0.835346	-1.126887	1
H	-1.366882	1.233914	-0.331757	1
H	-0.195012	1.315104	-1.685017	1
H	1.824028	-0.406736	1.055693	1
H	0.240788	-0.137136	1.850163	1
Es	1.338802	2.429357	0.540194	99
Es	-1.027092	-1.547795	-0.215765	99
Es	-1.972647	-1.195054	0.697898	99
Es	1.487292	-0.279783	1.006009	99
Es	0.434245	-0.350049	0.285354	99
Es	-0.357492	0.971404	-0.661308	99
Es	0.821185	0.700930	0.695990	99
Es	-0.195100	0.189533	-0.565341	99
Es	0.733575	1.399757	0.339464	99
Es	0.585404	-0.725521	-0.885040	99
Es	0.952233	2.127165	0.673702	99
Es	-2.190264	-1.720959	0.536269	99
Es	-0.243114	1.200075	-1.345750	99
Es	0.810120	-0.024025	0.923194	99
Es	1.556037	2.588988	0.676832	99
Es	-1.766259	-1.384002	0.093952	99
Es	-1.513826	-1.596057	0.443294	99
Es	1.317327	1.974710	0.304854	99
Es	-1.015159	1.142403	-0.426774	99
Es	-1.991181	-1.465273	0.543967	99
Es	-0.937087	-2.153705	-0.660379	99
Es	0.423312	-0.088895	1.526314	99
Es	1.210473	2.471963	0.389597	99
Es	-0.472451	-1.021962	-0.292161	99
Es	0.163639	1.256484	-0.192912	99
Es	0.087742	-0.495233	-0.375969	99
39
Properties=species:S:1:pos:R:3:Z:I:1 energy=-342.63509698152114 field_type=dipole dipole="0.000000 0.000000 0.000000" charge=0
O	-1.991412	-1.465266	0.544133	8
C	-1.027122	-1.547836	-0.215767	6
C	0.087788	-0.495256	-0.376017	6
C	-0.357542	0.971464	-0.661347	6
C	0.733618	1.399833	0.339483	6
O	1.338938	2.429914	0.540113	8
C	0.810158	-0.024036	0.923273	6
H	-0.914552	-2.438616	-0.856067	1
H	0.817198	-0.835346	-1.126887	1
H	-1.366882	1.233914	-0.331757	1
H	-0.195012	1.315104	-1.685017	1
H	1.824028	-0.406736	1.055693	1
H	0.240788	-0.137136	1.850163	1
Es	-1.991149	-1.465284	0.543928	99
Es	-1.766125	-1.383944	0.094805	99
Es	-0.194979	0.189527	-0.565123	99
Es	0.163661	1.256405	-0.192944	99
Es	-0.472611	-1.021897	-0.292101	99
Es	1.557532	2.585655	0.678740	99
Es	-1.027091	-1.547795	-0.215766	99
Es	-0.937034	-2.153823	-0.660221	99
Es	0.423272	-0.089100	1.526401	99
Es	0.434225	-0.350206	0.284908	99
Es	-0.357493	0.971405	-0.661308	99
Es	1.210050	2.474669	0.388098	99
Es	0.810122	-0.024023	0.923195	99
Es	0.585581	-0.725510	-0.885055	99
Es	1.338783	2.429559	0.540095	99
Es	0.951978	2.127563	0.673707	99
Es	-2.190075	-1.721733	0.535488	99
Es	-1.015120	1.142551	-0.426724	99
Es	-1.514325	-1.595591	0.442381	99
Es	-1.972531	-1.194742	0.698697	99
Es	1.316553	1.974740	0.304483	99
Es	0.087741	-0.495234	-0.375969	99
Es	1.487038	-0.279621	1.005994	99
Es	-0.243075	1.200101	-1.345649	99
Es	0.733574	1.399758	0.339465	99
Es	0.821214	0.701028	0.695958	99
39
Properties=species:S:1:pos:R:3:Z:I:1 energy=-342.63509698152114 field_type=dipole dipole="0.000000 0.000000 0.000000" charge=0
O	-1.991412	-1.465266	0.544133	8
C	-1.027122	-1.547836	-0.215767	6
C	0.087788	-0.495256	-0.376017	6
C	-0.357542	0.971464	-0.661347	6
C	0.733618	1.399833	0.339483	6
O	1.338938	2.429914	0.540113	8
C	0.810158	-0.024036	0.923273	6
H	-0.914552	-2.438616	-0.856067	1
H	0.817198	-0.835346	-1.126887	1
H	-1.366882	1.233914	-0.331757	1
H	-0.195012	1.315104	-1.685017	1
H	1.824028	-0.406736	1.055693	1
H	0.240788	-0.137136	1.850163	1
Es	1.415202	2.297550	0.667946	99
Es	-1.017405	1.139401	-0.428829	99
Es	1.409229	2.715698	0.475532	99
Es	0.087742	-0.495233	-0.375969	99
Es	0.819303	0.697482	0.696818	99
Es	1.337524	2.429011	0.539020	99
Es	0.424162	-0.084701	1.526416	99
Es	-1.991176	-1.465298	0.543939	99
Es	0.434786	-0.347521	0.289484	99
Es	0.583642	-0.724148	-0.887286	99
Es	0.166750	1.258898	-0.192062	99
Es	-0.244804	1.197167	-1.344699	99
Es	-0.473896	-1.020713	-0.294120	99
Es	1.291266	1.996331	0.269864	99
Es	-1.764737	-1.381959	0.098824	99
Es	-0.937763	-2.153135	-0.661245	99
Es	-2.195671	-1.716293	0.530630	99
Es	-1.511788	-1.602018	0.443299	99
Es	0.733577	1.399755	0.339466	99
Es	-1.027090	-1.547796	-0.215764	99
Es	-0.357492	0.971404	-0.661309	99
Es	-1.971183	-1.195463	0.698162	99
Es	1.490154	-0.277846	1.006756	99
Es	-0.193318	0.185100	-0.566654	99
Es	0.922579	2.152807	0.634069	99
Es	0.810122	-0.024023	0.923194	99
39
Properties=species:S:1:pos:R:3:Z:I:1 energy=-342.63509698152114 field_type=dipole dipole="0.000000 0.000000 0.000000" charge=0
O	-1.991412	-1.465266	0.544133	8
C	-1.027122	-1.547836	-0.215767	6
C	0.087788	-0.495256	-0.376017	6
C	-0.357542	0.971464	-0.661347	6
C	0.733618	1.399833	0.339483	6
O	1.338938	2.429914	0.540113	8
C	0.810158	-0.024036	0.923273	6
H	-0.914552	-2.438616	-0.856067	1
H	0.817198	-0.835346	-1.126887	1
H	-1.366882	1.233914	-0.331757	1
H	-0.195012	1.315104	-1.685017	1
H	1.824028	-0.406736	1.055693	1
H	0.240788	-0.137136	1.850163	1
Es	-0.937781	-2.153105	-0.661208	99
Es	-0.473837	-1.020778	-0.294176	99
Es	-1.975812	-1.196685	0.699954	99
Es	-0.193351	0.185404	-0.566349	99
Es	-1.027091	-1.547795	-0.215765	99
Es	-0.244747	1.197193	-1.344863	99
Es	1.412446	2.295012	0.665917	99
Es	-0.357492	0.971404	-0.661308	99
Es	0.424082	-0.084744	1.526504	99
Es	0.810122	-0.024022	0.923195	99
Es	0.922367	2.153610	0.633343	99
Es	-1.510468	-1.600250	0.444524	99
Es	-1.991168	-1.465301	0.543934	99
Es	-2.192637	-1.718518	0.527219	99
Es	1.490111	-0.277907	1.006696	99
Es	0.087741	-0.495232	-0.375970	99
Es	0.166687	1.258845	-0.192080	99
Es	-1.764480	-1.380289	0.099246	99
Es	1.338602	2.429631	0.539881	99
Es	0.819354	0.697432	0.696841	99
Es	1.290029	1.997266	0.269029	99
Es	0.434780	-0.347734	0.289338	99
Es	0.733574	1.399759	0.339472	99
Es	-1.017394	1.139425	-0.428700	99
Es	0.583689	-0.724029	-0.887361	99
Es	1.412389	2.715864	0.478173	99
39
Properties=species:S:1:pos:R:3:Z:I:1 energy=-342.63509698152114 field_type=dipole dipole="0.000000 0.000000 0.000000" charge=0
O	-1.991412	-1.465266	0.544133	8
C	-1.027122	-1.547836	-0.215767	6
C	0.087788	-0.495256	-0.376017	6
C	-0.357542	0.971464	-0.661347	6
C	0.733618	1.399833	0.339483	6
O	1.338938	2.429914	0.540113	8
C	0.810158	-0.024036	0.923273	6
H	-0.914552	-2.438616	-0.856067	1
H	0.817198	-0.835346	-1.126887	1
H	-1.366882	1.233914	-0.331757	1
H	-0.195012	1.315104	-1.685017	1
H	1.824028	-0.406736	1.055693	1
H	0.240788	-0.137136	1.850163	1
Es	-1.991148	-1.465317	0.543909	99
Es	0.163610	1.256553	-0.192805	99
Es	0.810122	-0.024023	0.923195	99
Es	-0.357492	0.971404	-0.661308	99
Es	-1.767533	-1.383400	0.094108	99
Es	-1.512998	-1.595929	0.442440	99
Es	-1.972539	-1.195603	0.698321	99
Es	0.087743	-0.495232	-0.375969	99
Es	0.423227	-0.088887	1.526277	99
Es	-1.027095	-1.547794	-0.215768	99
Es	0.585372	-0.725503	-0.885119	99
Es	0.733574	1.399758	0.339467	99
Es	1.316942	1.974147	0.305653	99
Es	-0.195033	0.189619	-0.565215	99
Es	-2.190010	-1.721081	0.536544	99
Es	-0.937082	-2.153700	-0.660289	99
Es	1.211578	2.466407	0.392957	99
Es	-0.243104	1.200064	-1.345837	99
Es	-0.472454	-1.021917	-0.292239	99
Es	1.555018	2.594230	0.671655	99
Es	1.338837	2.429475	0.540180	99
Es	0.821110	0.700887	0.695919	99
Es	0.434364	-0.350139	0.285388	99
Es	1.487376	-0.279738	1.006074	99
Es	-1.015172	1.142259	-0.426850	99
Es	0.952503	2.127917	0.674795	99
39
Properties=species:S:1:pos:R:3:Z:I:1 energy=-342.63509698152114 field_type=dipole dipole="0.000000 0.000000 0.000000" charge=0
O	-1.991412	-1.465266	0.544133	8
C	-1.027122	-1.547836	-0.215767	6
C	0.087788	-0.495256	-0.376017	6
C	-0.357542	0.971464	-0.661347	6
C	0.733618	1.399833	0.339483	6
O	1.338938	2.429914	0.540113	8
C	0.810158	-0.024036	0.923273	6
H	-0.914552	-2.438616	-0.856067	1
H	0.817198	-0.835346	-1.126887	1
H	-1.366882	1.233914	-0.331757	1
H	-0.195012	1.315104	-1.685017	1
H	1.824028	-0.406736	1.055693	1
H	0.240788	-0.137136	1.850163	1
Es	1.412795	2.715797	0.478528	99
Es	-0.193235	0.185270	-0.566680	99
Es	0.087743	-0.495233	-0.375968	99
Es	0.583656	-0.724079	-0.887327	99
Es	1.290606	1.996897	0.269250	99
Es	-1.510736	-1.601020	0.442424	99
Es	1.411397	2.295681	0.664771	99
Es	0.423934	-0.084828	1.526351	99
Es	0.166665	1.258888	-0.191899	99
Es	-1.027089	-1.547798	-0.215762	99
Es	-1.991158	-1.465322	0.543902	99
Es	1.338765	2.429558	0.540095	99
Es	-1.972387	-1.195900	0.699021	99
Es	0.819217	0.697468	0.696928	99
Es	0.434977	-0.347473	0.289374	99
Es	1.490180	-0.277889	1.006861	99
Es	-0.357492	0.971404	-0.661308	99
Es	-0.937773	-2.153133	-0.661211	99
Es	0.733577	1.399753	0.339465	99
Es	0.810122	-0.024023	0.923195	99
Es	-1.017455	1.139211	-0.428757	99
Es	0.922330	2.153411	0.633676	99
Es	-0.244773	1.197328	-1.344776	99
Es	-0.473828	-1.020770	-0.294122	99
Es	-2.194450	-1.717399	0.529986	99
Es	-1.765874	-1.381343	0.099470	99
