42
Properties=species:S:1:pos:R:3:Z:I:1 energy=-343.8101813059484 field_type=dipole dipole="0.000000 0.000000 0.000000" charge=0
O	-0.567542	-1.821939	-1.491068	8
C	-0.396742	-1.420389	-0.140148	6
C	0.450438	-0.162149	-0.122338	6
C	-0.202112	1.114971	-0.729208	6
C	0.312938	1.864301	0.515472	6
O	0.462958	3.033001	0.799082	8
C	0.575228	0.540961	1.260002	6
H	-1.081292	-2.648489	-1.484688	1
H	0.100128	-2.228749	0.405072	1
H	-1.383982	-1.250099	0.301092	1
H	1.440738	-0.355839	-0.560698	1
H	-1.293962	1.106811	-0.795918	1
H	0.230008	1.453011	-1.673448	1
H	1.559028	0.471311	1.728802	1
H	-0.205832	0.303281	1.987992	1
Es	0.174980	2.624225	0.790885	99
Es	0.450392	-0.162101	-0.122290	99
Es	1.236292	0.497165	1.576007	99
Es	-0.054339	-1.975218	0.245386	99
Es	-0.567667	-1.822091	-1.490805	99
Es	0.041214	0.388246	1.732840	99
Es	0.088946	1.347016	-1.358843	99
Es	-0.929092	1.108394	-0.750961	99
Es	0.379670	3.218462	0.569373	99
Es	0.465146	1.230007	0.967095	99
Es	0.096621	0.437462	-0.489800	99
Es	-0.743668	-1.607519	-1.622295	99
Es	0.526465	0.119485	0.611222	99
Es	0.646602	2.601161	0.601586	99
Es	0.029204	1.556964	-0.151332	99
Es	-0.516627	-1.690561	-0.971525	99
Es	0.312943	1.864218	0.515458	99
Es	0.023080	-0.790301	-0.127650	99
Es	1.122008	-0.289319	-0.416840	99
Es	-0.202086	1.114965	-0.729147	99
Es	0.578073	3.066015	1.081906	99
Es	-1.076733	-1.295379	0.174059	99
Es	0.462915	3.032678	0.799003	99
Es	0.575209	0.540976	1.259954	99
Es	-0.396758	-1.420441	-0.140368	99
Es	-0.846380	-2.266462	-1.466820	99
Es	-0.288025	-1.893106	-1.593918	99
42
Properties=species:S:1:pos:R:3:Z:I:1 energy=-343.8101813059484 field_type=dipole dipole="0.000000 0.000000 0.000000" charge=0
O	-0.567542	-1.821939	-1.491068	8
C	-0.396742	-1.420389	-0.140148	6
C	0.450438	-0.162149	-0.122338	6
C	-0.202112	1.114971	-0.729208	6
C	0.312938	1.864301	0.515472	6
O	0.462958	3.033001	0.799082	8
C	0.575228	0.540961	1.260002	6
H	-1.081292	-2.648489	-1.484688	1
H	0.100128	-2.228749	0.405072	1
H	-1.383982	-1.250099	0.301092	1
H	1.440738	-0.355839	-0.560698	1
H	-1.293962	1.106811	-0.795918	1
H	0.230008	1.453011	-1.673448	1
H	1.559028	0.471311	1.728802	1
H	-0.205832	0.303281	1.987992	1
Es	0.022856	-0.790715	-0.127581	99
Es	0.527184	0.118598	0.610443	99
Es	-0.202087	1.114964	-0.729144	99
Es	0.087759	1.346598	-1.358059	99
Es	0.097235	0.436169	-0.490365	99
Es	0.042934	0.388161	1.732822	99
Es	-0.293528	-1.888656	-1.588995	99
Es	0.462926	3.032690	0.799026	99
Es	0.450392	-0.162099	-0.122290	99
Es	0.465061	1.231900	0.967530	99
Es	-0.516670	-1.687765	-0.971876	99
Es	1.120911	-0.288283	-0.416084	99
Es	0.579312	3.067699	1.080634	99
Es	-0.567714	-1.822095	-1.490761	99
Es	0.174065	2.624377	0.792535	99
Es	-0.055445	-1.975498	0.245498	99
Es	0.312932	1.864218	0.515461	99
Es	0.029062	1.558384	-0.150314	99
Es	0.575208	0.540976	1.259955	99
Es	-0.927333	1.108766	-0.751943	99
Es	-1.075846	-1.296177	0.173343	99
Es	-0.740542	-1.608524	-1.624589	99
Es	-0.844137	-2.273008	-1.468899	99
Es	0.379807	3.217078	0.568781	99
Es	0.646383	2.600888	0.601655	99
Es	-0.396757	-1.420442	-0.140370	99
Es	1.234417	0.496737	1.575768	99
42
Properties=species:S:1:pos:R:3:Z:I:1 energy=-343.8101813059484 field_type=dipole dipole="0.000000 0.000000 0.000000" charge=0
O	-0.567542	-1.821939	-1.491068	8
C	-0.396742	-1.420389	-0.140148	6
C	0.450438	-0.162149	-0.122338	6
C	-0.202112	1.114971	-0.729208	6
C	0.312938	1.864301	0.515472	6
O	0.462958	3.033001	0.799082	8
C	0.575228	0.540961	1.260002	6
H	-1.081292	-2.648489	-1.484688	1
H	0.100128	-2.228749	0.405072	1
H	-1.383982	-1.250099	0.301092	1
H	1.440738	-0.355839	-0.560698	1
H	-1.293962	1.106811	-0.795918	1
H	0.230008	1.453011	-1.673448	1
H	1.559028	0.471311	1.728802	1
H	-0.205832	0.303281	1.987992	1
Es	0.022684	-0.790823	-0.127464	99
Es	0.173028	2.624229	0.792979	99
Es	-0.567675	-1.822096	-1.490797	99
Es	0.579195	3.066972	1.079514	99
Es	0.086694	1.346199	-1.357449	99
Es	0.044284	0.388185	1.732917	99
Es	-0.202087	1.114966	-0.729146	99
Es	0.312926	1.864218	0.515464	99
Es	0.465147	1.233289	0.967727	99
Es	-0.056241	-1.975730	0.245627	99
Es	1.120066	-0.287567	-0.415653	99
Es	0.380668	3.217908	0.569358	99
Es	0.527902	0.117643	0.610019	99
Es	-1.074994	-1.296786	0.172745	99
Es	-0.296235	-1.886383	-1.585122	99
Es	0.646926	2.601060	0.601799	99
Es	-0.518713	-1.684842	-0.972205	99
Es	1.232625	0.496624	1.575410	99
Es	0.575209	0.540977	1.259956	99
Es	-0.842093	-2.276679	-1.470124	99
Es	0.450392	-0.162099	-0.122292	99
Es	-0.396760	-1.420439	-0.140366	99
Es	0.028962	1.559536	-0.149843	99
Es	0.097597	0.435145	-0.490704	99
Es	-0.738065	-1.610262	-1.626674	99
Es	0.462898	3.032662	0.798957	99
Es	-0.925954	1.109038	-0.752452	99
42
Properties=species:S:1:pos:R:3:Z:I:1 energy=-343.8101813059484 field_type=dipole dipole="0.000000 0.000000 0.000000" charge=0
O	-0.567542	-1.821939	-1.491068	8
C	-0.396742	-1.420389	-0.140148	6
C	0.450438	-0.162149	-0.122338	6
C	-0.202112	1.114971	-0.729208	6
C	0.312938	1.864301	0.515472	6
O	0.462958	3.033001	0.799082	8
C	0.575228	0.540961	1.260002	6
H	-1.081292	-2.648489	-1.484688	1
H	0.100128	-2.228749	0.405072	1
H	-1.383982	-1.250099	0.301092	1
H	1.440738	-0.355839	-0.560698	1
H	-1.293962	1.106811	-0.795918	1
H	0.230008	1.453011	-1.673448	1
H	1.559028	0.471311	1.728802	1
H	-0.205832	0.303281	1.987992	1
Es	0.450392	-0.162099	-0.122290	99
Es	1.231259	0.496468	1.575088	99
Es	0.380687	3.217112	0.568764	99
Es	-0.520679	-1.681705	-0.972604	99
Es	-0.840497	-2.279584	-1.471267	99
Es	0.462917	3.032670	0.799002	99
Es	-0.567662	-1.822150	-1.490739	99
Es	0.312941	1.864220	0.515458	99
Es	-0.736137	-1.613247	-1.626675	99
Es	0.465218	1.234316	0.967958	99
Es	0.085830	1.345844	-1.356727	99
Es	0.575209	0.540977	1.259955	99
Es	-0.202087	1.114966	-0.729147	99
Es	0.172982	2.623070	0.792433	99
Es	0.577585	3.068137	1.079375	99
Es	-1.074492	-1.297192	0.172385	99
Es	-0.297926	-1.883654	-1.583439	99
Es	0.029099	1.560377	-0.149523	99
Es	-0.925034	1.109346	-0.752840	99
Es	0.022651	-0.791114	-0.127441	99
Es	0.648688	2.601923	0.602950	99
Es	1.119595	-0.286901	-0.415184	99
Es	0.528083	0.116704	0.609544	99
Es	0.045447	0.388314	1.732891	99
Es	-0.396758	-1.420442	-0.140370	99
Es	-0.056672	-1.975885	0.245650	99
Es	0.097746	0.434469	-0.491025	99
42
Properties=species:S:1:pos:R:3:Z:I:1 energy=-343.8101813059484 field_type=dipole dipole="0.000000 0.000000 0.000000" charge=0
O	-0.567542	-1.821939	-1.491068	8
C	-0.396742	-1.420389	-0.140148	6
C	0.450438	-0.162149	-0.122338	6
C	-0.202112	1.114971	-0.729208	6
C	0.312938	1.864301	0.515472	6
O	0.462958	3.033001	0.799082	8
C	0.575228	0.540961	1.260002	6
H	-1.081292	-2.648489	-1.484688	1
H	0.100128	-2.228749	0.405072	1
H	-1.383982	-1.250099	0.301092	1
H	1.440738	-0.355839	-0.560698	1
H	-1.293962	1.106811	-0.795918	1
H	0.230008	1.453011	-1.673448	1
H	1.559028	0.471311	1.728802	1
H	-0.205832	0.303281	1.987992	1
Es	-0.299796	-1.882892	-1.581249	99
Es	0.097911	0.433662	-0.491034	99
Es	-0.521207	-1.680985	-0.972919	99
Es	0.085241	1.345380	-1.356042	99
Es	-0.396759	-1.420441	-0.140371	99
Es	0.575207	0.540976	1.259953	99
Es	-1.074102	-1.297530	0.172122	99
Es	-0.202089	1.114967	-0.729148	99
Es	0.579378	3.059658	1.076872	99
Es	0.312937	1.864219	0.515459	99
Es	-0.924099	1.109487	-0.753427	99
Es	-0.567713	-1.822051	-1.490793	99
Es	0.022618	-0.791223	-0.127479	99
Es	1.230145	0.496501	1.574812	99
Es	-0.840100	-2.281081	-1.472450	99
Es	-0.057190	-1.975794	0.245620	99
Es	0.465404	1.234984	0.968112	99
Es	0.647416	2.601751	0.599279	99
Es	0.046260	0.388481	1.732901	99
Es	0.172139	2.624136	0.793918	99
Es	0.029031	1.561245	-0.149279	99
Es	0.450393	-0.162099	-0.122292	99
Es	0.462906	3.032633	0.798960	99
Es	1.119147	-0.286418	-0.415072	99
Es	0.381028	3.224782	0.573559	99
Es	0.528388	0.116145	0.609392	99
Es	-0.734109	-1.613553	-1.627225	99
42
Properties=species:S:1:pos:R:3:Z:I:1 energy=-343.8101813059484 field_type=dipole dipole="0.000000 0.000000 0.000000" charge=0
O	-0.567542	-1.821939	-1.491068	8
C	-0.396742	-1.420389	-0.140148	6
C	0.450438	-0.162149	-0.122338	6
C	-0.202112	1.114971	-0.729208	6
C	0.312938	1.864301	0.515472	6
O	0.462958	3.033001	0.799082	8
C	0.575228	0.540961	1.260002	6
H	-1.081292	-2.648489	-1.484688	1
H	0.100128	-2.228749	0.405072	1
H	-1.383982	-1.250099	0.301092	1
H	1.440738	-0.355839	-0.560698	1
H	-1.293962	1.106811	-0.795918	1
H	0.230008	1.453011	-1.673448	1
H	1.559028	0.471311	1.728802	1
H	-0.205832	0.303281	1.987992	1
Es	-0.923564	1.109686	-0.753885	99
Es	1.229108	0.496315	1.574613	99
Es	0.384178	3.230875	0.576624	99
Es	0.022651	-0.791292	-0.127504	99
Es	-1.073733	-1.297894	0.171927	99
Es	-0.567679	-1.822136	-1.490763	99
Es	0.575207	0.540977	1.259951	99
Es	0.465641	1.235681	0.968380	99
Es	1.118831	-0.285984	-0.414843	99
Es	0.577749	3.052674	1.076438	99
Es	0.450392	-0.162100	-0.122292	99
Es	-0.300742	-1.881690	-1.581358	99
Es	0.084750	1.345052	-1.355271	99
Es	0.647407	2.602262	0.599077	99
Es	-0.396759	-1.420441	-0.140373	99
Es	-0.732923	-1.616499	-1.626710	99
Es	-0.522081	-1.678189	-0.973039	99
Es	0.097990	0.433128	-0.491254	99
Es	-0.839579	-2.282122	-1.472647	99
Es	0.462917	3.032647	0.799004	99
Es	0.312940	1.864219	0.515457	99
Es	0.170722	2.624525	0.791456	99
Es	0.528402	0.115550	0.609205	99
Es	0.047040	0.388691	1.732757	99
Es	0.029106	1.561833	-0.149160	99
Es	-0.057499	-1.975796	0.245536	99
Es	-0.202086	1.114966	-0.729146	99
42
Properties=species:S:1:pos:R:3:Z:I:1 energy=-343.8101813059484 field_type=dipole dipole="0.000000 0.000000 0.000000" charge=0
O	-0.567542	-1.821939	-1.491068	8
C	-0.396742	-1.420389	-0.140148	6
C	0.450438	-0.162149	-0.122338	6
C	-0.202112	1.114971	-0.729208	6
C	0.312938	1.864301	0.515472	6
O	0.462958	3.033001	0.799082	8
C	0.575228	0.540961	1.260002	6
H	-1.081292	-2.648489	-1.484688	1
H	0.100128	-2.228749	0.405072	1
H	-1.383982	-1.250099	0.301092	1
H	1.440738	-0.355839	-0.560698	1
H	-1.293962	1.106811	-0.795918	1
H	0.230008	1.453011	-1.673448	1
H	1.559028	0.471311	1.728802	1
H	-0.205832	0.303281	1.987992	1
Es	0.575208	0.540977	1.259953	99
Es	-0.303517	-1.880306	-1.580663	99
Es	0.575150	3.036168	1.072179	99
Es	0.084167	1.344617	-1.354829	99
Es	1.228707	0.496468	1.574576	99
Es	0.029408	1.562421	-0.149135	99
Es	-0.838081	-2.283692	-1.473416	99
Es	-1.073576	-1.298030	0.171876	99
Es	0.098145	0.432499	-0.491458	99
Es	-0.923169	1.109723	-0.754041	99
Es	0.389477	3.245556	0.585804	99
Es	0.022629	-0.791369	-0.127560	99
Es	-0.202086	1.114966	-0.729145	99
Es	0.312939	1.864219	0.515459	99
Es	-0.057688	-1.975686	0.245477	99
Es	-0.567670	-1.822123	-1.490770	99
Es	0.528461	0.115377	0.609347	99
Es	0.465573	1.235833	0.968494	99
Es	-0.396758	-1.420441	-0.140368	99
Es	0.047544	0.388976	1.732644	99
Es	-0.522502	-1.674890	-0.973047	99
Es	-0.731251	-1.619719	-1.626679	99
Es	0.647078	2.603694	0.596960	99
Es	0.450391	-0.162097	-0.122290	99
Es	0.168379	2.624890	0.788683	99
Es	0.462923	3.032679	0.799022	99
Es	1.118505	-0.285769	-0.414890	99
42
Properties=species:S:1:pos:R:3:Z:I:1 energy=-343.8101813059484 field_type=dipole dipole="0.000000 0.000000 0.000000" charge=0
O	-0.567542	-1.821939	-1.491068	8
C	-0.396742	-1.420389	-0.140148	6
C	0.450438	-0.162149	-0.122338	6
C	-0.202112	1.114971	-0.729208	6
C	0.312938	1.864301	0.515472	6
O	0.462958	3.033001	0.799082	8
C	0.575228	0.540961	1.260002	6
H	-1.081292	-2.648489	-1.484688	1
H	0.100128	-2.228749	0.405072	1
H	-1.383982	-1.250099	0.301092	1
H	1.440738	-0.355839	-0.560698	1
H	-1.293962	1.106811	-0.795918	1
H	0.230008	1.453011	-1.673448	1
H	1.559028	0.471311	1.728802	1
H	-0.205832	0.303281	1.987992	1
Es	-0.304787	-1.878471	-1.583842	99
Es	0.029426	1.562752	-0.148964	99
Es	1.117782	-0.285667	-0.415012	99
Es	-0.202085	1.114965	-0.729143	99
Es	-0.058016	-1.975402	0.245516	99
Es	0.047849	0.389592	1.732188	99
Es	0.450391	-0.162100	-0.122290	99
Es	0.465279	1.235588	0.968673	99
Es	-0.396757	-1.420443	-0.140372	99
Es	-0.520271	-1.675586	-0.972063	99
Es	-0.923021	1.109397	-0.754327	99
Es	0.569099	3.003255	1.060669	99
Es	-0.732229	-1.621290	-1.623128	99
Es	0.643993	2.604814	0.591258	99
Es	0.528290	0.115633	0.609948	99
Es	0.098447	0.432077	-0.491716	99
Es	0.166198	2.628331	0.782888	99
Es	0.022707	-0.791321	-0.127797	99
Es	0.312943	1.864218	0.515456	99
Es	-0.838155	-2.283595	-1.474905	99
Es	-1.073236	-1.298116	0.171798	99
Es	0.400926	3.273872	0.609100	99
Es	0.084070	1.344316	-1.354738	99
Es	-0.567634	-1.822060	-1.490885	99
Es	0.575209	0.540977	1.259954	99
Es	0.462876	3.032656	0.798901	99
Es	1.229093	0.496548	1.575014	99
42
Properties=species:S:1:pos:R:3:Z:I:1 energy=-343.8101813059484 field_type=dipole dipole="0.000000 0.000000 0.000000" charge=0
O	-0.567542	-1.821939	-1.491068	8
C	-0.396742	-1.420389	-0.140148	6
C	0.450438	-0.162149	-0.122338	6
C	-0.202112	1.114971	-0.729208	6
C	0.312938	1.864301	0.515472	6
O	0.462958	3.033001	0.799082	8
C	0.575228	0.540961	1.260002	6
H	-1.081292	-2.648489	-1.484688	1
H	0.100128	-2.228749	0.405072	1
H	-1.383982	-1.250099	0.301092	1
H	1.440738	-0.355839	-0.560698	1
H	-1.293962	1.106811	-0.795918	1
H	0.230008	1.453011	-1.673448	1
H	1.559028	0.471311	1.728802	1
H	-0.205832	0.303281	1.987992	1
Es	-0.839051	-2.283640	-1.475666	99
Es	0.575210	0.540977	1.259956	99
Es	1.117676	-0.285449	-0.415042	99
Es	0.029506	1.563054	-0.149029	99
Es	-0.058102	-1.975269	0.245331	99
Es	-1.073172	-1.298381	0.171828	99
Es	0.048162	0.389679	1.732229	99
Es	0.022691	-0.791313	-0.127816	99
Es	0.450391	-0.162099	-0.122291	99
Es	-0.396762	-1.420440	-0.140372	99
Es	0.165530	2.628568	0.784080	99
Es	1.228658	0.496516	1.574815	99
Es	0.644612	2.604110	0.591652	99
Es	0.568995	3.004564	1.059740	99
Es	0.098675	0.431806	-0.491686	99
Es	0.528290	0.115440	0.609885	99
Es	-0.567849	-1.822033	-1.490733	99
Es	-0.523661	-1.672437	-0.972627	99
Es	0.401093	3.273054	0.608382	99
Es	0.312937	1.864220	0.515460	99
Es	0.462930	3.032628	0.799009	99
Es	-0.725619	-1.620721	-1.629508	99
Es	0.083790	1.344130	-1.354253	99
Es	-0.922955	1.109406	-0.754532	99
Es	0.465404	1.235839	0.968734	99
Es	-0.202084	1.114964	-0.729143	99
Es	-0.306912	-1.882231	-1.576223	99
42
Properties=species:S:1:pos:R:3:Z:I:1 energy=-343.8101813059484 field_type=dipole dipole="0.000000 0.000000 0.000000" charge=0
O	-0.567542	-1.821939	-1.491068	8
C	-0.396742	-1.420389	-0.140148	6
C	0.450438	-0.162149	-0.122338	6
C	-0.202112	1.114971	-0.729208	6
C	0.312938	1.864301	0.515472	6
O	0.462958	3.033001	0.799082	8
C	0.575228	0.540961	1.260002	6
H	-1.081292	-2.648489	-1.484688	1
H	0.100128	-2.228749	0.405072	1
H	-1.383982	-1.250099	0.301092	1
H	1.440738	-0.355839	-0.560698	1
H	-1.293962	1.106811	-0.795918	1
H	0.230008	1.453011	-1.673448	1
H	1.559028	0.471311	1.728802	1
H	-0.205832	0.303281	1.987992	1
Es	-0.728431	-1.623069	-1.624987	99
Es	-0.922581	1.109376	-0.754599	99
Es	-0.058203	-1.975317	0.245471	99
Es	0.575209	0.540977	1.259953	99
Es	0.029467	1.563311	-0.148953	99
Es	0.404360	3.281661	0.617283	99
Es	-0.837798	-2.284327	-1.476394	99
Es	-0.567634	-1.822058	-1.490886	99
Es	0.048329	0.389981	1.732030	99
Es	0.312938	1.864219	0.515459	99
Es	-1.072937	-1.298333	0.171700	99
Es	-0.307065	-1.879028	-1.580427	99
Es	0.528257	0.115365	0.610113	99
Es	-0.396758	-1.420441	-0.140371	99
Es	0.450391	-0.162100	-0.122291	99
Es	1.117245	-0.285340	-0.414917	99
Es	0.165544	2.627243	0.780811	99
Es	0.098637	0.431645	-0.491785	99
Es	-0.522219	-1.672613	-0.972162	99
Es	-0.202087	1.114966	-0.729147	99
Es	0.565540	2.994609	1.054867	99
Es	0.465391	1.235834	0.968813	99
Es	0.022666	-0.791420	-0.127978	99
Es	1.228647	0.496487	1.574968	99
Es	0.083645	1.343920	-1.354287	99
Es	0.462890	3.032666	0.798938	99
Es	0.644941	2.606728	0.590960	99
42
Properties=species:S:1:pos:R:3:Z:I:1 energy=-343.8101813059484 field_type=dipole dipole="0.000000 0.000000 0.000000" charge=0
O	-0.567542	-1.821939	-1.491068	8
C	-0.396742	-1.420389	-0.140148	6
C	0.450438	-0.162149	-0.122338	6
C	-0.202112	1.114971	-0.729208	6
C	0.312938	1.864301	0.515472	6
O	0.462958	3.033001	0.799082	8
C	0.575228	0.540961	1.260002	6
H	-1.081292	-2.648489	-1.484688	1
H	0.100128	-2.228749	0.405072	1
H	-1.383982	-1.250099	0.301092	1
H	1.440738	-0.355839	-0.560698	1
H	-1.293962	1.106811	-0.795918	1
H	0.230008	1.453011	-1.673448	1
H	1.559028	0.471311	1.728802	1
H	-0.205832	0.303281	1.987992	1
Es	0.576421	3.170024	1.055335	99
Es	0.655710	2.600234	0.615788	99
Es	0.312934	1.864221	0.515460	99
Es	0.371221	3.121383	0.559321	99
Es	0.466648	1.237483	0.968604	99
Es	-0.307743	-1.884717	-1.567277	99
Es	0.022357	-0.791534	-0.126847	99
Es	0.047789	0.387234	1.733279	99
Es	0.084367	1.345933	-1.355611	99
Es	-0.730452	-1.605012	-1.638224	99
Es	1.118312	-0.285675	-0.413306	99
Es	-0.396758	-1.420441	-0.140369	99
Es	-0.834455	-2.285912	-1.471759	99
Es	0.462971	3.032539	0.799145	99
Es	-1.072586	-1.297881	0.170607	99
Es	-0.522729	-1.682286	-0.975598	99
Es	-0.057713	-1.977353	0.246431	99
Es	0.529773	0.114021	0.607671	99
Es	-0.921120	1.111076	-0.753258	99
Es	-0.202086	1.114966	-0.729146	99
Es	0.028190	1.561702	-0.149054	99
Es	0.096581	0.433469	-0.491404	99
Es	-0.567698	-1.822097	-1.490806	99
Es	1.226230	0.495684	1.573234	99
Es	0.176622	2.619004	0.812300	99
Es	0.450392	-0.162100	-0.122290	99
Es	0.575208	0.540976	1.259954	99
42
Properties=species:S:1:pos:R:3:Z:I:1 energy=-343.8101813059484 field_type=dipole dipole="0.000000 0.000000 0.000000" charge=0
O	-0.567542	-1.821939	-1.491068	8
C	-0.396742	-1.420389	-0.140148	6
C	0.450438	-0.162149	-0.122338	6
C	-0.202112	1.114971	-0.729208	6
C	0.312938	1.864301	0.515472	6
O	0.462958	3.033001	0.799082	8
C	0.575228	0.540961	1.260002	6
H	-1.081292	-2.648489	-1.484688	1
H	0.100128	-2.228749	0.405072	1
H	-1.383982	-1.250099	0.301092	1
H	1.440738	-0.355839	-0.560698	1
H	-1.293962	1.106811	-0.795918	1
H	0.230008	1.453011	-1.673448	1
H	1.559028	0.471311	1.728802	1
H	-0.205832	0.303281	1.987992	1
Es	-0.058414	-1.975151	0.245419	99
Es	0.029429	1.563556	-0.148888	99
Es	1.116711	-0.285174	-0.414864	99
Es	0.528388	0.115406	0.610400	99
Es	0.411036	3.291154	0.628677	99
Es	-0.521772	-1.671654	-0.972105	99
Es	0.462921	3.032648	0.799014	99
Es	-1.072728	-1.298467	0.171649	99
Es	0.083522	1.343718	-1.354056	99
Es	0.312938	1.864219	0.515459	99
Es	0.022886	-0.791491	-0.128019	99
Es	0.643622	2.606459	0.589103	99
Es	0.561627	2.982793	1.048142	99
Es	0.048631	0.390156	1.731849	99
Es	0.465188	1.235899	0.968864	99
Es	-0.202087	1.114966	-0.729147	99
Es	-0.922321	1.109342	-0.754840	99
Es	0.098659	0.431275	-0.491997	99
Es	0.450391	-0.162100	-0.122291	99
Es	-0.309117	-1.880119	-1.578796	99
Es	0.575208	0.540977	1.259954	99
Es	-0.567607	-1.822196	-1.490730	99
Es	-0.396759	-1.420441	-0.140371	99
Es	0.164136	2.629830	0.777984	99
Es	-0.838335	-2.284192	-1.476758	99
Es	1.228588	0.496608	1.575067	99
Es	-0.726357	-1.623081	-1.626537	99
42
Properties=species:S:1:pos:R:3:Z:I:1 energy=-343.8101813059484 field_type=dipole dipole="0.000000 0.000000 0.000000" charge=0
O	-0.567542	-1.821939	-1.491068	8
C	-0.396742	-1.420389	-0.140148	6
C	0.450438	-0.162149	-0.122338	6
C	-0.202112	1.114971	-0.729208	6
C	0.312938	1.864301	0.515472	6
O	0.462958	3.033001	0.799082	8
C	0.575228	0.540961	1.260002	6
H	-1.081292	-2.648489	-1.484688	1
H	0.100128	-2.228749	0.405072	1
H	-1.383982	-1.250099	0.301092	1
H	1.440738	-0.355839	-0.560698	1
H	-1.293962	1.106811	-0.795918	1
H	0.230008	1.453011	-1.673448	1
H	1.559028	0.471311	1.728802	1
H	-0.205832	0.303281	1.987992	1
Es	-0.311853	-1.888647	-1.558712	99
Es	0.312936	1.864219	0.515459	99
Es	-0.396758	-1.420441	-0.140367	99
Es	-0.921008	1.111110	-0.753092	99
Es	0.450391	-0.162100	-0.122291	99
Es	0.574302	3.187539	1.046357	99
Es	0.096517	0.433678	-0.491457	99
Es	-0.834546	-2.285906	-1.471761	99
Es	0.084486	1.346074	-1.355915	99
Es	0.022329	-0.791548	-0.126721	99
Es	0.466564	1.237442	0.968499	99
Es	1.226442	0.495647	1.573244	99
Es	-0.524810	-1.681608	-0.976030	99
Es	0.462925	3.032619	0.799057	99
Es	0.176525	2.619986	0.814600	99
Es	1.118151	-0.285801	-0.413093	99
Es	0.529787	0.114090	0.607668	99
Es	0.047730	0.387135	1.733296	99
Es	-0.724139	-1.601661	-1.646370	99
Es	-0.567710	-1.822106	-1.490757	99
Es	0.028066	1.561564	-0.149103	99
Es	0.575208	0.540976	1.259955	99
Es	0.372764	3.104076	0.564076	99
Es	-0.057682	-1.977525	0.246560	99
Es	-1.072510	-1.297811	0.170495	99
Es	0.656365	2.598973	0.617732	99
Es	-0.202087	1.114965	-0.729146	99
42
Properties=species:S:1:pos:R:3:Z:I:1 energy=-343.8101813059484 field_type=dipole dipole="0.000000 0.000000 0.000000" charge=0
O	-0.567542	-1.821939	-1.491068	8
C	-0.396742	-1.420389	-0.140148	6
C	0.450438	-0.162149	-0.122338	6
C	-0.202112	1.114971	-0.729208	6
C	0.312938	1.864301	0.515472	6
O	0.462958	3.033001	0.799082	8
C	0.575228	0.540961	1.260002	6
H	-1.081292	-2.648489	-1.484688	1
H	0.100128	-2.228749	0.405072	1
H	-1.383982	-1.250099	0.301092	1
H	1.440738	-0.355839	-0.560698	1
H	-1.293962	1.106811	-0.795918	1
H	0.230008	1.453011	-1.673448	1
H	1.559028	0.471311	1.728802	1
H	-0.205832	0.303281	1.987992	1
Es	0.048729	0.390272	1.731694	99
Es	0.575208	0.540977	1.259954	99
Es	0.083434	1.343669	-1.354167	99
Es	0.528296	0.115610	0.610477	99
Es	0.560180	2.972022	1.040171	99
Es	0.163803	2.630446	0.777322	99
Es	-0.396758	-1.420441	-0.140369	99
Es	0.022851	-0.791413	-0.128120	99
Es	-0.058528	-1.975063	0.245400	99
Es	0.462870	3.032650	0.798887	99
Es	0.029325	1.563717	-0.148793	99
Es	-0.725403	-1.622886	-1.628045	99
Es	-0.838285	-2.284174	-1.476595	99
Es	0.312938	1.864219	0.515459	99
Es	-0.922062	1.109224	-0.754846	99
Es	-0.311119	-1.881211	-1.577555	99
Es	0.415201	3.299613	0.641124	99
Es	1.116430	-0.285155	-0.414855	99
Es	-0.202087	1.114966	-0.729146	99
Es	0.641363	2.608128	0.585443	99
Es	0.098752	0.431118	-0.492071	99
Es	-1.072535	-1.298542	0.171612	99
Es	1.228736	0.496534	1.575186	99
Es	0.450391	-0.162100	-0.122291	99
Es	-0.567668	-1.822030	-1.490779	99
Es	-0.520772	-1.671011	-0.972045	99
Es	0.465094	1.235804	0.969128	99
42
Properties=species:S:1:pos:R:3:Z:I:1 energy=-343.8101813059484 field_type=dipole dipole="0.000000 0.000000 0.000000" charge=0
O	-0.567542	-1.821939	-1.491068	8
C	-0.396742	-1.420389	-0.140148	6
C	0.450438	-0.162149	-0.122338	6
C	-0.202112	1.114971	-0.729208	6
C	0.312938	1.864301	0.515472	6
O	0.462958	3.033001	0.799082	8
C	0.575228	0.540961	1.260002	6
H	-1.081292	-2.648489	-1.484688	1
H	0.100128	-2.228749	0.405072	1
H	-1.383982	-1.250099	0.301092	1
H	1.440738	-0.355839	-0.560698	1
H	-1.293962	1.106811	-0.795918	1
H	0.230008	1.453011	-1.673448	1
H	1.559028	0.471311	1.728802	1
H	-0.205832	0.303281	1.987992	1
Es	0.450391	-0.162099	-0.122292	99
Es	0.083356	1.343606	-1.354110	99
Es	0.560450	2.970741	1.038796	99
Es	0.163383	2.630915	0.777966	99
Es	0.640538	2.608009	0.584710	99
Es	0.022958	-0.791456	-0.128134	99
Es	0.416130	3.300534	0.642556	99
Es	-0.567689	-1.822121	-1.490748	99
Es	-0.837549	-2.284731	-1.477616	99
Es	0.048950	0.390491	1.731524	99
Es	0.462900	3.032656	0.798952	99
Es	0.098817	0.431198	-0.492233	99
Es	1.228579	0.496515	1.575262	99
Es	-1.072365	-1.298524	0.171534	99
Es	0.312938	1.864219	0.515459	99
Es	-0.202086	1.114966	-0.729147	99
Es	0.029342	1.563796	-0.148759	99
Es	-0.725589	-1.623080	-1.627106	99
Es	-0.396759	-1.420441	-0.140371	99
Es	-0.310702	-1.879961	-1.577571	99
Es	-0.521791	-1.671444	-0.971980	99
Es	-0.922040	1.109152	-0.754878	99
Es	0.528300	0.115360	0.610604	99
Es	0.575209	0.540978	1.259953	99
Es	1.116193	-0.285126	-0.414740	99
Es	0.465178	1.235891	0.969106	99
Es	-0.058656	-1.975103	0.245445	99
42
Properties=species:S:1:pos:R:3:Z:I:1 energy=-343.8101813059484 field_type=dipole dipole="0.000000 0.000000 0.000000" charge=0
O	-0.567542	-1.821939	-1.491068	8
C	-0.396742	-1.420389	-0.140148	6
C	0.450438	-0.162149	-0.122338	6
C	-0.202112	1.114971	-0.729208	6
C	0.312938	1.864301	0.515472	6
O	0.462958	3.033001	0.799082	8
C	0.575228	0.540961	1.260002	6
H	-1.081292	-2.648489	-1.484688	1
H	0.100128	-2.228749	0.405072	1
H	-1.383982	-1.250099	0.301092	1
H	1.440738	-0.355839	-0.560698	1
H	-1.293962	1.106811	-0.795918	1
H	0.230008	1.453011	-1.673448	1
H	1.559028	0.471311	1.728802	1
H	-0.205832	0.303281	1.987992	1
Es	0.450391	-0.162100	-0.122291	99
Es	-0.202088	1.114965	-0.729147	99
Es	-0.311732	-1.881386	-1.575715	99
Es	0.465084	1.235882	0.969043	99
Es	0.163459	2.629813	0.776835	99
Es	-0.567723	-1.822089	-1.490751	99
Es	-0.838392	-2.284288	-1.478056	99
Es	0.558037	2.969954	1.036833	99
Es	0.029381	1.563840	-0.148722	99
Es	1.116061	-0.285019	-0.414763	99
Es	0.098882	0.430956	-0.492130	99
Es	0.528301	0.115574	0.610787	99
Es	0.575209	0.540977	1.259954	99
Es	-0.521706	-1.671275	-0.971796	99
Es	1.228636	0.496577	1.575263	99
Es	-0.396758	-1.420441	-0.140370	99
Es	0.312937	1.864219	0.515458	99
Es	0.416646	3.301836	0.644348	99
Es	0.642401	2.608580	0.586071	99
Es	0.048946	0.390451	1.731533	99
Es	-0.921932	1.109134	-0.754813	99
Es	-0.058662	-1.975058	0.245433	99
Es	-1.072299	-1.298611	0.171510	99
Es	0.462887	3.032663	0.798927	99
Es	0.022869	-0.791409	-0.128335	99
Es	0.083309	1.343530	-1.354222	99
Es	-0.723759	-1.622334	-1.628704	99
42
Properties=species:S:1:pos:R:3:Z:I:1 energy=-343.8101813059484 field_type=dipole dipole="0.000000 0.000000 0.000000" charge=0
O	-0.567542	-1.821939	-1.491068	8
C	-0.396742	-1.420389	-0.140148	6
C	0.450438	-0.162149	-0.122338	6
C	-0.202112	1.114971	-0.729208	6
C	0.312938	1.864301	0.515472	6
O	0.462958	3.033001	0.799082	8
C	0.575228	0.540961	1.260002	6
H	-1.081292	-2.648489	-1.484688	1
H	0.100128	-2.228749	0.405072	1
H	-1.383982	-1.250099	0.301092	1
H	1.440738	-0.355839	-0.560698	1
H	-1.293962	1.106811	-0.795918	1
H	0.230008	1.453011	-1.673448	1
H	1.559028	0.471311	1.728802	1
H	-0.205832	0.303281	1.987992	1
Es	0.462990	3.032516	0.799201	99
Es	-0.202086	1.114966	-0.729146	99
Es	0.657639	2.599648	0.622292	99
Es	0.022312	-0.791465	-0.126791	99
Es	-0.520861	-1.683922	-0.975743	99
Es	-0.057719	-1.977745	0.246917	99
Es	0.529883	0.114288	0.608106	99
Es	0.466489	1.237454	0.968520	99
Es	0.027743	1.561238	-0.149042	99
Es	1.226656	0.495572	1.573125	99
Es	0.575212	0.540977	1.259958	99
Es	-0.396758	-1.420441	-0.140370	99
Es	-0.920529	1.111146	-0.752629	99
Es	-0.833639	-2.286034	-1.471089	99
Es	-0.726528	-1.599406	-1.645776	99
Es	1.117575	-0.285879	-0.412826	99
Es	-0.567642	-1.822148	-1.490754	99
Es	0.450391	-0.162100	-0.122290	99
Es	-1.071995	-1.297745	0.170213	99
Es	0.096244	0.433770	-0.491814	99
Es	0.179275	2.618648	0.818688	99
Es	0.047720	0.386978	1.733422	99
Es	0.568858	3.211927	1.031025	99
Es	0.374201	3.080424	0.570579	99
Es	-0.314511	-1.888395	-1.560396	99
Es	0.084528	1.346448	-1.356655	99
Es	0.312939	1.864219	0.515457	99
42
Properties=species:S:1:pos:R:3:Z:I:1 energy=-343.8101813059484 field_type=dipole dipole="0.000000 0.000000 0.000000" charge=0
O	-0.567542	-1.821939	-1.491068	8
C	-0.396742	-1.420389	-0.140148	6
C	0.450438	-0.162149	-0.122338	6
C	-0.202112	1.114971	-0.729208	6
C	0.312938	1.864301	0.515472	6
O	0.462958	3.033001	0.799082	8
C	0.575228	0.540961	1.260002	6
H	-1.081292	-2.648489	-1.484688	1
H	0.100128	-2.228749	0.405072	1
H	-1.383982	-1.250099	0.301092	1
H	1.440738	-0.355839	-0.560698	1
H	-1.293962	1.106811	-0.795918	1
H	0.230008	1.453011	-1.673448	1
H	1.559028	0.471311	1.728802	1
H	-0.205832	0.303281	1.987992	1
Es	0.554783	2.960634	1.030447	99
Es	0.528452	0.115648	0.610810	99
Es	0.450391	-0.162100	-0.122291	99
Es	-0.519363	-1.671864	-0.971467	99
Es	-0.396758	-1.420441	-0.140371	99
Es	0.464862	1.235681	0.969116	99
Es	0.048854	0.390505	1.731482	99
Es	0.083372	1.343578	-1.354668	99
Es	-0.724764	-1.621797	-1.628498	99
Es	0.162291	2.632447	0.774126	99
Es	0.462845	3.032652	0.798818	99
Es	0.422910	3.308340	0.655870	99
Es	-0.202087	1.114965	-0.729146	99
Es	-0.921693	1.108990	-0.754659	99
Es	0.312938	1.864219	0.515459	99
Es	0.022895	-0.791388	-0.128164	99
Es	-0.837532	-2.284690	-1.478159	99
Es	-0.314019	-1.880844	-1.576247	99
Es	0.575209	0.540977	1.259954	99
Es	1.228952	0.496645	1.575407	99
Es	0.029154	1.563834	-0.148667	99
Es	1.115876	-0.285152	-0.414804	99
Es	-0.058707	-1.975107	0.245525	99
Es	-1.072224	-1.298525	0.171448	99
Es	0.640661	2.608753	0.583716	99
Es	-0.567631	-1.822152	-1.490760	99
Es	0.098720	0.431133	-0.492100	99
42
Properties=species:S:1:pos:R:3:Z:I:1 energy=-343.8101813059484 field_type=dipole dipole="0.000000 0.000000 0.000000" charge=0
O	-0.567542	-1.821939	-1.491068	8
C	-0.396742	-1.420389	-0.140148	6
C	0.450438	-0.162149	-0.122338	6
C	-0.202112	1.114971	-0.729208	6
C	0.312938	1.864301	0.515472	6
O	0.462958	3.033001	0.799082	8
C	0.575228	0.540961	1.260002	6
H	-1.081292	-2.648489	-1.484688	1
H	0.100128	-2.228749	0.405072	1
H	-1.383982	-1.250099	0.301092	1
H	1.440738	-0.355839	-0.560698	1
H	-1.293962	1.106811	-0.795918	1
H	0.230008	1.453011	-1.673448	1
H	1.559028	0.471311	1.728802	1
H	-0.205832	0.303281	1.987992	1
Es	-0.838337	-2.284297	-1.478659	99
Es	0.528428	0.115595	0.610890	99
Es	1.115755	-0.285114	-0.414721	99
Es	0.029209	1.563827	-0.148563	99
Es	0.575209	0.540978	1.259954	99
Es	-0.202087	1.114966	-0.729146	99
Es	-0.519995	-1.671799	-0.971424	99
Es	-1.072169	-1.298608	0.171433	99
Es	0.022744	-0.791329	-0.128325	99
Es	-0.396759	-1.420441	-0.140371	99
Es	0.098797	0.431192	-0.492227	99
Es	0.553409	2.959194	1.029005	99
Es	0.462884	3.032641	0.798919	99
Es	-0.058585	-1.975096	0.245565	99
Es	0.464991	1.235728	0.969176	99
Es	0.083374	1.343589	-1.354673	99
Es	0.312934	1.864220	0.515460	99
Es	0.640555	2.608427	0.584246	99
Es	0.162217	2.632921	0.773361	99
Es	-0.567670	-1.822089	-1.490821	99
Es	-0.313886	-1.881705	-1.575058	99
Es	0.450391	-0.162100	-0.122291	99
Es	0.048877	0.390619	1.731293	99
Es	-0.921720	1.108921	-0.754679	99
Es	0.424418	3.309640	0.657461	99
Es	1.228818	0.496527	1.575561	99
Es	-0.723417	-1.621467	-1.629184	99
42
Properties=species:S:1:pos:R:3:Z:I:1 energy=-343.8101813059484 field_type=dipole dipole="0.000000 0.000000 0.000000" charge=0
O	-0.567542	-1.821939	-1.491068	8
C	-0.396742	-1.420389	-0.140148	6
C	0.450438	-0.162149	-0.122338	6
C	-0.202112	1.114971	-0.729208	6
C	0.312938	1.864301	0.515472	6
O	0.462958	3.033001	0.799082	8
C	0.575228	0.540961	1.260002	6
H	-1.081292	-2.648489	-1.484688	1
H	0.100128	-2.228749	0.405072	1
H	-1.383982	-1.250099	0.301092	1
H	1.440738	-0.355839	-0.560698	1
H	-1.293962	1.106811	-0.795918	1
H	0.230008	1.453011	-1.673448	1
H	1.559028	0.471311	1.728802	1
H	-0.205832	0.303281	1.987992	1
Es	0.084290	1.346237	-1.356474	99
Es	-0.396759	-1.420442	-0.140372	99
Es	-0.316610	-1.888879	-1.557586	99
Es	-0.202086	1.114966	-0.729145	99
Es	0.569650	3.213090	1.030034	99
Es	1.117737	-0.285872	-0.412667	99
Es	-0.724815	-1.598775	-1.648285	99
Es	0.096267	0.433568	-0.491831	99
Es	0.450391	-0.162098	-0.122290	99
Es	1.226359	0.495531	1.573083	99
Es	-0.920309	1.111316	-0.752631	99
Es	0.178997	2.618667	0.819106	99
Es	0.047877	0.386785	1.733305	99
Es	0.657149	2.599743	0.620983	99
Es	-1.072044	-1.297811	0.170197	99
Es	0.575208	0.540976	1.259956	99
Es	0.462902	3.032657	0.798968	99
Es	0.529867	0.114331	0.607843	99
Es	-0.057774	-1.977747	0.246847	99
Es	0.027974	1.561473	-0.149137	99
Es	-0.567685	-1.822098	-1.490792	99
Es	0.022237	-0.791456	-0.126768	99
Es	0.312936	1.864219	0.515459	99
Es	0.466430	1.237669	0.968716	99
Es	-0.521445	-1.683396	-0.975982	99
Es	0.374230	3.079039	0.572632	99
Es	-0.832590	-2.286753	-1.470988	99
