36
Properties=species:S:1:pos:R:3:Z:I:1 energy=-341.3794150892761 field_type=dipole dipole="0.000000 0.000000 0.000000" charge=0
O	-2.294478	-1.640951	-0.119330	8
C	-1.124958	-1.749261	-0.464200	6
C	-0.086618	-0.871341	0.095380	6
O	0.968342	-0.546171	-0.821500	8
C	0.082472	0.521589	-0.447100	6
C	0.719352	1.519919	0.356010	6
C	1.251552	2.358849	1.029360	6
H	-0.794238	-2.508981	-1.191750	1
H	0.176022	-1.055681	1.129190	1
H	-0.625008	0.868919	-1.191620	1
H	1.727562	3.103109	1.625560	1
Es	0.719231	1.519726	0.355861	99
Es	-0.888442	-2.258271	-0.955463	99
Es	0.404870	1.036978	-0.030420	99
Es	-2.294165	-1.640998	-0.119424	99
Es	-2.330297	-1.410299	0.087789	99
Es	-0.591085	-1.308733	-0.191253	99
Es	-1.124947	-1.749232	-0.464182	99
Es	1.242325	1.952926	0.447969	99
Es	-1.901334	-1.518445	-0.437194	99
Es	0.679611	-0.066586	-0.740864	99
Es	0.082702	0.521396	-0.447080	99
Es	1.560362	2.842037	1.416437	99
Es	1.008208	1.705195	0.964427	99
Es	-0.379414	0.758684	-0.945311	99
Es	0.689898	2.142050	0.654809	99
Es	0.609072	-0.774293	-0.461871	99
Es	0.968121	-0.546093	-0.821358	99
Es	-2.485275	-1.847180	-0.254981	99
Es	-0.086411	-0.871249	0.095153	99
Es	1.251658	2.359009	1.029489	99
Es	0.087311	-1.010210	0.777840	99
Es	1.233817	-0.509863	-0.672172	99
Es	-1.819050	-1.843909	-0.059862	99
Es	-0.192209	-0.098709	-0.046272	99
Es	0.879058	-0.653352	-1.098557	99
36
Properties=species:S:1:pos:R:3:Z:I:1 energy=-341.3794150892761 field_type=dipole dipole="0.000000 0.000000 0.000000" charge=0
O	-2.294478	-1.640951	-0.119330	8
C	-1.124958	-1.749261	-0.464200	6
C	-0.086618	-0.871341	0.095380	6
O	0.968342	-0.546171	-0.821500	8
C	0.082472	0.521589	-0.447100	6
C	0.719352	1.519919	0.356010	6
C	1.251552	2.358849	1.029360	6
H	-0.794238	-2.508981	-1.191750	1
H	0.176022	-1.055681	1.129190	1
H	-0.625008	0.868919	-1.191620	1
H	1.727562	3.103109	1.625560	1
Es	0.082705	0.521394	-0.447080	99
Es	0.719227	1.519727	0.355852	99
Es	0.087288	-1.009267	0.774159	99
Es	-0.592435	-1.309551	-0.191061	99
Es	1.165038	2.043284	0.405140	99
Es	-2.325543	-1.406596	0.090495	99
Es	-0.086399	-0.871245	0.095146	99
Es	-1.900548	-1.523847	-0.431961	99
Es	0.608366	-0.776187	-0.464020	99
Es	0.682078	-0.064416	-0.737224	99
Es	0.405409	1.036208	-0.027826	99
Es	1.560602	2.845210	1.414113	99
Es	0.655895	2.069596	0.766576	99
Es	1.118727	1.687376	0.895651	99
Es	0.877526	-0.649152	-1.098940	99
Es	1.251662	2.359016	1.029488	99
Es	-0.193110	-0.097691	-0.045282	99
Es	-1.124947	-1.749233	-0.464182	99
Es	-1.820971	-1.834644	-0.066157	99
Es	-0.377385	0.756825	-0.943653	99
Es	-2.488475	-1.855565	-0.256270	99
Es	0.968081	-0.546089	-0.821354	99
Es	-0.888697	-2.258885	-0.955544	99
Es	-2.294201	-1.640973	-0.119405	99
Es	1.233724	-0.514717	-0.673148	99
36
Properties=species:S:1:pos:R:3:Z:I:1 energy=-341.3794150892761 field_type=dipole dipole="0.000000 0.000000 0.000000" charge=0
O	-2.294478	-1.640951	-0.119330	8
C	-1.124958	-1.749261	-0.464200	6
C	-0.086618	-0.871341	0.095380	6
O	0.968342	-0.546171	-0.821500	8
C	0.082472	0.521589	-0.447100	6
C	0.719352	1.519919	0.356010	6
C	1.251552	2.358849	1.029360	6
H	-0.794238	-2.508981	-1.191750	1
H	0.176022	-1.055681	1.129190	1
H	-0.625008	0.868919	-1.191620	1
H	1.727562	3.103109	1.625560	1
Es	-0.375576	0.755555	-0.942246	99
Es	1.560732	2.846865	1.412636	99
Es	-2.294274	-1.640960	-0.119393	99
Es	-1.124951	-1.749234	-0.464179	99
Es	0.608477	-0.777752	-0.465228	99
Es	1.182668	2.025279	0.411237	99
Es	0.719231	1.519704	0.355866	99
Es	-0.086410	-0.871247	0.095149	99
Es	1.100618	1.695474	0.901554	99
Es	0.968133	-0.546131	-0.821382	99
Es	1.251660	2.359019	1.029488	99
Es	-1.823921	-1.826204	-0.068304	99
Es	0.656380	2.079612	0.754390	99
Es	0.878220	-0.647610	-1.099011	99
Es	0.682631	-0.062683	-0.735822	99
Es	1.232184	-0.516699	-0.673037	99
Es	0.087165	-1.008896	0.770745	99
Es	0.405197	1.035964	-0.026133	99
Es	-2.486773	-1.863450	-0.259231	99
Es	-0.193980	-0.096591	-0.044096	99
Es	-2.325866	-1.403981	0.090937	99
Es	-0.888989	-2.259296	-0.955584	99
Es	-1.898507	-1.527436	-0.427007	99
Es	0.082704	0.521394	-0.447079	99
Es	-0.593136	-1.310116	-0.190757	99
36
Properties=species:S:1:pos:R:3:Z:I:1 energy=-341.3794150892761 field_type=dipole dipole="0.000000 0.000000 0.000000" charge=0
O	-2.294478	-1.640951	-0.119330	8
C	-1.124958	-1.749261	-0.464200	6
C	-0.086618	-0.871341	0.095380	6
O	0.968342	-0.546171	-0.821500	8
C	0.082472	0.521589	-0.447100	6
C	0.719352	1.519919	0.356010	6
C	1.251552	2.358849	1.029360	6
H	-0.794238	-2.508981	-1.191750	1
H	0.176022	-1.055681	1.129190	1
H	-0.625008	0.868919	-1.191620	1
H	1.727562	3.103109	1.625560	1
Es	0.405364	1.036094	-0.025634	99
Es	-2.321138	-1.401537	0.091014	99
Es	-2.489118	-1.866902	-0.258127	99
Es	-0.593496	-1.310723	-0.190153	99
Es	-0.374056	0.754664	-0.941112	99
Es	0.719223	1.519713	0.355853	99
Es	-0.194738	-0.095594	-0.043116	99
Es	0.968096	-0.546085	-0.821329	99
Es	1.251662	2.359023	1.029482	99
Es	1.157323	2.047397	0.406180	99
Es	-0.889172	-2.259687	-0.955478	99
Es	1.128742	1.696237	0.875610	99
Es	-2.294154	-1.641000	-0.119434	99
Es	0.607774	-0.778997	-0.467122	99
Es	0.652989	2.056647	0.785966	99
Es	0.879513	-0.645956	-1.099721	99
Es	0.682957	-0.062092	-0.734354	99
Es	-1.124946	-1.749231	-0.464185	99
Es	-1.825931	-1.821673	-0.071654	99
Es	-0.086417	-0.871249	0.095154	99
Es	1.231163	-0.518176	-0.671641	99
Es	-1.898732	-1.531016	-0.424888	99
Es	1.561054	2.847809	1.411520	99
Es	0.086946	-1.008477	0.767762	99
Es	0.082706	0.521392	-0.447082	99
36
Properties=species:S:1:pos:R:3:Z:I:1 energy=-341.3794150892761 field_type=dipole dipole="0.000000 0.000000 0.000000" charge=0
O	-2.294478	-1.640951	-0.119330	8
C	-1.124958	-1.749261	-0.464200	6
C	-0.086618	-0.871341	0.095380	6
O	0.968342	-0.546171	-0.821500	8
C	0.082472	0.521589	-0.447100	6
C	0.719352	1.519919	0.356010	6
C	1.251552	2.358849	1.029360	6
H	-0.794238	-2.508981	-1.191750	1
H	0.176022	-1.055681	1.129190	1
H	-0.625008	0.868919	-1.191620	1
H	1.727562	3.103109	1.625560	1
Es	-1.897974	-1.532678	-0.423398	99
Es	1.560944	2.848994	1.409971	99
Es	-0.086409	-0.871248	0.095150	99
Es	0.968086	-0.546087	-0.821336	99
Es	0.972193	2.145121	0.442778	99
Es	-1.828624	-1.817726	-0.074107	99
Es	0.082705	0.521391	-0.447079	99
Es	0.719222	1.519721	0.355857	99
Es	1.251661	2.359027	1.029487	99
Es	-0.372708	0.754120	-0.940232	99
Es	0.880414	-0.644806	-1.100665	99
Es	0.684641	-0.060925	-0.733359	99
Es	-0.593858	-1.310790	-0.190052	99
Es	-0.889328	-2.259694	-0.955621	99
Es	0.404403	1.037274	-0.026407	99
Es	-2.489852	-1.870255	-0.257456	99
Es	-2.294221	-1.640977	-0.119393	99
Es	-0.195455	-0.095681	-0.042352	99
Es	0.086883	-1.008406	0.766134	99
Es	1.267167	1.726321	0.711072	99
Es	0.700846	1.926994	0.916093	99
Es	1.229585	-0.519928	-0.670651	99
Es	-2.318138	-1.400891	0.091485	99
Es	-1.124946	-1.749230	-0.464186	99
Es	0.606378	-0.779062	-0.468220	99
36
Properties=species:S:1:pos:R:3:Z:I:1 energy=-341.3794150892761 field_type=dipole dipole="0.000000 0.000000 0.000000" charge=0
O	-2.294478	-1.640951	-0.119330	8
C	-1.124958	-1.749261	-0.464200	6
C	-0.086618	-0.871341	0.095380	6
O	0.968342	-0.546171	-0.821500	8
C	0.082472	0.521589	-0.447100	6
C	0.719352	1.519919	0.356010	6
C	1.251552	2.358849	1.029360	6
H	-0.794238	-2.508981	-1.191750	1
H	0.176022	-1.055681	1.129190	1
H	-0.625008	0.868919	-1.191620	1
H	1.727562	3.103109	1.625560	1
Es	-2.294114	-1.640949	-0.119415	99
Es	1.251665	2.359033	1.029483	99
Es	-1.829039	-1.814307	-0.075207	99
Es	0.404952	1.036299	-0.024637	99
Es	0.082703	0.521395	-0.447076	99
Es	0.719226	1.519707	0.355864	99
Es	0.606315	-0.780523	-0.469737	99
Es	1.185005	2.021558	0.413733	99
Es	-1.898883	-1.535243	-0.420408	99
Es	0.880402	-0.643359	-1.099261	99
Es	-1.124945	-1.749231	-0.464186	99
Es	-2.487940	-1.873349	-0.259218	99
Es	-0.086410	-0.871247	0.095149	99
Es	-0.195907	-0.094468	-0.040952	99
Es	0.684776	-0.059517	-0.732281	99
Es	1.100061	1.705848	0.888402	99
Es	1.561408	2.848697	1.410432	99
Es	0.086591	-1.008304	0.762957	99
Es	0.653963	2.072910	0.765506	99
Es	-2.318687	-1.398409	0.090964	99
Es	1.229398	-0.521937	-0.671034	99
Es	-0.889432	-2.260182	-0.955267	99
Es	0.968032	-0.546077	-0.821318	99
Es	-0.593899	-1.311333	-0.189512	99
Es	-0.371629	0.753568	-0.939468	99
36
Properties=species:S:1:pos:R:3:Z:I:1 energy=-341.3794150892761 field_type=dipole dipole="0.000000 0.000000 0.000000" charge=0
O	-2.294478	-1.640951	-0.119330	8
C	-1.124958	-1.749261	-0.464200	6
C	-0.086618	-0.871341	0.095380	6
O	0.968342	-0.546171	-0.821500	8
C	0.082472	0.521589	-0.447100	6
C	0.719352	1.519919	0.356010	6
C	1.251552	2.358849	1.029360	6
H	-0.794238	-2.508981	-1.191750	1
H	0.176022	-1.055681	1.129190	1
H	-0.625008	0.868919	-1.191620	1
H	1.727562	3.103109	1.625560	1
Es	-0.196590	-0.095055	-0.041121	99
Es	-0.086407	-0.871248	0.095149	99
Es	0.968097	-0.546095	-0.821352	99
Es	0.082706	0.521395	-0.447080	99
Es	0.880348	-0.642546	-1.100641	99
Es	1.228406	-0.522322	-0.671044	99
Es	0.086525	-1.008099	0.762751	99
Es	1.251658	2.359030	1.029483	99
Es	1.264944	1.724469	0.715429	99
Es	-2.315018	-1.398904	0.092853	99
Es	0.694084	1.936691	0.908994	99
Es	-0.594150	-1.311227	-0.189591	99
Es	-2.489056	-1.874964	-0.258000	99
Es	-0.370491	0.753269	-0.938830	99
Es	-1.898592	-1.535624	-0.419912	99
Es	0.719222	1.519714	0.355860	99
Es	-1.124947	-1.749228	-0.464190	99
Es	-0.889605	-2.259965	-0.955589	99
Es	1.561332	2.849565	1.409111	99
Es	0.404083	1.037607	-0.025995	99
Es	0.981079	2.137198	0.445778	99
Es	-2.294166	-1.640977	-0.119423	99
Es	0.605344	-0.780403	-0.469190	99
Es	-1.831599	-1.812254	-0.078399	99
Es	0.686407	-0.059448	-0.731541	99
36
Properties=species:S:1:pos:R:3:Z:I:1 energy=-341.3794150892761 field_type=dipole dipole="0.000000 0.000000 0.000000" charge=0
O	-2.294478	-1.640951	-0.119330	8
C	-1.124958	-1.749261	-0.464200	6
C	-0.086618	-0.871341	0.095380	6
O	0.968342	-0.546171	-0.821500	8
C	0.082472	0.521589	-0.447100	6
C	0.719352	1.519919	0.356010	6
C	1.251552	2.358849	1.029360	6
H	-0.794238	-2.508981	-1.191750	1
H	0.176022	-1.055681	1.129190	1
H	-0.625008	0.868919	-1.191620	1
H	1.727562	3.103109	1.625560	1
Es	0.880347	-0.641410	-1.099015	99
Es	0.086178	-1.008033	0.759579	99
Es	-0.196494	-0.093907	-0.039386	99
Es	0.404602	1.036598	-0.024280	99
Es	-0.086412	-0.871245	0.095150	99
Es	-0.889611	-2.260658	-0.954960	99
Es	-1.901008	-1.539052	-0.417336	99
Es	0.082699	0.521401	-0.447074	99
Es	1.228707	-0.523666	-0.671336	99
Es	0.605674	-0.781917	-0.470717	99
Es	0.654384	2.074042	0.764097	99
Es	-1.830573	-1.810425	-0.079300	99
Es	1.561705	2.849149	1.409714	99
Es	1.251664	2.359025	1.029487	99
Es	0.685585	-0.058410	-0.730703	99
Es	-0.370115	0.752882	-0.938384	99
Es	-1.124944	-1.749235	-0.464182	99
Es	0.968111	-0.546045	-0.821258	99
Es	-2.488676	-1.876232	-0.258964	99
Es	-2.294188	-1.640983	-0.119401	99
Es	-0.594004	-1.311803	-0.189048	99
Es	1.093717	1.710540	0.887763	99
Es	-2.313963	-1.395372	0.091307	99
Es	1.191005	2.015632	0.415892	99
Es	0.719225	1.519704	0.355867	99
36
Properties=species:S:1:pos:R:3:Z:I:1 energy=-341.3794150892761 field_type=dipole dipole="0.000000 0.000000 0.000000" charge=0
O	-2.294478	-1.640951	-0.119330	8
C	-1.124958	-1.749261	-0.464200	6
C	-0.086618	-0.871341	0.095380	6
O	0.968342	-0.546171	-0.821500	8
C	0.082472	0.521589	-0.447100	6
C	0.719352	1.519919	0.356010	6
C	1.251552	2.358849	1.029360	6
H	-0.794238	-2.508981	-1.191750	1
H	0.176022	-1.055681	1.129190	1
H	-0.625008	0.868919	-1.191620	1
H	1.727562	3.103109	1.625560	1
Es	0.404448	1.036842	-0.024379	99
Es	0.880564	-0.640638	-1.098947	99
Es	0.653113	2.065502	0.775931	99
Es	0.085981	-1.007927	0.758029	99
Es	-0.369358	0.752603	-0.937903	99
Es	0.719226	1.519709	0.355860	99
Es	1.228020	-0.524918	-0.670962	99
Es	-0.594065	-1.311953	-0.188857	99
Es	0.082702	0.521395	-0.447081	99
Es	1.105266	1.709439	0.878831	99
Es	-2.294183	-1.640985	-0.119416	99
Es	0.968114	-0.546099	-0.821365	99
Es	1.561915	2.849243	1.409447	99
Es	0.605075	-0.782242	-0.471544	99
Es	-1.832453	-1.809425	-0.079101	99
Es	1.251666	2.359022	1.029489	99
Es	-2.489337	-1.876696	-0.259056	99
Es	-1.124944	-1.749235	-0.464182	99
Es	-0.086409	-0.871250	0.095150	99
Es	-2.312484	-1.393539	0.089942	99
Es	-0.196782	-0.093539	-0.038688	99
Es	-1.899853	-1.541500	-0.416092	99
Es	1.180584	2.025162	0.413358	99
Es	0.686505	-0.057727	-0.729961	99
Es	-0.889698	-2.260667	-0.954990	99
36
Properties=species:S:1:pos:R:3:Z:I:1 energy=-341.3794150892761 field_type=dipole dipole="0.000000 0.000000 0.000000" charge=0
O	-2.294478	-1.640951	-0.119330	8
C	-1.124958	-1.749261	-0.464200	6
C	-0.086618	-0.871341	0.095380	6
O	0.968342	-0.546171	-0.821500	8
C	0.082472	0.521589	-0.447100	6
C	0.719352	1.519919	0.356010	6
C	1.251552	2.358849	1.029360	6
H	-0.794238	-2.508981	-1.191750	1
H	0.176022	-1.055681	1.129190	1
H	-0.625008	0.868919	-1.191620	1
H	1.727562	3.103109	1.625560	1
Es	0.085878	-1.007897	0.757152	99
Es	-2.310425	-1.392208	0.090117	99
Es	1.228149	-0.525247	-0.671465	99
Es	0.082704	0.521397	-0.447077	99
Es	0.604605	-0.783551	-0.471995	99
Es	-1.901757	-1.543018	-0.414913	99
Es	1.561931	2.849344	1.409342	99
Es	0.686575	-0.057477	-0.729148	99
Es	-0.889733	-2.260886	-0.954767	99
Es	-2.489376	-1.878013	-0.258647	99
Es	0.653635	2.070177	0.769813	99
Es	0.719225	1.519703	0.355866	99
Es	0.404360	1.036795	-0.024063	99
Es	-2.294155	-1.640988	-0.119411	99
Es	1.096253	1.712842	0.882373	99
Es	-0.196835	-0.093506	-0.038359	99
Es	-0.594091	-1.311985	-0.188815	99
Es	-0.086411	-0.871248	0.095150	99
Es	1.251664	2.359026	1.029487	99
Es	-1.832506	-1.807834	-0.081103	99
Es	1.189222	2.017107	0.415754	99
Es	-0.368946	0.752509	-0.937716	99
Es	-1.124948	-1.749227	-0.464190	99
Es	0.880483	-0.639151	-1.098514	99
Es	0.968113	-0.546086	-0.821360	99
36
Properties=species:S:1:pos:R:3:Z:I:1 energy=-341.3794150892761 field_type=dipole dipole="0.000000 0.000000 0.000000" charge=0
O	-2.294478	-1.640951	-0.119330	8
C	-1.124958	-1.749261	-0.464200	6
C	-0.086618	-0.871341	0.095380	6
O	0.968342	-0.546171	-0.821500	8
C	0.082472	0.521589	-0.447100	6
C	0.719352	1.519919	0.356010	6
C	1.251552	2.358849	1.029360	6
H	-0.794238	-2.508981	-1.191750	1
H	0.176022	-1.055681	1.129190	1
H	-0.625008	0.868919	-1.191620	1
H	1.727562	3.103109	1.625560	1
Es	1.273579	1.732887	0.696754	99
Es	0.403392	1.038162	-0.025641	99
Es	-0.594434	-1.311540	-0.189231	99
Es	1.251660	2.359034	1.029478	99
Es	1.227563	-0.525655	-0.672434	99
Es	-0.889916	-2.260170	-0.955579	99
Es	-0.086414	-0.871246	0.095151	99
Es	-2.294235	-1.640980	-0.119392	99
Es	-1.124946	-1.749228	-0.464189	99
Es	-0.368008	0.752351	-0.937269	99
Es	-1.836248	-1.806068	-0.082273	99
Es	0.603638	-0.782785	-0.470997	99
Es	0.688550	-0.057428	-0.728741	99
Es	0.700304	1.928403	0.915195	99
Es	0.082694	0.521408	-0.447078	99
Es	0.879699	-0.638654	-1.099623	99
Es	-2.310216	-1.394576	0.092210	99
Es	0.086139	-1.007951	0.758642	99
Es	0.719208	1.519717	0.355863	99
Es	-1.898928	-1.541486	-0.414869	99
Es	-0.197556	-0.094531	-0.039419	99
Es	1.561800	2.849932	1.408448	99
Es	0.968083	-0.546006	-0.821210	99
Es	0.966558	2.136885	0.458348	99
Es	-2.488351	-1.879897	-0.258632	99
36
Properties=species:S:1:pos:R:3:Z:I:1 energy=-341.3794150892761 field_type=dipole dipole="0.000000 0.000000 0.000000" charge=0
O	-2.294478	-1.640951	-0.119330	8
C	-1.124958	-1.749261	-0.464200	6
C	-0.086618	-0.871341	0.095380	6
O	0.968342	-0.546171	-0.821500	8
C	0.082472	0.521589	-0.447100	6
C	0.719352	1.519919	0.356010	6
C	1.251552	2.358849	1.029360	6
H	-0.794238	-2.508981	-1.191750	1
H	0.176022	-1.055681	1.129190	1
H	-0.625008	0.868919	-1.191620	1
H	1.727562	3.103109	1.625560	1
Es	0.968095	-0.546092	-0.821348	99
Es	0.082701	0.521401	-0.447076	99
Es	1.561713	2.850094	1.408326	99
Es	-0.889963	-2.260417	-0.955389	99
Es	0.687974	-0.057255	-0.729636	99
Es	-2.294215	-1.640979	-0.119407	99
Es	-2.308944	-1.394827	0.092336	99
Es	0.719218	1.519710	0.355861	99
Es	-1.836429	-1.805354	-0.083267	99
Es	0.602905	-0.782833	-0.471320	99
Es	-1.899311	-1.541528	-0.414228	99
Es	0.959308	2.137878	0.462991	99
Es	1.251664	2.359031	1.029480	99
Es	-2.489002	-1.880126	-0.258671	99
Es	1.226551	-0.525119	-0.670417	99
Es	0.881761	-0.639342	-1.099769	99
Es	-0.594355	-1.311666	-0.189223	99
Es	-0.197605	-0.094252	-0.039014	99
Es	0.403210	1.038157	-0.025381	99
Es	0.704466	1.922535	0.919712	99
Es	-0.086399	-0.871246	0.095152	99
Es	-0.367768	0.752326	-0.937224	99
Es	-1.124945	-1.749231	-0.464186	99
Es	0.085971	-1.007937	0.757729	99
Es	1.277013	1.737650	0.687480	99
36
Properties=species:S:1:pos:R:3:Z:I:1 energy=-341.3794150892761 field_type=dipole dipole="0.000000 0.000000 0.000000" charge=0
O	-2.294478	-1.640951	-0.119330	8
C	-1.124958	-1.749261	-0.464200	6
C	-0.086618	-0.871341	0.095380	6
O	0.968342	-0.546171	-0.821500	8
C	0.082472	0.521589	-0.447100	6
C	0.719352	1.519919	0.356010	6
C	1.251552	2.358849	1.029360	6
H	-0.794238	-2.508981	-1.191750	1
H	0.176022	-1.055681	1.129190	1
H	-0.625008	0.868919	-1.191620	1
H	1.727562	3.103109	1.625560	1
Es	0.879941	-0.636877	-1.097445	99
Es	-2.308171	-1.390189	0.089908	99
Es	0.085590	-1.007786	0.754311	99
Es	1.098148	1.714202	0.878695	99
Es	1.251669	2.359028	1.029483	99
Es	0.082703	0.521397	-0.447076	99
Es	1.187570	2.017895	0.416306	99
Es	-1.901040	-1.545946	-0.411807	99
Es	-2.488767	-1.879987	-0.259932	99
Es	0.404075	1.037113	-0.024060	99
Es	-0.889936	-2.261108	-0.954654	99
Es	0.968103	-0.546094	-0.821345	99
Es	0.719225	1.519704	0.355864	99
Es	0.603645	-0.784734	-0.473472	99
Es	-0.594174	-1.312157	-0.188632	99
Es	1.562216	2.849453	1.409103	99
Es	-1.835777	-1.804936	-0.082902	99
Es	0.687346	-0.056796	-0.727764	99
Es	-1.124945	-1.749230	-0.464187	99
Es	-2.294205	-1.640983	-0.119413	99
Es	1.228401	-0.527005	-0.672004	99
Es	-0.197451	-0.093133	-0.036784	99
Es	-0.367544	0.752043	-0.936882	99
Es	0.653416	2.067954	0.773044	99
Es	-0.086422	-0.871249	0.095155	99
36
Properties=species:S:1:pos:R:3:Z:I:1 energy=-341.3794150892761 field_type=dipole dipole="0.000000 0.000000 0.000000" charge=0
O	-2.294478	-1.640951	-0.119330	8
C	-1.124958	-1.749261	-0.464200	6
C	-0.086618	-0.871341	0.095380	6
O	0.968342	-0.546171	-0.821500	8
C	0.082472	0.521589	-0.447100	6
C	0.719352	1.519919	0.356010	6
C	1.251552	2.358849	1.029360	6
H	-0.794238	-2.508981	-1.191750	1
H	0.176022	-1.055681	1.129190	1
H	-0.625008	0.868919	-1.191620	1
H	1.727562	3.103109	1.625560	1
Es	1.284336	1.747791	0.667979	99
Es	-0.890069	-2.260635	-0.955193	99
Es	0.082704	0.521397	-0.447077	99
Es	0.719224	1.519709	0.355859	99
Es	-0.594361	-1.311810	-0.189076	99
Es	-1.124945	-1.749230	-0.464187	99
Es	0.716441	1.907793	0.929579	99
Es	-0.367262	0.752144	-0.936885	99
Es	0.602125	-0.784219	-0.472883	99
Es	0.402768	1.038407	-0.025220	99
Es	-1.837546	-1.803698	-0.083712	99
Es	1.226963	-0.527727	-0.672264	99
Es	0.968135	-0.546076	-0.821338	99
Es	-0.086415	-0.871249	0.095150	99
Es	-2.488488	-1.881282	-0.259426	99
Es	0.085896	-1.007971	0.756293	99
Es	1.251663	2.359030	1.029488	99
Es	0.879975	-0.636362	-1.098475	99
Es	-0.197581	-0.094046	-0.038250	99
Es	0.940384	2.142352	0.472444	99
Es	1.561811	2.850086	1.408380	99
Es	0.689656	-0.056193	-0.727280	99
Es	-1.899440	-1.543590	-0.412356	99
Es	-2.294181	-1.640992	-0.119394	99
Es	-2.308175	-1.393051	0.091356	99
36
Properties=species:S:1:pos:R:3:Z:I:1 energy=-341.3794150892761 field_type=dipole dipole="0.000000 0.000000 0.000000" charge=0
O	-2.294478	-1.640951	-0.119330	8
C	-1.124958	-1.749261	-0.464200	6
C	-0.086618	-0.871341	0.095380	6
O	0.968342	-0.546171	-0.821500	8
C	0.082472	0.521589	-0.447100	6
C	0.719352	1.519919	0.356010	6
C	1.251552	2.358849	1.029360	6
H	-0.794238	-2.508981	-1.191750	1
H	0.176022	-1.055681	1.129190	1
H	-0.625008	0.868919	-1.191620	1
H	1.727562	3.103109	1.625560	1
Es	-2.294221	-1.640974	-0.119411	99
Es	1.157206	1.704141	0.838248	99
Es	-0.365872	0.751528	-0.935470	99
Es	-1.124945	-1.749229	-0.464188	99
Es	0.968120	-0.546083	-0.821346	99
Es	0.719228	1.519708	0.355859	99
Es	-0.890037	-2.260914	-0.955010	99
Es	-0.594527	-1.312136	-0.188278	99
Es	0.687853	-0.057591	-0.727395	99
Es	-2.489209	-1.880164	-0.259827	99
Es	0.654572	2.029660	0.820603	99
Es	-1.900752	-1.547044	-0.410925	99
Es	0.084948	-1.007369	0.750818	99
Es	0.879495	-0.636378	-1.098556	99
Es	1.251663	2.359031	1.029482	99
Es	-2.306009	-1.389648	0.090853	99
Es	1.126770	2.065972	0.410418	99
Es	1.562826	2.849348	1.408708	99
Es	-1.837705	-1.804369	-0.084540	99
Es	-0.086411	-0.871242	0.095150	99
Es	-0.198680	-0.092910	-0.034702	99
Es	0.603856	-0.784109	-0.474085	99
Es	1.228937	-0.527636	-0.671150	99
Es	0.082702	0.521398	-0.447074	99
Es	0.403806	1.037592	-0.024672	99
36
Properties=species:S:1:pos:R:3:Z:I:1 energy=-341.3794150892761 field_type=dipole dipole="0.000000 0.000000 0.000000" charge=0
O	-2.294478	-1.640951	-0.119330	8
C	-1.124958	-1.749261	-0.464200	6
C	-0.086618	-0.871341	0.095380	6
O	0.968342	-0.546171	-0.821500	8
C	0.082472	0.521589	-0.447100	6
C	0.719352	1.519919	0.356010	6
C	1.251552	2.358849	1.029360	6
H	-0.794238	-2.508981	-1.191750	1
H	0.176022	-1.055681	1.129190	1
H	-0.625008	0.868919	-1.191620	1
H	1.727562	3.103109	1.625560	1
Es	1.251665	2.359029	1.029486	99
Es	1.224590	-0.528000	-0.670860	99
Es	0.719219	1.519709	0.355861	99
Es	0.690988	-0.055529	-0.727025	99
Es	0.965472	2.134293	0.462731	99
Es	0.082699	0.521402	-0.447073	99
Es	-2.489676	-1.881427	-0.258827	99
Es	1.274931	1.734716	0.693114	99
Es	-1.124946	-1.749228	-0.464190	99
Es	-0.197933	-0.094344	-0.037759	99
Es	-0.594477	-1.311813	-0.188993	99
Es	0.085744	-1.007830	0.755279	99
Es	-1.840144	-1.802881	-0.086053	99
Es	-2.304753	-1.393003	0.092686	99
Es	-0.890169	-2.260452	-0.955424	99
Es	0.601086	-0.784412	-0.473368	99
Es	0.881933	-0.636127	-1.099696	99
Es	-0.086416	-0.871247	0.095151	99
Es	-0.366531	0.751847	-0.936314	99
Es	-2.294182	-1.640980	-0.119422	99
Es	0.700178	1.929159	0.914361	99
Es	0.402962	1.038447	-0.025363	99
Es	1.562210	2.849991	1.408197	99
Es	-1.898933	-1.544636	-0.411628	99
Es	0.968098	-0.546105	-0.821359	99
