47
Properties=species:S:1:pos:R:3:Z:I:1 energy=-309.1436555943617 field_type=dipole dipole="0.000000 0.000000 0.000000" charge=0
O	-3.028435	-2.113556	-0.481853	8
C	-1.640345	-1.966106	-0.215253	6
C	-1.270805	-0.495196	-0.338343	6
C	0.214025	-0.262426	-0.068463	6
C	0.575985	1.218464	-0.198363	6
C	2.038336	1.446794	0.056117	6
C	2.516695	2.224314	1.035467	6
H	-3.236845	-3.059506	-0.394823	1
H	-1.081485	-2.571926	-0.936093	1
H	-1.438395	-2.337396	0.794857	1
H	-1.880135	0.091564	0.359867	1
H	-1.534984	-0.137216	-1.340893	1
H	0.811535	-0.854456	-0.774283	1
H	0.464215	-0.618626	0.939577	1
H	-0.034595	1.809204	0.495197	1
H	0.340946	1.570434	-1.209703	1
H	2.738915	0.952514	-0.613903	1
H	1.859035	2.745303	1.724477	1
H	3.586325	2.357823	1.166417	1
Es	-3.122060	-2.629403	-0.430424	99
Es	0.422901	1.454112	-0.887612	99
Es	3.242326	2.319403	1.131459	99
Es	-1.640569	-1.966116	-0.215298	99
Es	-1.491395	-2.223411	0.484448	99
Es	-2.502344	-2.082697	-0.376441	99
Es	-1.270771	-0.495233	-0.338331	99
Es	1.312905	1.333197	-0.067314	99
Es	2.290310	1.585543	0.760269	99
Es	-1.452143	-1.234526	-0.275538	99
Es	2.506815	1.103356	-0.404732	99
Es	-3.028201	-2.113830	-0.481806	99
Es	-1.442957	-0.255488	-1.025751	99
Es	0.162264	1.620237	0.279958	99
Es	0.382528	-0.504818	0.622801	99
Es	0.624116	-0.667172	-0.556120	99
Es	0.404491	0.482325	-0.133244	99
Es	2.072727	2.580341	1.506136	99
Es	-1.244667	-2.385504	-0.711282	99
Es	-3.175085	-1.971587	-0.254383	99
Es	-3.069009	-2.040011	-0.778381	99
Es	-0.528427	-0.382029	-0.203805	99
Es	2.516735	2.224377	1.035547	99
Es	0.576029	1.218436	-0.198357	99
Es	0.214000	-0.262396	-0.068479	99
Es	-1.680601	-0.097670	0.145025	99
Es	2.278677	2.101113	0.358665	99
Es	2.038280	1.446725	0.056031	99
47
Properties=species:S:1:pos:R:3:Z:I:1 energy=-309.1436555943617 field_type=dipole dipole="0.000000 0.000000 0.000000" charge=0
O	-3.028435	-2.113556	-0.481853	8
C	-1.640345	-1.966106	-0.215253	6
C	-1.270805	-0.495196	-0.338343	6
C	0.214025	-0.262426	-0.068463	6
C	0.575985	1.218464	-0.198363	6
C	2.038336	1.446794	0.056117	6
C	2.516695	2.224314	1.035467	6
H	-3.236845	-3.059506	-0.394823	1
H	-1.081485	-2.571926	-0.936093	1
H	-1.438395	-2.337396	0.794857	1
H	-1.880135	0.091564	0.359867	1
H	-1.534984	-0.137216	-1.340893	1
H	0.811535	-0.854456	-0.774283	1
H	0.464215	-0.618626	0.939577	1
H	-0.034595	1.809204	0.495197	1
H	0.340946	1.570434	-1.209703	1
H	2.738915	0.952514	-0.613903	1
H	1.859035	2.745303	1.724477	1
H	3.586325	2.357823	1.166417	1
Es	-1.270772	-0.495232	-0.338329	99
Es	-1.640575	-1.966117	-0.215296	99
Es	0.162618	1.620281	0.280046	99
Es	2.073129	2.580627	1.505954	99
Es	0.214000	-0.262396	-0.068478	99
Es	0.576032	1.218435	-0.198357	99
Es	-1.452068	-1.234663	-0.275313	99
Es	-3.179244	-1.971313	-0.255378	99
Es	-3.063928	-2.039555	-0.776842	99
Es	0.422974	1.454396	-0.887633	99
Es	-3.028221	-2.113815	-0.481774	99
Es	2.516737	2.224379	1.035551	99
Es	-1.244485	-2.385719	-0.711282	99
Es	2.038277	1.446709	0.056037	99
Es	-0.528476	-0.381939	-0.203743	99
Es	-3.121258	-2.630893	-0.435235	99
Es	3.241739	2.319500	1.131556	99
Es	-1.680306	-0.097745	0.145184	99
Es	-1.442922	-0.255107	-1.025829	99
Es	2.290144	1.584459	0.761251	99
Es	1.313007	1.333028	-0.067654	99
Es	0.623863	-0.667215	-0.556313	99
Es	0.382439	-0.505128	0.622800	99
Es	2.506331	1.103015	-0.404291	99
Es	-2.503884	-2.082047	-0.372248	99
Es	-1.491651	-2.223373	0.484214	99
Es	0.404413	0.482325	-0.133199	99
Es	2.278964	2.102375	0.357641	99
47
Properties=species:S:1:pos:R:3:Z:I:1 energy=-309.1436555943617 field_type=dipole dipole="0.000000 0.000000 0.000000" charge=0
O	-3.028435	-2.113556	-0.481853	8
C	-1.640345	-1.966106	-0.215253	6
C	-1.270805	-0.495196	-0.338343	6
C	0.214025	-0.262426	-0.068463	6
C	0.575985	1.218464	-0.198363	6
C	2.038336	1.446794	0.056117	6
C	2.516695	2.224314	1.035467	6
H	-3.236845	-3.059506	-0.394823	1
H	-1.081485	-2.571926	-0.936093	1
H	-1.438395	-2.337396	0.794857	1
H	-1.880135	0.091564	0.359867	1
H	-1.534984	-0.137216	-1.340893	1
H	0.811535	-0.854456	-0.774283	1
H	0.464215	-0.618626	0.939577	1
H	-0.034595	1.809204	0.495197	1
H	0.340946	1.570434	-1.209703	1
H	2.738915	0.952514	-0.613903	1
H	1.859035	2.745303	1.724477	1
H	3.586325	2.357823	1.166417	1
Es	-1.640571	-1.966116	-0.215298	99
Es	-3.180458	-1.975515	-0.256245	99
Es	0.576031	1.218436	-0.198358	99
Es	-1.270771	-0.495234	-0.338331	99
Es	0.623846	-0.667369	-0.556479	99
Es	-2.504512	-2.080477	-0.367824	99
Es	2.038278	1.446725	0.056028	99
Es	0.382325	-0.505162	0.622701	99
Es	-1.244249	-2.385922	-0.711354	99
Es	-1.442729	-0.254927	-1.025806	99
Es	0.214000	-0.262397	-0.068480	99
Es	0.423208	1.454633	-0.887556	99
Es	-3.062753	-2.035915	-0.775365	99
Es	0.162738	1.620358	0.280266	99
Es	1.312913	1.332762	-0.068065	99
Es	-1.680213	-0.097620	0.145355	99
Es	2.073291	2.580862	1.505796	99
Es	-0.528530	-0.382080	-0.203634	99
Es	-3.120477	-2.631976	-0.440328	99
Es	-1.452125	-1.234785	-0.275180	99
Es	-1.491877	-2.223234	0.484028	99
Es	2.289953	1.583879	0.761843	99
Es	3.241370	2.319378	1.131781	99
Es	0.404236	0.482420	-0.133410	99
Es	2.516736	2.224378	1.035549	99
Es	-3.028215	-2.113802	-0.481728	99
Es	2.506156	1.102997	-0.403954	99
Es	2.279275	2.102977	0.357089	99
47
Properties=species:S:1:pos:R:3:Z:I:1 energy=-309.1436555943617 field_type=dipole dipole="0.000000 0.000000 0.000000" charge=0
O	-3.028435	-2.113556	-0.481853	8
C	-1.640345	-1.966106	-0.215253	6
C	-1.270805	-0.495196	-0.338343	6
C	0.214025	-0.262426	-0.068463	6
C	0.575985	1.218464	-0.198363	6
C	2.038336	1.446794	0.056117	6
C	2.516695	2.224314	1.035467	6
H	-3.236845	-3.059506	-0.394823	1
H	-1.081485	-2.571926	-0.936093	1
H	-1.438395	-2.337396	0.794857	1
H	-1.880135	0.091564	0.359867	1
H	-1.534984	-0.137216	-1.340893	1
H	0.811535	-0.854456	-0.774283	1
H	0.464215	-0.618626	0.939577	1
H	-0.034595	1.809204	0.495197	1
H	0.340946	1.570434	-1.209703	1
H	2.738915	0.952514	-0.613903	1
H	1.859035	2.745303	1.724477	1
H	3.586325	2.357823	1.166417	1
Es	0.423249	1.454594	-0.887655	99
Es	3.241033	2.319178	1.131905	99
Es	2.038278	1.446722	0.056031	99
Es	0.623896	-0.667262	-0.556454	99
Es	2.289807	1.583325	0.762422	99
Es	-1.270771	-0.495233	-0.338331	99
Es	-0.528626	-0.382117	-0.203945	99
Es	2.516735	2.224377	1.035549	99
Es	-1.442583	-0.254800	-1.025874	99
Es	0.162798	1.620410	0.280317	99
Es	0.576031	1.218436	-0.198358	99
Es	0.404306	0.482473	-0.133262	99
Es	-3.060762	-2.031494	-0.772481	99
Es	-3.120835	-2.633163	-0.446938	99
Es	-1.492079	-2.223092	0.483842	99
Es	-3.028257	-2.113807	-0.481817	99
Es	-2.505530	-2.080245	-0.363842	99
Es	-1.640570	-1.966116	-0.215298	99
Es	2.073508	2.581080	1.505752	99
Es	2.505862	1.102948	-0.403783	99
Es	0.382091	-0.505356	0.622841	99
Es	-3.180962	-1.979011	-0.256449	99
Es	-1.244044	-2.386111	-0.711370	99
Es	2.279482	2.103604	0.356514	99
Es	1.313107	1.332664	-0.068262	99
Es	-1.452161	-1.234784	-0.275043	99
Es	0.213999	-0.262396	-0.068479	99
Es	-1.680129	-0.097552	0.145510	99
47
Properties=species:S:1:pos:R:3:Z:I:1 energy=-309.1436555943617 field_type=dipole dipole="0.000000 0.000000 0.000000" charge=0
O	-3.028435	-2.113556	-0.481853	8
C	-1.640345	-1.966106	-0.215253	6
C	-1.270805	-0.495196	-0.338343	6
C	0.214025	-0.262426	-0.068463	6
C	0.575985	1.218464	-0.198363	6
C	2.038336	1.446794	0.056117	6
C	2.516695	2.224314	1.035467	6
H	-3.236845	-3.059506	-0.394823	1
H	-1.081485	-2.571926	-0.936093	1
H	-1.438395	-2.337396	0.794857	1
H	-1.880135	0.091564	0.359867	1
H	-1.534984	-0.137216	-1.340893	1
H	0.811535	-0.854456	-0.774283	1
H	0.464215	-0.618626	0.939577	1
H	-0.034595	1.809204	0.495197	1
H	0.340946	1.570434	-1.209703	1
H	2.738915	0.952514	-0.613903	1
H	1.859035	2.745303	1.724477	1
H	3.586325	2.357823	1.166417	1
Es	-1.640570	-1.966116	-0.215298	99
Es	0.213999	-0.262396	-0.068479	99
Es	1.313127	1.332599	-0.068325	99
Es	0.423305	1.454607	-0.887768	99
Es	2.516736	2.224377	1.035551	99
Es	-0.528527	-0.381948	-0.203739	99
Es	-1.243933	-2.386226	-0.711460	99
Es	-3.028185	-2.113788	-0.481746	99
Es	0.623744	-0.667448	-0.556647	99
Es	-2.506759	-2.078251	-0.358130	99
Es	-1.492182	-2.222974	0.483871	99
Es	2.289745	1.583059	0.762596	99
Es	0.162806	1.620368	0.280378	99
Es	-3.056610	-2.031517	-0.770311	99
Es	-3.184154	-1.980114	-0.260314	99
Es	-1.452178	-1.234822	-0.275052	99
Es	2.038277	1.446723	0.056030	99
Es	2.073594	2.581097	1.505868	99
Es	2.279698	2.104115	0.356141	99
Es	0.576030	1.218437	-0.198358	99
Es	3.240791	2.318976	1.132030	99
Es	0.404421	0.482621	-0.133281	99
Es	-1.680132	-0.097623	0.145589	99
Es	0.381988	-0.505434	0.622857	99
Es	-1.442534	-0.254714	-1.025959	99
Es	-3.120509	-2.634042	-0.451027	99
Es	-1.270771	-0.495233	-0.338330	99
Es	2.505659	1.102939	-0.403643	99
47
Properties=species:S:1:pos:R:3:Z:I:1 energy=-309.1436555943617 field_type=dipole dipole="0.000000 0.000000 0.000000" charge=0
O	-3.028435	-2.113556	-0.481853	8
C	-1.640345	-1.966106	-0.215253	6
C	-1.270805	-0.495196	-0.338343	6
C	0.214025	-0.262426	-0.068463	6
C	0.575985	1.218464	-0.198363	6
C	2.038336	1.446794	0.056117	6
C	2.516695	2.224314	1.035467	6
H	-3.236845	-3.059506	-0.394823	1
H	-1.081485	-2.571926	-0.936093	1
H	-1.438395	-2.337396	0.794857	1
H	-1.880135	0.091564	0.359867	1
H	-1.534984	-0.137216	-1.340893	1
H	0.811535	-0.854456	-0.774283	1
H	0.464215	-0.618626	0.939577	1
H	-0.034595	1.809204	0.495197	1
H	0.340946	1.570434	-1.209703	1
H	2.738915	0.952514	-0.613903	1
H	1.859035	2.745303	1.724477	1
H	3.586325	2.357823	1.166417	1
Es	0.213998	-0.262396	-0.068480	99
Es	-1.270771	-0.495233	-0.338331	99
Es	0.404326	0.482651	-0.133369	99
Es	2.516735	2.224380	1.035549	99
Es	-3.054269	-2.028939	-0.766723	99
Es	0.162987	1.620345	0.280643	99
Es	2.505585	1.103004	-0.403558	99
Es	0.381946	-0.505459	0.622983	99
Es	-3.185450	-1.984073	-0.263080	99
Es	-3.120252	-2.634666	-0.457594	99
Es	-3.028237	-2.113804	-0.481787	99
Es	0.423249	1.454737	-0.887827	99
Es	-1.442431	-0.254724	-1.026104	99
Es	1.313119	1.332429	-0.068645	99
Es	2.073806	2.581221	1.505921	99
Es	2.279684	2.104395	0.355836	99
Es	0.623715	-0.667489	-0.556856	99
Es	-1.680083	-0.097517	0.145681	99
Es	-1.640567	-1.966117	-0.215298	99
Es	-1.243771	-2.386491	-0.711447	99
Es	-1.492402	-2.222808	0.483699	99
Es	3.240561	2.318804	1.132037	99
Es	-0.528443	-0.382032	-0.203653	99
Es	2.289661	1.582780	0.762996	99
Es	2.038279	1.446723	0.056029	99
Es	0.576031	1.218436	-0.198357	99
Es	-1.452196	-1.234696	-0.274853	99
Es	-2.507933	-2.076190	-0.352370	99
47
Properties=species:S:1:pos:R:3:Z:I:1 energy=-309.1436555943617 field_type=dipole dipole="0.000000 0.000000 0.000000" charge=0
O	-3.028435	-2.113556	-0.481853	8
C	-1.640345	-1.966106	-0.215253	6
C	-1.270805	-0.495196	-0.338343	6
C	0.214025	-0.262426	-0.068463	6
C	0.575985	1.218464	-0.198363	6
C	2.038336	1.446794	0.056117	6
C	2.516695	2.224314	1.035467	6
H	-3.236845	-3.059506	-0.394823	1
H	-1.081485	-2.571926	-0.936093	1
H	-1.438395	-2.337396	0.794857	1
H	-1.880135	0.091564	0.359867	1
H	-1.534984	-0.137216	-1.340893	1
H	0.811535	-0.854456	-0.774283	1
H	0.464215	-0.618626	0.939577	1
H	-0.034595	1.809204	0.495197	1
H	0.340946	1.570434	-1.209703	1
H	2.738915	0.952514	-0.613903	1
H	1.859035	2.745303	1.724477	1
H	3.586325	2.357823	1.166417	1
Es	0.423351	1.454704	-0.887895	99
Es	-3.052858	-2.026152	-0.762225	99
Es	-1.492420	-2.222700	0.483733	99
Es	-1.442386	-0.254733	-1.026199	99
Es	-1.679984	-0.097363	0.145972	99
Es	0.213999	-0.262396	-0.068479	99
Es	2.073925	2.581265	1.506119	99
Es	-0.528592	-0.382059	-0.203829	99
Es	2.505521	1.103105	-0.403462	99
Es	-1.243677	-2.386544	-0.711619	99
Es	-1.640570	-1.966116	-0.215298	99
Es	2.038277	1.446724	0.056029	99
Es	-1.270771	-0.495233	-0.338331	99
Es	-3.120825	-2.635131	-0.464281	99
Es	-3.185241	-1.987824	-0.265520	99
Es	0.623644	-0.667598	-0.556935	99
Es	-1.452172	-1.234819	-0.274777	99
Es	0.404359	0.482756	-0.133423	99
Es	2.279767	2.104700	0.355576	99
Es	0.576032	1.218436	-0.198358	99
Es	0.163021	1.620466	0.280784	99
Es	2.516734	2.224379	1.035552	99
Es	1.313101	1.332279	-0.068928	99
Es	-3.028270	-2.113825	-0.481779	99
Es	0.381855	-0.505476	0.623037	99
Es	3.240329	2.318534	1.132079	99
Es	-2.508852	-2.074715	-0.347690	99
Es	2.289582	1.582607	0.763189	99
47
Properties=species:S:1:pos:R:3:Z:I:1 energy=-309.1436555943617 field_type=dipole dipole="0.000000 0.000000 0.000000" charge=0
O	-3.028435	-2.113556	-0.481853	8
C	-1.640345	-1.966106	-0.215253	6
C	-1.270805	-0.495196	-0.338343	6
C	0.214025	-0.262426	-0.068463	6
C	0.575985	1.218464	-0.198363	6
C	2.038336	1.446794	0.056117	6
C	2.516695	2.224314	1.035467	6
H	-3.236845	-3.059506	-0.394823	1
H	-1.081485	-2.571926	-0.936093	1
H	-1.438395	-2.337396	0.794857	1
H	-1.880135	0.091564	0.359867	1
H	-1.534984	-0.137216	-1.340893	1
H	0.811535	-0.854456	-0.774283	1
H	0.464215	-0.618626	0.939577	1
H	-0.034595	1.809204	0.495197	1
H	0.340946	1.570434	-1.209703	1
H	2.738915	0.952514	-0.613903	1
H	1.859035	2.745303	1.724477	1
H	3.586325	2.357823	1.166417	1
Es	-2.510720	-2.071955	-0.341345	99
Es	2.289649	1.582450	0.763378	99
Es	-3.049448	-2.026539	-0.758439	99
Es	-3.186531	-1.989833	-0.270720	99
Es	-1.270771	-0.495233	-0.338331	99
Es	-3.028248	-2.113811	-0.481813	99
Es	0.163150	1.620620	0.280936	99
Es	-1.452167	-1.234830	-0.274763	99
Es	2.505464	1.103218	-0.403500	99
Es	-1.442325	-0.254570	-1.026261	99
Es	2.516737	2.224373	1.035554	99
Es	-1.640570	-1.966116	-0.215298	99
Es	-1.492545	-2.222661	0.483683	99
Es	-1.243589	-2.386645	-0.711702	99
Es	2.279774	2.104815	0.355414	99
Es	0.381820	-0.505492	0.623065	99
Es	0.423408	1.454653	-0.888073	99
Es	0.576031	1.218437	-0.198356	99
Es	-3.121018	-2.635430	-0.469198	99
Es	3.240085	2.318351	1.132016	99
Es	2.074055	2.581279	1.506376	99
Es	-0.528526	-0.382046	-0.203626	99
Es	1.312923	1.332221	-0.069173	99
Es	2.038276	1.446723	0.056028	99
Es	0.623703	-0.667625	-0.557270	99
Es	0.404215	0.482764	-0.133163	99
Es	-1.679955	-0.097454	0.146103	99
Es	0.213999	-0.262396	-0.068480	99
