49
Properties=species:S:1:pos:R:3:Z:I:1 energy=-273.29227761609997 field_type=dipole dipole="0.000000 0.000000 0.000000" charge=0
C	-0.877637	-2.255087	-0.920390	6
C	-1.215197	-0.948467	-0.217980	6
C	0.009973	-0.093227	0.058220	6
C	0.912053	-0.619897	1.148459	6
C	0.648903	0.641973	-1.105700	6
C	-0.162047	1.414453	-0.101640	6
C	0.496673	2.406993	0.796760	6
H	-1.794207	-2.809677	-1.146801	1
H	-0.246237	-2.895627	-0.296900	1
H	-0.347817	-2.074307	-1.861550	1
H	-1.727737	-1.161847	0.726720	1
H	-1.930317	-0.399007	-0.842240	1
H	1.821823	-0.022947	1.265579	1
H	1.232233	-1.642477	0.929789	1
H	0.383353	-0.622747	2.106660	1
H	0.229023	0.511213	-2.097750	1
H	1.726923	0.764583	-1.111230	1
H	-1.136277	1.777973	-0.416220	1
H	1.561373	2.205313	0.942480	1
H	0.007303	2.412253	1.775039	1
H	0.407843	3.410563	0.368700	1
Es	1.528515	-0.208252	1.223794	99
Es	-1.561999	-1.095793	0.432931	99
Es	0.184956	1.897590	0.353193	99
Es	1.124832	-1.316649	0.996221	99
Es	0.280918	1.182435	-0.705696	99
Es	0.548008	-0.622571	1.801722	99
Es	-0.177970	0.671521	0.148499	99
Es	0.912039	-0.619889	1.148443	99
Es	-1.505634	-2.633111	-1.074161	99
Es	0.010013	-0.093100	0.058147	99
Es	-0.597290	-0.518894	-0.087639	99
Es	-1.215163	-0.948487	-0.217993	99
Es	-1.700629	-0.567463	-0.649988	99
Es	-0.877644	-2.255074	-0.920378	99
Es	0.648815	0.641967	-1.105573	99
Es	-0.517331	-2.128186	-1.562528	99
Es	0.161876	2.410448	1.464908	99
Es	1.223111	2.263480	0.895276	99
Es	0.359092	0.547934	-1.780487	99
Es	0.434030	3.089041	0.502152	99
Es	-1.037479	-1.606925	-0.567559	99
Es	0.469692	-0.348734	0.602831	99
Es	0.405435	0.111425	-0.601408	99
Es	0.496666	2.406983	0.796754	99
Es	-0.445062	-2.690377	-0.491679	99
Es	-0.830995	1.651947	-0.320928	99
Es	1.383006	0.727745	-1.100837	99
Es	-0.161956	1.414334	-0.101685	99
49
Properties=species:S:1:pos:R:3:Z:I:1 energy=-273.29227761609997 field_type=dipole dipole="0.000000 0.000000 0.000000" charge=0
C	-0.877637	-2.255087	-0.920390	6
C	-1.215197	-0.948467	-0.217980	6
C	0.009973	-0.093227	0.058220	6
C	0.912053	-0.619897	1.148459	6
C	0.648903	0.641973	-1.105700	6
C	-0.162047	1.414453	-0.101640	6
C	0.496673	2.406993	0.796760	6
H	-1.794207	-2.809677	-1.146801	1
H	-0.246237	-2.895627	-0.296900	1
H	-0.347817	-2.074307	-1.861550	1
H	-1.727737	-1.161847	0.726720	1
H	-1.930317	-0.399007	-0.842240	1
H	1.821823	-0.022947	1.265579	1
H	1.232233	-1.642477	0.929789	1
H	0.383353	-0.622747	2.106660	1
H	0.229023	0.511213	-2.097750	1
H	1.726923	0.764583	-1.111230	1
H	-1.136277	1.777973	-0.416220	1
H	1.561373	2.205313	0.942480	1
H	0.007303	2.412253	1.775039	1
H	0.407843	3.410563	0.368700	1
Es	-1.037788	-1.607010	-0.567659	99
Es	-0.830410	1.652311	-0.320421	99
Es	1.125502	-1.317280	0.995497	99
Es	0.405459	0.109236	-0.601912	99
Es	0.359902	0.548507	-1.779310	99
Es	-0.161951	1.414327	-0.101691	99
Es	0.648813	0.641980	-1.105572	99
Es	1.222025	2.262753	0.894734	99
Es	-1.215163	-0.948487	-0.217993	99
Es	0.161474	2.409519	1.465776	99
Es	0.434293	3.089983	0.500935	99
Es	0.912037	-0.619887	1.148440	99
Es	-1.699765	-0.567318	-0.649869	99
Es	0.185286	1.897692	0.353161	99
Es	-1.562402	-1.095480	0.433868	99
Es	0.547530	-0.621874	1.802525	99
Es	1.527340	-0.208499	1.223230	99
Es	1.382512	0.727776	-1.101514	99
Es	-0.597507	-0.518838	-0.087529	99
Es	-1.504201	-2.632373	-1.073423	99
Es	0.010016	-0.093098	0.058143	99
Es	0.470048	-0.348719	0.602852	99
Es	-0.877643	-2.255074	-0.920377	99
Es	-0.517017	-2.128527	-1.563931	99
Es	-0.178802	0.670953	0.150473	99
Es	0.281590	1.184632	-0.707409	99
Es	0.496666	2.406982	0.796752	99
Es	-0.445987	-2.690844	-0.491443	99
49
Properties=species:S:1:pos:R:3:Z:I:1 energy=-273.29227761609997 field_type=dipole dipole="0.000000 0.000000 0.000000" charge=0
C	-0.877637	-2.255087	-0.920390	6
C	-1.215197	-0.948467	-0.217980	6
C	0.009973	-0.093227	0.058220	6
C	0.912053	-0.619897	1.148459	6
C	0.648903	0.641973	-1.105700	6
C	-0.162047	1.414453	-0.101640	6
C	0.496673	2.406993	0.796760	6
H	-1.794207	-2.809677	-1.146801	1
H	-0.246237	-2.895627	-0.296900	1
H	-0.347817	-2.074307	-1.861550	1
H	-1.727737	-1.161847	0.726720	1
H	-1.930317	-0.399007	-0.842240	1
H	1.821823	-0.022947	1.265579	1
H	1.232233	-1.642477	0.929789	1
H	0.383353	-0.622747	2.106660	1
H	0.229023	0.511213	-2.097750	1
H	1.726923	0.764583	-1.111230	1
H	-1.136277	1.777973	-0.416220	1
H	1.561373	2.205313	0.942480	1
H	0.007303	2.412253	1.775039	1
H	0.407843	3.410563	0.368700	1
Es	-0.877644	-2.255078	-0.920379	99
Es	-1.562632	-1.095145	0.434489	99
Es	0.470370	-0.348746	0.602967	99
Es	-0.446573	-2.691180	-0.491370	99
Es	0.185447	1.897804	0.353119	99
Es	0.405454	0.107733	-0.602230	99
Es	-0.830079	1.652557	-0.320062	99
Es	0.161266	2.408813	1.466175	99
Es	-1.037911	-1.607055	-0.567600	99
Es	0.360451	0.548770	-1.778121	99
Es	0.547155	-0.621452	1.802921	99
Es	1.221412	2.262208	0.894381	99
Es	1.382259	0.727692	-1.102158	99
Es	0.434342	3.090619	0.500136	99
Es	0.496665	2.406983	0.796752	99
Es	-0.516866	-2.128790	-1.564661	99
Es	-0.179151	0.670615	0.151754	99
Es	-1.699203	-0.567284	-0.649846	99
Es	-1.215164	-0.948487	-0.217992	99
Es	-1.503271	-2.631877	-1.073061	99
Es	1.526587	-0.208574	1.222935	99
Es	0.648810	0.641976	-1.105566	99
Es	1.125917	-1.317706	0.994945	99
Es	0.010016	-0.093103	0.058142	99
Es	-0.597728	-0.518842	-0.087597	99
Es	0.912039	-0.619889	1.148442	99
Es	-0.161953	1.414339	-0.101690	99
Es	0.281842	1.186443	-0.708493	99
49
Properties=species:S:1:pos:R:3:Z:I:1 energy=-273.29227761609997 field_type=dipole dipole="0.000000 0.000000 0.000000" charge=0
C	-0.877637	-2.255087	-0.920390	6
C	-1.215197	-0.948467	-0.217980	6
C	0.009973	-0.093227	0.058220	6
C	0.912053	-0.619897	1.148459	6
C	0.648903	0.641973	-1.105700	6
C	-0.162047	1.414453	-0.101640	6
C	0.496673	2.406993	0.796760	6
H	-1.794207	-2.809677	-1.146801	1
H	-0.246237	-2.895627	-0.296900	1
H	-0.347817	-2.074307	-1.861550	1
H	-1.727737	-1.161847	0.726720	1
H	-1.930317	-0.399007	-0.842240	1
H	1.821823	-0.022947	1.265579	1
H	1.232233	-1.642477	0.929789	1
H	0.383353	-0.622747	2.106660	1
H	0.229023	0.511213	-2.097750	1
H	1.726923	0.764583	-1.111230	1
H	-1.136277	1.777973	-0.416220	1
H	1.561373	2.205313	0.942480	1
H	0.007303	2.412253	1.775039	1
H	0.407843	3.410563	0.368700	1
Es	0.470659	-0.348864	0.602908	99
Es	-1.698991	-0.567176	-0.649822	99
Es	0.360885	0.549048	-1.777029	99
Es	-0.447004	-2.691440	-0.491238	99
Es	-1.502545	-2.631476	-1.072830	99
Es	0.434372	3.091020	0.499520	99
Es	-0.877643	-2.255073	-0.920375	99
Es	0.160993	2.408239	1.466440	99
Es	1.220969	2.261833	0.894158	99
Es	-0.179570	0.670376	0.152947	99
Es	0.185780	1.897863	0.353046	99
Es	-0.516736	-2.128942	-1.565189	99
Es	-0.829741	1.652917	-0.319805	99
Es	0.648812	0.641976	-1.105570	99
Es	0.546849	-0.621153	1.803151	99
Es	1.126185	-1.317986	0.994552	99
Es	0.281983	1.187544	-0.709385	99
Es	-0.161955	1.414336	-0.101685	99
Es	-1.215165	-0.948487	-0.217992	99
Es	0.912038	-0.619889	1.148443	99
Es	-1.038109	-1.606925	-0.567640	99
Es	-1.562621	-1.095160	0.434977	99
Es	0.010010	-0.093092	0.058152	99
Es	-0.597851	-0.518887	-0.087672	99
Es	0.496664	2.406982	0.796751	99
Es	1.526078	-0.208636	1.222767	99
Es	0.405333	0.106678	-0.602564	99
Es	1.382176	0.727719	-1.102683	99
49
Properties=species:S:1:pos:R:3:Z:I:1 energy=-273.29227761609997 field_type=dipole dipole="0.000000 0.000000 0.000000" charge=0
C	-0.877637	-2.255087	-0.920390	6
C	-1.215197	-0.948467	-0.217980	6
C	0.009973	-0.093227	0.058220	6
C	0.912053	-0.619897	1.148459	6
C	0.648903	0.641973	-1.105700	6
C	-0.162047	1.414453	-0.101640	6
C	0.496673	2.406993	0.796760	6
H	-1.794207	-2.809677	-1.146801	1
H	-0.246237	-2.895627	-0.296900	1
H	-0.347817	-2.074307	-1.861550	1
H	-1.727737	-1.161847	0.726720	1
H	-1.930317	-0.399007	-0.842240	1
H	1.821823	-0.022947	1.265579	1
H	1.232233	-1.642477	0.929789	1
H	0.383353	-0.622747	2.106660	1
H	0.229023	0.511213	-2.097750	1
H	1.726923	0.764583	-1.111230	1
H	-1.136277	1.777973	-0.416220	1
H	1.561373	2.205313	0.942480	1
H	0.007303	2.412253	1.775039	1
H	0.407843	3.410563	0.368700	1
Es	0.434466	3.091442	0.499155	99
Es	1.382160	0.727827	-1.103140	99
Es	0.281951	1.188464	-0.709973	99
Es	-0.447322	-2.691654	-0.491169	99
Es	-0.598096	-0.518854	-0.087460	99
Es	0.648813	0.641978	-1.105572	99
Es	-0.877643	-2.255073	-0.920377	99
Es	-1.563020	-1.094916	0.435180	99
Es	-1.698459	-0.567236	-0.649832	99
Es	0.912039	-0.619889	1.148443	99
Es	-0.161953	1.414335	-0.101688	99
Es	-1.501991	-2.631176	-1.072704	99
Es	-0.179685	0.670263	0.153673	99
Es	1.525735	-0.208564	1.222582	99
Es	0.010015	-0.093100	0.058143	99
Es	0.496664	2.406983	0.796753	99
Es	-0.829571	1.653065	-0.319638	99
Es	1.126367	-1.318241	0.994322	99
Es	-1.038127	-1.607036	-0.567638	99
Es	-0.516651	-2.129050	-1.565522	99
Es	-1.215165	-0.948487	-0.217992	99
Es	0.361237	0.549196	-1.776050	99
Es	0.185774	1.897988	0.352990	99
Es	0.160931	2.407750	1.466603	99
Es	0.470833	-0.348948	0.602960	99
Es	1.220562	2.261419	0.893924	99
Es	0.546636	-0.620872	1.803254	99
Es	0.405356	0.105728	-0.602895	99
49
Properties=species:S:1:pos:R:3:Z:I:1 energy=-273.29227761609997 field_type=dipole dipole="0.000000 0.000000 0.000000" charge=0
C	-0.877637	-2.255087	-0.920390	6
C	-1.215197	-0.948467	-0.217980	6
C	0.009973	-0.093227	0.058220	6
C	0.912053	-0.619897	1.148459	6
C	0.648903	0.641973	-1.105700	6
C	-0.162047	1.414453	-0.101640	6
C	0.496673	2.406993	0.796760	6
H	-1.794207	-2.809677	-1.146801	1
H	-0.246237	-2.895627	-0.296900	1
H	-0.347817	-2.074307	-1.861550	1
H	-1.727737	-1.161847	0.726720	1
H	-1.930317	-0.399007	-0.842240	1
H	1.821823	-0.022947	1.265579	1
H	1.232233	-1.642477	0.929789	1
H	0.383353	-0.622747	2.106660	1
H	0.229023	0.511213	-2.097750	1
H	1.726923	0.764583	-1.111230	1
H	-1.136277	1.777973	-0.416220	1
H	1.561373	2.205313	0.942480	1
H	0.007303	2.412253	1.775039	1
H	0.407843	3.410563	0.368700	1
Es	0.470876	-0.348868	0.603028	99
Es	-0.829479	1.653274	-0.319481	99
Es	0.434454	3.091614	0.498759	99
Es	-0.179811	0.670155	0.154131	99
Es	-0.447546	-2.691835	-0.491122	99
Es	1.126541	-1.318399	0.994107	99
Es	-1.698251	-0.567353	-0.649731	99
Es	1.220328	2.261173	0.893724	99
Es	0.160767	2.407404	1.466774	99
Es	-0.877643	-2.255074	-0.920377	99
Es	0.648813	0.641981	-1.105572	99
Es	0.496666	2.406984	0.796753	99
Es	-0.516589	-2.129079	-1.565752	99
Es	-1.563129	-1.094866	0.435406	99
Es	0.282242	1.189257	-0.710513	99
Es	0.185912	1.898017	0.353034	99
Es	0.405292	0.105040	-0.602913	99
Es	0.546460	-0.620704	1.803346	99
Es	-0.161955	1.414333	-0.101688	99
Es	-1.501509	-2.630957	-1.072651	99
Es	-1.215164	-0.948487	-0.217993	99
Es	-1.038287	-1.607028	-0.567649	99
Es	0.361434	0.549429	-1.775263	99
Es	0.010009	-0.093100	0.058149	99
Es	-0.598176	-0.518823	-0.087568	99
Es	1.525426	-0.208576	1.222503	99
Es	0.912041	-0.619889	1.148444	99
Es	1.382133	0.727720	-1.103552	99
49
Properties=species:S:1:pos:R:3:Z:I:1 energy=-273.29227761609997 field_type=dipole dipole="0.000000 0.000000 0.000000" charge=0
C	-0.877637	-2.255087	-0.920390	6
C	-1.215197	-0.948467	-0.217980	6
C	0.009973	-0.093227	0.058220	6
C	0.912053	-0.619897	1.148459	6
C	0.648903	0.641973	-1.105700	6
C	-0.162047	1.414453	-0.101640	6
C	0.496673	2.406993	0.796760	6
H	-1.794207	-2.809677	-1.146801	1
H	-0.246237	-2.895627	-0.296900	1
H	-0.347817	-2.074307	-1.861550	1
H	-1.727737	-1.161847	0.726720	1
H	-1.930317	-0.399007	-0.842240	1
H	1.821823	-0.022947	1.265579	1
H	1.232233	-1.642477	0.929789	1
H	0.383353	-0.622747	2.106660	1
H	0.229023	0.511213	-2.097750	1
H	1.726923	0.764583	-1.111230	1
H	-1.136277	1.777973	-0.416220	1
H	1.561373	2.205313	0.942480	1
H	0.007303	2.412253	1.775039	1
H	0.407843	3.410563	0.368700	1
Es	1.382102	0.727782	-1.103916	99
Es	-1.501077	-2.630662	-1.072527	99
Es	-0.179912	0.670101	0.154620	99
Es	0.282160	1.189890	-0.710998	99
Es	-0.516568	-2.129213	-1.566016	99
Es	-0.877644	-2.255074	-0.920378	99
Es	0.496665	2.406984	0.796752	99
Es	-0.447789	-2.692033	-0.491049	99
Es	0.648811	0.641974	-1.105571	99
Es	-0.161954	1.414332	-0.101687	99
Es	-1.038422	-1.606993	-0.567670	99
Es	0.471047	-0.348972	0.603191	99
Es	0.160580	2.407104	1.466853	99
Es	-0.598300	-0.519012	-0.087519	99
Es	0.361710	0.549485	-1.774459	99
Es	1.126553	-1.318537	0.993875	99
Es	-1.215159	-0.948485	-0.217992	99
Es	-1.697965	-0.567257	-0.649754	99
Es	-1.563306	-1.094784	0.435544	99
Es	0.912038	-0.619888	1.148440	99
Es	0.010006	-0.093098	0.058160	99
Es	0.405280	0.104473	-0.603013	99
Es	-0.829302	1.653431	-0.319366	99
Es	1.525329	-0.208443	1.222393	99
Es	0.546296	-0.620604	1.803366	99
Es	0.185982	1.898170	0.352893	99
Es	1.220172	2.260912	0.893595	99
Es	0.434519	3.091759	0.498561	99
49
Properties=species:S:1:pos:R:3:Z:I:1 energy=-273.29227761609997 field_type=dipole dipole="0.000000 0.000000 0.000000" charge=0
C	-0.877637	-2.255087	-0.920390	6
C	-1.215197	-0.948467	-0.217980	6
C	0.009973	-0.093227	0.058220	6
C	0.912053	-0.619897	1.148459	6
C	0.648903	0.641973	-1.105700	6
C	-0.162047	1.414453	-0.101640	6
C	0.496673	2.406993	0.796760	6
H	-1.794207	-2.809677	-1.146801	1
H	-0.246237	-2.895627	-0.296900	1
H	-0.347817	-2.074307	-1.861550	1
H	-1.727737	-1.161847	0.726720	1
H	-1.930317	-0.399007	-0.842240	1
H	1.821823	-0.022947	1.265579	1
H	1.232233	-1.642477	0.929789	1
H	0.383353	-0.622747	2.106660	1
H	0.229023	0.511213	-2.097750	1
H	1.726923	0.764583	-1.111230	1
H	-1.136277	1.777973	-0.416220	1
H	1.561373	2.205313	0.942480	1
H	0.007303	2.412253	1.775039	1
H	0.407843	3.410563	0.368700	1
Es	-0.877643	-2.255074	-0.920378	99
Es	-1.215163	-0.948486	-0.217992	99
Es	1.219993	2.260674	0.893565	99
Es	-0.829159	1.653609	-0.319237	99
Es	-0.180058	0.669992	0.155045	99
Es	0.434551	3.091968	0.498321	99
Es	0.648817	0.641977	-1.105583	99
Es	-1.500885	-2.630544	-1.072489	99
Es	0.010013	-0.093105	0.058147	99
Es	-1.563343	-1.094722	0.435679	99
Es	0.912038	-0.619890	1.148442	99
Es	0.186091	1.898195	0.352830	99
Es	1.382126	0.727860	-1.104311	99
Es	-0.161954	1.414329	-0.101686	99
Es	1.525065	-0.208481	1.222262	99
Es	-1.038426	-1.607026	-0.567699	99
Es	-0.598378	-0.519105	-0.087465	99
Es	0.282099	1.190318	-0.711270	99
Es	0.496665	2.406983	0.796752	99
Es	0.160487	2.406856	1.466835	99
Es	0.546214	-0.620442	1.803492	99
Es	-1.697826	-0.567231	-0.649705	99
Es	-0.516508	-2.129244	-1.566133	99
Es	0.361826	0.549642	-1.773750	99
Es	0.405325	0.103947	-0.603233	99
Es	-0.447934	-2.692112	-0.491036	99
Es	1.126713	-1.318619	0.993772	99
Es	0.471109	-0.348925	0.603156	99
49
Properties=species:S:1:pos:R:3:Z:I:1 energy=-273.29227761609997 field_type=dipole dipole="0.000000 0.000000 0.000000" charge=0
C	-0.877637	-2.255087	-0.920390	6
C	-1.215197	-0.948467	-0.217980	6
C	0.009973	-0.093227	0.058220	6
C	0.912053	-0.619897	1.148459	6
C	0.648903	0.641973	-1.105700	6
C	-0.162047	1.414453	-0.101640	6
C	0.496673	2.406993	0.796760	6
H	-1.794207	-2.809677	-1.146801	1
H	-0.246237	-2.895627	-0.296900	1
H	-0.347817	-2.074307	-1.861550	1
H	-1.727737	-1.161847	0.726720	1
H	-1.930317	-0.399007	-0.842240	1
H	1.821823	-0.022947	1.265579	1
H	1.232233	-1.642477	0.929789	1
H	0.383353	-0.622747	2.106660	1
H	0.229023	0.511213	-2.097750	1
H	1.726923	0.764583	-1.111230	1
H	-1.136277	1.777973	-0.416220	1
H	1.561373	2.205313	0.942480	1
H	0.007303	2.412253	1.775039	1
H	0.407843	3.410563	0.368700	1
Es	-0.180315	0.669762	0.155577	99
Es	-0.448170	-2.692236	-0.491003	99
Es	-0.829035	1.653756	-0.319220	99
Es	-1.038463	-1.606963	-0.567660	99
Es	0.160340	2.406595	1.466859	99
Es	-1.697659	-0.567291	-0.649720	99
Es	-1.500682	-2.630387	-1.072550	99
Es	0.405274	0.103671	-0.603347	99
Es	0.471151	-0.348933	0.603119	99
Es	0.282143	1.190874	-0.711675	99
Es	0.496664	2.406981	0.796748	99
Es	-0.516361	-2.129328	-1.566163	99
Es	-0.598287	-0.519167	-0.087529	99
Es	-1.215164	-0.948487	-0.217993	99
Es	-0.877644	-2.255074	-0.920378	99
Es	-1.563453	-1.094645	0.435818	99
Es	0.546085	-0.620384	1.803436	99
Es	1.219830	2.260445	0.893500	99
Es	0.434610	3.092125	0.498122	99
Es	0.186203	1.898319	0.352819	99
Es	0.362069	0.549702	-1.773132	99
Es	0.648810	0.641976	-1.105568	99
Es	0.912039	-0.619890	1.148443	99
Es	1.382077	0.727837	-1.104564	99
Es	-0.161955	1.414327	-0.101684	99
Es	0.010014	-0.093103	0.058144	99
Es	1.524992	-0.208413	1.222279	99
Es	1.126739	-1.318724	0.993654	99
49
Properties=species:S:1:pos:R:3:Z:I:1 energy=-273.29227761609997 field_type=dipole dipole="0.000000 0.000000 0.000000" charge=0
C	-0.877637	-2.255087	-0.920390	6
C	-1.215197	-0.948467	-0.217980	6
C	0.009973	-0.093227	0.058220	6
C	0.912053	-0.619897	1.148459	6
C	0.648903	0.641973	-1.105700	6
C	-0.162047	1.414453	-0.101640	6
C	0.496673	2.406993	0.796760	6
H	-1.794207	-2.809677	-1.146801	1
H	-0.246237	-2.895627	-0.296900	1
H	-0.347817	-2.074307	-1.861550	1
H	-1.727737	-1.161847	0.726720	1
H	-1.930317	-0.399007	-0.842240	1
H	1.821823	-0.022947	1.265579	1
H	1.232233	-1.642477	0.929789	1
H	0.383353	-0.622747	2.106660	1
H	0.229023	0.511213	-2.097750	1
H	1.726923	0.764583	-1.111230	1
H	-1.136277	1.777973	-0.416220	1
H	1.561373	2.205313	0.942480	1
H	0.007303	2.412253	1.775039	1
H	0.407843	3.410563	0.368700	1
Es	-0.516379	-2.129324	-1.566373	99
Es	1.219652	2.260360	0.893347	99
Es	-1.038713	-1.607054	-0.567662	99
Es	-0.161952	1.414335	-0.101678	99
Es	0.546040	-0.620200	1.803571	99
Es	-0.448263	-2.692341	-0.490916	99
Es	0.282100	1.191126	-0.712106	99
Es	-1.215164	-0.948487	-0.217992	99
Es	1.382193	0.727969	-1.104898	99
Es	-1.500325	-2.630226	-1.072455	99
Es	0.648815	0.641974	-1.105570	99
Es	0.496665	2.406983	0.796752	99
Es	0.160497	2.406555	1.466971	99
Es	0.471226	-0.348948	0.603252	99
Es	0.362173	0.549658	-1.772490	99
Es	0.010011	-0.093104	0.058149	99
Es	-0.877643	-2.255073	-0.920377	99
Es	0.912038	-0.619889	1.148443	99
Es	1.524810	-0.208477	1.222111	99
Es	0.405231	0.103205	-0.603221	99
Es	-0.598323	-0.519102	-0.087606	99
Es	-1.563479	-1.094567	0.435914	99
Es	0.186060	1.898158	0.352771	99
Es	1.126799	-1.318805	0.993556	99
Es	-0.828980	1.653831	-0.319134	99
Es	0.434613	3.092217	0.497951	99
Es	-0.180275	0.669938	0.155683	99
Es	-1.697575	-0.567371	-0.649663	99
49
Properties=species:S:1:pos:R:3:Z:I:1 energy=-273.29227761609997 field_type=dipole dipole="0.000000 0.000000 0.000000" charge=0
C	-0.877637	-2.255087	-0.920390	6
C	-1.215197	-0.948467	-0.217980	6
C	0.009973	-0.093227	0.058220	6
C	0.912053	-0.619897	1.148459	6
C	0.648903	0.641973	-1.105700	6
C	-0.162047	1.414453	-0.101640	6
C	0.496673	2.406993	0.796760	6
H	-1.794207	-2.809677	-1.146801	1
H	-0.246237	-2.895627	-0.296900	1
H	-0.347817	-2.074307	-1.861550	1
H	-1.727737	-1.161847	0.726720	1
H	-1.930317	-0.399007	-0.842240	1
H	1.821823	-0.022947	1.265579	1
H	1.232233	-1.642477	0.929789	1
H	0.383353	-0.622747	2.106660	1
H	0.229023	0.511213	-2.097750	1
H	1.726923	0.764583	-1.111230	1
H	-1.136277	1.777973	-0.416220	1
H	1.561373	2.205313	0.942480	1
H	0.007303	2.412253	1.775039	1
H	0.407843	3.410563	0.368700	1
Es	0.471255	-0.349124	0.603107	99
Es	-0.516328	-2.129373	-1.566472	99
Es	0.010014	-0.093104	0.058144	99
Es	1.382103	0.727808	-1.105032	99
Es	-0.180239	0.669811	0.155923	99
Es	1.524854	-0.208292	1.222159	99
Es	-0.161948	1.414330	-0.101685	99
Es	0.545864	-0.620285	1.803483	99
Es	0.160305	2.406221	1.466887	99
Es	0.648813	0.641970	-1.105570	99
Es	0.912036	-0.619888	1.148441	99
Es	0.186235	1.898285	0.352770	99
Es	1.219540	2.260195	0.893373	99
Es	0.362264	0.549821	-1.772214	99
Es	0.496663	2.406980	0.796748	99
Es	-1.563555	-1.094537	0.435979	99
Es	-0.877645	-2.255074	-0.920378	99
Es	-0.448471	-2.692535	-0.490922	99
Es	-1.697428	-0.567285	-0.649671	99
Es	0.405216	0.102951	-0.603408	99
Es	1.126831	-1.318767	0.993512	99
Es	-0.598629	-0.519196	-0.087499	99
Es	-1.500271	-2.629968	-1.072426	99
Es	-1.215164	-0.948487	-0.217992	99
Es	0.282133	1.191654	-0.712171	99
Es	-0.828863	1.653918	-0.318984	99
Es	-1.038384	-1.607092	-0.567674	99
Es	0.434656	3.092407	0.497903	99
