46
Properties=species:S:1:pos:R:3:Z:I:1 energy=-325.12520471582974 field_type=dipole dipole="0.000000 0.000000 0.000000" charge=0
C	-2.026965	-0.581465	0.836105	6
C	-0.535015	-0.574285	0.823065	6
C	0.215755	-1.237205	-0.297175	6
C	0.259015	0.271205	-0.153964	6
N	-0.478265	1.071775	-1.156775	7
C	1.548835	0.900165	0.352916	6
O	2.353144	1.274045	-0.764395	8
H	-2.403165	0.309385	1.348196	1
H	-2.389785	-1.461335	1.376765	1
H	-2.457495	-0.608495	-0.169835	1
H	-0.141365	-0.682045	1.828535	1
H	-0.355165	-1.673135	-1.109415	1
H	1.097685	-1.812735	-0.037205	1
H	-0.728205	0.507815	-1.966914	1
H	0.140835	1.803745	-1.517164	1
H	2.125825	0.216345	0.983965	1
H	1.328025	1.802115	0.932375	1
H	2.446315	0.474105	-1.309084	1
Es	2.392678	0.832066	-1.044331	99
Es	-0.762710	1.208857	-1.014473	99
Es	-0.252281	-0.646838	1.504939	99
Es	0.366078	-0.492356	-0.384200	99
Es	0.215719	-1.237081	-0.297098	99
Es	-2.268191	-1.184052	1.206000	99
Es	2.182084	1.470794	-0.929621	99
Es	-0.097575	1.492316	-1.371162	99
Es	1.395930	1.515410	0.744927	99
Es	2.632534	1.343838	-0.657668	99
Es	-2.313402	-0.603231	0.149619	99
Es	-0.608128	0.718483	-1.642469	99
Es	-0.177431	-1.522810	-0.852831	99
Es	-0.193255	0.005438	0.435835	99
Es	-0.477756	1.071515	-1.157002	99
Es	-0.206194	-1.077388	0.312283	99
Es	-0.140769	0.709520	-0.737041	99
Es	1.931505	0.418913	0.789286	99
Es	0.896079	0.576769	0.101462	99
Es	-1.275424	-0.573640	0.808016	99
Es	1.548929	0.900202	0.352711	99
Es	2.353020	1.273730	-0.764352	99
Es	-2.280453	0.022416	1.187115	99
Es	2.049820	1.111884	-0.349069	99
Es	0.258904	0.271128	-0.154029	99
Es	-2.026932	-0.581473	0.836108	99
Es	0.822505	-1.623276	-0.121833	99
Es	-0.534933	-0.574301	0.822926	99
46
Properties=species:S:1:pos:R:3:Z:I:1 energy=-325.12520471582974 field_type=dipole dipole="0.000000 0.000000 0.000000" charge=0
C	-2.026965	-0.581465	0.836105	6
C	-0.535015	-0.574285	0.823065	6
C	0.215755	-1.237205	-0.297175	6
C	0.259015	0.271205	-0.153964	6
N	-0.478265	1.071775	-1.156775	7
C	1.548835	0.900165	0.352916	6
O	2.353144	1.274045	-0.764395	8
H	-2.403165	0.309385	1.348196	1
H	-2.389785	-1.461335	1.376765	1
H	-2.457495	-0.608495	-0.169835	1
H	-0.141365	-0.682045	1.828535	1
H	-0.355165	-1.673135	-1.109415	1
H	1.097685	-1.812735	-0.037205	1
H	-0.728205	0.507815	-1.966914	1
H	0.140835	1.803745	-1.517164	1
H	2.125825	0.216345	0.983965	1
H	1.328025	1.802115	0.932375	1
H	2.446315	0.474105	-1.309084	1
Es	2.187645	1.473762	-0.927439	99
Es	2.624559	1.340327	-0.659773	99
Es	-2.280357	0.023959	1.187418	99
Es	2.395386	0.830894	-1.048131	99
Es	2.049653	1.113443	-0.345719	99
Es	1.930779	0.418801	0.788088	99
Es	-0.534927	-0.574296	0.822920	99
Es	-0.253247	-0.646559	1.504847	99
Es	0.215717	-1.237072	-0.297093	99
Es	0.821021	-1.622229	-0.122672	99
Es	1.395316	1.516122	0.746205	99
Es	-0.206806	-1.079972	0.313305	99
Es	0.367900	-0.492786	-0.385620	99
Es	-0.097532	1.495164	-1.369548	99
Es	-0.194213	0.007490	0.436977	99
Es	-0.142235	0.710619	-0.736160	99
Es	-1.275592	-0.573680	0.807702	99
Es	-0.477773	1.071519	-1.157008	99
Es	-0.763439	1.205959	-1.016143	99
Es	-0.605278	0.717405	-1.642949	99
Es	-2.026929	-0.581473	0.836108	99
Es	0.258903	0.271129	-0.154027	99
Es	-2.267702	-1.185367	1.206014	99
Es	2.353007	1.273736	-0.764326	99
Es	1.548930	0.900202	0.352708	99
Es	-0.176516	-1.523178	-0.852872	99
Es	0.896272	0.576285	0.101265	99
Es	-2.312195	-0.603371	0.149974	99
46
Properties=species:S:1:pos:R:3:Z:I:1 energy=-325.12520471582974 field_type=dipole dipole="0.000000 0.000000 0.000000" charge=0
C	-2.026965	-0.581465	0.836105	6
C	-0.535015	-0.574285	0.823065	6
C	0.215755	-1.237205	-0.297175	6
C	0.259015	0.271205	-0.153964	6
N	-0.478265	1.071775	-1.156775	7
C	1.548835	0.900165	0.352916	6
O	2.353144	1.274045	-0.764395	8
H	-2.403165	0.309385	1.348196	1
H	-2.389785	-1.461335	1.376765	1
H	-2.457495	-0.608495	-0.169835	1
H	-0.141365	-0.682045	1.828535	1
H	-0.355165	-1.673135	-1.109415	1
H	1.097685	-1.812735	-0.037205	1
H	-0.728205	0.507815	-1.966914	1
H	0.140835	1.803745	-1.517164	1
H	2.125825	0.216345	0.983965	1
H	1.328025	1.802115	0.932375	1
H	2.446315	0.474105	-1.309084	1
Es	-2.026931	-0.581476	0.836108	99
Es	-0.763575	1.205378	-1.016092	99
Es	-2.311307	-0.603296	0.150069	99
Es	-0.253888	-0.646462	1.504742	99
Es	1.395078	1.516539	0.747093	99
Es	-0.097105	1.495742	-1.368951	99
Es	1.930200	0.418881	0.787207	99
Es	1.548932	0.900201	0.352706	99
Es	2.352968	1.273752	-0.764364	99
Es	2.619833	1.337147	-0.660888	99
Es	2.049665	1.114192	-0.343959	99
Es	2.396575	0.830719	-1.050121	99
Es	-0.194849	0.009120	0.437581	99
Es	-0.207362	-1.081981	0.313844	99
Es	-2.280055	0.024877	1.187531	99
Es	-0.534934	-0.574295	0.822928	99
Es	2.191296	1.476139	-0.926324	99
Es	-1.275698	-0.573773	0.807711	99
Es	0.369173	-0.492729	-0.386354	99
Es	0.819757	-1.621407	-0.122965	99
Es	-2.267493	-1.186262	1.206060	99
Es	-0.175845	-1.523564	-0.853043	99
Es	-0.142611	0.711458	-0.736310	99
Es	0.258905	0.271127	-0.154027	99
Es	-0.477806	1.071539	-1.156983	99
Es	0.215713	-1.237087	-0.297091	99
Es	-0.604546	0.716462	-1.643192	99
Es	0.896260	0.575894	0.101135	99
46
Properties=species:S:1:pos:R:3:Z:I:1 energy=-325.12520471582974 field_type=dipole dipole="0.000000 0.000000 0.000000" charge=0
C	-2.026965	-0.581465	0.836105	6
C	-0.535015	-0.574285	0.823065	6
C	0.215755	-1.237205	-0.297175	6
C	0.259015	0.271205	-0.153964	6
N	-0.478265	1.071775	-1.156775	7
C	1.548835	0.900165	0.352916	6
O	2.353144	1.274045	-0.764395	8
H	-2.403165	0.309385	1.348196	1
H	-2.389785	-1.461335	1.376765	1
H	-2.457495	-0.608495	-0.169835	1
H	-0.141365	-0.682045	1.828535	1
H	-0.355165	-1.673135	-1.109415	1
H	1.097685	-1.812735	-0.037205	1
H	-0.728205	0.507815	-1.966914	1
H	0.140835	1.803745	-1.517164	1
H	2.125825	0.216345	0.983965	1
H	1.328025	1.802115	0.932375	1
H	2.446315	0.474105	-1.309084	1
Es	-2.026927	-0.581471	0.836109	99
Es	-0.195460	0.009982	0.437980	99
Es	-0.175371	-1.524099	-0.853173	99
Es	-0.764192	1.204210	-1.016773	99
Es	1.394942	1.516729	0.747716	99
Es	2.050147	1.114841	-0.342394	99
Es	-0.207592	-1.082933	0.314331	99
Es	0.370341	-0.492813	-0.387182	99
Es	1.548930	0.900202	0.352709	99
Es	-0.254311	-0.646380	1.504648	99
Es	-1.275842	-0.573963	0.807596	99
Es	-0.097104	1.496831	-1.368606	99
Es	-2.310702	-0.603218	0.150280	99
Es	2.615617	1.333673	-0.661859	99
Es	-0.143035	0.712059	-0.735964	99
Es	0.215719	-1.237075	-0.297094	99
Es	-0.603110	0.715846	-1.642955	99
Es	2.353059	1.273826	-0.764380	99
Es	0.896236	0.575718	0.101148	99
Es	0.818631	-1.620625	-0.123045	99
Es	-2.279859	0.025528	1.187656	99
Es	2.194399	1.478782	-0.925319	99
Es	-2.267337	-1.186902	1.205976	99
Es	0.258900	0.271128	-0.154021	99
Es	-0.534921	-0.574300	0.822912	99
Es	1.929795	0.418981	0.786580	99
Es	-0.477804	1.071532	-1.156988	99
Es	2.397198	0.830742	-1.051837	99
46
Properties=species:S:1:pos:R:3:Z:I:1 energy=-325.12520471582974 field_type=dipole dipole="0.000000 0.000000 0.000000" charge=0
C	-2.026965	-0.581465	0.836105	6
C	-0.535015	-0.574285	0.823065	6
C	0.215755	-1.237205	-0.297175	6
C	0.259015	0.271205	-0.153964	6
N	-0.478265	1.071775	-1.156775	7
C	1.548835	0.900165	0.352916	6
O	2.353144	1.274045	-0.764395	8
H	-2.403165	0.309385	1.348196	1
H	-2.389785	-1.461335	1.376765	1
H	-2.457495	-0.608495	-0.169835	1
H	-0.141365	-0.682045	1.828535	1
H	-0.355165	-1.673135	-1.109415	1
H	1.097685	-1.812735	-0.037205	1
H	-0.728205	0.507815	-1.966914	1
H	0.140835	1.803745	-1.517164	1
H	2.125825	0.216345	0.983965	1
H	1.328025	1.802115	0.932375	1
H	2.446315	0.474105	-1.309084	1
Es	2.352926	1.273689	-0.764378	99
Es	-0.764226	1.203460	-1.016892	99
Es	2.397323	0.830627	-1.052958	99
Es	0.371240	-0.492954	-0.387918	99
Es	0.215719	-1.237082	-0.297100	99
Es	2.050930	1.115715	-0.340786	99
Es	-0.097070	1.497557	-1.368148	99
Es	-0.195856	0.010442	0.438248	99
Es	-2.279734	0.025977	1.187568	99
Es	0.817829	-1.620113	-0.123166	99
Es	1.394841	1.516854	0.748242	99
Es	-0.143350	0.712524	-0.736013	99
Es	-0.175105	-1.524432	-0.853188	99
Es	-0.534921	-0.574304	0.822921	99
Es	1.929512	0.419127	0.786038	99
Es	-0.602530	0.715360	-1.643033	99
Es	0.896263	0.575443	0.101074	99
Es	2.196499	1.479943	-0.924465	99
Es	2.612766	1.331859	-0.663294	99
Es	-2.267317	-1.187379	1.205996	99
Es	-0.477777	1.071521	-1.157010	99
Es	-0.207853	-1.083413	0.314865	99
Es	-1.275848	-0.573978	0.807512	99
Es	-2.026930	-0.581473	0.836108	99
Es	0.258902	0.271124	-0.154023	99
Es	-0.254655	-0.646294	1.504705	99
Es	-2.310159	-0.603174	0.150439	99
Es	1.548931	0.900203	0.352706	99
46
Properties=species:S:1:pos:R:3:Z:I:1 energy=-325.12520471582974 field_type=dipole dipole="0.000000 0.000000 0.000000" charge=0
C	-2.026965	-0.581465	0.836105	6
C	-0.535015	-0.574285	0.823065	6
C	0.215755	-1.237205	-0.297175	6
C	0.259015	0.271205	-0.153964	6
N	-0.478265	1.071775	-1.156775	7
C	1.548835	0.900165	0.352916	6
O	2.353144	1.274045	-0.764395	8
H	-2.403165	0.309385	1.348196	1
H	-2.389785	-1.461335	1.376765	1
H	-2.457495	-0.608495	-0.169835	1
H	-0.141365	-0.682045	1.828535	1
H	-0.355165	-1.673135	-1.109415	1
H	1.097685	-1.812735	-0.037205	1
H	-0.728205	0.507815	-1.966914	1
H	0.140835	1.803745	-1.517164	1
H	2.125825	0.216345	0.983965	1
H	1.328025	1.802115	0.932375	1
H	2.446315	0.474105	-1.309084	1
Es	-0.195971	0.011121	0.438440	99
Es	-2.267203	-1.187670	1.206050	99
Es	2.198148	1.480166	-0.924458	99
Es	-0.096786	1.497836	-1.367964	99
Es	0.817154	-1.619460	-0.123455	99
Es	1.548931	0.900203	0.352707	99
Es	-0.477767	1.071527	-1.157016	99
Es	1.394807	1.516926	0.748665	99
Es	-0.143657	0.712968	-0.736161	99
Es	-0.208030	-1.084489	0.315311	99
Es	1.929179	0.419316	0.785599	99
Es	-0.764224	1.203174	-1.016832	99
Es	-0.602289	0.714911	-1.642979	99
Es	0.258901	0.271124	-0.154020	99
Es	-2.026931	-0.581473	0.836108	99
Es	0.371595	-0.492855	-0.388244	99
Es	-1.275905	-0.573984	0.807487	99
Es	2.049897	1.116287	-0.340898	99
Es	-2.279543	0.026349	1.187569	99
Es	0.215719	-1.237079	-0.297098	99
Es	-2.309732	-0.603189	0.150349	99
Es	2.398607	0.830477	-1.053246	99
Es	2.610740	1.331192	-0.663178	99
Es	2.353157	1.273620	-0.764207	99
Es	-0.534927	-0.574293	0.822920	99
Es	-0.255016	-0.646265	1.504809	99
Es	-0.174789	-1.524746	-0.853157	99
Es	0.896283	0.575139	0.100949	99
46
Properties=species:S:1:pos:R:3:Z:I:1 energy=-325.12520471582974 field_type=dipole dipole="0.000000 0.000000 0.000000" charge=0
C	-2.026965	-0.581465	0.836105	6
C	-0.535015	-0.574285	0.823065	6
C	0.215755	-1.237205	-0.297175	6
C	0.259015	0.271205	-0.153964	6
N	-0.478265	1.071775	-1.156775	7
C	1.548835	0.900165	0.352916	6
O	2.353144	1.274045	-0.764395	8
H	-2.403165	0.309385	1.348196	1
H	-2.389785	-1.461335	1.376765	1
H	-2.457495	-0.608495	-0.169835	1
H	-0.141365	-0.682045	1.828535	1
H	-0.355165	-1.673135	-1.109415	1
H	1.097685	-1.812735	-0.037205	1
H	-0.728205	0.507815	-1.966914	1
H	0.140835	1.803745	-1.517164	1
H	2.125825	0.216345	0.983965	1
H	1.328025	1.802115	0.932375	1
H	2.446315	0.474105	-1.309084	1
Es	0.258902	0.271125	-0.154022	99
Es	2.046493	1.117853	-0.342334	99
Es	-0.602491	0.714515	-1.642992	99
Es	-2.279641	0.026317	1.187737	99
Es	-0.477765	1.071518	-1.157024	99
Es	1.395007	1.516909	0.748980	99
Es	2.394823	0.831598	-1.055719	99
Es	-0.144080	0.712990	-0.736378	99
Es	2.602660	1.312073	-0.659671	99
Es	-0.255141	-0.646334	1.504653	99
Es	-0.196269	0.011284	0.438791	99
Es	-0.764069	1.203407	-1.016491	99
Es	-2.026930	-0.581474	0.836110	99
Es	0.371867	-0.492993	-0.388441	99
Es	1.929068	0.419806	0.785233	99
Es	-2.309758	-0.603148	0.150411	99
Es	0.215719	-1.237078	-0.297098	99
Es	-0.207822	-1.084592	0.315551	99
Es	-0.534927	-0.574298	0.822922	99
Es	-0.174669	-1.525016	-0.853426	99
Es	0.816644	-1.618936	-0.123593	99
Es	-1.275812	-0.573982	0.807468	99
Es	-2.267130	-1.187692	1.205868	99
Es	1.548930	0.900202	0.352707	99
Es	2.213611	1.496516	-0.923974	99
Es	-0.096170	1.497650	-1.367836	99
Es	2.352987	1.273687	-0.764321	99
Es	0.896308	0.574926	0.100940	99
