46
Properties=species:S:1:pos:R:3:Z:I:1 energy=-272.1096651309781 field_type=dipole dipole="0.000000 0.000000 0.000000" charge=0
C	-2.616623	-1.988107	0.023506	6
C	-1.096993	-1.942727	0.010316	6
C	-0.579273	-0.504607	-0.005844	6
C	0.948717	-0.463577	-0.022184	6
C	1.441876	0.921314	-0.018804	6
C	1.848417	2.051574	-0.013214	6
C	2.343647	3.428273	-0.004024	6
H	-2.964703	-3.025687	0.037996	1
H	-3.031293	-1.503077	-0.865944	1
H	-3.016703	-1.483277	0.908656	1
H	-0.728783	-2.481457	-0.870444	1
H	-0.714423	-2.465937	0.894456	1
H	-0.955944	0.031773	0.874636	1
H	-0.973573	0.019343	-0.886134	1
H	1.325067	-0.983647	-0.910874	1
H	1.344387	-0.993297	0.852256	1
H	1.543477	4.131433	-0.253994	1
H	3.149086	3.557024	-0.733344	1
H	2.733636	3.694654	0.982986	1
Es	1.848508	2.051838	-0.013212	99
Es	-0.834298	-0.142625	0.599640	99
Es	-2.896486	-1.654566	-0.585209	99
Es	1.802559	3.886688	-0.171677	99
Es	1.217237	-0.809585	0.569787	99
Es	-0.846457	-0.151013	-0.611233	99
Es	1.449162	1.556083	0.284151	99
Es	1.204089	-0.803158	-0.623541	99
Es	-2.616602	-1.988109	0.023506	99
Es	2.600384	3.593695	0.657736	99
Es	-1.861370	-1.962080	0.016926	99
Es	-0.832988	-1.224600	0.001886	99
Es	0.948739	-0.463452	-0.022184	99
Es	1.496920	1.542372	-0.345006	99
Es	-0.831817	-2.298948	0.619547	99
Es	1.986064	1.367047	0.012273	99
Es	0.203853	-0.470178	-0.013990	99
Es	-1.097020	-1.942700	0.010315	99
Es	-0.579218	-0.504636	-0.005845	99
Es	-0.841916	-2.309541	-0.596810	99
Es	2.343606	3.428160	-0.004025	99
Es	1.441777	0.921076	-0.018808	99
Es	2.878845	3.501430	-0.493146	99
Es	-2.886540	-1.640961	0.629246	99
Es	-2.854033	-2.697299	0.033332	99
Es	2.087499	2.718140	-0.009115	99
Es	1.206773	0.257199	-0.021092	99
46
Properties=species:S:1:pos:R:3:Z:I:1 energy=-272.1096651309781 field_type=dipole dipole="0.000000 0.000000 0.000000" charge=0
C	-2.616623	-1.988107	0.023506	6
C	-1.096993	-1.942727	0.010316	6
C	-0.579273	-0.504607	-0.005844	6
C	0.948717	-0.463577	-0.022184	6
C	1.441876	0.921314	-0.018804	6
C	1.848417	2.051574	-0.013214	6
C	2.343647	3.428273	-0.004024	6
H	-2.964703	-3.025687	0.037996	1
H	-3.031293	-1.503077	-0.865944	1
H	-3.016703	-1.483277	0.908656	1
H	-0.728783	-2.481457	-0.870444	1
H	-0.714423	-2.465937	0.894456	1
H	-0.955944	0.031773	0.874636	1
H	-0.973573	0.019343	-0.886134	1
H	1.325067	-0.983647	-0.910874	1
H	1.344387	-0.993297	0.852256	1
H	1.543477	4.131433	-0.253994	1
H	3.149086	3.557024	-0.733344	1
H	2.733636	3.694654	0.982986	1
Es	2.877482	3.503297	-0.491007	99
Es	-0.833009	-1.224495	0.001987	99
Es	1.208468	0.259341	-0.020990	99
Es	-2.616602	-1.988108	0.023505	99
Es	-0.579218	-0.504637	-0.005844	99
Es	-0.845057	-0.150161	-0.609456	99
Es	-0.843267	-2.310592	-0.595185	99
Es	0.204280	-0.470335	-0.014361	99
Es	2.600306	3.595431	0.655220	99
Es	2.086314	2.715621	-0.008977	99
Es	-2.855701	-2.701712	0.033419	99
Es	-0.833542	-2.299852	0.617974	99
Es	-2.884613	-1.639648	0.627066	99
Es	1.805003	3.887300	-0.171348	99
Es	1.848505	2.051851	-0.013214	99
Es	1.519073	1.534550	-0.351470	99
Es	1.978724	1.369787	0.035259	99
Es	0.948742	-0.463448	-0.022184	99
Es	-1.097020	-1.942700	0.010316	99
Es	-2.894537	-1.653416	-0.583010	99
Es	1.215235	-0.810552	0.567910	99
Es	-1.861585	-1.961828	0.016712	99
Es	1.202533	-0.804261	-0.621607	99
Es	2.343606	3.428159	-0.004025	99
Es	1.441783	0.921058	-0.018804	99
Es	-0.832819	-0.141621	0.597996	99
Es	1.434185	1.561252	0.267572	99
46
Properties=species:S:1:pos:R:3:Z:I:1 energy=-272.1096651309781 field_type=dipole dipole="0.000000 0.000000 0.000000" charge=0
C	-2.616623	-1.988107	0.023506	6
C	-1.096993	-1.942727	0.010316	6
C	-0.579273	-0.504607	-0.005844	6
C	0.948717	-0.463577	-0.022184	6
C	1.441876	0.921314	-0.018804	6
C	1.848417	2.051574	-0.013214	6
C	2.343647	3.428273	-0.004024	6
H	-2.964703	-3.025687	0.037996	1
H	-3.031293	-1.503077	-0.865944	1
H	-3.016703	-1.483277	0.908656	1
H	-0.728783	-2.481457	-0.870444	1
H	-0.714423	-2.465937	0.894456	1
H	-0.955944	0.031773	0.874636	1
H	-0.973573	0.019343	-0.886134	1
H	1.325067	-0.983647	-0.910874	1
H	1.344387	-0.993297	0.852256	1
H	1.543477	4.131433	-0.253994	1
H	3.149086	3.557024	-0.733344	1
H	2.733636	3.694654	0.982986	1
Es	2.600368	3.596119	0.653614	99
Es	-0.832081	-0.141273	0.596834	99
Es	-2.616602	-1.988109	0.023506	99
Es	0.948742	-0.463448	-0.022184	99
Es	2.343604	3.428159	-0.004025	99
Es	1.427247	1.563674	0.259870	99
Es	1.848502	2.051851	-0.013210	99
Es	-0.834425	-2.300273	0.616960	99
Es	-2.893326	-1.652913	-0.581453	99
Es	-1.097020	-1.942701	0.010316	99
Es	1.214264	-0.811103	0.566727	99
Es	-2.856549	-2.703780	0.033255	99
Es	-0.844145	-0.149742	-0.608375	99
Es	1.201302	-0.804671	-0.620508	99
Es	1.531001	1.530354	-0.353967	99
Es	2.876381	3.504072	-0.489492	99
Es	1.209168	0.260533	-0.020977	99
Es	1.441786	0.921056	-0.018803	99
Es	-1.861527	-1.961631	0.016798	99
Es	0.204692	-0.470260	-0.014134	99
Es	-0.579218	-0.504637	-0.005844	99
Es	1.806583	3.887823	-0.171138	99
Es	-0.832978	-1.224512	0.001901	99
Es	1.973779	1.371550	0.045405	99
Es	-0.844244	-2.311065	-0.594214	99
Es	-2.883587	-1.639164	0.625674	99
Es	2.085551	2.714368	-0.009081	99
46
Properties=species:S:1:pos:R:3:Z:I:1 energy=-272.1096651309781 field_type=dipole dipole="0.000000 0.000000 0.000000" charge=0
C	-2.616623	-1.988107	0.023506	6
C	-1.096993	-1.942727	0.010316	6
C	-0.579273	-0.504607	-0.005844	6
C	0.948717	-0.463577	-0.022184	6
C	1.441876	0.921314	-0.018804	6
C	1.848417	2.051574	-0.013214	6
C	2.343647	3.428273	-0.004024	6
H	-2.964703	-3.025687	0.037996	1
H	-3.031293	-1.503077	-0.865944	1
H	-3.016703	-1.483277	0.908656	1
H	-0.728783	-2.481457	-0.870444	1
H	-0.714423	-2.465937	0.894456	1
H	-0.955944	0.031773	0.874636	1
H	-0.973573	0.019343	-0.886134	1
H	1.325067	-0.983647	-0.910874	1
H	1.344387	-0.993297	0.852256	1
H	1.543477	4.131433	-0.253994	1
H	3.149086	3.557024	-0.733344	1
H	2.733636	3.694654	0.982986	1
Es	1.200581	-0.805104	-0.619802	99
Es	-0.833122	-1.224543	0.001925	99
Es	1.848507	2.051854	-0.013212	99
Es	2.600408	3.596427	0.652410	99
Es	-2.892418	-1.652792	-0.580433	99
Es	-0.835125	-2.300356	0.616236	99
Es	1.372020	1.583275	0.189580	99
Es	1.209463	0.261246	-0.020942	99
Es	-2.882854	-1.638705	0.624700	99
Es	0.948742	-0.463449	-0.022183	99
Es	-2.616602	-1.988109	0.023505	99
Es	-1.097021	-1.942700	0.010315	99
Es	1.807647	3.888035	-0.170720	99
Es	2.343605	3.428158	-0.004025	99
Es	-2.856968	-2.705027	0.033263	99
Es	-0.831517	-0.140918	0.596129	99
Es	0.205029	-0.470254	-0.014143	99
Es	2.875576	3.504685	-0.488612	99
Es	1.441788	0.921052	-0.018818	99
Es	-0.843422	-0.149613	-0.607535	99
Es	1.613158	1.501580	-0.371233	99
Es	-0.844762	-2.311470	-0.593697	99
Es	-0.579219	-0.504635	-0.005843	99
Es	1.213424	-0.811229	0.565966	99
Es	2.085188	2.713618	-0.009221	99
Es	-1.861632	-1.961491	0.016848	99
Es	1.946794	1.380742	0.132998	99
46
Properties=species:S:1:pos:R:3:Z:I:1 energy=-272.1096651309781 field_type=dipole dipole="0.000000 0.000000 0.000000" charge=0
C	-2.616623	-1.988107	0.023506	6
C	-1.096993	-1.942727	0.010316	6
C	-0.579273	-0.504607	-0.005844	6
C	0.948717	-0.463577	-0.022184	6
C	1.441876	0.921314	-0.018804	6
C	1.848417	2.051574	-0.013214	6
C	2.343647	3.428273	-0.004024	6
H	-2.964703	-3.025687	0.037996	1
H	-3.031293	-1.503077	-0.865944	1
H	-3.016703	-1.483277	0.908656	1
H	-0.728783	-2.481457	-0.870444	1
H	-0.714423	-2.465937	0.894456	1
H	-0.955944	0.031773	0.874636	1
H	-0.973573	0.019343	-0.886134	1
H	1.325067	-0.983647	-0.910874	1
H	1.344387	-0.993297	0.852256	1
H	1.543477	4.131433	-0.253994	1
H	3.149086	3.557024	-0.733344	1
H	2.733636	3.694654	0.982986	1
Es	-0.833151	-1.224501	0.001807	99
Es	-0.845404	-2.311651	-0.593161	99
Es	2.085071	2.713001	-0.009234	99
Es	-2.891781	-1.652615	-0.579479	99
Es	1.848508	2.051857	-0.013219	99
Es	1.209817	0.261742	-0.021198	99
Es	1.199927	-0.805162	-0.618965	99
Es	-0.842885	-0.149563	-0.606871	99
Es	-0.835523	-2.300510	0.615607	99
Es	2.600361	3.596732	0.651328	99
Es	1.212921	-0.811465	0.565372	99
Es	1.441787	0.921052	-0.018805	99
Es	1.976537	1.370829	-0.011043	99
Es	-2.857365	-2.705846	0.033187	99
Es	1.808465	3.888414	-0.170805	99
Es	-2.882239	-1.638591	0.623824	99
Es	2.343605	3.428157	-0.004025	99
Es	-0.579218	-0.504637	-0.005845	99
Es	2.874879	3.504845	-0.487512	99
Es	0.205163	-0.470261	-0.014208	99
Es	1.472944	1.547566	0.290352	99
Es	0.948742	-0.463448	-0.022184	99
Es	-1.097021	-1.942700	0.010316	99
Es	-1.861522	-1.961380	0.017001	99
Es	-2.616602	-1.988109	0.023506	99
Es	1.482394	1.547233	-0.327815	99
Es	-0.831139	-0.140709	0.595522	99
46
Properties=species:S:1:pos:R:3:Z:I:1 energy=-272.1096651309781 field_type=dipole dipole="0.000000 0.000000 0.000000" charge=0
C	-2.616623	-1.988107	0.023506	6
C	-1.096993	-1.942727	0.010316	6
C	-0.579273	-0.504607	-0.005844	6
C	0.948717	-0.463577	-0.022184	6
C	1.441876	0.921314	-0.018804	6
C	1.848417	2.051574	-0.013214	6
C	2.343647	3.428273	-0.004024	6
H	-2.964703	-3.025687	0.037996	1
H	-3.031293	-1.503077	-0.865944	1
H	-3.016703	-1.483277	0.908656	1
H	-0.728783	-2.481457	-0.870444	1
H	-0.714423	-2.465937	0.894456	1
H	-0.955944	0.031773	0.874636	1
H	-0.973573	0.019343	-0.886134	1
H	1.325067	-0.983647	-0.910874	1
H	1.344387	-0.993297	0.852256	1
H	1.543477	4.131433	-0.253994	1
H	3.149086	3.557024	-0.733344	1
H	2.733636	3.694654	0.982986	1
Es	-2.616602	-1.988109	0.023506	99
Es	-0.579218	-0.504637	-0.005845	99
Es	2.874446	3.505123	-0.486849	99
Es	2.084948	2.712645	-0.009308	99
Es	1.212380	-0.811596	0.564782	99
Es	1.199476	-0.805267	-0.618537	99
Es	1.441783	0.921051	-0.018807	99
Es	0.948742	-0.463448	-0.022184	99
Es	2.600223	3.596853	0.650461	99
Es	-0.845655	-2.311803	-0.592685	99
Es	-0.833188	-1.224472	0.001844	99
Es	-0.842520	-0.149488	-0.606375	99
Es	1.713204	1.462825	0.327552	99
Es	-2.857664	-2.706332	0.033192	99
Es	-1.097021	-1.942700	0.010316	99
Es	-2.891283	-1.652473	-0.578886	99
Es	-2.881737	-1.638511	0.623198	99
Es	1.332072	1.598649	-0.123350	99
Es	1.886734	1.404112	-0.252644	99
Es	-1.861599	-1.961361	0.016923	99
Es	1.809066	3.888554	-0.170644	99
Es	1.209885	0.262107	-0.020989	99
Es	1.848507	2.051858	-0.013213	99
Es	2.343605	3.428156	-0.004025	99
Es	-0.830785	-0.140618	0.595054	99
Es	-0.836031	-2.300554	0.615181	99
Es	0.205502	-0.470289	-0.014214	99
