40
Properties=species:S:1:pos:R:3:Z:I:1 energy=-322.7852113677819 field_type=dipole dipole="0.000000 0.000000 0.000000" charge=0
C	-2.464969	-0.660366	-0.017585	6
C	-1.005019	-0.469336	-0.007145	6
C	-0.179789	0.627544	-0.001465	6
C	1.123901	0.083014	0.007835	6
C	2.419861	0.795124	0.017315	6
N	1.091681	-1.255486	0.007835	7
O	-0.248729	-1.598786	-0.001775	8
H	-2.987459	0.301244	-0.009925	1
H	-2.784279	-1.227526	0.861955	1
H	-2.774119	-1.208396	-0.912975	1
H	-0.472489	1.666513	-0.003625	1
H	2.274111	1.880264	0.004195	1
H	3.015381	0.524064	-0.860445	1
H	2.991921	0.542134	0.915805	1
Es	1.091260	-1.255060	0.007831	99
Es	-1.725189	-0.561126	-0.011728	99
Es	2.791656	0.621174	0.618588	99
Es	1.342216	-1.537431	0.010069	99
Es	-2.661556	-1.036799	0.570031	99
Es	-0.371325	1.328650	-0.002798	99
Es	-2.654557	-1.023798	-0.615596	99
Es	1.761016	0.441968	0.012482	99
Es	1.123945	0.082996	0.007836	99
Es	0.299276	-1.425303	0.016358	99
Es	2.807590	0.609104	-0.570182	99
Es	-1.004973	-0.469613	-0.007143	99
Es	-0.495690	0.155013	-0.313504	99
Es	-0.339327	-1.850409	0.142863	99
Es	-0.518178	-1.166857	0.083397	99
Es	1.078007	-0.703249	0.290225	99
Es	-2.464890	-0.660346	-0.017584	99
Es	1.081268	-0.702627	-0.276378	99
Es	0.491434	0.413485	0.004570	99
Es	-0.248638	-1.598368	-0.001788	99
Es	-2.805478	-0.008564	-0.012406	99
Es	2.419793	0.795103	0.017315	99
Es	-0.504056	0.154519	0.304654	99
Es	2.310459	1.528345	0.008406	99
Es	-0.179790	0.627563	-0.001452	99
Es	-0.298904	-1.503738	-0.248089	99
40
Properties=species:S:1:pos:R:3:Z:I:1 energy=-322.7852113677819 field_type=dipole dipole="0.000000 0.000000 0.000000" charge=0
C	-2.464969	-0.660366	-0.017585	6
C	-1.005019	-0.469336	-0.007145	6
C	-0.179789	0.627544	-0.001465	6
C	1.123901	0.083014	0.007835	6
C	2.419861	0.795124	0.017315	6
N	1.091681	-1.255486	0.007835	7
O	-0.248729	-1.598786	-0.001775	8
H	-2.987459	0.301244	-0.009925	1
H	-2.784279	-1.227526	0.861955	1
H	-2.774119	-1.208396	-0.912975	1
H	-0.472489	1.666513	-0.003625	1
H	2.274111	1.880264	0.004195	1
H	3.015381	0.524064	-0.860445	1
H	2.991921	0.542134	0.915805	1
Es	2.312775	1.530573	0.008325	99
Es	1.344671	-1.536791	0.008981	99
Es	2.419794	0.795104	0.017313	99
Es	-0.359052	-1.907647	-0.005766	99
Es	-2.655113	-1.023678	-0.613341	99
Es	-2.662165	-1.036342	0.568028	99
Es	-0.499637	0.152113	-0.309494	99
Es	-2.464888	-0.660345	-0.017585	99
Es	1.076857	-0.700575	0.287059	99
Es	2.807450	0.609537	-0.566253	99
Es	2.791744	0.621699	0.614568	99
Es	-1.004975	-0.469618	-0.007143	99
Es	-0.179786	0.627566	-0.001471	99
Es	-2.807130	-0.009212	-0.012649	99
Es	0.303535	-1.425641	0.001759	99
Es	-0.262840	-1.462941	0.004040	99
Es	1.123947	0.083000	0.007834	99
Es	1.760130	0.439509	0.012517	99
Es	-0.500879	0.153157	0.302661	99
Es	-1.723282	-0.561258	-0.012274	99
Es	0.492883	0.410934	0.002980	99
Es	-0.541059	-1.151511	-0.006145	99
Es	-0.248615	-1.598323	-0.001826	99
Es	1.081595	-0.698559	-0.270974	99
Es	1.091195	-1.255070	0.007824	99
Es	-0.371785	1.328953	-0.002992	99
40
Properties=species:S:1:pos:R:3:Z:I:1 energy=-322.7852113677819 field_type=dipole dipole="0.000000 0.000000 0.000000" charge=0
C	-2.464969	-0.660366	-0.017585	6
C	-1.005019	-0.469336	-0.007145	6
C	-0.179789	0.627544	-0.001465	6
C	1.123901	0.083014	0.007835	6
C	2.419861	0.795124	0.017315	6
N	1.091681	-1.255486	0.007835	7
O	-0.248729	-1.598786	-0.001775	8
H	-2.987459	0.301244	-0.009925	1
H	-2.784279	-1.227526	0.861955	1
H	-2.774119	-1.208396	-0.912975	1
H	-0.472489	1.666513	-0.003625	1
H	2.274111	1.880264	0.004195	1
H	3.015381	0.524064	-0.860445	1
H	2.991921	0.542134	0.915805	1
Es	1.759666	0.437706	0.012470	99
Es	-2.808626	-0.009468	-0.012598	99
Es	-0.265037	-1.463621	-0.018762	99
Es	-0.502424	0.149616	-0.306740	99
Es	-2.662285	-1.036222	0.566177	99
Es	0.493440	0.409262	0.002719	99
Es	-1.721987	-0.561433	-0.012323	99
Es	-0.496597	0.153229	0.300150	99
Es	1.076880	-0.697714	0.283975	99
Es	0.303043	-1.425039	0.003081	99
Es	-0.179784	0.627573	-0.001466	99
Es	1.123947	0.083002	0.007838	99
Es	-0.360146	-1.908035	0.004678	99
Es	-0.372269	1.329403	-0.003002	99
Es	-0.248593	-1.598301	-0.001956	99
Es	-2.464891	-0.660346	-0.017585	99
Es	-0.539796	-1.152139	0.005153	99
Es	2.314945	1.532447	0.008615	99
Es	-1.004974	-0.469618	-0.007148	99
Es	1.080822	-0.697559	-0.268603	99
Es	2.419792	0.795102	0.017315	99
Es	-2.655185	-1.023382	-0.611572	99
Es	1.091173	-1.255057	0.007832	99
Es	2.806881	0.609891	-0.562930	99
Es	1.346192	-1.536332	0.009588	99
Es	2.791181	0.621668	0.611071	99
40
Properties=species:S:1:pos:R:3:Z:I:1 energy=-322.7852113677819 field_type=dipole dipole="0.000000 0.000000 0.000000" charge=0
C	-2.464969	-0.660366	-0.017585	6
C	-1.005019	-0.469336	-0.007145	6
C	-0.179789	0.627544	-0.001465	6
C	1.123901	0.083014	0.007835	6
C	2.419861	0.795124	0.017315	6
N	1.091681	-1.255486	0.007835	7
O	-0.248729	-1.598786	-0.001775	8
H	-2.987459	0.301244	-0.009925	1
H	-2.784279	-1.227526	0.861955	1
H	-2.774119	-1.208396	-0.912975	1
H	-0.472489	1.666513	-0.003625	1
H	2.274111	1.880264	0.004195	1
H	3.015381	0.524064	-0.860445	1
H	2.991921	0.542134	0.915805	1
Es	2.419792	0.795103	0.017315	99
Es	0.493750	0.407878	0.002787	99
Es	-2.654845	-1.022748	-0.610025	99
Es	1.759838	0.436170	0.012452	99
Es	2.790062	0.621912	0.608196	99
Es	-2.809857	-0.009548	-0.012657	99
Es	1.123948	0.083003	0.007828	99
Es	-0.248616	-1.598292	-0.001620	99
Es	-1.721220	-0.561641	-0.012445	99
Es	-2.662397	-1.036581	0.564896	99
Es	2.316743	1.534060	0.008517	99
Es	1.091182	-1.255059	0.007833	99
Es	-0.500791	0.149266	-0.304955	99
Es	1.076288	-0.696317	0.281381	99
Es	1.080441	-0.696203	-0.266266	99
Es	-0.497228	0.151997	0.298321	99
Es	2.806436	0.609809	-0.559900	99
Es	-0.361113	-1.908443	-0.003624	99
Es	-1.004974	-0.469617	-0.007142	99
Es	-0.538770	-1.152342	-0.001395	99
Es	1.347621	-1.536008	0.009859	99
Es	-0.372500	1.329704	-0.003112	99
Es	-2.464890	-0.660346	-0.017584	99
Es	0.302798	-1.424708	0.002096	99
Es	-0.179784	0.627571	-0.001468	99
Es	-0.266547	-1.463986	-0.003311	99
40
Properties=species:S:1:pos:R:3:Z:I:1 energy=-322.7852113677819 field_type=dipole dipole="0.000000 0.000000 0.000000" charge=0
C	-2.464969	-0.660366	-0.017585	6
C	-1.005019	-0.469336	-0.007145	6
C	-0.179789	0.627544	-0.001465	6
C	1.123901	0.083014	0.007835	6
C	2.419861	0.795124	0.017315	6
N	1.091681	-1.255486	0.007835	7
O	-0.248729	-1.598786	-0.001775	8
H	-2.987459	0.301244	-0.009925	1
H	-2.784279	-1.227526	0.861955	1
H	-2.774119	-1.208396	-0.912975	1
H	-0.472489	1.666513	-0.003625	1
H	2.274111	1.880264	0.004195	1
H	3.015381	0.524064	-0.860445	1
H	2.991921	0.542134	0.915805	1
Es	2.806059	0.609742	-0.557462	99
Es	0.302662	-1.424472	0.001859	99
Es	-2.810827	-0.009619	-0.012687	99
Es	1.075674	-0.695732	0.279437	99
Es	1.091180	-1.255078	0.007816	99
Es	-0.179785	0.627572	-0.001467	99
Es	-0.267682	-1.464323	-0.002142	99
Es	1.348986	-1.535696	0.009455	99
Es	1.080069	-0.694661	-0.263830	99
Es	-0.537977	-1.152627	-0.003193	99
Es	1.123948	0.083003	0.007835	99
Es	-2.654558	-1.022373	-0.608885	99
Es	-2.662442	-1.036659	0.563719	99
Es	1.760055	0.434830	0.012594	99
Es	-0.372699	1.329990	-0.002928	99
Es	-1.004973	-0.469614	-0.007137	99
Es	2.419793	0.795101	0.017319	99
Es	-0.248613	-1.598185	-0.002086	99
Es	-0.361874	-1.908604	-0.002361	99
Es	-0.493764	0.152096	0.296905	99
Es	0.493767	0.406986	0.002557	99
Es	2.318414	1.535245	0.008677	99
Es	-0.503262	0.147666	-0.303456	99
Es	2.788785	0.622265	0.605392	99
Es	-1.720679	-0.561874	-0.012371	99
Es	-2.464889	-0.660347	-0.017583	99
40
Properties=species:S:1:pos:R:3:Z:I:1 energy=-322.7852113677819 field_type=dipole dipole="0.000000 0.000000 0.000000" charge=0
C	-2.464969	-0.660366	-0.017585	6
C	-1.005019	-0.469336	-0.007145	6
C	-0.179789	0.627544	-0.001465	6
C	1.123901	0.083014	0.007835	6
C	2.419861	0.795124	0.017315	6
N	1.091681	-1.255486	0.007835	7
O	-0.248729	-1.598786	-0.001775	8
H	-2.987459	0.301244	-0.009925	1
H	-2.784279	-1.227526	0.861955	1
H	-2.774119	-1.208396	-0.912975	1
H	-0.472489	1.666513	-0.003625	1
H	2.274111	1.880264	0.004195	1
H	3.015381	0.524064	-0.860445	1
H	2.991921	0.542134	0.915805	1
Es	-0.362368	-1.908707	-0.005231	99
Es	2.419792	0.795102	0.017314	99
Es	-0.179785	0.627572	-0.001460	99
Es	1.123948	0.083003	0.007835	99
Es	-0.268773	-1.464413	0.001479	99
Es	-2.661019	-1.034259	0.562437	99
Es	1.079348	-0.695452	-0.263046	99
Es	1.091196	-1.255050	0.007834	99
Es	-1.720296	-0.561933	-0.012327	99
Es	-2.811518	-0.009809	-0.012249	99
Es	1.075853	-0.693890	0.277880	99
Es	-1.004973	-0.469617	-0.007143	99
Es	-2.655759	-1.024556	-0.608632	99
Es	0.493783	0.406258	0.007369	99
Es	-0.537235	-1.152957	-0.008283	99
Es	-0.372876	1.330162	-0.002240	99
Es	2.802624	0.611289	-0.554682	99
Es	-0.464535	0.159378	-0.298449	99
Es	0.302487	-1.424178	0.005237	99
Es	-0.248631	-1.598153	-0.001457	99
Es	2.790747	0.620967	0.604230	99
Es	1.760278	0.433956	0.011949	99
Es	2.319782	1.536016	0.008200	99
Es	-2.464889	-0.660346	-0.017585	99
Es	1.349625	-1.535505	0.009697	99
Es	-0.531437	0.139756	0.287298	99
40
Properties=species:S:1:pos:R:3:Z:I:1 energy=-322.7852113677819 field_type=dipole dipole="0.000000 0.000000 0.000000" charge=0
C	-2.464969	-0.660366	-0.017585	6
C	-1.005019	-0.469336	-0.007145	6
C	-0.179789	0.627544	-0.001465	6
C	1.123901	0.083014	0.007835	6
C	2.419861	0.795124	0.017315	6
N	1.091681	-1.255486	0.007835	7
O	-0.248729	-1.598786	-0.001775	8
H	-2.987459	0.301244	-0.009925	1
H	-2.784279	-1.227526	0.861955	1
H	-2.774119	-1.208396	-0.912975	1
H	-0.472489	1.666513	-0.003625	1
H	2.274111	1.880264	0.004195	1
H	3.015381	0.524064	-0.860445	1
H	2.991921	0.542134	0.915805	1
Es	0.302405	-1.424266	0.008396	99
Es	-0.270596	-1.464099	0.006860	99
Es	1.760011	0.434684	0.011531	99
Es	-2.660259	-1.032436	0.562764	99
Es	1.123948	0.083003	0.007838	99
Es	-0.179785	0.627572	-0.001472	99
Es	2.794177	0.619698	0.605867	99
Es	2.419793	0.795102	0.017316	99
Es	-2.810542	-0.010206	-0.011856	99
Es	-0.536529	-1.153137	-0.011292	99
Es	-0.579822	0.124626	0.244832	99
Es	-0.372580	1.330199	-0.001486	99
Es	2.319170	1.535562	0.006918	99
Es	0.493781	0.405858	0.013294	99
Es	2.799823	0.612643	-0.554014	99
Es	-0.413638	0.176430	-0.261667	99
Es	1.078410	-0.699335	-0.265605	99
Es	-0.362680	-1.908674	-0.010390	99
Es	-1.004973	-0.469619	-0.007144	99
Es	1.091183	-1.255050	0.007838	99
Es	-2.657107	-1.026526	-0.610002	99
Es	1.077020	-0.692170	0.278933	99
Es	-2.464890	-0.660346	-0.017585	99
Es	-1.720634	-0.561518	-0.012374	99
Es	-0.248619	-1.598240	-0.002009	99
Es	1.348299	-1.535122	0.010487	99
40
Properties=species:S:1:pos:R:3:Z:I:1 energy=-322.7852113677819 field_type=dipole dipole="0.000000 0.000000 0.000000" charge=0
C	-2.464969	-0.660366	-0.017585	6
C	-1.005019	-0.469336	-0.007145	6
C	-0.179789	0.627544	-0.001465	6
C	1.123901	0.083014	0.007835	6
C	2.419861	0.795124	0.017315	6
N	1.091681	-1.255486	0.007835	7
O	-0.248729	-1.598786	-0.001775	8
H	-2.987459	0.301244	-0.009925	1
H	-2.784279	-1.227526	0.861955	1
H	-2.774119	-1.208396	-0.912975	1
H	-0.472489	1.666513	-0.003625	1
H	2.274111	1.880264	0.004195	1
H	3.015381	0.524064	-0.860445	1
H	2.991921	0.542134	0.915805	1
Es	0.302388	-1.423861	-0.004320	99
Es	-2.652255	-1.017975	-0.607670	99
Es	-0.271495	-1.463832	-0.011538	99
Es	-1.004974	-0.469617	-0.007138	99
Es	1.347554	-1.534886	0.008512	99
Es	-2.464889	-0.660346	-0.017584	99
Es	2.783645	0.624564	0.601465	99
Es	1.074657	-0.699821	0.281821	99
Es	1.081059	-0.692441	-0.264528	99
Es	-2.665268	-1.041063	0.564593	99
Es	2.810368	0.607768	-0.557570	99
Es	-0.589016	0.120407	-0.234564	99
Es	-0.535979	-1.153505	0.005292	99
Es	2.319186	1.535611	0.010620	99
Es	-0.179785	0.627568	-0.001498	99
Es	-0.363203	-1.908839	0.005010	99
Es	-1.720763	-0.561320	-0.012337	99
Es	1.123948	0.083003	0.007830	99
Es	1.759942	0.434826	0.013645	99
Es	-2.810311	-0.010381	-0.013608	99
Es	1.091180	-1.255056	0.007839	99
Es	-0.372397	1.330214	-0.004241	99
Es	2.419791	0.795102	0.017316	99
Es	-0.248600	-1.598327	-0.001870	99
Es	-0.403467	0.181224	0.237262	99
Es	0.494056	0.405616	-0.006759	99
40
Properties=species:S:1:pos:R:3:Z:I:1 energy=-322.7852113677819 field_type=dipole dipole="0.000000 0.000000 0.000000" charge=0
C	-2.464969	-0.660366	-0.017585	6
C	-1.005019	-0.469336	-0.007145	6
C	-0.179789	0.627544	-0.001465	6
C	1.123901	0.083014	0.007835	6
C	2.419861	0.795124	0.017315	6
N	1.091681	-1.255486	0.007835	7
O	-0.248729	-1.598786	-0.001775	8
H	-2.987459	0.301244	-0.009925	1
H	-2.784279	-1.227526	0.861955	1
H	-2.774119	-1.208396	-0.912975	1
H	-0.472489	1.666513	-0.003625	1
H	2.274111	1.880264	0.004195	1
H	3.015381	0.524064	-0.860445	1
H	2.991921	0.542134	0.915805	1
Es	-1.004974	-0.469617	-0.007151	99
Es	-2.660256	-1.032134	0.563250	99
Es	1.123948	0.083003	0.007839	99
Es	-2.657548	-1.026887	-0.610791	99
Es	0.494020	0.405409	0.015121	99
Es	-0.603934	0.116780	0.203475	99
Es	1.759933	0.434932	0.011317	99
Es	1.091180	-1.255054	0.007844	99
Es	2.794252	0.619582	0.606115	99
Es	2.799721	0.612780	-0.553750	99
Es	-2.809884	-0.010637	-0.011707	99
Es	-0.248626	-1.598121	-0.002189	99
Es	-0.272954	-1.463763	0.016399	99
Es	-0.387102	0.185801	-0.222057	99
Es	-0.535194	-1.153752	-0.018945	99
Es	1.077659	-0.692039	0.280349	99
Es	-2.464889	-0.660347	-0.017585	99
Es	2.419792	0.795103	0.017314	99
Es	1.347109	-1.534680	0.010178	99
Es	-0.372288	1.330251	-0.001207	99
Es	-1.720861	-0.561154	-0.012353	99
Es	1.077845	-0.701203	-0.267142	99
Es	-0.363198	-1.908744	-0.013644	99
Es	-0.179788	0.627571	-0.001441	99
Es	2.319170	1.535548	0.006822	99
Es	0.302236	-1.423997	0.009916	99
40
Properties=species:S:1:pos:R:3:Z:I:1 energy=-322.7852113677819 field_type=dipole dipole="0.000000 0.000000 0.000000" charge=0
C	-2.464969	-0.660366	-0.017585	6
C	-1.005019	-0.469336	-0.007145	6
C	-0.179789	0.627544	-0.001465	6
C	1.123901	0.083014	0.007835	6
C	2.419861	0.795124	0.017315	6
N	1.091681	-1.255486	0.007835	7
O	-0.248729	-1.598786	-0.001775	8
H	-2.987459	0.301244	-0.009925	1
H	-2.784279	-1.227526	0.861955	1
H	-2.774119	-1.208396	-0.912975	1
H	-0.472489	1.666513	-0.003625	1
H	2.274111	1.880264	0.004195	1
H	3.015381	0.524064	-0.860445	1
H	2.991921	0.542134	0.915805	1
Es	2.810126	0.607787	-0.557548	99
Es	1.091177	-1.255041	0.007849	99
Es	1.074352	-0.700657	0.282784	99
Es	-2.665328	-1.040711	0.565358	99
Es	-2.809630	-0.010848	-0.013599	99
Es	1.346810	-1.534510	0.009056	99
Es	2.319223	1.535593	0.010396	99
Es	-0.248609	-1.598319	-0.001667	99
Es	2.419798	0.795102	0.017318	99
Es	-2.464889	-0.660348	-0.017587	99
Es	-0.535149	-1.153895	0.012540	99
Es	-0.273488	-1.463350	-0.021136	99
Es	-0.179785	0.627573	-0.001472	99
Es	-1.004974	-0.469617	-0.007144	99
Es	0.302388	-1.424036	-0.005015	99
Es	-0.372082	1.330318	-0.004373	99
Es	1.081212	-0.692951	-0.265722	99
Es	1.759809	0.435073	0.013669	99
Es	-0.384380	0.187781	0.204624	99
Es	-0.606154	0.114960	-0.201070	99
Es	-1.720891	-0.560948	-0.012326	99
Es	2.783868	0.624564	0.601557	99
Es	0.494238	0.405213	-0.007894	99
Es	-0.363497	-1.908798	0.007920	99
Es	-2.652724	-1.018306	-0.608374	99
Es	1.123948	0.083004	0.007833	99
40
Properties=species:S:1:pos:R:3:Z:I:1 energy=-322.7852113677819 field_type=dipole dipole="0.000000 0.000000 0.000000" charge=0
C	-2.464969	-0.660366	-0.017585	6
C	-1.005019	-0.469336	-0.007145	6
C	-0.179789	0.627544	-0.001465	6
C	1.123901	0.083014	0.007835	6
C	2.419861	0.795124	0.017315	6
N	1.091681	-1.255486	0.007835	7
O	-0.248729	-1.598786	-0.001775	8
H	-2.987459	0.301244	-0.009925	1
H	-2.784279	-1.227526	0.861955	1
H	-2.774119	-1.208396	-0.912975	1
H	-0.472489	1.666513	-0.003625	1
H	2.274111	1.880264	0.004195	1
H	3.015381	0.524064	-0.860445	1
H	2.991921	0.542134	0.915805	1
Es	2.799784	0.612867	-0.553918	99
Es	2.319117	1.535471	0.007032	99
Es	1.346340	-1.534301	0.009974	99
Es	1.759781	0.435211	0.011310	99
Es	-1.004974	-0.469616	-0.007147	99
Es	2.419796	0.795100	0.017308	99
Es	1.077927	-0.701485	-0.268147	99
Es	0.494088	0.405017	0.016011	99
Es	-0.615290	0.113056	0.175730	99
Es	-0.374184	0.190398	-0.195068	99
Es	1.077625	-0.692855	0.281567	99
Es	-0.248867	-1.596951	-0.002447	99
Es	1.123948	0.083003	0.007841	99
Es	-0.273994	-1.464624	0.017087	99
Es	-2.464890	-0.660346	-0.017585	99
Es	2.794269	0.619574	0.606062	99
Es	-2.657816	-1.027076	-0.611252	99
Es	1.091181	-1.255054	0.007834	99
Es	-2.809437	-0.010970	-0.011682	99
Es	-0.179785	0.627572	-0.001466	99
Es	-0.534649	-1.154054	-0.020074	99
Es	-2.660291	-1.031966	0.563653	99
Es	-0.363571	-1.908886	-0.012135	99
Es	-0.372040	1.330371	-0.001104	99
Es	-1.720989	-0.560916	-0.012374	99
Es	0.302291	-1.423907	0.008970	99
40
Properties=species:S:1:pos:R:3:Z:I:1 energy=-322.7852113677819 field_type=dipole dipole="0.000000 0.000000 0.000000" charge=0
C	-2.464969	-0.660366	-0.017585	6
C	-1.005019	-0.469336	-0.007145	6
C	-0.179789	0.627544	-0.001465	6
C	1.123901	0.083014	0.007835	6
C	2.419861	0.795124	0.017315	6
N	1.091681	-1.255486	0.007835	7
O	-0.248729	-1.598786	-0.001775	8
H	-2.987459	0.301244	-0.009925	1
H	-2.784279	-1.227526	0.861955	1
H	-2.774119	-1.208396	-0.912975	1
H	-0.472489	1.666513	-0.003625	1
H	2.274111	1.880264	0.004195	1
H	3.015381	0.524064	-0.860445	1
H	2.991921	0.542134	0.915805	1
Es	2.809612	0.608167	-0.558127	99
Es	2.784580	0.624204	0.601822	99
Es	1.759683	0.435397	0.013710	99
Es	-0.616288	0.111945	-0.175126	99
Es	-1.004974	-0.469617	-0.007144	99
Es	1.346036	-1.534096	0.008836	99
Es	0.302405	-1.423886	-0.004603	99
Es	-0.363658	-1.908948	0.006126	99
Es	-0.248602	-1.598341	-0.001783	99
Es	2.319016	1.535473	0.010686	99
Es	-2.653047	-1.018657	-0.608923	99
Es	-2.809182	-0.011099	-0.013591	99
Es	-0.179786	0.627562	-0.001516	99
Es	2.419792	0.795104	0.017314	99
Es	-2.464889	-0.660346	-0.017584	99
Es	1.123947	0.083003	0.007833	99
Es	-2.665261	-1.040408	0.565927	99
Es	1.091177	-1.255059	0.007829	99
Es	-0.371802	1.330417	-0.004451	99
Es	-0.372996	0.191702	0.179503	99
Es	1.074420	-0.701001	0.284123	99
Es	1.081192	-0.693581	-0.266832	99
Es	-0.274378	-1.463231	-0.017531	99
Es	-0.535010	-1.154057	0.010465	99
Es	-1.721064	-0.560821	-0.012336	99
Es	0.494445	0.404809	-0.008649	99
40
Properties=species:S:1:pos:R:3:Z:I:1 energy=-322.7852113677819 field_type=dipole dipole="0.000000 0.000000 0.000000" charge=0
C	-2.464969	-0.660366	-0.017585	6
C	-1.005019	-0.469336	-0.007145	6
C	-0.179789	0.627544	-0.001465	6
C	1.123901	0.083014	0.007835	6
C	2.419861	0.795124	0.017315	6
N	1.091681	-1.255486	0.007835	7
O	-0.248729	-1.598786	-0.001775	8
H	-2.987459	0.301244	-0.009925	1
H	-2.784279	-1.227526	0.861955	1
H	-2.774119	-1.208396	-0.912975	1
H	-0.472489	1.666513	-0.003625	1
H	2.274111	1.880264	0.004195	1
H	3.015381	0.524064	-0.860445	1
H	2.991921	0.542134	0.915805	1
Es	1.081338	-0.693023	-0.266602	99
Es	2.809524	0.608133	-0.557718	99
Es	2.784418	0.624146	0.601684	99
Es	-2.809287	-0.011266	-0.013648	99
Es	-2.665176	-1.040205	0.565914	99
Es	-0.363929	-1.908929	0.007702	99
Es	1.759616	0.435432	0.013449	99
Es	-0.248690	-1.598007	-0.001402	99
Es	1.345925	-1.534014	0.008417	99
Es	-0.371789	1.330446	-0.004312	99
Es	-2.653090	-1.018880	-0.608935	99
Es	-1.004975	-0.469615	-0.007145	99
Es	-2.464890	-0.660347	-0.017584	99
Es	1.074128	-0.701744	0.284304	99
Es	-0.534624	-1.154156	0.010911	99
Es	-0.179785	0.627572	-0.001480	99
Es	2.319357	1.535569	0.010629	99
Es	-1.721016	-0.560665	-0.012280	99
Es	-0.370725	0.192529	0.173307	99
Es	-0.274609	-1.463557	-0.019858	99
Es	1.123948	0.083004	0.007832	99
Es	0.302385	-1.423810	-0.004749	99
Es	2.419797	0.795104	0.017310	99
Es	-0.618185	0.111191	-0.169342	99
Es	1.091182	-1.255057	0.007823	99
Es	0.494520	0.404779	-0.008248	99
40
Properties=species:S:1:pos:R:3:Z:I:1 energy=-322.7852113677819 field_type=dipole dipole="0.000000 0.000000 0.000000" charge=0
C	-2.464969	-0.660366	-0.017585	6
C	-1.005019	-0.469336	-0.007145	6
C	-0.179789	0.627544	-0.001465	6
C	1.123901	0.083014	0.007835	6
C	2.419861	0.795124	0.017315	6
N	1.091681	-1.255486	0.007835	7
O	-0.248729	-1.598786	-0.001775	8
H	-2.987459	0.301244	-0.009925	1
H	-2.784279	-1.227526	0.861955	1
H	-2.774119	-1.208396	-0.912975	1
H	-0.472489	1.666513	-0.003625	1
H	2.274111	1.880264	0.004195	1
H	3.015381	0.524064	-0.860445	1
H	2.991921	0.542134	0.915805	1
Es	-0.179785	0.627571	-0.001482	99
Es	1.091172	-1.255076	0.007834	99
Es	-2.657587	-1.026421	-0.611789	99
Es	2.419792	0.795103	0.017314	99
Es	1.345601	-1.533925	0.010646	99
Es	-0.363998	-1.908879	-0.013557	99
Es	-0.371688	1.330501	-0.001434	99
Es	1.123948	0.083003	0.007837	99
Es	2.793616	0.619926	0.606201	99
Es	-0.248597	-1.598318	-0.001679	99
Es	-2.464889	-0.660346	-0.017585	99
Es	-0.624300	0.110130	0.147613	99
Es	-1.004972	-0.469618	-0.007143	99
Es	0.302265	-1.423799	0.009374	99
Es	-2.808869	-0.011281	-0.011836	99
Es	-1.721178	-0.560698	-0.012400	99
Es	0.494320	0.404527	0.015851	99
Es	2.800347	0.612497	-0.553886	99
Es	-0.275220	-1.463295	0.014153	99
Es	-0.534296	-1.154129	-0.016719	99
Es	2.319233	1.535488	0.006818	99
Es	1.078030	-0.701995	-0.269485	99
Es	1.759653	0.435477	0.011290	99
Es	-2.660911	-1.032610	0.564396	99
Es	1.077580	-0.693220	0.282271	99
Es	-0.363897	0.194021	-0.166625	99
40
Properties=species:S:1:pos:R:3:Z:I:1 energy=-322.7852113677819 field_type=dipole dipole="0.000000 0.000000 0.000000" charge=0
C	-2.464969	-0.660366	-0.017585	6
C	-1.005019	-0.469336	-0.007145	6
C	-0.179789	0.627544	-0.001465	6
C	1.123901	0.083014	0.007835	6
C	2.419861	0.795124	0.017315	6
N	1.091681	-1.255486	0.007835	7
O	-0.248729	-1.598786	-0.001775	8
H	-2.987459	0.301244	-0.009925	1
H	-2.784279	-1.227526	0.861955	1
H	-2.774119	-1.208396	-0.912975	1
H	-0.472489	1.666513	-0.003625	1
H	2.274111	1.880264	0.004195	1
H	3.015381	0.524064	-0.860445	1
H	2.991921	0.542134	0.915805	1
Es	1.123949	0.083004	0.007831	99
Es	-0.364245	-1.909068	0.005353	99
Es	2.319413	1.535616	0.010591	99
Es	-0.371778	1.330471	-0.004295	99
Es	-2.464890	-0.660346	-0.017584	99
Es	-0.366645	0.193698	0.161784	99
Es	0.302306	-1.423793	-0.004803	99
Es	-0.248597	-1.598344	-0.001790	99
Es	-1.721151	-0.560547	-0.012184	99
Es	-0.621642	0.110034	-0.158025	99
Es	2.419793	0.795104	0.017314	99
Es	-2.653005	-1.018655	-0.609264	99
Es	1.081463	-0.692645	-0.266463	99
Es	2.784303	0.624324	0.601354	99
Es	1.759650	0.435276	0.013642	99
Es	-0.179785	0.627572	-0.001484	99
Es	2.809523	0.608174	-0.557504	99
Es	-2.809149	-0.011342	-0.013432	99
Es	-0.274997	-1.463265	-0.014239	99
Es	0.494626	0.404611	-0.008137	99
Es	-2.665274	-1.040512	0.565899	99
Es	1.345693	-1.533825	0.007963	99
Es	1.074035	-0.702145	0.284682	99
Es	-1.004974	-0.469617	-0.007144	99
Es	-0.534431	-1.154091	0.008085	99
Es	1.091178	-1.255055	0.007829	99
