42
Properties=species:S:1:pos:R:3:Z:I:1 energy=-339.9333396366264 field_type=dipole dipole="0.000000 0.000000 0.000000" charge=0
C	-1.884325	0.825649	-0.267690	6
C	-0.768345	-0.157441	-0.173730	6
C	0.011455	-0.540151	-1.401110	6
N	0.601775	0.317139	-0.370860	7
N	1.440265	-0.457641	0.424730	7
C	1.865815	0.032359	1.633160	6
O	2.757315	-0.484811	2.294440	8
H	-1.999435	1.358089	0.682570	1
H	-2.824805	0.306799	-0.481350	1
H	-1.720975	1.568899	-1.056380	1
H	-0.958855	-0.917001	0.576290	1
H	-0.216155	-0.047091	-2.338270	1
H	0.343455	-1.566521	-1.498990	1
H	2.034355	-1.169281	0.012260	1
H	1.318455	0.930999	1.964930	1
Es	0.010809	0.169222	-0.152888	99
Es	0.011544	-0.540012	-1.400904	99
Es	1.440660	-0.457200	0.424631	99
Es	0.675062	0.668923	-0.426196	99
Es	2.286776	-0.458044	2.183735	99
Es	-1.314665	0.344367	-0.229708	99
Es	-1.884307	0.825625	-0.267686	99
Es	-0.768149	-0.157375	-0.173845	99
Es	1.032274	-0.089891	0.028546	99
Es	1.792630	-0.858557	0.160131	99
Es	1.865740	0.032302	1.633017	99
Es	-0.881941	-0.670210	0.336356	99
Es	0.479410	-0.060349	-0.877745	99
Es	1.294797	-0.583193	0.713296	99
Es	-2.515562	0.465105	-0.411227	99
Es	1.710691	-0.168509	0.821641	99
Es	2.621399	-0.161418	1.962181	99
Es	2.757071	-0.484695	2.294229	99
Es	0.254395	-1.229221	-1.459640	99
Es	2.875192	-0.730944	2.142211	99
Es	-0.140102	-0.205892	-2.033888	99
Es	2.804364	-0.339006	2.560201	99
Es	1.484272	0.641919	1.847988	99
Es	-0.547075	-0.466462	-0.877629	99
Es	-1.958288	1.182258	0.379524	99
Es	0.601594	0.316431	-0.370754	99
Es	-1.767905	1.323745	-0.804552	99
42
Properties=species:S:1:pos:R:3:Z:I:1 energy=-339.9333396366264 field_type=dipole dipole="0.000000 0.000000 0.000000" charge=0
C	-1.884325	0.825649	-0.267690	6
C	-0.768345	-0.157441	-0.173730	6
C	0.011455	-0.540151	-1.401110	6
N	0.601775	0.317139	-0.370860	7
N	1.440265	-0.457641	0.424730	7
C	1.865815	0.032359	1.633160	6
O	2.757315	-0.484811	2.294440	8
H	-1.999435	1.358089	0.682570	1
H	-2.824805	0.306799	-0.481350	1
H	-1.720975	1.568899	-1.056380	1
H	-0.958855	-0.917001	0.576290	1
H	-0.216155	-0.047091	-2.338270	1
H	0.343455	-1.566521	-1.498990	1
H	2.034355	-1.169281	0.012260	1
H	1.318455	0.930999	1.964930	1
Es	-0.881502	-0.668910	0.336095	99
Es	-0.140797	-0.206016	-2.034871	99
Es	0.480244	-0.058724	-0.882217	99
Es	0.601602	0.316452	-0.370760	99
Es	2.624180	-0.166383	1.967000	99
Es	1.303841	-0.582801	0.688990	99
Es	2.283885	-0.457053	2.176292	99
Es	-1.768054	1.322704	-0.803572	99
Es	1.030731	-0.089582	0.030550	99
Es	0.254363	-1.227723	-1.459324	99
Es	2.868361	-0.723462	2.135433	99
Es	-0.546443	-0.468916	-0.878039	99
Es	1.701142	-0.171650	0.845756	99
Es	1.483500	0.640952	1.848507	99
Es	2.812084	-0.341658	2.569249	99
Es	-1.958379	1.183075	0.380006	99
Es	-1.314609	0.344141	-0.230160	99
Es	0.672488	0.661837	-0.424177	99
Es	0.011538	-0.540013	-1.400904	99
Es	0.010598	0.173121	-0.150926	99
Es	-0.768150	-0.157374	-0.173844	99
Es	-1.884307	0.825625	-0.267686	99
Es	1.796675	-0.854492	0.159839	99
Es	1.440627	-0.457225	0.424615	99
Es	1.865733	0.032300	1.633017	99
Es	2.757070	-0.484672	2.294255	99
Es	-2.515739	0.465369	-0.412100	99
42
Properties=species:S:1:pos:R:3:Z:I:1 energy=-339.9333396366264 field_type=dipole dipole="0.000000 0.000000 0.000000" charge=0
C	-1.884325	0.825649	-0.267690	6
C	-0.768345	-0.157441	-0.173730	6
C	0.011455	-0.540151	-1.401110	6
N	0.601775	0.317139	-0.370860	7
N	1.440265	-0.457641	0.424730	7
C	1.865815	0.032359	1.633160	6
O	2.757315	-0.484811	2.294440	8
H	-1.999435	1.358089	0.682570	1
H	-2.824805	0.306799	-0.481350	1
H	-1.720975	1.568899	-1.056380	1
H	-0.958855	-0.917001	0.576290	1
H	-0.216155	-0.047091	-2.338270	1
H	0.343455	-1.566521	-1.498990	1
H	2.034355	-1.169281	0.012260	1
H	1.318455	0.930999	1.964930	1
Es	0.481007	-0.056843	-0.884520	99
Es	-1.768122	1.322134	-0.803069	99
Es	-0.881233	-0.668269	0.335972	99
Es	2.822439	-0.349530	2.573028	99
Es	0.254424	-1.226593	-1.459020	99
Es	2.282754	-0.455436	2.177434	99
Es	1.692531	-0.175944	0.863041	99
Es	-0.546305	-0.470437	-0.877968	99
Es	0.670783	0.656629	-0.423103	99
Es	0.011542	-0.540008	-1.400894	99
Es	1.029388	-0.089722	0.031819	99
Es	-2.515983	0.465480	-0.412439	99
Es	1.483163	0.640442	1.848712	99
Es	-1.958418	1.183552	0.379913	99
Es	-0.768143	-0.157373	-0.173848	99
Es	-1.314521	0.344034	-0.230222	99
Es	-1.884306	0.825624	-0.267686	99
Es	2.859890	-0.717798	2.127280	99
Es	0.010216	0.175475	-0.150003	99
Es	1.865735	0.032301	1.633015	99
Es	1.311946	-0.581345	0.671338	99
Es	-0.141200	-0.206210	-2.035559	99
Es	1.440831	-0.457061	0.424641	99
Es	1.799764	-0.850567	0.159591	99
Es	2.623839	-0.165367	1.970061	99
Es	0.601595	0.316421	-0.370745	99
Es	2.757068	-0.484669	2.294257	99
42
Properties=species:S:1:pos:R:3:Z:I:1 energy=-339.9333396366264 field_type=dipole dipole="0.000000 0.000000 0.000000" charge=0
C	-1.884325	0.825649	-0.267690	6
C	-0.768345	-0.157441	-0.173730	6
C	0.011455	-0.540151	-1.401110	6
N	0.601775	0.317139	-0.370860	7
N	1.440265	-0.457641	0.424730	7
C	1.865815	0.032359	1.633160	6
O	2.757315	-0.484811	2.294440	8
H	-1.999435	1.358089	0.682570	1
H	-2.824805	0.306799	-0.481350	1
H	-1.720975	1.568899	-1.056380	1
H	-0.958855	-0.917001	0.576290	1
H	-0.216155	-0.047091	-2.338270	1
H	0.343455	-1.566521	-1.498990	1
H	2.034355	-1.169281	0.012260	1
H	1.318455	0.930999	1.964930	1
Es	-1.884307	0.825624	-0.267686	99
Es	1.865732	0.032299	1.633015	99
Es	1.028887	-0.089635	0.032675	99
Es	2.854488	-0.711857	2.122836	99
Es	1.800299	-0.850128	0.159768	99
Es	0.669772	0.652264	-0.422715	99
Es	-1.958408	1.183773	0.379870	99
Es	-0.768145	-0.157372	-0.173848	99
Es	1.689976	-0.177300	0.867560	99
Es	-1.314374	0.344046	-0.230534	99
Es	1.482973	0.640118	1.848860	99
Es	0.009332	0.177415	-0.149408	99
Es	2.623381	-0.166256	1.972232	99
Es	0.254435	-1.225893	-1.458914	99
Es	2.757046	-0.484624	2.294274	99
Es	-0.881083	-0.667841	0.335889	99
Es	2.829230	-0.354152	2.576337	99
Es	-2.516059	0.465524	-0.412508	99
Es	2.282073	-0.455728	2.176275	99
Es	-0.545898	-0.471316	-0.877664	99
Es	1.315512	-0.579409	0.666475	99
Es	1.440647	-0.457206	0.424592	99
Es	0.601606	0.316419	-0.370741	99
Es	0.482099	-0.055432	-0.886041	99
Es	-0.141652	-0.206254	-2.035923	99
Es	0.011534	-0.540014	-1.400902	99
Es	-1.768411	1.321857	-0.802748	99
42
Properties=species:S:1:pos:R:3:Z:I:1 energy=-339.9333396366264 field_type=dipole dipole="0.000000 0.000000 0.000000" charge=0
C	-1.884325	0.825649	-0.267690	6
C	-0.768345	-0.157441	-0.173730	6
C	0.011455	-0.540151	-1.401110	6
N	0.601775	0.317139	-0.370860	7
N	1.440265	-0.457641	0.424730	7
C	1.865815	0.032359	1.633160	6
O	2.757315	-0.484811	2.294440	8
H	-1.999435	1.358089	0.682570	1
H	-2.824805	0.306799	-0.481350	1
H	-1.720975	1.568899	-1.056380	1
H	-0.958855	-0.917001	0.576290	1
H	-0.216155	-0.047091	-2.338270	1
H	0.343455	-1.566521	-1.498990	1
H	2.034355	-1.169281	0.012260	1
H	1.318455	0.930999	1.964930	1
Es	-0.141879	-0.206247	-2.036257	99
Es	1.482763	0.639844	1.849025	99
Es	0.254404	-1.225270	-1.458814	99
Es	-0.768139	-0.157373	-0.173850	99
Es	0.482718	-0.054460	-0.887172	99
Es	0.668824	0.649675	-0.422008	99
Es	2.853757	-0.709650	2.124434	99
Es	1.801424	-0.848405	0.159704	99
Es	2.830067	-0.352972	2.577121	99
Es	-1.884307	0.825624	-0.267686	99
Es	0.009325	0.178316	-0.149290	99
Es	2.624207	-0.168203	1.971556	99
Es	0.011538	-0.540012	-1.400902	99
Es	-1.768399	1.321717	-0.802339	99
Es	1.319270	-0.578204	0.659793	99
Es	-0.880925	-0.667590	0.335792	99
Es	1.686253	-0.179585	0.873982	99
Es	-1.314388	0.343945	-0.230665	99
Es	-2.516186	0.465705	-0.412810	99
Es	-1.958544	1.183836	0.379776	99
Es	1.440691	-0.457172	0.424602	99
Es	2.281346	-0.456945	2.174423	99
Es	1.028224	-0.089652	0.033348	99
Es	0.601603	0.316417	-0.370742	99
Es	-0.545776	-0.472016	-0.877265	99
Es	1.865733	0.032299	1.633017	99
Es	2.757080	-0.484700	2.294254	99
42
Properties=species:S:1:pos:R:3:Z:I:1 energy=-339.9333396366264 field_type=dipole dipole="0.000000 0.000000 0.000000" charge=0
C	-1.884325	0.825649	-0.267690	6
C	-0.768345	-0.157441	-0.173730	6
C	0.011455	-0.540151	-1.401110	6
N	0.601775	0.317139	-0.370860	7
N	1.440265	-0.457641	0.424730	7
C	1.865815	0.032359	1.633160	6
O	2.757315	-0.484811	2.294440	8
H	-1.999435	1.358089	0.682570	1
H	-2.824805	0.306799	-0.481350	1
H	-1.720975	1.568899	-1.056380	1
H	-0.958855	-0.917001	0.576290	1
H	-0.216155	-0.047091	-2.338270	1
H	0.343455	-1.566521	-1.498990	1
H	2.034355	-1.169281	0.012260	1
H	1.318455	0.930999	1.964930	1
Es	0.254250	-1.225000	-1.458639	99
Es	0.601615	0.316425	-0.370737	99
Es	-0.880871	-0.667385	0.335705	99
Es	1.482699	0.639681	1.849057	99
Es	1.440719	-0.457154	0.424603	99
Es	-0.141942	-0.206445	-2.036432	99
Es	1.027756	-0.089932	0.033694	99
Es	2.757032	-0.484621	2.294257	99
Es	2.847708	-0.705945	2.120656	99
Es	-1.958595	1.183879	0.379721	99
Es	0.483280	-0.053578	-0.887740	99
Es	1.682300	-0.181969	0.879987	99
Es	2.625675	-0.167549	1.973906	99
Es	-1.768256	1.321580	-0.801921	99
Es	2.836161	-0.359676	2.578747	99
Es	1.323036	-0.576314	0.653534	99
Es	-0.545726	-0.472282	-0.877039	99
Es	-1.884306	0.825624	-0.267687	99
Es	0.009033	0.179312	-0.149087	99
Es	1.802425	-0.847392	0.159791	99
Es	2.279974	-0.454601	2.174199	99
Es	-1.314416	0.343839	-0.230821	99
Es	-2.516404	0.465850	-0.413163	99
Es	1.865733	0.032301	1.633015	99
Es	0.668417	0.647665	-0.421834	99
Es	-0.768152	-0.157375	-0.173845	99
Es	0.011538	-0.540013	-1.400900	99
42
Properties=species:S:1:pos:R:3:Z:I:1 energy=-339.9333396366264 field_type=dipole dipole="0.000000 0.000000 0.000000" charge=0
C	-1.884325	0.825649	-0.267690	6
C	-0.768345	-0.157441	-0.173730	6
C	0.011455	-0.540151	-1.401110	6
N	0.601775	0.317139	-0.370860	7
N	1.440265	-0.457641	0.424730	7
C	1.865815	0.032359	1.633160	6
O	2.757315	-0.484811	2.294440	8
H	-1.999435	1.358089	0.682570	1
H	-2.824805	0.306799	-0.481350	1
H	-1.720975	1.568899	-1.056380	1
H	-0.958855	-0.917001	0.576290	1
H	-0.216155	-0.047091	-2.338270	1
H	0.343455	-1.566521	-1.498990	1
H	2.034355	-1.169281	0.012260	1
H	1.318455	0.930999	1.964930	1
Es	1.027614	-0.089745	0.034011	99
Es	0.254075	-1.224619	-1.458624	99
Es	1.440748	-0.457141	0.424647	99
Es	0.667642	0.646059	-0.421491	99
Es	2.757080	-0.484661	2.294269	99
Es	0.009075	0.179609	-0.148931	99
Es	-0.768141	-0.157371	-0.173845	99
Es	2.846821	-0.703979	2.120040	99
Es	0.601615	0.316423	-0.370743	99
Es	-1.768481	1.321457	-0.801936	99
Es	-0.545518	-0.472654	-0.876908	99
Es	2.279832	-0.455115	2.173087	99
Es	-0.880767	-0.667277	0.335605	99
Es	-1.314393	0.343914	-0.230866	99
Es	0.011536	-0.540013	-1.400902	99
Es	-1.958575	1.184031	0.379516	99
Es	2.837207	-0.360674	2.579687	99
Es	1.324639	-0.575952	0.650929	99
Es	2.625718	-0.167890	1.974616	99
Es	-1.884306	0.825624	-0.267687	99
Es	1.482570	0.639534	1.849132	99
Es	-2.516433	0.465829	-0.412974	99
Es	-0.142087	-0.206436	-2.036562	99
Es	0.483695	-0.053120	-0.888267	99
Es	1.680638	-0.182937	0.882374	99
Es	1.865733	0.032300	1.633017	99
Es	1.803146	-0.846274	0.159832	99
42
Properties=species:S:1:pos:R:3:Z:I:1 energy=-339.9333396366264 field_type=dipole dipole="0.000000 0.000000 0.000000" charge=0
C	-1.884325	0.825649	-0.267690	6
C	-0.768345	-0.157441	-0.173730	6
C	0.011455	-0.540151	-1.401110	6
N	0.601775	0.317139	-0.370860	7
N	1.440265	-0.457641	0.424730	7
C	1.865815	0.032359	1.633160	6
O	2.757315	-0.484811	2.294440	8
H	-1.999435	1.358089	0.682570	1
H	-2.824805	0.306799	-0.481350	1
H	-1.720975	1.568899	-1.056380	1
H	-0.958855	-0.917001	0.576290	1
H	-0.216155	-0.047091	-2.338270	1
H	0.343455	-1.566521	-1.498990	1
H	2.034355	-1.169281	0.012260	1
H	1.318455	0.930999	1.964930	1
Es	1.802691	-0.846906	0.160028	99
Es	0.601604	0.316408	-0.370740	99
Es	1.027600	-0.089624	0.034042	99
Es	2.624981	-0.168007	1.975353	99
Es	-1.884307	0.825624	-0.267686	99
Es	-2.516569	0.466024	-0.413265	99
Es	-0.545346	-0.472842	-0.876746	99
Es	-1.768347	1.321444	-0.801602	99
Es	1.865732	0.032299	1.633017	99
Es	0.011539	-0.540012	-1.400902	99
Es	1.440667	-0.457209	0.424607	99
Es	1.482557	0.639459	1.849167	99
Es	2.844111	-0.365076	2.579823	99
Es	-1.958698	1.183974	0.379419	99
Es	1.326284	-0.574325	0.649157	99
Es	2.841377	-0.700447	2.117187	99
Es	1.679778	-0.183647	0.884043	99
Es	0.254219	-1.224571	-1.458626	99
Es	2.279213	-0.454111	2.175083	99
Es	0.008621	0.180443	-0.148632	99
Es	-0.880719	-0.667100	0.335628	99
Es	-0.768143	-0.157371	-0.173846	99
Es	-0.142255	-0.206364	-2.036628	99
Es	-1.314293	0.343834	-0.230834	99
Es	0.667340	0.644186	-0.421375	99
Es	0.484019	-0.052501	-0.888868	99
Es	2.757026	-0.484659	2.294222	99
42
Properties=species:S:1:pos:R:3:Z:I:1 energy=-339.9333396366264 field_type=dipole dipole="0.000000 0.000000 0.000000" charge=0
C	-1.884325	0.825649	-0.267690	6
C	-0.768345	-0.157441	-0.173730	6
C	0.011455	-0.540151	-1.401110	6
N	0.601775	0.317139	-0.370860	7
N	1.440265	-0.457641	0.424730	7
C	1.865815	0.032359	1.633160	6
O	2.757315	-0.484811	2.294440	8
H	-1.999435	1.358089	0.682570	1
H	-2.824805	0.306799	-0.481350	1
H	-1.720975	1.568899	-1.056380	1
H	-0.958855	-0.917001	0.576290	1
H	-0.216155	-0.047091	-2.338270	1
H	0.343455	-1.566521	-1.498990	1
H	2.034355	-1.169281	0.012260	1
H	1.318455	0.930999	1.964930	1
Es	0.484252	-0.052241	-0.888858	99
Es	2.843533	-0.701359	2.118905	99
Es	-1.768330	1.321539	-0.801594	99
Es	-1.958642	1.183889	0.379220	99
Es	-0.142394	-0.206463	-2.036782	99
Es	1.676387	-0.185857	0.888592	99
Es	0.008952	0.180405	-0.148840	99
Es	0.011536	-0.540012	-1.400900	99
Es	1.865732	0.032299	1.633016	99
Es	2.278430	-0.454015	2.172537	99
Es	1.027283	-0.089688	0.034456	99
Es	-1.314307	0.343776	-0.230892	99
Es	0.666980	0.643835	-0.421219	99
Es	1.328771	-0.573859	0.644491	99
Es	-0.768141	-0.157370	-0.173845	99
Es	1.804030	-0.844977	0.159913	99
Es	2.841095	-0.363127	2.580071	99
Es	2.757096	-0.484685	2.294280	99
Es	-0.545301	-0.472994	-0.876531	99
Es	-1.884307	0.825624	-0.267686	99
Es	1.440761	-0.457129	0.424614	99
Es	-2.516712	0.466019	-0.413187	99
Es	2.626636	-0.169044	1.975826	99
Es	1.482523	0.639375	1.849198	99
Es	0.254012	-1.224244	-1.458524	99
Es	-0.880797	-0.667177	0.335503	99
Es	0.601607	0.316403	-0.370737	99
42
Properties=species:S:1:pos:R:3:Z:I:1 energy=-339.9333396366264 field_type=dipole dipole="0.000000 0.000000 0.000000" charge=0
C	-1.884325	0.825649	-0.267690	6
C	-0.768345	-0.157441	-0.173730	6
C	0.011455	-0.540151	-1.401110	6
N	0.601775	0.317139	-0.370860	7
N	1.440265	-0.457641	0.424730	7
C	1.865815	0.032359	1.633160	6
O	2.757315	-0.484811	2.294440	8
H	-1.999435	1.358089	0.682570	1
H	-2.824805	0.306799	-0.481350	1
H	-1.720975	1.568899	-1.056380	1
H	-0.958855	-0.917001	0.576290	1
H	-0.216155	-0.047091	-2.338270	1
H	0.343455	-1.566521	-1.498990	1
H	2.034355	-1.169281	0.012260	1
H	1.318455	0.930999	1.964930	1
Es	-1.768374	1.321462	-0.801467	99
Es	1.482510	0.639329	1.849208	99
Es	1.329150	-0.573271	0.644409	99
Es	-1.958708	1.183949	0.379084	99
Es	0.601608	0.316408	-0.370741	99
Es	1.027283	-0.089733	0.034567	99
Es	1.803851	-0.845329	0.159989	99
Es	-0.142545	-0.206436	-2.036882	99
Es	2.842218	-0.699584	2.118953	99
Es	1.865731	0.032299	1.633015	99
Es	-0.768142	-0.157372	-0.173844	99
Es	2.278095	-0.454198	2.171553	99
Es	0.011539	-0.540012	-1.400901	99
Es	-0.545008	-0.473109	-0.876416	99
Es	-0.880657	-0.667106	0.335431	99
Es	-1.884307	0.825624	-0.267686	99
Es	0.484435	-0.051432	-0.889551	99
Es	-2.516760	0.466103	-0.413227	99
Es	1.676423	-0.185841	0.888518	99
Es	0.008872	0.181082	-0.148615	99
Es	0.666474	0.642129	-0.420776	99
Es	-1.314343	0.343698	-0.230868	99
Es	2.757076	-0.484665	2.294274	99
Es	2.627033	-0.169710	1.976107	99
Es	1.440818	-0.457111	0.424635	99
Es	2.842387	-0.364079	2.580733	99
Es	0.254027	-1.224175	-1.458475	99
42
Properties=species:S:1:pos:R:3:Z:I:1 energy=-339.9333396366264 field_type=dipole dipole="0.000000 0.000000 0.000000" charge=0
C	-1.884325	0.825649	-0.267690	6
C	-0.768345	-0.157441	-0.173730	6
C	0.011455	-0.540151	-1.401110	6
N	0.601775	0.317139	-0.370860	7
N	1.440265	-0.457641	0.424730	7
C	1.865815	0.032359	1.633160	6
O	2.757315	-0.484811	2.294440	8
H	-1.999435	1.358089	0.682570	1
H	-2.824805	0.306799	-0.481350	1
H	-1.720975	1.568899	-1.056380	1
H	-0.958855	-0.917001	0.576290	1
H	-0.216155	-0.047091	-2.338270	1
H	0.343455	-1.566521	-1.498990	1
H	2.034355	-1.169281	0.012260	1
H	1.318455	0.930999	1.964930	1
Es	0.011540	-0.540012	-1.400901	99
Es	1.330950	-0.572572	0.641750	99
Es	1.804304	-0.844460	0.159910	99
Es	2.757110	-0.484750	2.294279	99
Es	0.484680	-0.051477	-0.889528	99
Es	0.666483	0.642039	-0.420876	99
Es	-1.884310	0.825625	-0.267684	99
Es	1.026860	-0.089825	0.034818	99
Es	2.839253	-0.698460	2.118440	99
Es	-1.768319	1.321361	-0.801220	99
Es	-0.768141	-0.157371	-0.173844	99
Es	0.601616	0.316420	-0.370743	99
Es	1.674643	-0.187113	0.891121	99
Es	-0.880705	-0.667112	0.335362	99
Es	2.844067	-0.367227	2.581503	99
Es	1.865732	0.032299	1.633017	99
Es	1.482448	0.639219	1.849264	99
Es	-2.516913	0.466190	-0.413394	99
Es	1.440708	-0.457168	0.424597	99
Es	0.008721	0.181079	-0.148584	99
Es	-1.958658	1.183978	0.379075	99
Es	-0.142624	-0.206447	-2.036847	99
Es	2.277122	-0.451700	2.170055	99
Es	-1.314306	0.343688	-0.230991	99
Es	-0.544976	-0.473098	-0.876309	99
Es	2.629362	-0.170030	1.977264	99
Es	0.254038	-1.224155	-1.458503	99
42
Properties=species:S:1:pos:R:3:Z:I:1 energy=-339.9333396366264 field_type=dipole dipole="0.000000 0.000000 0.000000" charge=0
C	-1.884325	0.825649	-0.267690	6
C	-0.768345	-0.157441	-0.173730	6
C	0.011455	-0.540151	-1.401110	6
N	0.601775	0.317139	-0.370860	7
N	1.440265	-0.457641	0.424730	7
C	1.865815	0.032359	1.633160	6
O	2.757315	-0.484811	2.294440	8
H	-1.999435	1.358089	0.682570	1
H	-2.824805	0.306799	-0.481350	1
H	-1.720975	1.568899	-1.056380	1
H	-0.958855	-0.917001	0.576290	1
H	-0.216155	-0.047091	-2.338270	1
H	0.343455	-1.566521	-1.498990	1
H	2.034355	-1.169281	0.012260	1
H	1.318455	0.930999	1.964930	1
Es	2.837778	-0.695668	2.117085	99
Es	1.482429	0.639247	1.849251	99
Es	2.846813	-0.369139	2.581613	99
Es	2.627823	-0.169364	1.977368	99
Es	-2.516899	0.466190	-0.413420	99
Es	-1.314252	0.343749	-0.231100	99
Es	0.008707	0.181643	-0.148421	99
Es	1.440697	-0.457163	0.424591	99
Es	2.757127	-0.484743	2.294273	99
Es	0.254065	-1.223960	-1.458515	99
Es	0.666413	0.641107	-0.420946	99
Es	0.011538	-0.540013	-1.400901	99
Es	-1.768415	1.321290	-0.801136	99
Es	-1.884307	0.825624	-0.267687	99
Es	1.332288	-0.570910	0.640603	99
Es	0.601604	0.316412	-0.370740	99
Es	1.865730	0.032297	1.633017	99
Es	-0.880696	-0.667089	0.335336	99
Es	-0.545055	-0.473284	-0.876172	99
Es	1.026830	-0.089906	0.034817	99
Es	2.277353	-0.453299	2.171218	99
Es	1.673878	-0.187646	0.892100	99
Es	-0.142605	-0.206462	-2.036871	99
Es	1.803998	-0.845431	0.160078	99
Es	-1.958699	1.184037	0.379060	99
Es	-0.768140	-0.157368	-0.173839	99
Es	0.484680	-0.051230	-0.889634	99
42
Properties=species:S:1:pos:R:3:Z:I:1 energy=-339.9333396366264 field_type=dipole dipole="0.000000 0.000000 0.000000" charge=0
C	-1.884325	0.825649	-0.267690	6
C	-0.768345	-0.157441	-0.173730	6
C	0.011455	-0.540151	-1.401110	6
N	0.601775	0.317139	-0.370860	7
N	1.440265	-0.457641	0.424730	7
C	1.865815	0.032359	1.633160	6
O	2.757315	-0.484811	2.294440	8
H	-1.999435	1.358089	0.682570	1
H	-2.824805	0.306799	-0.481350	1
H	-1.720975	1.568899	-1.056380	1
H	-0.958855	-0.917001	0.576290	1
H	-0.216155	-0.047091	-2.338270	1
H	0.343455	-1.566521	-1.498990	1
H	2.034355	-1.169281	0.012260	1
H	1.318455	0.930999	1.964930	1
Es	1.804629	-0.844176	0.160045	99
Es	2.627472	-0.169726	1.976536	99
Es	2.757011	-0.484580	2.294294	99
Es	-0.142785	-0.206511	-2.037019	99
Es	0.254020	-1.223801	-1.458412	99
Es	0.011538	-0.540011	-1.400899	99
Es	-1.768517	1.321234	-0.801026	99
Es	-0.768142	-0.157372	-0.173845	99
Es	-1.314175	0.343798	-0.231139	99
Es	2.847130	-0.368075	2.581077	99
Es	-2.516969	0.466102	-0.413417	99
Es	1.672561	-0.188444	0.893843	99
Es	0.601612	0.316415	-0.370739	99
Es	2.277499	-0.453198	2.172122	99
Es	1.865731	0.032298	1.633017	99
Es	0.484836	-0.050774	-0.889826	99
Es	-1.958755	1.184080	0.378864	99
Es	-0.544772	-0.473466	-0.876086	99
Es	0.008789	0.181679	-0.148437	99
Es	1.440677	-0.457190	0.424585	99
Es	1.333097	-0.571127	0.638893	99
Es	-1.884307	0.825625	-0.267682	99
Es	0.666099	0.640655	-0.420607	99
Es	-0.880651	-0.667059	0.335262	99
Es	2.837814	-0.696604	2.117525	99
Es	1.482458	0.639176	1.849247	99
Es	1.026785	-0.090027	0.034852	99
42
Properties=species:S:1:pos:R:3:Z:I:1 energy=-339.9333396366264 field_type=dipole dipole="0.000000 0.000000 0.000000" charge=0
C	-1.884325	0.825649	-0.267690	6
C	-0.768345	-0.157441	-0.173730	6
C	0.011455	-0.540151	-1.401110	6
N	0.601775	0.317139	-0.370860	7
N	1.440265	-0.457641	0.424730	7
C	1.865815	0.032359	1.633160	6
O	2.757315	-0.484811	2.294440	8
H	-1.999435	1.358089	0.682570	1
H	-2.824805	0.306799	-0.481350	1
H	-1.720975	1.568899	-1.056380	1
H	-0.958855	-0.917001	0.576290	1
H	-0.216155	-0.047091	-2.338270	1
H	0.343455	-1.566521	-1.498990	1
H	2.034355	-1.169281	0.012260	1
H	1.318455	0.930999	1.964930	1
Es	1.865731	0.032298	1.633017	99
Es	2.757096	-0.484679	2.294265	99
Es	0.253960	-1.223740	-1.458392	99
Es	0.485047	-0.050768	-0.889959	99
Es	1.333322	-0.570728	0.638952	99
Es	-0.142769	-0.206518	-2.037055	99
Es	1.482454	0.639182	1.849251	99
Es	0.008603	0.181911	-0.148453	99
Es	2.834780	-0.694559	2.114713	99
Es	-1.958764	1.184014	0.378936	99
Es	0.666106	0.640256	-0.420636	99
Es	1.672695	-0.188381	0.893674	99
Es	2.850506	-0.371964	2.581610	99
Es	0.601605	0.316408	-0.370740	99
Es	0.011530	-0.540015	-1.400903	99
Es	1.804462	-0.844541	0.160006	99
Es	-2.516864	0.466181	-0.413336	99
Es	1.026472	-0.090133	0.035172	99
Es	1.440723	-0.457148	0.424587	99
Es	-0.768141	-0.157372	-0.173846	99
Es	-0.880659	-0.666972	0.335329	99
Es	-1.314177	0.343718	-0.231150	99
Es	2.627826	-0.169977	1.979208	99
Es	-1.768537	1.321331	-0.801146	99
Es	-0.544745	-0.473513	-0.876140	99
Es	2.276728	-0.450994	2.171749	99
Es	-1.884308	0.825623	-0.267686	99
42
Properties=species:S:1:pos:R:3:Z:I:1 energy=-339.9333396366264 field_type=dipole dipole="0.000000 0.000000 0.000000" charge=0
C	-1.884325	0.825649	-0.267690	6
C	-0.768345	-0.157441	-0.173730	6
C	0.011455	-0.540151	-1.401110	6
N	0.601775	0.317139	-0.370860	7
N	1.440265	-0.457641	0.424730	7
C	1.865815	0.032359	1.633160	6
O	2.757315	-0.484811	2.294440	8
H	-1.999435	1.358089	0.682570	1
H	-2.824805	0.306799	-0.481350	1
H	-1.720975	1.568899	-1.056380	1
H	-0.958855	-0.917001	0.576290	1
H	-0.216155	-0.047091	-2.338270	1
H	0.343455	-1.566521	-1.498990	1
H	2.034355	-1.169281	0.012260	1
H	1.318455	0.930999	1.964930	1
Es	0.601595	0.316431	-0.370740	99
Es	1.865730	0.032297	1.633018	99
Es	0.011538	-0.540013	-1.400902	99
Es	-0.880602	-0.666815	0.335216	99
Es	1.440806	-0.457110	0.424651	99
Es	2.835395	-0.694777	2.115730	99
Es	2.757024	-0.484581	2.294280	99
Es	-0.142961	-0.206492	-2.037089	99
Es	2.848847	-0.371981	2.582195	99
Es	1.482403	0.639128	1.849291	99
Es	0.485499	-0.049841	-0.890702	99
Es	1.026392	-0.090119	0.035231	99
Es	-2.517033	0.466321	-0.413592	99
Es	0.253952	-1.223703	-1.458388	99
Es	-0.544562	-0.473721	-0.876177	99
Es	2.276915	-0.451192	2.170514	99
Es	-1.314206	0.343678	-0.231060	99
Es	0.665385	0.639117	-0.419839	99
Es	0.008651	0.181780	-0.148427	99
Es	-1.768374	1.321241	-0.800872	99
Es	1.332776	-0.571118	0.639980	99
Es	-1.884308	0.825625	-0.267685	99
Es	1.804380	-0.844509	0.160124	99
Es	1.673597	-0.187745	0.892427	99
Es	-0.768142	-0.157370	-0.173845	99
Es	-1.958787	1.184031	0.378879	99
Es	2.628773	-0.169641	1.978810	99
42
Properties=species:S:1:pos:R:3:Z:I:1 energy=-339.9333396366264 field_type=dipole dipole="0.000000 0.000000 0.000000" charge=0
C	-1.884325	0.825649	-0.267690	6
C	-0.768345	-0.157441	-0.173730	6
C	0.011455	-0.540151	-1.401110	6
N	0.601775	0.317139	-0.370860	7
N	1.440265	-0.457641	0.424730	7
C	1.865815	0.032359	1.633160	6
O	2.757315	-0.484811	2.294440	8
H	-1.999435	1.358089	0.682570	1
H	-2.824805	0.306799	-0.481350	1
H	-1.720975	1.568899	-1.056380	1
H	-0.958855	-0.917001	0.576290	1
H	-0.216155	-0.047091	-2.338270	1
H	0.343455	-1.566521	-1.498990	1
H	2.034355	-1.169281	0.012260	1
H	1.318455	0.930999	1.964930	1
Es	0.601596	0.316429	-0.370746	99
Es	0.013447	0.179354	-0.146258	99
Es	1.865733	0.032300	1.633016	99
Es	2.944539	-0.586592	2.494100	99
Es	-1.314247	0.344030	-0.230572	99
Es	1.792162	-0.866020	0.161565	99
Es	2.711534	-0.377502	1.912258	99
Es	0.476894	-0.056600	-0.887500	99
Es	0.669160	0.651724	-0.421399	99
Es	-0.768141	-0.157373	-0.173848	99
Es	-0.142518	-0.205764	-2.034604	99
Es	-1.884307	0.825624	-0.267686	99
Es	-1.768744	1.318390	-0.800140	99
Es	-2.515294	0.466734	-0.415156	99
Es	-0.543643	-0.473341	-0.881990	99
Es	1.347196	-0.548265	0.631150	99
Es	1.024722	-0.091414	0.034948	99
Es	-1.959180	1.186447	0.381725	99
Es	0.011540	-0.540014	-1.400904	99
Es	2.756988	-0.484684	2.294173	99
Es	1.440675	-0.457183	0.424587	99
Es	1.670378	-0.190947	0.899286	99
Es	1.482886	0.641056	1.849108	99
Es	0.254474	-1.228826	-1.459456	99
Es	2.651885	-0.256570	2.252583	99
Es	-0.879888	-0.664565	0.334142	99
Es	2.280836	-0.467506	2.188642	99
42
Properties=species:S:1:pos:R:3:Z:I:1 energy=-339.9333396366264 field_type=dipole dipole="0.000000 0.000000 0.000000" charge=0
C	-1.884325	0.825649	-0.267690	6
C	-0.768345	-0.157441	-0.173730	6
C	0.011455	-0.540151	-1.401110	6
N	0.601775	0.317139	-0.370860	7
N	1.440265	-0.457641	0.424730	7
C	1.865815	0.032359	1.633160	6
O	2.757315	-0.484811	2.294440	8
H	-1.999435	1.358089	0.682570	1
H	-2.824805	0.306799	-0.481350	1
H	-1.720975	1.568899	-1.056380	1
H	-0.958855	-0.917001	0.576290	1
H	-0.216155	-0.047091	-2.338270	1
H	0.343455	-1.566521	-1.498990	1
H	2.034355	-1.169281	0.012260	1
H	1.318455	0.930999	1.964930	1
Es	-1.314152	0.343709	-0.231128	99
Es	1.865730	0.032297	1.633017	99
Es	1.440716	-0.457172	0.424594	99
Es	2.630114	-0.171548	1.978086	99
Es	0.485269	-0.049942	-0.890519	99
Es	1.335116	-0.569569	0.636761	99
Es	-1.884308	0.825625	-0.267686	99
Es	-0.768142	-0.157372	-0.173846	99
Es	2.275841	-0.449517	2.170525	99
Es	0.254005	-1.223650	-1.458388	99
Es	-0.142936	-0.206503	-2.037090	99
Es	0.665499	0.639091	-0.420069	99
Es	-1.958788	1.184055	0.378786	99
Es	-0.544687	-0.473725	-0.875983	99
Es	-2.517124	0.466355	-0.413641	99
Es	2.757047	-0.484622	2.294273	99
Es	0.601610	0.316413	-0.370741	99
Es	1.804807	-0.844167	0.160092	99
Es	2.832230	-0.693958	2.116871	99
Es	0.008748	0.181994	-0.148536	99
Es	-1.768394	1.321184	-0.800737	99
Es	1.482350	0.639071	1.849309	99
Es	2.851787	-0.372487	2.581735	99
Es	-0.880558	-0.666898	0.335328	99
Es	0.011537	-0.540015	-1.400904	99
Es	1.026259	-0.090172	0.035285	99
Es	1.671109	-0.189555	0.895633	99
42
Properties=species:S:1:pos:R:3:Z:I:1 energy=-339.9333396366264 field_type=dipole dipole="0.000000 0.000000 0.000000" charge=0
C	-1.884325	0.825649	-0.267690	6
C	-0.768345	-0.157441	-0.173730	6
C	0.011455	-0.540151	-1.401110	6
N	0.601775	0.317139	-0.370860	7
N	1.440265	-0.457641	0.424730	7
C	1.865815	0.032359	1.633160	6
O	2.757315	-0.484811	2.294440	8
H	-1.999435	1.358089	0.682570	1
H	-2.824805	0.306799	-0.481350	1
H	-1.720975	1.568899	-1.056380	1
H	-0.958855	-0.917001	0.576290	1
H	-0.216155	-0.047091	-2.338270	1
H	0.343455	-1.566521	-1.498990	1
H	2.034355	-1.169281	0.012260	1
H	1.318455	0.930999	1.964930	1
Es	1.670356	-0.190102	0.896794	99
Es	2.275970	-0.449422	2.170978	99
Es	2.830783	-0.692065	2.114764	99
Es	0.485918	-0.049674	-0.890604	99
Es	-0.143044	-0.206426	-2.037005	99
Es	2.757121	-0.484703	2.294281	99
Es	1.440691	-0.457190	0.424589	99
Es	0.011537	-0.540011	-1.400900	99
Es	-1.958713	1.184130	0.378783	99
Es	0.601607	0.316408	-0.370738	99
Es	-0.880511	-0.666768	0.335226	99
Es	0.008343	0.181482	-0.148752	99
Es	2.853894	-0.375141	2.581973	99
Es	-2.517157	0.466329	-0.413582	99
Es	-0.544472	-0.473767	-0.875825	99
Es	1.026102	-0.090301	0.035370	99
Es	-1.314339	0.343655	-0.231246	99
Es	-1.768393	1.321122	-0.800785	99
Es	1.335878	-0.569209	0.635611	99
Es	-0.768142	-0.157372	-0.173846	99
Es	1.804899	-0.843876	0.160073	99
Es	2.629279	-0.170809	1.979431	99
Es	0.665385	0.639361	-0.419792	99
Es	1.482296	0.639078	1.849375	99
Es	1.865733	0.032301	1.633014	99
Es	-1.884307	0.825623	-0.267686	99
Es	0.253971	-1.223729	-1.458474	99
42
Properties=species:S:1:pos:R:3:Z:I:1 energy=-339.9333396366264 field_type=dipole dipole="0.000000 0.000000 0.000000" charge=0
C	-1.884325	0.825649	-0.267690	6
C	-0.768345	-0.157441	-0.173730	6
C	0.011455	-0.540151	-1.401110	6
N	0.601775	0.317139	-0.370860	7
N	1.440265	-0.457641	0.424730	7
C	1.865815	0.032359	1.633160	6
O	2.757315	-0.484811	2.294440	8
H	-1.999435	1.358089	0.682570	1
H	-2.824805	0.306799	-0.481350	1
H	-1.720975	1.568899	-1.056380	1
H	-0.958855	-0.917001	0.576290	1
H	-0.216155	-0.047091	-2.338270	1
H	0.343455	-1.566521	-1.498990	1
H	2.034355	-1.169281	0.012260	1
H	1.318455	0.930999	1.964930	1
Es	-0.143003	-0.206470	-2.037090	99
Es	0.601605	0.316404	-0.370738	99
Es	0.011538	-0.540021	-1.400910	99
Es	-0.768131	-0.157371	-0.173849	99
Es	-0.544593	-0.473974	-0.875971	99
Es	0.008653	0.182961	-0.148021	99
Es	1.482379	0.639064	1.849289	99
Es	-2.517179	0.466371	-0.413661	99
Es	0.254002	-1.223472	-1.458438	99
Es	-1.958799	1.184138	0.378691	99
Es	1.440947	-0.457035	0.424770	99
Es	0.665369	0.637690	-0.420332	99
Es	1.335597	-0.568788	0.636168	99
Es	-1.314122	0.343690	-0.231125	99
Es	-1.884307	0.825624	-0.267686	99
Es	2.628334	-0.170497	1.976494	99
Es	2.830373	-0.692633	2.116230	99
Es	0.485276	-0.049915	-0.890653	99
Es	1.804495	-0.844716	0.160145	99
Es	1.670989	-0.189697	0.895894	99
Es	-1.768474	1.321077	-0.800621	99
Es	2.854511	-0.373575	2.581180	99
Es	2.757093	-0.484680	2.294275	99
Es	2.276686	-0.450785	2.173335	99
Es	1.026215	-0.090009	0.035472	99
Es	-0.880501	-0.666755	0.335163	99
Es	1.865731	0.032298	1.633017	99
42
Properties=species:S:1:pos:R:3:Z:I:1 energy=-339.9333396366264 field_type=dipole dipole="0.000000 0.000000 0.000000" charge=0
C	-1.884325	0.825649	-0.267690	6
C	-0.768345	-0.157441	-0.173730	6
C	0.011455	-0.540151	-1.401110	6
N	0.601775	0.317139	-0.370860	7
N	1.440265	-0.457641	0.424730	7
C	1.865815	0.032359	1.633160	6
O	2.757315	-0.484811	2.294440	8
H	-1.999435	1.358089	0.682570	1
H	-2.824805	0.306799	-0.481350	1
H	-1.720975	1.568899	-1.056380	1
H	-0.958855	-0.917001	0.576290	1
H	-0.216155	-0.047091	-2.338270	1
H	0.343455	-1.566521	-1.498990	1
H	2.034355	-1.169281	0.012260	1
H	1.318455	0.930999	1.964930	1
Es	-1.314157	0.343716	-0.231220	99
Es	2.277407	-0.453672	2.172663	99
Es	2.757050	-0.484659	2.294225	99
Es	-0.768141	-0.157371	-0.173846	99
Es	1.440711	-0.457150	0.424577	99
Es	1.865731	0.032299	1.633017	99
Es	1.482386	0.639087	1.849284	99
Es	2.626751	-0.169085	1.977466	99
Es	-1.958810	1.184016	0.378628	99
Es	1.805125	-0.843614	0.160098	99
Es	-0.143184	-0.206469	-2.037113	99
Es	0.665497	0.637938	-0.420471	99
Es	2.832851	-0.691080	2.115234	99
Es	-1.768386	1.321157	-0.800469	99
Es	0.008560	0.182844	-0.148063	99
Es	-2.517292	0.466379	-0.413783	99
Es	1.669345	-0.190758	0.898017	99
Es	-0.880592	-0.666866	0.334999	99
Es	1.337189	-0.568357	0.634167	99
Es	2.852958	-0.373690	2.581906	99
Es	0.253908	-1.223577	-1.458398	99
Es	0.011538	-0.540007	-1.400891	99
Es	-1.884307	0.825624	-0.267686	99
Es	-0.544305	-0.473813	-0.875853	99
Es	0.485421	-0.049900	-0.890359	99
Es	0.601622	0.316439	-0.370742	99
Es	1.025810	-0.090508	0.035643	99
