46
Properties=species:S:1:pos:R:3:Z:I:1 energy=-325.1273731729133 field_type=dipole dipole="0.000000 0.000000 0.000000" charge=0
C	-1.929977	-0.228003	0.829962	6
C	-0.438947	-0.222753	0.824112	6
C	0.373173	-0.895103	-0.254208	6
N	-0.256517	-1.584383	-1.374608	7
C	0.312473	0.610817	-0.187708	6
C	1.517973	1.388767	0.216782	6
O	2.306803	1.653607	-0.933538	8
H	-2.301777	0.547297	1.507142	1
H	-2.301357	-1.194153	1.184612	1
H	-2.356367	-0.037573	-0.159498	1
H	-0.047847	-0.279963	1.835142	1
H	1.295974	-1.368873	0.078742	1
H	-1.043387	-1.057603	-1.751798	1
H	-0.637557	-2.482513	-1.077868	1
H	-0.263947	1.143207	-0.936258	1
H	2.135313	0.853877	0.945582	1
H	1.222163	2.345896	0.655952	1
H	2.413803	0.807457	-1.402548	1
Es	-0.737754	-1.259671	-1.575416	99
Es	-0.496502	-2.114881	-1.173873	99
Es	0.466031	-0.125029	-0.377669	99
Es	-0.018199	-1.279219	-0.868150	99
Es	1.518077	1.388791	0.216585	99
Es	-1.929953	-0.228006	0.829956	99
Es	-2.178485	0.299410	1.289682	99
Es	-0.161210	-0.256153	1.510575	99
Es	2.130415	1.824974	-1.114604	99
Es	-1.183149	-0.228702	0.803952	99
Es	2.009988	1.529937	-0.500407	99
Es	0.373036	-0.895032	-0.254271	99
Es	-0.438876	-0.222716	0.823976	99
Es	1.312573	2.042635	0.516825	99
Es	-2.181756	-0.888049	1.071381	99
Es	-0.020797	-1.633828	-1.622760	99
Es	-0.088268	0.957830	-0.696963	99
Es	-0.095370	-0.726170	0.362040	99
Es	1.003420	-1.214450	-0.026641	99
Es	1.933259	1.008236	0.725881	99
Es	0.312439	0.610643	-0.187634	99
Es	2.356565	1.187674	-1.168394	99
Es	2.306665	1.653361	-0.933457	99
Es	-0.117416	0.355515	0.403876	99
Es	0.908580	0.980526	0.027610	99
Es	-0.256899	-1.584284	-1.374171	99
Es	2.585102	1.743813	-0.838744	99
Es	-2.214777	-0.099748	0.149718	99
46
Properties=species:S:1:pos:R:3:Z:I:1 energy=-325.1273731729133 field_type=dipole dipole="0.000000 0.000000 0.000000" charge=0
C	-1.929977	-0.228003	0.829962	6
C	-0.438947	-0.222753	0.824112	6
C	0.373173	-0.895103	-0.254208	6
N	-0.256517	-1.584383	-1.374608	7
C	0.312473	0.610817	-0.187708	6
C	1.517973	1.388767	0.216782	6
O	2.306803	1.653607	-0.933538	8
H	-2.301777	0.547297	1.507142	1
H	-2.301357	-1.194153	1.184612	1
H	-2.356367	-0.037573	-0.159498	1
H	-0.047847	-0.279963	1.835142	1
H	1.295974	-1.368873	0.078742	1
H	-1.043387	-1.057603	-1.751798	1
H	-0.637557	-2.482513	-1.077868	1
H	-0.263947	1.143207	-0.936258	1
H	2.135313	0.853877	0.945582	1
H	1.222163	2.345896	0.655952	1
H	2.413803	0.807457	-1.402548	1
Es	-0.438873	-0.222721	0.823973	99
Es	-0.118138	0.357665	0.404742	99
Es	1.932617	1.007720	0.724894	99
Es	-0.021794	-1.279846	-0.867731	99
Es	-0.017566	-1.630518	-1.625290	99
Es	2.306704	1.653360	-0.933469	99
Es	-0.256910	-1.584277	-1.374153	99
Es	2.009758	1.531743	-0.498926	99
Es	0.312437	0.610656	-0.187634	99
Es	-1.929954	-0.228005	0.829957	99
Es	-0.737019	-1.260771	-1.572522	99
Es	2.359306	1.185880	-1.169274	99
Es	0.908491	0.980235	0.027423	99
Es	1.002480	-1.214343	-0.026858	99
Es	-0.087618	0.958099	-0.696271	99
Es	-2.178559	0.300921	1.290177	99
Es	-0.496475	-2.116694	-1.174383	99
Es	-2.181378	-0.889349	1.071040	99
Es	-0.095576	-0.728534	0.362172	99
Es	2.134447	1.829349	-1.115531	99
Es	-1.183316	-0.228360	0.803779	99
Es	1.518078	1.388788	0.216586	99
Es	0.373033	-0.895031	-0.254266	99
Es	2.578595	1.739181	-0.838643	99
Es	0.467561	-0.125182	-0.379140	99
Es	-2.213463	-0.100069	0.150209	99
Es	1.312007	2.043468	0.517816	99
Es	-0.162137	-0.255955	1.510225	99
46
Properties=species:S:1:pos:R:3:Z:I:1 energy=-325.1273731729133 field_type=dipole dipole="0.000000 0.000000 0.000000" charge=0
C	-1.929977	-0.228003	0.829962	6
C	-0.438947	-0.222753	0.824112	6
C	0.373173	-0.895103	-0.254208	6
N	-0.256517	-1.584383	-1.374608	7
C	0.312473	0.610817	-0.187708	6
C	1.517973	1.388767	0.216782	6
O	2.306803	1.653607	-0.933538	8
H	-2.301777	0.547297	1.507142	1
H	-2.301357	-1.194153	1.184612	1
H	-2.356367	-0.037573	-0.159498	1
H	-0.047847	-0.279963	1.835142	1
H	1.295974	-1.368873	0.078742	1
H	-1.043387	-1.057603	-1.751798	1
H	-0.637557	-2.482513	-1.077868	1
H	-0.263947	1.143207	-0.936258	1
H	2.135313	0.853877	0.945582	1
H	1.222163	2.345896	0.655952	1
H	2.413803	0.807457	-1.402548	1
Es	-0.496602	-2.117885	-1.174621	99
Es	0.373033	-0.895024	-0.254264	99
Es	0.908574	0.979907	0.027270	99
Es	-0.095691	-0.729789	0.362335	99
Es	1.932242	1.007626	0.724269	99
Es	-2.181401	-0.890205	1.070780	99
Es	2.358511	1.185850	-1.172453	99
Es	0.468607	-0.125338	-0.380045	99
Es	-0.016237	-1.628584	-1.626375	99
Es	-0.087078	0.958080	-0.695827	99
Es	-0.023561	-1.279835	-0.867568	99
Es	-0.162737	-0.255926	1.509870	99
Es	2.306656	1.653292	-0.933455	99
Es	-1.183400	-0.228382	0.803522	99
Es	2.009275	1.532471	-0.497990	99
Es	0.312437	0.610654	-0.187632	99
Es	-2.212608	-0.100188	0.150835	99
Es	1.518078	1.388787	0.216586	99
Es	-0.736182	-1.261680	-1.571185	99
Es	-0.256913	-1.584280	-1.374164	99
Es	-0.438875	-0.222711	0.823975	99
Es	-2.178451	0.301928	1.290329	99
Es	2.143831	1.842778	-1.116292	99
Es	-0.118711	0.359249	0.405351	99
Es	1.311608	2.043872	0.518400	99
Es	1.001686	-1.214272	-0.026931	99
Es	2.570603	1.725018	-0.835775	99
Es	-1.929953	-0.228006	0.829956	99
46
Properties=species:S:1:pos:R:3:Z:I:1 energy=-325.1273731729133 field_type=dipole dipole="0.000000 0.000000 0.000000" charge=0
C	-1.929977	-0.228003	0.829962	6
C	-0.438947	-0.222753	0.824112	6
C	0.373173	-0.895103	-0.254208	6
N	-0.256517	-1.584383	-1.374608	7
C	0.312473	0.610817	-0.187708	6
C	1.517973	1.388767	0.216782	6
O	2.306803	1.653607	-0.933538	8
H	-2.301777	0.547297	1.507142	1
H	-2.301357	-1.194153	1.184612	1
H	-2.356367	-0.037573	-0.159498	1
H	-0.047847	-0.279963	1.835142	1
H	1.295974	-1.368873	0.078742	1
H	-1.043387	-1.057603	-1.751798	1
H	-0.637557	-2.482513	-1.077868	1
H	-0.263947	1.143207	-0.936258	1
H	2.135313	0.853877	0.945582	1
H	1.222163	2.345896	0.655952	1
H	2.413803	0.807457	-1.402548	1
Es	1.311381	2.044121	0.518748	99
Es	1.518078	1.388788	0.216585	99
Es	-1.929955	-0.228006	0.829956	99
Es	0.312435	0.610653	-0.187635	99
Es	-0.163152	-0.255927	1.509777	99
Es	2.568147	1.725610	-0.836409	99
Es	0.908562	0.979739	0.027212	99
Es	1.001247	-1.214163	-0.027076	99
Es	-0.496884	-2.117896	-1.174153	99
Es	-2.211983	-0.100218	0.151051	99
Es	-0.086740	0.958102	-0.695720	99
Es	-0.014800	-1.627802	-1.628065	99
Es	-0.735970	-1.262192	-1.569599	99
Es	-1.183445	-0.228265	0.803470	99
Es	-0.256901	-1.584283	-1.374167	99
Es	2.009137	1.533119	-0.497597	99
Es	-0.095762	-0.730991	0.362331	99
Es	2.306634	1.653314	-0.933474	99
Es	-2.181271	-0.890847	1.070664	99
Es	1.932032	1.007488	0.723894	99
Es	-2.178331	0.302519	1.290416	99
Es	-0.024761	-1.280171	-0.867789	99
Es	2.144305	1.842228	-1.116480	99
Es	0.373029	-0.895028	-0.254258	99
Es	-0.438872	-0.222717	0.823970	99
Es	2.360623	1.185040	-1.172117	99
Es	-0.119076	0.360525	0.405621	99
Es	0.469034	-0.125333	-0.380254	99
46
Properties=species:S:1:pos:R:3:Z:I:1 energy=-325.1273731729133 field_type=dipole dipole="0.000000 0.000000 0.000000" charge=0
C	-1.929977	-0.228003	0.829962	6
C	-0.438947	-0.222753	0.824112	6
C	0.373173	-0.895103	-0.254208	6
N	-0.256517	-1.584383	-1.374608	7
C	0.312473	0.610817	-0.187708	6
C	1.517973	1.388767	0.216782	6
O	2.306803	1.653607	-0.933538	8
H	-2.301777	0.547297	1.507142	1
H	-2.301357	-1.194153	1.184612	1
H	-2.356367	-0.037573	-0.159498	1
H	-0.047847	-0.279963	1.835142	1
H	1.295974	-1.368873	0.078742	1
H	-1.043387	-1.057603	-1.751798	1
H	-0.637557	-2.482513	-1.077868	1
H	-0.263947	1.143207	-0.936258	1
H	2.135313	0.853877	0.945582	1
H	1.222163	2.345896	0.655952	1
H	2.413803	0.807457	-1.402548	1
Es	-0.095888	-0.731548	0.362541	99
Es	1.311265	2.044261	0.518990	99
Es	2.562968	1.717504	-0.834743	99
Es	2.306644	1.653306	-0.933431	99
Es	0.373033	-0.895027	-0.254264	99
Es	-0.438872	-0.222717	0.823970	99
Es	2.008689	1.533305	-0.497574	99
Es	-2.178377	0.302908	1.290438	99
Es	-1.183419	-0.228185	0.803479	99
Es	-0.256867	-1.584277	-1.374187	99
Es	2.150166	1.850037	-1.117228	99
Es	1.000824	-1.213988	-0.027094	99
Es	-0.025254	-1.280227	-0.867823	99
Es	0.312438	0.610650	-0.187634	99
Es	0.469570	-0.125316	-0.380785	99
Es	-0.496774	-2.118511	-1.174296	99
Es	1.931851	1.007569	0.723606	99
Es	-0.163383	-0.255821	1.509600	99
Es	-0.119380	0.360972	0.405732	99
Es	-0.014651	-1.626477	-1.629553	99
Es	-0.735649	-1.263047	-1.567881	99
Es	0.908572	0.979650	0.027211	99
Es	1.518078	1.388789	0.216584	99
Es	-1.929954	-0.228006	0.829956	99
Es	-2.181235	-0.891218	1.070500	99
Es	-2.211564	-0.100286	0.151331	99
Es	2.360441	1.185108	-1.173124	99
Es	-0.086531	0.958001	-0.695421	99
46
Properties=species:S:1:pos:R:3:Z:I:1 energy=-325.1273731729133 field_type=dipole dipole="0.000000 0.000000 0.000000" charge=0
C	-1.929977	-0.228003	0.829962	6
C	-0.438947	-0.222753	0.824112	6
C	0.373173	-0.895103	-0.254208	6
N	-0.256517	-1.584383	-1.374608	7
C	0.312473	0.610817	-0.187708	6
C	1.517973	1.388767	0.216782	6
O	2.306803	1.653607	-0.933538	8
H	-2.301777	0.547297	1.507142	1
H	-2.301357	-1.194153	1.184612	1
H	-2.356367	-0.037573	-0.159498	1
H	-0.047847	-0.279963	1.835142	1
H	1.295974	-1.368873	0.078742	1
H	-1.043387	-1.057603	-1.751798	1
H	-0.637557	-2.482513	-1.077868	1
H	-0.263947	1.143207	-0.936258	1
H	2.135313	0.853877	0.945582	1
H	1.222163	2.345896	0.655952	1
H	2.413803	0.807457	-1.402548	1
Es	-0.438876	-0.222711	0.823976	99
Es	0.908586	0.979579	0.027127	99
Es	1.931679	1.007581	0.723322	99
Es	-0.163580	-0.255831	1.509393	99
Es	-2.181231	-0.891420	1.070454	99
Es	2.360344	1.184886	-1.173923	99
Es	2.558348	1.711049	-0.833620	99
Es	-0.095897	-0.732078	0.362767	99
Es	-0.256880	-1.584281	-1.374181	99
Es	2.155879	1.855730	-1.117597	99
Es	0.469763	-0.125316	-0.381017	99
Es	0.373034	-0.895031	-0.254268	99
Es	-2.178368	0.303251	1.290409	99
Es	-1.929953	-0.228005	0.829956	99
Es	0.312437	0.610651	-0.187632	99
Es	-0.013942	-1.626044	-1.628639	99
Es	-2.211332	-0.100419	0.151606	99
Es	-1.183480	-0.228167	0.803363	99
Es	2.007754	1.534234	-0.497511	99
Es	-0.735032	-1.263105	-1.568716	99
Es	2.306622	1.653311	-0.933462	99
Es	1.311348	2.044360	0.519247	99
Es	1.000536	-1.213936	-0.027265	99
Es	-0.026290	-1.280116	-0.867424	99
Es	1.518079	1.388789	0.216582	99
Es	-0.086257	0.957887	-0.695221	99
Es	-0.119571	0.361498	0.405919	99
Es	-0.496979	-2.118938	-1.174743	99
46
Properties=species:S:1:pos:R:3:Z:I:1 energy=-325.1273731729133 field_type=dipole dipole="0.000000 0.000000 0.000000" charge=0
C	-1.929977	-0.228003	0.829962	6
C	-0.438947	-0.222753	0.824112	6
C	0.373173	-0.895103	-0.254208	6
N	-0.256517	-1.584383	-1.374608	7
C	0.312473	0.610817	-0.187708	6
C	1.517973	1.388767	0.216782	6
O	2.306803	1.653607	-0.933538	8
H	-2.301777	0.547297	1.507142	1
H	-2.301357	-1.194153	1.184612	1
H	-2.356367	-0.037573	-0.159498	1
H	-0.047847	-0.279963	1.835142	1
H	1.295974	-1.368873	0.078742	1
H	-1.043387	-1.057603	-1.751798	1
H	-0.637557	-2.482513	-1.077868	1
H	-0.263947	1.143207	-0.936258	1
H	2.135313	0.853877	0.945582	1
H	1.222163	2.345896	0.655952	1
H	2.413803	0.807457	-1.402548	1
Es	-0.086200	0.957881	-0.695064	99
Es	1.000374	-1.213840	-0.027291	99
Es	1.518077	1.388788	0.216586	99
Es	-0.497304	-2.118904	-1.174308	99
Es	-0.013869	-1.625811	-1.629757	99
Es	-0.256887	-1.584283	-1.374164	99
Es	0.469982	-0.125235	-0.381262	99
Es	-1.183333	-0.228129	0.803194	99
Es	0.312438	0.610650	-0.187635	99
Es	-2.211116	-0.100254	0.151902	99
Es	-0.095861	-0.732429	0.362797	99
Es	0.373033	-0.895029	-0.254265	99
Es	-2.178322	0.303364	1.290505	99
Es	2.008732	1.534170	-0.496726	99
Es	1.931505	1.007585	0.723097	99
Es	-0.438875	-0.222713	0.823974	99
Es	1.311355	2.044437	0.519449	99
Es	2.156606	1.857270	-1.117516	99
Es	2.555185	1.709769	-0.834247	99
Es	-0.026396	-1.279972	-0.867639	99
Es	2.306653	1.653311	-0.933509	99
Es	2.361847	1.184659	-1.174117	99
Es	-0.163806	-0.255813	1.509387	99
Es	-0.734654	-1.263646	-1.567778	99
Es	-0.119691	0.361818	0.406065	99
Es	0.908494	0.979525	0.027058	99
Es	-1.929953	-0.228006	0.829955	99
Es	-2.181274	-0.891754	1.070209	99
46
Properties=species:S:1:pos:R:3:Z:I:1 energy=-325.1273731729133 field_type=dipole dipole="0.000000 0.000000 0.000000" charge=0
C	-1.929977	-0.228003	0.829962	6
C	-0.438947	-0.222753	0.824112	6
C	0.373173	-0.895103	-0.254208	6
N	-0.256517	-1.584383	-1.374608	7
C	0.312473	0.610817	-0.187708	6
C	1.517973	1.388767	0.216782	6
O	2.306803	1.653607	-0.933538	8
H	-2.301777	0.547297	1.507142	1
H	-2.301357	-1.194153	1.184612	1
H	-2.356367	-0.037573	-0.159498	1
H	-0.047847	-0.279963	1.835142	1
H	1.295974	-1.368873	0.078742	1
H	-1.043387	-1.057603	-1.751798	1
H	-0.637557	-2.482513	-1.077868	1
H	-0.263947	1.143207	-0.936258	1
H	2.135313	0.853877	0.945582	1
H	1.222163	2.345896	0.655952	1
H	2.413803	0.807457	-1.402548	1
Es	0.908608	0.979411	0.027044	99
Es	1.518078	1.388789	0.216584	99
Es	-0.256886	-1.584287	-1.374187	99
Es	-0.163876	-0.255806	1.509245	99
Es	-0.119634	0.362020	0.406127	99
Es	-2.210885	-0.100402	0.151882	99
Es	-0.497208	-2.119182	-1.174534	99
Es	0.373031	-0.895033	-0.254267	99
Es	2.553187	1.706606	-0.833674	99
Es	0.312436	0.610649	-0.187633	99
Es	-0.095995	-0.732701	0.362925	99
Es	1.000236	-1.213780	-0.027276	99
Es	-0.438866	-0.222714	0.823966	99
Es	-2.181167	-0.891900	1.070287	99
Es	-0.086126	0.957865	-0.694857	99
Es	-1.183552	-0.227980	0.803319	99
Es	-1.929952	-0.228006	0.829956	99
Es	2.361462	1.184786	-1.174684	99
Es	-0.026536	-1.280191	-0.867540	99
Es	2.159634	1.860151	-1.117449	99
Es	-0.734598	-1.263846	-1.567060	99
Es	2.306593	1.653275	-0.933467	99
Es	2.008101	1.534339	-0.496887	99
Es	-0.013780	-1.625180	-1.630258	99
Es	-2.178366	0.303586	1.290405	99
Es	1.931466	1.007632	0.722935	99
Es	1.311208	2.044520	0.519581	99
Es	0.470127	-0.125212	-0.381581	99
46
Properties=species:S:1:pos:R:3:Z:I:1 energy=-325.1273731729133 field_type=dipole dipole="0.000000 0.000000 0.000000" charge=0
C	-1.929977	-0.228003	0.829962	6
C	-0.438947	-0.222753	0.824112	6
C	0.373173	-0.895103	-0.254208	6
N	-0.256517	-1.584383	-1.374608	7
C	0.312473	0.610817	-0.187708	6
C	1.517973	1.388767	0.216782	6
O	2.306803	1.653607	-0.933538	8
H	-2.301777	0.547297	1.507142	1
H	-2.301357	-1.194153	1.184612	1
H	-2.356367	-0.037573	-0.159498	1
H	-0.047847	-0.279963	1.835142	1
H	1.295974	-1.368873	0.078742	1
H	-1.043387	-1.057603	-1.751798	1
H	-0.637557	-2.482513	-1.077868	1
H	-0.263947	1.143207	-0.936258	1
H	2.135313	0.853877	0.945582	1
H	1.222163	2.345896	0.655952	1
H	2.413803	0.807457	-1.402548	1
Es	2.009247	1.534610	-0.495975	99
Es	-1.929953	-0.228005	0.829957	99
Es	-0.096013	-0.733073	0.362927	99
Es	-0.438874	-0.222714	0.823973	99
Es	0.312437	0.610650	-0.187632	99
Es	2.553931	1.709495	-0.835222	99
Es	2.306647	1.653270	-0.933425	99
Es	-0.734179	-1.264079	-1.567379	99
Es	1.000033	-1.213758	-0.027291	99
Es	0.470305	-0.125205	-0.381650	99
Es	-1.183527	-0.228093	0.803333	99
Es	1.931390	1.007542	0.722847	99
Es	1.518077	1.388788	0.216585	99
Es	-2.181143	-0.892097	1.070265	99
Es	0.908644	0.979393	0.027003	99
Es	-0.086016	0.957884	-0.694795	99
Es	1.311116	2.044565	0.519678	99
Es	-2.210682	-0.100397	0.151948	99
Es	-0.164056	-0.255856	1.509120	99
Es	0.373036	-0.895029	-0.254267	99
Es	-2.178254	0.303791	1.290418	99
Es	2.157117	1.857313	-1.117092	99
Es	2.362033	1.184449	-1.174501	99
Es	-0.119813	0.362586	0.406273	99
Es	-0.013013	-1.624864	-1.629978	99
Es	-0.027495	-1.280051	-0.867709	99
Es	-0.256897	-1.584277	-1.374175	99
Es	-0.497358	-2.119429	-1.174335	99
46
Properties=species:S:1:pos:R:3:Z:I:1 energy=-325.1273731729133 field_type=dipole dipole="0.000000 0.000000 0.000000" charge=0
C	-1.929977	-0.228003	0.829962	6
C	-0.438947	-0.222753	0.824112	6
C	0.373173	-0.895103	-0.254208	6
N	-0.256517	-1.584383	-1.374608	7
C	0.312473	0.610817	-0.187708	6
C	1.517973	1.388767	0.216782	6
O	2.306803	1.653607	-0.933538	8
H	-2.301777	0.547297	1.507142	1
H	-2.301357	-1.194153	1.184612	1
H	-2.356367	-0.037573	-0.159498	1
H	-0.047847	-0.279963	1.835142	1
H	1.295974	-1.368873	0.078742	1
H	-1.043387	-1.057603	-1.751798	1
H	-0.637557	-2.482513	-1.077868	1
H	-0.263947	1.143207	-0.936258	1
H	2.135313	0.853877	0.945582	1
H	1.222163	2.345896	0.655952	1
H	2.413803	0.807457	-1.402548	1
Es	-0.013028	-1.624445	-1.630790	99
Es	-0.027563	-1.280186	-0.867573	99
Es	-0.119909	0.362583	0.406301	99
Es	1.311243	2.044577	0.519804	99
Es	2.160518	1.861588	-1.117304	99
Es	2.306711	1.653265	-0.933387	99
Es	0.908503	0.979381	0.026972	99
Es	2.009228	1.534641	-0.496124	99
Es	0.470316	-0.125170	-0.381691	99
Es	-0.085954	0.957840	-0.694781	99
Es	1.518078	1.388788	0.216584	99
Es	-2.181181	-0.892223	1.070178	99
Es	-0.438873	-0.222710	0.823972	99
Es	-0.095945	-0.733210	0.362997	99
Es	1.000018	-1.213611	-0.027365	99
Es	2.361703	1.184422	-1.174804	99
Es	-0.256896	-1.584279	-1.374153	99
Es	0.373034	-0.895033	-0.254269	99
Es	-2.210649	-0.100418	0.152252	99
Es	-1.929952	-0.228005	0.829956	99
Es	2.550880	1.705228	-0.834548	99
Es	-0.164055	-0.255804	1.509062	99
Es	-1.183542	-0.228068	0.803157	99
Es	-0.734167	-1.264430	-1.566560	99
Es	1.931294	1.007562	0.722721	99
Es	-2.178234	0.303930	1.290424	99
Es	-0.497273	-2.119455	-1.174493	99
Es	0.312439	0.610651	-0.187635	99
46
Properties=species:S:1:pos:R:3:Z:I:1 energy=-325.1273731729133 field_type=dipole dipole="0.000000 0.000000 0.000000" charge=0
C	-1.929977	-0.228003	0.829962	6
C	-0.438947	-0.222753	0.824112	6
C	0.373173	-0.895103	-0.254208	6
N	-0.256517	-1.584383	-1.374608	7
C	0.312473	0.610817	-0.187708	6
C	1.517973	1.388767	0.216782	6
O	2.306803	1.653607	-0.933538	8
H	-2.301777	0.547297	1.507142	1
H	-2.301357	-1.194153	1.184612	1
H	-2.356367	-0.037573	-0.159498	1
H	-0.047847	-0.279963	1.835142	1
H	1.295974	-1.368873	0.078742	1
H	-1.043387	-1.057603	-1.751798	1
H	-0.637557	-2.482513	-1.077868	1
H	-0.263947	1.143207	-0.936258	1
H	2.135313	0.853877	0.945582	1
H	1.222163	2.345896	0.655952	1
H	2.413803	0.807457	-1.402548	1
Es	-0.438876	-0.222712	0.823974	99
Es	2.006727	1.535053	-0.497306	99
Es	-1.929953	-0.228006	0.829956	99
Es	2.360383	1.184890	-1.176056	99
Es	1.518079	1.388790	0.216581	99
Es	-0.164091	-0.255727	1.509012	99
Es	-0.085898	0.957654	-0.694633	99
Es	2.306755	1.653229	-0.933355	99
Es	0.312440	0.610651	-0.187637	99
Es	0.999975	-1.213616	-0.027318	99
Es	-0.119967	0.362582	0.406307	99
Es	1.931366	1.007784	0.722733	99
Es	-0.013419	-1.624349	-1.630766	99
Es	2.168734	1.868545	-1.117096	99
Es	-0.256842	-1.584293	-1.374244	99
Es	2.546407	1.697375	-0.832351	99
Es	-1.183587	-0.228065	0.803234	99
Es	-2.210576	-0.100405	0.152209	99
Es	-0.027284	-1.280115	-0.867509	99
Es	-0.497101	-2.119555	-1.174653	99
Es	-2.181224	-0.892169	1.070085	99
Es	-2.178302	0.303919	1.290464	99
Es	-0.734270	-1.264500	-1.566440	99
Es	1.311198	2.044613	0.519719	99
Es	0.908629	0.979349	0.027042	99
Es	-0.095940	-0.733085	0.363015	99
Es	0.373034	-0.895029	-0.254266	99
Es	0.470342	-0.125402	-0.381798	99
46
Properties=species:S:1:pos:R:3:Z:I:1 energy=-325.1273731729133 field_type=dipole dipole="0.000000 0.000000 0.000000" charge=0
C	-1.929977	-0.228003	0.829962	6
C	-0.438947	-0.222753	0.824112	6
C	0.373173	-0.895103	-0.254208	6
N	-0.256517	-1.584383	-1.374608	7
C	0.312473	0.610817	-0.187708	6
C	1.517973	1.388767	0.216782	6
O	2.306803	1.653607	-0.933538	8
H	-2.301777	0.547297	1.507142	1
H	-2.301357	-1.194153	1.184612	1
H	-2.356367	-0.037573	-0.159498	1
H	-0.047847	-0.279963	1.835142	1
H	1.295974	-1.368873	0.078742	1
H	-1.043387	-1.057603	-1.751798	1
H	-0.637557	-2.482513	-1.077868	1
H	-0.263947	1.143207	-0.936258	1
H	2.135313	0.853877	0.945582	1
H	1.222163	2.345896	0.655952	1
H	2.413803	0.807457	-1.402548	1
Es	0.908701	0.979481	0.027020	99
Es	2.306517	1.653292	-0.933504	99
Es	-0.164109	-0.255731	1.508940	99
Es	0.312436	0.610652	-0.187633	99
Es	2.006892	1.535301	-0.497154	99
Es	2.360486	1.184718	-1.175850	99
Es	-1.929953	-0.228006	0.829957	99
Es	1.931274	1.007710	0.722620	99
Es	2.170134	1.869930	-1.117312	99
Es	-0.013147	-1.624072	-1.631192	99
Es	0.373033	-0.895025	-0.254263	99
Es	0.999908	-1.213512	-0.027390	99
Es	1.518078	1.388788	0.216585	99
Es	-2.210546	-0.100507	0.152217	99
Es	-0.120019	0.362794	0.406331	99
Es	-0.438877	-0.222711	0.823970	99
Es	-2.181167	-0.892168	1.070130	99
Es	-0.734085	-1.264746	-1.566027	99
Es	-1.183638	-0.228105	0.803246	99
Es	1.311267	2.044635	0.519843	99
Es	0.470234	-0.125443	-0.381748	99
Es	-0.497177	-2.119601	-1.174758	99
Es	2.544990	1.695842	-0.832367	99
Es	-0.085883	0.957584	-0.694602	99
Es	-0.256923	-1.584269	-1.374203	99
Es	-0.095785	-0.733243	0.363005	99
Es	-2.178337	0.304006	1.290430	99
Es	-0.027565	-1.280186	-0.867393	99
46
Properties=species:S:1:pos:R:3:Z:I:1 energy=-325.1273731729133 field_type=dipole dipole="0.000000 0.000000 0.000000" charge=0
C	-1.929977	-0.228003	0.829962	6
C	-0.438947	-0.222753	0.824112	6
C	0.373173	-0.895103	-0.254208	6
N	-0.256517	-1.584383	-1.374608	7
C	0.312473	0.610817	-0.187708	6
C	1.517973	1.388767	0.216782	6
O	2.306803	1.653607	-0.933538	8
H	-2.301777	0.547297	1.507142	1
H	-2.301357	-1.194153	1.184612	1
H	-2.356367	-0.037573	-0.159498	1
H	-0.047847	-0.279963	1.835142	1
H	1.295974	-1.368873	0.078742	1
H	-1.043387	-1.057603	-1.751798	1
H	-0.637557	-2.482513	-1.077868	1
H	-0.263947	1.143207	-0.936258	1
H	2.135313	0.853877	0.945582	1
H	1.222163	2.345896	0.655952	1
H	2.413803	0.807457	-1.402548	1
Es	-1.183552	-0.228140	0.803214	99
Es	1.518076	1.388790	0.216586	99
Es	1.311242	2.044629	0.519956	99
Es	0.373031	-0.895030	-0.254263	99
Es	-0.012683	-1.624501	-1.630329	99
Es	0.470469	-0.125527	-0.381926	99
Es	2.360173	1.184902	-1.176217	99
Es	0.999788	-1.213518	-0.027386	99
Es	-0.256880	-1.584281	-1.374208	99
Es	2.306574	1.653295	-0.933495	99
Es	-0.733796	-1.264611	-1.567103	99
Es	2.172560	1.871872	-1.117189	99
Es	-0.164108	-0.255706	1.508901	99
Es	-2.181213	-0.892227	1.070074	99
Es	0.312438	0.610657	-0.187634	99
Es	-2.178336	0.304073	1.290424	99
Es	-2.210505	-0.100508	0.152369	99
Es	-0.085879	0.957536	-0.694460	99
Es	-0.095813	-0.733234	0.362997	99
Es	1.931254	1.007794	0.722491	99
Es	0.908672	0.979411	0.027007	99
Es	-1.929953	-0.228006	0.829956	99
Es	2.006149	1.535445	-0.497512	99
Es	-0.028058	-1.280023	-0.867297	99
Es	-0.120138	0.362860	0.406401	99
Es	2.543567	1.693624	-0.831771	99
Es	-0.438875	-0.222711	0.823974	99
Es	-0.497467	-2.119455	-1.174661	99
46
Properties=species:S:1:pos:R:3:Z:I:1 energy=-325.1273731729133 field_type=dipole dipole="0.000000 0.000000 0.000000" charge=0
C	-1.929977	-0.228003	0.829962	6
C	-0.438947	-0.222753	0.824112	6
C	0.373173	-0.895103	-0.254208	6
N	-0.256517	-1.584383	-1.374608	7
C	0.312473	0.610817	-0.187708	6
C	1.517973	1.388767	0.216782	6
O	2.306803	1.653607	-0.933538	8
H	-2.301777	0.547297	1.507142	1
H	-2.301357	-1.194153	1.184612	1
H	-2.356367	-0.037573	-0.159498	1
H	-0.047847	-0.279963	1.835142	1
H	1.295974	-1.368873	0.078742	1
H	-1.043387	-1.057603	-1.751798	1
H	-0.637557	-2.482513	-1.077868	1
H	-0.263947	1.143207	-0.936258	1
H	2.135313	0.853877	0.945582	1
H	1.222163	2.345896	0.655952	1
H	2.413803	0.807457	-1.402548	1
Es	0.908607	0.979437	0.027061	99
Es	1.311306	2.044636	0.519969	99
Es	0.470575	-0.125528	-0.381959	99
Es	-0.733844	-1.264934	-1.565833	99
Es	-0.013184	-1.624062	-1.631540	99
Es	-0.027661	-1.279997	-0.867377	99
Es	1.518077	1.388788	0.216586	99
Es	-0.120088	0.362894	0.406503	99
Es	2.542083	1.692351	-0.831343	99
Es	-0.256881	-1.584284	-1.374169	99
Es	0.999769	-1.213687	-0.027309	99
Es	-0.085842	0.957561	-0.694436	99
Es	-0.164221	-0.255820	1.508921	99
Es	2.173966	1.873427	-1.116936	99
Es	-0.095829	-0.733143	0.362868	99
Es	-1.183667	-0.228080	0.803235	99
Es	2.360569	1.184964	-1.176478	99
Es	-0.497389	-2.119519	-1.174689	99
Es	2.306583	1.653282	-0.933469	99
Es	-2.178316	0.304111	1.290473	99
Es	-0.438874	-0.222715	0.823975	99
Es	-2.210369	-0.100466	0.152277	99
Es	-1.929953	-0.228006	0.829956	99
Es	0.373034	-0.895034	-0.254270	99
Es	0.312437	0.610644	-0.187634	99
Es	1.931219	1.007777	0.722478	99
Es	-2.181203	-0.892269	1.070014	99
Es	2.005836	1.535082	-0.497972	99
46
Properties=species:S:1:pos:R:3:Z:I:1 energy=-325.1273731729133 field_type=dipole dipole="0.000000 0.000000 0.000000" charge=0
C	-1.929977	-0.228003	0.829962	6
C	-0.438947	-0.222753	0.824112	6
C	0.373173	-0.895103	-0.254208	6
N	-0.256517	-1.584383	-1.374608	7
C	0.312473	0.610817	-0.187708	6
C	1.517973	1.388767	0.216782	6
O	2.306803	1.653607	-0.933538	8
H	-2.301777	0.547297	1.507142	1
H	-2.301357	-1.194153	1.184612	1
H	-2.356367	-0.037573	-0.159498	1
H	-0.047847	-0.279963	1.835142	1
H	1.295974	-1.368873	0.078742	1
H	-1.043387	-1.057603	-1.751798	1
H	-0.637557	-2.482513	-1.077868	1
H	-0.263947	1.143207	-0.936258	1
H	2.135313	0.853877	0.945582	1
H	1.222163	2.345896	0.655952	1
H	2.413803	0.807457	-1.402548	1
Es	-0.497228	-2.119694	-1.174719	99
Es	0.470319	-0.125541	-0.381830	99
Es	-0.256880	-1.584281	-1.374185	99
Es	-0.013209	-1.623909	-1.631312	99
Es	-0.027713	-1.279925	-0.867441	99
Es	-0.438874	-0.222708	0.823974	99
Es	2.006067	1.535118	-0.497641	99
Es	-0.120210	0.363064	0.406376	99
Es	-0.085778	0.957405	-0.694398	99
Es	0.373029	-0.895034	-0.254262	99
Es	-1.929953	-0.228006	0.829956	99
Es	-0.095789	-0.733512	0.363046	99
Es	2.540654	1.691308	-0.831610	99
Es	-0.164204	-0.255679	1.508859	99
Es	-2.181169	-0.892234	1.070042	99
Es	-0.733817	-1.265069	-1.565989	99
Es	-2.210423	-0.100580	0.152386	99
Es	1.931196	1.007843	0.722478	99
Es	1.311225	2.044639	0.519958	99
Es	0.908745	0.979473	0.026995	99
Es	2.174935	1.874414	-1.116806	99
Es	-1.183496	-0.228086	0.803231	99
Es	0.999805	-1.213433	-0.027440	99
Es	1.518080	1.388786	0.216583	99
Es	0.312438	0.610652	-0.187635	99
Es	2.306618	1.653276	-0.933460	99
Es	2.360800	1.184986	-1.176671	99
Es	-2.178426	0.304135	1.290414	99
46
Properties=species:S:1:pos:R:3:Z:I:1 energy=-325.1273731729133 field_type=dipole dipole="0.000000 0.000000 0.000000" charge=0
C	-1.929977	-0.228003	0.829962	6
C	-0.438947	-0.222753	0.824112	6
C	0.373173	-0.895103	-0.254208	6
N	-0.256517	-1.584383	-1.374608	7
C	0.312473	0.610817	-0.187708	6
C	1.517973	1.388767	0.216782	6
O	2.306803	1.653607	-0.933538	8
H	-2.301777	0.547297	1.507142	1
H	-2.301357	-1.194153	1.184612	1
H	-2.356367	-0.037573	-0.159498	1
H	-0.047847	-0.279963	1.835142	1
H	1.295974	-1.368873	0.078742	1
H	-1.043387	-1.057603	-1.751798	1
H	-0.637557	-2.482513	-1.077868	1
H	-0.263947	1.143207	-0.936258	1
H	2.135313	0.853877	0.945582	1
H	1.222163	2.345896	0.655952	1
H	2.413803	0.807457	-1.402548	1
Es	-2.210358	-0.100468	0.152555	99
Es	1.518078	1.388788	0.216585	99
Es	0.312438	0.610650	-0.187633	99
Es	0.999611	-1.213481	-0.027303	99
Es	-0.085871	0.957445	-0.694309	99
Es	-0.095916	-0.733309	0.363068	99
Es	2.539845	1.690890	-0.832129	99
Es	-0.733990	-1.264809	-1.565261	99
Es	-0.256860	-1.584288	-1.374214	99
Es	-0.497491	-2.119403	-1.174278	99
Es	1.311257	2.044690	0.520041	99
Es	0.470782	-0.125453	-0.382208	99
Es	-0.026765	-1.280207	-0.867782	99
Es	-0.120184	0.362784	0.406359	99
Es	-1.929954	-0.228006	0.829956	99
Es	-1.183426	-0.228113	0.803082	99
Es	2.175525	1.874386	-1.117397	99
Es	2.360872	1.184452	-1.175949	99
Es	0.908636	0.979493	0.027094	99
Es	-0.013757	-1.624283	-1.632067	99
Es	2.006229	1.536075	-0.497220	99
Es	1.931190	1.007858	0.722373	99
Es	0.373034	-0.895032	-0.254267	99
Es	2.306566	1.653295	-0.933474	99
Es	-2.178323	0.304192	1.290495	99
Es	-2.181275	-0.892332	1.069898	99
Es	-0.164276	-0.255692	1.508912	99
Es	-0.438876	-0.222714	0.823974	99
46
Properties=species:S:1:pos:R:3:Z:I:1 energy=-325.1273731729133 field_type=dipole dipole="0.000000 0.000000 0.000000" charge=0
C	-1.929977	-0.228003	0.829962	6
C	-0.438947	-0.222753	0.824112	6
C	0.373173	-0.895103	-0.254208	6
N	-0.256517	-1.584383	-1.374608	7
C	0.312473	0.610817	-0.187708	6
C	1.517973	1.388767	0.216782	6
O	2.306803	1.653607	-0.933538	8
H	-2.301777	0.547297	1.507142	1
H	-2.301357	-1.194153	1.184612	1
H	-2.356367	-0.037573	-0.159498	1
H	-0.047847	-0.279963	1.835142	1
H	1.295974	-1.368873	0.078742	1
H	-1.043387	-1.057603	-1.751798	1
H	-0.637557	-2.482513	-1.077868	1
H	-0.263947	1.143207	-0.936258	1
H	2.135313	0.853877	0.945582	1
H	1.222163	2.345896	0.655952	1
H	2.413803	0.807457	-1.402548	1
Es	-0.256827	-1.584289	-1.374218	99
Es	-2.178469	0.304194	1.290428	99
Es	2.176981	1.876156	-1.117063	99
Es	-0.733680	-1.265194	-1.565446	99
Es	-0.497451	-2.119579	-1.174600	99
Es	-0.085773	0.957392	-0.694320	99
Es	-0.013214	-1.623838	-1.631909	99
Es	-0.095777	-0.733450	0.363054	99
Es	0.373033	-0.895030	-0.254266	99
Es	0.999759	-1.213476	-0.027411	99
Es	1.931128	1.007864	0.722374	99
Es	1.518077	1.388789	0.216584	99
Es	-1.183559	-0.228091	0.803358	99
Es	0.470499	-0.125603	-0.382024	99
Es	-0.164223	-0.255711	1.508712	99
Es	-0.120170	0.363159	0.406501	99
Es	-0.027739	-1.280029	-0.867398	99
Es	-0.438873	-0.222710	0.823973	99
Es	2.306742	1.653238	-0.933362	99
Es	-2.181220	-0.892270	1.069938	99
Es	2.539067	1.689200	-0.831996	99
Es	2.006384	1.535801	-0.497334	99
Es	-1.929952	-0.228005	0.829956	99
Es	1.311271	2.044709	0.520036	99
Es	-2.210281	-0.100566	0.152427	99
Es	0.312437	0.610653	-0.187633	99
Es	2.359911	1.184645	-1.176421	99
Es	0.908660	0.979448	0.026960	99
