46
Properties=species:S:1:pos:R:3:Z:I:1 energy=-325.12645568145365 field_type=dipole dipole="0.000000 0.000000 0.000000" charge=0
C	-1.825250	0.243660	0.050164	6
C	-0.314750	0.180540	-0.152216	6
C	0.065060	0.254260	-1.630476	6
N	0.394980	1.231180	0.627404	7
C	1.379380	0.231690	1.092414	6
C	0.403770	-0.900760	0.714784	6
O	0.947730	-2.060600	0.047404	8
H	-2.097280	0.243890	1.112044	1
H	-2.312070	-0.621670	-0.413276	1
H	-2.248560	1.147840	-0.401376	1
H	1.150500	0.268630	-1.779796	1
H	-0.343060	1.157660	-2.097306	1
H	-0.331440	-0.610400	-2.173846	1
H	-0.158690	1.627150	1.388314	1
H	2.313380	0.241780	0.519554	1
H	1.626970	0.300980	2.156154	1
H	-0.192820	-1.226580	1.577204	1
H	1.542150	-1.709250	-0.637146	1
Es	1.550149	0.281925	1.823118	99
Es	-0.114281	0.206918	-0.895266	99
Es	-0.206630	-0.335895	-1.994661	99
Es	2.013613	0.230600	0.687995	99
Es	-1.999978	0.244767	0.780103	99
Es	0.809198	0.255862	-1.721971	99
Es	-0.003748	-0.428800	0.231135	99
Es	-2.151335	-0.345240	-0.266190	99
Es	1.264420	-1.853273	-0.316210	99
Es	0.528945	1.496286	0.431742	99
Es	-1.825246	0.243658	0.050163	99
Es	0.065068	0.254243	-1.630451	99
Es	0.394798	1.230825	0.627700	99
Es	0.403878	-0.900915	0.714655	99
Es	-1.082580	0.212537	-0.053735	99
Es	0.755268	-1.613839	0.284862	99
Es	-2.107379	0.861144	-0.257592	99
Es	0.712538	-2.195260	-0.097916	99
Es	1.379279	0.231776	1.092373	99
Es	-0.214302	0.865220	-1.937573	99
Es	0.047373	0.811265	0.291371	99
Es	-0.008594	-1.118839	1.300418	99
Es	0.958305	-0.394706	0.940953	99
Es	-0.314707	0.180636	-0.152159	99
Es	1.123528	-2.202391	0.252467	99
Es	0.844699	0.832132	0.869074	99
Es	0.051828	1.431569	1.099001	99
Es	0.947821	-2.060258	0.047338	99
46
Properties=species:S:1:pos:R:3:Z:I:1 energy=-325.12645568145365 field_type=dipole dipole="0.000000 0.000000 0.000000" charge=0
C	-1.825250	0.243660	0.050164	6
C	-0.314750	0.180540	-0.152216	6
C	0.065060	0.254260	-1.630476	6
N	0.394980	1.231180	0.627404	7
C	1.379380	0.231690	1.092414	6
C	0.403770	-0.900760	0.714784	6
O	0.947730	-2.060600	0.047404	8
H	-2.097280	0.243890	1.112044	1
H	-2.312070	-0.621670	-0.413276	1
H	-2.248560	1.147840	-0.401376	1
H	1.150500	0.268630	-1.779796	1
H	-0.343060	1.157660	-2.097306	1
H	-0.331440	-0.610400	-2.173846	1
H	-0.158690	1.627150	1.388314	1
H	2.313380	0.241780	0.519554	1
H	1.626970	0.300980	2.156154	1
H	-0.192820	-1.226580	1.577204	1
H	1.542150	-1.709250	-0.637146	1
Es	-0.206437	-0.335518	-1.994583	99
Es	2.013845	0.230434	0.687648	99
Es	0.958089	-0.394298	0.940830	99
Es	-1.825248	0.243658	0.050163	99
Es	0.753321	-1.613167	0.285164	99
Es	0.715138	-2.197300	-0.094479	99
Es	0.529304	1.494632	0.431551	99
Es	0.394761	1.230735	0.627749	99
Es	0.047977	0.811324	0.291326	99
Es	1.379277	0.231780	1.092372	99
Es	-0.008714	-1.118779	1.300718	99
Es	0.947841	-2.060227	0.047363	99
Es	-0.114337	0.206849	-0.895120	99
Es	-2.000305	0.244750	0.780695	99
Es	-2.151219	-0.344687	-0.266278	99
Es	0.051106	1.433047	1.099846	99
Es	0.065067	0.254244	-1.630450	99
Es	-1.082545	0.212337	-0.053867	99
Es	0.403880	-0.900917	0.714655	99
Es	-0.003689	-0.428554	0.231317	99
Es	1.263979	-1.854524	-0.318892	99
Es	0.809266	0.255878	-1.722288	99
Es	1.549976	0.281764	1.823246	99
Es	-0.314705	0.180631	-0.152160	99
Es	0.844290	0.832013	0.868542	99
Es	-0.214297	0.864834	-1.937801	99
Es	-2.107162	0.860836	-0.257794	99
Es	1.123469	-2.199825	0.251268	99
46
Properties=species:S:1:pos:R:3:Z:I:1 energy=-325.12645568145365 field_type=dipole dipole="0.000000 0.000000 0.000000" charge=0
C	-1.825250	0.243660	0.050164	6
C	-0.314750	0.180540	-0.152216	6
C	0.065060	0.254260	-1.630476	6
N	0.394980	1.231180	0.627404	7
C	1.379380	0.231690	1.092414	6
C	0.403770	-0.900760	0.714784	6
O	0.947730	-2.060600	0.047404	8
H	-2.097280	0.243890	1.112044	1
H	-2.312070	-0.621670	-0.413276	1
H	-2.248560	1.147840	-0.401376	1
H	1.150500	0.268630	-1.779796	1
H	-0.343060	1.157660	-2.097306	1
H	-0.331440	-0.610400	-2.173846	1
H	-0.158690	1.627150	1.388314	1
H	2.313380	0.241780	0.519554	1
H	1.626970	0.300980	2.156154	1
H	-0.192820	-1.226580	1.577204	1
H	1.542150	-1.709250	-0.637146	1
Es	0.394765	1.230721	0.627749	99
Es	-0.008757	-1.118675	1.300992	99
Es	1.123192	-2.200659	0.251065	99
Es	0.716830	-2.196430	-0.094108	99
Es	-2.000606	0.244784	0.781088	99
Es	0.947770	-2.060270	0.047309	99
Es	-1.825249	0.243658	0.050163	99
Es	2.014004	0.230372	0.687462	99
Es	1.549810	0.281653	1.823366	99
Es	1.379279	0.231779	1.092372	99
Es	0.065068	0.254243	-1.630453	99
Es	-2.151012	-0.344387	-0.266329	99
Es	0.048291	0.810861	0.292239	99
Es	-0.206485	-0.335215	-1.994642	99
Es	1.263961	-1.854484	-0.319360	99
Es	0.050750	1.435228	1.100043	99
Es	0.957938	-0.394069	0.940599	99
Es	0.529376	1.492604	0.430617	99
Es	0.809330	0.255800	-1.722509	99
Es	0.403881	-0.900920	0.714654	99
Es	0.844151	0.832039	0.868473	99
Es	-0.003591	-0.428310	0.231426	99
Es	-1.082475	0.212419	-0.053918	99
Es	0.752077	-1.613266	0.285378	99
Es	-2.107171	0.860391	-0.257911	99
Es	-0.314707	0.180636	-0.152159	99
Es	-0.114353	0.206833	-0.895059	99
Es	-0.214142	0.864612	-1.937805	99
46
Properties=species:S:1:pos:R:3:Z:I:1 energy=-325.12645568145365 field_type=dipole dipole="0.000000 0.000000 0.000000" charge=0
C	-1.825250	0.243660	0.050164	6
C	-0.314750	0.180540	-0.152216	6
C	0.065060	0.254260	-1.630476	6
N	0.394980	1.231180	0.627404	7
C	1.379380	0.231690	1.092414	6
C	0.403770	-0.900760	0.714784	6
O	0.947730	-2.060600	0.047404	8
H	-2.097280	0.243890	1.112044	1
H	-2.312070	-0.621670	-0.413276	1
H	-2.248560	1.147840	-0.401376	1
H	1.150500	0.268630	-1.779796	1
H	-0.343060	1.157660	-2.097306	1
H	-0.331440	-0.610400	-2.173846	1
H	-0.158690	1.627150	1.388314	1
H	2.313380	0.241780	0.519554	1
H	1.626970	0.300980	2.156154	1
H	-0.192820	-1.226580	1.577204	1
H	1.542150	-1.709250	-0.637146	1
Es	0.065067	0.254243	-1.630450	99
Es	0.957800	-0.393925	0.940614	99
Es	0.048503	0.811813	0.290751	99
Es	1.549690	0.281557	1.823387	99
Es	1.122230	-2.201759	0.250103	99
Es	-2.150925	-0.344177	-0.266408	99
Es	1.379277	0.231779	1.092370	99
Es	-1.082509	0.212271	-0.053870	99
Es	0.050402	1.435556	1.100388	99
Es	-0.206487	-0.335140	-1.994673	99
Es	-0.008854	-1.118675	1.301128	99
Es	0.717914	-2.195257	-0.094071	99
Es	0.394759	1.230709	0.627753	99
Es	0.403880	-0.900919	0.714653	99
Es	-2.107053	0.860345	-0.257998	99
Es	-2.000772	0.244724	0.781285	99
Es	0.843971	0.831601	0.868175	99
Es	1.264321	-1.854734	-0.319503	99
Es	0.947821	-2.060266	0.047333	99
Es	2.014142	0.230232	0.687327	99
Es	-0.003495	-0.428074	0.231482	99
Es	-0.114394	0.206820	-0.895036	99
Es	-1.825245	0.243657	0.050165	99
Es	0.751603	-1.613067	0.286331	99
Es	-0.314708	0.180635	-0.152159	99
Es	-0.214007	0.864468	-1.937876	99
Es	0.529669	1.491754	0.432096	99
Es	0.809328	0.255777	-1.722554	99
46
Properties=species:S:1:pos:R:3:Z:I:1 energy=-325.12645568145365 field_type=dipole dipole="0.000000 0.000000 0.000000" charge=0
C	-1.825250	0.243660	0.050164	6
C	-0.314750	0.180540	-0.152216	6
C	0.065060	0.254260	-1.630476	6
N	0.394980	1.231180	0.627404	7
C	1.379380	0.231690	1.092414	6
C	0.403770	-0.900760	0.714784	6
O	0.947730	-2.060600	0.047404	8
H	-2.097280	0.243890	1.112044	1
H	-2.312070	-0.621670	-0.413276	1
H	-2.248560	1.147840	-0.401376	1
H	1.150500	0.268630	-1.779796	1
H	-0.343060	1.157660	-2.097306	1
H	-0.331440	-0.610400	-2.173846	1
H	-0.158690	1.627150	1.388314	1
H	2.313380	0.241780	0.519554	1
H	1.626970	0.300980	2.156154	1
H	-0.192820	-1.226580	1.577204	1
H	1.542150	-1.709250	-0.637146	1
Es	1.121192	-2.202904	0.249255	99
Es	-0.206457	-0.335189	-1.994742	99
Es	-2.000807	0.244880	0.781432	99
Es	0.718845	-2.193661	-0.093213	99
Es	-1.082455	0.212165	-0.053946	99
Es	-2.150983	-0.344124	-0.266384	99
Es	0.809229	0.255873	-1.722621	99
Es	1.549570	0.281509	1.823383	99
Es	0.751600	-1.613142	0.287322	99
Es	0.403880	-0.900918	0.714655	99
Es	0.065068	0.254243	-1.630452	99
Es	-0.314707	0.180636	-0.152161	99
Es	0.957715	-0.393833	0.940534	99
Es	-0.003435	-0.427947	0.231558	99
Es	1.379278	0.231779	1.092370	99
Es	0.394751	1.230708	0.627766	99
Es	-0.213996	0.864411	-1.937841	99
Es	-0.008885	-1.118613	1.301196	99
Es	-0.114263	0.206792	-0.895050	99
Es	0.947753	-2.060265	0.047282	99
Es	0.844828	0.831899	0.867759	99
Es	2.014269	0.230245	0.687265	99
Es	-2.106991	0.860131	-0.258024	99
Es	0.528764	1.491125	0.432389	99
Es	0.048533	0.811837	0.290744	99
Es	-1.825247	0.243658	0.050163	99
Es	1.264550	-1.855157	-0.320512	99
Es	0.050329	1.435808	1.100615	99
46
Properties=species:S:1:pos:R:3:Z:I:1 energy=-325.12645568145365 field_type=dipole dipole="0.000000 0.000000 0.000000" charge=0
C	-1.825250	0.243660	0.050164	6
C	-0.314750	0.180540	-0.152216	6
C	0.065060	0.254260	-1.630476	6
N	0.394980	1.231180	0.627404	7
C	1.379380	0.231690	1.092414	6
C	0.403770	-0.900760	0.714784	6
O	0.947730	-2.060600	0.047404	8
H	-2.097280	0.243890	1.112044	1
H	-2.312070	-0.621670	-0.413276	1
H	-2.248560	1.147840	-0.401376	1
H	1.150500	0.268630	-1.779796	1
H	-0.343060	1.157660	-2.097306	1
H	-0.331440	-0.610400	-2.173846	1
H	-0.158690	1.627150	1.388314	1
H	2.313380	0.241780	0.519554	1
H	1.626970	0.300980	2.156154	1
H	-0.192820	-1.226580	1.577204	1
H	1.542150	-1.709250	-0.637146	1
Es	0.394768	1.230711	0.627746	99
Es	-0.206522	-0.334993	-1.994816	99
Es	-0.213856	0.864416	-1.937811	99
Es	1.264071	-1.855562	-0.320885	99
Es	0.957675	-0.393612	0.940617	99
Es	-0.314708	0.180634	-0.152155	99
Es	1.549505	0.281453	1.823389	99
Es	0.809231	0.255740	-1.722687	99
Es	0.719848	-2.195059	-0.092417	99
Es	-0.008908	-1.118611	1.301235	99
Es	0.947795	-2.060251	0.047327	99
Es	0.050276	1.436131	1.100804	99
Es	0.528638	1.490795	0.432110	99
Es	-1.825247	0.243658	0.050163	99
Es	1.121713	-2.201515	0.248849	99
Es	-2.106924	0.860001	-0.258022	99
Es	1.379279	0.231779	1.092372	99
Es	-0.114373	0.206739	-0.895006	99
Es	0.403884	-0.900915	0.714657	99
Es	-1.082415	0.212165	-0.053996	99
Es	-2.150996	-0.343967	-0.266417	99
Es	0.048662	0.811428	0.290988	99
Es	2.014353	0.230087	0.687140	99
Es	-0.003397	-0.427960	0.231613	99
Es	0.844814	0.832255	0.867587	99
Es	-2.000873	0.244897	0.781593	99
Es	0.750565	-1.612743	0.287217	99
Es	0.065068	0.254243	-1.630451	99
46
Properties=species:S:1:pos:R:3:Z:I:1 energy=-325.12645568145365 field_type=dipole dipole="0.000000 0.000000 0.000000" charge=0
C	-1.825250	0.243660	0.050164	6
C	-0.314750	0.180540	-0.152216	6
C	0.065060	0.254260	-1.630476	6
N	0.394980	1.231180	0.627404	7
C	1.379380	0.231690	1.092414	6
C	0.403770	-0.900760	0.714784	6
O	0.947730	-2.060600	0.047404	8
H	-2.097280	0.243890	1.112044	1
H	-2.312070	-0.621670	-0.413276	1
H	-2.248560	1.147840	-0.401376	1
H	1.150500	0.268630	-1.779796	1
H	-0.343060	1.157660	-2.097306	1
H	-0.331440	-0.610400	-2.173846	1
H	-0.158690	1.627150	1.388314	1
H	2.313380	0.241780	0.519554	1
H	1.626970	0.300980	2.156154	1
H	-0.192820	-1.226580	1.577204	1
H	1.542150	-1.709250	-0.637146	1
Es	0.065068	0.254243	-1.630450	99
Es	0.719733	-2.193241	-0.093297	99
Es	-0.206342	-0.335128	-1.994862	99
Es	-0.114387	0.206827	-0.894913	99
Es	0.403881	-0.900916	0.714656	99
Es	0.809117	0.255921	-1.722635	99
Es	0.528711	1.490434	0.432365	99
Es	-1.082415	0.212263	-0.053982	99
Es	0.957615	-0.393588	0.940446	99
Es	1.120399	-2.203167	0.248952	99
Es	0.049858	1.436305	1.100874	99
Es	-2.000962	0.244903	0.781649	99
Es	-0.008855	-1.118560	1.301390	99
Es	1.265155	-1.855781	-0.320255	99
Es	0.947723	-2.060212	0.047270	99
Es	0.751011	-1.612751	0.287372	99
Es	0.049111	0.811624	0.290729	99
Es	-1.825246	0.243659	0.050163	99
Es	-0.213820	0.864233	-1.937948	99
Es	0.844712	0.832103	0.867621	99
Es	-0.314707	0.180636	-0.152158	99
Es	-2.106898	0.859924	-0.258030	99
Es	-2.150944	-0.343943	-0.266472	99
Es	1.549482	0.281403	1.823468	99
Es	0.394775	1.230717	0.627751	99
Es	-0.003488	-0.427872	0.231627	99
Es	2.014364	0.230130	0.687043	99
Es	1.379279	0.231780	1.092372	99
46
Properties=species:S:1:pos:R:3:Z:I:1 energy=-325.12645568145365 field_type=dipole dipole="0.000000 0.000000 0.000000" charge=0
C	-1.825250	0.243660	0.050164	6
C	-0.314750	0.180540	-0.152216	6
C	0.065060	0.254260	-1.630476	6
N	0.394980	1.231180	0.627404	7
C	1.379380	0.231690	1.092414	6
C	0.403770	-0.900760	0.714784	6
O	0.947730	-2.060600	0.047404	8
H	-2.097280	0.243890	1.112044	1
H	-2.312070	-0.621670	-0.413276	1
H	-2.248560	1.147840	-0.401376	1
H	1.150500	0.268630	-1.779796	1
H	-0.343060	1.157660	-2.097306	1
H	-0.331440	-0.610400	-2.173846	1
H	-0.158690	1.627150	1.388314	1
H	2.313380	0.241780	0.519554	1
H	1.626970	0.300980	2.156154	1
H	-0.192820	-1.226580	1.577204	1
H	1.542150	-1.709250	-0.637146	1
Es	1.265350	-1.856064	-0.320870	99
Es	0.844917	0.832426	0.867596	99
Es	-0.003433	-0.427788	0.231617	99
Es	-2.106895	0.859959	-0.258130	99
Es	0.049816	1.437211	1.100798	99
Es	-0.206260	-0.335084	-1.994779	99
Es	0.394783	1.230736	0.627711	99
Es	0.957587	-0.393557	0.940488	99
Es	1.119936	-2.201880	0.247861	99
Es	-2.150874	-0.343866	-0.266430	99
Es	0.049118	0.811258	0.291089	99
Es	1.379278	0.231780	1.092372	99
Es	-0.314707	0.180638	-0.152160	99
Es	0.065068	0.254243	-1.630453	99
Es	-0.213975	0.864155	-1.937970	99
Es	-0.114303	0.206757	-0.894878	99
Es	0.528491	1.489568	0.432080	99
Es	-2.001015	0.244875	0.781690	99
Es	0.750575	-1.612782	0.288096	99
Es	0.947818	-2.060285	0.047388	99
Es	0.720376	-2.194177	-0.092400	99
Es	2.014253	0.230048	0.687009	99
Es	0.809140	0.256005	-1.722761	99
Es	-1.825247	0.243658	0.050163	99
Es	1.549568	0.281390	1.823553	99
Es	-1.082430	0.212162	-0.053950	99
Es	-0.008888	-1.118521	1.301358	99
Es	0.403880	-0.900918	0.714654	99
46
Properties=species:S:1:pos:R:3:Z:I:1 energy=-325.12645568145365 field_type=dipole dipole="0.000000 0.000000 0.000000" charge=0
C	-1.825250	0.243660	0.050164	6
C	-0.314750	0.180540	-0.152216	6
C	0.065060	0.254260	-1.630476	6
N	0.394980	1.231180	0.627404	7
C	1.379380	0.231690	1.092414	6
C	0.403770	-0.900760	0.714784	6
O	0.947730	-2.060600	0.047404	8
H	-2.097280	0.243890	1.112044	1
H	-2.312070	-0.621670	-0.413276	1
H	-2.248560	1.147840	-0.401376	1
H	1.150500	0.268630	-1.779796	1
H	-0.343060	1.157660	-2.097306	1
H	-0.331440	-0.610400	-2.173846	1
H	-0.158690	1.627150	1.388314	1
H	2.313380	0.241780	0.519554	1
H	1.626970	0.300980	2.156154	1
H	-0.192820	-1.226580	1.577204	1
H	1.542150	-1.709250	-0.637146	1
Es	1.549411	0.281336	1.823497	99
Es	0.947751	-2.060186	0.047274	99
Es	1.379278	0.231779	1.092372	99
Es	-0.008994	-1.118506	1.301417	99
Es	-0.314707	0.180636	-0.152159	99
Es	0.720536	-2.192227	-0.093351	99
Es	-1.082414	0.212133	-0.053962	99
Es	0.049104	0.811893	0.290512	99
Es	-2.150920	-0.343850	-0.266503	99
Es	-0.114405	0.206707	-0.894946	99
Es	0.845069	0.832174	0.867182	99
Es	0.809162	0.255909	-1.722738	99
Es	0.394771	1.230772	0.627754	99
Es	-0.003341	-0.427816	0.231751	99
Es	0.403880	-0.900920	0.714653	99
Es	0.065068	0.254243	-1.630451	99
Es	2.014411	0.230045	0.687024	99
Es	-2.001026	0.244943	0.781804	99
Es	0.528364	1.489379	0.432730	99
Es	-0.213812	0.864167	-1.937903	99
Es	0.049821	1.437009	1.101147	99
Es	-0.206348	-0.334982	-1.994889	99
Es	1.265506	-1.856040	-0.320266	99
Es	0.750797	-1.612657	0.288278	99
Es	0.957519	-0.393423	0.940381	99
Es	-1.825246	0.243659	0.050163	99
Es	1.119501	-2.204074	0.248062	99
Es	-2.106807	0.859842	-0.258091	99
