39
Properties=species:S:1:pos:R:3:Z:I:1 energy=-338.86183507797693 field_type=dipole dipole="0.000000 0.000000 0.000000" charge=0
C	-1.968951	-0.219748	0.478218	6
C	-0.677111	-0.106758	0.165878	6
C	0.159109	1.147302	0.092298	6
N	1.437439	0.616592	-0.307802	7
C	1.408639	-0.760618	-0.448532	6
O	2.343719	-1.469198	-0.770692	8
N	0.121169	-1.167938	-0.155512	7
H	-2.468731	-1.182688	0.495958	1
H	-2.562881	0.654852	0.723448	1
H	0.269109	1.637842	1.062868	1
H	-0.190661	1.845252	-0.672352	1
H	2.282849	1.142912	-0.471382	1
H	-0.153701	-2.137808	-0.192402	1
Es	0.217290	1.476646	0.747964	99
Es	1.492735	0.399018	-0.102530	99
Es	2.595009	-1.296972	-0.816785	99
Es	1.437250	0.616512	-0.308315	99
Es	2.100393	-1.267959	-0.426854	99
Es	-2.302795	-0.874455	0.488965	99
Es	-2.370004	0.372122	0.644210	99
Es	-0.250207	-0.719620	-0.046616	99
Es	-1.968995	-0.219751	0.478231	99
Es	2.343459	-1.468998	-0.770602	99
Es	0.121081	-1.167566	-0.156373	99
Es	-0.091228	1.615949	-0.416660	99
Es	1.974295	-1.213914	-0.904093	99
Es	-1.454710	-0.124798	0.017478	99
Es	1.408451	-0.760490	-0.448461	99
Es	0.666245	-1.003541	-0.325846	99
Es	0.159244	1.147165	0.092246	99
Es	1.385575	0.123404	-0.541523	99
Es	0.896604	0.872771	-0.158086	99
Es	1.918362	0.938001	-0.426275	99
Es	-0.050604	-1.732503	-0.189265	99
Es	2.260903	-1.766115	-0.782062	99
Es	0.185584	-1.093127	-0.065059	99
Es	-0.270828	0.526422	0.132558	99
Es	-1.294191	-0.195833	0.654153	99
Es	-0.676836	-0.106829	0.165798	99
39
Properties=species:S:1:pos:R:3:Z:I:1 energy=-338.86183507797693 field_type=dipole dipole="0.000000 0.000000 0.000000" charge=0
C	-1.968951	-0.219748	0.478218	6
C	-0.677111	-0.106758	0.165878	6
C	0.159109	1.147302	0.092298	6
N	1.437439	0.616592	-0.307802	7
C	1.408639	-0.760618	-0.448532	6
O	2.343719	-1.469198	-0.770692	8
N	0.121169	-1.167938	-0.155512	7
H	-2.468731	-1.182688	0.495958	1
H	-2.562881	0.654852	0.723448	1
H	0.269109	1.637842	1.062868	1
H	-0.190661	1.845252	-0.672352	1
H	2.282849	1.142912	-0.471382	1
H	-0.153701	-2.137808	-0.192402	1
Es	-0.676830	-0.106829	0.165801	99
Es	-0.270823	0.526282	0.132600	99
Es	1.379448	0.467665	-0.535604	99
Es	0.159124	-1.085224	-0.158043	99
Es	-0.243934	-0.721587	-0.006150	99
Es	1.408445	-0.760489	-0.448470	99
Es	-0.047264	-1.732673	-0.179065	99
Es	2.098476	-1.267926	-0.423601	99
Es	-1.968991	-0.219752	0.478240	99
Es	-1.455715	-0.124670	0.016055	99
Es	0.159243	1.147166	0.092248	99
Es	-2.371832	0.372683	0.645378	99
Es	1.976043	-1.215348	-0.906138	99
Es	1.474388	0.067287	-0.207749	99
Es	0.683827	-1.008806	-0.283785	99
Es	0.215783	1.476674	0.748220	99
Es	-0.091673	1.614797	-0.416231	99
Es	-1.293573	-0.196608	0.655169	99
Es	1.934156	0.929091	-0.370723	99
Es	2.246521	-1.750136	-0.777754	99
Es	1.437544	0.616353	-0.307195	99
Es	0.906335	0.867943	-0.115078	99
Es	-2.301083	-0.872460	0.488101	99
Es	2.610069	-1.311133	-0.823265	99
Es	2.343341	-1.469051	-0.770574	99
Es	0.121060	-1.167713	-0.156186	99
39
Properties=species:S:1:pos:R:3:Z:I:1 energy=-338.86183507797693 field_type=dipole dipole="0.000000 0.000000 0.000000" charge=0
C	-1.968951	-0.219748	0.478218	6
C	-0.677111	-0.106758	0.165878	6
C	0.159109	1.147302	0.092298	6
N	1.437439	0.616592	-0.307802	7
C	1.408639	-0.760618	-0.448532	6
O	2.343719	-1.469198	-0.770692	8
N	0.121169	-1.167938	-0.155512	7
H	-2.468731	-1.182688	0.495958	1
H	-2.562881	0.654852	0.723448	1
H	0.269109	1.637842	1.062868	1
H	-0.190661	1.845252	-0.672352	1
H	2.282849	1.142912	-0.471382	1
H	-0.153701	-2.137808	-0.192402	1
Es	-0.093243	1.616087	-0.416345	99
Es	1.395166	0.090894	-0.509748	99
Es	1.918834	0.934754	-0.432217	99
Es	-0.247328	-0.721059	-0.016044	99
Es	-0.676833	-0.106829	0.165801	99
Es	0.159242	1.147167	0.092246	99
Es	1.408444	-0.760488	-0.448470	99
Es	-0.270717	0.526113	0.133270	99
Es	2.227612	-1.728619	-0.768263	99
Es	-1.293532	-0.195914	0.655933	99
Es	-0.042749	-1.732359	-0.165156	99
Es	-1.455867	-0.125898	0.015312	99
Es	1.486477	0.432934	-0.130317	99
Es	0.157479	-1.085075	-0.163774	99
Es	0.894347	0.872375	-0.156794	99
Es	-2.373415	0.373202	0.644421	99
Es	-1.968997	-0.219752	0.478237	99
Es	1.973317	-1.211498	-0.907343	99
Es	0.121729	-1.167635	-0.154154	99
Es	2.103299	-1.267623	-0.425871	99
Es	2.627395	-1.336724	-0.828261	99
Es	1.437275	0.616544	-0.308221	99
Es	-2.299439	-0.871187	0.489413	99
Es	2.343475	-1.468991	-0.770610	99
Es	0.215784	1.474819	0.747183	99
Es	0.684328	-1.009701	-0.284029	99
39
Properties=species:S:1:pos:R:3:Z:I:1 energy=-338.86183507797693 field_type=dipole dipole="0.000000 0.000000 0.000000" charge=0
C	-1.968951	-0.219748	0.478218	6
C	-0.677111	-0.106758	0.165878	6
C	0.159109	1.147302	0.092298	6
N	1.437439	0.616592	-0.307802	7
C	1.408639	-0.760618	-0.448532	6
O	2.343719	-1.469198	-0.770692	8
N	0.121169	-1.167938	-0.155512	7
H	-2.468731	-1.182688	0.495958	1
H	-2.562881	0.654852	0.723448	1
H	0.269109	1.637842	1.062868	1
H	-0.190661	1.845252	-0.672352	1
H	2.282849	1.142912	-0.471382	1
H	-0.153701	-2.137808	-0.192402	1
Es	-1.968998	-0.219752	0.478236	99
Es	0.214719	1.476553	0.748496	99
Es	-0.047636	-1.728989	-0.184929	99
Es	-0.270961	0.526052	0.132398	99
Es	0.685065	-1.010711	-0.282931	99
Es	0.121050	-1.166631	-0.157798	99
Es	1.388048	0.487766	-0.503532	99
Es	-2.373862	0.373092	0.646369	99
Es	-1.293925	-0.197504	0.656488	99
Es	1.466785	0.048479	-0.239425	99
Es	1.437636	0.616053	-0.306819	99
Es	2.635288	-1.356254	-0.836886	99
Es	2.343432	-1.468980	-0.770589	99
Es	0.159242	1.147166	0.092247	99
Es	-0.092380	1.613659	-0.415721	99
Es	0.159868	-1.086562	-0.153477	99
Es	-2.299011	-0.869938	0.487318	99
Es	0.904097	0.867873	-0.117478	99
Es	-0.244720	-0.722647	-0.004348	99
Es	2.098937	-1.262289	-0.421235	99
Es	1.936053	0.926797	-0.369591	99
Es	1.408444	-0.760490	-0.448468	99
Es	2.218100	-1.709301	-0.763743	99
Es	-0.676838	-0.106831	0.165798	99
Es	1.979214	-1.216400	-0.909052	99
Es	-1.455561	-0.124675	0.014873	99
39
Properties=species:S:1:pos:R:3:Z:I:1 energy=-338.86183507797693 field_type=dipole dipole="0.000000 0.000000 0.000000" charge=0
C	-1.968951	-0.219748	0.478218	6
C	-0.677111	-0.106758	0.165878	6
C	0.159109	1.147302	0.092298	6
N	1.437439	0.616592	-0.307802	7
C	1.408639	-0.760618	-0.448532	6
O	2.343719	-1.469198	-0.770692	8
N	0.121169	-1.167938	-0.155512	7
H	-2.468731	-1.182688	0.495958	1
H	-2.562881	0.654852	0.723448	1
H	0.269109	1.637842	1.062868	1
H	-0.190661	1.845252	-0.672352	1
H	2.282849	1.142912	-0.471382	1
H	-0.153701	-2.137808	-0.192402	1
Es	-0.270863	0.525834	0.132544	99
Es	1.437705	0.615712	-0.306534	99
Es	-0.245017	-0.722943	-0.004159	99
Es	2.211447	-1.693913	-0.760653	99
Es	1.408443	-0.760488	-0.448465	99
Es	-0.676834	-0.106829	0.165802	99
Es	2.100041	-1.262064	-0.420788	99
Es	-1.969005	-0.219751	0.478228	99
Es	-0.047287	-1.728156	-0.184637	99
Es	1.392423	0.496878	-0.484524	99
Es	2.640626	-1.373486	-0.839279	99
Es	1.979550	-1.214636	-0.910232	99
Es	0.903151	0.867615	-0.118453	99
Es	-2.298364	-0.869195	0.487555	99
Es	-1.455814	-0.124709	0.014169	99
Es	0.214509	1.476611	0.748611	99
Es	2.343475	-1.468957	-0.770602	99
Es	0.685155	-1.011110	-0.283678	99
Es	-1.293789	-0.197528	0.656975	99
Es	0.159240	1.147166	0.092248	99
Es	-2.374453	0.372922	0.646363	99
Es	0.159139	-1.085587	-0.157148	99
Es	1.937021	0.926343	-0.370259	99
Es	-0.092647	1.613268	-0.415720	99
Es	1.462374	0.040050	-0.257226	99
Es	0.121857	-1.167509	-0.153936	99
39
Properties=species:S:1:pos:R:3:Z:I:1 energy=-338.86183507797693 field_type=dipole dipole="0.000000 0.000000 0.000000" charge=0
C	-1.968951	-0.219748	0.478218	6
C	-0.677111	-0.106758	0.165878	6
C	0.159109	1.147302	0.092298	6
N	1.437439	0.616592	-0.307802	7
C	1.408639	-0.760618	-0.448532	6
O	2.343719	-1.469198	-0.770692	8
N	0.121169	-1.167938	-0.155512	7
H	-2.468731	-1.182688	0.495958	1
H	-2.562881	0.654852	0.723448	1
H	0.269109	1.637842	1.062868	1
H	-0.190661	1.845252	-0.672352	1
H	2.282849	1.142912	-0.471382	1
H	-0.153701	-2.137808	-0.192402	1
Es	0.161077	-1.085933	-0.150718	99
Es	-0.676833	-0.106830	0.165803	99
Es	-2.297972	-0.868676	0.487384	99
Es	1.981048	-1.217181	-0.912776	99
Es	2.644251	-1.386979	-0.840568	99
Es	0.902669	0.867570	-0.119107	99
Es	2.343453	-1.468917	-0.770576	99
Es	-1.293697	-0.197602	0.657456	99
Es	0.121115	-1.167838	-0.155827	99
Es	0.214337	1.476185	0.748707	99
Es	-0.047397	-1.727179	-0.185968	99
Es	1.437648	0.616137	-0.306813	99
Es	-0.092676	1.613480	-0.415592	99
Es	1.408445	-0.760488	-0.448464	99
Es	2.097601	-1.259970	-0.420452	99
Es	-0.245844	-0.722859	-0.005994	99
Es	0.159242	1.147166	0.092247	99
Es	-1.455906	-0.124686	0.013882	99
Es	2.208860	-1.679934	-0.757180	99
Es	-1.969000	-0.219751	0.478232	99
Es	1.937466	0.926560	-0.372704	99
Es	1.459436	0.034901	-0.269459	99
Es	-2.374872	0.372764	0.646396	99
Es	-0.270928	0.525731	0.132244	99
Es	0.684983	-1.011357	-0.285004	99
Es	1.395578	0.501224	-0.468948	99
39
Properties=species:S:1:pos:R:3:Z:I:1 energy=-338.86183507797693 field_type=dipole dipole="0.000000 0.000000 0.000000" charge=0
C	-1.968951	-0.219748	0.478218	6
C	-0.677111	-0.106758	0.165878	6
C	0.159109	1.147302	0.092298	6
N	1.437439	0.616592	-0.307802	7
C	1.408639	-0.760618	-0.448532	6
O	2.343719	-1.469198	-0.770692	8
N	0.121169	-1.167938	-0.155512	7
H	-2.468731	-1.182688	0.495958	1
H	-2.562881	0.654852	0.723448	1
H	0.269109	1.637842	1.062868	1
H	-0.190661	1.845252	-0.672352	1
H	2.282849	1.142912	-0.471382	1
H	-0.153701	-2.137808	-0.192402	1
Es	0.893462	0.871298	-0.153007	99
Es	-2.297263	-0.868358	0.488965	99
Es	-0.094166	1.615434	-0.416323	99
Es	1.409870	0.051289	-0.458776	99
Es	2.207210	-1.669212	-0.756508	99
Es	-1.455967	-0.126125	0.013641	99
Es	1.408443	-0.760488	-0.448473	99
Es	-1.969000	-0.219750	0.478230	99
Es	1.970629	-1.209008	-0.909472	99
Es	0.159239	1.147169	0.092249	99
Es	-2.375618	0.372874	0.644619	99
Es	1.437018	0.616128	-0.309131	99
Es	0.683701	-1.010968	-0.290431	99
Es	-0.270475	0.525579	0.133188	99
Es	1.923418	0.932712	-0.429323	99
Es	0.121348	-1.165381	-0.158763	99
Es	2.343475	-1.468915	-0.770597	99
Es	2.646640	-1.396856	-0.840692	99
Es	-0.676834	-0.106829	0.165801	99
Es	2.107610	-1.269043	-0.423170	99
Es	-0.042597	-1.729104	-0.167191	99
Es	0.214911	1.474292	0.747140	99
Es	-1.293575	-0.196427	0.658152	99
Es	0.161572	-1.088126	-0.144763	99
Es	-0.249992	-0.721480	-0.022031	99
Es	1.469023	0.474833	-0.187133	99
39
Properties=species:S:1:pos:R:3:Z:I:1 energy=-338.86183507797693 field_type=dipole dipole="0.000000 0.000000 0.000000" charge=0
C	-1.968951	-0.219748	0.478218	6
C	-0.677111	-0.106758	0.165878	6
C	0.159109	1.147302	0.092298	6
N	1.437439	0.616592	-0.307802	7
C	1.408639	-0.760618	-0.448532	6
O	2.343719	-1.469198	-0.770692	8
N	0.121169	-1.167938	-0.155512	7
H	-2.468731	-1.182688	0.495958	1
H	-2.562881	0.654852	0.723448	1
H	0.269109	1.637842	1.062868	1
H	-0.190661	1.845252	-0.672352	1
H	2.282849	1.142912	-0.471382	1
H	-0.153701	-2.137808	-0.192402	1
Es	1.457026	0.031348	-0.279374	99
Es	0.901995	0.867800	-0.120599	99
Es	1.979413	-1.215819	-0.912580	99
Es	-0.676837	-0.106831	0.165798	99
Es	0.121121	-1.167839	-0.155803	99
Es	0.214267	1.476288	0.748461	99
Es	-1.455821	-0.124811	0.013793	99
Es	1.398739	0.503816	-0.454247	99
Es	-2.297477	-0.868246	0.487364	99
Es	-1.969002	-0.219750	0.478225	99
Es	1.437496	0.616476	-0.307387	99
Es	0.684431	-1.011297	-0.287758	99
Es	-0.271163	0.525658	0.132397	99
Es	-2.375303	0.372743	0.646581	99
Es	-1.293884	-0.197708	0.657486	99
Es	-0.246551	-0.722929	-0.007652	99
Es	1.408445	-0.760489	-0.448465	99
Es	2.647545	-1.403108	-0.842696	99
Es	0.159243	1.147166	0.092247	99
Es	-0.092772	1.613182	-0.415434	99
Es	1.937716	0.926729	-0.375557	99
Es	2.206562	-1.662275	-0.755559	99
Es	-0.048025	-1.725663	-0.189653	99
Es	0.163102	-1.087249	-0.142680	99
Es	2.343206	-1.469178	-0.770554	99
Es	2.098614	-1.262477	-0.420152	99
39
Properties=species:S:1:pos:R:3:Z:I:1 energy=-338.86183507797693 field_type=dipole dipole="0.000000 0.000000 0.000000" charge=0
C	-1.968951	-0.219748	0.478218	6
C	-0.677111	-0.106758	0.165878	6
C	0.159109	1.147302	0.092298	6
N	1.437439	0.616592	-0.307802	7
C	1.408639	-0.760618	-0.448532	6
O	2.343719	-1.469198	-0.770692	8
N	0.121169	-1.167938	-0.155512	7
H	-2.468731	-1.182688	0.495958	1
H	-2.562881	0.654852	0.723448	1
H	0.269109	1.637842	1.062868	1
H	-0.190661	1.845252	-0.672352	1
H	2.282849	1.142912	-0.471382	1
H	-0.153701	-2.137808	-0.192402	1
Es	-1.969001	-0.219750	0.478229	99
Es	-1.293578	-0.197591	0.657691	99
Es	-2.375472	0.372523	0.646764	99
Es	0.901478	0.867760	-0.121400	99
Es	0.159243	1.147166	0.092249	99
Es	-0.046875	-1.726129	-0.184849	99
Es	2.100350	-1.263769	-0.419517	99
Es	-1.456243	-0.124687	0.013232	99
Es	-0.676833	-0.106829	0.165800	99
Es	-0.246177	-0.723324	-0.005569	99
Es	-0.271037	0.525477	0.132208	99
Es	0.160446	-1.085362	-0.153318	99
Es	0.121173	-1.167884	-0.155566	99
Es	2.647727	-1.406544	-0.844967	99
Es	1.437683	0.615958	-0.306632	99
Es	1.408445	-0.760489	-0.448464	99
Es	1.977280	-1.215888	-0.911623	99
Es	-2.297211	-0.867933	0.487568	99
Es	-0.092887	1.613183	-0.415371	99
Es	2.206641	-1.657616	-0.754786	99
Es	1.938197	0.926352	-0.375752	99
Es	1.401289	0.507361	-0.444005	99
Es	0.685534	-1.012146	-0.284249	99
Es	1.454384	0.028623	-0.289485	99
Es	2.343427	-1.468972	-0.770604	99
Es	0.214101	1.476048	0.748616	99
39
Properties=species:S:1:pos:R:3:Z:I:1 energy=-338.86183507797693 field_type=dipole dipole="0.000000 0.000000 0.000000" charge=0
C	-1.968951	-0.219748	0.478218	6
C	-0.677111	-0.106758	0.165878	6
C	0.159109	1.147302	0.092298	6
N	1.437439	0.616592	-0.307802	7
C	1.408639	-0.760618	-0.448532	6
O	2.343719	-1.469198	-0.770692	8
N	0.121169	-1.167938	-0.155512	7
H	-2.468731	-1.182688	0.495958	1
H	-2.562881	0.654852	0.723448	1
H	0.269109	1.637842	1.062868	1
H	-0.190661	1.845252	-0.672352	1
H	2.282849	1.142912	-0.471382	1
H	-0.153701	-2.137808	-0.192402	1
Es	2.099686	-1.265746	-0.418606	99
Es	0.214020	1.475973	0.748627	99
Es	-0.246668	-0.723182	-0.007203	99
Es	-1.293366	-0.197679	0.657888	99
Es	0.159243	1.147166	0.092247	99
Es	1.938095	0.926746	-0.377728	99
Es	-0.093017	1.613161	-0.415470	99
Es	2.343483	-1.468911	-0.770599	99
Es	-0.271085	0.525371	0.132151	99
Es	2.647807	-1.405653	-0.845262	99
Es	-2.296863	-0.867465	0.487606	99
Es	2.209106	-1.654607	-0.754779	99
Es	0.121285	-1.167904	-0.155173	99
Es	-1.969002	-0.219751	0.478233	99
Es	1.453016	0.026766	-0.295592	99
Es	1.408445	-0.760487	-0.448461	99
Es	1.437547	0.616386	-0.307190	99
Es	-0.047217	-1.725307	-0.186742	99
Es	0.900735	0.867953	-0.123108	99
Es	1.975353	-1.217885	-0.912258	99
Es	-2.375771	0.372494	0.646826	99
Es	0.161794	-1.086223	-0.148005	99
Es	1.403673	0.508077	-0.433660	99
Es	-1.456476	-0.124864	0.013069	99
Es	-0.676833	-0.106828	0.165793	99
Es	0.685094	-1.012066	-0.286402	99
39
Properties=species:S:1:pos:R:3:Z:I:1 energy=-338.86183507797693 field_type=dipole dipole="0.000000 0.000000 0.000000" charge=0
C	-1.968951	-0.219748	0.478218	6
C	-0.677111	-0.106758	0.165878	6
C	0.159109	1.147302	0.092298	6
N	1.437439	0.616592	-0.307802	7
C	1.408639	-0.760618	-0.448532	6
O	2.343719	-1.469198	-0.770692	8
N	0.121169	-1.167938	-0.155512	7
H	-2.468731	-1.182688	0.495958	1
H	-2.562881	0.654852	0.723448	1
H	0.269109	1.637842	1.062868	1
H	-0.190661	1.845252	-0.672352	1
H	2.282849	1.142912	-0.471382	1
H	-0.153701	-2.137808	-0.192402	1
Es	-0.249813	-0.721814	-0.019896	99
Es	0.121235	-1.167904	-0.155342	99
Es	2.343506	-1.468811	-0.770580	99
Es	0.159242	1.147167	0.092248	99
Es	-1.969003	-0.219752	0.478234	99
Es	0.893647	0.870662	-0.149713	99
Es	-0.676838	-0.106825	0.165797	99
Es	1.460208	0.486846	-0.216130	99
Es	-2.376219	0.372553	0.645037	99
Es	0.214591	1.474087	0.747298	99
Es	-0.042557	-1.727451	-0.167982	99
Es	2.107053	-1.274113	-0.421268	99
Es	-0.270647	0.525191	0.133202	99
Es	1.968923	-1.208517	-0.909030	99
Es	-1.293451	-0.196725	0.658730	99
Es	1.415835	0.040160	-0.437369	99
Es	1.408443	-0.760487	-0.448470	99
Es	-1.456297	-0.125901	0.012765	99
Es	0.684728	-1.012220	-0.288201	99
Es	-2.296569	-0.867375	0.488801	99
Es	0.160808	-1.085140	-0.151879	99
Es	1.926392	0.932105	-0.424913	99
Es	1.436945	0.616037	-0.309387	99
Es	2.207212	-1.649029	-0.756707	99
Es	-0.094351	1.615112	-0.416066	99
Es	2.649061	-1.412319	-0.842979	99
39
Properties=species:S:1:pos:R:3:Z:I:1 energy=-338.86183507797693 field_type=dipole dipole="0.000000 0.000000 0.000000" charge=0
C	-1.968951	-0.219748	0.478218	6
C	-0.677111	-0.106758	0.165878	6
C	0.159109	1.147302	0.092298	6
N	1.437439	0.616592	-0.307802	7
C	1.408639	-0.760618	-0.448532	6
O	2.343719	-1.469198	-0.770692	8
N	0.121169	-1.167938	-0.155512	7
H	-2.468731	-1.182688	0.495958	1
H	-2.562881	0.654852	0.723448	1
H	0.269109	1.637842	1.062868	1
H	-0.190661	1.845252	-0.672352	1
H	2.282849	1.142912	-0.471382	1
H	-0.153701	-2.137808	-0.192402	1
Es	0.162130	-1.086381	-0.146620	99
Es	0.214030	1.476192	0.748406	99
Es	1.973068	-1.216508	-0.910976	99
Es	-0.047189	-1.724986	-0.186689	99
Es	0.685087	-1.012251	-0.286745	99
Es	-0.271419	0.525240	0.132256	99
Es	0.159243	1.147166	0.092246	99
Es	1.408445	-0.760489	-0.448465	99
Es	1.938254	0.926970	-0.379555	99
Es	-1.456285	-0.124939	0.013185	99
Es	-0.676834	-0.106830	0.165802	99
Es	2.343456	-1.468926	-0.770603	99
Es	2.207437	-1.645657	-0.752463	99
Es	-0.092839	1.612937	-0.415252	99
Es	1.437616	0.616241	-0.306911	99
Es	-2.375915	0.372530	0.646770	99
Es	2.103293	-1.265599	-0.419188	99
Es	2.648302	-1.415971	-0.848245	99
Es	-2.296735	-0.867475	0.487589	99
Es	-1.293609	-0.197697	0.657824	99
Es	0.900597	0.867749	-0.123230	99
Es	-0.246785	-0.723185	-0.007392	99
Es	1.452093	0.026275	-0.299084	99
Es	0.121064	-1.167730	-0.156146	99
Es	1.404580	0.508611	-0.428533	99
Es	-1.969001	-0.219748	0.478220	99
39
Properties=species:S:1:pos:R:3:Z:I:1 energy=-338.86183507797693 field_type=dipole dipole="0.000000 0.000000 0.000000" charge=0
C	-1.968951	-0.219748	0.478218	6
C	-0.677111	-0.106758	0.165878	6
C	0.159109	1.147302	0.092298	6
N	1.437439	0.616592	-0.307802	7
C	1.408639	-0.760618	-0.448532	6
O	2.343719	-1.469198	-0.770692	8
N	0.121169	-1.167938	-0.155512	7
H	-2.468731	-1.182688	0.495958	1
H	-2.562881	0.654852	0.723448	1
H	0.269109	1.637842	1.062868	1
H	-0.190661	1.845252	-0.672352	1
H	2.282849	1.142912	-0.471382	1
H	-0.153701	-2.137808	-0.192402	1
Es	0.159243	1.147165	0.092248	99
Es	-2.296644	-0.867230	0.487506	99
Es	-0.246711	-0.723293	-0.007079	99
Es	-1.969003	-0.219751	0.478229	99
Es	-1.293859	-0.197733	0.658314	99
Es	-0.676834	-0.106829	0.165800	99
Es	-2.376040	0.372351	0.646728	99
Es	0.160992	-1.085596	-0.151221	99
Es	1.450726	0.025263	-0.303781	99
Es	0.121180	-1.167884	-0.155542	99
Es	1.976611	-1.218255	-0.913073	99
Es	2.649221	-1.419839	-0.846362	99
Es	2.207171	-1.641904	-0.752270	99
Es	1.437817	0.615120	-0.306045	99
Es	0.900563	0.867977	-0.123687	99
Es	2.343430	-1.468961	-0.770592	99
Es	-1.455991	-0.124989	0.012966	99
Es	1.938368	0.926902	-0.380682	99
Es	2.099124	-1.263685	-0.419174	99
Es	-0.046895	-1.725096	-0.185514	99
Es	0.214097	1.475912	0.748145	99
Es	-0.271508	0.525219	0.132350	99
Es	1.408446	-0.760488	-0.448462	99
Es	-0.093006	1.613182	-0.415241	99
Es	1.405783	0.510569	-0.423153	99
Es	0.685803	-1.012590	-0.284205	99
39
Properties=species:S:1:pos:R:3:Z:I:1 energy=-338.86183507797693 field_type=dipole dipole="0.000000 0.000000 0.000000" charge=0
C	-1.968951	-0.219748	0.478218	6
C	-0.677111	-0.106758	0.165878	6
C	0.159109	1.147302	0.092298	6
N	1.437439	0.616592	-0.307802	7
C	1.408639	-0.760618	-0.448532	6
O	2.343719	-1.469198	-0.770692	8
N	0.121169	-1.167938	-0.155512	7
H	-2.468731	-1.182688	0.495958	1
H	-2.562881	0.654852	0.723448	1
H	0.269109	1.637842	1.062868	1
H	-0.190661	1.845252	-0.672352	1
H	2.282849	1.142912	-0.471382	1
H	-0.153701	-2.137808	-0.192402	1
Es	0.214527	1.474146	0.747129	99
Es	-0.676833	-0.106829	0.165800	99
Es	2.650286	-1.423826	-0.842853	99
Es	1.971079	-1.211117	-0.911852	99
Es	-0.270836	0.525139	0.133160	99
Es	0.686142	-1.012669	-0.282983	99
Es	-1.968997	-0.219750	0.478224	99
Es	-0.041351	-1.727248	-0.164563	99
Es	2.103347	-1.273133	-0.420157	99
Es	2.207603	-1.635743	-0.755203	99
Es	1.455843	0.491278	-0.230382	99
Es	2.343479	-1.468881	-0.770590	99
Es	0.157340	-1.084264	-0.165095	99
Es	1.436830	0.615709	-0.309776	99
Es	0.159242	1.147166	0.092246	99
Es	-0.249240	-0.722488	-0.015942	99
Es	0.121484	-1.167809	-0.154687	99
Es	-0.094225	1.615004	-0.415883	99
Es	1.408443	-0.760487	-0.448468	99
Es	1.928492	0.931751	-0.421196	99
Es	0.894009	0.870431	-0.147415	99
Es	-2.376339	0.372497	0.645162	99
Es	-2.296428	-0.867343	0.488767	99
Es	-1.456092	-0.125930	0.012745	99
Es	-1.293712	-0.196706	0.658709	99
Es	1.417990	0.036640	-0.428695	99
39
Properties=species:S:1:pos:R:3:Z:I:1 energy=-338.86183507797693 field_type=dipole dipole="0.000000 0.000000 0.000000" charge=0
C	-1.968951	-0.219748	0.478218	6
C	-0.677111	-0.106758	0.165878	6
C	0.159109	1.147302	0.092298	6
N	1.437439	0.616592	-0.307802	7
C	1.408639	-0.760618	-0.448532	6
O	2.343719	-1.469198	-0.770692	8
N	0.121169	-1.167938	-0.155512	7
H	-2.468731	-1.182688	0.495958	1
H	-2.562881	0.654852	0.723448	1
H	0.269109	1.637842	1.062868	1
H	-0.190661	1.845252	-0.672352	1
H	2.282849	1.142912	-0.471382	1
H	-0.153701	-2.137808	-0.192402	1
Es	1.938763	0.926696	-0.381322	99
Es	1.408445	-0.760489	-0.448465	99
Es	1.437661	0.616094	-0.306733	99
Es	-0.676834	-0.106829	0.165801	99
Es	0.685908	-1.012802	-0.284227	99
Es	2.343388	-1.469016	-0.770576	99
Es	2.207236	-1.639807	-0.752949	99
Es	-0.271290	0.525161	0.132415	99
Es	-0.246561	-0.723641	-0.005731	99
Es	-2.296341	-0.866861	0.487436	99
Es	0.158733	-1.085820	-0.157796	99
Es	-1.969002	-0.219752	0.478233	99
Es	-0.093098	1.613029	-0.415263	99
Es	-1.293371	-0.197886	0.658245	99
Es	-1.456608	-0.124859	0.012709	99
Es	0.899884	0.868031	-0.125186	99
Es	1.977775	-1.218173	-0.913542	99
Es	0.122411	-1.166886	-0.153093	99
Es	-0.046120	-1.725148	-0.182690	99
Es	2.097573	-1.264236	-0.418918	99
Es	2.649671	-1.421324	-0.845471	99
Es	-2.376302	0.372207	0.646898	99
Es	1.408084	0.510556	-0.414064	99
Es	0.159242	1.147165	0.092247	99
Es	0.213916	1.475848	0.748277	99
Es	1.448920	0.024278	-0.310034	99
39
Properties=species:S:1:pos:R:3:Z:I:1 energy=-338.86183507797693 field_type=dipole dipole="0.000000 0.000000 0.000000" charge=0
C	-1.968951	-0.219748	0.478218	6
C	-0.677111	-0.106758	0.165878	6
C	0.159109	1.147302	0.092298	6
N	1.437439	0.616592	-0.307802	7
C	1.408639	-0.760618	-0.448532	6
O	2.343719	-1.469198	-0.770692	8
N	0.121169	-1.167938	-0.155512	7
H	-2.468731	-1.182688	0.495958	1
H	-2.562881	0.654852	0.723448	1
H	0.269109	1.637842	1.062868	1
H	-0.190661	1.845252	-0.672352	1
H	2.282849	1.142912	-0.471382	1
H	-0.153701	-2.137808	-0.192402	1
Es	1.420684	0.032700	-0.418724	99
Es	0.159243	1.147165	0.092246	99
Es	0.121239	-1.166128	-0.157975	99
Es	-2.295915	-0.866852	0.488535	99
Es	0.214390	1.474075	0.747355	99
Es	0.684926	-1.012425	-0.288021	99
Es	2.209583	-1.633826	-0.755028	99
Es	1.408444	-0.760489	-0.448468	99
Es	-0.250090	-0.722317	-0.018881	99
Es	-0.094332	1.614874	-0.415918	99
Es	-1.969002	-0.219751	0.478232	99
Es	2.343523	-1.468750	-0.770582	99
Es	1.437015	0.616201	-0.309148	99
Es	0.894208	0.870361	-0.145963	99
Es	-1.456513	-0.125733	0.012559	99
Es	-0.042742	-1.726599	-0.169978	99
Es	1.929272	0.931358	-0.419784	99
Es	-0.676834	-0.106830	0.165802	99
Es	1.969262	-1.212967	-0.911980	99
Es	-1.293287	-0.196796	0.658973	99
Es	-2.376869	0.372167	0.645299	99
Es	-0.270657	0.525057	0.133031	99
Es	2.103190	-1.274503	-0.419652	99
Es	2.650279	-1.422598	-0.843453	99
Es	1.451994	0.495014	-0.243888	99
Es	0.161073	-1.086869	-0.148391	99
39
Properties=species:S:1:pos:R:3:Z:I:1 energy=-338.86183507797693 field_type=dipole dipole="0.000000 0.000000 0.000000" charge=0
C	-1.968951	-0.219748	0.478218	6
C	-0.677111	-0.106758	0.165878	6
C	0.159109	1.147302	0.092298	6
N	1.437439	0.616592	-0.307802	7
C	1.408639	-0.760618	-0.448532	6
O	2.343719	-1.469198	-0.770692	8
N	0.121169	-1.167938	-0.155512	7
H	-2.468731	-1.182688	0.495958	1
H	-2.562881	0.654852	0.723448	1
H	0.269109	1.637842	1.062868	1
H	-0.190661	1.845252	-0.672352	1
H	2.282849	1.142912	-0.471382	1
H	-0.153701	-2.137808	-0.192402	1
Es	1.437042	0.616244	-0.309051	99
Es	0.121567	-1.167756	-0.154495	99
Es	2.343489	-1.468791	-0.770591	99
Es	0.685901	-1.012822	-0.284534	99
Es	0.214408	1.474171	0.747260	99
Es	0.158309	-1.084476	-0.161320	99
Es	-2.296017	-0.866951	0.488682	99
Es	2.209018	-1.632296	-0.753640	99
Es	1.408444	-0.760488	-0.448469	99
Es	2.103822	-1.272722	-0.420222	99
Es	-1.969001	-0.219751	0.478231	99
Es	-0.094216	1.614807	-0.415832	99
Es	1.452892	0.494016	-0.240643	99
Es	1.420087	0.033738	-0.420885	99
Es	-0.041929	-1.726640	-0.166802	99
Es	-0.249443	-0.722616	-0.016152	99
Es	-0.270836	0.525007	0.133094	99
Es	-1.293259	-0.196734	0.658833	99
Es	0.894044	0.870215	-0.146643	99
Es	-0.676834	-0.106829	0.165800	99
Es	2.650301	-1.425262	-0.844542	99
Es	0.159243	1.147166	0.092247	99
Es	-2.376744	0.372326	0.645218	99
Es	-1.456576	-0.125825	0.012643	99
Es	1.929179	0.931402	-0.420290	99
Es	1.969192	-1.213594	-0.911696	99
