38
Properties=species:S:1:pos:R:3:Z:I:1 energy=-358.69455610767653 field_type=dipole dipole="0.000000 0.000000 0.000000" charge=0
C	-1.814144	-0.092142	0.285140	6
C	-0.499224	-0.003852	0.085210	6
C	0.384506	1.196318	0.141750	6
O	1.696186	0.684528	-0.173960	8
C	1.598696	-0.664562	-0.382590	6
O	2.531096	-1.395852	-0.666000	8
N	0.298726	-1.051342	-0.224360	7
H	-2.341894	-1.037452	0.211050	1
H	-2.402464	0.787277	0.528770	1
H	0.417126	1.641538	1.140060	1
H	0.114686	1.947577	-0.605500	1
H	0.016706	-2.012033	-0.339570	1
Es	2.265283	-1.191898	-0.326122	99
Es	0.384704	1.196157	0.141689	99
Es	0.396463	1.488767	0.811755	99
Es	1.598528	-0.664314	-0.382522	99
Es	-0.074287	0.600233	0.116514	99
Es	-1.257718	0.010347	-0.127702	99
Es	-0.071939	-0.609642	-0.132061	99
Es	-1.814185	-0.092142	0.285143	99
Es	0.298772	-1.050841	-0.225297	99
Es	-2.164524	-0.733855	0.233612	99
Es	2.179963	-1.107747	-0.814276	99
Es	-2.209414	0.502415	0.449526	99
Es	2.416874	-1.677115	-0.694997	99
Es	0.125208	-1.606206	-0.307924	99
Es	2.795501	-1.249909	-0.687951	99
Es	2.530943	-1.395849	-0.665970	99
Es	1.625219	0.170431	-0.248142	99
Es	0.194032	1.694142	-0.358463	99
Es	0.382043	-0.983191	-0.087439	99
Es	1.195362	0.854024	-0.057953	99
Es	0.840452	-0.882449	-0.363506	99
Es	1.772737	0.768079	-0.435449	99
Es	1.695848	0.684272	-0.173894	99
Es	-1.151756	-0.098721	0.516141	99
Es	-0.498957	-0.003939	0.085147	99
Es	1.862838	0.687560	0.060041	99
38
Properties=species:S:1:pos:R:3:Z:I:1 energy=-358.69455610767653 field_type=dipole dipole="0.000000 0.000000 0.000000" charge=0
C	-1.814144	-0.092142	0.285140	6
C	-0.499224	-0.003852	0.085210	6
C	0.384506	1.196318	0.141750	6
O	1.696186	0.684528	-0.173960	8
C	1.598696	-0.664562	-0.382590	6
O	2.531096	-1.395852	-0.666000	8
N	0.298726	-1.051342	-0.224360	7
H	-2.341894	-1.037452	0.211050	1
H	-2.402464	0.787277	0.528770	1
H	0.417126	1.641538	1.140060	1
H	0.114686	1.947577	-0.605500	1
H	0.016706	-2.012033	-0.339570	1
Es	-0.075273	0.599123	0.117046	99
Es	-1.152025	-0.099044	0.515990	99
Es	0.298709	-1.051050	-0.225056	99
Es	2.530830	-1.395603	-0.665912	99
Es	0.384707	1.196158	0.141693	99
Es	-0.498957	-0.003933	0.085157	99
Es	1.598528	-0.664315	-0.382521	99
Es	2.817635	-1.274899	-0.695201	99
Es	1.695845	0.684303	-0.173934	99
Es	2.180943	-1.109026	-0.815340	99
Es	-1.814173	-0.092140	0.285154	99
Es	-2.211616	0.503875	0.450367	99
Es	0.128896	-1.608867	-0.291739	99
Es	1.768693	0.759658	-0.431747	99
Es	0.193659	1.693597	-0.357803	99
Es	-0.070875	-0.612074	-0.090392	99
Es	-2.162248	-0.732233	0.233631	99
Es	0.866625	-0.892979	-0.298805	99
Es	-1.257868	0.009797	-0.128179	99
Es	1.629472	0.169814	-0.245084	99
Es	0.395985	1.488769	0.810894	99
Es	2.264878	-1.189140	-0.328453	99
Es	0.352078	-0.967359	-0.210296	99
Es	1.192566	0.858468	-0.055724	99
Es	1.866213	0.691401	0.050839	99
Es	2.394766	-1.653690	-0.684684	99
38
Properties=species:S:1:pos:R:3:Z:I:1 energy=-358.69455610767653 field_type=dipole dipole="0.000000 0.000000 0.000000" charge=0
C	-1.814144	-0.092142	0.285140	6
C	-0.499224	-0.003852	0.085210	6
C	0.384506	1.196318	0.141750	6
O	1.696186	0.684528	-0.173960	8
C	1.598696	-0.664562	-0.382590	6
O	2.531096	-1.395852	-0.666000	8
N	0.298726	-1.051342	-0.224360	7
H	-2.341894	-1.037452	0.211050	1
H	-2.402464	0.787277	0.528770	1
H	0.417126	1.641538	1.140060	1
H	0.114686	1.947577	-0.605500	1
H	0.016706	-2.012033	-0.339570	1
Es	-1.257680	0.009510	-0.127808	99
Es	2.266113	-1.189250	-0.329296	99
Es	0.351101	-0.965931	-0.216535	99
Es	0.298720	-1.051243	-0.224599	99
Es	0.395812	1.488619	0.810090	99
Es	-2.160599	-0.731448	0.233688	99
Es	1.633594	0.167539	-0.244687	99
Es	-0.076622	0.598507	0.117002	99
Es	2.830878	-1.300401	-0.701526	99
Es	2.530817	-1.395628	-0.665915	99
Es	0.867920	-0.894829	-0.295642	99
Es	-0.498953	-0.003939	0.085153	99
Es	-0.071663	-0.613011	-0.089209	99
Es	2.181922	-1.106941	-0.813561	99
Es	0.384708	1.196156	0.141687	99
Es	1.865086	0.693867	0.044604	99
Es	-1.152494	-0.099044	0.515337	99
Es	1.191615	0.860909	-0.055459	99
Es	-2.213071	0.504451	0.450835	99
Es	1.598529	-0.664314	-0.382515	99
Es	0.193887	1.693436	-0.356941	99
Es	1.695831	0.684151	-0.173781	99
Es	1.767122	0.756842	-0.426425	99
Es	-1.814185	-0.092142	0.285149	99
Es	0.130029	-1.607219	-0.290407	99
Es	2.379576	-1.630039	-0.679338	99
38
Properties=species:S:1:pos:R:3:Z:I:1 energy=-358.69455610767653 field_type=dipole dipole="0.000000 0.000000 0.000000" charge=0
C	-1.814144	-0.092142	0.285140	6
C	-0.499224	-0.003852	0.085210	6
C	0.384506	1.196318	0.141750	6
O	1.696186	0.684528	-0.173960	8
C	1.598696	-0.664562	-0.382590	6
O	2.531096	-1.395852	-0.666000	8
N	0.298726	-1.051342	-0.224360	7
H	-2.341894	-1.037452	0.211050	1
H	-2.402464	0.787277	0.528770	1
H	0.417126	1.641538	1.140060	1
H	0.114686	1.947577	-0.605500	1
H	0.016706	-2.012033	-0.339570	1
Es	-1.152573	-0.099138	0.514599	99
Es	2.266194	-1.185854	-0.331241	99
Es	-0.077753	0.598016	0.117428	99
Es	-0.072266	-0.613375	-0.089850	99
Es	1.635469	0.167159	-0.251169	99
Es	-2.159807	-0.731124	0.233247	99
Es	1.598527	-0.664313	-0.382517	99
Es	2.371054	-1.610030	-0.672412	99
Es	-1.814186	-0.092143	0.285151	99
Es	0.384709	1.196153	0.141687	99
Es	2.530833	-1.395581	-0.665894	99
Es	1.851725	0.681854	0.044585	99
Es	-0.498952	-0.003939	0.085148	99
Es	1.695912	0.684361	-0.173950	99
Es	2.838271	-1.322222	-0.706585	99
Es	1.779303	0.767084	-0.419216	99
Es	0.130064	-1.605555	-0.291694	99
Es	0.194203	1.693201	-0.356177	99
Es	1.191114	0.862751	-0.055998	99
Es	0.298753	-1.051295	-0.224359	99
Es	2.183125	-1.108457	-0.813520	99
Es	-1.257766	0.009300	-0.126809	99
Es	-2.213781	0.504980	0.450829	99
Es	0.395941	1.488787	0.809103	99
Es	0.868293	-0.895772	-0.296670	99
Es	0.351586	-0.966241	-0.213817	99
38
Properties=species:S:1:pos:R:3:Z:I:1 energy=-358.69455610767653 field_type=dipole dipole="0.000000 0.000000 0.000000" charge=0
C	-1.814144	-0.092142	0.285140	6
C	-0.499224	-0.003852	0.085210	6
C	0.384506	1.196318	0.141750	6
O	1.696186	0.684528	-0.173960	8
C	1.598696	-0.664562	-0.382590	6
O	2.531096	-1.395852	-0.666000	8
N	0.298726	-1.051342	-0.224360	7
H	-2.341894	-1.037452	0.211050	1
H	-2.402464	0.787277	0.528770	1
H	0.417126	1.641538	1.140060	1
H	0.114686	1.947577	-0.605500	1
H	0.016706	-2.012033	-0.339570	1
Es	1.695868	0.683998	-0.173403	99
Es	2.530851	-1.395659	-0.665923	99
Es	1.598528	-0.664315	-0.382520	99
Es	1.680948	0.668736	-0.389737	99
Es	0.193374	1.693813	-0.356867	99
Es	-2.158501	-0.730251	0.235694	99
Es	-1.152953	-0.098186	0.514869	99
Es	2.840565	-1.353892	-0.715102	99
Es	1.193072	0.863111	-0.046921	99
Es	1.937567	0.784061	-0.031837	99
Es	-0.498953	-0.003939	0.085150	99
Es	-0.077407	0.597498	0.116805	99
Es	-2.214495	0.504570	0.451878	99
Es	1.645898	0.162937	-0.214087	99
Es	0.298759	-1.051300	-0.224329	99
Es	0.395758	1.487886	0.809210	99
Es	0.384707	1.196157	0.141687	99
Es	0.866483	-0.894730	-0.307104	99
Es	2.183155	-1.102696	-0.812198	99
Es	-0.072192	-0.613841	-0.087975	99
Es	2.269642	-1.190002	-0.326050	99
Es	0.131939	-1.605808	-0.283504	99
Es	2.365368	-1.579861	-0.670545	99
Es	0.351935	-0.966311	-0.213358	99
Es	-1.814186	-0.092143	0.285151	99
Es	-1.257739	0.008778	-0.129083	99
38
Properties=species:S:1:pos:R:3:Z:I:1 energy=-358.69455610767653 field_type=dipole dipole="0.000000 0.000000 0.000000" charge=0
C	-1.814144	-0.092142	0.285140	6
C	-0.499224	-0.003852	0.085210	6
C	0.384506	1.196318	0.141750	6
O	1.696186	0.684528	-0.173960	8
C	1.598696	-0.664562	-0.382590	6
O	2.531096	-1.395852	-0.666000	8
N	0.298726	-1.051342	-0.224360	7
H	-2.341894	-1.037452	0.211050	1
H	-2.402464	0.787277	0.528770	1
H	0.417126	1.641538	1.140060	1
H	0.114686	1.947577	-0.605500	1
H	0.016706	-2.012033	-0.339570	1
Es	2.841784	-1.374074	-0.711944	99
Es	2.367963	-1.558978	-0.664065	99
Es	2.183697	-1.107297	-0.820143	99
Es	-1.258799	0.010187	-0.127278	99
Es	0.130156	-1.603029	-0.295673	99
Es	2.530844	-1.395574	-0.665910	99
Es	-0.076933	0.597138	0.117681	99
Es	0.193469	1.692172	-0.356981	99
Es	1.189817	0.867164	-0.066174	99
Es	1.721093	0.587869	-0.015504	99
Es	1.695720	0.684210	-0.174223	99
Es	-2.158625	-0.728579	0.231323	99
Es	1.910397	0.848710	-0.309572	99
Es	1.598527	-0.664314	-0.382519	99
Es	0.384708	1.196158	0.141695	99
Es	-1.814189	-0.092140	0.285134	99
Es	1.636361	0.174647	-0.290178	99
Es	0.298848	-1.051325	-0.223945	99
Es	0.870599	-0.899047	-0.284125	99
Es	-2.215398	0.504655	0.450018	99
Es	0.395179	1.488994	0.810427	99
Es	-1.151243	-0.100393	0.516999	99
Es	-0.072501	-0.613971	-0.088446	99
Es	0.350033	-0.964420	-0.224453	99
Es	-0.498952	-0.003940	0.085155	99
Es	2.265438	-1.186213	-0.327398	99
38
Properties=species:S:1:pos:R:3:Z:I:1 energy=-358.69455610767653 field_type=dipole dipole="0.000000 0.000000 0.000000" charge=0
C	-1.814144	-0.092142	0.285140	6
C	-0.499224	-0.003852	0.085210	6
C	0.384506	1.196318	0.141750	6
O	1.696186	0.684528	-0.173960	8
C	1.598696	-0.664562	-0.382590	6
O	2.531096	-1.395852	-0.666000	8
N	0.298726	-1.051342	-0.224360	7
H	-2.341894	-1.037452	0.211050	1
H	-2.402464	0.787277	0.528770	1
H	0.417126	1.641538	1.140060	1
H	0.114686	1.947577	-0.605500	1
H	0.016706	-2.012033	-0.339570	1
Es	-0.077373	0.596894	0.116536	99
Es	0.193041	1.693778	-0.357055	99
Es	1.657965	0.636777	-0.335217	99
Es	0.351681	-0.966098	-0.214256	99
Es	-1.814182	-0.092144	0.285160	99
Es	0.395448	1.487480	0.809607	99
Es	-0.498953	-0.003940	0.085149	99
Es	2.259120	-1.184232	-0.323854	99
Es	-0.072758	-0.613972	-0.089033	99
Es	-1.153021	-0.098449	0.516209	99
Es	1.695825	0.684186	-0.173723	99
Es	-2.215748	0.504137	0.451816	99
Es	2.368593	-1.548216	-0.665138	99
Es	0.298715	-1.051221	-0.224661	99
Es	-1.257603	0.008886	-0.129991	99
Es	1.598528	-0.664314	-0.382511	99
Es	2.841179	-1.383073	-0.715935	99
Es	0.384710	1.196156	0.141687	99
Es	-2.157306	-0.728568	0.235471	99
Es	0.132521	-1.604310	-0.282876	99
Es	2.530865	-1.395497	-0.665892	99
Es	0.867276	-0.896080	-0.305436	99
Es	2.189957	-1.111029	-0.819063	99
Es	1.193096	0.864252	-0.046289	99
Es	1.956518	0.816051	-0.086089	99
Es	1.649896	0.161154	-0.214713	99
38
Properties=species:S:1:pos:R:3:Z:I:1 energy=-358.69455610767653 field_type=dipole dipole="0.000000 0.000000 0.000000" charge=0
C	-1.814144	-0.092142	0.285140	6
C	-0.499224	-0.003852	0.085210	6
C	0.384506	1.196318	0.141750	6
O	1.696186	0.684528	-0.173960	8
C	1.598696	-0.664562	-0.382590	6
O	2.531096	-1.395852	-0.666000	8
N	0.298726	-1.051342	-0.224360	7
H	-2.341894	-1.037452	0.211050	1
H	-2.402464	0.787277	0.528770	1
H	0.417126	1.641538	1.140060	1
H	0.114686	1.947577	-0.605500	1
H	0.016706	-2.012033	-0.339570	1
Es	0.193283	1.692283	-0.357072	99
Es	1.933516	0.853561	-0.268556	99
Es	-0.077170	0.596499	0.117241	99
Es	0.394992	1.488591	0.810637	99
Es	1.639928	0.171164	-0.284139	99
Es	-2.216251	0.504235	0.450470	99
Es	1.694611	0.587274	-0.066560	99
Es	-1.151024	-0.100395	0.517641	99
Es	2.372299	-1.536829	-0.660705	99
Es	2.269372	-1.191588	-0.326283	99
Es	2.530855	-1.395518	-0.665902	99
Es	0.348448	-0.966127	-0.226111	99
Es	2.176986	-1.106009	-0.819444	99
Es	0.384708	1.196156	0.141681	99
Es	-0.498951	-0.003940	0.085153	99
Es	1.598526	-0.664314	-0.382521	99
Es	0.130539	-1.602015	-0.294354	99
Es	0.870644	-0.899660	-0.286320	99
Es	-2.157594	-0.727316	0.231987	99
Es	0.300526	-1.049655	-0.221356	99
Es	-1.814188	-0.092143	0.285153	99
Es	-0.072528	-0.613955	-0.088498	99
Es	1.695449	0.682782	-0.172736	99
Es	1.189834	0.867434	-0.063740	99
Es	2.840330	-1.392120	-0.717161	99
Es	-1.259149	0.010213	-0.128604	99
38
Properties=species:S:1:pos:R:3:Z:I:1 energy=-358.69455610767653 field_type=dipole dipole="0.000000 0.000000 0.000000" charge=0
C	-1.814144	-0.092142	0.285140	6
C	-0.499224	-0.003852	0.085210	6
C	0.384506	1.196318	0.141750	6
O	1.696186	0.684528	-0.173960	8
C	1.598696	-0.664562	-0.382590	6
O	2.531096	-1.395852	-0.666000	8
N	0.298726	-1.051342	-0.224360	7
H	-2.341894	-1.037452	0.211050	1
H	-2.402464	0.787277	0.528770	1
H	0.417126	1.641538	1.140060	1
H	0.114686	1.947577	-0.605500	1
H	0.016706	-2.012033	-0.339570	1
Es	0.395007	1.488036	0.810588	99
Es	-0.498952	-0.003939	0.085152	99
Es	1.189925	0.867692	-0.062462	99
Es	-1.151761	-0.100238	0.518198	99
Es	0.192662	1.692686	-0.357598	99
Es	0.384706	1.196157	0.141686	99
Es	2.176560	-1.106270	-0.819512	99
Es	-2.216696	0.503970	0.450651	99
Es	0.131023	-1.601535	-0.292688	99
Es	0.298750	-1.051296	-0.224373	99
Es	1.945495	0.853411	-0.240614	99
Es	1.695541	0.684029	-0.174644	99
Es	-1.258503	0.009990	-0.129704	99
Es	2.373808	-1.529589	-0.660182	99
Es	-0.072878	-0.614090	-0.088930	99
Es	2.269193	-1.192614	-0.325065	99
Es	2.530872	-1.395451	-0.665912	99
Es	1.680713	0.587653	-0.098567	99
Es	-2.156988	-0.726628	0.232785	99
Es	1.598527	-0.664314	-0.382516	99
Es	2.839439	-1.398125	-0.718870	99
Es	-1.814190	-0.092140	0.285139	99
Es	0.350462	-0.964754	-0.221192	99
Es	1.641583	0.169252	-0.279528	99
Es	0.870441	-0.899584	-0.289441	99
Es	-0.076750	0.596297	0.117501	99
38
Properties=species:S:1:pos:R:3:Z:I:1 energy=-358.69455610767653 field_type=dipole dipole="0.000000 0.000000 0.000000" charge=0
C	-1.814144	-0.092142	0.285140	6
C	-0.499224	-0.003852	0.085210	6
C	0.384506	1.196318	0.141750	6
O	1.696186	0.684528	-0.173960	8
C	1.598696	-0.664562	-0.382590	6
O	2.531096	-1.395852	-0.666000	8
N	0.298726	-1.051342	-0.224360	7
H	-2.341894	-1.037452	0.211050	1
H	-2.402464	0.787277	0.528770	1
H	0.417126	1.641538	1.140060	1
H	0.114686	1.947577	-0.605500	1
H	0.016706	-2.012033	-0.339570	1
Es	1.963239	0.835363	-0.137389	99
Es	-2.216643	0.503828	0.451867	99
Es	1.695821	0.684114	-0.173610	99
Es	1.192122	0.865454	-0.049521	99
Es	2.264883	-1.191910	-0.322816	99
Es	0.395133	1.487843	0.810074	99
Es	-2.156439	-0.727012	0.234989	99
Es	0.350917	-0.965467	-0.217717	99
Es	2.181097	-1.107889	-0.818334	99
Es	1.652116	0.616850	-0.267928	99
Es	0.868581	-0.897814	-0.300886	99
Es	-0.072724	-0.614610	-0.087038	99
Es	1.650033	0.160312	-0.227581	99
Es	0.298714	-1.051026	-0.225091	99
Es	2.838712	-1.403545	-0.721541	99
Es	2.374481	-1.522892	-0.661235	99
Es	-1.258005	0.009203	-0.130699	99
Es	1.598527	-0.664315	-0.382517	99
Es	-1.152662	-0.099047	0.517101	99
Es	0.132451	-1.602345	-0.285694	99
Es	0.192917	1.692971	-0.357171	99
Es	2.530689	-1.395710	-0.665909	99
Es	0.384707	1.196156	0.141687	99
Es	-1.814188	-0.092138	0.285123	99
Es	-0.498953	-0.003939	0.085150	99
Es	-0.077536	0.596176	0.116588	99
38
Properties=species:S:1:pos:R:3:Z:I:1 energy=-358.69455610767653 field_type=dipole dipole="0.000000 0.000000 0.000000" charge=0
C	-1.814144	-0.092142	0.285140	6
C	-0.499224	-0.003852	0.085210	6
C	0.384506	1.196318	0.141750	6
O	1.696186	0.684528	-0.173960	8
C	1.598696	-0.664562	-0.382590	6
O	2.531096	-1.395852	-0.666000	8
N	0.298726	-1.051342	-0.224360	7
H	-2.341894	-1.037452	0.211050	1
H	-2.402464	0.787277	0.528770	1
H	0.417126	1.641538	1.140060	1
H	0.114686	1.947577	-0.605500	1
H	0.016706	-2.012033	-0.339570	1
Es	1.662460	0.599226	-0.172069	99
Es	0.350751	-0.965031	-0.219075	99
Es	2.838106	-1.409926	-0.719279	99
Es	-2.217062	0.503653	0.451041	99
Es	0.131620	-1.601338	-0.289179	99
Es	0.384708	1.196157	0.141686	99
Es	2.179893	-1.110310	-0.822130	99
Es	1.646178	0.162945	-0.256900	99
Es	1.190734	0.866747	-0.056073	99
Es	0.298746	-1.051289	-0.224400	99
Es	0.192704	1.692885	-0.357400	99
Es	-1.814185	-0.092143	0.285154	99
Es	2.263664	-1.191052	-0.323390	99
Es	0.869843	-0.899155	-0.295007	99
Es	-2.156466	-0.726191	0.233358	99
Es	1.958357	0.848915	-0.196306	99
Es	0.394759	1.487532	0.810799	99
Es	2.530858	-1.395498	-0.665900	99
Es	-0.498952	-0.003940	0.085152	99
Es	1.695589	0.684126	-0.174569	99
Es	-1.152410	-0.099941	0.518558	99
Es	-0.076855	0.596161	0.116625	99
Es	1.598527	-0.664317	-0.382517	99
Es	-0.073026	-0.614261	-0.088892	99
Es	-1.257948	0.009836	-0.130450	99
Es	2.377400	-1.515183	-0.658937	99
38
Properties=species:S:1:pos:R:3:Z:I:1 energy=-358.69455610767653 field_type=dipole dipole="0.000000 0.000000 0.000000" charge=0
C	-1.814144	-0.092142	0.285140	6
C	-0.499224	-0.003852	0.085210	6
C	0.384506	1.196318	0.141750	6
O	1.696186	0.684528	-0.173960	8
C	1.598696	-0.664562	-0.382590	6
O	2.531096	-1.395852	-0.666000	8
N	0.298726	-1.051342	-0.224360	7
H	-2.341894	-1.037452	0.211050	1
H	-2.402464	0.787277	0.528770	1
H	0.417126	1.641538	1.140060	1
H	0.114686	1.947577	-0.605500	1
H	0.016706	-2.012033	-0.339570	1
Es	2.530859	-1.395495	-0.665902	99
Es	1.655802	0.607024	-0.216271	99
Es	0.394924	1.487519	0.810297	99
Es	2.264978	-1.193090	-0.323359	99
Es	0.869463	-0.899083	-0.297313	99
Es	1.647518	0.161498	-0.245661	99
Es	0.300226	-1.050037	-0.221630	99
Es	1.695812	0.684208	-0.173767	99
Es	-1.152543	-0.099333	0.517816	99
Es	1.191453	0.866408	-0.052657	99
Es	2.178636	-1.109062	-0.819464	99
Es	-1.258021	0.009442	-0.130679	99
Es	-1.814185	-0.092140	0.285149	99
Es	-0.072765	-0.614558	-0.087300	99
Es	-2.217171	0.503660	0.451464	99
Es	0.192873	1.693011	-0.357090	99
Es	0.132272	-1.601480	-0.286167	99
Es	-0.498951	-0.003941	0.085155	99
Es	1.962792	0.842783	-0.167701	99
Es	-0.077469	0.595962	0.116459	99
Es	0.348874	-0.965906	-0.224005	99
Es	2.377533	-1.513714	-0.659362	99
Es	0.384710	1.196156	0.141686	99
Es	1.598524	-0.664313	-0.382528	99
Es	-2.156081	-0.726346	0.234354	99
Es	2.837928	-1.410564	-0.721625	99
38
Properties=species:S:1:pos:R:3:Z:I:1 energy=-358.69455610767653 field_type=dipole dipole="0.000000 0.000000 0.000000" charge=0
C	-1.814144	-0.092142	0.285140	6
C	-0.499224	-0.003852	0.085210	6
C	0.384506	1.196318	0.141750	6
O	1.696186	0.684528	-0.173960	8
C	1.598696	-0.664562	-0.382590	6
O	2.531096	-1.395852	-0.666000	8
N	0.298726	-1.051342	-0.224360	7
H	-2.341894	-1.037452	0.211050	1
H	-2.402464	0.787277	0.528770	1
H	0.417126	1.641538	1.140060	1
H	0.114686	1.947577	-0.605500	1
H	0.016706	-2.012033	-0.339570	1
Es	-1.814189	-0.092142	0.285149	99
Es	0.132068	-1.600838	-0.287949	99
Es	-1.258223	0.009616	-0.130345	99
Es	1.961189	0.844987	-0.175574	99
Es	-0.077805	0.595775	0.116700	99
Es	0.299208	-1.051102	-0.223091	99
Es	0.350092	-0.964948	-0.221548	99
Es	-2.217264	0.503667	0.451632	99
Es	1.598526	-0.664314	-0.382521	99
Es	2.379212	-1.509562	-0.659005	99
Es	2.176580	-1.108943	-0.818688	99
Es	0.395007	1.488036	0.810115	99
Es	1.648630	0.161287	-0.245110	99
Es	-0.072918	-0.614707	-0.087427	99
Es	2.265750	-1.195152	-0.323446	99
Es	-2.156001	-0.726198	0.233950	99
Es	-0.498951	-0.003940	0.085151	99
Es	2.837573	-1.412719	-0.722663	99
Es	0.869703	-0.899435	-0.296520	99
Es	1.656634	0.605109	-0.208005	99
Es	1.695791	0.684241	-0.173842	99
Es	1.191155	0.866310	-0.053488	99
Es	0.384704	1.196156	0.141688	99
Es	2.530841	-1.395537	-0.665920	99
Es	0.193020	1.692558	-0.356980	99
Es	-1.152339	-0.099596	0.517636	99
38
Properties=species:S:1:pos:R:3:Z:I:1 energy=-358.69455610767653 field_type=dipole dipole="0.000000 0.000000 0.000000" charge=0
C	-1.814144	-0.092142	0.285140	6
C	-0.499224	-0.003852	0.085210	6
C	0.384506	1.196318	0.141750	6
O	1.696186	0.684528	-0.173960	8
C	1.598696	-0.664562	-0.382590	6
O	2.531096	-1.395852	-0.666000	8
N	0.298726	-1.051342	-0.224360	7
H	-2.341894	-1.037452	0.211050	1
H	-2.402464	0.787277	0.528770	1
H	0.417126	1.641538	1.140060	1
H	0.114686	1.947577	-0.605500	1
H	0.016706	-2.012033	-0.339570	1
Es	-0.077973	0.595767	0.116882	99
Es	0.351293	-0.965482	-0.215813	99
Es	2.530864	-1.395504	-0.665894	99
Es	1.191125	0.866742	-0.054265	99
Es	0.193043	1.692629	-0.356888	99
Es	0.395054	1.487987	0.809835	99
Es	0.298713	-1.051212	-0.224693	99
Es	0.869652	-0.899463	-0.297183	99
Es	2.380089	-1.507244	-0.659220	99
Es	-1.814189	-0.092143	0.285149	99
Es	-2.217474	0.503723	0.451556	99
Es	1.598527	-0.664314	-0.382518	99
Es	-1.258442	0.009445	-0.130090	99
Es	-2.155746	-0.726110	0.234030	99
Es	2.837884	-1.414088	-0.721167	99
Es	2.260768	-1.193136	-0.323268	99
Es	1.656874	0.604582	-0.206111	99
Es	1.648951	0.161110	-0.243888	99
Es	-0.498952	-0.003940	0.085151	99
Es	-1.152198	-0.099594	0.517298	99
Es	2.180366	-1.111929	-0.820163	99
Es	1.695816	0.684294	-0.173997	99
Es	0.131849	-1.600151	-0.290048	99
Es	0.384710	1.196156	0.141686	99
Es	-0.073319	-0.614652	-0.088779	99
Es	1.960707	0.845137	-0.177703	99
38
Properties=species:S:1:pos:R:3:Z:I:1 energy=-358.69455610767653 field_type=dipole dipole="0.000000 0.000000 0.000000" charge=0
C	-1.814144	-0.092142	0.285140	6
C	-0.499224	-0.003852	0.085210	6
C	0.384506	1.196318	0.141750	6
O	1.696186	0.684528	-0.173960	8
C	1.598696	-0.664562	-0.382590	6
O	2.531096	-1.395852	-0.666000	8
N	0.298726	-1.051342	-0.224360	7
H	-2.341894	-1.037452	0.211050	1
H	-2.402464	0.787277	0.528770	1
H	0.417126	1.641538	1.140060	1
H	0.114686	1.947577	-0.605500	1
H	0.016706	-2.012033	-0.339570	1
Es	-1.152273	-0.099521	0.517358	99
Es	2.836846	-1.419136	-0.722357	99
Es	0.193271	1.692694	-0.356576	99
Es	-0.078335	0.595548	0.116819	99
Es	1.961168	0.845783	-0.181934	99
Es	-0.498952	-0.003940	0.085150	99
Es	1.190914	0.866562	-0.054814	99
Es	2.380393	-1.503049	-0.658155	99
Es	-1.258326	0.009592	-0.129839	99
Es	2.262924	-1.193267	-0.323904	99
Es	-0.073512	-0.614881	-0.088707	99
Es	0.298708	-1.051183	-0.224771	99
Es	-1.814189	-0.092148	0.285152	99
Es	1.658256	0.603515	-0.197288	99
Es	0.351026	-0.965225	-0.217377	99
Es	1.647376	0.162208	-0.248705	99
Es	1.695789	0.683827	-0.173252	99
Es	0.869755	-0.899603	-0.297063	99
Es	2.179001	-1.110780	-0.819366	99
Es	2.530837	-1.395638	-0.665921	99
Es	-2.155706	-0.726194	0.233783	99
Es	0.395118	1.487954	0.809622	99
Es	-2.217579	0.503700	0.451442	99
Es	1.598526	-0.664314	-0.382519	99
Es	0.384709	1.196156	0.141686	99
Es	0.132245	-1.600050	-0.288564	99
38
Properties=species:S:1:pos:R:3:Z:I:1 energy=-358.69455610767653 field_type=dipole dipole="0.000000 0.000000 0.000000" charge=0
C	-1.814144	-0.092142	0.285140	6
C	-0.499224	-0.003852	0.085210	6
C	0.384506	1.196318	0.141750	6
O	1.696186	0.684528	-0.173960	8
C	1.598696	-0.664562	-0.382590	6
O	2.531096	-1.395852	-0.666000	8
N	0.298726	-1.051342	-0.224360	7
H	-2.341894	-1.037452	0.211050	1
H	-2.402464	0.787277	0.528770	1
H	0.417126	1.641538	1.140060	1
H	0.114686	1.947577	-0.605500	1
H	0.016706	-2.012033	-0.339570	1
Es	0.384708	1.196157	0.141685	99
Es	-1.814185	-0.092144	0.285159	99
Es	-1.152689	-0.099344	0.517259	99
Es	-1.257984	0.009447	-0.129993	99
Es	1.191111	0.866544	-0.054002	99
Es	2.530790	-1.395646	-0.665912	99
Es	-2.217637	0.503675	0.451676	99
Es	2.169980	-1.104729	-0.813988	99
Es	2.271860	-1.200718	-0.326015	99
Es	-0.073075	-0.615092	-0.086954	99
Es	1.598526	-0.664313	-0.382523	99
Es	1.647312	0.162504	-0.252105	99
Es	-0.078712	0.595367	0.116690	99
Es	0.193352	1.692628	-0.356436	99
Es	1.695839	0.684033	-0.173482	99
Es	0.350736	-0.965149	-0.218534	99
Es	2.380862	-1.502826	-0.658186	99
Es	0.298719	-1.050946	-0.225249	99
Es	1.960894	0.845471	-0.180131	99
Es	1.658390	0.603290	-0.196298	99
Es	-2.155535	-0.726133	0.234081	99
Es	2.836525	-1.417928	-0.725613	99
Es	-0.498951	-0.003940	0.085151	99
Es	0.132289	-1.599803	-0.288181	99
Es	0.395162	1.488016	0.809447	99
Es	0.869704	-0.899811	-0.297646	99
38
Properties=species:S:1:pos:R:3:Z:I:1 energy=-358.69455610767653 field_type=dipole dipole="0.000000 0.000000 0.000000" charge=0
C	-1.814144	-0.092142	0.285140	6
C	-0.499224	-0.003852	0.085210	6
C	0.384506	1.196318	0.141750	6
O	1.696186	0.684528	-0.173960	8
C	1.598696	-0.664562	-0.382590	6
O	2.531096	-1.395852	-0.666000	8
N	0.298726	-1.051342	-0.224360	7
H	-2.341894	-1.037452	0.211050	1
H	-2.402464	0.787277	0.528770	1
H	0.417126	1.641538	1.140060	1
H	0.114686	1.947577	-0.605500	1
H	0.016706	-2.012033	-0.339570	1
Es	-0.078886	0.595424	0.116664	99
Es	0.869651	-0.899686	-0.298151	99
Es	1.660154	0.600995	-0.184538	99
Es	0.132078	-1.599358	-0.290077	99
Es	2.273027	-1.201617	-0.327135	99
Es	-1.258243	0.009456	-0.129615	99
Es	0.395167	1.487904	0.809370	99
Es	2.382451	-1.499592	-0.657164	99
Es	1.647354	0.163058	-0.255346	99
Es	0.193472	1.692737	-0.356246	99
Es	2.167386	-1.105344	-0.813789	99
Es	1.598526	-0.664312	-0.382524	99
Es	1.190898	0.866130	-0.054137	99
Es	-1.152427	-0.099453	0.517005	99
Es	0.351262	-0.965863	-0.215047	99
Es	0.298748	-1.050757	-0.225568	99
Es	-0.498953	-0.003939	0.085151	99
Es	2.836315	-1.419724	-0.725680	99
Es	-2.155493	-0.726125	0.233874	99
Es	-0.073320	-0.615156	-0.087744	99
Es	-2.217682	0.503741	0.451690	99
Es	1.959318	0.847465	-0.188274	99
Es	0.384704	1.196158	0.141690	99
Es	2.530849	-1.395580	-0.665912	99
Es	1.695824	0.684191	-0.173743	99
Es	-1.814189	-0.092142	0.285148	99
38
Properties=species:S:1:pos:R:3:Z:I:1 energy=-358.69455610767653 field_type=dipole dipole="0.000000 0.000000 0.000000" charge=0
C	-1.814144	-0.092142	0.285140	6
C	-0.499224	-0.003852	0.085210	6
C	0.384506	1.196318	0.141750	6
O	1.696186	0.684528	-0.173960	8
C	1.598696	-0.664562	-0.382590	6
O	2.531096	-1.395852	-0.666000	8
N	0.298726	-1.051342	-0.224360	7
H	-2.341894	-1.037452	0.211050	1
H	-2.402464	0.787277	0.528770	1
H	0.417126	1.641538	1.140060	1
H	0.114686	1.947577	-0.605500	1
H	0.016706	-2.012033	-0.339570	1
Es	0.384711	1.196155	0.141678	99
Es	1.647671	0.162369	-0.249973	99
Es	-2.155172	-0.726071	0.233832	99
Es	-0.073401	-0.615081	-0.088083	99
Es	-1.152633	-0.099404	0.516788	99
Es	0.132257	-1.599185	-0.289326	99
Es	1.190870	0.866727	-0.055321	99
Es	1.960231	0.846486	-0.185743	99
Es	2.261602	-1.193666	-0.324921	99
Es	-2.218017	0.503693	0.451480	99
Es	0.870058	-0.900363	-0.295910	99
Es	1.598526	-0.664314	-0.382518	99
Es	0.299007	-1.051258	-0.223522	99
Es	2.178070	-1.112788	-0.819583	99
Es	2.382788	-1.497657	-0.657223	99
Es	-0.079371	0.595241	0.116938	99
Es	-0.498952	-0.003940	0.085150	99
Es	-1.258063	0.009404	-0.129318	99
Es	0.193694	1.692776	-0.355923	99
Es	-1.814189	-0.092142	0.285146	99
Es	0.350557	-0.964925	-0.219708	99
Es	2.530851	-1.395506	-0.665904	99
Es	2.836718	-1.422238	-0.722054	99
Es	0.395331	1.487991	0.808884	99
Es	1.659175	0.602785	-0.191826	99
Es	1.695673	0.683519	-0.173141	99
38
Properties=species:S:1:pos:R:3:Z:I:1 energy=-358.69455610767653 field_type=dipole dipole="0.000000 0.000000 0.000000" charge=0
C	-1.814144	-0.092142	0.285140	6
C	-0.499224	-0.003852	0.085210	6
C	0.384506	1.196318	0.141750	6
O	1.696186	0.684528	-0.173960	8
C	1.598696	-0.664562	-0.382590	6
O	2.531096	-1.395852	-0.666000	8
N	0.298726	-1.051342	-0.224360	7
H	-2.341894	-1.037452	0.211050	1
H	-2.402464	0.787277	0.528770	1
H	0.417126	1.641538	1.140060	1
H	0.114686	1.947577	-0.605500	1
H	0.016706	-2.012033	-0.339570	1
Es	0.350082	-0.964824	-0.221611	99
Es	1.598526	-0.664314	-0.382518	99
Es	1.960832	0.845762	-0.184471	99
Es	0.299248	-1.051075	-0.223001	99
Es	0.395468	1.487873	0.808518	99
Es	1.695835	0.684293	-0.173927	99
Es	1.646951	0.162758	-0.251179	99
Es	2.530860	-1.395473	-0.665895	99
Es	0.193717	1.692969	-0.355860	99
Es	-2.155035	-0.725982	0.234019	99
Es	1.659148	0.601986	-0.190707	99
Es	-0.498951	-0.003942	0.085161	99
Es	-1.814188	-0.092143	0.285152	99
Es	1.190857	0.866991	-0.055708	99
Es	2.382189	-1.497407	-0.657115	99
Es	-0.073535	-0.614925	-0.089001	99
Es	0.870218	-0.900738	-0.295514	99
Es	-0.079587	0.594995	0.117298	99
Es	-1.258959	0.009430	-0.129370	99
Es	0.384714	1.196154	0.141686	99
Es	2.183601	-1.116162	-0.820710	99
Es	-1.151799	-0.099327	0.516613	99
Es	-2.218140	0.503646	0.451366	99
Es	0.132524	-1.599160	-0.287382	99
Es	2.836743	-1.423787	-0.720981	99
Es	2.256672	-1.188988	-0.324963	99
