38
Properties=species:S:1:pos:R:3:Z:I:1 energy=-358.57416307529076 field_type=dipole dipole="0.000000 0.000000 0.000000" charge=0
C	-1.920621	-0.166057	0.175408	6
C	-0.597511	-0.120157	-0.020852	6
C	0.207359	1.135493	-0.112532	6
O	1.384319	0.957602	0.674088	8
N	2.163669	-0.138147	0.237218	7
C	1.477689	-1.185437	-0.088842	6
O	0.122079	-1.321647	-0.142302	8
H	-2.513241	0.736602	0.280358	1
H	-2.439241	-1.117607	0.238768	1
H	-0.335531	1.999013	0.284278	1
H	0.490109	1.351423	-1.149092	1
H	1.960919	-2.131078	-0.376502	1
Es	2.163001	-0.138209	0.237201	99
Es	2.526567	-0.099297	0.249081	99
Es	1.684972	0.458994	0.446799	99
Es	0.122287	-1.321283	-0.142216	99
Es	1.281591	0.857196	0.942116	99
Es	1.384184	0.957419	0.673769	99
Es	-2.271214	-0.801572	0.216343	99
Es	1.861507	-0.473083	-0.189174	99
Es	0.391548	1.265633	-0.818701	99
Es	0.081393	-1.472287	0.088457	99
Es	-2.313517	0.443042	0.243498	99
Es	0.207511	1.135379	-0.112402	99
Es	-0.113095	-0.851311	-0.089250	99
Es	0.079209	-1.408969	-0.405726	99
Es	-0.164313	1.705601	0.156877	99
Es	0.940477	0.991777	0.350555	99
Es	1.558022	1.210376	0.630170	99
Es	-0.597210	-0.120381	-0.020900	99
Es	0.635609	-1.218498	-0.117561	99
Es	1.802121	-1.808179	-0.280805	99
Es	-0.197639	0.490502	-0.075614	99
Es	1.866883	-0.668660	0.370964	99
Es	-1.233587	-0.136830	0.409254	99
Es	1.477399	-1.185461	-0.088882	99
Es	-1.920675	-0.166050	0.175403	99
Es	-1.324619	-0.127851	-0.251648	99
38
Properties=species:S:1:pos:R:3:Z:I:1 energy=-358.57416307529076 field_type=dipole dipole="0.000000 0.000000 0.000000" charge=0
C	-1.920621	-0.166057	0.175408	6
C	-0.597511	-0.120157	-0.020852	6
C	0.207359	1.135493	-0.112532	6
O	1.384319	0.957602	0.674088	8
N	2.163669	-0.138147	0.237218	7
C	1.477689	-1.185437	-0.088842	6
O	0.122079	-1.321647	-0.142302	8
H	-2.513241	0.736602	0.280358	1
H	-2.439241	-1.117607	0.238768	1
H	-0.335531	1.999013	0.284278	1
H	0.490109	1.351423	-1.149092	1
H	1.960919	-2.131078	-0.376502	1
Es	1.559954	1.219608	0.642101	99
Es	1.384209	0.957390	0.673757	99
Es	0.932473	0.987119	0.357909	99
Es	-1.234018	-0.137849	0.407054	99
Es	-1.324407	-0.127770	-0.248798	99
Es	1.802762	-1.808411	-0.280314	99
Es	1.477400	-1.185463	-0.088874	99
Es	0.207510	1.135378	-0.112401	99
Es	-2.271142	-0.802449	0.214970	99
Es	0.641252	-1.220614	-0.146278	99
Es	-1.920678	-0.166051	0.175397	99
Es	0.139451	-1.372977	0.076962	99
Es	-0.597204	-0.120383	-0.020896	99
Es	1.685291	0.457236	0.446882	99
Es	2.163006	-0.138232	0.237186	99
Es	0.122483	-1.321427	-0.141990	99
Es	0.391332	1.264804	-0.816157	99
Es	1.864292	-0.666633	0.365936	99
Es	1.286804	0.853742	0.921730	99
Es	1.858796	-0.474082	-0.180447	99
Es	-0.197926	0.490473	-0.075755	99
Es	2.532921	-0.099714	0.244984	99
Es	-2.313573	0.444135	0.243272	99
Es	0.021754	-1.506198	-0.355389	99
Es	-0.120011	-0.850929	-0.099183	99
Es	-0.164317	1.707292	0.155950	99
38
Properties=species:S:1:pos:R:3:Z:I:1 energy=-358.57416307529076 field_type=dipole dipole="0.000000 0.000000 0.000000" charge=0
C	-1.920621	-0.166057	0.175408	6
C	-0.597511	-0.120157	-0.020852	6
C	0.207359	1.135493	-0.112532	6
O	1.384319	0.957602	0.674088	8
N	2.163669	-0.138147	0.237218	7
C	1.477689	-1.185437	-0.088842	6
O	0.122079	-1.321647	-0.142302	8
H	-2.513241	0.736602	0.280358	1
H	-2.439241	-1.117607	0.238768	1
H	-0.335531	1.999013	0.284278	1
H	0.490109	1.351423	-1.149092	1
H	1.960919	-2.131078	-0.376502	1
Es	-0.000486	-1.551660	-0.304904	99
Es	2.163003	-0.138220	0.237192	99
Es	-1.234104	-0.138048	0.406922	99
Es	-1.324470	-0.127955	-0.248790	99
Es	0.644090	-1.223976	-0.151194	99
Es	1.477397	-1.185466	-0.088871	99
Es	-0.597198	-0.120390	-0.020898	99
Es	1.857353	-0.474767	-0.176462	99
Es	0.391115	1.264612	-0.815504	99
Es	0.928261	0.984332	0.362293	99
Es	-0.164510	1.707547	0.155817	99
Es	0.122343	-1.321224	-0.141634	99
Es	1.558923	1.221111	0.643544	99
Es	2.535205	-0.099746	0.242635	99
Es	1.290928	0.854418	0.915903	99
Es	1.384248	0.957407	0.673847	99
Es	-2.313835	0.444296	0.243362	99
Es	1.803007	-1.808465	-0.280206	99
Es	-0.124760	-0.851608	-0.097213	99
Es	1.685986	0.457351	0.446239	99
Es	-2.270874	-0.802294	0.214976	99
Es	-0.197858	0.490374	-0.076071	99
Es	0.163594	-1.323240	0.029275	99
Es	0.207512	1.135378	-0.112400	99
Es	-1.920680	-0.166049	0.175395	99
Es	1.864223	-0.665723	0.364356	99
38
Properties=species:S:1:pos:R:3:Z:I:1 energy=-358.57416307529076 field_type=dipole dipole="0.000000 0.000000 0.000000" charge=0
C	-1.920621	-0.166057	0.175408	6
C	-0.597511	-0.120157	-0.020852	6
C	0.207359	1.135493	-0.112532	6
O	1.384319	0.957602	0.674088	8
N	2.163669	-0.138147	0.237218	7
C	1.477689	-1.185437	-0.088842	6
O	0.122079	-1.321647	-0.142302	8
H	-2.513241	0.736602	0.280358	1
H	-2.439241	-1.117607	0.238768	1
H	-0.335531	1.999013	0.284278	1
H	0.490109	1.351423	-1.149092	1
H	1.960919	-2.131078	-0.376502	1
Es	1.293430	0.854729	0.913887	99
Es	1.862484	-0.665088	0.361851	99
Es	1.803108	-1.808360	-0.280366	99
Es	0.122313	-1.321232	-0.142182	99
Es	-1.324589	-0.127930	-0.249230	99
Es	0.390897	1.264379	-0.815369	99
Es	-0.164665	1.707603	0.155786	99
Es	1.477405	-1.185464	-0.088868	99
Es	2.163002	-0.138230	0.237188	99
Es	-1.234048	-0.138274	0.407388	99
Es	-2.270712	-0.801983	0.214736	99
Es	-0.127431	-0.852557	-0.091537	99
Es	1.557871	1.220703	0.644183	99
Es	1.858161	-0.474389	-0.175024	99
Es	2.536715	-0.100625	0.243879	99
Es	0.646338	-1.226728	-0.148562	99
Es	0.173086	-1.297427	-0.016008	99
Es	1.384192	0.957376	0.673746	99
Es	0.207508	1.135379	-0.112399	99
Es	-2.314077	0.444234	0.243444	99
Es	1.686715	0.457869	0.445217	99
Es	-0.197780	0.490379	-0.075923	99
Es	0.925932	0.983441	0.364687	99
Es	-1.920680	-0.166049	0.175403	99
Es	-0.597200	-0.120388	-0.020898	99
Es	-0.009562	-1.573372	-0.267418	99
38
Properties=species:S:1:pos:R:3:Z:I:1 energy=-358.57416307529076 field_type=dipole dipole="0.000000 0.000000 0.000000" charge=0
C	-1.920621	-0.166057	0.175408	6
C	-0.597511	-0.120157	-0.020852	6
C	0.207359	1.135493	-0.112532	6
O	1.384319	0.957602	0.674088	8
N	2.163669	-0.138147	0.237218	7
C	1.477689	-1.185437	-0.088842	6
O	0.122079	-1.321647	-0.142302	8
H	-2.513241	0.736602	0.280358	1
H	-2.439241	-1.117607	0.238768	1
H	-0.335531	1.999013	0.284278	1
H	0.490109	1.351423	-1.149092	1
H	1.960919	-2.131078	-0.376502	1
Es	-0.129575	-0.855520	-0.075436	99
Es	0.139839	-1.304513	-0.126301	99
Es	0.925349	0.983607	0.364786	99
Es	-2.270732	-0.801505	0.214441	99
Es	1.477397	-1.185466	-0.088870	99
Es	-0.165047	1.707402	0.156008	99
Es	0.207509	1.135378	-0.112398	99
Es	-1.324668	-0.127779	-0.250215	99
Es	-1.234021	-0.138486	0.408155	99
Es	1.293672	0.853892	0.912411	99
Es	-0.197318	0.490310	-0.075700	99
Es	1.803089	-1.808045	-0.281216	99
Es	2.537420	-0.101322	0.245394	99
Es	-0.597204	-0.120385	-0.020900	99
Es	1.556997	1.220235	0.646379	99
Es	0.390836	1.264376	-0.815512	99
Es	0.649574	-1.231527	-0.129133	99
Es	1.384153	0.957344	0.673782	99
Es	-1.920681	-0.166049	0.175390	99
Es	1.863366	-0.663889	0.361029	99
Es	1.687879	0.458550	0.444841	99
Es	-0.015214	-1.593464	-0.213112	99
Es	-2.314167	0.443959	0.243653	99
Es	2.162991	-0.138196	0.237200	99
Es	1.856918	-0.474960	-0.175135	99
Es	0.160050	-1.285949	-0.121930	99
38
Properties=species:S:1:pos:R:3:Z:I:1 energy=-358.57416307529076 field_type=dipole dipole="0.000000 0.000000 0.000000" charge=0
C	-1.920621	-0.166057	0.175408	6
C	-0.597511	-0.120157	-0.020852	6
C	0.207359	1.135493	-0.112532	6
O	1.384319	0.957602	0.674088	8
N	2.163669	-0.138147	0.237218	7
C	1.477689	-1.185437	-0.088842	6
O	0.122079	-1.321647	-0.142302	8
H	-2.513241	0.736602	0.280358	1
H	-2.439241	-1.117607	0.238768	1
H	-0.335531	1.999013	0.284278	1
H	0.490109	1.351423	-1.149092	1
H	1.960919	-2.131078	-0.376502	1
Es	1.296363	0.854824	0.906608	99
Es	0.922607	0.981395	0.368728	99
Es	-1.233969	-0.138657	0.407479	99
Es	1.803303	-1.808243	-0.280628	99
Es	-0.164984	1.707806	0.155684	99
Es	-0.130203	-0.854640	-0.083843	99
Es	-0.011994	-1.582378	-0.243971	99
Es	1.477396	-1.185465	-0.088874	99
Es	-0.597203	-0.120385	-0.020900	99
Es	-1.920679	-0.166049	0.175399	99
Es	1.856790	-0.474939	-0.171684	99
Es	1.687679	0.457985	0.444631	99
Es	0.207509	1.135379	-0.112402	99
Es	0.390628	1.264184	-0.814621	99
Es	-2.314341	0.444204	0.243672	99
Es	1.862576	-0.663647	0.359865	99
Es	0.176530	-1.284410	-0.051024	99
Es	1.556911	1.221721	0.647687	99
Es	2.538824	-0.101108	0.242794	99
Es	0.648014	-1.228203	-0.144618	99
Es	-0.197549	0.490247	-0.076023	99
Es	-2.270493	-0.801650	0.214568	99
Es	-1.324806	-0.127906	-0.249732	99
Es	2.163000	-0.138209	0.237196	99
Es	0.122294	-1.321243	-0.142118	99
Es	1.384209	0.957386	0.673736	99
38
Properties=species:S:1:pos:R:3:Z:I:1 energy=-358.57416307529076 field_type=dipole dipole="0.000000 0.000000 0.000000" charge=0
C	-1.920621	-0.166057	0.175408	6
C	-0.597511	-0.120157	-0.020852	6
C	0.207359	1.135493	-0.112532	6
O	1.384319	0.957602	0.674088	8
N	2.163669	-0.138147	0.237218	7
C	1.477689	-1.185437	-0.088842	6
O	0.122079	-1.321647	-0.142302	8
H	-2.513241	0.736602	0.280358	1
H	-2.439241	-1.117607	0.238768	1
H	-0.335531	1.999013	0.284278	1
H	0.490109	1.351423	-1.149092	1
H	1.960919	-2.131078	-0.376502	1
Es	1.862403	-0.663199	0.359043	99
Es	-1.324675	-0.127946	-0.249821	99
Es	0.207522	1.135376	-0.112405	99
Es	2.162999	-0.138198	0.237195	99
Es	-0.197490	0.490307	-0.075734	99
Es	1.296505	0.854034	0.903957	99
Es	-0.013332	-1.585762	-0.232808	99
Es	2.539597	-0.101502	0.242240	99
Es	0.390478	1.264031	-0.814668	99
Es	-1.920680	-0.166049	0.175408	99
Es	-0.165000	1.707797	0.155674	99
Es	-0.597198	-0.120392	-0.020900	99
Es	0.122381	-1.321161	-0.142495	99
Es	0.922072	0.981505	0.368953	99
Es	1.856447	-0.475053	-0.170112	99
Es	1.803348	-1.808151	-0.280846	99
Es	-1.234086	-0.138647	0.407803	99
Es	0.648934	-1.229609	-0.141228	99
Es	-2.270443	-0.801526	0.214328	99
Es	-0.130711	-0.855674	-0.079122	99
Es	0.177276	-1.278477	-0.069912	99
Es	1.477395	-1.185467	-0.088872	99
Es	1.688177	0.458418	0.444259	99
Es	1.556717	1.221803	0.650425	99
Es	-2.314459	0.444138	0.243558	99
Es	1.384235	0.957401	0.673688	99
38
Properties=species:S:1:pos:R:3:Z:I:1 energy=-358.57416307529076 field_type=dipole dipole="0.000000 0.000000 0.000000" charge=0
C	-1.920621	-0.166057	0.175408	6
C	-0.597511	-0.120157	-0.020852	6
C	0.207359	1.135493	-0.112532	6
O	1.384319	0.957602	0.674088	8
N	2.163669	-0.138147	0.237218	7
C	1.477689	-1.185437	-0.088842	6
O	0.122079	-1.321647	-0.142302	8
H	-2.513241	0.736602	0.280358	1
H	-2.439241	-1.117607	0.238768	1
H	-0.335531	1.999013	0.284278	1
H	0.490109	1.351423	-1.149092	1
H	1.960919	-2.131078	-0.376502	1
Es	0.207517	1.135377	-0.112403	99
Es	0.177885	-1.271551	-0.094239	99
Es	-2.270429	-0.801398	0.214029	99
Es	1.384243	0.957456	0.673963	99
Es	-0.165130	1.707783	0.155709	99
Es	0.920010	0.979615	0.372355	99
Es	1.688381	0.458295	0.444545	99
Es	-1.920681	-0.166050	0.175396	99
Es	0.390389	1.264031	-0.814470	99
Es	0.649592	-1.230477	-0.137033	99
Es	2.539921	-0.101983	0.243299	99
Es	0.122390	-1.321176	-0.142471	99
Es	-1.324842	-0.127722	-0.250083	99
Es	1.477393	-1.185468	-0.088871	99
Es	1.803387	-1.808003	-0.281253	99
Es	-2.314517	0.444052	0.243663	99
Es	-0.131530	-0.856883	-0.074964	99
Es	-0.197403	0.490200	-0.075661	99
Es	-0.013739	-1.590450	-0.216914	99
Es	1.555745	1.221133	0.646384	99
Es	1.855680	-0.475474	-0.170283	99
Es	1.299351	0.856459	0.904212	99
Es	-0.597202	-0.120388	-0.020908	99
Es	1.862963	-0.662274	0.358410	99
Es	-1.233961	-0.138879	0.408012	99
Es	2.163002	-0.138227	0.237185	99
38
Properties=species:S:1:pos:R:3:Z:I:1 energy=-358.57416307529076 field_type=dipole dipole="0.000000 0.000000 0.000000" charge=0
C	-1.920621	-0.166057	0.175408	6
C	-0.597511	-0.120157	-0.020852	6
C	0.207359	1.135493	-0.112532	6
O	1.384319	0.957602	0.674088	8
N	2.163669	-0.138147	0.237218	7
C	1.477689	-1.185437	-0.088842	6
O	0.122079	-1.321647	-0.142302	8
H	-2.513241	0.736602	0.280358	1
H	-2.439241	-1.117607	0.238768	1
H	-0.335531	1.999013	0.284278	1
H	0.490109	1.351423	-1.149092	1
H	1.960919	-2.131078	-0.376502	1
Es	0.122345	-1.321189	-0.142656	99
Es	-0.165015	1.707860	0.155584	99
Es	1.477393	-1.185467	-0.088873	99
Es	1.803415	-1.808026	-0.281117	99
Es	0.177864	-1.271822	-0.093058	99
Es	1.298845	0.854222	0.898293	99
Es	1.384207	0.957402	0.673788	99
Es	-1.234151	-0.138735	0.408193	99
Es	-0.197519	0.490202	-0.075725	99
Es	-0.013989	-1.589655	-0.217884	99
Es	2.162988	-0.138188	0.237195	99
Es	0.390314	1.263908	-0.814370	99
Es	2.540411	-0.101937	0.242551	99
Es	-0.131384	-0.856986	-0.074365	99
Es	1.855895	-0.475348	-0.169097	99
Es	-2.314664	0.444073	0.243601	99
Es	-0.597201	-0.120388	-0.020902	99
Es	-2.270294	-0.801303	0.214089	99
Es	1.555777	1.222202	0.652903	99
Es	0.919531	0.979906	0.372702	99
Es	1.689178	0.458974	0.443526	99
Es	0.649664	-1.230734	-0.137544	99
Es	-1.920682	-0.166049	0.175396	99
Es	0.207518	1.135376	-0.112401	99
Es	1.862614	-0.662296	0.357865	99
Es	-1.324646	-0.128006	-0.250086	99
38
Properties=species:S:1:pos:R:3:Z:I:1 energy=-358.57416307529076 field_type=dipole dipole="0.000000 0.000000 0.000000" charge=0
C	-1.920621	-0.166057	0.175408	6
C	-0.597511	-0.120157	-0.020852	6
C	0.207359	1.135493	-0.112532	6
O	1.384319	0.957602	0.674088	8
N	2.163669	-0.138147	0.237218	7
C	1.477689	-1.185437	-0.088842	6
O	0.122079	-1.321647	-0.142302	8
H	-2.513241	0.736602	0.280358	1
H	-2.439241	-1.117607	0.238768	1
H	-0.335531	1.999013	0.284278	1
H	0.490109	1.351423	-1.149092	1
H	1.960919	-2.131078	-0.376502	1
Es	1.477395	-1.185466	-0.088874	99
Es	-2.314497	0.443950	0.243816	99
Es	-0.013827	-1.592675	-0.206364	99
Es	1.855739	-0.475320	-0.168528	99
Es	-1.324681	-0.127775	-0.250347	99
Es	0.917994	0.978620	0.375297	99
Es	0.650160	-1.231583	-0.131688	99
Es	-0.197385	0.490127	-0.075675	99
Es	1.555711	1.222238	0.651509	99
Es	1.300666	0.855620	0.896968	99
Es	1.803458	-1.807803	-0.281662	99
Es	0.390302	1.263975	-0.814198	99
Es	2.162996	-0.138213	0.237192	99
Es	2.540813	-0.102240	0.242984	99
Es	0.207506	1.135381	-0.112403	99
Es	-2.270480	-0.801246	0.213851	99
Es	-0.131988	-0.858181	-0.070907	99
Es	-1.920681	-0.166049	0.175396	99
Es	0.147090	-1.296594	-0.136796	99
Es	1.688866	0.458595	0.443919	99
Es	-0.165115	1.707810	0.155603	99
Es	1.862474	-0.661953	0.357276	99
Es	-1.234143	-0.138928	0.408294	99
Es	1.384252	0.957408	0.673702	99
Es	-0.597202	-0.120385	-0.020894	99
Es	0.152992	-1.291316	-0.119862	99
38
Properties=species:S:1:pos:R:3:Z:I:1 energy=-358.57416307529076 field_type=dipole dipole="0.000000 0.000000 0.000000" charge=0
C	-1.920621	-0.166057	0.175408	6
C	-0.597511	-0.120157	-0.020852	6
C	0.207359	1.135493	-0.112532	6
O	1.384319	0.957602	0.674088	8
N	2.163669	-0.138147	0.237218	7
C	1.477689	-1.185437	-0.088842	6
O	0.122079	-1.321647	-0.142302	8
H	-2.513241	0.736602	0.280358	1
H	-2.439241	-1.117607	0.238768	1
H	-0.335531	1.999013	0.284278	1
H	0.490109	1.351423	-1.149092	1
H	1.960919	-2.131078	-0.376502	1
Es	-0.197472	0.490235	-0.075679	99
Es	1.384211	0.957407	0.673788	99
Es	0.177480	-1.272756	-0.090170	99
Es	-0.132509	-0.857719	-0.073947	99
Es	-1.324754	-0.127944	-0.250167	99
Es	1.555812	1.222521	0.653332	99
Es	0.122785	-1.320797	-0.142880	99
Es	-0.597200	-0.120388	-0.020896	99
Es	-1.234106	-0.138891	0.407995	99
Es	0.649726	-1.230578	-0.138845	99
Es	2.541218	-0.102281	0.242095	99
Es	-2.270274	-0.801296	0.214070	99
Es	0.207512	1.135378	-0.112401	99
Es	-0.013037	-1.588390	-0.219557	99
Es	1.477396	-1.185463	-0.088882	99
Es	1.803530	-1.808019	-0.281061	99
Es	-2.314679	0.444059	0.243678	99
Es	0.390215	1.263877	-0.814082	99
Es	2.163000	-0.138204	0.237197	99
Es	0.917393	0.978352	0.376051	99
Es	1.861731	-0.661954	0.356729	99
Es	-0.165096	1.707870	0.155522	99
Es	1.689006	0.459064	0.443177	99
Es	-1.920682	-0.166048	0.175396	99
Es	1.856238	-0.475164	-0.167337	99
Es	1.300971	0.855123	0.894484	99
38
Properties=species:S:1:pos:R:3:Z:I:1 energy=-358.57416307529076 field_type=dipole dipole="0.000000 0.000000 0.000000" charge=0
C	-1.920621	-0.166057	0.175408	6
C	-0.597511	-0.120157	-0.020852	6
C	0.207359	1.135493	-0.112532	6
O	1.384319	0.957602	0.674088	8
N	2.163669	-0.138147	0.237218	7
C	1.477689	-1.185437	-0.088842	6
O	0.122079	-1.321647	-0.142302	8
H	-2.513241	0.736602	0.280358	1
H	-2.439241	-1.117607	0.238768	1
H	-0.335531	1.999013	0.284278	1
H	0.490109	1.351423	-1.149092	1
H	1.960919	-2.131078	-0.376502	1
Es	0.178011	-1.270167	-0.099407	99
Es	0.207509	1.135379	-0.112402	99
Es	1.555460	1.222645	0.654452	99
Es	-0.197458	0.490094	-0.075707	99
Es	1.477394	-1.185468	-0.088871	99
Es	1.856504	-0.474971	-0.167111	99
Es	-0.132788	-0.858080	-0.072923	99
Es	-1.233919	-0.138914	0.408303	99
Es	0.390125	1.263776	-0.813883	99
Es	-1.920682	-0.166049	0.175392	99
Es	-2.314751	0.443893	0.243677	99
Es	1.803569	-1.807961	-0.281188	99
Es	0.916690	0.977818	0.377404	99
Es	1.384164	0.957355	0.673767	99
Es	-0.597201	-0.120388	-0.020899	99
Es	-2.270234	-0.801206	0.214047	99
Es	0.649898	-1.230826	-0.137521	99
Es	-1.324947	-0.127750	-0.250462	99
Es	0.122333	-1.321191	-0.141827	99
Es	1.301697	0.855193	0.892358	99
Es	1.689413	0.459344	0.443050	99
Es	-0.165143	1.707917	0.155424	99
Es	2.163003	-0.138211	0.237194	99
Es	1.861384	-0.661832	0.356118	99
Es	2.541388	-0.102511	0.242397	99
Es	-0.013007	-1.589894	-0.213773	99
38
Properties=species:S:1:pos:R:3:Z:I:1 energy=-358.57416307529076 field_type=dipole dipole="0.000000 0.000000 0.000000" charge=0
C	-1.920621	-0.166057	0.175408	6
C	-0.597511	-0.120157	-0.020852	6
C	0.207359	1.135493	-0.112532	6
O	1.384319	0.957602	0.674088	8
N	2.163669	-0.138147	0.237218	7
C	1.477689	-1.185437	-0.088842	6
O	0.122079	-1.321647	-0.142302	8
H	-2.513241	0.736602	0.280358	1
H	-2.439241	-1.117607	0.238768	1
H	-0.335531	1.999013	0.284278	1
H	0.490109	1.351423	-1.149092	1
H	1.960919	-2.131078	-0.376502	1
Es	1.477393	-1.185467	-0.088873	99
Es	-0.133047	-0.858489	-0.072178	99
Es	0.649924	-1.230722	-0.138471	99
Es	2.541719	-0.102421	0.241301	99
Es	-1.324817	-0.127931	-0.250276	99
Es	-0.165058	1.707915	0.155449	99
Es	-2.270250	-0.801216	0.213985	99
Es	0.390030	1.263871	-0.813674	99
Es	1.862317	-0.661341	0.356261	99
Es	0.177925	-1.271327	-0.094512	99
Es	0.122351	-1.321193	-0.142462	99
Es	-0.197531	0.490161	-0.075785	99
Es	-0.012761	-1.588353	-0.217736	99
Es	-2.314735	0.443987	0.243662	99
Es	-1.920682	-0.166049	0.175396	99
Es	1.689281	0.458627	0.443918	99
Es	0.207510	1.135379	-0.112400	99
Es	1.555097	1.222328	0.651338	99
Es	1.384210	0.957429	0.673808	99
Es	2.163002	-0.138216	0.237204	99
Es	1.803582	-1.807993	-0.281129	99
Es	-0.597201	-0.120387	-0.020898	99
Es	1.855359	-0.475440	-0.166185	99
Es	-1.234055	-0.138961	0.408139	99
Es	1.302910	0.857170	0.892860	99
Es	0.915941	0.976638	0.378868	99
38
Properties=species:S:1:pos:R:3:Z:I:1 energy=-358.57416307529076 field_type=dipole dipole="0.000000 0.000000 0.000000" charge=0
C	-1.920621	-0.166057	0.175408	6
C	-0.597511	-0.120157	-0.020852	6
C	0.207359	1.135493	-0.112532	6
O	1.384319	0.957602	0.674088	8
N	2.163669	-0.138147	0.237218	7
C	1.477689	-1.185437	-0.088842	6
O	0.122079	-1.321647	-0.142302	8
H	-2.513241	0.736602	0.280358	1
H	-2.439241	-1.117607	0.238768	1
H	-0.335531	1.999013	0.284278	1
H	0.490109	1.351423	-1.149092	1
H	1.960919	-2.131078	-0.376502	1
Es	-2.314794	0.443972	0.243595	99
Es	1.384126	0.957331	0.673810	99
Es	0.650028	-1.230906	-0.137734	99
Es	-0.133560	-0.858784	-0.071738	99
Es	2.541880	-0.102702	0.242241	99
Es	-1.234102	-0.138959	0.408277	99
Es	0.390019	1.263911	-0.813693	99
Es	0.178048	-1.269713	-0.100483	99
Es	2.163003	-0.138215	0.237190	99
Es	-2.270215	-0.801196	0.213862	99
Es	-0.165228	1.707813	0.155557	99
Es	0.207502	1.135386	-0.112416	99
Es	0.122287	-1.321257	-0.142093	99
Es	1.856671	-0.474885	-0.166238	99
Es	-1.920681	-0.166049	0.175397	99
Es	1.555003	1.222634	0.653885	99
Es	-0.597201	-0.120388	-0.020900	99
Es	1.689632	0.459278	0.442999	99
Es	1.861009	-0.661540	0.355440	99
Es	-0.012439	-1.589366	-0.213332	99
Es	1.803546	-1.807944	-0.281138	99
Es	1.303090	0.856264	0.890439	99
Es	1.477394	-1.185467	-0.088872	99
Es	0.915506	0.976571	0.379633	99
Es	-1.324779	-0.127901	-0.250312	99
Es	-0.197331	0.490110	-0.075767	99
38
Properties=species:S:1:pos:R:3:Z:I:1 energy=-358.57416307529076 field_type=dipole dipole="0.000000 0.000000 0.000000" charge=0
C	-1.920621	-0.166057	0.175408	6
C	-0.597511	-0.120157	-0.020852	6
C	0.207359	1.135493	-0.112532	6
O	1.384319	0.957602	0.674088	8
N	2.163669	-0.138147	0.237218	7
C	1.477689	-1.185437	-0.088842	6
O	0.122079	-1.321647	-0.142302	8
H	-2.513241	0.736602	0.280358	1
H	-2.439241	-1.117607	0.238768	1
H	-0.335531	1.999013	0.284278	1
H	0.490109	1.351423	-1.149092	1
H	1.960919	-2.131078	-0.376502	1
Es	1.803562	-1.807842	-0.281355	99
Es	-1.324826	-0.127891	-0.250448	99
Es	0.122610	-1.320874	-0.141291	99
Es	0.915152	0.976190	0.380319	99
Es	-0.133505	-0.859278	-0.070125	99
Es	-2.270285	-0.801151	0.213938	99
Es	1.554774	1.222455	0.653054	99
Es	2.163007	-0.138231	0.237186	99
Es	-1.920682	-0.166048	0.175398	99
Es	-0.165131	1.707916	0.155382	99
Es	-0.197449	0.490114	-0.075554	99
Es	-1.234070	-0.139012	0.408256	99
Es	1.384108	0.957300	0.673815	99
Es	1.861528	-0.661053	0.355176	99
Es	2.542162	-0.102899	0.242066	99
Es	1.855962	-0.475154	-0.165761	99
Es	0.389994	1.263763	-0.813625	99
Es	0.207512	1.135377	-0.112399	99
Es	1.689679	0.458814	0.443662	99
Es	1.477389	-1.185469	-0.088862	99
Es	1.303602	0.857233	0.890078	99
Es	-0.012631	-1.590222	-0.209606	99
Es	-2.314727	0.443950	0.243593	99
Es	-0.597201	-0.120387	-0.020899	99
Es	0.650230	-1.231225	-0.136206	99
Es	0.177651	-1.268378	-0.108182	99
38
Properties=species:S:1:pos:R:3:Z:I:1 energy=-358.57416307529076 field_type=dipole dipole="0.000000 0.000000 0.000000" charge=0
C	-1.920621	-0.166057	0.175408	6
C	-0.597511	-0.120157	-0.020852	6
C	0.207359	1.135493	-0.112532	6
O	1.384319	0.957602	0.674088	8
N	2.163669	-0.138147	0.237218	7
C	1.477689	-1.185437	-0.088842	6
O	0.122079	-1.321647	-0.142302	8
H	-2.513241	0.736602	0.280358	1
H	-2.439241	-1.117607	0.238768	1
H	-0.335531	1.999013	0.284278	1
H	0.490109	1.351423	-1.149092	1
H	1.960919	-2.131078	-0.376502	1
Es	2.163003	-0.138211	0.237194	99
Es	0.122851	-1.320701	-0.140598	99
Es	-0.197447	0.490129	-0.075683	99
Es	2.542195	-0.102799	0.241838	99
Es	0.914236	0.975548	0.382097	99
Es	-0.597202	-0.120387	-0.020900	99
Es	-1.324791	-0.127893	-0.250598	99
Es	0.650231	-1.231132	-0.136605	99
Es	1.384264	0.957424	0.673694	99
Es	-2.314773	0.443838	0.243683	99
Es	1.477393	-1.185468	-0.088871	99
Es	1.861677	-0.661073	0.355337	99
Es	1.554587	1.222673	0.654535	99
Es	-0.165175	1.707945	0.155402	99
Es	1.803596	-1.807816	-0.281432	99
Es	-2.270270	-0.801020	0.213783	99
Es	-0.012652	-1.590102	-0.209848	99
Es	0.207510	1.135378	-0.112396	99
Es	1.689964	0.459304	0.443034	99
Es	1.855811	-0.475207	-0.165543	99
Es	0.177457	-1.268947	-0.107077	99
Es	1.304221	0.856930	0.887446	99
Es	-0.133494	-0.859062	-0.071218	99
Es	-1.920681	-0.166049	0.175397	99
Es	0.389984	1.263729	-0.813612	99
Es	-1.234085	-0.139034	0.408549	99
38
Properties=species:S:1:pos:R:3:Z:I:1 energy=-358.57416307529076 field_type=dipole dipole="0.000000 0.000000 0.000000" charge=0
C	-1.920621	-0.166057	0.175408	6
C	-0.597511	-0.120157	-0.020852	6
C	0.207359	1.135493	-0.112532	6
O	1.384319	0.957602	0.674088	8
N	2.163669	-0.138147	0.237218	7
C	1.477689	-1.185437	-0.088842	6
O	0.122079	-1.321647	-0.142302	8
H	-2.513241	0.736602	0.280358	1
H	-2.439241	-1.117607	0.238768	1
H	-0.335531	1.999013	0.284278	1
H	0.490109	1.351423	-1.149092	1
H	1.960919	-2.131078	-0.376502	1
Es	0.122949	-1.320600	-0.143077	99
Es	0.207507	1.135380	-0.112403	99
Es	-0.197451	0.490097	-0.075600	99
Es	-0.012421	-1.590040	-0.208860	99
Es	-0.165126	1.707836	0.155416	99
Es	1.861779	-0.660864	0.355148	99
Es	-1.234008	-0.139004	0.408439	99
Es	-1.324896	-0.127863	-0.250595	99
Es	-2.314849	0.443838	0.243605	99
Es	0.389906	1.263805	-0.813570	99
Es	0.650253	-1.231164	-0.136955	99
Es	1.477393	-1.185468	-0.088868	99
Es	1.855655	-0.475341	-0.164982	99
Es	0.177403	-1.268741	-0.105518	99
Es	-2.270183	-0.801078	0.213909	99
Es	1.690048	0.459528	0.442827	99
Es	-0.597201	-0.120387	-0.020897	99
Es	1.803584	-1.807775	-0.281570	99
Es	-0.133859	-0.859307	-0.070935	99
Es	-1.920682	-0.166048	0.175398	99
Es	1.384244	0.957426	0.673876	99
Es	1.554601	1.223020	0.655483	99
Es	2.542371	-0.103017	0.241668	99
Es	1.304207	0.856615	0.886111	99
Es	2.163007	-0.138204	0.237196	99
Es	0.914182	0.975353	0.382364	99
38
Properties=species:S:1:pos:R:3:Z:I:1 energy=-358.57416307529076 field_type=dipole dipole="0.000000 0.000000 0.000000" charge=0
C	-1.920621	-0.166057	0.175408	6
C	-0.597511	-0.120157	-0.020852	6
C	0.207359	1.135493	-0.112532	6
O	1.384319	0.957602	0.674088	8
N	2.163669	-0.138147	0.237218	7
C	1.477689	-1.185437	-0.088842	6
O	0.122079	-1.321647	-0.142302	8
H	-2.513241	0.736602	0.280358	1
H	-2.439241	-1.117607	0.238768	1
H	-0.335531	1.999013	0.284278	1
H	0.490109	1.351423	-1.149092	1
H	1.960919	-2.131078	-0.376502	1
Es	0.122396	-1.321150	-0.142536	99
Es	1.690365	0.459358	0.443047	99
Es	1.856048	-0.475099	-0.164909	99
Es	1.861305	-0.660904	0.354864	99
Es	0.207517	1.135376	-0.112400	99
Es	-0.134390	-0.859931	-0.069701	99
Es	0.177876	-1.268074	-0.106604	99
Es	1.803571	-1.807864	-0.281191	99
Es	-0.011870	-1.589607	-0.209856	99
Es	-0.165169	1.707811	0.155461	99
Es	-1.234066	-0.138979	0.408462	99
Es	-0.597201	-0.120388	-0.020899	99
Es	-1.920682	-0.166049	0.175402	99
Es	0.650312	-1.231067	-0.136613	99
Es	-1.324846	-0.127933	-0.250586	99
Es	2.542493	-0.102942	0.241580	99
Es	0.389896	1.263858	-0.813527	99
Es	-2.270153	-0.801084	0.213913	99
Es	-2.314875	0.443830	0.243639	99
Es	2.163013	-0.138240	0.237186	99
Es	1.554478	1.222922	0.656540	99
Es	1.384259	0.957425	0.673701	99
Es	0.913974	0.975354	0.382518	99
Es	1.304200	0.856746	0.884759	99
Es	-0.197429	0.490095	-0.075776	99
Es	1.477393	-1.185469	-0.088868	99
38
Properties=species:S:1:pos:R:3:Z:I:1 energy=-358.57416307529076 field_type=dipole dipole="0.000000 0.000000 0.000000" charge=0
C	-1.920621	-0.166057	0.175408	6
C	-0.597511	-0.120157	-0.020852	6
C	0.207359	1.135493	-0.112532	6
O	1.384319	0.957602	0.674088	8
N	2.163669	-0.138147	0.237218	7
C	1.477689	-1.185437	-0.088842	6
O	0.122079	-1.321647	-0.142302	8
H	-2.513241	0.736602	0.280358	1
H	-2.439241	-1.117607	0.238768	1
H	-0.335531	1.999013	0.284278	1
H	0.490109	1.351423	-1.149092	1
H	1.960919	-2.131078	-0.376502	1
Es	1.384201	0.957399	0.673774	99
Es	1.689819	0.459382	0.442642	99
Es	1.855492	-0.475332	-0.164434	99
Es	-1.234337	-0.138844	0.408649	99
Es	1.803554	-1.807727	-0.281523	99
Es	2.542694	-0.103015	0.241378	99
Es	1.304691	0.856494	0.883079	99
Es	0.207509	1.135379	-0.112400	99
Es	-1.324550	-0.128015	-0.250583	99
Es	2.163002	-0.138212	0.237189	99
Es	0.146809	-1.296459	-0.138233	99
Es	1.861778	-0.660635	0.354883	99
Es	1.477392	-1.185468	-0.088873	99
Es	-0.134537	-0.860326	-0.068794	99
Es	-2.270397	-0.801104	0.213829	99
Es	0.650552	-1.231476	-0.133812	99
Es	1.555054	1.223412	0.657416	99
Es	0.153233	-1.291106	-0.118532	99
Es	-0.197504	0.490073	-0.075672	99
Es	-0.165068	1.707872	0.155326	99
Es	0.389859	1.263780	-0.813389	99
Es	-2.314657	0.443785	0.243557	99
Es	-0.597200	-0.120388	-0.020899	99
Es	0.913505	0.975030	0.383682	99
Es	-0.011795	-1.590453	-0.206038	99
Es	-1.920684	-0.166049	0.175387	99
38
Properties=species:S:1:pos:R:3:Z:I:1 energy=-358.57416307529076 field_type=dipole dipole="0.000000 0.000000 0.000000" charge=0
C	-1.920621	-0.166057	0.175408	6
C	-0.597511	-0.120157	-0.020852	6
C	0.207359	1.135493	-0.112532	6
O	1.384319	0.957602	0.674088	8
N	2.163669	-0.138147	0.237218	7
C	1.477689	-1.185437	-0.088842	6
O	0.122079	-1.321647	-0.142302	8
H	-2.513241	0.736602	0.280358	1
H	-2.439241	-1.117607	0.238768	1
H	-0.335531	1.999013	0.284278	1
H	0.490109	1.351423	-1.149092	1
H	1.960919	-2.131078	-0.376502	1
Es	0.389807	1.263787	-0.813413	99
Es	-1.233966	-0.139086	0.408673	99
Es	1.477392	-1.185468	-0.088871	99
Es	-2.314824	0.443749	0.243678	99
Es	-2.270235	-0.801016	0.213726	99
Es	-1.324943	-0.127779	-0.250704	99
Es	1.803597	-1.807794	-0.281315	99
Es	-0.012527	-1.589913	-0.206836	99
Es	0.913531	0.974967	0.383464	99
Es	2.542688	-0.103145	0.241592	99
Es	2.163014	-0.138196	0.237192	99
Es	0.207508	1.135379	-0.112402	99
Es	-1.920682	-0.166049	0.175397	99
Es	1.855904	-0.475182	-0.164539	99
Es	-0.597203	-0.120385	-0.020903	99
Es	0.122767	-1.320762	-0.140804	99
Es	-0.165084	1.707834	0.155375	99
Es	0.177555	-1.267542	-0.111589	99
Es	-0.133856	-0.859870	-0.069142	99
Es	1.304539	0.856686	0.882429	99
Es	1.554147	1.223004	0.657987	99
Es	1.861372	-0.660647	0.354569	99
Es	-0.197582	0.490030	-0.075646	99
Es	1.690812	0.459625	0.442883	99
Es	0.650427	-1.231647	-0.136943	99
Es	1.384257	0.957416	0.673751	99
38
Properties=species:S:1:pos:R:3:Z:I:1 energy=-358.57416307529076 field_type=dipole dipole="0.000000 0.000000 0.000000" charge=0
C	-1.920621	-0.166057	0.175408	6
C	-0.597511	-0.120157	-0.020852	6
C	0.207359	1.135493	-0.112532	6
O	1.384319	0.957602	0.674088	8
N	2.163669	-0.138147	0.237218	7
C	1.477689	-1.185437	-0.088842	6
O	0.122079	-1.321647	-0.142302	8
H	-2.513241	0.736602	0.280358	1
H	-2.439241	-1.117607	0.238768	1
H	-0.335531	1.999013	0.284278	1
H	0.490109	1.351423	-1.149092	1
H	1.960919	-2.131078	-0.376502	1
Es	0.650345	-1.231293	-0.137410	99
Es	-1.325011	-0.127716	-0.250654	99
Es	0.389759	1.263780	-0.813424	99
Es	-0.597204	-0.120383	-0.020895	99
Es	1.304721	0.856209	0.881461	99
Es	-0.134545	-0.859831	-0.070548	99
Es	2.163006	-0.138208	0.237193	99
Es	0.177856	-1.267692	-0.109577	99
Es	-0.011897	-1.589959	-0.206415	99
Es	1.855254	-0.475424	-0.163938	99
Es	-2.314788	0.443808	0.243689	99
Es	1.690800	0.460049	0.442265	99
Es	-1.920682	-0.166049	0.175397	99
Es	1.384218	0.957374	0.674032	99
Es	1.477394	-1.185466	-0.088877	99
Es	1.803573	-1.807688	-0.281619	99
Es	-0.165216	1.707777	0.155454	99
Es	-0.197372	0.490090	-0.075581	99
Es	0.122519	-1.320973	-0.141383	99
Es	2.542859	-0.103106	0.241081	99
Es	-2.270261	-0.801030	0.213747	99
Es	1.861953	-0.660466	0.354767	99
Es	0.207514	1.135377	-0.112398	99
Es	-1.233913	-0.139173	0.408521	99
Es	0.913373	0.974614	0.384031	99
Es	1.554160	1.223373	0.658688	99
38
Properties=species:S:1:pos:R:3:Z:I:1 energy=-358.57416307529076 field_type=dipole dipole="0.000000 0.000000 0.000000" charge=0
C	-1.920621	-0.166057	0.175408	6
C	-0.597511	-0.120157	-0.020852	6
C	0.207359	1.135493	-0.112532	6
O	1.384319	0.957602	0.674088	8
N	2.163669	-0.138147	0.237218	7
C	1.477689	-1.185437	-0.088842	6
O	0.122079	-1.321647	-0.142302	8
H	-2.513241	0.736602	0.280358	1
H	-2.439241	-1.117607	0.238768	1
H	-0.335531	1.999013	0.284278	1
H	0.490109	1.351423	-1.149092	1
H	1.960919	-2.131078	-0.376502	1
Es	0.207518	1.135376	-0.112397	99
Es	-1.233831	-0.139094	0.408499	99
Es	1.854952	-0.475566	-0.164086	99
Es	-1.920682	-0.166052	0.175396	99
Es	0.650501	-1.231247	-0.135614	99
Es	0.155345	-1.289010	-0.117632	99
Es	-0.164972	1.707919	0.155229	99
Es	1.803546	-1.807675	-0.281619	99
Es	1.553936	1.223662	0.659061	99
Es	2.542875	-0.103201	0.241196	99
Es	1.691061	0.460572	0.441880	99
Es	-2.270205	-0.801035	0.213857	99
Es	1.477393	-1.185466	-0.088875	99
Es	-1.325102	-0.127793	-0.250726	99
Es	-2.314863	0.443762	0.243493	99
Es	-0.012089	-1.590778	-0.204024	99
Es	0.389718	1.263761	-0.813097	99
Es	0.912839	0.973743	0.385391	99
Es	1.862255	-0.660227	0.354766	99
Es	1.305384	0.856301	0.880350	99
Es	1.384138	0.957334	0.673802	99
Es	2.163000	-0.138193	0.237184	99
Es	0.144842	-1.298285	-0.139470	99
Es	-0.197569	0.489995	-0.075536	99
Es	-0.597201	-0.120388	-0.020896	99
Es	-0.134377	-0.860419	-0.068521	99
38
Properties=species:S:1:pos:R:3:Z:I:1 energy=-358.57416307529076 field_type=dipole dipole="0.000000 0.000000 0.000000" charge=0
C	-1.920621	-0.166057	0.175408	6
C	-0.597511	-0.120157	-0.020852	6
C	0.207359	1.135493	-0.112532	6
O	1.384319	0.957602	0.674088	8
N	2.163669	-0.138147	0.237218	7
C	1.477689	-1.185437	-0.088842	6
O	0.122079	-1.321647	-0.142302	8
H	-2.513241	0.736602	0.280358	1
H	-2.439241	-1.117607	0.238768	1
H	-0.335531	1.999013	0.284278	1
H	0.490109	1.351423	-1.149092	1
H	1.960919	-2.131078	-0.376502	1
Es	-0.597201	-0.120388	-0.020900	99
Es	-1.920682	-0.166049	0.175394	99
Es	-1.324908	-0.127846	-0.250815	99
Es	1.554216	1.223048	0.657573	99
Es	1.856099	-0.475051	-0.163539	99
Es	1.384217	0.957423	0.673805	99
Es	-2.270253	-0.800897	0.213690	99
Es	-0.011725	-1.589788	-0.206601	99
Es	-2.314807	0.443806	0.243768	99
Es	1.477391	-1.185467	-0.088876	99
Es	-0.165097	1.707849	0.155349	99
Es	1.690485	0.459444	0.442784	99
Es	1.861017	-0.660347	0.353727	99
Es	0.124014	-1.319523	-0.143353	99
Es	-0.134828	-0.860400	-0.069656	99
Es	0.176326	-1.268835	-0.108653	99
Es	-1.234026	-0.139274	0.408590	99
Es	2.543136	-0.103357	0.241418	99
Es	0.389741	1.263841	-0.813131	99
Es	0.207508	1.135379	-0.112402	99
Es	0.650444	-1.231097	-0.137045	99
Es	-0.197490	0.490005	-0.075647	99
Es	1.305316	0.857170	0.881351	99
Es	1.803620	-1.807767	-0.281358	99
Es	0.912898	0.974317	0.384932	99
Es	2.163002	-0.138199	0.237203	99
