43
Properties=species:S:1:pos:R:3:Z:I:1 energy=-323.9637354834463 field_type=dipole dipole="0.000000 0.000000 0.000000" charge=0
C	-2.088337	-0.888400	-0.002485	6
C	-0.668307	-0.558470	0.306305	6
N	0.400143	-1.411990	-0.192125	7
C	0.257883	-0.064080	-0.779535	6
C	1.428763	0.824330	-0.545145	6
C	1.580183	1.454270	0.809865	6
O	2.206303	1.054290	-1.466485	8
H	-2.711597	0.003110	0.113905	1
H	-2.456937	-1.653090	0.687965	1
H	-2.216627	-1.260410	-1.023875	1
H	-0.548727	-0.202370	1.322175	1
H	0.062263	-2.112550	-0.854485	1
H	-0.122617	-0.033860	-1.795335	1
H	0.674883	2.010180	1.065045	1
H	2.421813	2.152910	0.793905	1
H	1.780913	0.686130	1.560305	1
Es	-0.668141	-0.558564	0.306155	99
Es	0.685694	-1.474388	0.014213	99
Es	0.436042	-0.833054	-0.541664	99
Es	-2.164115	-1.142101	-0.699385	99
Es	2.126314	0.906659	-1.735466	99
Es	-2.330644	-1.406545	0.466950	99
Es	1.702376	0.934463	1.299360	99
Es	-2.505342	-0.282642	0.078843	99
Es	0.821143	0.387278	-0.639456	99
Es	-0.579872	-0.312839	0.994430	99
Es	1.786307	1.171566	-1.203978	99
Es	2.142294	1.920981	0.800162	99
Es	0.399661	-1.411768	-0.192451	99
Es	-0.004330	-0.040726	-1.461363	99
Es	2.441570	1.246446	-1.382150	99
Es	0.178008	-1.816756	-0.592901	99
Es	0.964403	1.816529	0.970369	99
Es	0.257895	-0.064300	-0.779378	99
Es	-2.088310	-0.888392	-0.002483	99
Es	1.428736	0.824328	-0.545122	99
Es	2.206106	1.054239	-1.466223	99
Es	1.500554	1.133172	0.144753	99
Es	-1.372731	-0.726846	0.133658	99
Es	-0.114746	-1.160276	0.098945	99
Es	2.061960	0.772612	-1.065982	99
Es	-0.291417	-0.088918	-0.239447	99
Es	1.580154	1.454237	0.809834	99
43
Properties=species:S:1:pos:R:3:Z:I:1 energy=-323.9637354834463 field_type=dipole dipole="0.000000 0.000000 0.000000" charge=0
C	-2.088337	-0.888400	-0.002485	6
C	-0.668307	-0.558470	0.306305	6
N	0.400143	-1.411990	-0.192125	7
C	0.257883	-0.064080	-0.779535	6
C	1.428763	0.824330	-0.545145	6
C	1.580183	1.454270	0.809865	6
O	2.206303	1.054290	-1.466485	8
H	-2.711597	0.003110	0.113905	1
H	-2.456937	-1.653090	0.687965	1
H	-2.216627	-1.260410	-1.023875	1
H	-0.548727	-0.202370	1.322175	1
H	0.062263	-2.112550	-0.854485	1
H	-0.122617	-0.033860	-1.795335	1
H	0.674883	2.010180	1.065045	1
H	2.421813	2.152910	0.793905	1
H	1.780913	0.686130	1.560305	1
Es	1.500258	1.133824	0.145644	99
Es	0.257897	-0.064302	-0.779380	99
Es	-0.002667	-0.041519	-1.460806	99
Es	-2.331551	-1.408662	0.469021	99
Es	2.065955	0.769910	-1.064936	99
Es	0.963737	1.816842	0.970126	99
Es	2.439261	1.246818	-1.384777	99
Es	2.126933	0.908201	-1.733862	99
Es	-1.373004	-0.727594	0.133350	99
Es	-2.088310	-0.888392	-0.002482	99
Es	1.428741	0.824318	-0.545116	99
Es	2.206068	1.054209	-1.466246	99
Es	1.702825	0.933618	1.299278	99
Es	0.675916	-1.472893	0.005263	99
Es	0.181948	-1.817213	-0.590060	99
Es	1.784218	1.172507	-1.204337	99
Es	-2.162950	-1.140600	-0.698857	99
Es	-0.118449	-1.162254	0.108783	99
Es	0.821706	0.385752	-0.640096	99
Es	2.142200	1.920773	0.799278	99
Es	-0.293620	-0.087223	-0.238639	99
Es	-2.503719	-0.282095	0.077637	99
Es	0.445106	-0.829380	-0.546695	99
Es	-0.668140	-0.558568	0.306153	99
Es	0.399641	-1.411772	-0.192466	99
Es	-0.580584	-0.314145	0.994610	99
Es	1.580152	1.454237	0.809836	99
43
Properties=species:S:1:pos:R:3:Z:I:1 energy=-323.9637354834463 field_type=dipole dipole="0.000000 0.000000 0.000000" charge=0
C	-2.088337	-0.888400	-0.002485	6
C	-0.668307	-0.558470	0.306305	6
N	0.400143	-1.411990	-0.192125	7
C	0.257883	-0.064080	-0.779535	6
C	1.428763	0.824330	-0.545145	6
C	1.580183	1.454270	0.809865	6
O	2.206303	1.054290	-1.466485	8
H	-2.711597	0.003110	0.113905	1
H	-2.456937	-1.653090	0.687965	1
H	-2.216627	-1.260410	-1.023875	1
H	-0.548727	-0.202370	1.322175	1
H	0.062263	-2.112550	-0.854485	1
H	-0.122617	-0.033860	-1.795335	1
H	0.674883	2.010180	1.065045	1
H	2.421813	2.152910	0.793905	1
H	1.780913	0.686130	1.560305	1
Es	2.141944	1.920406	0.798548	99
Es	-0.294653	-0.086801	-0.238117	99
Es	-0.581184	-0.314809	0.994989	99
Es	1.580153	1.454238	0.809836	99
Es	2.067824	0.769024	-1.063214	99
Es	-2.502406	-0.281840	0.076748	99
Es	0.963063	1.817175	0.970382	99
Es	2.206214	1.054424	-1.465946	99
Es	2.443579	1.246159	-1.394596	99
Es	0.451439	-0.827194	-0.549681	99
Es	0.185315	-1.817521	-0.587744	99
Es	-2.332130	-1.409589	0.470491	99
Es	-2.088310	-0.888393	-0.002482	99
Es	2.120716	0.906621	-1.726159	99
Es	-2.161999	-1.139874	-0.698732	99
Es	0.821928	0.384691	-0.640522	99
Es	-1.373375	-0.728018	0.133073	99
Es	0.399652	-1.411756	-0.192453	99
Es	-0.668139	-0.558567	0.306154	99
Es	0.667301	-1.470145	-0.001915	99
Es	1.703524	0.933206	1.298913	99
Es	1.499980	1.134110	0.146332	99
Es	1.784193	1.175477	-1.204464	99
Es	1.428740	0.824319	-0.545116	99
Es	0.257894	-0.064288	-0.779379	99
Es	-0.120087	-1.164665	0.115847	99
Es	-0.001608	-0.041991	-1.460568	99
43
Properties=species:S:1:pos:R:3:Z:I:1 energy=-323.9637354834463 field_type=dipole dipole="0.000000 0.000000 0.000000" charge=0
C	-2.088337	-0.888400	-0.002485	6
C	-0.668307	-0.558470	0.306305	6
N	0.400143	-1.411990	-0.192125	7
C	0.257883	-0.064080	-0.779535	6
C	1.428763	0.824330	-0.545145	6
C	1.580183	1.454270	0.809865	6
O	2.206303	1.054290	-1.466485	8
H	-2.711597	0.003110	0.113905	1
H	-2.456937	-1.653090	0.687965	1
H	-2.216627	-1.260410	-1.023875	1
H	-0.548727	-0.202370	1.322175	1
H	0.062263	-2.112550	-0.854485	1
H	-0.122617	-0.033860	-1.795335	1
H	0.674883	2.010180	1.065045	1
H	2.421813	2.152910	0.793905	1
H	1.780913	0.686130	1.560305	1
Es	0.257899	-0.064298	-0.779380	99
Es	0.822114	0.384104	-0.640729	99
Es	-0.121029	-1.166994	0.120582	99
Es	2.142327	1.920394	0.797582	99
Es	-2.088311	-0.888393	-0.002484	99
Es	0.962448	1.817219	0.970564	99
Es	2.430392	1.242637	-1.376751	99
Es	-0.668143	-0.558568	0.306155	99
Es	-0.295430	-0.086703	-0.237666	99
Es	1.580153	1.454236	0.809834	99
Es	-2.332701	-1.410415	0.471117	99
Es	1.499566	1.134690	0.147458	99
Es	2.066647	0.765969	-1.064253	99
Es	-1.373578	-0.728307	0.133078	99
Es	0.399647	-1.411762	-0.192459	99
Es	2.206140	1.054312	-1.466103	99
Es	2.137689	0.913343	-1.739695	99
Es	-0.581414	-0.315417	0.994791	99
Es	0.188970	-1.817938	-0.584660	99
Es	-0.000779	-0.042343	-1.460021	99
Es	0.659210	-1.466631	-0.007314	99
Es	-2.161320	-1.139120	-0.698076	99
Es	1.428737	0.824321	-0.545116	99
Es	0.456321	-0.826103	-0.552826	99
Es	1.703903	0.932545	1.298253	99
Es	-2.501741	-0.281768	0.075965	99
Es	1.781852	1.175386	-1.207621	99
43
Properties=species:S:1:pos:R:3:Z:I:1 energy=-323.9637354834463 field_type=dipole dipole="0.000000 0.000000 0.000000" charge=0
C	-2.088337	-0.888400	-0.002485	6
C	-0.668307	-0.558470	0.306305	6
N	0.400143	-1.411990	-0.192125	7
C	0.257883	-0.064080	-0.779535	6
C	1.428763	0.824330	-0.545145	6
C	1.580183	1.454270	0.809865	6
O	2.206303	1.054290	-1.466485	8
H	-2.711597	0.003110	0.113905	1
H	-2.456937	-1.653090	0.687965	1
H	-2.216627	-1.260410	-1.023875	1
H	-0.548727	-0.202370	1.322175	1
H	0.062263	-2.112550	-0.854485	1
H	-0.122617	-0.033860	-1.795335	1
H	0.674883	2.010180	1.065045	1
H	2.421813	2.152910	0.793905	1
H	1.780913	0.686130	1.560305	1
Es	0.257896	-0.064298	-0.779378	99
Es	1.580154	1.454240	0.809835	99
Es	-2.332013	-1.409333	0.472115	99
Es	-0.582673	-0.314905	0.996711	99
Es	-0.000314	-0.042147	-1.461693	99
Es	1.704119	0.933996	1.298839	99
Es	0.822141	0.382941	-0.640722	99
Es	2.140632	1.919359	0.799329	99
Es	-2.500597	-0.281822	0.076987	99
Es	-2.160183	-1.139802	-0.701031	99
Es	2.076555	0.772386	-1.058205	99
Es	2.470831	1.230171	-1.497907	99
Es	-0.295741	-0.087578	-0.237315	99
Es	-1.374291	-0.728389	0.133204	99
Es	-0.119112	-1.167176	0.124203	99
Es	0.190293	-1.821139	-0.585313	99
Es	0.456113	-0.824949	-0.551667	99
Es	2.078087	0.910237	-1.635945	99
Es	0.399649	-1.411771	-0.192458	99
Es	1.428744	0.824311	-0.545112	99
Es	0.655789	-1.463051	-0.011718	99
Es	-0.668141	-0.558567	0.306155	99
Es	-2.088310	-0.888393	-0.002482	99
Es	0.963104	1.817725	0.971294	99
Es	1.499954	1.133835	0.145228	99
Es	1.790761	1.184227	-1.196598	99
Es	2.206124	1.054287	-1.466130	99
43
Properties=species:S:1:pos:R:3:Z:I:1 energy=-323.9637354834463 field_type=dipole dipole="0.000000 0.000000 0.000000" charge=0
C	-2.088337	-0.888400	-0.002485	6
C	-0.668307	-0.558470	0.306305	6
N	0.400143	-1.411990	-0.192125	7
C	0.257883	-0.064080	-0.779535	6
C	1.428763	0.824330	-0.545145	6
C	1.580183	1.454270	0.809865	6
O	2.206303	1.054290	-1.466485	8
H	-2.711597	0.003110	0.113905	1
H	-2.456937	-1.653090	0.687965	1
H	-2.216627	-1.260410	-1.023875	1
H	-0.548727	-0.202370	1.322175	1
H	0.062263	-2.112550	-0.854485	1
H	-0.122617	-0.033860	-1.795335	1
H	0.674883	2.010180	1.065045	1
H	2.421813	2.152910	0.793905	1
H	1.780913	0.686130	1.560305	1
Es	0.399641	-1.411771	-0.192464	99
Es	0.457563	-0.824118	-0.550484	99
Es	0.257895	-0.064297	-0.779377	99
Es	2.140722	1.919596	0.799805	99
Es	1.428740	0.824317	-0.545115	99
Es	1.703802	0.934641	1.298771	99
Es	-0.118320	-1.166710	0.125490	99
Es	2.076444	0.773450	-1.055318	99
Es	1.499893	1.133442	0.144584	99
Es	2.077717	0.925608	-1.591023	99
Es	1.794208	1.187295	-1.196921	99
Es	0.191020	-1.822932	-0.586024	99
Es	2.468401	1.211222	-1.544989	99
Es	-0.000303	-0.042652	-1.461802	99
Es	-2.088310	-0.888393	-0.002482	99
Es	0.652415	-1.461546	-0.013577	99
Es	-2.500315	-0.282188	0.077178	99
Es	-0.668143	-0.558571	0.306157	99
Es	-1.374270	-0.728406	0.133286	99
Es	-2.160146	-1.139950	-0.701685	99
Es	1.580153	1.454237	0.809834	99
Es	-0.582850	-0.314703	0.997159	99
Es	2.205512	1.053727	-1.466547	99
Es	0.822366	0.383117	-0.640818	99
Es	-2.332069	-1.408923	0.472276	99
Es	-0.295698	-0.088450	-0.237316	99
Es	0.963501	1.817354	0.971626	99
43
Properties=species:S:1:pos:R:3:Z:I:1 energy=-323.9637354834463 field_type=dipole dipole="0.000000 0.000000 0.000000" charge=0
C	-2.088337	-0.888400	-0.002485	6
C	-0.668307	-0.558470	0.306305	6
N	0.400143	-1.411990	-0.192125	7
C	0.257883	-0.064080	-0.779535	6
C	1.428763	0.824330	-0.545145	6
C	1.580183	1.454270	0.809865	6
O	2.206303	1.054290	-1.466485	8
H	-2.711597	0.003110	0.113905	1
H	-2.456937	-1.653090	0.687965	1
H	-2.216627	-1.260410	-1.023875	1
H	-0.548727	-0.202370	1.322175	1
H	0.062263	-2.112550	-0.854485	1
H	-0.122617	-0.033860	-1.795335	1
H	0.674883	2.010180	1.065045	1
H	2.421813	2.152910	0.793905	1
H	1.780913	0.686130	1.560305	1
Es	1.795903	1.188982	-1.191413	99
Es	2.077474	0.769708	-1.059861	99
Es	0.963790	1.816829	0.971782	99
Es	-0.668143	-0.558568	0.306157	99
Es	-2.088309	-0.888393	-0.002482	99
Es	0.257892	-0.064294	-0.779376	99
Es	-2.160616	-1.139903	-0.702000	99
Es	-2.332302	-1.408645	0.472344	99
Es	1.703432	0.935200	1.298652	99
Es	-0.295590	-0.089237	-0.237408	99
Es	2.082241	0.943635	-1.557854	99
Es	0.822610	0.383603	-0.640880	99
Es	0.650488	-1.461326	-0.014508	99
Es	0.458752	-0.823374	-0.549461	99
Es	-2.500024	-0.282714	0.077308	99
Es	-0.000370	-0.043205	-1.461839	99
Es	0.399653	-1.411764	-0.192456	99
Es	1.499805	1.133087	0.144201	99
Es	-0.582546	-0.314671	0.997214	99
Es	2.460612	1.194521	-1.579583	99
Es	2.141008	1.920062	0.800144	99
Es	-1.374112	-0.728437	0.133484	99
Es	2.206129	1.054341	-1.466002	99
Es	0.190619	-1.823627	-0.586822	99
Es	-0.117721	-1.165968	0.126163	99
Es	1.428740	0.824318	-0.545115	99
Es	1.580153	1.454237	0.809836	99
43
Properties=species:S:1:pos:R:3:Z:I:1 energy=-323.9637354834463 field_type=dipole dipole="0.000000 0.000000 0.000000" charge=0
C	-2.088337	-0.888400	-0.002485	6
C	-0.668307	-0.558470	0.306305	6
N	0.400143	-1.411990	-0.192125	7
C	0.257883	-0.064080	-0.779535	6
C	1.428763	0.824330	-0.545145	6
C	1.580183	1.454270	0.809865	6
O	2.206303	1.054290	-1.466485	8
H	-2.711597	0.003110	0.113905	1
H	-2.456937	-1.653090	0.687965	1
H	-2.216627	-1.260410	-1.023875	1
H	-0.548727	-0.202370	1.322175	1
H	0.062263	-2.112550	-0.854485	1
H	-0.122617	-0.033860	-1.795335	1
H	0.674883	2.010180	1.065045	1
H	2.421813	2.152910	0.793905	1
H	1.780913	0.686130	1.560305	1
Es	-2.334661	-1.410052	0.471413	99
Es	0.463540	-0.823322	-0.550919	99
Es	1.777766	1.174190	-1.213490	99
Es	0.823599	0.385800	-0.641607	99
Es	-1.373089	-0.728276	0.133510	99
Es	0.962898	1.815032	0.970834	99
Es	-2.500585	-0.284006	0.075248	99
Es	1.580153	1.454238	0.809835	99
Es	2.281112	1.144995	-1.333585	99
Es	2.303238	1.026896	-1.760324	99
Es	2.205785	1.054010	-1.466230	99
Es	-0.668139	-0.558558	0.306150	99
Es	0.645431	-1.461660	-0.013634	99
Es	-0.119395	-1.165728	0.124928	99
Es	-0.580463	-0.315891	0.994066	99
Es	2.144724	1.922496	0.797767	99
Es	1.498920	1.133715	0.147705	99
Es	0.191584	-1.823158	-0.585174	99
Es	1.428740	0.824317	-0.545115	99
Es	-2.162596	-1.138362	-0.697680	99
Es	-0.000962	-0.044241	-1.457929	99
Es	0.257896	-0.064298	-0.779382	99
Es	1.702123	0.933886	1.297070	99
Es	-2.088309	-0.888393	-0.002481	99
Es	-0.294415	-0.089488	-0.237913	99
Es	2.054980	0.752009	-1.080413	99
Es	0.399696	-1.411756	-0.192425	99
43
Properties=species:S:1:pos:R:3:Z:I:1 energy=-323.9637354834463 field_type=dipole dipole="0.000000 0.000000 0.000000" charge=0
C	-2.088337	-0.888400	-0.002485	6
C	-0.668307	-0.558470	0.306305	6
N	0.400143	-1.411990	-0.192125	7
C	0.257883	-0.064080	-0.779535	6
C	1.428763	0.824330	-0.545145	6
C	1.580183	1.454270	0.809865	6
O	2.206303	1.054290	-1.466485	8
H	-2.711597	0.003110	0.113905	1
H	-2.456937	-1.653090	0.687965	1
H	-2.216627	-1.260410	-1.023875	1
H	-0.548727	-0.202370	1.322175	1
H	0.062263	-2.112550	-0.854485	1
H	-0.122617	-0.033860	-1.795335	1
H	0.674883	2.010180	1.065045	1
H	2.421813	2.152910	0.793905	1
H	1.780913	0.686130	1.560305	1
Es	0.460610	-0.822544	-0.549268	99
Es	-0.582614	-0.314813	0.997343	99
Es	1.703157	0.935666	1.298224	99
Es	1.580153	1.454237	0.809835	99
Es	-0.117212	-1.166277	0.128051	99
Es	2.452901	1.180171	-1.603835	99
Es	-1.374198	-0.728475	0.133606	99
Es	-0.000218	-0.043729	-1.461682	99
Es	2.076413	0.769669	-1.059452	99
Es	1.499575	1.132713	0.144276	99
Es	0.257900	-0.064302	-0.779379	99
Es	0.645858	-1.459312	-0.017136	99
Es	-2.332654	-1.408543	0.472572	99
Es	0.399641	-1.411755	-0.192461	99
Es	2.090530	0.957092	-1.533224	99
Es	-2.088310	-0.888393	-0.002482	99
Es	-0.295454	-0.089746	-0.237471	99
Es	2.206197	1.054383	-1.465983	99
Es	0.823101	0.383626	-0.641051	99
Es	2.141506	1.920437	0.800232	99
Es	0.192161	-1.824932	-0.586293	99
Es	1.428738	0.824319	-0.545115	99
Es	-2.499706	-0.283125	0.077108	99
Es	1.796355	1.189975	-1.192163	99
Es	-2.160449	-1.139801	-0.702205	99
Es	-0.668142	-0.558573	0.306160	99
Es	0.963733	1.816431	0.972020	99
43
Properties=species:S:1:pos:R:3:Z:I:1 energy=-323.9637354834463 field_type=dipole dipole="0.000000 0.000000 0.000000" charge=0
C	-2.088337	-0.888400	-0.002485	6
C	-0.668307	-0.558470	0.306305	6
N	0.400143	-1.411990	-0.192125	7
C	0.257883	-0.064080	-0.779535	6
C	1.428763	0.824330	-0.545145	6
C	1.580183	1.454270	0.809865	6
O	2.206303	1.054290	-1.466485	8
H	-2.711597	0.003110	0.113905	1
H	-2.456937	-1.653090	0.687965	1
H	-2.216627	-1.260410	-1.023875	1
H	-0.548727	-0.202370	1.322175	1
H	0.062263	-2.112550	-0.854485	1
H	-0.122617	-0.033860	-1.795335	1
H	0.674883	2.010180	1.065045	1
H	2.421813	2.152910	0.793905	1
H	1.780913	0.686130	1.560305	1
Es	0.257897	-0.064294	-0.779382	99
Es	1.703061	0.935657	1.297962	99
Es	0.823171	0.383729	-0.641079	99
Es	-0.582476	-0.314776	0.997279	99
Es	1.796194	1.189971	-1.192195	99
Es	-0.295497	-0.090190	-0.237371	99
Es	1.428740	0.824318	-0.545115	99
Es	0.963721	1.816287	0.972176	99
Es	-2.088311	-0.888393	-0.002482	99
Es	2.076548	0.769755	-1.059429	99
Es	1.499396	1.132722	0.144429	99
Es	0.461988	-0.822215	-0.549143	99
Es	-1.374073	-0.728628	0.133649	99
Es	-0.668143	-0.558578	0.306158	99
Es	-2.160636	-1.139665	-0.702100	99
Es	-0.116834	-1.166263	0.128784	99
Es	-0.000225	-0.043850	-1.461605	99
Es	2.141822	1.920589	0.800162	99
Es	-2.332890	-1.408569	0.472618	99
Es	0.192369	-1.825289	-0.586271	99
Es	-2.499498	-0.283201	0.077034	99
Es	2.206325	1.054635	-1.465476	99
Es	2.448774	1.174493	-1.613438	99
Es	0.399643	-1.411766	-0.192463	99
Es	0.643774	-1.458786	-0.018219	99
Es	2.094576	0.962470	-1.524093	99
Es	1.580155	1.454235	0.809838	99
43
Properties=species:S:1:pos:R:3:Z:I:1 energy=-323.9637354834463 field_type=dipole dipole="0.000000 0.000000 0.000000" charge=0
C	-2.088337	-0.888400	-0.002485	6
C	-0.668307	-0.558470	0.306305	6
N	0.400143	-1.411990	-0.192125	7
C	0.257883	-0.064080	-0.779535	6
C	1.428763	0.824330	-0.545145	6
C	1.580183	1.454270	0.809865	6
O	2.206303	1.054290	-1.466485	8
H	-2.711597	0.003110	0.113905	1
H	-2.456937	-1.653090	0.687965	1
H	-2.216627	-1.260410	-1.023875	1
H	-0.548727	-0.202370	1.322175	1
H	0.062263	-2.112550	-0.854485	1
H	-0.122617	-0.033860	-1.795335	1
H	0.674883	2.010180	1.065045	1
H	2.421813	2.152910	0.793905	1
H	1.780913	0.686130	1.560305	1
Es	0.823276	0.383922	-0.641066	99
Es	2.073569	0.766806	-1.061031	99
Es	-2.088308	-0.888393	-0.002482	99
Es	2.443352	1.165316	-1.626159	99
Es	-0.582352	-0.314705	0.997175	99
Es	-2.333120	-1.408332	0.472613	99
Es	0.462735	-0.821831	-0.548539	99
Es	0.963817	1.815914	0.972266	99
Es	1.428740	0.824318	-0.545114	99
Es	-0.116375	-1.166039	0.129322	99
Es	0.191909	-1.825373	-0.586800	99
Es	-0.000224	-0.044100	-1.461551	99
Es	2.104906	0.975797	-1.507854	99
Es	1.499322	1.132553	0.144397	99
Es	2.142050	1.920956	0.800214	99
Es	0.257898	-0.064295	-0.779381	99
Es	0.642735	-1.458838	-0.018809	99
Es	1.702932	0.935870	1.297827	99
Es	-1.373889	-0.728573	0.133781	99
Es	-2.160940	-1.139716	-0.702188	99
Es	-0.295366	-0.090604	-0.237415	99
Es	0.399714	-1.411789	-0.192409	99
Es	-0.668143	-0.558567	0.306153	99
Es	1.580152	1.454237	0.809835	99
Es	1.796483	1.190660	-1.192989	99
Es	2.204107	1.052791	-1.466557	99
Es	-2.499411	-0.283584	0.076988	99
43
Properties=species:S:1:pos:R:3:Z:I:1 energy=-323.9637354834463 field_type=dipole dipole="0.000000 0.000000 0.000000" charge=0
C	-2.088337	-0.888400	-0.002485	6
C	-0.668307	-0.558470	0.306305	6
N	0.400143	-1.411990	-0.192125	7
C	0.257883	-0.064080	-0.779535	6
C	1.428763	0.824330	-0.545145	6
C	1.580183	1.454270	0.809865	6
O	2.206303	1.054290	-1.466485	8
H	-2.711597	0.003110	0.113905	1
H	-2.456937	-1.653090	0.687965	1
H	-2.216627	-1.260410	-1.023875	1
H	-0.548727	-0.202370	1.322175	1
H	0.062263	-2.112550	-0.854485	1
H	-0.122617	-0.033860	-1.795335	1
H	0.674883	2.010180	1.065045	1
H	2.421813	2.152910	0.793905	1
H	1.780913	0.686130	1.560305	1
Es	0.642067	-1.458848	-0.019052	99
Es	2.113915	0.987328	-1.491075	99
Es	1.795610	1.190557	-1.192996	99
Es	0.463211	-0.821612	-0.548158	99
Es	2.435744	1.155609	-1.640690	99
Es	2.204816	1.053210	-1.466743	99
Es	0.257899	-0.064299	-0.779383	99
Es	2.072366	0.764709	-1.063008	99
Es	1.428741	0.824318	-0.545115	99
Es	2.142443	1.921250	0.800367	99
Es	-0.000385	-0.044308	-1.461312	99
Es	-0.116256	-1.165802	0.129547	99
Es	0.963913	1.815620	0.972276	99
Es	-2.161283	-1.139660	-0.702081	99
Es	0.823378	0.384294	-0.641082	99
Es	1.499315	1.132361	0.144335	99
Es	1.580153	1.454237	0.809835	99
Es	-0.668144	-0.558568	0.306152	99
Es	1.702588	0.936156	1.297632	99
Es	-2.088309	-0.888394	-0.002482	99
Es	-2.333285	-1.408286	0.472595	99
Es	0.399688	-1.411756	-0.192428	99
Es	-0.582055	-0.314715	0.997084	99
Es	-1.373831	-0.728459	0.133777	99
Es	0.191685	-1.825524	-0.587127	99
Es	-2.499385	-0.283898	0.076928	99
Es	-0.295028	-0.091123	-0.237574	99
43
Properties=species:S:1:pos:R:3:Z:I:1 energy=-323.9637354834463 field_type=dipole dipole="0.000000 0.000000 0.000000" charge=0
C	-2.088337	-0.888400	-0.002485	6
C	-0.668307	-0.558470	0.306305	6
N	0.400143	-1.411990	-0.192125	7
C	0.257883	-0.064080	-0.779535	6
C	1.428763	0.824330	-0.545145	6
C	1.580183	1.454270	0.809865	6
O	2.206303	1.054290	-1.466485	8
H	-2.711597	0.003110	0.113905	1
H	-2.456937	-1.653090	0.687965	1
H	-2.216627	-1.260410	-1.023875	1
H	-0.548727	-0.202370	1.322175	1
H	0.062263	-2.112550	-0.854485	1
H	-0.122617	-0.033860	-1.795335	1
H	0.674883	2.010180	1.065045	1
H	2.421813	2.152910	0.793905	1
H	1.780913	0.686130	1.560305	1
Es	-0.668142	-0.558569	0.306158	99
Es	-0.000726	-0.044727	-1.460017	99
Es	-0.581099	-0.314992	0.996072	99
Es	2.143989	1.922722	0.799976	99
Es	-2.088309	-0.888394	-0.002481	99
Es	0.399611	-1.411752	-0.192481	99
Es	1.428739	0.824319	-0.545116	99
Es	-2.499698	-0.285174	0.076274	99
Es	-1.373075	-0.728069	0.133854	99
Es	-0.294201	-0.091730	-0.238102	99
Es	0.963961	1.814358	0.971968	99
Es	1.498940	1.132291	0.145218	99
Es	2.061901	0.755173	-1.072858	99
Es	1.787279	1.185645	-1.201295	99
Es	1.580152	1.454236	0.809834	99
Es	1.701782	0.936119	1.296986	99
Es	2.186456	1.045510	-1.452343	99
Es	-0.116566	-1.164300	0.128138	99
Es	0.823851	0.385393	-0.641077	99
Es	2.199957	1.063110	-1.423379	99
Es	0.190713	-1.825704	-0.587500	99
Es	-2.334247	-1.408456	0.472134	99
Es	-2.162598	-1.139248	-0.700802	99
Es	2.386964	1.102351	-1.704348	99
Es	0.640727	-1.459814	-0.017816	99
Es	0.257899	-0.064296	-0.779381	99
Es	0.465310	-0.821604	-0.547388	99
43
Properties=species:S:1:pos:R:3:Z:I:1 energy=-323.9637354834463 field_type=dipole dipole="0.000000 0.000000 0.000000" charge=0
C	-2.088337	-0.888400	-0.002485	6
C	-0.668307	-0.558470	0.306305	6
N	0.400143	-1.411990	-0.192125	7
C	0.257883	-0.064080	-0.779535	6
C	1.428763	0.824330	-0.545145	6
C	1.580183	1.454270	0.809865	6
O	2.206303	1.054290	-1.466485	8
H	-2.711597	0.003110	0.113905	1
H	-2.456937	-1.653090	0.687965	1
H	-2.216627	-1.260410	-1.023875	1
H	-0.548727	-0.202370	1.322175	1
H	0.062263	-2.112550	-0.854485	1
H	-0.122617	-0.033860	-1.795335	1
H	0.674883	2.010180	1.065045	1
H	2.421813	2.152910	0.793905	1
H	1.780913	0.686130	1.560305	1
Es	-1.373128	-0.728345	0.133733	99
Es	1.428740	0.824317	-0.545114	99
Es	0.192314	-1.825184	-0.585703	99
Es	1.783083	1.180081	-1.211042	99
Es	0.963212	1.814491	0.971806	99
Es	1.580152	1.454237	0.809835	99
Es	0.399715	-1.411759	-0.192409	99
Es	-2.088309	-0.888393	-0.002482	99
Es	0.257899	-0.064294	-0.779383	99
Es	2.351772	1.067308	-1.734529	99
Es	-0.000596	-0.044843	-1.458607	99
Es	1.498840	1.132835	0.146493	99
Es	2.206492	1.054748	-1.465442	99
Es	-0.117795	-1.165240	0.128428	99
Es	0.467537	-0.822041	-0.549190	99
Es	2.228070	1.098246	-1.365536	99
Es	-0.668145	-0.558574	0.306159	99
Es	0.638124	-1.458952	-0.018597	99
Es	2.144557	1.922734	0.798842	99
Es	-2.334818	-1.409299	0.472049	99
Es	-0.580817	-0.315615	0.995187	99
Es	-0.294380	-0.091165	-0.237914	99
Es	1.702039	0.935247	1.296574	99
Es	2.053301	0.751611	-1.077623	99
Es	0.823900	0.385631	-0.641560	99
Es	-2.162469	-1.138609	-0.699315	99
Es	-2.499720	-0.284774	0.075567	99
43
Properties=species:S:1:pos:R:3:Z:I:1 energy=-323.9637354834463 field_type=dipole dipole="0.000000 0.000000 0.000000" charge=0
C	-2.088337	-0.888400	-0.002485	6
C	-0.668307	-0.558470	0.306305	6
N	0.400143	-1.411990	-0.192125	7
C	0.257883	-0.064080	-0.779535	6
C	1.428763	0.824330	-0.545145	6
C	1.580183	1.454270	0.809865	6
O	2.206303	1.054290	-1.466485	8
H	-2.711597	0.003110	0.113905	1
H	-2.456937	-1.653090	0.687965	1
H	-2.216627	-1.260410	-1.023875	1
H	-0.548727	-0.202370	1.322175	1
H	0.062263	-2.112550	-0.854485	1
H	-0.122617	-0.033860	-1.795335	1
H	0.674883	2.010180	1.065045	1
H	2.421813	2.152910	0.793905	1
H	1.780913	0.686130	1.560305	1
Es	0.638471	-1.459168	-0.018995	99
Es	1.701773	0.935724	1.296944	99
Es	2.056713	0.752205	-1.077170	99
Es	-2.088310	-0.888393	-0.002482	99
Es	-2.334721	-1.408927	0.472133	99
Es	-2.162531	-1.138811	-0.699979	99
Es	2.206140	1.077906	-1.384351	99
Es	0.466993	-0.821604	-0.548173	99
Es	1.428740	0.824317	-0.545114	99
Es	-0.000566	-0.044985	-1.459225	99
Es	-2.499533	-0.284927	0.075858	99
Es	0.191364	-1.825441	-0.586654	99
Es	-0.116771	-1.164891	0.128916	99
Es	0.399661	-1.411756	-0.192447	99
Es	0.963694	1.814363	0.971705	99
Es	1.498888	1.132436	0.145868	99
Es	-0.580855	-0.315352	0.995592	99
Es	0.823981	0.385471	-0.641510	99
Es	-0.668143	-0.558569	0.306158	99
Es	-0.294330	-0.091425	-0.237848	99
Es	2.368603	1.084322	-1.721590	99
Es	2.206364	1.054682	-1.465423	99
Es	-1.373232	-0.728344	0.133775	99
Es	0.257896	-0.064294	-0.779379	99
Es	1.580153	1.454237	0.809835	99
Es	2.144289	1.922824	0.799444	99
Es	1.784839	1.182796	-1.205661	99
43
Properties=species:S:1:pos:R:3:Z:I:1 energy=-323.9637354834463 field_type=dipole dipole="0.000000 0.000000 0.000000" charge=0
C	-2.088337	-0.888400	-0.002485	6
C	-0.668307	-0.558470	0.306305	6
N	0.400143	-1.411990	-0.192125	7
C	0.257883	-0.064080	-0.779535	6
C	1.428763	0.824330	-0.545145	6
C	1.580183	1.454270	0.809865	6
O	2.206303	1.054290	-1.466485	8
H	-2.711597	0.003110	0.113905	1
H	-2.456937	-1.653090	0.687965	1
H	-2.216627	-1.260410	-1.023875	1
H	-0.548727	-0.202370	1.322175	1
H	0.062263	-2.112550	-0.854485	1
H	-0.122617	-0.033860	-1.795335	1
H	0.674883	2.010180	1.065045	1
H	2.421813	2.152910	0.793905	1
H	1.780913	0.686130	1.560305	1
Es	0.636400	-1.458044	-0.020053	99
Es	-0.294362	-0.091407	-0.237886	99
Es	-0.000531	-0.044980	-1.458937	99
Es	-0.580847	-0.315487	0.995388	99
Es	0.399671	-1.411793	-0.192453	99
Es	0.963367	1.814474	0.971651	99
Es	0.468059	-0.821630	-0.548671	99
Es	-1.373219	-0.728411	0.133851	99
Es	2.217283	1.088720	-1.374099	99
Es	2.144492	1.922746	0.799145	99
Es	1.701831	0.935469	1.296742	99
Es	0.192706	-1.825667	-0.585788	99
Es	-0.668142	-0.558576	0.306160	99
Es	-2.162395	-1.138727	-0.699690	99
Es	-2.499452	-0.284858	0.075598	99
Es	1.498935	1.132643	0.146250	99
Es	1.580153	1.454237	0.809835	99
Es	1.782348	1.180153	-1.208091	99
Es	0.257902	-0.064293	-0.779384	99
Es	-2.334912	-1.409043	0.472228	99
Es	2.056389	0.752222	-1.077928	99
Es	-0.117118	-1.165663	0.129547	99
Es	2.360523	1.076473	-1.728068	99
Es	1.428740	0.824318	-0.545114	99
Es	0.823891	0.385550	-0.641527	99
Es	-2.088310	-0.888393	-0.002482	99
Es	2.206170	1.054363	-1.466002	99
43
Properties=species:S:1:pos:R:3:Z:I:1 energy=-323.9637354834463 field_type=dipole dipole="0.000000 0.000000 0.000000" charge=0
C	-2.088337	-0.888400	-0.002485	6
C	-0.668307	-0.558470	0.306305	6
N	0.400143	-1.411990	-0.192125	7
C	0.257883	-0.064080	-0.779535	6
C	1.428763	0.824330	-0.545145	6
C	1.580183	1.454270	0.809865	6
O	2.206303	1.054290	-1.466485	8
H	-2.711597	0.003110	0.113905	1
H	-2.456937	-1.653090	0.687965	1
H	-2.216627	-1.260410	-1.023875	1
H	-0.548727	-0.202370	1.322175	1
H	0.062263	-2.112550	-0.854485	1
H	-0.122617	-0.033860	-1.795335	1
H	0.674883	2.010180	1.065045	1
H	2.421813	2.152910	0.793905	1
H	1.780913	0.686130	1.560305	1
Es	-0.668142	-0.558568	0.306160	99
Es	-0.294583	-0.091939	-0.237712	99
Es	-2.088310	-0.888393	-0.002481	99
Es	2.206158	1.054351	-1.466018	99
Es	-0.116000	-1.165370	0.130668	99
Es	0.466057	-0.821120	-0.547768	99
Es	-0.000321	-0.044791	-1.460669	99
Es	2.143748	1.019774	-1.449136	99
Es	0.191925	-1.825995	-0.586987	99
Es	-2.499098	-0.284652	0.076444	99
Es	-1.373566	-0.728459	0.133858	99
Es	1.793234	1.189626	-1.195696	99
Es	-2.161895	-1.139418	-0.701602	99
Es	-2.334084	-1.408216	0.472658	99
Es	0.823779	0.384765	-0.641172	99
Es	0.637986	-1.458035	-0.020747	99
Es	1.499095	1.132143	0.144718	99
Es	2.065998	0.758788	-1.068547	99
Es	1.580154	1.454236	0.809836	99
Es	0.963842	1.814848	0.972421	99
Es	-0.581576	-0.314901	0.996663	99
Es	1.702251	0.936373	1.297025	99
Es	0.257900	-0.064296	-0.779381	99
Es	2.413388	1.129049	-1.674984	99
Es	0.399637	-1.411770	-0.192467	99
Es	1.428739	0.824322	-0.545117	99
Es	2.143254	1.922047	0.800260	99
43
Properties=species:S:1:pos:R:3:Z:I:1 energy=-323.9637354834463 field_type=dipole dipole="0.000000 0.000000 0.000000" charge=0
C	-2.088337	-0.888400	-0.002485	6
C	-0.668307	-0.558470	0.306305	6
N	0.400143	-1.411990	-0.192125	7
C	0.257883	-0.064080	-0.779535	6
C	1.428763	0.824330	-0.545145	6
C	1.580183	1.454270	0.809865	6
O	2.206303	1.054290	-1.466485	8
H	-2.711597	0.003110	0.113905	1
H	-2.456937	-1.653090	0.687965	1
H	-2.216627	-1.260410	-1.023875	1
H	-0.548727	-0.202370	1.322175	1
H	0.062263	-2.112550	-0.854485	1
H	-0.122617	-0.033860	-1.795335	1
H	0.674883	2.010180	1.065045	1
H	2.421813	2.152910	0.793905	1
H	1.780913	0.686130	1.560305	1
Es	0.257896	-0.064296	-0.779379	99
Es	-0.668143	-0.558571	0.306158	99
Es	-2.333934	-1.408266	0.472986	99
Es	-2.088310	-0.888393	-0.002482	99
Es	-0.115951	-1.166260	0.131638	99
Es	0.637078	-1.457079	-0.021977	99
Es	-0.000106	-0.044771	-1.461077	99
Es	-2.161240	-1.139429	-0.701892	99
Es	1.499208	1.132211	0.144701	99
Es	0.465941	-0.820819	-0.548606	99
Es	2.426453	1.144218	-1.656398	99
Es	2.142656	1.921699	0.800128	99
Es	0.963571	1.815168	0.972481	99
Es	2.124779	1.000672	-1.473089	99
Es	0.192927	-1.825965	-0.586146	99
Es	0.823638	0.384326	-0.641254	99
Es	0.399762	-1.411766	-0.192375	99
Es	-0.294915	-0.091807	-0.237385	99
Es	1.702747	0.936337	1.297217	99
Es	1.795102	1.190355	-1.191794	99
Es	2.205901	1.054066	-1.466345	99
Es	-1.373870	-0.728722	0.133753	99
Es	-2.498802	-0.284189	0.076458	99
Es	1.428739	0.824318	-0.545115	99
Es	-0.582026	-0.314958	0.997043	99
Es	2.070316	0.762080	-1.066858	99
Es	1.580152	1.454237	0.809835	99
43
Properties=species:S:1:pos:R:3:Z:I:1 energy=-323.9637354834463 field_type=dipole dipole="0.000000 0.000000 0.000000" charge=0
C	-2.088337	-0.888400	-0.002485	6
C	-0.668307	-0.558470	0.306305	6
N	0.400143	-1.411990	-0.192125	7
C	0.257883	-0.064080	-0.779535	6
C	1.428763	0.824330	-0.545145	6
C	1.580183	1.454270	0.809865	6
O	2.206303	1.054290	-1.466485	8
H	-2.711597	0.003110	0.113905	1
H	-2.456937	-1.653090	0.687965	1
H	-2.216627	-1.260410	-1.023875	1
H	-0.548727	-0.202370	1.322175	1
H	0.062263	-2.112550	-0.854485	1
H	-0.122617	-0.033860	-1.795335	1
H	0.674883	2.010180	1.065045	1
H	2.421813	2.152910	0.793905	1
H	1.780913	0.686130	1.560305	1
Es	-2.499149	-0.284970	0.075797	99
Es	0.963364	1.814358	0.972149	99
Es	0.399656	-1.411787	-0.192457	99
Es	2.202915	1.075011	-1.386969	99
Es	2.144311	1.922725	0.799341	99
Es	-0.116778	-1.165676	0.130475	99
Es	-0.668143	-0.558568	0.306161	99
Es	1.428739	0.824320	-0.545116	99
Es	0.257899	-0.064297	-0.779381	99
Es	1.580154	1.454237	0.809836	99
Es	-2.162317	-1.138681	-0.700190	99
Es	-0.581051	-0.315446	0.995703	99
Es	1.785098	1.183000	-1.203892	99
Es	1.702067	0.935613	1.296447	99
Es	0.468241	-0.821132	-0.548473	99
Es	2.057807	0.752399	-1.077595	99
Es	-0.294277	-0.091833	-0.237768	99
Es	-2.088310	-0.888393	-0.002482	99
Es	0.824054	0.385432	-0.641615	99
Es	0.635668	-1.457768	-0.020974	99
Es	-0.000466	-0.045171	-1.459140	99
Es	1.498814	1.132702	0.145944	99
Es	0.192575	-1.825673	-0.586030	99
Es	2.205568	1.053792	-1.466473	99
Es	-1.373265	-0.728525	0.133855	99
Es	-2.334944	-1.408905	0.472344	99
Es	2.371341	1.087633	-1.719269	99
