42
Properties=species:S:1:pos:R:3:Z:I:1 energy=-339.9306462312177 field_type=dipole dipole="0.000000 0.000000 0.000000" charge=0
C	-2.288335	-0.128800	0.124957	6
C	-0.781785	-0.051510	0.013507	6
N	-0.264045	1.133520	0.040327	7
C	1.199595	1.182890	-0.117613	6
C	1.868615	-0.156620	0.157387	6
O	1.193595	-1.156090	-0.613503	8
N	-0.101165	-1.252330	-0.085903	7
H	-2.631065	-1.166520	0.149687	1
H	-2.738544	0.375360	-0.735153	1
H	-2.611105	0.374470	1.041027	1
H	1.411085	1.499050	-1.145693	1
H	1.608425	1.944580	0.554217	1
H	2.917085	-0.131240	-0.155173	1
H	1.839625	-0.421000	1.221817	1
H	-0.621985	-2.045760	-0.449893	1
Es	1.199474	1.182835	-0.117577	99
Es	1.537386	0.508147	0.029325	99
Es	0.601839	-1.180908	-0.368812	99
Es	1.161003	-1.031395	-0.903320	99
Es	-0.101304	-1.251979	-0.086637	99
Es	-1.528951	-0.121947	0.073565	99
Es	-0.129065	-1.236039	0.255362	99
Es	1.841606	-0.334861	0.885798	99
Es	-2.578117	0.202456	-0.452627	99
Es	-2.514105	-0.843098	0.138432	99
Es	1.868491	-0.156785	0.157241	99
Es	-0.473077	0.668325	-0.255949	99
Es	1.193488	-1.155945	-0.613153	99
Es	0.382914	1.121158	-0.024381	99
Es	2.579219	-0.142543	-0.061979	99
Es	1.423453	-0.786756	-0.305965	99
Es	1.348486	1.389036	-0.818520	99
Es	-0.408177	-1.703401	-0.331380	99
Es	1.485163	1.695495	0.345353	99
Es	-0.460441	1.439520	0.074768	99
Es	-0.394885	-0.737633	-0.145348	99
Es	-2.498250	0.202322	0.735827	99
Es	-0.263774	1.133041	0.040272	99
Es	-0.418499	0.635302	0.316965	99
Es	-2.288268	-0.128831	0.124948	99
Es	-0.781770	-0.051706	0.013520	99
Es	1.324088	-1.433529	-0.554990	99
42
Properties=species:S:1:pos:R:3:Z:I:1 energy=-339.9306462312177 field_type=dipole dipole="0.000000 0.000000 0.000000" charge=0
C	-2.288335	-0.128800	0.124957	6
C	-0.781785	-0.051510	0.013507	6
N	-0.264045	1.133520	0.040327	7
C	1.199595	1.182890	-0.117613	6
C	1.868615	-0.156620	0.157387	6
O	1.193595	-1.156090	-0.613503	8
N	-0.101165	-1.252330	-0.085903	7
H	-2.631065	-1.166520	0.149687	1
H	-2.738544	0.375360	-0.735153	1
H	-2.611105	0.374470	1.041027	1
H	1.411085	1.499050	-1.145693	1
H	1.608425	1.944580	0.554217	1
H	2.917085	-0.131240	-0.155173	1
H	1.839625	-0.421000	1.221817	1
H	-0.621985	-2.045760	-0.449893	1
Es	1.347653	1.387928	-0.816858	99
Es	0.383578	1.123838	-0.024978	99
Es	1.486062	1.697180	0.345322	99
Es	-0.101337	-1.251951	-0.086626	99
Es	1.199478	1.182836	-0.117576	99
Es	-0.129186	-1.228509	0.238833	99
Es	2.579921	-0.142531	-0.061401	99
Es	-2.288268	-0.128830	0.124948	99
Es	-0.263770	1.133034	0.040267	99
Es	-0.408766	-1.714106	-0.321612	99
Es	1.327192	-1.436382	-0.565529	99
Es	1.868486	-0.156788	0.157248	99
Es	-0.472403	0.667776	-0.255835	99
Es	1.537464	0.508094	0.028933	99
Es	-1.528604	-0.120218	0.073395	99
Es	-0.395946	-0.734502	-0.139951	99
Es	-2.576888	0.202685	-0.449668	99
Es	1.841475	-0.334400	0.884555	99
Es	1.156644	-1.031267	-0.890272	99
Es	-0.417250	0.635456	0.316150	99
Es	1.193473	-1.155897	-0.613255	99
Es	0.602174	-1.184270	-0.367279	99
Es	-2.516336	-0.845986	0.138419	99
Es	1.424717	-0.781142	-0.308453	99
Es	-0.781770	-0.051705	0.013525	99
Es	-0.462201	1.437030	0.075347	99
Es	-2.497662	0.202907	0.733086	99
42
Properties=species:S:1:pos:R:3:Z:I:1 energy=-339.9306462312177 field_type=dipole dipole="0.000000 0.000000 0.000000" charge=0
C	-2.288335	-0.128800	0.124957	6
C	-0.781785	-0.051510	0.013507	6
N	-0.264045	1.133520	0.040327	7
C	1.199595	1.182890	-0.117613	6
C	1.868615	-0.156620	0.157387	6
O	1.193595	-1.156090	-0.613503	8
N	-0.101165	-1.252330	-0.085903	7
H	-2.631065	-1.166520	0.149687	1
H	-2.738544	0.375360	-0.735153	1
H	-2.611105	0.374470	1.041027	1
H	1.411085	1.499050	-1.145693	1
H	1.608425	1.944580	0.554217	1
H	2.917085	-0.131240	-0.155173	1
H	1.839625	-0.421000	1.221817	1
H	-0.621985	-2.045760	-0.449893	1
Es	-2.575926	0.202739	-0.447924	99
Es	0.602316	-1.185989	-0.366706	99
Es	2.580097	-0.142611	-0.061052	99
Es	1.193521	-1.155930	-0.613330	99
Es	-2.497222	0.203164	0.731278	99
Es	1.155502	-1.035534	-0.885709	99
Es	-0.263747	1.133033	0.040267	99
Es	1.868491	-0.156785	0.157238	99
Es	-0.462709	1.434437	0.075584	99
Es	-0.396437	-0.732448	-0.135374	99
Es	0.383957	1.126440	-0.024981	99
Es	-0.417348	0.634055	0.316193	99
Es	1.841468	-0.334076	0.883954	99
Es	-2.517802	-0.847435	0.138425	99
Es	1.425224	-0.776505	-0.311615	99
Es	1.327504	-1.434989	-0.566911	99
Es	-1.528550	-0.119457	0.073513	99
Es	-2.288267	-0.128830	0.124948	99
Es	1.347006	1.386903	-0.815776	99
Es	-0.781770	-0.051703	0.013512	99
Es	1.199474	1.182835	-0.117576	99
Es	1.537585	0.508152	0.028619	99
Es	-0.471655	0.669179	-0.256624	99
Es	1.486799	1.698427	0.345011	99
Es	-0.101365	-1.251929	-0.086631	99
Es	-0.129462	-1.225237	0.227570	99
Es	-0.408755	-1.719626	-0.315165	99
42
Properties=species:S:1:pos:R:3:Z:I:1 energy=-339.9306462312177 field_type=dipole dipole="0.000000 0.000000 0.000000" charge=0
C	-2.288335	-0.128800	0.124957	6
C	-0.781785	-0.051510	0.013507	6
N	-0.264045	1.133520	0.040327	7
C	1.199595	1.182890	-0.117613	6
C	1.868615	-0.156620	0.157387	6
O	1.193595	-1.156090	-0.613503	8
N	-0.101165	-1.252330	-0.085903	7
H	-2.631065	-1.166520	0.149687	1
H	-2.738544	0.375360	-0.735153	1
H	-2.611105	0.374470	1.041027	1
H	1.411085	1.499050	-1.145693	1
H	1.608425	1.944580	0.554217	1
H	2.917085	-0.131240	-0.155173	1
H	1.839625	-0.421000	1.221817	1
H	-0.621985	-2.045760	-0.449893	1
Es	0.384103	1.128547	-0.025168	99
Es	-1.528422	-0.118880	0.073512	99
Es	-2.496641	0.202983	0.729845	99
Es	-0.471755	0.668358	-0.257128	99
Es	-0.263762	1.133023	0.040256	99
Es	-0.416764	0.634881	0.317028	99
Es	0.602237	-1.187402	-0.366775	99
Es	-2.288266	-0.128830	0.124947	99
Es	1.328955	-1.435630	-0.570746	99
Es	-0.130392	-1.222170	0.222711	99
Es	-0.101212	-1.252074	-0.086521	99
Es	1.841588	-0.333854	0.883693	99
Es	1.193484	-1.155930	-0.613227	99
Es	-0.408515	-1.722700	-0.311014	99
Es	2.580055	-0.142515	-0.060958	99
Es	1.154310	-1.037300	-0.878530	99
Es	1.487325	1.699253	0.344873	99
Es	1.346627	1.386145	-0.815185	99
Es	1.537544	0.508305	0.028408	99
Es	1.199477	1.182837	-0.117575	99
Es	-0.781769	-0.051707	0.013525	99
Es	1.424995	-0.772702	-0.314577	99
Es	1.868496	-0.156784	0.157240	99
Es	-2.575565	0.202938	-0.446736	99
Es	-0.396543	-0.732438	-0.134942	99
Es	-0.462865	1.432200	0.075141	99
Es	-2.518796	-0.848276	0.138637	99
42
Properties=species:S:1:pos:R:3:Z:I:1 energy=-339.9306462312177 field_type=dipole dipole="0.000000 0.000000 0.000000" charge=0
C	-2.288335	-0.128800	0.124957	6
C	-0.781785	-0.051510	0.013507	6
N	-0.264045	1.133520	0.040327	7
C	1.199595	1.182890	-0.117613	6
C	1.868615	-0.156620	0.157387	6
O	1.193595	-1.156090	-0.613503	8
N	-0.101165	-1.252330	-0.085903	7
H	-2.631065	-1.166520	0.149687	1
H	-2.738544	0.375360	-0.735153	1
H	-2.611105	0.374470	1.041027	1
H	1.411085	1.499050	-1.145693	1
H	1.608425	1.944580	0.554217	1
H	2.917085	-0.131240	-0.155173	1
H	1.839625	-0.421000	1.221817	1
H	-0.621985	-2.045760	-0.449893	1
Es	-0.463091	1.429753	0.074129	99
Es	-0.101276	-1.252012	-0.086589	99
Es	-0.417005	0.635040	0.317883	99
Es	1.487699	1.699943	0.344646	99
Es	-1.528344	-0.118509	0.073324	99
Es	1.537615	0.508410	0.028213	99
Es	0.602380	-1.188793	-0.366219	99
Es	-2.575239	0.202983	-0.445655	99
Es	-2.519663	-0.848840	0.138807	99
Es	1.868489	-0.156787	0.157238	99
Es	-0.471189	0.668228	-0.257504	99
Es	1.199473	1.182835	-0.117576	99
Es	-0.396681	-0.730991	-0.131412	99
Es	2.579988	-0.142558	-0.060760	99
Es	1.346296	1.385554	-0.814573	99
Es	-0.263739	1.133021	0.040284	99
Es	1.153815	-1.038317	-0.876953	99
Es	1.328883	-1.434361	-0.571825	99
Es	-2.288266	-0.128828	0.124945	99
Es	0.384344	1.130957	-0.024846	99
Es	1.841617	-0.333732	0.883508	99
Es	-2.496123	0.202882	0.728724	99
Es	1.193441	-1.155831	-0.613240	99
Es	1.425249	-0.771561	-0.315543	99
Es	-0.408444	-1.725085	-0.307542	99
Es	-0.130529	-1.221414	0.215749	99
Es	-0.781769	-0.051707	0.013524	99
42
Properties=species:S:1:pos:R:3:Z:I:1 energy=-339.9306462312177 field_type=dipole dipole="0.000000 0.000000 0.000000" charge=0
C	-2.288335	-0.128800	0.124957	6
C	-0.781785	-0.051510	0.013507	6
N	-0.264045	1.133520	0.040327	7
C	1.199595	1.182890	-0.117613	6
C	1.868615	-0.156620	0.157387	6
O	1.193595	-1.156090	-0.613503	8
N	-0.101165	-1.252330	-0.085903	7
H	-2.631065	-1.166520	0.149687	1
H	-2.738544	0.375360	-0.735153	1
H	-2.611105	0.374470	1.041027	1
H	1.411085	1.499050	-1.145693	1
H	1.608425	1.944580	0.554217	1
H	2.917085	-0.131240	-0.155173	1
H	1.839625	-0.421000	1.221817	1
H	-0.621985	-2.045760	-0.449893	1
Es	1.345951	1.385167	-0.813923	99
Es	2.579877	-0.142546	-0.060672	99
Es	0.602319	-1.190913	-0.365937	99
Es	-0.471096	0.668177	-0.257720	99
Es	-2.574908	0.203076	-0.445118	99
Es	-2.520027	-0.849290	0.138790	99
Es	1.153297	-1.039928	-0.873452	99
Es	-0.396801	-0.731341	-0.131884	99
Es	1.841737	-0.333583	0.883326	99
Es	1.199474	1.182836	-0.117576	99
Es	-2.288268	-0.128831	0.124948	99
Es	1.193416	-1.155839	-0.613168	99
Es	-0.463221	1.428191	0.074065	99
Es	-0.130931	-1.219585	0.213744	99
Es	1.868491	-0.156786	0.157237	99
Es	-0.263756	1.133022	0.040268	99
Es	-0.781769	-0.051707	0.013525	99
Es	-0.416672	0.635013	0.318261	99
Es	1.425018	-0.769299	-0.317618	99
Es	1.537676	0.508379	0.027870	99
Es	1.487999	1.700517	0.344539	99
Es	-0.101330	-1.251956	-0.086700	99
Es	0.384445	1.132530	-0.025190	99
Es	1.329429	-1.432862	-0.573487	99
Es	-1.528390	-0.118065	0.073520	99
Es	-0.408070	-1.726795	-0.304841	99
Es	-2.495961	0.202700	0.727930	99
42
Properties=species:S:1:pos:R:3:Z:I:1 energy=-339.9306462312177 field_type=dipole dipole="0.000000 0.000000 0.000000" charge=0
C	-2.288335	-0.128800	0.124957	6
C	-0.781785	-0.051510	0.013507	6
N	-0.264045	1.133520	0.040327	7
C	1.199595	1.182890	-0.117613	6
C	1.868615	-0.156620	0.157387	6
O	1.193595	-1.156090	-0.613503	8
N	-0.101165	-1.252330	-0.085903	7
H	-2.631065	-1.166520	0.149687	1
H	-2.738544	0.375360	-0.735153	1
H	-2.611105	0.374470	1.041027	1
H	1.411085	1.499050	-1.145693	1
H	1.608425	1.944580	0.554217	1
H	2.917085	-0.131240	-0.155173	1
H	1.839625	-0.421000	1.221817	1
H	-0.621985	-2.045760	-0.449893	1
Es	1.152327	-1.040024	-0.870195	99
Es	-0.101304	-1.251989	-0.086553	99
Es	-0.417067	0.634389	0.318841	99
Es	1.329520	-1.432657	-0.576030	99
Es	-2.520277	-0.849560	0.138861	99
Es	0.384521	1.135497	-0.024827	99
Es	-2.288267	-0.128831	0.124948	99
Es	0.602785	-1.192185	-0.365127	99
Es	1.488299	1.700950	0.344405	99
Es	-0.263749	1.133014	0.040266	99
Es	-2.574824	0.203229	-0.444757	99
Es	-2.495692	0.202467	0.727391	99
Es	-0.407947	-1.728138	-0.302510	99
Es	1.841789	-0.333537	0.883288	99
Es	1.345737	1.384745	-0.813564	99
Es	-0.781769	-0.051708	0.013525	99
Es	1.425351	-0.768179	-0.318753	99
Es	-0.470666	0.668899	-0.258384	99
Es	2.579716	-0.142683	-0.060548	99
Es	-1.528399	-0.117912	0.073605	99
Es	-0.463184	1.425204	0.073557	99
Es	-0.131325	-1.218935	0.209399	99
Es	1.199471	1.182836	-0.117574	99
Es	1.868490	-0.156785	0.157238	99
Es	-0.396749	-0.730538	-0.130151	99
Es	1.193494	-1.155888	-0.613254	99
Es	1.537649	0.508597	0.027640	99
42
Properties=species:S:1:pos:R:3:Z:I:1 energy=-339.9306462312177 field_type=dipole dipole="0.000000 0.000000 0.000000" charge=0
C	-2.288335	-0.128800	0.124957	6
C	-0.781785	-0.051510	0.013507	6
N	-0.264045	1.133520	0.040327	7
C	1.199595	1.182890	-0.117613	6
C	1.868615	-0.156620	0.157387	6
O	1.193595	-1.156090	-0.613503	8
N	-0.101165	-1.252330	-0.085903	7
H	-2.631065	-1.166520	0.149687	1
H	-2.738544	0.375360	-0.735153	1
H	-2.611105	0.374470	1.041027	1
H	1.411085	1.499050	-1.145693	1
H	1.608425	1.944580	0.554217	1
H	2.917085	-0.131240	-0.155173	1
H	1.839625	-0.421000	1.221817	1
H	-0.621985	-2.045760	-0.449893	1
Es	1.329443	-1.431139	-0.575636	99
Es	1.345465	1.384306	-0.813159	99
Es	-0.416905	0.634129	0.319149	99
Es	-0.263747	1.133028	0.040265	99
Es	-0.408001	-1.728411	-0.302264	99
Es	-2.288269	-0.128830	0.124949	99
Es	1.193463	-1.155939	-0.613074	99
Es	1.537796	0.508584	0.027568	99
Es	0.384497	1.136383	-0.025000	99
Es	-0.131295	-1.219583	0.207126	99
Es	-0.396788	-0.729907	-0.128157	99
Es	-2.574673	0.203313	-0.444351	99
Es	-2.495514	0.202182	0.726445	99
Es	0.602951	-1.193296	-0.364774	99
Es	-2.520657	-0.849826	0.139078	99
Es	1.152353	-1.041922	-0.869093	99
Es	-0.781769	-0.051707	0.013527	99
Es	-1.528230	-0.117582	0.073884	99
Es	1.841879	-0.333433	0.883269	99
Es	1.868491	-0.156785	0.157237	99
Es	-0.470497	0.669075	-0.258554	99
Es	1.199473	1.182836	-0.117577	99
Es	1.425164	-0.766570	-0.320555	99
Es	-0.463251	1.424365	0.073467	99
Es	1.488461	1.701497	0.344105	99
Es	-0.101464	-1.251831	-0.086635	99
Es	2.579553	-0.142659	-0.060502	99
42
Properties=species:S:1:pos:R:3:Z:I:1 energy=-339.9306462312177 field_type=dipole dipole="0.000000 0.000000 0.000000" charge=0
C	-2.288335	-0.128800	0.124957	6
C	-0.781785	-0.051510	0.013507	6
N	-0.264045	1.133520	0.040327	7
C	1.199595	1.182890	-0.117613	6
C	1.868615	-0.156620	0.157387	6
O	1.193595	-1.156090	-0.613503	8
N	-0.101165	-1.252330	-0.085903	7
H	-2.631065	-1.166520	0.149687	1
H	-2.738544	0.375360	-0.735153	1
H	-2.611105	0.374470	1.041027	1
H	1.411085	1.499050	-1.145693	1
H	1.608425	1.944580	0.554217	1
H	2.917085	-0.131240	-0.155173	1
H	1.839625	-0.421000	1.221817	1
H	-0.621985	-2.045760	-0.449893	1
Es	-2.574592	0.203476	-0.443969	99
Es	1.193464	-1.155913	-0.613156	99
Es	-0.463038	1.423078	0.073764	99
Es	0.602794	-1.193938	-0.365233	99
Es	0.384625	1.137537	-0.024863	99
Es	1.329120	-1.430096	-0.574966	99
Es	1.425162	-0.765785	-0.321315	99
Es	-0.131537	-1.218948	0.204002	99
Es	1.199474	1.182837	-0.117577	99
Es	-0.416710	0.634348	0.319124	99
Es	-2.288267	-0.128831	0.124948	99
Es	-0.263761	1.133010	0.040267	99
Es	1.537773	0.508724	0.027562	99
Es	1.868492	-0.156782	0.157241	99
Es	1.345257	1.384046	-0.812944	99
Es	-1.528232	-0.117497	0.073851	99
Es	1.152540	-1.043093	-0.868729	99
Es	-0.470750	0.668985	-0.259109	99
Es	-2.495147	0.202008	0.725991	99
Es	1.488590	1.701836	0.343996	99
Es	-0.781769	-0.051708	0.013524	99
Es	-0.396794	-0.729410	-0.126783	99
Es	-0.101309	-1.251976	-0.086606	99
Es	2.579436	-0.142714	-0.060396	99
Es	-0.407858	-1.729480	-0.300179	99
Es	1.841992	-0.333455	0.883113	99
Es	-2.521030	-0.849979	0.139181	99
42
Properties=species:S:1:pos:R:3:Z:I:1 energy=-339.9306462312177 field_type=dipole dipole="0.000000 0.000000 0.000000" charge=0
C	-2.288335	-0.128800	0.124957	6
C	-0.781785	-0.051510	0.013507	6
N	-0.264045	1.133520	0.040327	7
C	1.199595	1.182890	-0.117613	6
C	1.868615	-0.156620	0.157387	6
O	1.193595	-1.156090	-0.613503	8
N	-0.101165	-1.252330	-0.085903	7
H	-2.631065	-1.166520	0.149687	1
H	-2.738544	0.375360	-0.735153	1
H	-2.611105	0.374470	1.041027	1
H	1.411085	1.499050	-1.145693	1
H	1.608425	1.944580	0.554217	1
H	2.917085	-0.131240	-0.155173	1
H	1.839625	-0.421000	1.221817	1
H	-0.621985	-2.045760	-0.449893	1
Es	1.868492	-0.156785	0.157238	99
Es	-1.528329	-0.117473	0.074015	99
Es	1.537916	0.508839	0.027229	99
Es	-2.574465	0.203610	-0.443816	99
Es	-2.288266	-0.128829	0.124945	99
Es	-0.101325	-1.251966	-0.086588	99
Es	-0.263754	1.133019	0.040267	99
Es	-0.407561	-1.730259	-0.298765	99
Es	1.193494	-1.155882	-0.613250	99
Es	1.488827	1.702101	0.343863	99
Es	-0.131918	-1.217771	0.203486	99
Es	-0.416656	0.634141	0.319425	99
Es	-0.463250	1.420977	0.073331	99
Es	-0.396783	-0.729706	-0.127920	99
Es	1.151585	-1.042430	-0.865106	99
Es	-0.470311	0.668988	-0.259205	99
Es	-2.495069	0.201830	0.725732	99
Es	-0.781769	-0.051708	0.013526	99
Es	0.603201	-1.195123	-0.364404	99
Es	1.425210	-0.765075	-0.322197	99
Es	1.329506	-1.430348	-0.578201	99
Es	0.384471	1.139901	-0.024693	99
Es	2.579182	-0.142880	-0.060311	99
Es	1.842086	-0.333438	0.883178	99
Es	1.199475	1.182837	-0.117576	99
Es	-2.521130	-0.850110	0.139083	99
Es	1.345069	1.383819	-0.812550	99
42
Properties=species:S:1:pos:R:3:Z:I:1 energy=-339.9306462312177 field_type=dipole dipole="0.000000 0.000000 0.000000" charge=0
C	-2.288335	-0.128800	0.124957	6
C	-0.781785	-0.051510	0.013507	6
N	-0.264045	1.133520	0.040327	7
C	1.199595	1.182890	-0.117613	6
C	1.868615	-0.156620	0.157387	6
O	1.193595	-1.156090	-0.613503	8
N	-0.101165	-1.252330	-0.085903	7
H	-2.631065	-1.166520	0.149687	1
H	-2.738544	0.375360	-0.735153	1
H	-2.611105	0.374470	1.041027	1
H	1.411085	1.499050	-1.145693	1
H	1.608425	1.944580	0.554217	1
H	2.917085	-0.131240	-0.155173	1
H	1.839625	-0.421000	1.221817	1
H	-0.621985	-2.045760	-0.449893	1
Es	-0.781769	-0.051709	0.013525	99
Es	-2.495134	0.201809	0.725180	99
Es	0.603099	-1.194759	-0.364676	99
Es	-1.528254	-0.117198	0.074246	99
Es	-0.396845	-0.728874	-0.125616	99
Es	-0.463558	1.419215	0.072583	99
Es	1.199475	1.182837	-0.117576	99
Es	1.425070	-0.764547	-0.322722	99
Es	-2.521248	-0.850276	0.139221	99
Es	-0.407561	-1.730508	-0.298368	99
Es	1.193455	-1.155892	-0.613175	99
Es	1.868492	-0.156783	0.157241	99
Es	1.329341	-1.430142	-0.576967	99
Es	1.842178	-0.333401	0.883164	99
Es	0.384330	1.141886	-0.024452	99
Es	1.537937	0.508970	0.027162	99
Es	-0.263757	1.133019	0.040261	99
Es	1.344948	1.383600	-0.812407	99
Es	-0.131901	-1.218499	0.200795	99
Es	-2.288269	-0.128831	0.124948	99
Es	-0.416548	0.634294	0.319754	99
Es	2.579041	-0.142911	-0.060286	99
Es	-2.574270	0.203453	-0.443632	99
Es	-0.469821	0.668570	-0.259112	99
Es	-0.101404	-1.251885	-0.086669	99
Es	1.488926	1.702345	0.343743	99
Es	1.151974	-1.043503	-0.865431	99
42
Properties=species:S:1:pos:R:3:Z:I:1 energy=-339.9306462312177 field_type=dipole dipole="0.000000 0.000000 0.000000" charge=0
C	-2.288335	-0.128800	0.124957	6
C	-0.781785	-0.051510	0.013507	6
N	-0.264045	1.133520	0.040327	7
C	1.199595	1.182890	-0.117613	6
C	1.868615	-0.156620	0.157387	6
O	1.193595	-1.156090	-0.613503	8
N	-0.101165	-1.252330	-0.085903	7
H	-2.631065	-1.166520	0.149687	1
H	-2.738544	0.375360	-0.735153	1
H	-2.611105	0.374470	1.041027	1
H	1.411085	1.499050	-1.145693	1
H	1.608425	1.944580	0.554217	1
H	2.917085	-0.131240	-0.155173	1
H	1.839625	-0.421000	1.221817	1
H	-0.621985	-2.045760	-0.449893	1
Es	0.384303	1.141880	-0.024443	99
Es	1.152491	-1.045743	-0.866036	99
Es	1.193482	-1.155905	-0.613246	99
Es	-0.131880	-1.218561	0.198818	99
Es	2.578835	-0.143076	-0.060188	99
Es	1.329095	-1.428233	-0.574625	99
Es	-0.263751	1.133016	0.040266	99
Es	1.489019	1.702668	0.343585	99
Es	-0.469969	0.669558	-0.259817	99
Es	1.868492	-0.156782	0.157240	99
Es	-2.494919	0.201573	0.724925	99
Es	-1.528224	-0.117050	0.074134	99
Es	0.603023	-1.195584	-0.365124	99
Es	-0.416737	0.633540	0.319559	99
Es	-0.781769	-0.051707	0.013529	99
Es	1.344820	1.383354	-0.812024	99
Es	-0.463068	1.418940	0.073353	99
Es	-2.288267	-0.128831	0.124948	99
Es	1.199477	1.182838	-0.117577	99
Es	-2.574298	0.203615	-0.443363	99
Es	-0.407541	-1.730932	-0.297413	99
Es	-0.396893	-0.728577	-0.124137	99
Es	-2.521429	-0.850339	0.139204	99
Es	-0.101320	-1.251967	-0.086621	99
Es	1.842279	-0.333375	0.883115	99
Es	1.538092	0.509156	0.026989	99
Es	1.424586	-0.763198	-0.324315	99
42
Properties=species:S:1:pos:R:3:Z:I:1 energy=-339.9306462312177 field_type=dipole dipole="0.000000 0.000000 0.000000" charge=0
C	-2.288335	-0.128800	0.124957	6
C	-0.781785	-0.051510	0.013507	6
N	-0.264045	1.133520	0.040327	7
C	1.199595	1.182890	-0.117613	6
C	1.868615	-0.156620	0.157387	6
O	1.193595	-1.156090	-0.613503	8
N	-0.101165	-1.252330	-0.085903	7
H	-2.631065	-1.166520	0.149687	1
H	-2.738544	0.375360	-0.735153	1
H	-2.611105	0.374470	1.041027	1
H	1.411085	1.499050	-1.145693	1
H	1.608425	1.944580	0.554217	1
H	2.917085	-0.131240	-0.155173	1
H	1.839625	-0.421000	1.221817	1
H	-0.621985	-2.045760	-0.449893	1
Es	1.425015	-0.763908	-0.323393	99
Es	-0.396942	-0.729229	-0.126360	99
Es	1.538024	0.508941	0.026916	99
Es	1.199474	1.182837	-0.117576	99
Es	-1.528150	-0.116924	0.074159	99
Es	-0.407236	-1.731368	-0.296636	99
Es	-0.263758	1.133000	0.040266	99
Es	0.603635	-1.197064	-0.364020	99
Es	-0.101351	-1.251937	-0.086618	99
Es	-0.470087	0.668614	-0.259690	99
Es	-2.494823	0.201536	0.724615	99
Es	-0.132326	-1.217375	0.199808	99
Es	0.384224	1.143277	-0.024514	99
Es	-2.574196	0.203577	-0.443151	99
Es	-0.416390	0.634420	0.320117	99
Es	1.344597	1.383125	-0.811787	99
Es	1.842156	-0.333247	0.883021	99
Es	1.193500	-1.155937	-0.613270	99
Es	1.151065	-1.042931	-0.862201	99
Es	2.578962	-0.143019	-0.060122	99
Es	-2.521575	-0.850443	0.139278	99
Es	1.329554	-1.429042	-0.579927	99
Es	-2.288267	-0.128831	0.124948	99
Es	1.868491	-0.156786	0.157236	99
Es	-0.463083	1.417755	0.072739	99
Es	-0.781769	-0.051707	0.013525	99
Es	1.489187	1.702950	0.343373	99
42
Properties=species:S:1:pos:R:3:Z:I:1 energy=-339.9306462312177 field_type=dipole dipole="0.000000 0.000000 0.000000" charge=0
C	-2.288335	-0.128800	0.124957	6
C	-0.781785	-0.051510	0.013507	6
N	-0.264045	1.133520	0.040327	7
C	1.199595	1.182890	-0.117613	6
C	1.868615	-0.156620	0.157387	6
O	1.193595	-1.156090	-0.613503	8
N	-0.101165	-1.252330	-0.085903	7
H	-2.631065	-1.166520	0.149687	1
H	-2.738544	0.375360	-0.735153	1
H	-2.611105	0.374470	1.041027	1
H	1.411085	1.499050	-1.145693	1
H	1.608425	1.944580	0.554217	1
H	2.917085	-0.131240	-0.155173	1
H	1.839625	-0.421000	1.221817	1
H	-0.621985	-2.045760	-0.449893	1
Es	-0.470167	0.669731	-0.260298	99
Es	-2.521641	-0.850478	0.139315	99
Es	1.842305	-0.333325	0.883174	99
Es	-0.462763	1.416205	0.073574	99
Es	2.578623	-0.143107	-0.060064	99
Es	1.489125	1.703057	0.343397	99
Es	-0.263747	1.133018	0.040267	99
Es	-2.494692	0.201338	0.724410	99
Es	0.603096	-1.196198	-0.364738	99
Es	-2.288271	-0.128828	0.124951	99
Es	1.151914	-1.045574	-0.862011	99
Es	1.424719	-0.762338	-0.325720	99
Es	-0.407290	-1.731584	-0.296326	99
Es	-0.781768	-0.051709	0.013526	99
Es	1.868491	-0.156785	0.157237	99
Es	1.538188	0.509004	0.026760	99
Es	1.329375	-1.428494	-0.577139	99
Es	-0.132224	-1.217967	0.197539	99
Es	1.199475	1.182836	-0.117578	99
Es	-0.101357	-1.251931	-0.086629	99
Es	0.384261	1.144691	-0.024489	99
Es	-2.574169	0.203808	-0.443238	99
Es	1.344517	1.383130	-0.811684	99
Es	-0.416464	0.633424	0.319690	99
Es	1.193547	-1.155994	-0.613477	99
Es	-1.528248	-0.117001	0.074433	99
Es	-0.396907	-0.728648	-0.124144	99
42
Properties=species:S:1:pos:R:3:Z:I:1 energy=-339.9306462312177 field_type=dipole dipole="0.000000 0.000000 0.000000" charge=0
C	-2.288335	-0.128800	0.124957	6
C	-0.781785	-0.051510	0.013507	6
N	-0.264045	1.133520	0.040327	7
C	1.199595	1.182890	-0.117613	6
C	1.868615	-0.156620	0.157387	6
O	1.193595	-1.156090	-0.613503	8
N	-0.101165	-1.252330	-0.085903	7
H	-2.631065	-1.166520	0.149687	1
H	-2.738544	0.375360	-0.735153	1
H	-2.611105	0.374470	1.041027	1
H	1.411085	1.499050	-1.145693	1
H	1.608425	1.944580	0.554217	1
H	2.917085	-0.131240	-0.155173	1
H	1.839625	-0.421000	1.221817	1
H	-0.621985	-2.045760	-0.449893	1
Es	1.868493	-0.156791	0.157229	99
Es	1.538056	0.509202	0.026779	99
Es	1.489283	1.703201	0.343324	99
Es	-0.132272	-1.217414	0.197942	99
Es	-0.462940	1.416454	0.072857	99
Es	1.344493	1.382916	-0.811556	99
Es	1.329623	-1.427865	-0.582210	99
Es	-2.521716	-0.850555	0.139289	99
Es	-0.416410	0.633896	0.320086	99
Es	2.578553	-0.143142	-0.060107	99
Es	-0.263766	1.133007	0.040265	99
Es	1.842467	-0.333297	0.883034	99
Es	1.193414	-1.155857	-0.613153	99
Es	1.150835	-1.043162	-0.859116	99
Es	-0.781769	-0.051707	0.013525	99
Es	0.603637	-1.198882	-0.364253	99
Es	0.384215	1.144547	-0.024605	99
Es	1.424876	-0.763044	-0.324310	99
Es	-2.574140	0.203841	-0.443044	99
Es	-0.469934	0.669131	-0.259842	99
Es	-0.101338	-1.251950	-0.086610	99
Es	-1.528146	-0.116729	0.074504	99
Es	1.199475	1.182837	-0.117577	99
Es	-2.288267	-0.128831	0.124948	99
Es	-2.494701	0.201132	0.724055	99
Es	-0.407207	-1.731849	-0.295647	99
Es	-0.396886	-0.728809	-0.125071	99
42
Properties=species:S:1:pos:R:3:Z:I:1 energy=-339.9306462312177 field_type=dipole dipole="0.000000 0.000000 0.000000" charge=0
C	-2.288335	-0.128800	0.124957	6
C	-0.781785	-0.051510	0.013507	6
N	-0.264045	1.133520	0.040327	7
C	1.199595	1.182890	-0.117613	6
C	1.868615	-0.156620	0.157387	6
O	1.193595	-1.156090	-0.613503	8
N	-0.101165	-1.252330	-0.085903	7
H	-2.631065	-1.166520	0.149687	1
H	-2.738544	0.375360	-0.735153	1
H	-2.611105	0.374470	1.041027	1
H	1.411085	1.499050	-1.145693	1
H	1.608425	1.944580	0.554217	1
H	2.917085	-0.131240	-0.155173	1
H	1.839625	-0.421000	1.221817	1
H	-0.621985	-2.045760	-0.449893	1
Es	1.199476	1.182836	-0.117577	99
Es	0.384054	1.145795	-0.024366	99
Es	-0.462909	1.415333	0.072993	99
Es	-0.396969	-0.728557	-0.124258	99
Es	-0.132754	-1.217307	0.196297	99
Es	1.842566	-0.333307	0.883091	99
Es	-0.781769	-0.051708	0.013525	99
Es	-2.521670	-0.850669	0.139285	99
Es	-2.574026	0.203610	-0.442864	99
Es	-2.288267	-0.128831	0.124948	99
Es	1.489346	1.703378	0.343134	99
Es	2.578343	-0.143183	-0.060069	99
Es	1.538231	0.509190	0.026685	99
Es	-1.528129	-0.116540	0.074469	99
Es	-0.416313	0.633798	0.319924	99
Es	-0.407086	-1.732051	-0.295423	99
Es	1.151637	-1.045686	-0.860884	99
Es	-0.101133	-1.252149	-0.086369	99
Es	1.344375	1.382791	-0.811313	99
Es	0.603737	-1.198733	-0.364110	99
Es	-0.263807	1.133030	0.040271	99
Es	1.193472	-1.155887	-0.613257	99
Es	1.868490	-0.156786	0.157236	99
Es	-0.469840	0.669154	-0.260119	99
Es	1.424197	-0.761687	-0.326079	99
Es	1.329484	-1.426790	-0.578355	99
Es	-2.494808	0.201235	0.723921	99
42
Properties=species:S:1:pos:R:3:Z:I:1 energy=-339.9306462312177 field_type=dipole dipole="0.000000 0.000000 0.000000" charge=0
C	-2.288335	-0.128800	0.124957	6
C	-0.781785	-0.051510	0.013507	6
N	-0.264045	1.133520	0.040327	7
C	1.199595	1.182890	-0.117613	6
C	1.868615	-0.156620	0.157387	6
O	1.193595	-1.156090	-0.613503	8
N	-0.101165	-1.252330	-0.085903	7
H	-2.631065	-1.166520	0.149687	1
H	-2.738544	0.375360	-0.735153	1
H	-2.611105	0.374470	1.041027	1
H	1.411085	1.499050	-1.145693	1
H	1.608425	1.944580	0.554217	1
H	2.917085	-0.131240	-0.155173	1
H	1.839625	-0.421000	1.221817	1
H	-0.621985	-2.045760	-0.449893	1
Es	1.842512	-0.333287	0.883034	99
Es	-0.263754	1.133010	0.040269	99
Es	-2.494481	0.201130	0.723831	99
Es	1.193472	-1.155917	-0.613175	99
Es	-1.528266	-0.116744	0.074442	99
Es	1.344228	1.382699	-0.811059	99
Es	0.383918	1.147089	-0.024254	99
Es	-0.462848	1.414091	0.072700	99
Es	-2.574048	0.203881	-0.442941	99
Es	-0.416477	0.633408	0.320103	99
Es	1.538236	0.509140	0.026562	99
Es	1.868487	-0.156786	0.157234	99
Es	-0.469526	0.669492	-0.260160	99
Es	1.199474	1.182837	-0.117576	99
Es	0.603919	-1.198920	-0.364043	99
Es	1.489440	1.703545	0.343050	99
Es	1.329549	-1.426986	-0.579282	99
Es	-0.101395	-1.251893	-0.086604	99
Es	-0.132469	-1.217899	0.194748	99
Es	-0.396886	-0.728059	-0.122784	99
Es	1.151263	-1.045192	-0.860395	99
Es	-2.288269	-0.128830	0.124945	99
Es	2.578376	-0.143193	-0.059998	99
Es	-0.781770	-0.051707	0.013525	99
Es	-0.407184	-1.732186	-0.294963	99
Es	-2.521844	-0.850664	0.139440	99
Es	1.424274	-0.761780	-0.325913	99
42
Properties=species:S:1:pos:R:3:Z:I:1 energy=-339.9306462312177 field_type=dipole dipole="0.000000 0.000000 0.000000" charge=0
C	-2.288335	-0.128800	0.124957	6
C	-0.781785	-0.051510	0.013507	6
N	-0.264045	1.133520	0.040327	7
C	1.199595	1.182890	-0.117613	6
C	1.868615	-0.156620	0.157387	6
O	1.193595	-1.156090	-0.613503	8
N	-0.101165	-1.252330	-0.085903	7
H	-2.631065	-1.166520	0.149687	1
H	-2.738544	0.375360	-0.735153	1
H	-2.611105	0.374470	1.041027	1
H	1.411085	1.499050	-1.145693	1
H	1.608425	1.944580	0.554217	1
H	2.917085	-0.131240	-0.155173	1
H	1.839625	-0.421000	1.221817	1
H	-0.621985	-2.045760	-0.449893	1
Es	-2.521792	-0.850704	0.139457	99
Es	1.489423	1.703608	0.343016	99
Es	0.383916	1.147089	-0.024464	99
Es	-0.416234	0.633982	0.320320	99
Es	-0.407078	-1.732433	-0.294500	99
Es	1.868491	-0.156785	0.157238	99
Es	1.842640	-0.333322	0.883006	99
Es	1.151036	-1.045322	-0.859324	99
Es	2.578228	-0.143247	-0.059989	99
Es	-1.528120	-0.116572	0.074208	99
Es	-0.132611	-1.217675	0.194219	99
Es	-2.574217	0.203850	-0.442731	99
Es	-0.462622	1.414037	0.072892	99
Es	-0.469957	0.669055	-0.260398	99
Es	-0.781769	-0.051707	0.013525	99
Es	0.604285	-1.200310	-0.363533	99
Es	-2.288267	-0.128831	0.124948	99
Es	-2.494438	0.200982	0.723721	99
Es	1.199475	1.182837	-0.117576	99
Es	1.193467	-1.155898	-0.613178	99
Es	1.538248	0.509203	0.026596	99
Es	1.344230	1.382653	-0.810995	99
Es	-0.396905	-0.728068	-0.122777	99
Es	1.329600	-1.425959	-0.580029	99
Es	-0.101420	-1.251872	-0.086635	99
Es	-0.263763	1.133004	0.040268	99
Es	1.424084	-0.761317	-0.326550	99
42
Properties=species:S:1:pos:R:3:Z:I:1 energy=-339.9306462312177 field_type=dipole dipole="0.000000 0.000000 0.000000" charge=0
C	-2.288335	-0.128800	0.124957	6
C	-0.781785	-0.051510	0.013507	6
N	-0.264045	1.133520	0.040327	7
C	1.199595	1.182890	-0.117613	6
C	1.868615	-0.156620	0.157387	6
O	1.193595	-1.156090	-0.613503	8
N	-0.101165	-1.252330	-0.085903	7
H	-2.631065	-1.166520	0.149687	1
H	-2.738544	0.375360	-0.735153	1
H	-2.611105	0.374470	1.041027	1
H	1.411085	1.499050	-1.145693	1
H	1.608425	1.944580	0.554217	1
H	2.917085	-0.131240	-0.155173	1
H	1.839625	-0.421000	1.221817	1
H	-0.621985	-2.045760	-0.449893	1
Es	1.423893	-0.760421	-0.327816	99
Es	-0.781772	-0.051705	0.013523	99
Es	-2.494491	0.200947	0.723421	99
Es	-0.406941	-1.732658	-0.294041	99
Es	1.868493	-0.156785	0.157236	99
Es	-1.528182	-0.116501	0.074552	99
Es	-2.288266	-0.128830	0.124947	99
Es	-2.573989	0.203854	-0.442706	99
Es	1.193408	-1.155740	-0.613283	99
Es	-0.101495	-1.251804	-0.086655	99
Es	1.489574	1.703838	0.342894	99
Es	-2.521934	-0.850751	0.139440	99
Es	-0.132493	-1.217311	0.194704	99
Es	-0.415934	0.634940	0.320417	99
Es	1.344056	1.382407	-0.810959	99
Es	1.538243	0.509409	0.026492	99
Es	-0.469872	0.667914	-0.260102	99
Es	-0.263749	1.132997	0.040264	99
Es	-0.396944	-0.728373	-0.123482	99
Es	0.383960	1.147697	-0.024183	99
Es	1.199474	1.182837	-0.117576	99
Es	1.151547	-1.046936	-0.859132	99
Es	1.329448	-1.425977	-0.578579	99
Es	-0.462849	1.413539	0.072322	99
Es	2.578206	-0.143398	-0.059868	99
Es	0.603951	-1.199630	-0.364032	99
Es	1.842586	-0.333278	0.882938	99
