41
Properties=species:S:1:pos:R:3:Z:I:1 energy=-359.77003211635446 field_type=dipole dipole="0.000000 0.000000 0.000000" charge=0
C	-1.492610	0.141516	-0.299919	6
C	0.027360	0.113396	-0.332519	6
O	0.473760	0.302946	-1.662979	8
C	0.625320	-1.118464	0.323661	6
O	0.913750	-0.735734	1.675671	8
N	1.070800	0.672266	1.710211	7
C	0.575080	1.131026	0.613021	6
H	-1.885140	0.033066	0.717121	1
H	-1.908190	-0.659134	-0.921189	1
H	-1.870410	1.086396	-0.706949	1
H	1.445990	0.237716	-1.671378	1
H	1.560150	-1.436354	-0.151229	1
H	-0.059770	-1.971624	0.333021	1
H	0.523910	2.202986	0.373451	1
Es	0.979689	-0.118058	1.646752	99
Es	0.027442	0.113446	-0.332703	99
Es	0.625359	-1.118391	0.323864	99
Es	0.593563	0.906649	1.332672	99
Es	0.995386	0.265483	-1.642383	99
Es	-1.742311	0.065780	0.389848	99
Es	-1.492562	0.141518	-0.299912	99
Es	0.317755	-0.522230	-0.022454	99
Es	1.122185	0.862543	1.085775	99
Es	-1.737983	0.785283	-0.570414	99
Es	0.303643	0.651348	0.132369	99
Es	1.266536	-1.319524	-0.015671	99
Es	1.070527	0.671974	1.709674	99
Es	0.400654	0.591621	-1.737680	99
Es	-0.724778	0.127351	-0.311085	99
Es	0.913735	-0.735546	1.675345	99
Es	1.222992	0.815364	2.020514	99
Es	0.473985	0.302827	-1.662664	99
Es	0.803370	-0.857539	1.149122	99
Es	0.159478	-1.694263	0.330601	99
Es	0.543664	1.843602	0.454530	99
Es	1.185424	-0.858033	1.755270	99
Es	0.370030	0.061436	-1.814431	99
Es	0.575090	1.131048	0.613012	99
Es	0.655371	-0.765370	1.826153	99
Es	-1.762585	-0.404574	-0.715874	99
Es	0.331887	0.231386	-1.144495	99
41
Properties=species:S:1:pos:R:3:Z:I:1 energy=-359.77003211635446 field_type=dipole dipole="0.000000 0.000000 0.000000" charge=0
C	-1.492610	0.141516	-0.299919	6
C	0.027360	0.113396	-0.332519	6
O	0.473760	0.302946	-1.662979	8
C	0.625320	-1.118464	0.323661	6
O	0.913750	-0.735734	1.675671	8
N	1.070800	0.672266	1.710211	7
C	0.575080	1.131026	0.613021	6
H	-1.885140	0.033066	0.717121	1
H	-1.908190	-0.659134	-0.921189	1
H	-1.870410	1.086396	-0.706949	1
H	1.445990	0.237716	-1.671378	1
H	1.560150	-1.436354	-0.151229	1
H	-0.059770	-1.971624	0.333021	1
H	0.523910	2.202986	0.373451	1
Es	0.378925	0.059750	-1.805963	99
Es	0.980689	-0.118369	1.647169	99
Es	0.160606	-1.694763	0.330662	99
Es	-0.725142	0.127440	-0.311102	99
Es	0.393724	0.595754	-1.747411	99
Es	0.805121	-0.858376	1.149080	99
Es	1.265442	-1.319535	-0.014654	99
Es	0.544130	1.844098	0.453814	99
Es	-1.761324	-0.404450	-0.715105	99
Es	0.625361	-1.118385	0.323872	99
Es	0.913681	-0.735611	1.675377	99
Es	0.575089	1.131050	0.613016	99
Es	1.070529	0.671969	1.709688	99
Es	1.120125	0.861768	1.085910	99
Es	0.593980	0.905783	1.331830	99
Es	1.182807	-0.868204	1.771083	99
Es	0.317396	-0.522235	-0.023136	99
Es	0.332293	0.228819	-1.144363	99
Es	-1.492560	0.141519	-0.299913	99
Es	0.473961	0.302895	-1.662704	99
Es	-1.738289	0.786573	-0.571661	99
Es	0.655893	-0.754636	1.811120	99
Es	0.027440	0.113443	-0.332694	99
Es	0.303743	0.651401	0.132327	99
Es	0.992675	0.265825	-1.641489	99
Es	-1.741927	0.064984	0.390354	99
Es	1.223177	0.816628	2.020627	99
41
Properties=species:S:1:pos:R:3:Z:I:1 energy=-359.77003211635446 field_type=dipole dipole="0.000000 0.000000 0.000000" charge=0
C	-1.492610	0.141516	-0.299919	6
C	0.027360	0.113396	-0.332519	6
O	0.473760	0.302946	-1.662979	8
C	0.625320	-1.118464	0.323661	6
O	0.913750	-0.735734	1.675671	8
N	1.070800	0.672266	1.710211	7
C	0.575080	1.131026	0.613021	6
H	-1.885140	0.033066	0.717121	1
H	-1.908190	-0.659134	-0.921189	1
H	-1.870410	1.086396	-0.706949	1
H	1.445990	0.237716	-1.671378	1
H	1.560150	-1.436354	-0.151229	1
H	-0.059770	-1.971624	0.333021	1
H	0.523910	2.202986	0.373451	1
Es	0.473975	0.302800	-1.662663	99
Es	-0.725374	0.127581	-0.311197	99
Es	0.594362	0.905148	1.331158	99
Es	0.390353	0.598428	-1.752214	99
Es	0.913759	-0.735575	1.675378	99
Es	1.070535	0.671963	1.709697	99
Es	1.180267	-0.874158	1.780181	99
Es	1.222510	0.817210	2.021043	99
Es	0.332729	0.226152	-1.144304	99
Es	-1.760520	-0.404265	-0.714805	99
Es	0.990247	0.265946	-1.640877	99
Es	0.161265	-1.695192	0.330632	99
Es	-1.492560	0.141519	-0.299913	99
Es	0.659156	-0.747756	1.802704	99
Es	1.119561	0.861372	1.085805	99
Es	0.803856	-0.859331	1.148945	99
Es	0.027441	0.113448	-0.332703	99
Es	-1.741744	0.064448	0.390838	99
Es	1.264529	-1.319401	-0.013896	99
Es	-1.738359	0.787152	-0.572339	99
Es	0.384055	0.059969	-1.802060	99
Es	0.303585	0.651429	0.132383	99
Es	0.981521	-0.118532	1.647360	99
Es	0.317315	-0.522220	-0.023693	99
Es	0.575098	1.131045	0.613012	99
Es	0.625360	-1.118385	0.323873	99
Es	0.544622	1.844338	0.453388	99
41
Properties=species:S:1:pos:R:3:Z:I:1 energy=-359.77003211635446 field_type=dipole dipole="0.000000 0.000000 0.000000" charge=0
C	-1.492610	0.141516	-0.299919	6
C	0.027360	0.113396	-0.332519	6
O	0.473760	0.302946	-1.662979	8
C	0.625320	-1.118464	0.323661	6
O	0.913750	-0.735734	1.675671	8
N	1.070800	0.672266	1.710211	7
C	0.575080	1.131026	0.613021	6
H	-1.885140	0.033066	0.717121	1
H	-1.908190	-0.659134	-0.921189	1
H	-1.870410	1.086396	-0.706949	1
H	1.445990	0.237716	-1.671378	1
H	1.560150	-1.436354	-0.151229	1
H	-0.059770	-1.971624	0.333021	1
H	0.523910	2.202986	0.373451	1
Es	0.594418	0.904872	1.330924	99
Es	1.174944	-0.881412	1.792372	99
Es	0.388851	0.059844	-1.798574	99
Es	0.473992	0.302846	-1.662668	99
Es	-1.741683	0.063940	0.391220	99
Es	0.317455	-0.522128	-0.023888	99
Es	-1.738386	0.787566	-0.572863	99
Es	0.575103	1.131050	0.613002	99
Es	0.661589	-0.739882	1.791498	99
Es	0.386918	0.598200	-1.756678	99
Es	0.161539	-1.695570	0.330517	99
Es	0.544864	1.844393	0.453019	99
Es	0.983216	-0.118851	1.647308	99
Es	1.119313	0.861269	1.085772	99
Es	0.913988	-0.735463	1.675234	99
Es	0.805086	-0.859834	1.148715	99
Es	-1.759904	-0.403928	-0.714538	99
Es	-0.725605	0.127434	-0.311317	99
Es	0.625360	-1.118387	0.323870	99
Es	0.989109	0.267752	-1.640397	99
Es	1.070531	0.671962	1.709690	99
Es	0.303569	0.651420	0.132398	99
Es	-1.492559	0.141519	-0.299912	99
Es	1.263893	-1.319157	-0.013412	99
Es	0.027441	0.113447	-0.332702	99
Es	0.332399	0.224743	-1.143976	99
Es	1.222105	0.817488	2.021121	99
