45
Properties=species:S:1:pos:R:3:Z:I:1 energy=-288.10608638040776 field_type=dipole dipole="0.000000 0.000000 0.000000" charge=0
C	-1.329823	-0.000656	0.837092	6
C	-0.723273	-1.024636	-0.150248	6
C	0.773127	-1.269526	0.076092	6
C	1.575377	-0.000186	-0.227218	6
C	0.773977	1.268814	0.079642	6
C	-0.722653	1.025494	-0.147258	6
N	-0.959193	0.001774	-1.224988	7
H	-0.943743	-0.002146	1.859782	1
H	-2.426363	-0.000496	0.873562	1
H	-1.297963	-1.949396	-0.261308	1
H	0.941917	-1.582826	1.113112	1
H	1.128077	-2.085056	-0.564418	1
H	1.820597	0.001284	-1.298288	1
H	2.534457	-0.001166	0.302012	1
H	1.129427	2.086024	-0.558498	1
H	0.942747	1.579014	1.117532	1
H	-1.296763	1.950954	-0.256068	1
H	-1.919933	0.002734	-1.570528	1
Es	1.169006	-0.634350	-0.062508	99
Es	0.024237	1.142549	-0.037063	99
Es	-0.723452	0.002986	-1.515095	99
Es	-2.080538	-0.000457	0.847117	99
Es	-0.871912	-0.487849	-0.802632	99
Es	-1.112762	1.669346	-0.227493	99
Es	-1.113821	-1.667984	-0.232066	99
Es	-0.872648	0.489547	-0.800475	99
Es	-1.329805	-0.000656	0.837062	99
Es	-1.039148	0.579207	0.427721	99
Es	-1.039535	-0.579595	0.426033	99
Es	0.773100	-1.269490	0.076087	99
Es	-1.062844	-0.001754	1.551405	99
Es	-0.722659	1.025363	-0.147345	99
Es	1.012666	-1.826975	-0.362762	99
Es	1.575329	-0.000186	-0.227182	99
Es	2.230567	-0.000869	0.143551	99
Es	1.741751	0.000821	-0.954850	99
Es	0.879298	1.479480	0.794369	99
Es	0.023523	-1.142495	-0.040317	99
Es	0.773949	1.268778	0.079637	99
Es	1.013863	1.827377	-0.357635	99
Es	-1.553574	0.002138	-1.391996	99
Es	-0.959572	0.001772	-1.224521	99
Es	1.169423	0.633732	-0.060677	99
Es	0.878446	-1.482257	0.790251	99
Es	-0.723282	-1.024507	-0.150331	99
45
Properties=species:S:1:pos:R:3:Z:I:1 energy=-288.10608638040776 field_type=dipole dipole="0.000000 0.000000 0.000000" charge=0
C	-1.329823	-0.000656	0.837092	6
C	-0.723273	-1.024636	-0.150248	6
C	0.773127	-1.269526	0.076092	6
C	1.575377	-0.000186	-0.227218	6
C	0.773977	1.268814	0.079642	6
C	-0.722653	1.025494	-0.147258	6
N	-0.959193	0.001774	-1.224988	7
H	-0.943743	-0.002146	1.859782	1
H	-2.426363	-0.000496	0.873562	1
H	-1.297963	-1.949396	-0.261308	1
H	0.941917	-1.582826	1.113112	1
H	1.128077	-2.085056	-0.564418	1
H	1.820597	0.001284	-1.298288	1
H	2.534457	-0.001166	0.302012	1
H	1.129427	2.086024	-0.558498	1
H	0.942747	1.579014	1.117532	1
H	-1.296763	1.950954	-0.256068	1
H	-1.919933	0.002734	-1.570528	1
Es	-2.080402	-0.000490	0.847068	99
Es	-0.722661	1.025367	-0.147343	99
Es	-1.039104	0.579146	0.427461	99
Es	-0.872197	-0.487670	-0.802306	99
Es	1.741605	0.000806	-0.954733	99
Es	0.773949	1.268778	0.079637	99
Es	1.575327	-0.000187	-0.227190	99
Es	1.013837	1.827191	-0.357592	99
Es	0.024180	1.142515	-0.037168	99
Es	1.169321	0.633724	-0.060862	99
Es	-1.039482	-0.579571	0.425837	99
Es	0.878560	-1.482372	0.790325	99
Es	-1.112864	1.669409	-0.227332	99
Es	-1.113927	-1.668078	-0.231934	99
Es	-0.959567	0.001774	-1.224514	99
Es	-0.723281	-1.024506	-0.150331	99
Es	0.023463	-1.142379	-0.040280	99
Es	-1.553665	0.002195	-1.393545	99
Es	1.168999	-0.634324	-0.062680	99
Es	-1.062715	-0.001659	1.551616	99
Es	1.012593	-1.826820	-0.362780	99
Es	-0.871923	0.490282	-0.801121	99
Es	-0.723941	0.001982	-1.513341	99
Es	2.230833	-0.000872	0.143728	99
Es	0.879376	1.479577	0.794513	99
Es	-1.329809	-0.000656	0.837063	99
Es	0.773100	-1.269491	0.076087	99
45
Properties=species:S:1:pos:R:3:Z:I:1 energy=-288.10608638040776 field_type=dipole dipole="0.000000 0.000000 0.000000" charge=0
C	-1.329823	-0.000656	0.837092	6
C	-0.723273	-1.024636	-0.150248	6
C	0.773127	-1.269526	0.076092	6
C	1.575377	-0.000186	-0.227218	6
C	0.773977	1.268814	0.079642	6
C	-0.722653	1.025494	-0.147258	6
N	-0.959193	0.001774	-1.224988	7
H	-0.943743	-0.002146	1.859782	1
H	-2.426363	-0.000496	0.873562	1
H	-1.297963	-1.949396	-0.261308	1
H	0.941917	-1.582826	1.113112	1
H	1.128077	-2.085056	-0.564418	1
H	1.820597	0.001284	-1.298288	1
H	2.534457	-0.001166	0.302012	1
H	1.129427	2.086024	-0.558498	1
H	0.942747	1.579014	1.117532	1
H	-1.296763	1.950954	-0.256068	1
H	-1.919933	0.002734	-1.570528	1
Es	0.773950	1.268779	0.079638	99
Es	0.773100	-1.269492	0.076088	99
Es	-1.553809	0.002370	-1.394146	99
Es	-1.039116	0.579094	0.427161	99
Es	-0.871348	0.490440	-0.801388	99
Es	1.575331	-0.000186	-0.227184	99
Es	1.169152	0.633651	-0.061153	99
Es	2.231083	-0.000872	0.143869	99
Es	-1.329812	-0.000656	0.837062	99
Es	1.741483	0.000763	-0.954549	99
Es	1.168882	-0.634283	-0.062833	99
Es	0.878576	-1.482523	0.790527	99
Es	-0.871874	-0.487976	-0.802531	99
Es	-1.113917	-1.668115	-0.231843	99
Es	0.023457	-1.142387	-0.040360	99
Es	-0.723282	-1.024507	-0.150332	99
Es	-0.959569	0.001771	-1.224509	99
Es	0.879478	1.479636	0.794631	99
Es	1.013741	1.827103	-0.357636	99
Es	-0.724640	0.001994	-1.512417	99
Es	1.012604	-1.826592	-0.362801	99
Es	-1.039550	-0.579569	0.425784	99
Es	-1.062733	-0.001657	1.551888	99
Es	-0.722660	1.025367	-0.147343	99
Es	0.024231	1.142485	-0.036918	99
Es	-1.112911	1.669511	-0.227298	99
Es	-2.080246	-0.000478	0.846877	99
45
Properties=species:S:1:pos:R:3:Z:I:1 energy=-288.10608638040776 field_type=dipole dipole="0.000000 0.000000 0.000000" charge=0
C	-1.329823	-0.000656	0.837092	6
C	-0.723273	-1.024636	-0.150248	6
C	0.773127	-1.269526	0.076092	6
C	1.575377	-0.000186	-0.227218	6
C	0.773977	1.268814	0.079642	6
C	-0.722653	1.025494	-0.147258	6
N	-0.959193	0.001774	-1.224988	7
H	-0.943743	-0.002146	1.859782	1
H	-2.426363	-0.000496	0.873562	1
H	-1.297963	-1.949396	-0.261308	1
H	0.941917	-1.582826	1.113112	1
H	1.128077	-2.085056	-0.564418	1
H	1.820597	0.001284	-1.298288	1
H	2.534457	-0.001166	0.302012	1
H	1.129427	2.086024	-0.558498	1
H	0.942747	1.579014	1.117532	1
H	-1.296763	1.950954	-0.256068	1
H	-1.919933	0.002734	-1.570528	1
Es	-1.329809	-0.000655	0.837064	99
Es	-1.062706	-0.001731	1.552056	99
Es	0.879531	1.479649	0.794786	99
Es	-0.725982	0.002203	-1.511101	99
Es	1.168798	-0.634288	-0.062921	99
Es	-0.723281	-1.024505	-0.150333	99
Es	0.023487	-1.142355	-0.040362	99
Es	1.012616	-1.826561	-0.362801	99
Es	-2.080083	-0.000470	0.846823	99
Es	1.013733	1.826995	-0.357582	99
Es	-0.870794	-0.488402	-0.802732	99
Es	-0.870955	0.490914	-0.801846	99
Es	0.773099	-1.269490	0.076088	99
Es	1.741321	0.000825	-0.954532	99
Es	-0.722663	1.025365	-0.147344	99
Es	-1.039569	-0.579616	0.425566	99
Es	1.169153	0.633686	-0.061212	99
Es	1.575329	-0.000186	-0.227183	99
Es	-1.112830	1.669527	-0.227293	99
Es	2.231256	-0.000899	0.143883	99
Es	-1.039237	0.579201	0.427267	99
Es	-0.959572	0.001773	-1.224519	99
Es	0.024186	1.142427	-0.037084	99
Es	0.878584	-1.482512	0.790631	99
Es	-1.113932	-1.668137	-0.231862	99
Es	-1.554026	0.002135	-1.394810	99
Es	0.773949	1.268778	0.079637	99
45
Properties=species:S:1:pos:R:3:Z:I:1 energy=-288.10608638040776 field_type=dipole dipole="0.000000 0.000000 0.000000" charge=0
C	-1.329823	-0.000656	0.837092	6
C	-0.723273	-1.024636	-0.150248	6
C	0.773127	-1.269526	0.076092	6
C	1.575377	-0.000186	-0.227218	6
C	0.773977	1.268814	0.079642	6
C	-0.722653	1.025494	-0.147258	6
N	-0.959193	0.001774	-1.224988	7
H	-0.943743	-0.002146	1.859782	1
H	-2.426363	-0.000496	0.873562	1
H	-1.297963	-1.949396	-0.261308	1
H	0.941917	-1.582826	1.113112	1
H	1.128077	-2.085056	-0.564418	1
H	1.820597	0.001284	-1.298288	1
H	2.534457	-0.001166	0.302012	1
H	1.129427	2.086024	-0.558498	1
H	0.942747	1.579014	1.117532	1
H	-1.296763	1.950954	-0.256068	1
H	-1.919933	0.002734	-1.570528	1
Es	2.231365	-0.000864	0.143977	99
Es	0.879466	1.479721	0.794884	99
Es	-1.062653	-0.001685	1.552252	99
Es	0.024252	1.142368	-0.037169	99
Es	1.013772	1.826906	-0.357602	99
Es	1.169156	0.633674	-0.061272	99
Es	-0.722661	1.025365	-0.147342	99
Es	-1.039622	-0.579609	0.425445	99
Es	0.773950	1.268778	0.079637	99
Es	1.012586	-1.826528	-0.362746	99
Es	-1.553850	0.002254	-1.395606	99
Es	0.773100	-1.269491	0.076088	99
Es	1.575326	-0.000186	-0.227181	99
Es	-0.725934	0.002084	-1.510367	99
Es	-1.329810	-0.000656	0.837064	99
Es	-1.112924	1.669572	-0.227264	99
Es	-0.959582	0.001772	-1.224526	99
Es	-1.039285	0.579184	0.427066	99
Es	-0.870850	0.490989	-0.801521	99
Es	0.023498	-1.142314	-0.040348	99
Es	-1.113958	-1.668272	-0.231869	99
Es	-0.723281	-1.024507	-0.150332	99
Es	1.168684	-0.634241	-0.063077	99
Es	1.741282	0.000838	-0.954449	99
Es	0.878630	-1.482497	0.790688	99
Es	-2.079916	-0.000480	0.846763	99
Es	-0.871137	-0.488502	-0.802908	99
