46
Properties=species:S:1:pos:R:3:Z:I:1 energy=-325.12256534127937 field_type=dipole dipole="0.000000 0.000000 0.000000" charge=0
C	-1.462119	-2.032670	0.479003	6
C	-0.544879	-1.781530	-0.708457	6
C	0.500311	-0.763541	-0.384147	6
O	0.794631	0.149159	-1.451107	8
C	0.152851	0.701430	-0.291667	6
C	0.996721	1.622639	0.521013	6
N	0.578411	2.998639	0.270933	7
H	-2.185609	-2.818430	0.242823	1
H	-2.017359	-1.126740	0.741313	1
H	-0.890409	-2.341630	1.359383	1
H	-1.147519	-1.466171	-1.569137	1
H	-0.051829	-2.719951	-0.990987	1
H	1.320351	-1.153951	0.201923	1
H	-0.889209	0.987030	-0.351777	1
H	2.059361	1.512379	0.279423	1
H	0.868891	1.396260	1.584073	1
H	0.725921	3.206850	-0.717627	1
H	1.191481	3.630229	0.785013	1
Es	0.234611	-0.067401	-0.113752	99
Es	0.742560	-0.273807	-1.101239	99
Es	0.578974	2.998523	0.270791	99
Es	0.587871	0.098519	-1.677180	99
Es	0.794494	0.149104	-1.450804	99
Es	-0.203105	-2.420314	-0.896965	99
Es	-0.544877	-1.781525	-0.708402	99
Es	0.237484	3.048794	0.360323	99
Es	0.153012	0.701287	-0.291911	99
Es	-1.462094	-2.032667	0.478983	99
Es	-1.838408	-1.412103	0.655002	99
Es	0.500374	-0.763331	-0.384377	99
Es	0.966434	3.371106	0.575312	99
Es	1.093776	0.237729	-1.444062	99
Es	-1.953322	-2.569253	0.317077	99
Es	1.723688	1.532114	0.355075	99
Es	0.579072	1.158113	0.110131	99
Es	0.904785	1.466701	1.247259	99
Es	0.996649	1.622762	0.520981	99
Es	0.782304	2.405636	0.372358	99
Es	-0.552782	0.897753	-0.345387	99
Es	-0.953801	-1.559512	-1.287446	99
Es	-0.025378	-1.264812	-0.544902	99
Es	-0.996993	-1.905205	-0.108379	99
Es	0.687250	3.115272	-0.324565	99
Es	0.539534	0.456871	-1.066390	99
Es	1.068352	-1.026904	0.013087	99
Es	-1.066384	-2.243267	1.078899	99
46
Properties=species:S:1:pos:R:3:Z:I:1 energy=-325.12256534127937 field_type=dipole dipole="0.000000 0.000000 0.000000" charge=0
C	-1.462119	-2.032670	0.479003	6
C	-0.544879	-1.781530	-0.708457	6
C	0.500311	-0.763541	-0.384147	6
O	0.794631	0.149159	-1.451107	8
C	0.152851	0.701430	-0.291667	6
C	0.996721	1.622639	0.521013	6
N	0.578411	2.998639	0.270933	7
H	-2.185609	-2.818430	0.242823	1
H	-2.017359	-1.126740	0.741313	1
H	-0.890409	-2.341630	1.359383	1
H	-1.147519	-1.466171	-1.569137	1
H	-0.051829	-2.719951	-0.990987	1
H	1.320351	-1.153951	0.201923	1
H	-0.889209	0.987030	-0.351777	1
H	2.059361	1.512379	0.279423	1
H	0.868891	1.396260	1.584073	1
H	0.725921	3.206850	-0.717627	1
H	1.191481	3.630229	0.785013	1
Es	-0.544876	-1.781525	-0.708402	99
Es	0.233313	-0.068136	-0.111705	99
Es	-0.551784	0.898335	-0.345855	99
Es	0.904731	1.465672	1.247715	99
Es	-1.839559	-1.410973	0.655671	99
Es	0.794491	0.149108	-1.450790	99
Es	0.540223	0.461686	-1.066512	99
Es	1.722658	1.531877	0.354993	99
Es	-1.951955	-2.568690	0.317312	99
Es	-0.202249	-2.421571	-0.897586	99
Es	0.153012	0.701285	-0.291908	99
Es	1.087640	0.235318	-1.442889	99
Es	0.578942	2.998546	0.270790	99
Es	-0.953256	-1.558780	-1.286613	99
Es	0.686657	3.117122	-0.325298	99
Es	-1.066668	-2.244200	1.078145	99
Es	0.996650	1.622762	0.520983	99
Es	0.500371	-0.763331	-0.384375	99
Es	-1.462094	-2.032667	0.478983	99
Es	0.579679	1.158775	0.109355	99
Es	0.962891	3.372149	0.576602	99
Es	-0.025427	-1.265198	-0.545351	99
Es	0.592012	0.100764	-1.677657	99
Es	0.743819	-0.278333	-1.101772	99
Es	0.781424	2.403764	0.373651	99
Es	-0.997116	-1.905065	-0.108518	99
Es	1.068209	-1.027112	0.012513	99
Es	0.242340	3.048607	0.358036	99
46
Properties=species:S:1:pos:R:3:Z:I:1 energy=-325.12256534127937 field_type=dipole dipole="0.000000 0.000000 0.000000" charge=0
C	-1.462119	-2.032670	0.479003	6
C	-0.544879	-1.781530	-0.708457	6
C	0.500311	-0.763541	-0.384147	6
O	0.794631	0.149159	-1.451107	8
C	0.152851	0.701430	-0.291667	6
C	0.996721	1.622639	0.521013	6
N	0.578411	2.998639	0.270933	7
H	-2.185609	-2.818430	0.242823	1
H	-2.017359	-1.126740	0.741313	1
H	-0.890409	-2.341630	1.359383	1
H	-1.147519	-1.466171	-1.569137	1
H	-0.051829	-2.719951	-0.990987	1
H	1.320351	-1.153951	0.201923	1
H	-0.889209	0.987030	-0.351777	1
H	2.059361	1.512379	0.279423	1
H	0.868891	1.396260	1.584073	1
H	0.725921	3.206850	-0.717627	1
H	1.191481	3.630229	0.785013	1
Es	0.996649	1.622762	0.520983	99
Es	-0.551106	0.898650	-0.346074	99
Es	0.579860	1.159185	0.108732	99
Es	0.744260	-0.280896	-1.102006	99
Es	1.084097	0.233859	-1.442412	99
Es	-0.996948	-1.904921	-0.108514	99
Es	0.595125	0.101742	-1.676836	99
Es	-0.201685	-2.422349	-0.898022	99
Es	-0.953015	-1.558338	-1.285977	99
Es	1.067995	-1.027406	0.011885	99
Es	-1.066912	-2.244448	1.077429	99
Es	1.721754	1.531739	0.354771	99
Es	0.153013	0.701288	-0.291911	99
Es	0.245281	3.048536	0.357604	99
Es	-1.840268	-1.410318	0.656137	99
Es	0.961267	3.372257	0.576879	99
Es	0.540177	0.464926	-1.067576	99
Es	-0.544876	-1.781527	-0.708403	99
Es	-1.951103	-2.568555	0.317754	99
Es	0.794475	0.149103	-1.450811	99
Es	0.905021	1.465104	1.248086	99
Es	0.578982	2.998547	0.270778	99
Es	0.500372	-0.763332	-0.384374	99
Es	0.685641	3.118380	-0.325956	99
Es	0.781047	2.402974	0.374216	99
Es	-1.462095	-2.032667	0.478983	99
Es	-0.025698	-1.265448	-0.545879	99
Es	0.232766	-0.068660	-0.109965	99
46
Properties=species:S:1:pos:R:3:Z:I:1 energy=-325.12256534127937 field_type=dipole dipole="0.000000 0.000000 0.000000" charge=0
C	-1.462119	-2.032670	0.479003	6
C	-0.544879	-1.781530	-0.708457	6
C	0.500311	-0.763541	-0.384147	6
O	0.794631	0.149159	-1.451107	8
C	0.152851	0.701430	-0.291667	6
C	0.996721	1.622639	0.521013	6
N	0.578411	2.998639	0.270933	7
H	-2.185609	-2.818430	0.242823	1
H	-2.017359	-1.126740	0.741313	1
H	-0.890409	-2.341630	1.359383	1
H	-1.147519	-1.466171	-1.569137	1
H	-0.051829	-2.719951	-0.990987	1
H	1.320351	-1.153951	0.201923	1
H	-0.889209	0.987030	-0.351777	1
H	2.059361	1.512379	0.279423	1
H	0.868891	1.396260	1.584073	1
H	0.725921	3.206850	-0.717627	1
H	1.191481	3.630229	0.785013	1
Es	0.959788	3.372479	0.577289	99
Es	0.745245	-0.282296	-1.102103	99
Es	0.247425	3.048336	0.356858	99
Es	0.780693	2.402486	0.374858	99
Es	-1.462095	-2.032668	0.478982	99
Es	1.067832	-1.027529	0.011546	99
Es	0.153020	0.701288	-0.291912	99
Es	-0.201379	-2.422791	-0.898365	99
Es	0.905022	1.464574	1.248243	99
Es	-1.950567	-2.568252	0.317949	99
Es	1.721303	1.531538	0.354545	99
Es	-0.544876	-1.781525	-0.708402	99
Es	0.685277	3.119192	-0.326376	99
Es	0.794294	0.149058	-1.450810	99
Es	-0.952753	-1.558204	-1.285455	99
Es	0.500373	-0.763328	-0.384379	99
Es	0.578988	2.998542	0.270780	99
Es	-0.025754	-1.265491	-0.546270	99
Es	1.080867	0.232474	-1.441696	99
Es	0.579953	1.159729	0.108475	99
Es	0.540523	0.467478	-1.068166	99
Es	0.996649	1.622763	0.520983	99
Es	0.597212	0.102075	-1.677037	99
Es	-1.840668	-1.409943	0.656503	99
Es	0.232355	-0.068876	-0.108919	99
Es	-0.996887	-1.904814	-0.108479	99
Es	-1.067165	-2.244795	1.077016	99
Es	-0.550596	0.898688	-0.346137	99
46
Properties=species:S:1:pos:R:3:Z:I:1 energy=-325.12256534127937 field_type=dipole dipole="0.000000 0.000000 0.000000" charge=0
C	-1.462119	-2.032670	0.479003	6
C	-0.544879	-1.781530	-0.708457	6
C	0.500311	-0.763541	-0.384147	6
O	0.794631	0.149159	-1.451107	8
C	0.152851	0.701430	-0.291667	6
C	0.996721	1.622639	0.521013	6
N	0.578411	2.998639	0.270933	7
H	-2.185609	-2.818430	0.242823	1
H	-2.017359	-1.126740	0.741313	1
H	-0.890409	-2.341630	1.359383	1
H	-1.147519	-1.466171	-1.569137	1
H	-0.051829	-2.719951	-0.990987	1
H	1.320351	-1.153951	0.201923	1
H	-0.889209	0.987030	-0.351777	1
H	2.059361	1.512379	0.279423	1
H	0.868891	1.396260	1.584073	1
H	0.725921	3.206850	-0.717627	1
H	1.191481	3.630229	0.785013	1
Es	-1.067360	-2.245087	1.076636	99
Es	0.794556	0.149124	-1.450714	99
Es	-0.550181	0.898903	-0.346264	99
Es	0.996650	1.622762	0.520981	99
Es	-0.952549	-1.557854	-1.285157	99
Es	0.597815	0.102290	-1.675057	99
Es	-0.996843	-1.904874	-0.108472	99
Es	-0.201092	-2.423069	-0.898671	99
Es	0.746128	-0.283523	-1.102912	99
Es	1.067674	-1.027564	0.011313	99
Es	0.779898	2.401887	0.375578	99
Es	0.957749	3.373301	0.578522	99
Es	0.500372	-0.763331	-0.384377	99
Es	0.578981	2.998545	0.270778	99
Es	0.231955	-0.069263	-0.108028	99
Es	0.249394	3.047919	0.354691	99
Es	1.720941	1.531406	0.354392	99
Es	-1.840954	-1.409598	0.656818	99
Es	-0.025829	-1.265827	-0.546494	99
Es	0.153013	0.701287	-0.291910	99
Es	0.686093	3.119586	-0.326359	99
Es	-1.950152	-2.567993	0.318118	99
Es	0.540601	0.469219	-1.068153	99
Es	-1.462094	-2.032668	0.478983	99
Es	0.580090	1.159997	0.108261	99
Es	-0.544876	-1.781526	-0.708403	99
Es	0.905035	1.464255	1.248414	99
Es	1.079059	0.231882	-1.442995	99
46
Properties=species:S:1:pos:R:3:Z:I:1 energy=-325.12256534127937 field_type=dipole dipole="0.000000 0.000000 0.000000" charge=0
C	-1.462119	-2.032670	0.479003	6
C	-0.544879	-1.781530	-0.708457	6
C	0.500311	-0.763541	-0.384147	6
O	0.794631	0.149159	-1.451107	8
C	0.152851	0.701430	-0.291667	6
C	0.996721	1.622639	0.521013	6
N	0.578411	2.998639	0.270933	7
H	-2.185609	-2.818430	0.242823	1
H	-2.017359	-1.126740	0.741313	1
H	-0.890409	-2.341630	1.359383	1
H	-1.147519	-1.466171	-1.569137	1
H	-0.051829	-2.719951	-0.990987	1
H	1.320351	-1.153951	0.201923	1
H	-0.889209	0.987030	-0.351777	1
H	2.059361	1.512379	0.279423	1
H	0.868891	1.396260	1.584073	1
H	0.725921	3.206850	-0.717627	1
H	1.191481	3.630229	0.785013	1
Es	-0.544876	-1.781525	-0.708401	99
Es	-0.952272	-1.557672	-1.284799	99
Es	0.779068	2.401345	0.376174	99
Es	0.996648	1.622764	0.520982	99
Es	0.905036	1.463826	1.248558	99
Es	0.578985	2.998546	0.270775	99
Es	1.720590	1.531439	0.354289	99
Es	0.251110	3.047984	0.353831	99
Es	-1.067569	-2.245179	1.076217	99
Es	0.231696	-0.069316	-0.107537	99
Es	-1.841149	-1.409335	0.657118	99
Es	1.067593	-1.027614	0.011038	99
Es	-0.200969	-2.423358	-0.898947	99
Es	0.686109	3.120088	-0.326527	99
Es	-1.949857	-2.567912	0.318334	99
Es	0.794486	0.149110	-1.450787	99
Es	0.540318	0.469973	-1.068412	99
Es	0.747016	-0.284582	-1.103283	99
Es	0.500372	-0.763326	-0.384379	99
Es	0.580360	1.160220	0.108059	99
Es	-1.462093	-2.032668	0.478982	99
Es	0.599000	0.102656	-1.675023	99
Es	-0.025863	-1.266057	-0.546750	99
Es	1.077314	0.231835	-1.442341	99
Es	-0.549948	0.899016	-0.346296	99
Es	0.153014	0.701287	-0.291912	99
Es	-0.996825	-1.904782	-0.108405	99
Es	0.956782	3.373426	0.578960	99
46
Properties=species:S:1:pos:R:3:Z:I:1 energy=-325.12256534127937 field_type=dipole dipole="0.000000 0.000000 0.000000" charge=0
C	-1.462119	-2.032670	0.479003	6
C	-0.544879	-1.781530	-0.708457	6
C	0.500311	-0.763541	-0.384147	6
O	0.794631	0.149159	-1.451107	8
C	0.152851	0.701430	-0.291667	6
C	0.996721	1.622639	0.521013	6
N	0.578411	2.998639	0.270933	7
H	-2.185609	-2.818430	0.242823	1
H	-2.017359	-1.126740	0.741313	1
H	-0.890409	-2.341630	1.359383	1
H	-1.147519	-1.466171	-1.569137	1
H	-0.051829	-2.719951	-0.990987	1
H	1.320351	-1.153951	0.201923	1
H	-0.889209	0.987030	-0.351777	1
H	2.059361	1.512379	0.279423	1
H	0.868891	1.396260	1.584073	1
H	0.725921	3.206850	-0.717627	1
H	1.191481	3.630229	0.785013	1
Es	0.601105	0.103335	-1.675695	99
Es	0.955521	3.373730	0.579587	99
Es	0.500372	-0.763330	-0.384378	99
Es	-0.544876	-1.781526	-0.708403	99
Es	1.720415	1.531312	0.354228	99
Es	0.746995	-0.285409	-1.104154	99
Es	0.539907	0.470851	-1.068711	99
Es	0.231394	-0.069462	-0.106797	99
Es	-1.841324	-1.409230	0.657297	99
Es	-1.949622	-2.567827	0.318450	99
Es	-0.549604	0.899034	-0.346397	99
Es	0.578932	2.998549	0.270795	99
Es	-0.025937	-1.266064	-0.546894	99
Es	-0.200717	-2.423478	-0.899116	99
Es	-0.952091	-1.557683	-1.284545	99
Es	1.075546	0.231086	-1.440728	99
Es	-1.067736	-2.245252	1.075995	99
Es	-1.462094	-2.032668	0.478983	99
Es	0.252090	3.047553	0.352862	99
Es	-0.996815	-1.904770	-0.108433	99
Es	0.153011	0.701287	-0.291905	99
Es	0.580336	1.160465	0.107957	99
Es	0.686478	3.120520	-0.326512	99
Es	0.996650	1.622762	0.520982	99
Es	0.779021	2.401169	0.376347	99
Es	1.067466	-1.027613	0.010799	99
Es	0.794637	0.149149	-1.450689	99
Es	0.905015	1.463698	1.248590	99
46
Properties=species:S:1:pos:R:3:Z:I:1 energy=-325.12256534127937 field_type=dipole dipole="0.000000 0.000000 0.000000" charge=0
C	-1.462119	-2.032670	0.479003	6
C	-0.544879	-1.781530	-0.708457	6
C	0.500311	-0.763541	-0.384147	6
O	0.794631	0.149159	-1.451107	8
C	0.152851	0.701430	-0.291667	6
C	0.996721	1.622639	0.521013	6
N	0.578411	2.998639	0.270933	7
H	-2.185609	-2.818430	0.242823	1
H	-2.017359	-1.126740	0.741313	1
H	-0.890409	-2.341630	1.359383	1
H	-1.147519	-1.466171	-1.569137	1
H	-0.051829	-2.719951	-0.990987	1
H	1.320351	-1.153951	0.201923	1
H	-0.889209	0.987030	-0.351777	1
H	2.059361	1.512379	0.279423	1
H	0.868891	1.396260	1.584073	1
H	0.725921	3.206850	-0.717627	1
H	1.191481	3.630229	0.785013	1
Es	-1.949381	-2.567705	0.318601	99
Es	-0.996706	-1.904779	-0.108543	99
Es	0.794480	0.149106	-1.450829	99
Es	0.601804	0.104092	-1.675335	99
Es	1.720181	1.531293	0.354168	99
Es	0.996651	1.622763	0.520979	99
Es	0.580413	1.160589	0.107786	99
Es	-0.200675	-2.423618	-0.899209	99
Es	1.067403	-1.027627	0.010707	99
Es	0.500372	-0.763334	-0.384375	99
Es	0.540778	0.472084	-1.069117	99
Es	0.779166	2.401209	0.376573	99
Es	0.252774	3.046940	0.352023	99
Es	-1.841503	-1.409144	0.657455	99
Es	-0.549347	0.899130	-0.346427	99
Es	1.074341	0.230269	-1.440396	99
Es	-0.951943	-1.557617	-1.284380	99
Es	-1.067959	-2.245309	1.075802	99
Es	0.954333	3.374226	0.580216	99
Es	-0.544876	-1.781527	-0.708404	99
Es	-0.025906	-1.266083	-0.546912	99
Es	0.905034	1.463432	1.248628	99
Es	0.686720	3.120744	-0.326515	99
Es	0.231211	-0.069547	-0.106487	99
Es	0.746786	-0.286550	-1.104341	99
Es	0.579008	2.998533	0.270778	99
Es	-1.462094	-2.032667	0.478983	99
Es	0.153012	0.701286	-0.291909	99
46
Properties=species:S:1:pos:R:3:Z:I:1 energy=-325.12256534127937 field_type=dipole dipole="0.000000 0.000000 0.000000" charge=0
C	-1.462119	-2.032670	0.479003	6
C	-0.544879	-1.781530	-0.708457	6
C	0.500311	-0.763541	-0.384147	6
O	0.794631	0.149159	-1.451107	8
C	0.152851	0.701430	-0.291667	6
C	0.996721	1.622639	0.521013	6
N	0.578411	2.998639	0.270933	7
H	-2.185609	-2.818430	0.242823	1
H	-2.017359	-1.126740	0.741313	1
H	-0.890409	-2.341630	1.359383	1
H	-1.147519	-1.466171	-1.569137	1
H	-0.051829	-2.719951	-0.990987	1
H	1.320351	-1.153951	0.201923	1
H	-0.889209	0.987030	-0.351777	1
H	2.059361	1.512379	0.279423	1
H	0.868891	1.396260	1.584073	1
H	0.725921	3.206850	-0.717627	1
H	1.191481	3.630229	0.785013	1
Es	-0.549247	0.899074	-0.346443	99
Es	-0.544876	-1.781526	-0.708403	99
Es	0.794499	0.149110	-1.450762	99
Es	-0.200540	-2.423744	-0.899419	99
Es	1.072140	0.229779	-1.437463	99
Es	0.253391	3.047276	0.351399	99
Es	0.539967	0.472539	-1.069717	99
Es	0.747110	-0.287021	-1.104728	99
Es	0.604492	0.104608	-1.677416	99
Es	1.720038	1.531118	0.353948	99
Es	-0.951809	-1.557606	-1.284092	99
Es	0.904991	1.463152	1.248701	99
Es	-1.068007	-2.245244	1.075443	99
Es	0.996649	1.622765	0.520981	99
Es	1.067337	-1.027631	0.010575	99
Es	0.153012	0.701293	-0.291912	99
Es	-0.026017	-1.266198	-0.547198	99
Es	0.580488	1.161029	0.107811	99
Es	-1.949408	-2.567805	0.318785	99
Es	0.578985	2.998546	0.270776	99
Es	-0.996744	-1.904722	-0.108402	99
Es	0.231142	-0.069595	-0.106070	99
Es	0.778438	2.400904	0.376842	99
Es	-1.462095	-2.032668	0.478983	99
Es	0.687169	3.120905	-0.326415	99
Es	0.500371	-0.763330	-0.384376	99
Es	-1.841416	-1.408956	0.657673	99
Es	0.954016	3.374137	0.580417	99
46
Properties=species:S:1:pos:R:3:Z:I:1 energy=-325.12256534127937 field_type=dipole dipole="0.000000 0.000000 0.000000" charge=0
C	-1.462119	-2.032670	0.479003	6
C	-0.544879	-1.781530	-0.708457	6
C	0.500311	-0.763541	-0.384147	6
O	0.794631	0.149159	-1.451107	8
C	0.152851	0.701430	-0.291667	6
C	0.996721	1.622639	0.521013	6
N	0.578411	2.998639	0.270933	7
H	-2.185609	-2.818430	0.242823	1
H	-2.017359	-1.126740	0.741313	1
H	-0.890409	-2.341630	1.359383	1
H	-1.147519	-1.466171	-1.569137	1
H	-0.051829	-2.719951	-0.990987	1
H	1.320351	-1.153951	0.201923	1
H	-0.889209	0.987030	-0.351777	1
H	2.059361	1.512379	0.279423	1
H	0.868891	1.396260	1.584073	1
H	0.725921	3.206850	-0.717627	1
H	1.191481	3.630229	0.785013	1
Es	0.539548	0.473310	-1.070412	99
Es	-0.544876	-1.781526	-0.708400	99
Es	0.778241	2.400723	0.377034	99
Es	-0.951705	-1.557580	-1.283949	99
Es	-1.462094	-2.032666	0.478983	99
Es	1.719838	1.531150	0.354035	99
Es	0.687106	3.121283	-0.326573	99
Es	0.578989	2.998551	0.270768	99
Es	0.604291	0.103963	-1.675139	99
Es	0.952832	3.374653	0.581268	99
Es	-1.068117	-2.245523	1.075475	99
Es	0.794479	0.149105	-1.450820	99
Es	0.580610	1.161029	0.107477	99
Es	0.153014	0.701287	-0.291910	99
Es	0.996649	1.622763	0.520982	99
Es	0.500372	-0.763333	-0.384383	99
Es	-1.949175	-2.567499	0.318721	99
Es	-0.200453	-2.423793	-0.899537	99
Es	-0.549092	0.899230	-0.346446	99
Es	1.067275	-1.027683	0.010381	99
Es	-0.026138	-1.266266	-0.547324	99
Es	-1.841589	-1.408926	0.657753	99
Es	0.254896	3.046619	0.350493	99
Es	0.231166	-0.069668	-0.105715	99
Es	1.072703	0.229962	-1.439140	99
Es	0.747144	-0.287261	-1.104513	99
Es	0.904891	1.462971	1.248776	99
Es	-0.996728	-1.904688	-0.108366	99
46
Properties=species:S:1:pos:R:3:Z:I:1 energy=-325.12256534127937 field_type=dipole dipole="0.000000 0.000000 0.000000" charge=0
C	-1.462119	-2.032670	0.479003	6
C	-0.544879	-1.781530	-0.708457	6
C	0.500311	-0.763541	-0.384147	6
O	0.794631	0.149159	-1.451107	8
C	0.152851	0.701430	-0.291667	6
C	0.996721	1.622639	0.521013	6
N	0.578411	2.998639	0.270933	7
H	-2.185609	-2.818430	0.242823	1
H	-2.017359	-1.126740	0.741313	1
H	-0.890409	-2.341630	1.359383	1
H	-1.147519	-1.466171	-1.569137	1
H	-0.051829	-2.719951	-0.990987	1
H	1.320351	-1.153951	0.201923	1
H	-0.889209	0.987030	-0.351777	1
H	2.059361	1.512379	0.279423	1
H	0.868891	1.396260	1.584073	1
H	0.725921	3.206850	-0.717627	1
H	1.191481	3.630229	0.785013	1
Es	0.904927	1.462802	1.248856	99
Es	0.686584	3.121561	-0.326828	99
Es	0.540225	0.473578	-1.069695	99
Es	-0.951575	-1.557371	-1.283896	99
Es	0.601714	0.103479	-1.670803	99
Es	0.748610	-0.287892	-1.104986	99
Es	0.230947	-0.069677	-0.105652	99
Es	-0.200391	-2.423868	-0.899654	99
Es	1.072998	0.230649	-1.443602	99
Es	-1.068168	-2.245586	1.075367	99
Es	0.153013	0.701286	-0.291911	99
Es	0.778390	2.400720	0.377131	99
Es	0.578958	2.998549	0.270786	99
Es	-0.548893	0.899143	-0.346529	99
Es	0.996647	1.622764	0.520980	99
Es	0.794667	0.149164	-1.450976	99
Es	1.067211	-1.027666	0.010415	99
Es	-1.462094	-2.032667	0.478983	99
Es	-0.544876	-1.781526	-0.708402	99
Es	0.951883	3.375205	0.581792	99
Es	-1.949002	-2.567381	0.318837	99
Es	1.719629	1.531150	0.353986	99
Es	0.256213	3.045861	0.350038	99
Es	-0.026151	-1.266447	-0.547297	99
Es	-0.996769	-1.904715	-0.108419	99
Es	0.500373	-0.763330	-0.384378	99
Es	-1.841707	-1.408858	0.657840	99
Es	0.580712	1.161259	0.107535	99
46
Properties=species:S:1:pos:R:3:Z:I:1 energy=-325.12256534127937 field_type=dipole dipole="0.000000 0.000000 0.000000" charge=0
C	-1.462119	-2.032670	0.479003	6
C	-0.544879	-1.781530	-0.708457	6
C	0.500311	-0.763541	-0.384147	6
O	0.794631	0.149159	-1.451107	8
C	0.152851	0.701430	-0.291667	6
C	0.996721	1.622639	0.521013	6
N	0.578411	2.998639	0.270933	7
H	-2.185609	-2.818430	0.242823	1
H	-2.017359	-1.126740	0.741313	1
H	-0.890409	-2.341630	1.359383	1
H	-1.147519	-1.466171	-1.569137	1
H	-0.051829	-2.719951	-0.990987	1
H	1.320351	-1.153951	0.201923	1
H	-0.889209	0.987030	-0.351777	1
H	2.059361	1.512379	0.279423	1
H	0.868891	1.396260	1.584073	1
H	0.725921	3.206850	-0.717627	1
H	1.191481	3.630229	0.785013	1
Es	0.996649	1.622762	0.520983	99
Es	0.602582	0.103907	-1.671518	99
Es	-1.068228	-2.245648	1.075198	99
Es	-0.544876	-1.781526	-0.708402	99
Es	0.951195	3.375205	0.581979	99
Es	0.153013	0.701287	-0.291910	99
Es	0.256866	3.045942	0.349458	99
Es	-0.548822	0.899113	-0.346504	99
Es	1.719570	1.531082	0.353891	99
Es	0.794404	0.149083	-1.450768	99
Es	-0.200446	-2.423961	-0.899789	99
Es	0.230902	-0.069689	-0.105342	99
Es	0.580686	1.161388	0.107533	99
Es	-0.026041	-1.266455	-0.547366	99
Es	-1.841754	-1.408748	0.657972	99
Es	0.748053	-0.288087	-1.105005	99
Es	0.904939	1.462685	1.248826	99
Es	0.778052	2.400444	0.377466	99
Es	0.540553	0.474057	-1.070025	99
Es	0.500374	-0.763330	-0.384379	99
Es	1.072571	0.230076	-1.442808	99
Es	-0.996814	-1.904739	-0.108432	99
Es	0.686904	3.121836	-0.326725	99
Es	-1.948899	-2.567316	0.318914	99
Es	-1.462094	-2.032667	0.478983	99
Es	-0.951454	-1.557305	-1.283735	99
Es	0.578998	2.998540	0.270773	99
Es	1.067195	-1.027749	0.010250	99
46
Properties=species:S:1:pos:R:3:Z:I:1 energy=-325.12256534127937 field_type=dipole dipole="0.000000 0.000000 0.000000" charge=0
C	-1.462119	-2.032670	0.479003	6
C	-0.544879	-1.781530	-0.708457	6
C	0.500311	-0.763541	-0.384147	6
O	0.794631	0.149159	-1.451107	8
C	0.152851	0.701430	-0.291667	6
C	0.996721	1.622639	0.521013	6
N	0.578411	2.998639	0.270933	7
H	-2.185609	-2.818430	0.242823	1
H	-2.017359	-1.126740	0.741313	1
H	-0.890409	-2.341630	1.359383	1
H	-1.147519	-1.466171	-1.569137	1
H	-0.051829	-2.719951	-0.990987	1
H	1.320351	-1.153951	0.201923	1
H	-0.889209	0.987030	-0.351777	1
H	2.059361	1.512379	0.279423	1
H	0.868891	1.396260	1.584073	1
H	0.725921	3.206850	-0.717627	1
H	1.191481	3.630229	0.785013	1
Es	0.256261	3.046220	0.348945	99
Es	0.153007	0.701288	-0.291915	99
Es	-0.996702	-1.904647	-0.108396	99
Es	0.500374	-0.763330	-0.384377	99
Es	0.996649	1.622762	0.520983	99
Es	-0.026190	-1.266374	-0.547443	99
Es	0.580694	1.161542	0.107545	99
Es	0.687932	3.121744	-0.326459	99
Es	-0.544876	-1.781526	-0.708402	99
Es	0.230864	-0.069820	-0.105187	99
Es	1.069639	0.229192	-1.436245	99
Es	-1.948937	-2.567520	0.318972	99
Es	1.067128	-1.027633	0.010283	99
Es	-0.548720	0.899218	-0.346552	99
Es	-0.200299	-2.424012	-0.899827	99
Es	-0.951361	-1.557491	-1.283550	99
Es	0.777870	2.400425	0.377494	99
Es	0.794577	0.149140	-1.450681	99
Es	-1.462095	-2.032667	0.478983	99
Es	0.607064	0.106118	-1.676657	99
Es	0.950946	3.375040	0.582050	99
Es	-1.068417	-2.245482	1.074968	99
Es	0.539567	0.473802	-1.069937	99
Es	0.904720	1.462673	1.248804	99
Es	1.719715	1.530909	0.353840	99
Es	0.747407	-0.289199	-1.106593	99
Es	0.578982	2.998545	0.270775	99
Es	-1.841725	-1.408729	0.658098	99
46
Properties=species:S:1:pos:R:3:Z:I:1 energy=-325.12256534127937 field_type=dipole dipole="0.000000 0.000000 0.000000" charge=0
C	-1.462119	-2.032670	0.479003	6
C	-0.544879	-1.781530	-0.708457	6
C	0.500311	-0.763541	-0.384147	6
O	0.794631	0.149159	-1.451107	8
C	0.152851	0.701430	-0.291667	6
C	0.996721	1.622639	0.521013	6
N	0.578411	2.998639	0.270933	7
H	-2.185609	-2.818430	0.242823	1
H	-2.017359	-1.126740	0.741313	1
H	-0.890409	-2.341630	1.359383	1
H	-1.147519	-1.466171	-1.569137	1
H	-0.051829	-2.719951	-0.990987	1
H	1.320351	-1.153951	0.201923	1
H	-0.889209	0.987030	-0.351777	1
H	2.059361	1.512379	0.279423	1
H	0.868891	1.396260	1.584073	1
H	0.725921	3.206850	-0.717627	1
H	1.191481	3.630229	0.785013	1
Es	-0.951208	-1.557479	-1.283342	99
Es	-1.462093	-2.032667	0.478982	99
Es	-1.068480	-2.245449	1.074762	99
Es	1.069336	0.228883	-1.437489	99
Es	-1.948853	-2.567561	0.319066	99
Es	0.578979	2.998550	0.270776	99
Es	0.951511	3.374469	0.581432	99
Es	1.067057	-1.027565	0.010069	99
Es	1.719579	1.530895	0.353745	99
Es	0.904772	1.462540	1.248832	99
Es	0.580689	1.161755	0.107564	99
Es	0.747880	-0.288751	-1.105588	99
Es	-0.996747	-1.904589	-0.108416	99
Es	0.153011	0.701287	-0.291913	99
Es	0.777597	2.400271	0.377590	99
Es	-0.548629	0.899112	-0.346582	99
Es	0.687022	3.122126	-0.326825	99
Es	0.230799	-0.069918	-0.104852	99
Es	0.256857	3.046609	0.349848	99
Es	0.606240	0.105259	-1.675807	99
Es	-0.544875	-1.781526	-0.708402	99
Es	0.996648	1.622763	0.520982	99
Es	0.794569	0.149129	-1.450729	99
Es	0.500373	-0.763330	-0.384378	99
Es	0.540225	0.474663	-1.070510	99
Es	-0.200250	-2.424151	-0.899950	99
Es	-1.841767	-1.408630	0.658220	99
Es	-0.026166	-1.266508	-0.547566	99
