43
Properties=species:S:1:pos:R:3:Z:I:1 energy=-324.0043240159856 field_type=dipole dipole="0.000000 0.000000 0.000000" charge=0
C	-2.156796	-0.011307	0.229245	6
C	-0.683646	-0.292377	0.077105	6
C	-0.339476	-1.757417	0.065825	6
C	0.189324	0.723643	-0.033425	6
N	1.541574	0.572773	-0.173195	7
C	2.438724	1.600223	-0.285835	6
O	3.644204	1.427173	-0.409015	8
H	-2.377706	1.061273	0.236245	1
H	-2.527906	-0.432787	1.169155	1
H	-2.715416	-0.460007	-0.598665	1
H	-0.861226	-2.258777	-0.756275	1
H	-0.652136	-2.222947	1.006475	1
H	0.727354	-1.956467	-0.057645	1
H	-0.167666	1.752513	-0.013745	1
H	1.958663	-0.348667	-0.200165	1
H	1.982134	2.603153	-0.256085	1
Es	-2.528444	-0.320791	-0.332338	99
Es	0.394335	-1.881111	-0.019111	99
Es	2.438585	1.600107	-0.285820	99
Es	-0.694639	-2.086078	-0.488825	99
Es	3.707610	1.121453	-0.408817	99
Es	3.800541	1.691454	-0.429265	99
Es	3.643826	1.427216	-0.408983	99
Es	-2.401217	-0.302276	0.865422	99
Es	1.582675	0.706848	-0.388148	99
Es	1.892433	0.990125	-0.066767	99
Es	1.776720	0.028355	-0.168365	99
Es	-0.035235	1.425315	-0.021747	99
Es	3.257635	1.493742	-0.119858	99
Es	0.968631	0.640489	-0.077123	99
Es	2.110695	2.278292	-0.262928	99
Es	-0.492500	-1.021963	0.069579	99
Es	-0.553282	-2.062039	0.700795	99
Es	-0.284101	0.206543	-0.311709	99
Es	-2.299965	0.720980	0.233215	99
Es	-0.339469	-1.757372	0.065823	99
Es	-2.156757	-0.011314	0.229241	99
Es	3.208122	1.483496	-0.616904	99
Es	1.541673	0.572951	-0.172624	99
Es	-0.213515	0.218547	0.355024	99
Es	-1.417931	-0.145120	0.152865	99
Es	0.189578	0.723720	-0.033467	99
Es	-0.683710	-0.292465	0.077117	99
43
Properties=species:S:1:pos:R:3:Z:I:1 energy=-324.0043240159856 field_type=dipole dipole="0.000000 0.000000 0.000000" charge=0
C	-2.156796	-0.011307	0.229245	6
C	-0.683646	-0.292377	0.077105	6
C	-0.339476	-1.757417	0.065825	6
C	0.189324	0.723643	-0.033425	6
N	1.541574	0.572773	-0.173195	7
C	2.438724	1.600223	-0.285835	6
O	3.644204	1.427173	-0.409015	8
H	-2.377706	1.061273	0.236245	1
H	-2.527906	-0.432787	1.169155	1
H	-2.715416	-0.460007	-0.598665	1
H	-0.861226	-2.258777	-0.756275	1
H	-0.652136	-2.222947	1.006475	1
H	0.727354	-1.956467	-0.057645	1
H	-0.167666	1.752513	-0.013745	1
H	1.958663	-0.348667	-0.200165	1
H	1.982134	2.603153	-0.256085	1
Es	-0.213074	0.218110	0.356393	99
Es	1.541535	0.572807	-0.173408	99
Es	-2.529387	-0.319928	-0.331910	99
Es	-0.034804	1.423101	-0.022016	99
Es	-1.417103	-0.144891	0.152779	99
Es	-2.300537	0.718352	0.233212	99
Es	-0.283972	0.206486	-0.312498	99
Es	2.110649	2.277667	-0.263644	99
Es	-0.339468	-1.757371	0.065823	99
Es	-0.493471	-1.022342	0.069533	99
Es	1.916396	1.026680	-0.220661	99
Es	3.833816	1.688727	-0.434001	99
Es	2.438580	1.600107	-0.285820	99
Es	3.257435	1.488041	-0.121262	99
Es	1.776801	0.028117	-0.187905	99
Es	-0.695598	-2.085015	-0.488227	99
Es	3.643879	1.427228	-0.408979	99
Es	0.189587	0.723724	-0.033458	99
Es	3.207067	1.477390	-0.613409	99
Es	3.675578	1.137086	-0.405769	99
Es	0.397104	-1.880702	-0.019282	99
Es	-2.156756	-0.011315	0.229241	99
Es	-0.683711	-0.292463	0.077119	99
Es	1.571309	0.670302	-0.177805	99
Es	-0.554529	-2.060981	0.700199	99
Es	0.957179	0.641424	-0.113218	99
Es	-2.402206	-0.301238	0.865253	99
43
Properties=species:S:1:pos:R:3:Z:I:1 energy=-324.0043240159856 field_type=dipole dipole="0.000000 0.000000 0.000000" charge=0
C	-2.156796	-0.011307	0.229245	6
C	-0.683646	-0.292377	0.077105	6
C	-0.339476	-1.757417	0.065825	6
C	0.189324	0.723643	-0.033425	6
N	1.541574	0.572773	-0.173195	7
C	2.438724	1.600223	-0.285835	6
O	3.644204	1.427173	-0.409015	8
H	-2.377706	1.061273	0.236245	1
H	-2.527906	-0.432787	1.169155	1
H	-2.715416	-0.460007	-0.598665	1
H	-0.861226	-2.258777	-0.756275	1
H	-0.652136	-2.222947	1.006475	1
H	0.727354	-1.956467	-0.057645	1
H	-0.167666	1.752513	-0.013745	1
H	1.958663	-0.348667	-0.200165	1
H	1.982134	2.603153	-0.256085	1
Es	-2.156757	-0.011314	0.229241	99
Es	2.110994	2.277190	-0.263634	99
Es	-2.402599	-0.301192	0.864568	99
Es	1.775705	0.030926	-0.187952	99
Es	3.256276	1.481823	-0.123324	99
Es	1.541589	0.572804	-0.172943	99
Es	-0.284021	0.206363	-0.312547	99
Es	-2.301374	0.717476	0.233387	99
Es	-0.212718	0.217918	0.356248	99
Es	-2.529422	-0.319561	-0.331272	99
Es	0.957044	0.639639	-0.113171	99
Es	-0.339469	-1.757371	0.065823	99
Es	3.848143	1.685395	-0.433596	99
Es	-0.034860	1.421946	-0.021919	99
Es	1.571648	0.670440	-0.174735	99
Es	1.917485	1.026142	-0.224261	99
Es	-0.696137	-2.084892	-0.487467	99
Es	-1.416839	-0.145150	0.152786	99
Es	-0.683715	-0.292467	0.077113	99
Es	3.207883	1.474527	-0.611104	99
Es	-0.554828	-2.060216	0.699386	99
Es	3.643857	1.427241	-0.408984	99
Es	0.189587	0.723727	-0.033461	99
Es	2.438579	1.600105	-0.285819	99
Es	3.661566	1.150132	-0.406396	99
Es	-0.493997	-1.022212	0.069635	99
Es	0.398680	-1.880316	-0.019323	99
43
Properties=species:S:1:pos:R:3:Z:I:1 energy=-324.0043240159856 field_type=dipole dipole="0.000000 0.000000 0.000000" charge=0
C	-2.156796	-0.011307	0.229245	6
C	-0.683646	-0.292377	0.077105	6
C	-0.339476	-1.757417	0.065825	6
C	0.189324	0.723643	-0.033425	6
N	1.541574	0.572773	-0.173195	7
C	2.438724	1.600223	-0.285835	6
O	3.644204	1.427173	-0.409015	8
H	-2.377706	1.061273	0.236245	1
H	-2.527906	-0.432787	1.169155	1
H	-2.715416	-0.460007	-0.598665	1
H	-0.861226	-2.258777	-0.756275	1
H	-0.652136	-2.222947	1.006475	1
H	0.727354	-1.956467	-0.057645	1
H	-0.167666	1.752513	-0.013745	1
H	1.958663	-0.348667	-0.200165	1
H	1.982134	2.603153	-0.256085	1
Es	-0.494651	-1.022218	0.069725	99
Es	3.854742	1.683396	-0.435485	99
Es	-0.696273	-2.084736	-0.486689	99
Es	1.918646	1.025921	-0.221400	99
Es	3.643810	1.427224	-0.408968	99
Es	-0.554995	-2.059977	0.698587	99
Es	-0.339470	-1.757373	0.065823	99
Es	-2.529271	-0.319254	-0.330526	99
Es	3.207175	1.468903	-0.609964	99
Es	3.256908	1.478649	-0.124569	99
Es	1.571333	0.670424	-0.177607	99
Es	-2.402902	-0.301283	0.863876	99
Es	-0.283667	0.206149	-0.312160	99
Es	0.399769	-1.879939	-0.019449	99
Es	0.189592	0.723727	-0.033455	99
Es	-0.683718	-0.292469	0.077112	99
Es	-1.416419	-0.145243	0.152660	99
Es	0.957035	0.638297	-0.113340	99
Es	2.438579	1.600106	-0.285817	99
Es	3.654989	1.161376	-0.404495	99
Es	-0.035155	1.421203	-0.021961	99
Es	-0.212681	0.217762	0.355983	99
Es	1.541551	0.572798	-0.173225	99
Es	2.111267	2.276889	-0.263624	99
Es	-2.302178	0.716936	0.233504	99
Es	-2.156760	-0.011314	0.229240	99
Es	1.775040	0.033149	-0.187495	99
43
Properties=species:S:1:pos:R:3:Z:I:1 energy=-324.0043240159856 field_type=dipole dipole="0.000000 0.000000 0.000000" charge=0
C	-2.156796	-0.011307	0.229245	6
C	-0.683646	-0.292377	0.077105	6
C	-0.339476	-1.757417	0.065825	6
C	0.189324	0.723643	-0.033425	6
N	1.541574	0.572773	-0.173195	7
C	2.438724	1.600223	-0.285835	6
O	3.644204	1.427173	-0.409015	8
H	-2.377706	1.061273	0.236245	1
H	-2.527906	-0.432787	1.169155	1
H	-2.715416	-0.460007	-0.598665	1
H	-0.861226	-2.258777	-0.756275	1
H	-0.652136	-2.222947	1.006475	1
H	0.727354	-1.956467	-0.057645	1
H	-0.167666	1.752513	-0.013745	1
H	1.958663	-0.348667	-0.200165	1
H	1.982134	2.603153	-0.256085	1
Es	1.571149	0.670307	-0.178946	99
Es	3.201409	1.465424	-0.605786	99
Es	-0.554864	-2.059491	0.697865	99
Es	3.263433	1.475785	-0.126088	99
Es	3.652064	1.167615	-0.404868	99
Es	-0.283372	0.206005	-0.311808	99
Es	0.400657	-1.879622	-0.019666	99
Es	0.189593	0.723726	-0.033458	99
Es	-0.495049	-1.022191	0.069798	99
Es	-0.339469	-1.757372	0.065823	99
Es	-0.212741	0.217643	0.355612	99
Es	-2.529173	-0.319304	-0.329771	99
Es	0.957063	0.637067	-0.112568	99
Es	-0.683716	-0.292469	0.077116	99
Es	-2.156756	-0.011314	0.229241	99
Es	2.111429	2.276644	-0.263729	99
Es	1.919395	1.025545	-0.221466	99
Es	-2.402888	-0.301250	0.863326	99
Es	-0.696606	-2.084850	-0.485811	99
Es	-1.416166	-0.145285	0.152569	99
Es	3.643812	1.427204	-0.408981	99
Es	2.438579	1.600105	-0.285817	99
Es	1.541663	0.572936	-0.172510	99
Es	-0.035381	1.420582	-0.021968	99
Es	3.856828	1.683865	-0.437686	99
Es	-2.303026	0.716459	0.233492	99
Es	1.774429	0.035341	-0.187632	99
43
Properties=species:S:1:pos:R:3:Z:I:1 energy=-324.0043240159856 field_type=dipole dipole="0.000000 0.000000 0.000000" charge=0
C	-2.156796	-0.011307	0.229245	6
C	-0.683646	-0.292377	0.077105	6
C	-0.339476	-1.757417	0.065825	6
C	0.189324	0.723643	-0.033425	6
N	1.541574	0.572773	-0.173195	7
C	2.438724	1.600223	-0.285835	6
O	3.644204	1.427173	-0.409015	8
H	-2.377706	1.061273	0.236245	1
H	-2.527906	-0.432787	1.169155	1
H	-2.715416	-0.460007	-0.598665	1
H	-0.861226	-2.258777	-0.756275	1
H	-0.652136	-2.222947	1.006475	1
H	0.727354	-1.956467	-0.057645	1
H	-0.167666	1.752513	-0.013745	1
H	1.958663	-0.348667	-0.200165	1
H	1.982134	2.603153	-0.256085	1
Es	-2.402798	-0.301301	0.862394	99
Es	1.919884	1.025261	-0.221640	99
Es	-0.553970	-2.058382	0.696672	99
Es	3.643859	1.427266	-0.408983	99
Es	-0.495487	-1.021946	0.069950	99
Es	-0.035647	1.420074	-0.021963	99
Es	2.438579	1.600105	-0.285814	99
Es	3.247014	1.470267	-0.127039	99
Es	1.774137	0.037182	-0.186342	99
Es	0.401294	-1.879441	-0.019459	99
Es	3.218020	1.463959	-0.607256	99
Es	-0.212779	0.217599	0.355201	99
Es	0.189592	0.723726	-0.033468	99
Es	-0.697420	-2.085908	-0.485001	99
Es	2.111544	2.276497	-0.263768	99
Es	-0.283154	0.205870	-0.311298	99
Es	-2.529121	-0.319324	-0.329295	99
Es	3.649241	1.175242	-0.405191	99
Es	1.541573	0.572809	-0.173028	99
Es	-0.683717	-0.292470	0.077108	99
Es	0.956879	0.636022	-0.114738	99
Es	-1.415925	-0.145478	0.152576	99
Es	-2.303750	0.716282	0.233825	99
Es	-2.156754	-0.011315	0.229241	99
Es	-0.339468	-1.757372	0.065823	99
Es	3.859322	1.683423	-0.434894	99
Es	1.571351	0.670457	-0.177335	99
43
Properties=species:S:1:pos:R:3:Z:I:1 energy=-324.0043240159856 field_type=dipole dipole="0.000000 0.000000 0.000000" charge=0
C	-2.156796	-0.011307	0.229245	6
C	-0.683646	-0.292377	0.077105	6
C	-0.339476	-1.757417	0.065825	6
C	0.189324	0.723643	-0.033425	6
N	1.541574	0.572773	-0.173195	7
C	2.438724	1.600223	-0.285835	6
O	3.644204	1.427173	-0.409015	8
H	-2.377706	1.061273	0.236245	1
H	-2.527906	-0.432787	1.169155	1
H	-2.715416	-0.460007	-0.598665	1
H	-0.861226	-2.258777	-0.756275	1
H	-0.652136	-2.222947	1.006475	1
H	0.727354	-1.956467	-0.057645	1
H	-0.167666	1.752513	-0.013745	1
H	1.958663	-0.348667	-0.200165	1
H	1.982134	2.603153	-0.256085	1
Es	3.643868	1.427242	-0.408981	99
Es	-0.555914	-2.060825	0.698190	99
Es	2.438580	1.600105	-0.285813	99
Es	1.919674	1.025151	-0.225071	99
Es	0.401003	-1.878554	-0.020123	99
Es	-0.339469	-1.757372	0.065823	99
Es	-0.035428	1.419467	-0.021947	99
Es	-0.683716	-0.292469	0.077114	99
Es	1.773202	0.038176	-0.192562	99
Es	3.856085	1.685742	-0.447619	99
Es	0.189593	0.723726	-0.033456	99
Es	2.111629	2.276692	-0.263886	99
Es	3.146287	1.445132	-0.546273	99
Es	-0.212536	0.217399	0.355866	99
Es	-0.495445	-1.022331	0.069793	99
Es	-0.283529	0.206163	-0.312453	99
Es	-2.303526	0.715528	0.233294	99
Es	-2.156758	-0.011314	0.229242	99
Es	-2.527105	-0.317442	-0.329413	99
Es	0.957790	0.635673	-0.106843	99
Es	-2.404863	-0.303154	0.863607	99
Es	3.321275	1.475662	-0.176470	99
Es	3.649853	1.186243	-0.404046	99
Es	-1.415851	-0.145184	0.152906	99
Es	-0.695446	-2.083587	-0.485674	99
Es	1.571486	0.670435	-0.175765	99
Es	1.541557	0.572799	-0.173161	99
43
Properties=species:S:1:pos:R:3:Z:I:1 energy=-324.0043240159856 field_type=dipole dipole="0.000000 0.000000 0.000000" charge=0
C	-2.156796	-0.011307	0.229245	6
C	-0.683646	-0.292377	0.077105	6
C	-0.339476	-1.757417	0.065825	6
C	0.189324	0.723643	-0.033425	6
N	1.541574	0.572773	-0.173195	7
C	2.438724	1.600223	-0.285835	6
O	3.644204	1.427173	-0.409015	8
H	-2.377706	1.061273	0.236245	1
H	-2.527906	-0.432787	1.169155	1
H	-2.715416	-0.460007	-0.598665	1
H	-0.861226	-2.258777	-0.756275	1
H	-0.652136	-2.222947	1.006475	1
H	0.727354	-1.956467	-0.057645	1
H	-0.167666	1.752513	-0.013745	1
H	1.958663	-0.348667	-0.200165	1
H	1.982134	2.603153	-0.256085	1
Es	1.774227	0.038876	-0.183254	99
Es	1.541699	0.573002	-0.172379	99
Es	0.400975	-1.878205	-0.019106	99
Es	3.858068	1.687416	-0.422641	99
Es	-0.698227	-2.086606	-0.486194	99
Es	3.303416	1.470933	-0.532580	99
Es	-0.283669	0.205825	-0.312587	99
Es	-1.416022	-0.145110	0.152307	99
Es	2.111735	2.276968	-0.263660	99
Es	-0.553419	-2.057782	0.697384	99
Es	3.643883	1.427251	-0.408983	99
Es	-0.683717	-0.292469	0.077113	99
Es	1.570977	0.670187	-0.179738	99
Es	-0.035197	1.419240	-0.021811	99
Es	-0.212399	0.217823	0.356723	99
Es	-2.530778	-0.320828	-0.330305	99
Es	3.648029	1.199170	-0.408192	99
Es	-2.303212	0.715186	0.233848	99
Es	0.189596	0.723727	-0.033453	99
Es	-0.339469	-1.757372	0.065823	99
Es	-2.156756	-0.011315	0.229241	99
Es	2.438579	1.600104	-0.285815	99
Es	-0.495252	-1.022446	0.070060	99
Es	0.956479	0.634865	-0.119207	99
Es	1.920316	1.025419	-0.218208	99
Es	-2.401465	-0.299768	0.862880	99
Es	3.163902	1.435012	-0.210984	99
43
Properties=species:S:1:pos:R:3:Z:I:1 energy=-324.0043240159856 field_type=dipole dipole="0.000000 0.000000 0.000000" charge=0
C	-2.156796	-0.011307	0.229245	6
C	-0.683646	-0.292377	0.077105	6
C	-0.339476	-1.757417	0.065825	6
C	0.189324	0.723643	-0.033425	6
N	1.541574	0.572773	-0.173195	7
C	2.438724	1.600223	-0.285835	6
O	3.644204	1.427173	-0.409015	8
H	-2.377706	1.061273	0.236245	1
H	-2.527906	-0.432787	1.169155	1
H	-2.715416	-0.460007	-0.598665	1
H	-0.861226	-2.258777	-0.756275	1
H	-0.652136	-2.222947	1.006475	1
H	0.727354	-1.956467	-0.057645	1
H	-0.167666	1.752513	-0.013745	1
H	1.958663	-0.348667	-0.200165	1
H	1.982134	2.603153	-0.256085	1
Es	3.648363	1.205457	-0.403286	99
Es	-0.695502	-2.083526	-0.486474	99
Es	-0.495254	-1.022664	0.069755	99
Es	2.111788	2.277063	-0.263817	99
Es	-2.403890	-0.302266	0.864404	99
Es	1.773089	0.039411	-0.191210	99
Es	-0.339469	-1.757371	0.065823	99
Es	-1.416037	-0.145021	0.152819	99
Es	-0.035114	1.418802	-0.022070	99
Es	1.571583	0.670333	-0.174588	99
Es	3.127766	1.421722	-0.465630	99
Es	3.643864	1.427257	-0.408981	99
Es	-0.556020	-2.060897	0.698936	99
Es	0.189590	0.723726	-0.033464	99
Es	0.957587	0.634917	-0.108091	99
Es	-2.528145	-0.318363	-0.329985	99
Es	-2.156758	-0.011314	0.229241	99
Es	1.541521	0.572959	-0.174011	99
Es	3.343200	1.476414	-0.257434	99
Es	-0.212605	0.217524	0.356865	99
Es	-0.683716	-0.292468	0.077114	99
Es	0.400815	-1.877596	-0.020037	99
Es	3.854028	1.688879	-0.448097	99
Es	-0.283582	0.206173	-0.313393	99
Es	2.438578	1.600104	-0.285817	99
Es	-2.303229	0.714789	0.233178	99
Es	1.919845	1.025059	-0.225472	99
43
Properties=species:S:1:pos:R:3:Z:I:1 energy=-324.0043240159856 field_type=dipole dipole="0.000000 0.000000 0.000000" charge=0
C	-2.156796	-0.011307	0.229245	6
C	-0.683646	-0.292377	0.077105	6
C	-0.339476	-1.757417	0.065825	6
C	0.189324	0.723643	-0.033425	6
N	1.541574	0.572773	-0.173195	7
C	2.438724	1.600223	-0.285835	6
O	3.644204	1.427173	-0.409015	8
H	-2.377706	1.061273	0.236245	1
H	-2.527906	-0.432787	1.169155	1
H	-2.715416	-0.460007	-0.598665	1
H	-0.861226	-2.258777	-0.756275	1
H	-0.652136	-2.222947	1.006475	1
H	0.727354	-1.956467	-0.057645	1
H	-0.167666	1.752513	-0.013745	1
H	1.958663	-0.348667	-0.200165	1
H	1.982134	2.603153	-0.256085	1
Es	-0.698260	-2.086607	-0.486612	99
Es	0.400800	-1.877463	-0.019248	99
Es	3.646148	1.212828	-0.406210	99
Es	0.189593	0.723726	-0.033456	99
Es	-0.339475	-1.757377	0.065819	99
Es	3.856454	1.689614	-0.427504	99
Es	1.571081	0.670398	-0.179969	99
Es	-1.416095	-0.145078	0.152341	99
Es	1.920482	1.025206	-0.219574	99
Es	2.111838	2.277219	-0.263698	99
Es	-2.529886	-0.319616	-0.330932	99
Es	-2.302927	0.714516	0.233930	99
Es	2.438578	1.600103	-0.285819	99
Es	-2.156757	-0.011315	0.229241	99
Es	1.541567	0.572792	-0.173122	99
Es	-0.495178	-1.022610	0.069914	99
Es	-0.212191	0.217795	0.357488	99
Es	-0.034977	1.418570	-0.021848	99
Es	3.643890	1.427246	-0.408984	99
Es	-0.553416	-2.057803	0.698069	99
Es	0.956693	0.634422	-0.115725	99
Es	-0.683716	-0.292468	0.077116	99
Es	-2.402489	-0.300912	0.863707	99
Es	3.329520	1.472979	-0.457258	99
Es	1.773829	0.040028	-0.184526	99
Es	3.141157	1.416953	-0.283400	99
Es	-0.283969	0.205957	-0.313456	99
43
Properties=species:S:1:pos:R:3:Z:I:1 energy=-324.0043240159856 field_type=dipole dipole="0.000000 0.000000 0.000000" charge=0
C	-2.156796	-0.011307	0.229245	6
C	-0.683646	-0.292377	0.077105	6
C	-0.339476	-1.757417	0.065825	6
C	0.189324	0.723643	-0.033425	6
N	1.541574	0.572773	-0.173195	7
C	2.438724	1.600223	-0.285835	6
O	3.644204	1.427173	-0.409015	8
H	-2.377706	1.061273	0.236245	1
H	-2.527906	-0.432787	1.169155	1
H	-2.715416	-0.460007	-0.598665	1
H	-0.861226	-2.258777	-0.756275	1
H	-0.652136	-2.222947	1.006475	1
H	0.727354	-1.956467	-0.057645	1
H	-0.167666	1.752513	-0.013745	1
H	1.958663	-0.348667	-0.200165	1
H	1.982134	2.603153	-0.256085	1
Es	-0.683716	-0.292468	0.077114	99
Es	-0.697374	-2.085667	-0.486787	99
Es	-2.402552	-0.300855	0.864158	99
Es	3.643881	1.427244	-0.408983	99
Es	1.773529	0.040613	-0.186687	99
Es	1.920311	1.025179	-0.221673	99
Es	-2.529764	-0.319685	-0.330773	99
Es	2.438578	1.600104	-0.285822	99
Es	-0.339469	-1.757375	0.065826	99
Es	0.956916	0.634142	-0.113761	99
Es	3.855281	1.690439	-0.433660	99
Es	3.645939	1.215640	-0.405335	99
Es	-0.495295	-1.022728	0.069853	99
Es	-0.284042	0.206085	-0.313911	99
Es	0.400812	-1.877006	-0.019531	99
Es	3.340106	1.474558	-0.400374	99
Es	-0.212172	0.217692	0.357611	99
Es	0.189592	0.723726	-0.033455	99
Es	-0.554222	-2.058807	0.698648	99
Es	-2.156755	-0.011312	0.229240	99
Es	1.571331	0.670470	-0.177594	99
Es	3.131905	1.411685	-0.334932	99
Es	-1.416047	-0.145005	0.152622	99
Es	-2.302980	0.714177	0.233576	99
Es	-0.034938	1.418165	-0.021857	99
Es	2.111907	2.277288	-0.263848	99
Es	1.541535	0.572805	-0.173385	99
43
Properties=species:S:1:pos:R:3:Z:I:1 energy=-324.0043240159856 field_type=dipole dipole="0.000000 0.000000 0.000000" charge=0
C	-2.156796	-0.011307	0.229245	6
C	-0.683646	-0.292377	0.077105	6
C	-0.339476	-1.757417	0.065825	6
C	0.189324	0.723643	-0.033425	6
N	1.541574	0.572773	-0.173195	7
C	2.438724	1.600223	-0.285835	6
O	3.644204	1.427173	-0.409015	8
H	-2.377706	1.061273	0.236245	1
H	-2.527906	-0.432787	1.169155	1
H	-2.715416	-0.460007	-0.598665	1
H	-0.861226	-2.258777	-0.756275	1
H	-0.652136	-2.222947	1.006475	1
H	0.727354	-1.956467	-0.057645	1
H	-0.167666	1.752513	-0.013745	1
H	1.958663	-0.348667	-0.200165	1
H	1.982134	2.603153	-0.256085	1
Es	2.438579	1.600103	-0.285819	99
Es	3.642330	1.223958	-0.406775	99
Es	1.773504	0.040597	-0.186145	99
Es	3.643931	1.427197	-0.408994	99
Es	-0.697968	-2.086230	-0.486230	99
Es	-0.683717	-0.292468	0.077114	99
Es	2.111899	2.277206	-0.263898	99
Es	0.189593	0.723726	-0.033456	99
Es	-0.035223	1.418275	-0.021994	99
Es	-2.402182	-0.300624	0.863576	99
Es	0.956874	0.634277	-0.114906	99
Es	-2.303402	0.714403	0.233664	99
Es	-0.283889	0.205899	-0.313124	99
Es	-0.553647	-2.058183	0.697860	99
Es	-0.339469	-1.757371	0.065824	99
Es	1.920462	1.025166	-0.220725	99
Es	-0.495445	-1.022734	0.070029	99
Es	3.336774	1.474201	-0.420478	99
Es	-0.212108	0.217676	0.357107	99
Es	-2.156758	-0.011316	0.229242	99
Es	0.401144	-1.877201	-0.019495	99
Es	-2.529947	-0.320090	-0.330365	99
Es	1.571274	0.670474	-0.178061	99
Es	3.857116	1.688788	-0.432436	99
Es	3.136964	1.405528	-0.314522	99
Es	1.541556	0.572799	-0.173174	99
Es	-1.415945	-0.144951	0.152462	99
43
Properties=species:S:1:pos:R:3:Z:I:1 energy=-324.0043240159856 field_type=dipole dipole="0.000000 0.000000 0.000000" charge=0
C	-2.156796	-0.011307	0.229245	6
C	-0.683646	-0.292377	0.077105	6
C	-0.339476	-1.757417	0.065825	6
C	0.189324	0.723643	-0.033425	6
N	1.541574	0.572773	-0.173195	7
C	2.438724	1.600223	-0.285835	6
O	3.644204	1.427173	-0.409015	8
H	-2.377706	1.061273	0.236245	1
H	-2.527906	-0.432787	1.169155	1
H	-2.715416	-0.460007	-0.598665	1
H	-0.861226	-2.258777	-0.756275	1
H	-0.652136	-2.222947	1.006475	1
H	0.727354	-1.956467	-0.057645	1
H	-0.167666	1.752513	-0.013745	1
H	1.958663	-0.348667	-0.200165	1
H	1.982134	2.603153	-0.256085	1
Es	3.643956	1.427171	-0.408978	99
Es	2.438578	1.600103	-0.285819	99
Es	-2.529300	-0.319574	-0.330207	99
Es	-0.035268	1.418042	-0.021933	99
Es	-0.554033	-2.058587	0.697773	99
Es	-2.402725	-0.301224	0.863506	99
Es	1.920517	1.025072	-0.221417	99
Es	3.642188	1.226523	-0.405567	99
Es	1.571248	0.670372	-0.178199	99
Es	0.401307	-1.876991	-0.019490	99
Es	-0.283548	0.205932	-0.313080	99
Es	-0.212475	0.217674	0.357016	99
Es	-2.156756	-0.011315	0.229242	99
Es	-0.339474	-1.757376	0.065819	99
Es	-0.683717	-0.292470	0.077116	99
Es	1.541518	0.572877	-0.173791	99
Es	1.773389	0.041364	-0.186056	99
Es	2.111922	2.277108	-0.263717	99
Es	-0.495599	-1.022705	0.069967	99
Es	0.957035	0.633839	-0.113683	99
Es	3.134489	1.401866	-0.335611	99
Es	-1.415890	-0.145015	0.152539	99
Es	0.189590	0.723727	-0.033458	99
Es	3.340230	1.474639	-0.399183	99
Es	-0.697469	-2.085904	-0.486120	99
Es	3.856226	1.689590	-0.434043	99
Es	-2.303641	0.714364	0.233655	99
43
Properties=species:S:1:pos:R:3:Z:I:1 energy=-324.0043240159856 field_type=dipole dipole="0.000000 0.000000 0.000000" charge=0
C	-2.156796	-0.011307	0.229245	6
C	-0.683646	-0.292377	0.077105	6
C	-0.339476	-1.757417	0.065825	6
C	0.189324	0.723643	-0.033425	6
N	1.541574	0.572773	-0.173195	7
C	2.438724	1.600223	-0.285835	6
O	3.644204	1.427173	-0.409015	8
H	-2.377706	1.061273	0.236245	1
H	-2.527906	-0.432787	1.169155	1
H	-2.715416	-0.460007	-0.598665	1
H	-0.861226	-2.258777	-0.756275	1
H	-0.652136	-2.222947	1.006475	1
H	0.727354	-1.956467	-0.057645	1
H	-0.167666	1.752513	-0.013745	1
H	1.958663	-0.348667	-0.200165	1
H	1.982134	2.603153	-0.256085	1
Es	2.111945	2.277059	-0.263826	99
Es	-0.283475	0.205903	-0.312910	99
Es	-0.339469	-1.757371	0.065825	99
Es	-0.035364	1.418064	-0.021916	99
Es	1.571251	0.670444	-0.178237	99
Es	-0.212456	0.217583	0.356707	99
Es	1.773216	0.042079	-0.187315	99
Es	-0.495688	-1.022642	0.069988	99
Es	-2.303954	0.714497	0.233663	99
Es	-1.415759	-0.145101	0.152551	99
Es	0.189592	0.723727	-0.033454	99
Es	-0.553753	-2.058326	0.697535	99
Es	3.133772	1.398208	-0.348986	99
Es	-2.528590	-0.318983	-0.329828	99
Es	0.957130	0.633140	-0.113019	99
Es	-0.697734	-2.086132	-0.485767	99
Es	0.401431	-1.877058	-0.019620	99
Es	3.342067	1.474922	-0.384725	99
Es	2.438578	1.600103	-0.285822	99
Es	3.856517	1.689056	-0.436393	99
Es	3.640842	1.230391	-0.404203	99
Es	1.920483	1.025090	-0.221810	99
Es	-0.683717	-0.292468	0.077104	99
Es	1.541607	0.572850	-0.172780	99
Es	-2.403301	-0.301879	0.863260	99
Es	3.643881	1.427265	-0.408982	99
Es	-2.156756	-0.011317	0.229241	99
43
Properties=species:S:1:pos:R:3:Z:I:1 energy=-324.0043240159856 field_type=dipole dipole="0.000000 0.000000 0.000000" charge=0
C	-2.156796	-0.011307	0.229245	6
C	-0.683646	-0.292377	0.077105	6
C	-0.339476	-1.757417	0.065825	6
C	0.189324	0.723643	-0.033425	6
N	1.541574	0.572773	-0.173195	7
C	2.438724	1.600223	-0.285835	6
O	3.644204	1.427173	-0.409015	8
H	-2.377706	1.061273	0.236245	1
H	-2.527906	-0.432787	1.169155	1
H	-2.715416	-0.460007	-0.598665	1
H	-0.861226	-2.258777	-0.756275	1
H	-0.652136	-2.222947	1.006475	1
H	0.727354	-1.956467	-0.057645	1
H	-0.167666	1.752513	-0.013745	1
H	1.958663	-0.348667	-0.200165	1
H	1.982134	2.603153	-0.256085	1
Es	-0.283261	0.205822	-0.312535	99
Es	-0.212630	0.217629	0.356350	99
Es	3.857184	1.688418	-0.436386	99
Es	-0.698647	-2.087287	-0.485022	99
Es	3.643891	1.427243	-0.408987	99
Es	-2.403393	-0.301986	0.863028	99
Es	-0.339470	-1.757373	0.065825	99
Es	3.135170	1.393137	-0.350679	99
Es	-0.035522	1.418143	-0.022081	99
Es	1.571320	0.670442	-0.177699	99
Es	0.401618	-1.877074	-0.019694	99
Es	1.541526	0.572827	-0.173558	99
Es	-2.304246	0.714560	0.233606	99
Es	-0.495827	-1.022555	0.070086	99
Es	1.920545	1.024931	-0.222893	99
Es	3.342469	1.475044	-0.380979	99
Es	-0.683716	-0.292469	0.077112	99
Es	1.773161	0.042300	-0.186016	99
Es	2.111941	2.277042	-0.263853	99
Es	0.957178	0.633093	-0.112991	99
Es	-2.156757	-0.011315	0.229242	99
Es	0.189590	0.723728	-0.033455	99
Es	-2.528364	-0.318950	-0.329510	99
Es	-0.552705	-2.057220	0.696896	99
Es	-1.415692	-0.145156	0.152578	99
Es	2.438579	1.600103	-0.285817	99
Es	3.638357	1.236025	-0.406290	99
