46
Properties=species:S:1:pos:R:3:Z:I:1 energy=-325.09839089317956 field_type=dipole dipole="0.000000 0.000000 0.000000" charge=0
C	-1.844018	-0.453233	-0.153067	6
C	-0.316688	-0.334323	-0.086197	6
C	0.213022	-1.268313	1.007913	6
C	0.275672	-0.687153	-1.455387	6
O	-0.048558	1.041137	0.244333	8
N	1.332612	1.277077	0.339093	7
C	1.517172	2.518747	0.630443	6
H	-2.255868	0.231697	-0.903437	1
H	-2.299028	-0.172593	0.803973	1
H	-2.161988	-1.471093	-0.402117	1
H	-0.161628	-0.965973	1.992503	1
H	1.306712	-1.237873	1.066393	1
H	-0.083298	-2.306943	0.825953	1
H	-0.058618	0.024487	-2.219046	1
H	-0.013118	-1.696143	-1.768887	1
H	1.370362	-0.641033	-1.442807	1
H	2.539302	2.908677	0.750413	1
H	0.687952	3.232857	0.769923	1
Es	-0.316648	-0.334116	-0.086147	99
Es	-0.109718	0.522735	0.118809	99
Es	2.201614	2.779926	0.710890	99
Es	-2.148730	-0.267955	0.501192	99
Es	-2.119146	0.009066	-0.668654	99
Es	1.409730	1.771054	0.753170	99
Es	-0.050720	-1.062162	1.674067	99
Es	-1.085987	-0.389904	-0.118893	99
Es	0.003920	-1.973193	0.874695	99
Es	0.039241	-0.204064	-1.971876	99
Es	0.213006	-1.268315	1.007896	99
Es	-0.138051	1.222151	0.007310	99
Es	1.332177	1.277537	0.339183	99
Es	1.014771	-0.660643	-1.442140	99
Es	-1.843998	-0.453240	-0.153069	99
Es	-0.043245	-0.806049	0.465830	99
Es	1.565863	0.987808	0.279582	99
Es	0.564041	1.134625	0.282953	99
Es	-0.011630	-0.513031	-0.777027	99
Es	-0.145697	1.090256	0.532799	99
Es	-0.048402	1.040976	0.244298	99
Es	1.517199	2.518764	0.630449	99
Es	1.426840	1.901289	0.187213	99
Es	0.071287	-1.376194	-1.659874	99
Es	0.964505	2.999732	0.724621	99
Es	-2.048645	-1.149196	-0.323051	99
Es	0.275654	-0.687162	-1.455374	99
Es	0.951685	-1.249853	1.041175	99
46
Properties=species:S:1:pos:R:3:Z:I:1 energy=-325.09839089317956 field_type=dipole dipole="0.000000 0.000000 0.000000" charge=0
C	-1.844018	-0.453233	-0.153067	6
C	-0.316688	-0.334323	-0.086197	6
C	0.213022	-1.268313	1.007913	6
C	0.275672	-0.687153	-1.455387	6
O	-0.048558	1.041137	0.244333	8
N	1.332612	1.277077	0.339093	7
C	1.517172	2.518747	0.630443	6
H	-2.255868	0.231697	-0.903437	1
H	-2.299028	-0.172593	0.803973	1
H	-2.161988	-1.471093	-0.402117	1
H	-0.161628	-0.965973	1.992503	1
H	1.306712	-1.237873	1.066393	1
H	-0.083298	-2.306943	0.825953	1
H	-0.058618	0.024487	-2.219046	1
H	-0.013118	-1.696143	-1.768887	1
H	1.370362	-0.641033	-1.442807	1
H	2.539302	2.908677	0.750413	1
H	0.687952	3.232857	0.769923	1
Es	2.202253	2.780637	0.711063	99
Es	-2.050807	-1.152190	-0.323777	99
Es	0.213005	-1.268314	1.007896	99
Es	-0.146982	1.096133	0.526220	99
Es	0.964789	2.998837	0.724468	99
Es	1.425728	1.901678	0.188101	99
Es	-2.147614	-0.266685	0.498761	99
Es	1.566716	0.989198	0.279706	99
Es	0.069504	-1.379226	-1.661097	99
Es	-2.118165	0.009022	-0.665891	99
Es	0.564801	1.135704	0.283461	99
Es	-0.048254	1.040880	0.244114	99
Es	1.517199	2.518771	0.630449	99
Es	-0.049642	-1.061021	1.671622	99
Es	0.275655	-0.687159	-1.455370	99
Es	0.040224	-0.204106	-1.969056	99
Es	1.408945	1.771639	0.752622	99
Es	-0.316648	-0.334109	-0.086146	99
Es	1.332158	1.277533	0.339184	99
Es	-0.113132	0.518987	0.119698	99
Es	-0.010606	-0.512152	-0.778027	99
Es	0.002194	-1.976347	0.874392	99
Es	1.014525	-0.658625	-1.441696	99
Es	-0.133632	1.217594	0.012380	99
Es	-1.843999	-0.453239	-0.153071	99
Es	0.951542	-1.247793	1.041589	99
Es	-0.042398	-0.805826	0.467154	99
Es	-1.086442	-0.388975	-0.118724	99
46
Properties=species:S:1:pos:R:3:Z:I:1 energy=-325.09839089317956 field_type=dipole dipole="0.000000 0.000000 0.000000" charge=0
C	-1.844018	-0.453233	-0.153067	6
C	-0.316688	-0.334323	-0.086197	6
C	0.213022	-1.268313	1.007913	6
C	0.275672	-0.687153	-1.455387	6
O	-0.048558	1.041137	0.244333	8
N	1.332612	1.277077	0.339093	7
C	1.517172	2.518747	0.630443	6
H	-2.255868	0.231697	-0.903437	1
H	-2.299028	-0.172593	0.803973	1
H	-2.161988	-1.471093	-0.402117	1
H	-0.161628	-0.965973	1.992503	1
H	1.306712	-1.237873	1.066393	1
H	-0.083298	-2.306943	0.825953	1
H	-0.058618	0.024487	-2.219046	1
H	-0.013118	-1.696143	-1.768887	1
H	1.370362	-0.641033	-1.442807	1
H	2.539302	2.908677	0.750413	1
H	0.687952	3.232857	0.769923	1
Es	1.425233	1.901875	0.188436	99
Es	-2.052152	-1.153779	-0.324140	99
Es	-0.041942	-0.805579	0.468093	99
Es	0.965026	2.998166	0.724183	99
Es	0.068585	-1.380702	-1.661524	99
Es	1.014419	-0.657350	-1.441404	99
Es	0.275654	-0.687162	-1.455374	99
Es	-0.010051	-0.511685	-0.778748	99
Es	0.213005	-1.268314	1.007896	99
Es	0.001103	-1.978004	0.874277	99
Es	-1.086779	-0.388376	-0.118423	99
Es	2.202551	2.781252	0.711132	99
Es	-0.048746	-1.060577	1.669992	99
Es	-0.148672	1.099958	0.521230	99
Es	1.517199	2.518773	0.630442	99
Es	-0.316646	-0.334113	-0.086147	99
Es	-0.129914	1.213712	0.014813	99
Es	-0.048297	1.040850	0.244324	99
Es	0.565196	1.136720	0.284736	99
Es	0.951287	-1.246598	1.041793	99
Es	0.040693	-0.204465	-1.967491	99
Es	-0.115066	0.517274	0.120576	99
Es	-2.117449	0.008877	-0.664167	99
Es	-1.843997	-0.453238	-0.153073	99
Es	1.408510	1.771866	0.752634	99
Es	1.566936	0.989993	0.279842	99
Es	1.332161	1.277542	0.339184	99
Es	-2.146932	-0.266073	0.496932	99
