45
Properties=species:S:1:pos:R:3:Z:I:1 energy=-288.11463554645337 field_type=dipole dipole="0.000000 0.000000 0.000000" charge=0
C	2.034908	0.186307	-0.654106	6
N	1.951318	-0.033483	0.782954	7
C	0.695698	0.052717	0.035194	6
C	-0.187962	1.256107	0.249404	6
C	-1.592992	0.740547	-0.070836	6
C	-1.537232	-0.732063	0.321314	6
C	-0.154312	-1.175873	-0.156956	6
H	2.368528	1.170117	-0.961266	1
H	2.408728	-0.637183	-1.249756	1
H	2.176168	-1.001223	1.019444	1
H	-0.138842	1.586907	1.293314	1
H	0.076448	2.099207	-0.396866	1
H	-2.369922	1.291547	0.466624	1
H	-1.789492	0.831147	-1.145946	1
H	-2.342082	-1.320223	-0.128196	1
H	-1.606162	-0.829423	1.411664	1
H	-0.191842	-1.438873	-1.220446	1
H	0.199038	-2.046263	0.404464	1
Es	-0.896546	1.017796	0.087019	99
Es	-0.848737	-0.979099	0.081506	99
Es	0.695928	0.052701	0.035269	99
Es	0.099064	-1.769183	0.226869	99
Es	2.263715	0.856709	-0.866629	99
Es	2.287669	-0.379827	-1.063327	99
Es	0.294440	-0.578982	-0.058112	99
Es	-1.537204	-0.732053	0.321305	99
Es	2.076313	-0.625669	0.905360	99
Es	-0.180142	-1.353455	-0.884690	99
Es	2.129510	0.045163	0.160404	99
Es	1.951138	-0.033876	0.782513	99
Es	1.271727	0.152002	-0.516984	99
Es	-2.126512	1.118638	0.296751	99
Es	1.335844	-0.036686	0.580587	99
Es	2.034861	0.186255	-0.653869	99
Es	-1.579084	-0.795848	1.070248	99
Es	-0.156026	1.475531	0.959809	99
Es	-2.089886	-1.136843	0.013673	99
Es	-0.002074	1.831102	-0.192197	99
Es	-1.592966	0.740530	-0.070829	99
Es	2.042494	0.233537	1.010016	99
Es	-1.724062	0.798194	-0.811664	99
Es	-1.591183	0.002096	0.126822	99
Es	-0.154322	-1.175849	-0.156945	99
Es	0.274566	0.665993	0.144034	99
Es	-0.187982	1.256072	0.249383	99
45
Properties=species:S:1:pos:R:3:Z:I:1 energy=-288.11463554645337 field_type=dipole dipole="0.000000 0.000000 0.000000" charge=0
C	2.034908	0.186307	-0.654106	6
N	1.951318	-0.033483	0.782954	7
C	0.695698	0.052717	0.035194	6
C	-0.187962	1.256107	0.249404	6
C	-1.592992	0.740547	-0.070836	6
C	-1.537232	-0.732063	0.321314	6
C	-0.154312	-1.175873	-0.156956	6
H	2.368528	1.170117	-0.961266	1
H	2.408728	-0.637183	-1.249756	1
H	2.176168	-1.001223	1.019444	1
H	-0.138842	1.586907	1.293314	1
H	0.076448	2.099207	-0.396866	1
H	-2.369922	1.291547	0.466624	1
H	-1.789492	0.831147	-1.145946	1
H	-2.342082	-1.320223	-0.128196	1
H	-1.606162	-0.829423	1.411664	1
H	-0.191842	-1.438873	-1.220446	1
H	0.199038	-2.046263	0.404464	1
Es	2.287935	-0.379147	-1.062769	99
Es	0.099658	-1.768750	0.226786	99
Es	-0.154322	-1.175850	-0.156945	99
Es	-1.591111	0.002078	0.126610	99
Es	-0.187982	1.256071	0.249381	99
Es	-1.579884	-0.795617	1.071381	99
Es	0.274172	0.665595	0.144418	99
Es	-1.724300	0.797740	-0.812490	99
Es	2.077604	-0.624163	0.907561	99
Es	-2.126697	1.118189	0.297280	99
Es	1.333616	-0.036769	0.583450	99
Es	2.034857	0.186257	-0.653878	99
Es	-1.537204	-0.732055	0.321299	99
Es	0.294220	-0.579042	-0.057496	99
Es	-0.001738	1.831112	-0.192412	99
Es	-0.155758	1.475291	0.959806	99
Es	-0.179519	-1.353212	-0.884956	99
Es	-0.896674	1.017180	0.087395	99
Es	2.263861	0.856117	-0.866657	99
Es	-0.849027	-0.978746	0.081277	99
Es	1.951135	-0.033870	0.782507	99
Es	2.132448	0.046763	0.159232	99
Es	1.271144	0.152031	-0.519263	99
Es	-2.089447	-1.135766	0.013432	99
Es	-1.592966	0.740531	-0.070829	99
Es	2.040590	0.230284	1.006932	99
Es	0.695930	0.052700	0.035269	99
45
Properties=species:S:1:pos:R:3:Z:I:1 energy=-288.11463554645337 field_type=dipole dipole="0.000000 0.000000 0.000000" charge=0
C	2.034908	0.186307	-0.654106	6
N	1.951318	-0.033483	0.782954	7
C	0.695698	0.052717	0.035194	6
C	-0.187962	1.256107	0.249404	6
C	-1.592992	0.740547	-0.070836	6
C	-1.537232	-0.732063	0.321314	6
C	-0.154312	-1.175873	-0.156956	6
H	2.368528	1.170117	-0.961266	1
H	2.408728	-0.637183	-1.249756	1
H	2.176168	-1.001223	1.019444	1
H	-0.138842	1.586907	1.293314	1
H	0.076448	2.099207	-0.396866	1
H	-2.369922	1.291547	0.466624	1
H	-1.789492	0.831147	-1.145946	1
H	-2.342082	-1.320223	-0.128196	1
H	-1.606162	-0.829423	1.411664	1
H	-0.191842	-1.438873	-1.220446	1
H	0.199038	-2.046263	0.404464	1
Es	-0.001457	1.831124	-0.192558	99
Es	-0.849133	-0.978441	0.081010	99
Es	2.034864	0.186255	-0.653867	99
Es	2.287915	-0.378586	-1.062340	99
Es	1.270683	0.151930	-0.520884	99
Es	-1.537202	-0.732053	0.321298	99
Es	2.077579	-0.623650	0.908431	99
Es	-0.896729	1.016754	0.087692	99
Es	1.331907	-0.035316	0.585701	99
Es	2.039643	0.226341	1.004515	99
Es	-0.179049	-1.353020	-0.885296	99
Es	1.951149	-0.033877	0.782536	99
Es	0.273811	0.665351	0.144639	99
Es	-0.155600	1.475055	0.959879	99
Es	-1.580341	-0.795494	1.072068	99
Es	2.263973	0.855786	-0.866765	99
Es	0.695932	0.052700	0.035269	99
Es	0.100054	-1.768395	0.226827	99
Es	2.135377	0.048486	0.159150	99
Es	-1.724415	0.797580	-0.813026	99
Es	0.293973	-0.579099	-0.056989	99
Es	-1.591034	0.002006	0.126440	99
Es	-1.592967	0.740529	-0.070828	99
Es	-0.187982	1.256072	0.249382	99
Es	-2.089239	-1.135008	0.013280	99
Es	-2.126851	1.117770	0.297702	99
Es	-0.154323	-1.175848	-0.156945	99
45
Properties=species:S:1:pos:R:3:Z:I:1 energy=-288.11463554645337 field_type=dipole dipole="0.000000 0.000000 0.000000" charge=0
C	2.034908	0.186307	-0.654106	6
N	1.951318	-0.033483	0.782954	7
C	0.695698	0.052717	0.035194	6
C	-0.187962	1.256107	0.249404	6
C	-1.592992	0.740547	-0.070836	6
C	-1.537232	-0.732063	0.321314	6
C	-0.154312	-1.175873	-0.156956	6
H	2.368528	1.170117	-0.961266	1
H	2.408728	-0.637183	-1.249756	1
H	2.176168	-1.001223	1.019444	1
H	-0.138842	1.586907	1.293314	1
H	0.076448	2.099207	-0.396866	1
H	-2.369922	1.291547	0.466624	1
H	-1.789492	0.831147	-1.145946	1
H	-2.342082	-1.320223	-0.128196	1
H	-1.606162	-0.829423	1.411664	1
H	-0.191842	-1.438873	-1.220446	1
H	0.199038	-2.046263	0.404464	1
Es	2.137093	0.049024	0.158933	99
Es	-0.001170	1.831040	-0.192735	99
Es	2.038048	0.224647	1.001646	99
Es	-1.724584	0.797344	-0.813430	99
Es	0.695938	0.052698	0.035271	99
Es	1.951133	-0.033886	0.782502	99
Es	-2.089175	-1.134474	0.013092	99
Es	0.273569	0.665180	0.144850	99
Es	1.270260	0.151846	-0.522098	99
Es	-1.537202	-0.732051	0.321300	99
Es	-1.590906	0.002008	0.126458	99
Es	-0.896824	1.016392	0.087887	99
Es	-0.155382	1.474949	0.959879	99
Es	-0.154322	-1.175852	-0.156945	99
Es	0.100292	-1.768190	0.226779	99
Es	-1.580610	-0.795396	1.072572	99
Es	2.264158	0.855560	-0.866840	99
Es	-2.126902	1.117483	0.297996	99
Es	2.034863	0.186253	-0.653866	99
Es	2.078464	-0.622859	0.910805	99
Es	-0.178639	-1.352772	-0.885513	99
Es	-1.592967	0.740533	-0.070829	99
Es	-0.849329	-0.978145	0.080802	99
Es	1.331026	-0.035106	0.586873	99
Es	0.293768	-0.579178	-0.056543	99
Es	2.287925	-0.378169	-1.061906	99
Es	-0.187982	1.256070	0.249383	99
45
Properties=species:S:1:pos:R:3:Z:I:1 energy=-288.11463554645337 field_type=dipole dipole="0.000000 0.000000 0.000000" charge=0
C	2.034908	0.186307	-0.654106	6
N	1.951318	-0.033483	0.782954	7
C	0.695698	0.052717	0.035194	6
C	-0.187962	1.256107	0.249404	6
C	-1.592992	0.740547	-0.070836	6
C	-1.537232	-0.732063	0.321314	6
C	-0.154312	-1.175873	-0.156956	6
H	2.368528	1.170117	-0.961266	1
H	2.408728	-0.637183	-1.249756	1
H	2.176168	-1.001223	1.019444	1
H	-0.138842	1.586907	1.293314	1
H	0.076448	2.099207	-0.396866	1
H	-2.369922	1.291547	0.466624	1
H	-1.789492	0.831147	-1.145946	1
H	-2.342082	-1.320223	-0.128196	1
H	-1.606162	-0.829423	1.411664	1
H	-0.191842	-1.438873	-1.220446	1
H	0.199038	-2.046263	0.404464	1
Es	-0.849451	-0.978049	0.080837	99
Es	0.293591	-0.579102	-0.056603	99
Es	-1.537202	-0.732054	0.321301	99
Es	-0.000947	1.831072	-0.192810	99
Es	-0.896869	1.016115	0.088139	99
Es	2.264300	0.855297	-0.866947	99
Es	0.695931	0.052700	0.035269	99
Es	-0.155199	1.474744	0.959861	99
Es	-1.724669	0.797204	-0.813704	99
Es	1.951145	-0.033876	0.782534	99
Es	-0.178448	-1.352687	-0.885605	99
Es	-0.154322	-1.175850	-0.156945	99
Es	-1.590883	0.002159	0.126256	99
Es	0.100675	-1.767913	0.226702	99
Es	2.079428	-0.622060	0.912491	99
Es	2.036549	0.222788	0.999163	99
Es	0.273345	0.665056	0.145041	99
Es	2.287803	-0.377826	-1.061585	99
Es	-1.592966	0.740531	-0.070829	99
Es	2.034863	0.186255	-0.653869	99
Es	-1.580896	-0.795365	1.072904	99
Es	1.330151	-0.035190	0.588188	99
Es	-2.088979	-1.134132	0.012976	99
Es	-0.187982	1.256072	0.249382	99
Es	2.138595	0.049915	0.158824	99
Es	1.270046	0.152002	-0.522920	99
Es	-2.127066	1.117146	0.298270	99
45
Properties=species:S:1:pos:R:3:Z:I:1 energy=-288.11463554645337 field_type=dipole dipole="0.000000 0.000000 0.000000" charge=0
C	2.034908	0.186307	-0.654106	6
N	1.951318	-0.033483	0.782954	7
C	0.695698	0.052717	0.035194	6
C	-0.187962	1.256107	0.249404	6
C	-1.592992	0.740547	-0.070836	6
C	-1.537232	-0.732063	0.321314	6
C	-0.154312	-1.175873	-0.156956	6
H	2.368528	1.170117	-0.961266	1
H	2.408728	-0.637183	-1.249756	1
H	2.176168	-1.001223	1.019444	1
H	-0.138842	1.586907	1.293314	1
H	0.076448	2.099207	-0.396866	1
H	-2.369922	1.291547	0.466624	1
H	-1.789492	0.831147	-1.145946	1
H	-2.342082	-1.320223	-0.128196	1
H	-1.606162	-0.829423	1.411664	1
H	-0.191842	-1.438873	-1.220446	1
H	0.199038	-2.046263	0.404464	1
Es	2.139460	0.050403	0.158503	99
Es	-1.537202	-0.732053	0.321302	99
Es	2.287736	-0.377566	-1.061291	99
Es	0.273096	0.665036	0.144986	99
Es	-0.178173	-1.352555	-0.885646	99
Es	2.034863	0.186254	-0.653870	99
Es	1.329504	-0.034842	0.589340	99
Es	0.695933	0.052700	0.035263	99
Es	2.264328	0.855127	-0.867105	99
Es	-0.187982	1.256071	0.249383	99
Es	2.079842	-0.621708	0.913272	99
Es	0.100826	-1.767814	0.226751	99
Es	1.269843	0.151852	-0.523320	99
Es	-1.724822	0.797248	-0.813986	99
Es	-2.088970	-1.133790	0.012850	99
Es	-2.127036	1.116862	0.298598	99
Es	1.951165	-0.033735	0.782581	99
Es	0.293495	-0.579265	-0.056441	99
Es	-1.581123	-0.795237	1.073157	99
Es	-0.000810	1.831080	-0.192971	99
Es	-0.896854	1.015734	0.088389	99
Es	-0.154322	-1.175849	-0.156945	99
Es	-1.592966	0.740531	-0.070829	99
Es	-0.155020	1.474598	0.959904	99
Es	-1.590834	0.002088	0.126140	99
Es	2.036068	0.221512	0.997652	99
Es	-0.849505	-0.977732	0.080658	99
45
Properties=species:S:1:pos:R:3:Z:I:1 energy=-288.11463554645337 field_type=dipole dipole="0.000000 0.000000 0.000000" charge=0
C	2.034908	0.186307	-0.654106	6
N	1.951318	-0.033483	0.782954	7
C	0.695698	0.052717	0.035194	6
C	-0.187962	1.256107	0.249404	6
C	-1.592992	0.740547	-0.070836	6
C	-1.537232	-0.732063	0.321314	6
C	-0.154312	-1.175873	-0.156956	6
H	2.368528	1.170117	-0.961266	1
H	2.408728	-0.637183	-1.249756	1
H	2.176168	-1.001223	1.019444	1
H	-0.138842	1.586907	1.293314	1
H	0.076448	2.099207	-0.396866	1
H	-2.369922	1.291547	0.466624	1
H	-1.789492	0.831147	-1.145946	1
H	-2.342082	-1.320223	-0.128196	1
H	-1.606162	-0.829423	1.411664	1
H	-0.191842	-1.438873	-1.220446	1
H	0.199038	-2.046263	0.404464	1
Es	-2.088916	-1.133574	0.012735	99
Es	1.951125	-0.033894	0.782485	99
Es	2.264397	0.855070	-0.867055	99
Es	2.287763	-0.377315	-1.061129	99
Es	-0.187982	1.256071	0.249384	99
Es	-1.724853	0.797088	-0.814120	99
Es	-2.127140	1.116671	0.298651	99
Es	-0.154906	1.474562	0.959975	99
Es	0.101013	-1.767661	0.226866	99
Es	-1.590813	0.002030	0.126210	99
Es	2.035050	0.220447	0.995765	99
Es	0.695933	0.052702	0.035265	99
Es	-1.592966	0.740530	-0.070829	99
Es	-0.896870	1.015624	0.088466	99
Es	-0.849483	-0.977603	0.080438	99
Es	-1.581230	-0.795225	1.073388	99
Es	2.080406	-0.621061	0.914837	99
Es	2.140487	0.050649	0.158556	99
Es	-0.178016	-1.352512	-0.885770	99
Es	0.272945	0.665026	0.145139	99
Es	-1.537202	-0.732053	0.321302	99
Es	2.034862	0.186251	-0.653868	99
Es	0.293276	-0.579081	-0.056214	99
Es	-0.000641	1.830980	-0.193082	99
Es	-0.154322	-1.175849	-0.156944	99
Es	1.269632	0.151762	-0.523997	99
Es	1.328993	-0.034686	0.589870	99
