45
Properties=species:S:1:pos:R:3:Z:I:1 energy=-341.1035865499874 field_type=dipole dipole="0.000000 0.000000 0.000000" charge=0
C	-1.418016	-0.825686	0.430439	6
C	0.094654	-0.687456	0.276079	6
C	0.626054	-1.605476	-0.822941	6
N	0.467514	0.701854	-0.003501	7
O	-0.048877	1.211634	-1.201961	8
C	0.586984	1.643664	0.986419	6
N	0.462184	2.919284	0.855149	7
H	-1.791166	-0.175226	1.228739	1
H	-1.689256	-1.856776	0.681499	1
H	-1.945066	-0.554506	-0.491311	1
H	0.566984	-0.996176	1.217159	1
H	0.177124	-1.376976	-1.795561	1
H	0.409554	-2.653676	-0.590501	1
H	1.711733	-1.498916	-0.925311	1
H	0.758714	1.453324	-1.694870	1
H	0.830924	1.215774	1.973409	1
H	0.199964	3.085334	-0.122941	1
Es	0.388709	1.086248	0.426033	99
Es	0.626043	-1.605464	-0.822914	99
Es	-0.048607	1.211616	-1.201878	99
Es	0.587004	1.643475	0.986332	99
Es	0.317968	-1.448607	-1.477091	99
Es	0.466913	0.702060	-0.003340	99
Es	1.365110	-1.530582	-0.887944	99
Es	0.752634	1.333957	1.644212	99
Es	0.235810	2.385437	0.964389	99
Es	0.280761	0.132678	0.118551	99
Es	0.094685	-0.687282	0.276015	99
Es	-1.663135	-0.382303	0.976492	99
Es	0.183059	0.985563	-0.667120	99
Es	0.310724	3.015111	0.268829	99
Es	0.420356	-0.878373	0.919059	99
Es	0.474254	-2.315289	-0.656189	99
Es	0.508426	3.171902	1.107846	99
Es	0.358722	-1.140128	-0.281030	99
Es	0.386640	1.339165	-1.457960	99
Es	0.786064	2.419235	0.828849	99
Es	0.462131	2.918873	0.854816	99
Es	-0.199047	1.475615	-1.126730	99
Es	-1.417987	-0.825693	0.430445	99
Es	0.804861	0.757783	0.028833	99
Es	-0.179033	0.971709	-1.344700	99
Es	-0.667073	-0.753618	0.349525	99
Es	-1.593327	-1.530434	0.601814	99
Es	-1.766680	-0.644606	-0.194772	99
45
Properties=species:S:1:pos:R:3:Z:I:1 energy=-341.1035865499874 field_type=dipole dipole="0.000000 0.000000 0.000000" charge=0
C	-1.418016	-0.825686	0.430439	6
C	0.094654	-0.687456	0.276079	6
C	0.626054	-1.605476	-0.822941	6
N	0.467514	0.701854	-0.003501	7
O	-0.048877	1.211634	-1.201961	8
C	0.586984	1.643664	0.986419	6
N	0.462184	2.919284	0.855149	7
H	-1.791166	-0.175226	1.228739	1
H	-1.689256	-1.856776	0.681499	1
H	-1.945066	-0.554506	-0.491311	1
H	0.566984	-0.996176	1.217159	1
H	0.177124	-1.376976	-1.795561	1
H	0.409554	-2.653676	-0.590501	1
H	1.711733	-1.498916	-0.925311	1
H	0.758714	1.453324	-1.694870	1
H	0.830924	1.215774	1.973409	1
H	0.199964	3.085334	-0.122941	1
Es	0.311153	3.015884	0.268330	99
Es	0.235618	2.386209	0.963673	99
Es	0.626043	-1.605464	-0.822910	99
Es	-0.048505	1.211566	-1.201900	99
Es	-1.765770	-0.643420	-0.194923	99
Es	0.094685	-0.687280	0.276014	99
Es	0.359083	-1.139703	-0.281491	99
Es	0.462130	2.918866	0.854799	99
Es	-0.175470	0.971568	-1.347238	99
Es	0.783412	2.418268	0.828221	99
Es	0.396193	1.090582	0.428693	99
Es	0.385204	1.339958	-1.454939	99
Es	-0.201762	1.477413	-1.126484	99
Es	0.586999	1.643472	0.986333	99
Es	-1.593208	-1.532814	0.602463	99
Es	-1.661858	-0.381708	0.975877	99
Es	0.466770	0.702130	-0.003211	99
Es	-1.417987	-0.825693	0.430445	99
Es	0.752393	1.333844	1.644388	99
Es	0.419869	-0.878940	0.919450	99
Es	0.319064	-1.447549	-1.477344	99
Es	0.474743	-2.317802	-0.655569	99
Es	0.288063	0.127464	0.116356	99
Es	-0.668023	-0.753079	0.349483	99
Es	1.362477	-1.529855	-0.887813	99
Es	0.184442	0.983492	-0.668497	99
Es	0.510906	3.171650	1.108899	99
Es	0.789323	0.758989	0.029268	99
45
Properties=species:S:1:pos:R:3:Z:I:1 energy=-341.1035865499874 field_type=dipole dipole="0.000000 0.000000 0.000000" charge=0
C	-1.418016	-0.825686	0.430439	6
C	0.094654	-0.687456	0.276079	6
C	0.626054	-1.605476	-0.822941	6
N	0.467514	0.701854	-0.003501	7
O	-0.048877	1.211634	-1.201961	8
C	0.586984	1.643664	0.986419	6
N	0.462184	2.919284	0.855149	7
H	-1.791166	-0.175226	1.228739	1
H	-1.689256	-1.856776	0.681499	1
H	-1.945066	-0.554506	-0.491311	1
H	0.566984	-0.996176	1.217159	1
H	0.177124	-1.376976	-1.795561	1
H	0.409554	-2.653676	-0.590501	1
H	1.711733	-1.498916	-0.925311	1
H	0.758714	1.453324	-1.694870	1
H	0.830924	1.215774	1.973409	1
H	0.199964	3.085334	-0.122941	1
Es	0.319946	-1.446812	-1.477665	99
Es	0.291852	0.125181	0.115152	99
Es	-1.765120	-0.642820	-0.195049	99
Es	0.236030	2.385078	0.962737	99
Es	0.384352	1.341281	-1.452790	99
Es	0.475254	-2.319323	-0.655220	99
Es	0.466838	0.702071	-0.003329	99
Es	-0.205683	1.478014	-1.126485	99
Es	-1.593071	-1.534128	0.602963	99
Es	0.359107	-1.139484	-0.281739	99
Es	-1.661208	-0.381382	0.975274	99
Es	0.587001	1.643474	0.986333	99
Es	0.419544	-0.879390	0.919795	99
Es	1.360532	-1.529393	-0.887434	99
Es	0.311390	3.017075	0.268305	99
Es	0.185201	0.981550	-0.669580	99
Es	0.780432	0.759201	0.029889	99
Es	0.752231	1.333734	1.644536	99
Es	0.400585	1.092932	0.429871	99
Es	-1.417988	-0.825693	0.430445	99
Es	0.510840	3.170748	1.109794	99
Es	-0.048529	1.211630	-1.201890	99
Es	-0.170818	0.971760	-1.348593	99
Es	-0.668549	-0.752672	0.349476	99
Es	0.626043	-1.605463	-0.822909	99
Es	0.782951	2.419291	0.827655	99
Es	0.094687	-0.687279	0.276016	99
Es	0.462134	2.918865	0.854814	99
45
Properties=species:S:1:pos:R:3:Z:I:1 energy=-341.1035865499874 field_type=dipole dipole="0.000000 0.000000 0.000000" charge=0
C	-1.418016	-0.825686	0.430439	6
C	0.094654	-0.687456	0.276079	6
C	0.626054	-1.605476	-0.822941	6
N	0.467514	0.701854	-0.003501	7
O	-0.048877	1.211634	-1.201961	8
C	0.586984	1.643664	0.986419	6
N	0.462184	2.919284	0.855149	7
H	-1.791166	-0.175226	1.228739	1
H	-1.689256	-1.856776	0.681499	1
H	-1.945066	-0.554506	-0.491311	1
H	0.566984	-0.996176	1.217159	1
H	0.177124	-1.376976	-1.795561	1
H	0.409554	-2.653676	-0.590501	1
H	1.711733	-1.498916	-0.925311	1
H	0.758714	1.453324	-1.694870	1
H	0.830924	1.215774	1.973409	1
H	0.199964	3.085334	-0.122941	1
Es	1.359221	-1.528894	-0.887475	99
Es	0.782459	2.418347	0.827704	99
Es	-1.592940	-1.535107	0.603163	99
Es	-1.764699	-0.642304	-0.194913	99
Es	0.320427	-1.446469	-1.477526	99
Es	0.094686	-0.687282	0.276016	99
Es	0.383715	1.341747	-1.451221	99
Es	0.419278	-0.879758	0.919883	99
Es	0.587003	1.643473	0.986332	99
Es	-0.048549	1.211655	-1.201865	99
Es	0.511759	3.169667	1.109562	99
Es	0.185276	0.980254	-0.670086	99
Es	0.466849	0.702054	-0.003357	99
Es	-0.207151	1.478683	-1.126463	99
Es	0.235070	2.386081	0.962689	99
Es	0.462135	2.918875	0.854809	99
Es	0.294871	0.123658	0.114491	99
Es	0.311872	3.018233	0.268030	99
Es	0.773414	0.759040	0.030192	99
Es	-0.168603	0.972101	-1.349748	99
Es	0.626043	-1.605465	-0.822911	99
Es	-1.660702	-0.381241	0.974915	99
Es	0.475712	-2.320438	-0.654928	99
Es	-0.669110	-0.752401	0.349291	99
Es	0.404450	1.094770	0.430772	99
Es	-1.417988	-0.825693	0.430445	99
Es	0.752229	1.333621	1.644604	99
Es	0.359256	-1.139159	-0.282035	99
45
Properties=species:S:1:pos:R:3:Z:I:1 energy=-341.1035865499874 field_type=dipole dipole="0.000000 0.000000 0.000000" charge=0
C	-1.418016	-0.825686	0.430439	6
C	0.094654	-0.687456	0.276079	6
C	0.626054	-1.605476	-0.822941	6
N	0.467514	0.701854	-0.003501	7
O	-0.048877	1.211634	-1.201961	8
C	0.586984	1.643664	0.986419	6
N	0.462184	2.919284	0.855149	7
H	-1.791166	-0.175226	1.228739	1
H	-1.689256	-1.856776	0.681499	1
H	-1.945066	-0.554506	-0.491311	1
H	0.566984	-0.996176	1.217159	1
H	0.177124	-1.376976	-1.795561	1
H	0.409554	-2.653676	-0.590501	1
H	1.711733	-1.498916	-0.925311	1
H	0.758714	1.453324	-1.694870	1
H	0.830924	1.215774	1.973409	1
H	0.199964	3.085334	-0.122941	1
Es	0.782536	2.419690	0.827197	99
Es	0.475961	-2.321134	-0.654822	99
Es	0.320736	-1.446041	-1.477479	99
Es	0.587003	1.643471	0.986331	99
Es	0.383096	1.340252	-1.450453	99
Es	-0.048532	1.211614	-1.201871	99
Es	-0.168728	0.973107	-1.350339	99
Es	-0.206353	1.480767	-1.126045	99
Es	-1.660232	-0.381138	0.974558	99
Es	-0.669563	-0.752432	0.349371	99
Es	0.752040	1.333576	1.644646	99
Es	0.419145	-0.879780	0.919930	99
Es	-1.764358	-0.641883	-0.194937	99
Es	0.359560	-1.139189	-0.282006	99
Es	0.511756	3.169058	1.109680	99
Es	-1.417987	-0.825693	0.430445	99
Es	0.462132	2.918895	0.854808	99
Es	0.094686	-0.687282	0.276015	99
Es	0.405406	1.095229	0.430954	99
Es	0.311738	3.018905	0.268112	99
Es	0.466776	0.702132	-0.003226	99
Es	0.626043	-1.605464	-0.822910	99
Es	1.358278	-1.528694	-0.887441	99
Es	0.185621	0.978754	-0.670816	99
Es	0.769685	0.759792	0.030975	99
Es	-1.592970	-1.535710	0.603420	99
Es	0.235270	2.384766	0.962601	99
Es	0.297240	0.122482	0.113672	99
45
Properties=species:S:1:pos:R:3:Z:I:1 energy=-341.1035865499874 field_type=dipole dipole="0.000000 0.000000 0.000000" charge=0
C	-1.418016	-0.825686	0.430439	6
C	0.094654	-0.687456	0.276079	6
C	0.626054	-1.605476	-0.822941	6
N	0.467514	0.701854	-0.003501	7
O	-0.048877	1.211634	-1.201961	8
C	0.586984	1.643664	0.986419	6
N	0.462184	2.919284	0.855149	7
H	-1.791166	-0.175226	1.228739	1
H	-1.689256	-1.856776	0.681499	1
H	-1.945066	-0.554506	-0.491311	1
H	0.566984	-0.996176	1.217159	1
H	0.177124	-1.376976	-1.795561	1
H	0.409554	-2.653676	-0.590501	1
H	1.711733	-1.498916	-0.925311	1
H	0.758714	1.453324	-1.694870	1
H	0.830924	1.215774	1.973409	1
H	0.199964	3.085334	-0.122941	1
Es	-0.669697	-0.752142	0.349451	99
Es	0.466825	0.702113	-0.003261	99
Es	0.234407	2.385748	0.962694	99
Es	0.765278	0.759776	0.031223	99
Es	-1.660072	-0.381113	0.974243	99
Es	0.383078	1.342428	-1.449588	99
Es	-0.207030	1.479679	-1.124810	99
Es	-1.592763	-1.536159	0.603647	99
Es	0.752016	1.333469	1.644609	99
Es	0.418998	-0.879941	0.920000	99
Es	0.782545	2.418700	0.827082	99
Es	0.587001	1.643474	0.986333	99
Es	0.462136	2.918880	0.854808	99
Es	0.512423	3.168519	1.109385	99
Es	1.357583	-1.528584	-0.887348	99
Es	0.476052	-2.321653	-0.654746	99
Es	0.407639	1.096333	0.431466	99
Es	0.626043	-1.605464	-0.822910	99
Es	-0.167896	0.974443	-1.351426	99
Es	0.299446	0.121562	0.113015	99
Es	0.094686	-0.687279	0.276014	99
Es	0.359560	-1.139142	-0.282210	99
Es	-0.048467	1.211583	-1.201858	99
Es	-1.764165	-0.641724	-0.194941	99
Es	0.321109	-1.445749	-1.477428	99
Es	0.311845	3.019558	0.268215	99
Es	-1.417983	-0.825692	0.430444	99
Es	0.185386	0.976427	-0.671730	99
45
Properties=species:S:1:pos:R:3:Z:I:1 energy=-341.1035865499874 field_type=dipole dipole="0.000000 0.000000 0.000000" charge=0
C	-1.418016	-0.825686	0.430439	6
C	0.094654	-0.687456	0.276079	6
C	0.626054	-1.605476	-0.822941	6
N	0.467514	0.701854	-0.003501	7
O	-0.048877	1.211634	-1.201961	8
C	0.586984	1.643664	0.986419	6
N	0.462184	2.919284	0.855149	7
H	-1.791166	-0.175226	1.228739	1
H	-1.689256	-1.856776	0.681499	1
H	-1.945066	-0.554506	-0.491311	1
H	0.566984	-0.996176	1.217159	1
H	0.177124	-1.376976	-1.795561	1
H	0.409554	-2.653676	-0.590501	1
H	1.711733	-1.498916	-0.925311	1
H	0.758714	1.453324	-1.694870	1
H	0.830924	1.215774	1.973409	1
H	0.199964	3.085334	-0.122941	1
Es	0.185476	0.976118	-0.671892	99
Es	0.300251	0.121232	0.112832	99
Es	0.762865	0.759646	0.031596	99
Es	-0.669977	-0.752016	0.349371	99
Es	0.751994	1.333459	1.644647	99
Es	0.466846	0.702046	-0.003373	99
Es	-0.208053	1.480976	-1.125369	99
Es	-1.764026	-0.641476	-0.194775	99
Es	0.586999	1.643472	0.986333	99
Es	1.356961	-1.528385	-0.887276	99
Es	0.626045	-1.605466	-0.822911	99
Es	-0.048546	1.211647	-1.201865	99
Es	-1.592701	-1.536584	0.603723	99
Es	-1.417990	-0.825691	0.430447	99
Es	0.359388	-1.139019	-0.282274	99
Es	-0.166185	0.974443	-1.351565	99
Es	0.382622	1.341470	-1.448778	99
Es	0.782531	2.418937	0.826744	99
Es	0.321411	-1.445564	-1.477356	99
Es	0.462135	2.918869	0.854812	99
Es	0.418982	-0.880157	0.919982	99
Es	0.312117	3.020790	0.268404	99
Es	0.094687	-0.687280	0.276014	99
Es	0.233890	2.385404	0.962560	99
Es	-1.659754	-0.381057	0.974079	99
Es	0.408996	1.096873	0.431657	99
Es	0.512721	3.167462	1.109367	99
Es	0.476303	-2.322102	-0.654761	99
45
Properties=species:S:1:pos:R:3:Z:I:1 energy=-341.1035865499874 field_type=dipole dipole="0.000000 0.000000 0.000000" charge=0
C	-1.418016	-0.825686	0.430439	6
C	0.094654	-0.687456	0.276079	6
C	0.626054	-1.605476	-0.822941	6
N	0.467514	0.701854	-0.003501	7
O	-0.048877	1.211634	-1.201961	8
C	0.586984	1.643664	0.986419	6
N	0.462184	2.919284	0.855149	7
H	-1.791166	-0.175226	1.228739	1
H	-1.689256	-1.856776	0.681499	1
H	-1.945066	-0.554506	-0.491311	1
H	0.566984	-0.996176	1.217159	1
H	0.177124	-1.376976	-1.795561	1
H	0.409554	-2.653676	-0.590501	1
H	1.711733	-1.498916	-0.925311	1
H	0.758714	1.453324	-1.694870	1
H	0.830924	1.215774	1.973409	1
H	0.199964	3.085334	-0.122941	1
Es	1.356459	-1.528312	-0.887337	99
Es	0.410991	1.097719	0.431839	99
Es	-0.048555	1.211614	-1.201881	99
Es	0.312140	3.020935	0.268363	99
Es	-0.670167	-0.751940	0.349587	99
Es	0.586999	1.643471	0.986332	99
Es	-0.207537	1.481717	-1.124666	99
Es	0.233356	2.386375	0.962744	99
Es	0.185465	0.975012	-0.672488	99
Es	0.466686	0.702191	-0.003115	99
Es	0.782373	2.418034	0.826805	99
Es	0.300915	0.120951	0.112718	99
Es	-0.166522	0.975517	-1.351442	99
Es	-1.417986	-0.825692	0.430446	99
Es	0.418880	-0.880201	0.919926	99
Es	-1.763755	-0.641250	-0.194805	99
Es	0.359553	-1.138908	-0.282367	99
Es	0.626043	-1.605464	-0.822910	99
Es	0.760370	0.759014	0.031345	99
Es	0.321595	-1.445461	-1.477253	99
Es	0.094685	-0.687282	0.276015	99
Es	0.462134	2.918868	0.854809	99
Es	0.476433	-2.322429	-0.654676	99
Es	-1.659641	-0.381091	0.973748	99
Es	0.513405	3.167325	1.109033	99
Es	0.751903	1.333281	1.644648	99
Es	-1.592725	-1.536903	0.603874	99
Es	0.382488	1.340956	-1.448920	99
45
Properties=species:S:1:pos:R:3:Z:I:1 energy=-341.1035865499874 field_type=dipole dipole="0.000000 0.000000 0.000000" charge=0
C	-1.418016	-0.825686	0.430439	6
C	0.094654	-0.687456	0.276079	6
C	0.626054	-1.605476	-0.822941	6
N	0.467514	0.701854	-0.003501	7
O	-0.048877	1.211634	-1.201961	8
C	0.586984	1.643664	0.986419	6
N	0.462184	2.919284	0.855149	7
H	-1.791166	-0.175226	1.228739	1
H	-1.689256	-1.856776	0.681499	1
H	-1.945066	-0.554506	-0.491311	1
H	0.566984	-0.996176	1.217159	1
H	0.177124	-1.376976	-1.795561	1
H	0.409554	-2.653676	-0.590501	1
H	1.711733	-1.498916	-0.925311	1
H	0.758714	1.453324	-1.694870	1
H	0.830924	1.215774	1.973409	1
H	0.199964	3.085334	-0.122941	1
Es	-0.670457	-0.751948	0.349373	99
Es	0.462134	2.918860	0.854810	99
Es	0.782416	2.419553	0.826347	99
Es	0.411965	1.098171	0.432058	99
Es	0.312079	3.021216	0.268488	99
Es	-0.163811	0.975527	-1.351841	99
Es	0.185711	0.974320	-0.673004	99
Es	0.466734	0.702103	-0.003264	99
Es	0.381916	1.341093	-1.447726	99
Es	0.586997	1.643470	0.986332	99
Es	1.356211	-1.528261	-0.887350	99
Es	0.751796	1.333265	1.644587	99
Es	-0.209772	1.482162	-1.125199	99
Es	-1.763635	-0.641178	-0.194700	99
Es	0.359803	-1.138962	-0.282351	99
Es	-1.417986	-0.825693	0.430445	99
Es	0.418791	-0.880236	0.919992	99
Es	-1.659474	-0.380972	0.973705	99
Es	0.321634	-1.445225	-1.477166	99
Es	0.094686	-0.687279	0.276014	99
Es	0.758113	0.759041	0.031813	99
Es	0.626043	-1.605464	-0.822909	99
Es	0.301885	0.120597	0.112473	99
Es	0.513613	3.167070	1.108800	99
Es	-0.048456	1.211693	-1.201788	99
Es	0.476406	-2.322651	-0.654607	99
Es	0.233285	2.384910	0.963142	99
Es	-1.592643	-1.537134	0.603899	99
45
Properties=species:S:1:pos:R:3:Z:I:1 energy=-341.1035865499874 field_type=dipole dipole="0.000000 0.000000 0.000000" charge=0
C	-1.418016	-0.825686	0.430439	6
C	0.094654	-0.687456	0.276079	6
C	0.626054	-1.605476	-0.822941	6
N	0.467514	0.701854	-0.003501	7
O	-0.048877	1.211634	-1.201961	8
C	0.586984	1.643664	0.986419	6
N	0.462184	2.919284	0.855149	7
H	-1.791166	-0.175226	1.228739	1
H	-1.689256	-1.856776	0.681499	1
H	-1.945066	-0.554506	-0.491311	1
H	0.566984	-0.996176	1.217159	1
H	0.177124	-1.376976	-1.795561	1
H	0.409554	-2.653676	-0.590501	1
H	1.711733	-1.498916	-0.925311	1
H	0.758714	1.453324	-1.694870	1
H	0.830924	1.215774	1.973409	1
H	0.199964	3.085334	-0.122941	1
Es	0.094686	-0.687278	0.276014	99
Es	-0.208024	1.482832	-1.124488	99
Es	-0.670645	-0.751884	0.349352	99
Es	0.758684	0.760282	0.032534	99
Es	-1.417987	-0.825693	0.430445	99
Es	-1.763491	-0.641122	-0.194661	99
Es	-1.659317	-0.380873	0.973486	99
Es	0.476530	-2.322896	-0.654518	99
Es	0.381754	1.340668	-1.447559	99
Es	-0.165209	0.976212	-1.352301	99
Es	0.513256	3.166678	1.109125	99
Es	0.321869	-1.445095	-1.477220	99
Es	0.462134	2.918870	0.854811	99
Es	0.586999	1.643473	0.986333	99
Es	0.185571	0.973517	-0.673226	99
Es	0.233645	2.384009	0.962802	99
Es	0.302936	0.120225	0.112087	99
Es	0.626044	-1.605465	-0.822911	99
Es	0.359898	-1.138873	-0.282452	99
Es	0.312009	3.021709	0.268659	99
Es	0.466756	0.702113	-0.003252	99
Es	0.410187	1.097241	0.431787	99
Es	0.751780	1.333354	1.644604	99
Es	-0.048530	1.211612	-1.201875	99
Es	0.418714	-0.880300	0.919996	99
Es	1.355706	-1.528244	-0.887260	99
Es	-1.592532	-1.537400	0.604076	99
Es	0.782562	2.420376	0.825983	99
45
Properties=species:S:1:pos:R:3:Z:I:1 energy=-341.1035865499874 field_type=dipole dipole="0.000000 0.000000 0.000000" charge=0
C	-1.418016	-0.825686	0.430439	6
C	0.094654	-0.687456	0.276079	6
C	0.626054	-1.605476	-0.822941	6
N	0.467514	0.701854	-0.003501	7
O	-0.048877	1.211634	-1.201961	8
C	0.586984	1.643664	0.986419	6
N	0.462184	2.919284	0.855149	7
H	-1.791166	-0.175226	1.228739	1
H	-1.689256	-1.856776	0.681499	1
H	-1.945066	-0.554506	-0.491311	1
H	0.566984	-0.996176	1.217159	1
H	0.177124	-1.376976	-1.795561	1
H	0.409554	-2.653676	-0.590501	1
H	1.711733	-1.498916	-0.925311	1
H	0.758714	1.453324	-1.694870	1
H	0.830924	1.215774	1.973409	1
H	0.199964	3.085334	-0.122941	1
Es	-1.417985	-0.825693	0.430445	99
Es	0.586995	1.643473	0.986334	99
Es	-1.659277	-0.380903	0.973378	99
Es	0.476690	-2.323156	-0.654569	99
Es	-0.048595	1.211648	-1.201891	99
Es	-1.592691	-1.537559	0.603994	99
Es	-0.670678	-0.751879	0.349392	99
Es	0.312030	3.022302	0.268639	99
Es	0.322004	-1.445066	-1.477026	99
Es	0.626043	-1.605465	-0.822910	99
Es	0.094686	-0.687278	0.276013	99
Es	0.302937	0.120152	0.112153	99
Es	0.184937	0.972592	-0.673433	99
Es	0.413424	1.098626	0.432189	99
Es	0.418694	-0.880294	0.919953	99
Es	-1.763335	-0.640970	-0.194497	99
Es	0.359824	-1.138869	-0.282448	99
Es	0.782462	2.419582	0.825978	99
Es	-0.165365	0.977404	-1.351765	99
Es	0.751841	1.333277	1.644588	99
Es	-0.207244	1.484470	-1.124607	99
Es	0.513931	3.166073	1.108727	99
Es	0.232933	2.384841	0.963152	99
Es	0.462136	2.918870	0.854812	99
Es	0.466847	0.702047	-0.003372	99
Es	0.755486	0.759024	0.032091	99
Es	1.355473	-1.528031	-0.887295	99
Es	0.381783	1.338832	-1.447652	99
45
Properties=species:S:1:pos:R:3:Z:I:1 energy=-341.1035865499874 field_type=dipole dipole="0.000000 0.000000 0.000000" charge=0
C	-1.418016	-0.825686	0.430439	6
C	0.094654	-0.687456	0.276079	6
C	0.626054	-1.605476	-0.822941	6
N	0.467514	0.701854	-0.003501	7
O	-0.048877	1.211634	-1.201961	8
C	0.586984	1.643664	0.986419	6
N	0.462184	2.919284	0.855149	7
H	-1.791166	-0.175226	1.228739	1
H	-1.689256	-1.856776	0.681499	1
H	-1.945066	-0.554506	-0.491311	1
H	0.566984	-0.996176	1.217159	1
H	0.177124	-1.376976	-1.795561	1
H	0.409554	-2.653676	-0.590501	1
H	1.711733	-1.498916	-0.925311	1
H	0.758714	1.453324	-1.694870	1
H	0.830924	1.215774	1.973409	1
H	0.199964	3.085334	-0.122941	1
Es	0.322155	-1.445023	-1.476995	99
Es	0.232848	2.384766	0.963045	99
Es	1.355096	-1.528049	-0.887322	99
Es	0.359876	-1.138624	-0.282455	99
Es	-0.048496	1.211665	-1.201865	99
Es	-1.592630	-1.537725	0.604066	99
Es	0.312124	3.022421	0.268623	99
Es	-0.670878	-0.751963	0.349404	99
Es	0.513864	3.165976	1.108714	99
Es	0.751720	1.333302	1.644577	99
Es	0.754843	0.759415	0.032412	99
Es	0.381683	1.342114	-1.446621	99
Es	-0.162677	0.976370	-1.352690	99
Es	0.626044	-1.605465	-0.822911	99
Es	0.303837	0.119920	0.111853	99
Es	-1.659064	-0.380907	0.973301	99
Es	0.587000	1.643472	0.986333	99
Es	0.476777	-2.323330	-0.654523	99
Es	0.466794	0.702072	-0.003322	99
Es	0.462133	2.918862	0.854806	99
Es	0.185355	0.972762	-0.673581	99
Es	-0.210323	1.482025	-1.124545	99
Es	-1.417987	-0.825692	0.430446	99
Es	-1.763253	-0.640794	-0.194525	99
Es	0.094687	-0.687280	0.276016	99
Es	0.413209	1.098499	0.432252	99
Es	0.782537	2.419689	0.825961	99
Es	0.418710	-0.880433	0.919918	99
45
Properties=species:S:1:pos:R:3:Z:I:1 energy=-341.1035865499874 field_type=dipole dipole="0.000000 0.000000 0.000000" charge=0
C	-1.418016	-0.825686	0.430439	6
C	0.094654	-0.687456	0.276079	6
C	0.626054	-1.605476	-0.822941	6
N	0.467514	0.701854	-0.003501	7
O	-0.048877	1.211634	-1.201961	8
C	0.586984	1.643664	0.986419	6
N	0.462184	2.919284	0.855149	7
H	-1.791166	-0.175226	1.228739	1
H	-1.689256	-1.856776	0.681499	1
H	-1.945066	-0.554506	-0.491311	1
H	0.566984	-0.996176	1.217159	1
H	0.177124	-1.376976	-1.795561	1
H	0.409554	-2.653676	-0.590501	1
H	1.711733	-1.498916	-0.925311	1
H	0.758714	1.453324	-1.694870	1
H	0.830924	1.215774	1.973409	1
H	0.199964	3.085334	-0.122941	1
Es	0.185220	0.971514	-0.674096	99
Es	-1.417986	-0.825693	0.430445	99
Es	0.359897	-1.138683	-0.282467	99
Es	0.514394	3.165633	1.108726	99
Es	0.753812	0.759240	0.032450	99
Es	0.418530	-0.880418	0.919881	99
Es	0.413937	1.098777	0.432225	99
Es	-0.207684	1.483962	-1.123760	99
Es	0.586993	1.643473	0.986334	99
Es	-1.659145	-0.381017	0.973082	99
Es	0.782277	2.418760	0.825920	99
Es	-0.165053	0.978059	-1.352054	99
Es	0.232353	2.385618	0.962889	99
Es	0.322309	-1.444971	-1.476927	99
Es	0.476794	-2.323465	-0.654550	99
Es	0.626043	-1.605464	-0.822910	99
Es	0.381566	1.339863	-1.447480	99
Es	-1.763246	-0.640786	-0.194466	99
Es	-0.048499	1.211569	-1.201871	99
Es	0.751751	1.333286	1.644582	99
Es	0.462135	2.918866	0.854810	99
Es	-0.670916	-0.751624	0.349451	99
Es	0.304258	0.119790	0.111866	99
Es	1.354896	-1.528034	-0.887306	99
Es	0.094686	-0.687277	0.276016	99
Es	0.312340	3.022872	0.268692	99
Es	0.466770	0.702098	-0.003277	99
Es	-1.592446	-1.537899	0.604165	99
45
Properties=species:S:1:pos:R:3:Z:I:1 energy=-341.1035865499874 field_type=dipole dipole="0.000000 0.000000 0.000000" charge=0
C	-1.418016	-0.825686	0.430439	6
C	0.094654	-0.687456	0.276079	6
C	0.626054	-1.605476	-0.822941	6
N	0.467514	0.701854	-0.003501	7
O	-0.048877	1.211634	-1.201961	8
C	0.586984	1.643664	0.986419	6
N	0.462184	2.919284	0.855149	7
H	-1.791166	-0.175226	1.228739	1
H	-1.689256	-1.856776	0.681499	1
H	-1.945066	-0.554506	-0.491311	1
H	0.566984	-0.996176	1.217159	1
H	0.177124	-1.376976	-1.795561	1
H	0.409554	-2.653676	-0.590501	1
H	1.711733	-1.498916	-0.925311	1
H	0.758714	1.453324	-1.694870	1
H	0.830924	1.215774	1.973409	1
H	0.199964	3.085334	-0.122941	1
Es	-0.048480	1.211620	-1.201828	99
Es	0.462137	2.918892	0.854822	99
Es	0.312228	3.023384	0.268885	99
Es	0.232303	2.384678	0.963044	99
Es	1.354651	-1.527894	-0.887289	99
Es	-1.417987	-0.825693	0.430445	99
Es	0.476975	-2.323627	-0.654503	99
Es	0.414315	1.098929	0.432288	99
Es	-1.659065	-0.380906	0.973102	99
Es	0.304564	0.119625	0.111739	99
Es	0.418579	-0.880486	0.919958	99
Es	-1.592445	-1.538015	0.604111	99
Es	0.359809	-1.138691	-0.282609	99
Es	0.626043	-1.605465	-0.822909	99
Es	0.751655	1.333220	1.644551	99
Es	0.782584	2.419708	0.825639	99
Es	-0.208270	1.484086	-1.123923	99
Es	-0.164077	0.978059	-1.352556	99
Es	0.753152	0.759271	0.032492	99
Es	-1.763085	-0.640734	-0.194431	99
Es	0.184850	0.971135	-0.674186	99
Es	0.466787	0.702088	-0.003288	99
Es	0.381477	1.340097	-1.446685	99
Es	0.094686	-0.687279	0.276014	99
Es	-0.671038	-0.751637	0.349453	99
Es	0.514294	3.165118	1.108602	99
Es	0.586999	1.643472	0.986332	99
Es	0.322343	-1.444908	-1.476897	99
45
Properties=species:S:1:pos:R:3:Z:I:1 energy=-341.1035865499874 field_type=dipole dipole="0.000000 0.000000 0.000000" charge=0
C	-1.418016	-0.825686	0.430439	6
C	0.094654	-0.687456	0.276079	6
C	0.626054	-1.605476	-0.822941	6
N	0.467514	0.701854	-0.003501	7
O	-0.048877	1.211634	-1.201961	8
C	0.586984	1.643664	0.986419	6
N	0.462184	2.919284	0.855149	7
H	-1.791166	-0.175226	1.228739	1
H	-1.689256	-1.856776	0.681499	1
H	-1.945066	-0.554506	-0.491311	1
H	0.566984	-0.996176	1.217159	1
H	0.177124	-1.376976	-1.795561	1
H	0.409554	-2.653676	-0.590501	1
H	1.711733	-1.498916	-0.925311	1
H	0.758714	1.453324	-1.694870	1
H	0.830924	1.215774	1.973409	1
H	0.199964	3.085334	-0.122941	1
Es	0.462131	2.918856	0.854804	99
Es	0.359892	-1.138545	-0.282532	99
Es	0.751477	0.758725	0.032430	99
Es	0.322437	-1.444893	-1.476788	99
Es	0.514521	3.164879	1.108610	99
Es	-1.592520	-1.538169	0.604153	99
Es	0.782529	2.418551	0.825822	99
Es	1.354645	-1.527992	-0.887351	99
Es	0.312452	3.023698	0.268830	99
Es	-0.208161	1.484518	-1.123673	99
Es	0.587005	1.643472	0.986331	99
Es	0.476787	-2.323661	-0.654505	99
Es	0.381403	1.339508	-1.447201	99
Es	-0.164293	0.978498	-1.351957	99
Es	0.415883	1.099536	0.432415	99
Es	0.185160	0.970876	-0.674494	99
Es	0.626044	-1.605464	-0.822910	99
Es	-0.671170	-0.751673	0.349400	99
Es	0.304625	0.119585	0.111745	99
Es	0.418576	-0.880510	0.919934	99
Es	0.751644	1.333208	1.644559	99
Es	0.466745	0.702068	-0.003322	99
Es	-0.048527	1.211643	-1.201854	99
Es	-1.762982	-0.640630	-0.194305	99
Es	0.231915	2.385815	0.962804	99
Es	0.094685	-0.687280	0.276014	99
Es	-1.658932	-0.380876	0.972965	99
Es	-1.417987	-0.825693	0.430445	99
45
Properties=species:S:1:pos:R:3:Z:I:1 energy=-341.1035865499874 field_type=dipole dipole="0.000000 0.000000 0.000000" charge=0
C	-1.418016	-0.825686	0.430439	6
C	0.094654	-0.687456	0.276079	6
C	0.626054	-1.605476	-0.822941	6
N	0.467514	0.701854	-0.003501	7
O	-0.048877	1.211634	-1.201961	8
C	0.586984	1.643664	0.986419	6
N	0.462184	2.919284	0.855149	7
H	-1.791166	-0.175226	1.228739	1
H	-1.689256	-1.856776	0.681499	1
H	-1.945066	-0.554506	-0.491311	1
H	0.566984	-0.996176	1.217159	1
H	0.177124	-1.376976	-1.795561	1
H	0.409554	-2.653676	-0.590501	1
H	1.711733	-1.498916	-0.925311	1
H	0.758714	1.453324	-1.694870	1
H	0.830924	1.215774	1.973409	1
H	0.199964	3.085334	-0.122941	1
Es	-1.417987	-0.825693	0.430445	99
Es	-0.161641	0.978302	-1.352511	99
Es	-1.762952	-0.640637	-0.194224	99
Es	-1.658892	-0.380829	0.972917	99
Es	0.184794	0.970649	-0.674286	99
Es	0.751669	1.333118	1.644544	99
Es	0.322455	-1.444834	-1.476689	99
Es	0.586999	1.643472	0.986332	99
Es	0.462135	2.918862	0.854813	99
Es	-0.210307	1.483869	-1.124373	99
Es	0.626043	-1.605465	-0.822910	99
Es	0.476877	-2.323806	-0.654458	99
Es	0.750672	0.758563	0.032418	99
Es	0.416477	1.099827	0.432531	99
Es	0.312516	3.023826	0.268819	99
Es	-0.048535	1.211635	-1.201876	99
Es	0.359929	-1.138639	-0.282695	99
Es	-0.671215	-0.751667	0.349428	99
Es	0.466904	0.702017	-0.003428	99
Es	0.782404	2.419675	0.825686	99
Es	1.354512	-1.527852	-0.887358	99
Es	0.232141	2.384694	0.962821	99
Es	0.094687	-0.687278	0.276017	99
Es	0.381184	1.340651	-1.446031	99
Es	0.418568	-0.880491	0.919844	99
Es	0.304744	0.119556	0.111707	99
Es	-1.592518	-1.538240	0.604172	99
Es	0.514321	3.164762	1.108718	99
45
Properties=species:S:1:pos:R:3:Z:I:1 energy=-341.1035865499874 field_type=dipole dipole="0.000000 0.000000 0.000000" charge=0
C	-1.418016	-0.825686	0.430439	6
C	0.094654	-0.687456	0.276079	6
C	0.626054	-1.605476	-0.822941	6
N	0.467514	0.701854	-0.003501	7
O	-0.048877	1.211634	-1.201961	8
C	0.586984	1.643664	0.986419	6
N	0.462184	2.919284	0.855149	7
H	-1.791166	-0.175226	1.228739	1
H	-1.689256	-1.856776	0.681499	1
H	-1.945066	-0.554506	-0.491311	1
H	0.566984	-0.996176	1.217159	1
H	0.177124	-1.376976	-1.795561	1
H	0.409554	-2.653676	-0.590501	1
H	1.711733	-1.498916	-0.925311	1
H	0.758714	1.453324	-1.694870	1
H	0.830924	1.215774	1.973409	1
H	0.199964	3.085334	-0.122941	1
Es	0.185196	0.970208	-0.674873	99
Es	0.751628	1.333165	1.644536	99
Es	0.466718	0.702132	-0.003215	99
Es	0.322516	-1.444792	-1.476702	99
Es	0.381236	1.342483	-1.445725	99
Es	0.749748	0.759007	0.032755	99
Es	0.586998	1.643472	0.986333	99
Es	0.418450	-0.880482	0.919876	99
Es	0.312126	3.024620	0.269118	99
Es	-0.048535	1.211564	-1.201879	99
Es	-0.671289	-0.751625	0.349408	99
Es	1.354330	-1.527741	-0.887297	99
Es	-1.417987	-0.825693	0.430445	99
Es	0.626043	-1.605464	-0.822910	99
Es	0.306147	0.119162	0.111183	99
Es	0.415949	1.099706	0.432697	99
Es	0.513579	3.164022	1.108980	99
Es	0.462133	2.918861	0.854816	99
Es	-1.658989	-0.380854	0.972834	99
Es	0.477038	-2.323915	-0.654466	99
Es	-1.592431	-1.538295	0.604194	99
Es	0.359998	-1.138676	-0.282647	99
Es	-1.762865	-0.640646	-0.194278	99
Es	-0.210772	1.482596	-1.123517	99
Es	0.094686	-0.687277	0.276013	99
Es	-0.161421	0.978164	-1.353167	99
Es	0.232914	2.382861	0.962629	99
Es	0.782839	2.421488	0.825231	99
45
Properties=species:S:1:pos:R:3:Z:I:1 energy=-341.1035865499874 field_type=dipole dipole="0.000000 0.000000 0.000000" charge=0
C	-1.418016	-0.825686	0.430439	6
C	0.094654	-0.687456	0.276079	6
C	0.626054	-1.605476	-0.822941	6
N	0.467514	0.701854	-0.003501	7
O	-0.048877	1.211634	-1.201961	8
C	0.586984	1.643664	0.986419	6
N	0.462184	2.919284	0.855149	7
H	-1.791166	-0.175226	1.228739	1
H	-1.689256	-1.856776	0.681499	1
H	-1.945066	-0.554506	-0.491311	1
H	0.566984	-0.996176	1.217159	1
H	0.177124	-1.376976	-1.795561	1
H	0.409554	-2.653676	-0.590501	1
H	1.711733	-1.498916	-0.925311	1
H	0.758714	1.453324	-1.694870	1
H	0.830924	1.215774	1.973409	1
H	0.199964	3.085334	-0.122941	1
Es	0.626041	-1.605462	-0.822911	99
Es	0.782848	2.420236	0.825577	99
Es	-0.163036	0.979530	-1.352149	99
Es	0.231908	2.384109	0.962665	99
Es	-1.417988	-0.825693	0.430445	99
Es	0.417298	1.100144	0.432596	99
Es	0.359939	-1.138527	-0.282759	99
Es	-1.658784	-0.380911	0.972767	99
Es	0.184977	0.969410	-0.675126	99
Es	-0.048713	1.211622	-1.201935	99
Es	-1.762942	-0.640526	-0.194266	99
Es	0.322595	-1.444795	-1.476649	99
Es	0.748776	0.758493	0.032611	99
Es	0.477012	-2.323993	-0.654375	99
Es	0.513974	3.164517	1.108640	99
Es	0.586999	1.643472	0.986332	99
Es	0.418544	-0.880582	0.919831	99
Es	-0.671313	-0.751658	0.349426	99
Es	1.354195	-1.527747	-0.887326	99
Es	0.312718	3.024136	0.269096	99
Es	-1.592517	-1.538305	0.604296	99
Es	0.381057	1.339744	-1.446574	99
Es	-0.208614	1.484802	-1.123382	99
Es	0.466755	0.702101	-0.003270	99
Es	0.094687	-0.687279	0.276015	99
Es	0.305821	0.119227	0.111492	99
Es	0.462134	2.918866	0.854808	99
Es	0.751615	1.333116	1.644497	99
45
Properties=species:S:1:pos:R:3:Z:I:1 energy=-341.1035865499874 field_type=dipole dipole="0.000000 0.000000 0.000000" charge=0
C	-1.418016	-0.825686	0.430439	6
C	0.094654	-0.687456	0.276079	6
C	0.626054	-1.605476	-0.822941	6
N	0.467514	0.701854	-0.003501	7
O	-0.048877	1.211634	-1.201961	8
C	0.586984	1.643664	0.986419	6
N	0.462184	2.919284	0.855149	7
H	-1.791166	-0.175226	1.228739	1
H	-1.689256	-1.856776	0.681499	1
H	-1.945066	-0.554506	-0.491311	1
H	0.566984	-0.996176	1.217159	1
H	0.177124	-1.376976	-1.795561	1
H	0.409554	-2.653676	-0.590501	1
H	1.711733	-1.498916	-0.925311	1
H	0.758714	1.453324	-1.694870	1
H	0.830924	1.215774	1.973409	1
H	0.199964	3.085334	-0.122941	1
Es	0.462134	2.918850	0.854797	99
Es	-1.417987	-0.825693	0.430445	99
Es	0.417501	1.100216	0.432695	99
Es	0.231657	2.385022	0.963055	99
Es	0.586999	1.643472	0.986332	99
Es	1.353984	-1.527674	-0.887307	99
Es	0.305791	0.119247	0.111441	99
Es	-1.658695	-0.380902	0.972701	99
Es	0.514586	3.165049	1.108256	99
Es	0.477123	-2.324133	-0.654438	99
Es	0.360025	-1.138652	-0.282738	99
Es	0.322625	-1.444648	-1.476604	99
Es	-0.671328	-0.751685	0.349406	99
Es	0.185232	0.969655	-0.675085	99
Es	0.466684	0.702240	-0.003037	99
Es	0.748533	0.758267	0.032433	99
Es	0.418423	-0.880584	0.919875	99
Es	0.380985	1.341225	-1.446133	99
Es	-0.161028	0.978997	-1.352330	99
Es	0.751606	1.333126	1.644507	99
Es	0.094686	-0.687279	0.276014	99
Es	-0.048639	1.211624	-1.201904	99
Es	-0.210779	1.483625	-1.123675	99
Es	0.312485	3.023543	0.269005	99
Es	-1.762814	-0.640410	-0.194230	99
Es	-1.592573	-1.538410	0.604284	99
Es	0.626043	-1.605464	-0.822910	99
Es	0.782728	2.419425	0.825517	99
45
Properties=species:S:1:pos:R:3:Z:I:1 energy=-341.1035865499874 field_type=dipole dipole="0.000000 0.000000 0.000000" charge=0
C	-1.418016	-0.825686	0.430439	6
C	0.094654	-0.687456	0.276079	6
C	0.626054	-1.605476	-0.822941	6
N	0.467514	0.701854	-0.003501	7
O	-0.048877	1.211634	-1.201961	8
C	0.586984	1.643664	0.986419	6
N	0.462184	2.919284	0.855149	7
H	-1.791166	-0.175226	1.228739	1
H	-1.689256	-1.856776	0.681499	1
H	-1.945066	-0.554506	-0.491311	1
H	0.566984	-0.996176	1.217159	1
H	0.177124	-1.376976	-1.795561	1
H	0.409554	-2.653676	-0.590501	1
H	1.711733	-1.498916	-0.925311	1
H	0.758714	1.453324	-1.694870	1
H	0.830924	1.215774	1.973409	1
H	0.199964	3.085334	-0.122941	1
Es	0.748501	0.758530	0.032588	99
Es	0.626043	-1.605464	-0.822910	99
Es	0.184733	0.969343	-0.675050	99
Es	0.462135	2.918884	0.854814	99
Es	0.477186	-2.324154	-0.654320	99
Es	-0.671495	-0.751642	0.349407	99
Es	0.094687	-0.687279	0.276014	99
Es	0.322656	-1.444791	-1.476572	99
Es	0.231787	2.384109	0.962632	99
Es	0.417428	1.100187	0.432598	99
Es	0.751541	1.333079	1.644573	99
Es	-0.048524	1.211603	-1.201879	99
Es	-0.209595	1.484628	-1.123600	99
Es	1.353931	-1.527626	-0.887357	99
Es	0.380813	1.340384	-1.445564	99
Es	0.586999	1.643472	0.986333	99
Es	0.466727	0.702156	-0.003179	99
Es	0.312748	3.024432	0.269151	99
Es	0.514155	3.164235	1.108533	99
Es	-0.161897	0.979189	-1.352901	99
Es	-1.762842	-0.640500	-0.194171	99
Es	-1.658641	-0.380818	0.972600	99
Es	0.360010	-1.138586	-0.282822	99
Es	-1.592438	-1.538494	0.604422	99
Es	-1.417986	-0.825693	0.430445	99
Es	0.306059	0.119153	0.111384	99
Es	0.418456	-0.880511	0.919785	99
Es	0.782809	2.420222	0.825419	99
45
Properties=species:S:1:pos:R:3:Z:I:1 energy=-341.1035865499874 field_type=dipole dipole="0.000000 0.000000 0.000000" charge=0
C	-1.418016	-0.825686	0.430439	6
C	0.094654	-0.687456	0.276079	6
C	0.626054	-1.605476	-0.822941	6
N	0.467514	0.701854	-0.003501	7
O	-0.048877	1.211634	-1.201961	8
C	0.586984	1.643664	0.986419	6
N	0.462184	2.919284	0.855149	7
H	-1.791166	-0.175226	1.228739	1
H	-1.689256	-1.856776	0.681499	1
H	-1.945066	-0.554506	-0.491311	1
H	0.566984	-0.996176	1.217159	1
H	0.177124	-1.376976	-1.795561	1
H	0.409554	-2.653676	-0.590501	1
H	1.711733	-1.498916	-0.925311	1
H	0.758714	1.453324	-1.694870	1
H	0.830924	1.215774	1.973409	1
H	0.199964	3.085334	-0.122941	1
Es	0.466730	0.702117	-0.003240	99
Es	0.477099	-2.324176	-0.654414	99
Es	-0.671620	-0.751616	0.349447	99
Es	0.782622	2.419220	0.825369	99
Es	0.587000	1.643472	0.986335	99
Es	-0.048603	1.211628	-1.201911	99
Es	0.306452	0.119074	0.111316	99
Es	0.184367	0.968367	-0.675445	99
Es	0.751625	1.333108	1.644492	99
Es	0.418402	1.100460	0.432709	99
Es	-1.592350	-1.538540	0.604359	99
Es	-1.658752	-0.380729	0.972629	99
Es	-1.417987	-0.825693	0.430446	99
Es	0.514813	3.164386	1.108386	99
Es	0.312558	3.024303	0.269134	99
Es	0.094687	-0.687279	0.276014	99
Es	0.322744	-1.444664	-1.476597	99
Es	0.462133	2.918864	0.854807	99
Es	-0.209496	1.483976	-1.122996	99
Es	0.381229	1.340972	-1.446110	99
Es	0.626043	-1.605464	-0.822910	99
Es	0.231401	2.385151	0.962879	99
Es	-0.162067	0.980237	-1.352448	99
Es	1.353879	-1.527705	-0.887285	99
Es	0.418375	-0.880580	0.919799	99
Es	0.747347	0.758300	0.032560	99
Es	0.360016	-1.138598	-0.282699	99
Es	-1.762661	-0.640541	-0.194251	99
