45
Properties=species:S:1:pos:R:3:Z:I:1 energy=-341.1872404585062 field_type=dipole dipole="0.000000 0.000000 0.000000" charge=0
C	-2.465627	-1.240102	-0.160240	6
C	-0.968057	-1.243172	0.088150	6
C	-0.368507	0.151278	-0.045750	6
O	1.045783	0.051018	0.194140	8
C	1.817873	1.152818	0.156820	6
N	3.101053	0.868828	0.443310	7
N	1.425933	2.335948	-0.140480	7
H	-2.867907	-2.253482	-0.065780	1
H	-2.695377	-0.875982	-1.166620	1
H	-2.981657	-0.600732	0.562920	1
H	-0.475147	-1.924032	-0.616240	1
H	-0.756747	-1.640092	1.088400	1
H	-0.814857	0.827258	0.692120	1
H	-0.537117	0.537108	-1.057180	1
H	3.371523	-0.083932	0.245890	1
H	3.742143	1.577368	0.110760	1
H	0.426693	2.359898	-0.330220	1
Es	1.090743	-0.034989	0.470096	99
Es	-0.485142	0.420154	-0.736944	99
Es	1.297518	0.500634	0.175611	99
Es	-2.812787	-0.800566	0.333605	99
Es	-1.716741	-1.229941	-0.038124	99
Es	3.100810	0.868833	0.442692	99
Es	1.597903	1.840822	-0.307851	99
Es	1.171710	-0.092201	-0.028608	99
Es	0.819230	2.330072	-0.248883	99
Es	-2.735394	-1.928454	-0.095451	99
Es	1.045642	0.051379	0.194082	99
Es	-0.661161	-0.537875	0.020707	99
Es	2.559788	0.973902	0.249723	99
Es	1.425700	2.335532	-0.140426	99
Es	-0.368232	0.151243	-0.045702	99
Es	-0.674425	0.617195	0.455567	99
Es	3.476586	1.277318	0.230952	99
Es	0.534164	0.138617	0.099822	99
Es	3.017688	0.908427	0.728447	99
Es	3.257072	0.309742	0.304271	99
Es	-0.828025	-1.505540	0.772283	99
Es	-2.465589	-1.240096	-0.160235	99
Es	-0.634142	-1.700688	-0.398635	99
Es	-0.968082	-1.243116	0.088135	99
Es	1.817863	1.152495	0.156892	99
Es	-2.617339	-0.988521	-0.847154	99
Es	1.643642	2.626464	-0.156923	99
Es	1.504136	1.934495	0.244684	99
45
Properties=species:S:1:pos:R:3:Z:I:1 energy=-341.1872404585062 field_type=dipole dipole="0.000000 0.000000 0.000000" charge=0
C	-2.465627	-1.240102	-0.160240	6
C	-0.968057	-1.243172	0.088150	6
C	-0.368507	0.151278	-0.045750	6
O	1.045783	0.051018	0.194140	8
C	1.817873	1.152818	0.156820	6
N	3.101053	0.868828	0.443310	7
N	1.425933	2.335948	-0.140480	7
H	-2.867907	-2.253482	-0.065780	1
H	-2.695377	-0.875982	-1.166620	1
H	-2.981657	-0.600732	0.562920	1
H	-0.475147	-1.924032	-0.616240	1
H	-0.756747	-1.640092	1.088400	1
H	-0.814857	0.827258	0.692120	1
H	-0.537117	0.537108	-1.057180	1
H	3.371523	-0.083932	0.245890	1
H	3.742143	1.577368	0.110760	1
H	0.426693	2.359898	-0.330220	1
Es	1.597347	1.841720	-0.308097	99
Es	-2.465588	-1.240097	-0.160235	99
Es	1.166699	-0.071745	-0.033686	99
Es	2.555095	0.975260	0.253508	99
Es	0.533706	0.139326	0.100856	99
Es	0.818484	2.332581	-0.249400	99
Es	-2.812342	-0.800703	0.333328	99
Es	-0.674017	0.617152	0.455218	99
Es	1.096708	-0.056518	0.468342	99
Es	1.045651	0.051401	0.194018	99
Es	1.817862	1.152495	0.156901	99
Es	1.425685	2.335495	-0.140438	99
Es	-0.484999	0.420612	-0.736687	99
Es	1.644872	2.624554	-0.155512	99
Es	-0.661457	-0.537917	0.020845	99
Es	-2.617239	-0.988026	-0.846955	99
Es	-2.735742	-1.929040	-0.095406	99
Es	3.476497	1.277740	0.233131	99
Es	3.017744	0.912133	0.710367	99
Es	1.297385	0.500978	0.181567	99
Es	-1.716871	-1.229924	-0.038021	99
Es	-0.368236	0.151244	-0.045705	99
Es	3.261603	0.303913	0.316515	99
Es	-0.634359	-1.700516	-0.398562	99
Es	-0.827975	-1.505889	0.772064	99
Es	-0.968081	-1.243112	0.088135	99
Es	3.100863	0.868825	0.442705	99
Es	1.503842	1.933394	0.243835	99
45
Properties=species:S:1:pos:R:3:Z:I:1 energy=-341.1872404585062 field_type=dipole dipole="0.000000 0.000000 0.000000" charge=0
C	-2.465627	-1.240102	-0.160240	6
C	-0.968057	-1.243172	0.088150	6
C	-0.368507	0.151278	-0.045750	6
O	1.045783	0.051018	0.194140	8
C	1.817873	1.152818	0.156820	6
N	3.101053	0.868828	0.443310	7
N	1.425933	2.335948	-0.140480	7
H	-2.867907	-2.253482	-0.065780	1
H	-2.695377	-0.875982	-1.166620	1
H	-2.981657	-0.600732	0.562920	1
H	-0.475147	-1.924032	-0.616240	1
H	-0.756747	-1.640092	1.088400	1
H	-0.814857	0.827258	0.692120	1
H	-0.537117	0.537108	-1.057180	1
H	3.371523	-0.083932	0.245890	1
H	3.742143	1.577368	0.110760	1
H	0.426693	2.359898	-0.330220	1
Es	-0.674135	0.617535	0.455205	99
Es	2.553321	0.976595	0.256048	99
Es	3.100810	0.868830	0.442615	99
Es	1.293057	0.500937	0.206176	99
Es	1.425739	2.335528	-0.140432	99
Es	1.045632	0.051423	0.194128	99
Es	-0.368233	0.151244	-0.045703	99
Es	1.598627	1.841960	-0.310377	99
Es	-2.812504	-0.800179	0.333455	99
Es	1.503396	1.932895	0.242539	99
Es	-0.661536	-0.537807	0.020757	99
Es	-0.828330	-1.505553	0.771971	99
Es	0.817912	2.334770	-0.249106	99
Es	-2.465589	-1.240096	-0.160235	99
Es	-2.735640	-1.929304	-0.095503	99
Es	3.475549	1.277493	0.233914	99
Es	1.150459	-0.003594	-0.040837	99
Es	-0.634167	-1.701023	-0.398612	99
Es	-0.484805	0.420337	-0.736514	99
Es	-2.616852	-0.988303	-0.846792	99
Es	3.263274	0.301684	0.320348	99
Es	1.118830	-0.125729	0.443412	99
Es	1.817862	1.152497	0.156898	99
Es	0.532526	0.140360	0.107995	99
Es	1.644193	2.622823	-0.151994	99
Es	3.018792	0.912987	0.703246	99
Es	-1.716968	-1.229860	-0.038108	99
Es	-0.968082	-1.243115	0.088135	99
45
Properties=species:S:1:pos:R:3:Z:I:1 energy=-341.1872404585062 field_type=dipole dipole="0.000000 0.000000 0.000000" charge=0
C	-2.465627	-1.240102	-0.160240	6
C	-0.968057	-1.243172	0.088150	6
C	-0.368507	0.151278	-0.045750	6
O	1.045783	0.051018	0.194140	8
C	1.817873	1.152818	0.156820	6
N	3.101053	0.868828	0.443310	7
N	1.425933	2.335948	-0.140480	7
H	-2.867907	-2.253482	-0.065780	1
H	-2.695377	-0.875982	-1.166620	1
H	-2.981657	-0.600732	0.562920	1
H	-0.475147	-1.924032	-0.616240	1
H	-0.756747	-1.640092	1.088400	1
H	-0.814857	0.827258	0.692120	1
H	-0.537117	0.537108	-1.057180	1
H	3.371523	-0.083932	0.245890	1
H	3.742143	1.577368	0.110760	1
H	0.426693	2.359898	-0.330220	1
Es	2.553275	0.977108	0.255495	99
Es	-0.368233	0.151245	-0.045702	99
Es	-0.661756	-0.537739	0.020635	99
Es	1.501897	1.936571	0.242808	99
Es	-0.968082	-1.243115	0.088135	99
Es	-0.828492	-1.505347	0.772106	99
Es	-0.674307	0.617860	0.455343	99
Es	3.100845	0.868825	0.442677	99
Es	1.643864	2.620699	-0.151808	99
Es	-0.634007	-1.701301	-0.398925	99
Es	-2.465588	-1.240096	-0.160235	99
Es	1.292748	0.500865	0.212369	99
Es	-0.484611	0.420080	-0.736482	99
Es	3.474592	1.276564	0.233968	99
Es	-2.735408	-1.929323	-0.095654	99
Es	3.018524	0.914288	0.701180	99
Es	-2.616708	-0.988404	-0.846797	99
Es	-1.716916	-1.229953	-0.038194	99
Es	-2.812585	-0.799915	0.333850	99
Es	1.817864	1.152497	0.156890	99
Es	1.600363	1.838664	-0.310099	99
Es	1.139548	0.026400	-0.030544	99
Es	3.264408	0.300626	0.322825	99
Es	0.532084	0.140197	0.109867	99
Es	0.817881	2.336689	-0.249724	99
Es	1.045670	0.051487	0.194219	99
Es	1.425684	2.335492	-0.140433	99
Es	1.130583	-0.155625	0.424859	99
45
Properties=species:S:1:pos:R:3:Z:I:1 energy=-341.1872404585062 field_type=dipole dipole="0.000000 0.000000 0.000000" charge=0
C	-2.465627	-1.240102	-0.160240	6
C	-0.968057	-1.243172	0.088150	6
C	-0.368507	0.151278	-0.045750	6
O	1.045783	0.051018	0.194140	8
C	1.817873	1.152818	0.156820	6
N	3.101053	0.868828	0.443310	7
N	1.425933	2.335948	-0.140480	7
H	-2.867907	-2.253482	-0.065780	1
H	-2.695377	-0.875982	-1.166620	1
H	-2.981657	-0.600732	0.562920	1
H	-0.475147	-1.924032	-0.616240	1
H	-0.756747	-1.640092	1.088400	1
H	-0.814857	0.827258	0.692120	1
H	-0.537117	0.537108	-1.057180	1
H	3.371523	-0.083932	0.245890	1
H	3.742143	1.577368	0.110760	1
H	0.426693	2.359898	-0.330220	1
Es	-0.484586	0.420275	-0.736524	99
Es	-0.634100	-1.701331	-0.399260	99
Es	0.532164	0.140453	0.110106	99
Es	-2.735238	-1.929435	-0.095595	99
Es	1.817863	1.152495	0.156895	99
Es	-0.828430	-1.505428	0.772164	99
Es	3.265094	0.300124	0.323912	99
Es	1.135927	-0.170702	0.412741	99
Es	1.600061	1.840768	-0.312402	99
Es	1.290702	0.499811	0.219631	99
Es	3.100775	0.868836	0.442620	99
Es	-0.368232	0.151244	-0.045704	99
Es	-1.717071	-1.229877	-0.037976	99
Es	1.045640	0.051428	0.194177	99
Es	-2.616511	-0.988438	-0.846975	99
Es	-2.465589	-1.240096	-0.160235	99
Es	1.425675	2.335489	-0.140422	99
Es	1.502954	1.934510	0.243246	99
Es	1.136290	0.042290	-0.025877	99
Es	-0.661911	-0.537740	0.020634	99
Es	-2.812584	-0.799759	0.333971	99
Es	-0.968082	-1.243114	0.088133	99
Es	2.551892	0.977812	0.257302	99
Es	-0.674218	0.617765	0.455456	99
Es	3.019505	0.913882	0.697678	99
Es	3.474302	1.276638	0.234665	99
Es	1.643173	2.619171	-0.150550	99
Es	0.817670	2.338267	-0.249178	99
45
Properties=species:S:1:pos:R:3:Z:I:1 energy=-341.1872404585062 field_type=dipole dipole="0.000000 0.000000 0.000000" charge=0
C	-2.465627	-1.240102	-0.160240	6
C	-0.968057	-1.243172	0.088150	6
C	-0.368507	0.151278	-0.045750	6
O	1.045783	0.051018	0.194140	8
C	1.817873	1.152818	0.156820	6
N	3.101053	0.868828	0.443310	7
N	1.425933	2.335948	-0.140480	7
H	-2.867907	-2.253482	-0.065780	1
H	-2.695377	-0.875982	-1.166620	1
H	-2.981657	-0.600732	0.562920	1
H	-0.475147	-1.924032	-0.616240	1
H	-0.756747	-1.640092	1.088400	1
H	-0.814857	0.827258	0.692120	1
H	-0.537117	0.537108	-1.057180	1
H	3.371523	-0.083932	0.245890	1
H	3.742143	1.577368	0.110760	1
H	0.426693	2.359898	-0.330220	1
Es	-0.828666	-1.505379	0.772361	99
Es	-0.634048	-1.701473	-0.399359	99
Es	1.501859	1.937879	0.244072	99
Es	1.600549	1.837807	-0.310684	99
Es	3.265523	0.299561	0.325825	99
Es	-0.968082	-1.243114	0.088137	99
Es	2.552173	0.977636	0.256980	99
Es	-0.674285	0.617909	0.455434	99
Es	-2.465590	-1.240096	-0.160235	99
Es	1.142818	-0.184766	0.398525	99
Es	3.100895	0.868830	0.442739	99
Es	-0.484522	0.420073	-0.736691	99
Es	3.473011	1.275456	0.232527	99
Es	1.289487	0.498897	0.224386	99
Es	0.817808	2.339487	-0.249962	99
Es	1.643551	2.617617	-0.152283	99
Es	-2.812628	-0.799680	0.334152	99
Es	1.817863	1.152497	0.156893	99
Es	1.131240	0.057374	-0.017880	99
Es	-0.661964	-0.537596	0.020734	99
Es	-2.616437	-0.988502	-0.847177	99
Es	1.045641	0.051393	0.194070	99
Es	-0.368238	0.151244	-0.045702	99
Es	-2.735048	-1.929359	-0.095564	99
Es	0.531612	0.140375	0.111687	99
Es	1.425679	2.335475	-0.140420	99
Es	-1.716959	-1.229925	-0.038058	99
Es	3.019898	0.915717	0.698125	99
45
Properties=species:S:1:pos:R:3:Z:I:1 energy=-341.1872404585062 field_type=dipole dipole="0.000000 0.000000 0.000000" charge=0
C	-2.465627	-1.240102	-0.160240	6
C	-0.968057	-1.243172	0.088150	6
C	-0.368507	0.151278	-0.045750	6
O	1.045783	0.051018	0.194140	8
C	1.817873	1.152818	0.156820	6
N	3.101053	0.868828	0.443310	7
N	1.425933	2.335948	-0.140480	7
H	-2.867907	-2.253482	-0.065780	1
H	-2.695377	-0.875982	-1.166620	1
H	-2.981657	-0.600732	0.562920	1
H	-0.475147	-1.924032	-0.616240	1
H	-0.756747	-1.640092	1.088400	1
H	-0.814857	0.827258	0.692120	1
H	-0.537117	0.537108	-1.057180	1
H	3.371523	-0.083932	0.245890	1
H	3.742143	1.577368	0.110760	1
H	0.426693	2.359898	-0.330220	1
Es	3.472108	1.273066	0.229836	99
Es	1.425683	2.335494	-0.140440	99
Es	1.817863	1.152496	0.156898	99
Es	-0.635527	-1.698998	-0.398850	99
Es	-0.827411	-1.507347	0.774117	99
Es	1.596242	1.844655	-0.308109	99
Es	3.100889	0.868823	0.442734	99
Es	-0.368232	0.151244	-0.045703	99
Es	-2.465590	-1.240096	-0.160235	99
Es	1.053126	0.134028	0.387464	99
Es	-0.673107	0.616000	0.455342	99
Es	-1.717056	-1.229815	-0.038248	99
Es	-2.810974	-0.802132	0.333606	99
Es	0.539152	0.134573	0.074006	99
Es	2.555756	0.975573	0.249952	99
Es	1.644486	2.615518	-0.158370	99
Es	3.266124	0.299758	0.329954	99
Es	1.309350	0.481077	0.117594	99
Es	-2.617898	-0.986624	-0.849056	99
Es	1.045697	0.051407	0.193960	99
Es	-0.485573	0.421700	-0.737847	99
Es	-0.662123	-0.537500	0.020734	99
Es	0.818606	2.339519	-0.253954	99
Es	3.016503	0.920040	0.704179	99
Es	-0.968082	-1.243115	0.088135	99
Es	1.504518	1.932854	0.250487	99
Es	1.193427	-0.237700	0.138552	99
Es	-2.734821	-1.929161	-0.094107	99
45
Properties=species:S:1:pos:R:3:Z:I:1 energy=-341.1872404585062 field_type=dipole dipole="0.000000 0.000000 0.000000" charge=0
C	-2.465627	-1.240102	-0.160240	6
C	-0.968057	-1.243172	0.088150	6
C	-0.368507	0.151278	-0.045750	6
O	1.045783	0.051018	0.194140	8
C	1.817873	1.152818	0.156820	6
N	3.101053	0.868828	0.443310	7
N	1.425933	2.335948	-0.140480	7
H	-2.867907	-2.253482	-0.065780	1
H	-2.695377	-0.875982	-1.166620	1
H	-2.981657	-0.600732	0.562920	1
H	-0.475147	-1.924032	-0.616240	1
H	-0.756747	-1.640092	1.088400	1
H	-0.814857	0.827258	0.692120	1
H	-0.537117	0.537108	-1.057180	1
H	3.371523	-0.083932	0.245890	1
H	3.742143	1.577368	0.110760	1
H	0.426693	2.359898	-0.330220	1
Es	-0.635618	-1.699112	-0.398853	99
Es	-0.673082	0.616062	0.455326	99
Es	1.052144	0.134549	0.382968	99
Es	1.595869	1.845144	-0.308359	99
Es	-0.485551	0.421660	-0.737851	99
Es	-0.968082	-1.243115	0.088135	99
Es	1.505124	1.932665	0.251096	99
Es	1.309211	0.481592	0.119670	99
Es	3.100964	0.868814	0.442896	99
Es	-2.810856	-0.802008	0.333691	99
Es	1.425710	2.335494	-0.140432	99
Es	3.015825	0.921247	0.703351	99
Es	-2.465589	-1.240096	-0.160235	99
Es	0.539636	0.134994	0.073014	99
Es	1.194177	-0.239092	0.141904	99
Es	0.818516	2.340077	-0.253862	99
Es	-0.368232	0.151245	-0.045704	99
Es	3.471577	1.272462	0.229367	99
Es	3.266590	0.299230	0.332011	99
Es	-1.717034	-1.230052	-0.038193	99
Es	-0.827461	-1.507323	0.774144	99
Es	-2.735020	-1.929043	-0.094155	99
Es	-2.617754	-0.986560	-0.849098	99
Es	2.556407	0.975470	0.249040	99
Es	1.644198	2.614675	-0.158881	99
Es	1.817862	1.152496	0.156898	99
Es	1.045656	0.051364	0.194045	99
Es	-0.662051	-0.537501	0.020698	99
