44
Properties=species:S:1:pos:R:3:Z:I:1 energy=-360.94849485537554 field_type=dipole dipole="0.000000 0.000000 0.000000" charge=0
C	-1.450796	-0.752616	-0.008706	6
C	0.039574	-0.610586	-0.295176	6
C	0.460494	-1.525836	-1.438696	6
O	0.318894	0.742294	-0.709826	8
C	0.579844	1.663784	0.246314	6
N	0.604264	1.413074	1.509174	7
O	0.911574	2.592334	2.200004	8
H	-1.755096	-0.092526	0.809784	1
H	-1.705086	-1.781066	0.264994	1
H	-2.046316	-0.464186	-0.881816	1
H	0.627004	-0.875596	0.591884	1
H	-0.071506	-1.273106	-2.362496	1
H	0.269914	-2.576216	-1.198706	1
H	1.528744	-1.404346	-1.647966	1
H	0.769634	2.649514	-0.208196	1
H	0.918854	2.295074	3.129434	1
Es	0.912602	2.426966	2.694477	99
Es	0.884066	1.450111	0.971452	99
Es	0.318892	0.742277	-0.709513	99
Es	0.305193	1.580042	1.008181	99
Es	0.545265	1.098046	1.703328	99
Es	0.460484	-1.525831	-1.438669	99
Es	0.604378	1.413610	1.508878	99
Es	0.326054	-2.236600	-1.265124	99
Es	0.911525	2.592015	2.200152	99
Es	-1.613301	-1.455266	0.175460	99
Es	0.706734	2.323060	-0.052898	99
Es	0.438579	-0.785848	0.305298	99
Es	0.246975	-1.066237	-0.875598	99
Es	1.201102	2.665821	2.115945	99
Es	0.082354	0.861906	-0.833253	99
Es	0.404080	1.061135	-0.298105	99
Es	-1.652957	-0.308358	0.545362	99
Es	0.039592	-0.610338	-0.295298	99
Es	-1.847897	-0.561932	-0.608485	99
Es	0.777176	2.073642	1.891247	99
Es	0.669326	2.779925	2.154985	99
Es	0.580770	0.756833	-0.833995	99
Es	-1.450766	-0.752625	-0.008710	99
Es	0.579782	1.663577	0.246115	99
Es	0.091483	-1.354288	-2.061088	99
Es	0.222788	0.264680	-0.515658	99
Es	-0.710952	-0.679040	-0.149253	99
Es	1.187305	-1.445053	-1.574464	99
44
Properties=species:S:1:pos:R:3:Z:I:1 energy=-360.94849485537554 field_type=dipole dipole="0.000000 0.000000 0.000000" charge=0
C	-1.450796	-0.752616	-0.008706	6
C	0.039574	-0.610586	-0.295176	6
C	0.460494	-1.525836	-1.438696	6
O	0.318894	0.742294	-0.709826	8
C	0.579844	1.663784	0.246314	6
N	0.604264	1.413074	1.509174	7
O	0.911574	2.592334	2.200004	8
H	-1.755096	-0.092526	0.809784	1
H	-1.705086	-1.781066	0.264994	1
H	-2.046316	-0.464186	-0.881816	1
H	0.627004	-0.875596	0.591884	1
H	-0.071506	-1.273106	-2.362496	1
H	0.269914	-2.576216	-1.198706	1
H	1.528744	-1.404346	-1.647966	1
H	0.769634	2.649514	-0.208196	1
H	0.918854	2.295074	3.129434	1
Es	-1.652321	-0.307561	0.547493	99
Es	-1.847572	-0.562258	-0.610826	99
Es	0.604370	1.413626	1.508875	99
Es	1.192607	2.667642	2.114863	99
Es	0.911566	2.592103	2.200107	99
Es	0.677347	2.774725	2.153738	99
Es	0.328011	-2.236068	-1.265341	99
Es	-0.711310	-0.678907	-0.149162	99
Es	0.437777	-0.785844	0.307289	99
Es	0.039590	-0.610336	-0.295299	99
Es	0.777106	2.073577	1.888718	99
Es	0.913048	2.429818	2.701164	99
Es	0.388299	1.069185	-0.296264	99
Es	0.246719	-1.066321	-0.875108	99
Es	-1.450769	-0.752626	-0.008711	99
Es	-1.611309	-1.454744	0.174873	99
Es	0.214781	0.266118	-0.517892	99
Es	0.579785	1.663576	0.246110	99
Es	0.111560	0.859197	-0.900403	99
Es	0.543601	1.096469	1.702095	99
Es	0.307996	1.580937	1.008115	99
Es	0.574939	0.750108	-0.766910	99
Es	0.706843	2.322890	-0.052618	99
Es	0.882675	1.451251	0.971276	99
Es	0.091935	-1.354210	-2.064182	99
Es	0.319040	0.742200	-0.709398	99
Es	1.183833	-1.446484	-1.573161	99
Es	0.460484	-1.525831	-1.438671	99
44
Properties=species:S:1:pos:R:3:Z:I:1 energy=-360.94849485537554 field_type=dipole dipole="0.000000 0.000000 0.000000" charge=0
C	-1.450796	-0.752616	-0.008706	6
C	0.039574	-0.610586	-0.295176	6
C	0.460494	-1.525836	-1.438696	6
O	0.318894	0.742294	-0.709826	8
C	0.579844	1.663784	0.246314	6
N	0.604264	1.413074	1.509174	7
O	0.911574	2.592334	2.200004	8
H	-1.755096	-0.092526	0.809784	1
H	-1.705086	-1.781066	0.264994	1
H	-2.046316	-0.464186	-0.881816	1
H	0.627004	-0.875596	0.591884	1
H	-0.071506	-1.273106	-2.362496	1
H	0.269914	-2.576216	-1.198706	1
H	1.528744	-1.404346	-1.647966	1
H	0.769634	2.649514	-0.208196	1
H	0.918854	2.295074	3.129434	1
Es	1.182907	-1.447054	-1.572421	99
Es	0.579775	1.663576	0.246105	99
Es	0.091303	-1.354547	-2.065828	99
Es	-1.848438	-0.562475	-0.612278	99
Es	-1.450769	-0.752626	-0.008710	99
Es	0.235653	0.259970	-0.522163	99
Es	0.604369	1.413620	1.508855	99
Es	0.705951	2.322708	-0.052294	99
Es	0.444355	0.795108	-0.998705	99
Es	-0.711306	-0.679051	-0.149462	99
Es	0.678332	2.779491	2.153576	99
Es	0.881825	1.452776	0.972318	99
Es	0.460483	-1.525830	-1.438671	99
Es	-1.610145	-1.453489	0.174937	99
Es	0.776140	2.073711	1.888424	99
Es	0.304226	1.579643	1.007536	99
Es	0.911458	2.592044	2.200149	99
Es	-1.651738	-0.308062	0.548352	99
Es	0.456063	1.057706	-0.303122	99
Es	0.318897	0.742213	-0.709408	99
Es	0.549425	1.096496	1.700838	99
Es	1.187435	2.663005	2.115502	99
Es	0.329144	-2.234729	-1.265203	99
Es	0.039592	-0.610340	-0.295298	99
Es	0.437836	-0.786154	0.308368	99
Es	0.918707	2.429207	2.701779	99
Es	0.152804	0.831808	-0.657784	99
Es	0.246348	-1.066495	-0.874623	99
44
Properties=species:S:1:pos:R:3:Z:I:1 energy=-360.94849485537554 field_type=dipole dipole="0.000000 0.000000 0.000000" charge=0
C	-1.450796	-0.752616	-0.008706	6
C	0.039574	-0.610586	-0.295176	6
C	0.460494	-1.525836	-1.438696	6
O	0.318894	0.742294	-0.709826	8
C	0.579844	1.663784	0.246314	6
N	0.604264	1.413074	1.509174	7
O	0.911574	2.592334	2.200004	8
H	-1.755096	-0.092526	0.809784	1
H	-1.705086	-1.781066	0.264994	1
H	-2.046316	-0.464186	-0.881816	1
H	0.627004	-0.875596	0.591884	1
H	-0.071506	-1.273106	-2.362496	1
H	0.269914	-2.576216	-1.198706	1
H	1.528744	-1.404346	-1.647966	1
H	0.769634	2.649514	-0.208196	1
H	0.918854	2.295074	3.129434	1
Es	0.460484	-1.525831	-1.438671	99
Es	0.318720	0.742416	-0.709224	99
Es	0.437343	-0.785572	0.308325	99
Es	0.579778	1.663578	0.246102	99
Es	0.211348	0.845799	-0.996783	99
Es	0.307750	1.581510	1.008299	99
Es	-0.711064	-0.679329	-0.149274	99
Es	0.039592	-0.610344	-0.295296	99
Es	-1.609952	-1.452753	0.173999	99
Es	0.707222	2.322305	-0.052318	99
Es	0.912832	2.431199	2.703612	99
Es	1.182888	-1.447482	-1.572741	99
Es	0.884096	1.450205	0.971080	99
Es	0.329133	-2.234240	-1.265887	99
Es	0.492349	0.753530	-0.668414	99
Es	0.091641	-1.354941	-2.065640	99
Es	-1.652331	-0.307635	0.549459	99
Es	0.246281	-1.066766	-0.874366	99
Es	-1.450770	-0.752626	-0.008711	99
Es	0.378113	1.077149	-0.296714	99
Es	0.542035	1.098040	1.700639	99
Es	0.776543	2.073647	1.887985	99
Es	0.207891	0.267633	-0.520060	99
Es	1.189768	2.675611	2.111421	99
Es	-1.847890	-0.563130	-0.612212	99
Es	0.604371	1.413628	1.508878	99
Es	0.680880	2.764678	2.157128	99
Es	0.911577	2.591948	2.200155	99
44
Properties=species:S:1:pos:R:3:Z:I:1 energy=-360.94849485537554 field_type=dipole dipole="0.000000 0.000000 0.000000" charge=0
C	-1.450796	-0.752616	-0.008706	6
C	0.039574	-0.610586	-0.295176	6
C	0.460494	-1.525836	-1.438696	6
O	0.318894	0.742294	-0.709826	8
C	0.579844	1.663784	0.246314	6
N	0.604264	1.413074	1.509174	7
O	0.911574	2.592334	2.200004	8
H	-1.755096	-0.092526	0.809784	1
H	-1.705086	-1.781066	0.264994	1
H	-2.046316	-0.464186	-0.881816	1
H	0.627004	-0.875596	0.591884	1
H	-0.071506	-1.273106	-2.362496	1
H	0.269914	-2.576216	-1.198706	1
H	1.528744	-1.404346	-1.647966	1
H	0.769634	2.649514	-0.208196	1
H	0.918854	2.295074	3.129434	1
Es	0.318573	0.742560	-0.708933	99
Es	0.910935	2.432109	2.704290	99
Es	0.775421	2.073815	1.888065	99
Es	0.579782	1.663575	0.246108	99
Es	-1.652421	-0.307871	0.550018	99
Es	0.460483	-1.525830	-1.438671	99
Es	-1.450770	-0.752626	-0.008710	99
Es	0.208590	0.267738	-0.519984	99
Es	1.182833	-1.447764	-1.572613	99
Es	0.456159	0.757209	-0.657594	99
Es	1.189575	2.668298	2.114668	99
Es	0.684176	2.770637	2.153528	99
Es	0.246173	-1.066889	-0.874100	99
Es	-1.609593	-1.451980	0.173695	99
Es	0.329430	-2.233497	-1.266066	99
Es	0.091469	-1.355235	-2.066027	99
Es	0.306939	1.581416	1.008687	99
Es	-1.848149	-0.563411	-0.612490	99
Es	0.235927	0.841638	-1.009044	99
Es	0.437298	-0.785537	0.308515	99
Es	0.911543	2.591971	2.200155	99
Es	0.389063	1.077309	-0.295647	99
Es	0.542208	1.098774	1.700256	99
Es	0.039590	-0.610341	-0.295297	99
Es	0.884668	1.449910	0.970765	99
Es	0.604365	1.413627	1.508861	99
Es	-0.710958	-0.679457	-0.149391	99
Es	0.707321	2.322081	-0.052275	99
44
Properties=species:S:1:pos:R:3:Z:I:1 energy=-360.94849485537554 field_type=dipole dipole="0.000000 0.000000 0.000000" charge=0
C	-1.450796	-0.752616	-0.008706	6
C	0.039574	-0.610586	-0.295176	6
C	0.460494	-1.525836	-1.438696	6
O	0.318894	0.742294	-0.709826	8
C	0.579844	1.663784	0.246314	6
N	0.604264	1.413074	1.509174	7
O	0.911574	2.592334	2.200004	8
H	-1.755096	-0.092526	0.809784	1
H	-1.705086	-1.781066	0.264994	1
H	-2.046316	-0.464186	-0.881816	1
H	0.627004	-0.875596	0.591884	1
H	-0.071506	-1.273106	-2.362496	1
H	0.269914	-2.576216	-1.198706	1
H	1.528744	-1.404346	-1.647966	1
H	0.769634	2.649514	-0.208196	1
H	0.918854	2.295074	3.129434	1
Es	0.039592	-0.610341	-0.295296	99
Es	0.329760	-2.232910	-1.266095	99
Es	0.318710	0.742885	-0.708426	99
Es	1.182577	-1.448003	-1.572381	99
Es	0.685659	2.769423	2.154358	99
Es	-1.609149	-1.451431	0.173673	99
Es	0.091293	-1.355411	-2.066532	99
Es	0.911539	2.592166	2.200094	99
Es	0.604366	1.413625	1.508869	99
Es	0.542719	1.099085	1.699735	99
Es	-0.710909	-0.679494	-0.149451	99
Es	-1.652308	-0.308036	0.550344	99
Es	0.460484	-1.525830	-1.438670	99
Es	0.579784	1.663574	0.246107	99
Es	0.439203	0.759645	-0.652292	99
Es	-1.848407	-0.563644	-0.612947	99
Es	0.246049	-1.067001	-0.873960	99
Es	0.389981	1.077504	-0.295469	99
Es	0.437293	-0.785537	0.308876	99
Es	0.911608	2.432351	2.704776	99
Es	1.188646	2.668499	2.114202	99
Es	0.774189	2.074156	1.887782	99
Es	0.208660	0.267685	-0.520261	99
Es	0.707140	2.321984	-0.052223	99
Es	-1.450770	-0.752626	-0.008711	99
Es	0.251524	0.838642	-1.014824	99
Es	0.884951	1.449851	0.971254	99
Es	0.306445	1.581419	1.008240	99
44
Properties=species:S:1:pos:R:3:Z:I:1 energy=-360.94849485537554 field_type=dipole dipole="0.000000 0.000000 0.000000" charge=0
C	-1.450796	-0.752616	-0.008706	6
C	0.039574	-0.610586	-0.295176	6
C	0.460494	-1.525836	-1.438696	6
O	0.318894	0.742294	-0.709826	8
C	0.579844	1.663784	0.246314	6
N	0.604264	1.413074	1.509174	7
O	0.911574	2.592334	2.200004	8
H	-1.755096	-0.092526	0.809784	1
H	-1.705086	-1.781066	0.264994	1
H	-2.046316	-0.464186	-0.881816	1
H	0.627004	-0.875596	0.591884	1
H	-0.071506	-1.273106	-2.362496	1
H	0.269914	-2.576216	-1.198706	1
H	1.528744	-1.404346	-1.647966	1
H	0.769634	2.649514	-0.208196	1
H	0.918854	2.295074	3.129434	1
Es	1.182109	-1.448294	-1.572149	99
Es	0.579777	1.663577	0.246109	99
Es	0.330000	-2.232535	-1.266211	99
Es	0.437240	-0.785534	0.309095	99
Es	0.318826	0.742235	-0.709438	99
Es	0.915115	2.431716	2.704877	99
Es	-1.450769	-0.752626	-0.008711	99
Es	0.039591	-0.610341	-0.295298	99
Es	0.543613	1.099158	1.699388	99
Es	-1.652243	-0.308104	0.550739	99
Es	0.707086	2.321889	-0.052153	99
Es	-1.608826	-1.451025	0.173498	99
Es	0.245966	-1.067037	-0.873786	99
Es	0.091396	-1.355489	-2.066990	99
Es	0.775919	2.073665	1.887780	99
Es	0.604371	1.413624	1.508861	99
Es	0.911552	2.591963	2.200167	99
Es	0.305754	1.581331	1.008310	99
Es	0.460484	-1.525831	-1.438671	99
Es	0.391376	1.077271	-0.295006	99
Es	-1.848411	-0.563785	-0.613326	99
Es	0.431165	0.762014	-0.649760	99
Es	1.186485	2.679874	2.108975	99
Es	0.210615	0.267866	-0.520158	99
Es	0.682548	2.759135	2.159763	99
Es	0.256062	0.836939	-1.016980	99
Es	0.884810	1.450124	0.971228	99
Es	-0.710979	-0.679550	-0.149384	99
44
Properties=species:S:1:pos:R:3:Z:I:1 energy=-360.94849485537554 field_type=dipole dipole="0.000000 0.000000 0.000000" charge=0
C	-1.450796	-0.752616	-0.008706	6
C	0.039574	-0.610586	-0.295176	6
C	0.460494	-1.525836	-1.438696	6
O	0.318894	0.742294	-0.709826	8
C	0.579844	1.663784	0.246314	6
N	0.604264	1.413074	1.509174	7
O	0.911574	2.592334	2.200004	8
H	-1.755096	-0.092526	0.809784	1
H	-1.705086	-1.781066	0.264994	1
H	-2.046316	-0.464186	-0.881816	1
H	0.627004	-0.875596	0.591884	1
H	-0.071506	-1.273106	-2.362496	1
H	0.269914	-2.576216	-1.198706	1
H	1.528744	-1.404346	-1.647966	1
H	0.769634	2.649514	-0.208196	1
H	0.918854	2.295074	3.129434	1
Es	-1.652315	-0.308234	0.550943	99
Es	0.039592	-0.610345	-0.295295	99
Es	0.318809	0.742246	-0.709411	99
Es	0.706990	2.321832	-0.052150	99
Es	0.245932	-1.067196	-0.873760	99
Es	1.187525	2.674173	2.111525	99
Es	-1.608674	-1.450497	0.173420	99
Es	0.408688	0.766249	-0.646186	99
Es	0.330200	-2.232051	-1.266137	99
Es	0.579789	1.663573	0.246107	99
Es	-1.848554	-0.564007	-0.613541	99
Es	0.398036	1.076611	-0.294647	99
Es	-1.450770	-0.752626	-0.008710	99
Es	0.685521	2.763549	2.156853	99
Es	0.912496	2.432554	2.705370	99
Es	1.182184	-1.448370	-1.572076	99
Es	0.543665	1.099328	1.699232	99
Es	-0.710799	-0.679674	-0.149382	99
Es	0.460484	-1.525831	-1.438672	99
Es	0.885044	1.450013	0.971547	99
Es	0.305564	1.581405	1.008002	99
Es	0.213689	0.266882	-0.520263	99
Es	0.774561	2.073987	1.887817	99
Es	0.911576	2.591958	2.200160	99
Es	0.437228	-0.785455	0.309239	99
Es	0.091117	-1.355735	-2.067220	99
Es	0.604371	1.413637	1.508864	99
Es	0.268681	0.834252	-1.020860	99
44
Properties=species:S:1:pos:R:3:Z:I:1 energy=-360.94849485537554 field_type=dipole dipole="0.000000 0.000000 0.000000" charge=0
C	-1.450796	-0.752616	-0.008706	6
C	0.039574	-0.610586	-0.295176	6
C	0.460494	-1.525836	-1.438696	6
O	0.318894	0.742294	-0.709826	8
C	0.579844	1.663784	0.246314	6
N	0.604264	1.413074	1.509174	7
O	0.911574	2.592334	2.200004	8
H	-1.755096	-0.092526	0.809784	1
H	-1.705086	-1.781066	0.264994	1
H	-2.046316	-0.464186	-0.881816	1
H	0.627004	-0.875596	0.591884	1
H	-0.071506	-1.273106	-2.362496	1
H	0.269914	-2.576216	-1.198706	1
H	1.528744	-1.404346	-1.647966	1
H	0.769634	2.649514	-0.208196	1
H	0.918854	2.295074	3.129434	1
Es	1.181695	-1.448622	-1.571775	99
Es	0.091404	-1.355607	-2.067624	99
Es	0.245839	-1.067237	-0.873618	99
Es	0.604370	1.413628	1.508866	99
Es	0.460484	-1.525831	-1.438671	99
Es	0.318998	0.742192	-0.709407	99
Es	0.914923	2.432379	2.705520	99
Es	0.579784	1.663574	0.246107	99
Es	0.412853	0.764769	-0.646335	99
Es	0.884725	1.450095	0.971317	99
Es	0.543508	1.099199	1.699151	99
Es	1.185335	2.676338	2.110529	99
Es	0.911515	2.592031	2.200130	99
Es	0.684641	2.761520	2.158374	99
Es	-1.652283	-0.308308	0.551147	99
Es	0.039591	-0.610341	-0.295297	99
Es	-1.848584	-0.564114	-0.613772	99
Es	0.305800	1.581472	1.008225	99
Es	-0.710771	-0.679526	-0.149458	99
Es	0.775337	2.073901	1.887283	99
Es	-1.450770	-0.752626	-0.008711	99
Es	0.330318	-2.231878	-1.266341	99
Es	0.210552	0.268644	-0.520266	99
Es	0.437093	-0.785512	0.309498	99
Es	0.707161	2.321823	-0.052095	99
Es	0.268533	0.834323	-1.021044	99
Es	-1.608328	-1.450380	0.173353	99
Es	0.396909	1.076321	-0.294316	99
44
Properties=species:S:1:pos:R:3:Z:I:1 energy=-360.94849485537554 field_type=dipole dipole="0.000000 0.000000 0.000000" charge=0
C	-1.450796	-0.752616	-0.008706	6
C	0.039574	-0.610586	-0.295176	6
C	0.460494	-1.525836	-1.438696	6
O	0.318894	0.742294	-0.709826	8
C	0.579844	1.663784	0.246314	6
N	0.604264	1.413074	1.509174	7
O	0.911574	2.592334	2.200004	8
H	-1.755096	-0.092526	0.809784	1
H	-1.705086	-1.781066	0.264994	1
H	-2.046316	-0.464186	-0.881816	1
H	0.627004	-0.875596	0.591884	1
H	-0.071506	-1.273106	-2.362496	1
H	0.269914	-2.576216	-1.198706	1
H	1.528744	-1.404346	-1.647966	1
H	0.769634	2.649514	-0.208196	1
H	0.918854	2.295074	3.129434	1
Es	0.305240	1.581331	1.008209	99
Es	0.914642	2.432613	2.705742	99
Es	0.318202	0.743763	-0.706993	99
Es	0.404245	1.075417	-0.294334	99
Es	0.604366	1.413628	1.508853	99
Es	0.039591	-0.610340	-0.295297	99
Es	0.544004	1.099551	1.698752	99
Es	-1.450770	-0.752627	-0.008710	99
Es	-1.608256	-1.450067	0.173257	99
Es	0.774493	2.073948	1.887573	99
Es	0.091141	-1.355785	-2.067640	99
Es	-1.848678	-0.564115	-0.613939	99
Es	0.245792	-1.067264	-0.873549	99
Es	0.280970	0.831632	-1.024044	99
Es	1.185217	2.673375	2.111629	99
Es	0.685777	2.763944	2.157136	99
Es	0.437196	-0.785523	0.309525	99
Es	1.181758	-1.448633	-1.571876	99
Es	0.579784	1.663574	0.246106	99
Es	-0.710897	-0.679644	-0.149396	99
Es	0.707031	2.321739	-0.052073	99
Es	0.391399	0.767633	-0.645798	99
Es	0.460484	-1.525832	-1.438671	99
Es	0.330473	-2.231599	-1.266327	99
Es	-1.652170	-0.308426	0.551354	99
Es	0.213022	0.267748	-0.520241	99
Es	0.885026	1.450136	0.971379	99
Es	0.911549	2.592051	2.200144	99
44
Properties=species:S:1:pos:R:3:Z:I:1 energy=-360.94849485537554 field_type=dipole dipole="0.000000 0.000000 0.000000" charge=0
C	-1.450796	-0.752616	-0.008706	6
C	0.039574	-0.610586	-0.295176	6
C	0.460494	-1.525836	-1.438696	6
O	0.318894	0.742294	-0.709826	8
C	0.579844	1.663784	0.246314	6
N	0.604264	1.413074	1.509174	7
O	0.911574	2.592334	2.200004	8
H	-1.755096	-0.092526	0.809784	1
H	-1.705086	-1.781066	0.264994	1
H	-2.046316	-0.464186	-0.881816	1
H	0.627004	-0.875596	0.591884	1
H	-0.071506	-1.273106	-2.362496	1
H	0.269914	-2.576216	-1.198706	1
H	1.528744	-1.404346	-1.647966	1
H	0.769634	2.649514	-0.208196	1
H	0.918854	2.295074	3.129434	1
Es	0.039591	-0.610343	-0.295297	99
Es	1.184153	2.678042	2.109553	99
Es	0.402051	1.075501	-0.294053	99
Es	1.181315	-1.448693	-1.571725	99
Es	0.579777	1.663576	0.246107	99
Es	-0.710766	-0.679713	-0.149390	99
Es	0.775103	2.074014	1.887249	99
Es	0.915439	2.432811	2.706063	99
Es	-1.848527	-0.564048	-0.614056	99
Es	0.885020	1.450020	0.971436	99
Es	-1.608270	-1.449987	0.173135	99
Es	0.245726	-1.067208	-0.873575	99
Es	0.305132	1.581238	1.008183	99
Es	0.397477	0.767848	-0.644355	99
Es	-1.652121	-0.308424	0.551504	99
Es	0.911613	2.592013	2.200142	99
Es	0.319075	0.742200	-0.709390	99
Es	0.544078	1.099607	1.698799	99
Es	0.460484	-1.525830	-1.438671	99
Es	-1.450770	-0.752625	-0.008710	99
Es	0.212655	0.268490	-0.520117	99
Es	0.091309	-1.355891	-2.067923	99
Es	0.685334	2.759136	2.159154	99
Es	0.707077	2.321739	-0.052057	99
Es	0.604371	1.413629	1.508861	99
Es	0.276550	0.832174	-1.023498	99
Es	0.330688	-2.231557	-1.266308	99
Es	0.437066	-0.785491	0.309708	99
44
Properties=species:S:1:pos:R:3:Z:I:1 energy=-360.94849485537554 field_type=dipole dipole="0.000000 0.000000 0.000000" charge=0
C	-1.450796	-0.752616	-0.008706	6
C	0.039574	-0.610586	-0.295176	6
C	0.460494	-1.525836	-1.438696	6
O	0.318894	0.742294	-0.709826	8
C	0.579844	1.663784	0.246314	6
N	0.604264	1.413074	1.509174	7
O	0.911574	2.592334	2.200004	8
H	-1.755096	-0.092526	0.809784	1
H	-1.705086	-1.781066	0.264994	1
H	-2.046316	-0.464186	-0.881816	1
H	0.627004	-0.875596	0.591884	1
H	-0.071506	-1.273106	-2.362496	1
H	0.269914	-2.576216	-1.198706	1
H	1.528744	-1.404346	-1.647966	1
H	0.769634	2.649514	-0.208196	1
H	0.918854	2.295074	3.129434	1
Es	0.214352	0.267941	-0.520340	99
Es	0.884927	1.450454	0.971034	99
Es	0.305008	1.581234	1.008573	99
Es	0.330698	-2.231259	-1.266219	99
Es	-1.450770	-0.752626	-0.008711	99
Es	0.774785	2.073898	1.887484	99
Es	0.686172	2.763035	2.157316	99
Es	0.460484	-1.525830	-1.438671	99
Es	1.181386	-1.448828	-1.571702	99
Es	0.914423	2.432791	2.705968	99
Es	0.579783	1.663573	0.246104	99
Es	0.245819	-1.067166	-0.873545	99
Es	1.184791	2.674001	2.111553	99
Es	0.437086	-0.785538	0.309776	99
Es	0.039592	-0.610344	-0.295295	99
Es	0.408207	1.074362	-0.293963	99
Es	-1.607944	-1.449649	0.173239	99
Es	-1.652065	-0.308500	0.551584	99
Es	-1.848834	-0.564345	-0.614229	99
Es	0.911537	2.592045	2.200148	99
Es	0.544394	1.099485	1.698493	99
Es	0.604364	1.413638	1.508880	99
Es	-0.710866	-0.679685	-0.149514	99
Es	0.319036	0.742197	-0.709412	99
Es	0.091138	-1.355998	-2.068037	99
Es	0.287501	0.830029	-1.025682	99
Es	0.378643	0.771661	-0.642026	99
Es	0.706982	2.321653	-0.052036	99
44
Properties=species:S:1:pos:R:3:Z:I:1 energy=-360.94849485537554 field_type=dipole dipole="0.000000 0.000000 0.000000" charge=0
C	-1.450796	-0.752616	-0.008706	6
C	0.039574	-0.610586	-0.295176	6
C	0.460494	-1.525836	-1.438696	6
O	0.318894	0.742294	-0.709826	8
C	0.579844	1.663784	0.246314	6
N	0.604264	1.413074	1.509174	7
O	0.911574	2.592334	2.200004	8
H	-1.755096	-0.092526	0.809784	1
H	-1.705086	-1.781066	0.264994	1
H	-2.046316	-0.464186	-0.881816	1
H	0.627004	-0.875596	0.591884	1
H	-0.071506	-1.273106	-2.362496	1
H	0.269914	-2.576216	-1.198706	1
H	1.528744	-1.404346	-1.647966	1
H	0.769634	2.649514	-0.208196	1
H	0.918854	2.295074	3.129434	1
Es	0.436989	-0.785462	0.309904	99
Es	-1.652052	-0.308573	0.551836	99
Es	0.039592	-0.610341	-0.295296	99
Es	0.915080	2.432722	2.706055	99
Es	0.911428	2.591989	2.200169	99
Es	0.245792	-1.067252	-0.873432	99
Es	-0.710839	-0.679828	-0.149477	99
Es	0.411089	1.073798	-0.293944	99
Es	0.706965	2.321698	-0.052047	99
Es	-1.450770	-0.752626	-0.008711	99
Es	0.885072	1.450239	0.971386	99
Es	1.181261	-1.449010	-1.571607	99
Es	-1.848779	-0.564398	-0.614417	99
Es	0.305192	1.581437	1.008188	99
Es	0.288990	0.829508	-1.026060	99
Es	1.183957	2.676268	2.110738	99
Es	0.318947	0.742209	-0.709407	99
Es	0.214835	0.267941	-0.520345	99
Es	0.330719	-2.231029	-1.266394	99
Es	-1.607836	-1.449355	0.173080	99
Es	0.460484	-1.525831	-1.438671	99
Es	0.091251	-1.356006	-2.068176	99
Es	0.604370	1.413627	1.508862	99
Es	0.579783	1.663573	0.246105	99
Es	0.776035	2.073552	1.887465	99
Es	0.373804	0.772697	-0.641634	99
Es	0.685208	2.761139	2.158066	99
Es	0.544062	1.099543	1.698532	99
44
Properties=species:S:1:pos:R:3:Z:I:1 energy=-360.94849485537554 field_type=dipole dipole="0.000000 0.000000 0.000000" charge=0
C	-1.450796	-0.752616	-0.008706	6
C	0.039574	-0.610586	-0.295176	6
C	0.460494	-1.525836	-1.438696	6
O	0.318894	0.742294	-0.709826	8
C	0.579844	1.663784	0.246314	6
N	0.604264	1.413074	1.509174	7
O	0.911574	2.592334	2.200004	8
H	-1.755096	-0.092526	0.809784	1
H	-1.705086	-1.781066	0.264994	1
H	-2.046316	-0.464186	-0.881816	1
H	0.627004	-0.875596	0.591884	1
H	-0.071506	-1.273106	-2.362496	1
H	0.269914	-2.576216	-1.198706	1
H	1.528744	-1.404346	-1.647966	1
H	0.769634	2.649514	-0.208196	1
H	0.918854	2.295074	3.129434	1
Es	0.911509	2.591994	2.200147	99
Es	0.212824	0.269309	-0.520186	99
Es	0.706920	2.321660	-0.051991	99
Es	0.775417	2.073991	1.886898	99
Es	-1.607774	-1.449398	0.173074	99
Es	0.091300	-1.355989	-2.068340	99
Es	-1.848669	-0.564399	-0.614526	99
Es	0.544392	1.099368	1.698518	99
Es	0.579783	1.663574	0.246107	99
Es	-0.710867	-0.679781	-0.149492	99
Es	0.318273	0.742524	-0.709114	99
Es	0.436935	-0.785526	0.310040	99
Es	0.460484	-1.525830	-1.438671	99
Es	1.183281	2.679583	2.109179	99
Es	0.330953	-2.231151	-1.266363	99
Es	-1.450769	-0.752626	-0.008711	99
Es	0.039591	-0.610343	-0.295296	99
Es	0.884799	1.450432	0.971473	99
Es	0.685837	2.757329	2.160007	99
Es	0.388718	0.769310	-0.643240	99
Es	1.180837	-1.448940	-1.571551	99
Es	0.283194	0.830211	-1.025262	99
Es	0.245718	-1.067248	-0.873407	99
Es	0.604370	1.413629	1.508860	99
Es	0.915659	2.432826	2.706278	99
Es	0.305128	1.581372	1.008118	99
Es	0.404737	1.074826	-0.293686	99
Es	-1.651950	-0.308476	0.551906	99
44
Properties=species:S:1:pos:R:3:Z:I:1 energy=-360.94849485537554 field_type=dipole dipole="0.000000 0.000000 0.000000" charge=0
C	-1.450796	-0.752616	-0.008706	6
C	0.039574	-0.610586	-0.295176	6
C	0.460494	-1.525836	-1.438696	6
O	0.318894	0.742294	-0.709826	8
C	0.579844	1.663784	0.246314	6
N	0.604264	1.413074	1.509174	7
O	0.911574	2.592334	2.200004	8
H	-1.755096	-0.092526	0.809784	1
H	-1.705086	-1.781066	0.264994	1
H	-2.046316	-0.464186	-0.881816	1
H	0.627004	-0.875596	0.591884	1
H	-0.071506	-1.273106	-2.362496	1
H	0.269914	-2.576216	-1.198706	1
H	1.528744	-1.404346	-1.647966	1
H	0.769634	2.649514	-0.208196	1
H	0.918854	2.295074	3.129434	1
Es	0.347421	0.778634	-0.638884	99
Es	0.884620	1.450746	0.971274	99
Es	0.604371	1.413632	1.508863	99
Es	0.436942	-0.785580	0.310058	99
Es	-1.450769	-0.752626	-0.008710	99
Es	-1.607725	-1.449189	0.173088	99
Es	-1.848876	-0.564372	-0.614604	99
Es	-0.710747	-0.679747	-0.149479	99
Es	0.773815	2.074234	1.887429	99
Es	0.304016	1.580972	1.008445	99
Es	0.460484	-1.525831	-1.438672	99
Es	0.091087	-1.356053	-2.068377	99
Es	0.686866	2.763535	2.157572	99
Es	0.039592	-0.610342	-0.295296	99
Es	0.245614	-1.067448	-0.873353	99
Es	0.706830	2.321660	-0.051969	99
Es	0.306105	0.825698	-1.028464	99
Es	0.319125	0.742193	-0.709386	99
Es	0.911539	2.592126	2.200127	99
Es	0.330952	-2.230793	-1.266409	99
Es	0.417079	1.072421	-0.294131	99
Es	0.217913	0.267269	-0.520612	99
Es	1.183752	2.672990	2.111398	99
Es	0.545780	1.099584	1.698141	99
Es	1.181139	-1.448988	-1.571507	99
Es	0.579782	1.663574	0.246106	99
Es	0.915871	2.432643	2.706220	99
Es	-1.651949	-0.308712	0.551901	99
44
Properties=species:S:1:pos:R:3:Z:I:1 energy=-360.94849485537554 field_type=dipole dipole="0.000000 0.000000 0.000000" charge=0
C	-1.450796	-0.752616	-0.008706	6
C	0.039574	-0.610586	-0.295176	6
C	0.460494	-1.525836	-1.438696	6
O	0.318894	0.742294	-0.709826	8
C	0.579844	1.663784	0.246314	6
N	0.604264	1.413074	1.509174	7
O	0.911574	2.592334	2.200004	8
H	-1.755096	-0.092526	0.809784	1
H	-1.705086	-1.781066	0.264994	1
H	-2.046316	-0.464186	-0.881816	1
H	0.627004	-0.875596	0.591884	1
H	-0.071506	-1.273106	-2.362496	1
H	0.269914	-2.576216	-1.198706	1
H	1.528744	-1.404346	-1.647966	1
H	0.769634	2.649514	-0.208196	1
H	0.918854	2.295074	3.129434	1
Es	0.331069	-2.230657	-1.266485	99
Es	0.911374	2.592007	2.200168	99
Es	-1.651791	-0.308579	0.552174	99
Es	0.460484	-1.525830	-1.438671	99
Es	0.914901	2.433329	2.706476	99
Es	0.339878	0.756095	-0.679532	99
Es	1.180790	-1.449135	-1.571386	99
Es	0.091224	-1.356077	-2.068606	99
Es	0.579783	1.663574	0.246107	99
Es	0.884785	1.450701	0.971478	99
Es	0.420302	1.071623	-0.294273	99
Es	0.688158	2.764568	2.156540	99
Es	0.217026	0.267962	-0.520470	99
Es	0.245669	-1.067444	-0.873264	99
Es	0.304958	0.825498	-1.028491	99
Es	1.183399	2.671516	2.112439	99
Es	0.436782	-0.785530	0.310256	99
Es	0.304387	1.581294	1.008183	99
Es	0.545241	1.099514	1.698164	99
Es	0.773912	2.074104	1.887182	99
Es	-1.607555	-1.449034	0.172979	99
Es	0.039591	-0.610342	-0.295296	99
Es	0.604367	1.413626	1.508858	99
Es	-1.848862	-0.564530	-0.614649	99
Es	0.706932	2.321475	-0.051941	99
Es	0.325429	0.764958	-0.668720	99
Es	-1.450766	-0.752628	-0.008709	99
Es	-0.710838	-0.679832	-0.149741	99
