44
Properties=species:S:1:pos:R:3:Z:I:1 energy=-360.963165975262 field_type=dipole dipole="0.000000 0.000000 0.000000" charge=0
C	-0.345892	-0.580164	1.312754	6
C	0.685458	-0.055864	0.319164	6
C	1.833728	-1.046304	0.167004	6
O	0.089858	0.102396	-0.977396	8
N	-0.653052	1.306436	-1.002426	7
C	-1.977892	1.138676	-1.292586	6
O	-2.707892	2.039696	-1.681376	8
H	-1.139822	0.156636	1.473554	1
H	0.112038	-0.801304	2.281664	1
H	-0.829582	-1.487034	0.933744	1
H	1.093288	0.903296	0.663154	1
H	1.475418	-2.006484	-0.220906	1
H	2.339968	-1.219904	1.121484	1
H	2.568138	-0.670794	-0.553836	1
H	-0.205712	2.108566	-1.433036	1
H	-2.338052	0.112146	-1.110956	1
Es	0.961689	0.604606	0.552212	99
Es	-1.168842	1.207746	-1.235884	99
Es	-0.025978	-0.727264	1.966366	99
Es	-2.210321	0.440591	-1.165545	99
Es	-0.881804	-0.077692	1.419406	99
Es	1.833705	-1.046283	0.167016	99
Es	-2.544702	2.303441	-1.719540	99
Es	0.295936	0.072873	-0.485906	99
Es	-0.820906	1.382628	-0.711179	99
Es	1.582871	-1.695612	-0.089744	99
Es	-2.707632	2.039475	-1.681259	99
Es	2.332161	-0.785423	-0.318221	99
Es	0.321661	0.144790	-1.183206	99
Es	-2.997211	1.947019	-1.711084	99
Es	0.162335	-0.318890	0.822456	99
Es	-0.664943	-1.198185	1.050650	99
Es	-0.653181	1.306186	-1.002998	99
Es	-0.243644	0.658362	-0.976286	99
Es	2.168242	-1.156313	0.819854	99
Es	0.685351	-0.055886	0.318957	99
Es	0.089822	0.102615	-0.977103	99
Es	-1.977737	1.138696	-1.292535	99
Es	-2.502618	1.792612	-1.311112	99
Es	-0.381779	1.762006	-1.272176	99
Es	-0.126867	-0.121228	-1.006371	99
Es	1.257566	-0.556918	0.238388	99
Es	-2.414074	1.669224	-1.787941	99
Es	-0.345875	-0.580153	1.312747	99
44
Properties=species:S:1:pos:R:3:Z:I:1 energy=-360.963165975262 field_type=dipole dipole="0.000000 0.000000 0.000000" charge=0
C	-0.345892	-0.580164	1.312754	6
C	0.685458	-0.055864	0.319164	6
C	1.833728	-1.046304	0.167004	6
O	0.089858	0.102396	-0.977396	8
N	-0.653052	1.306436	-1.002426	7
C	-1.977892	1.138676	-1.292586	6
O	-2.707892	2.039696	-1.681376	8
H	-1.139822	0.156636	1.473554	1
H	0.112038	-0.801304	2.281664	1
H	-0.829582	-1.487034	0.933744	1
H	1.093288	0.903296	0.663154	1
H	1.475418	-2.006484	-0.220906	1
H	2.339968	-1.219904	1.121484	1
H	2.568138	-0.670794	-0.553836	1
H	-0.205712	2.108566	-1.433036	1
H	-2.338052	0.112146	-1.110956	1
Es	1.584496	-1.694875	-0.090514	99
Es	-0.813346	1.380385	-0.724455	99
Es	0.300369	0.072137	-0.485459	99
Es	-0.653152	1.306163	-1.003050	99
Es	-1.977737	1.138696	-1.292532	99
Es	2.330103	-0.787418	-0.316548	99
Es	-2.541343	2.299137	-1.717941	99
Es	1.257080	-0.556735	0.237948	99
Es	1.833704	-1.046283	0.167016	99
Es	-2.502009	1.792637	-1.311279	99
Es	-2.707676	2.039469	-1.681264	99
Es	0.685351	-0.055886	0.318956	99
Es	0.161403	-0.319440	0.822433	99
Es	-0.121812	-0.123039	-1.011940	99
Es	-0.345874	-0.580155	1.312744	99
Es	-0.381171	1.763314	-1.268935	99
Es	-0.245053	0.659272	-0.974008	99
Es	-0.024166	-0.728590	1.966508	99
Es	-1.178780	1.208654	-1.229411	99
Es	0.089800	0.102576	-0.977109	99
Es	0.314522	0.146352	-1.176213	99
Es	-2.210166	0.440652	-1.165771	99
Es	0.960289	0.604349	0.552683	99
Es	-0.663060	-1.196854	1.050098	99
Es	-3.001744	1.949650	-1.714381	99
Es	-0.883701	-0.075676	1.418511	99
Es	-2.413362	1.671458	-1.786185	99
Es	2.170257	-1.156930	0.820061	99
44
Properties=species:S:1:pos:R:3:Z:I:1 energy=-360.963165975262 field_type=dipole dipole="0.000000 0.000000 0.000000" charge=0
C	-0.345892	-0.580164	1.312754	6
C	0.685458	-0.055864	0.319164	6
C	1.833728	-1.046304	0.167004	6
O	0.089858	0.102396	-0.977396	8
N	-0.653052	1.306436	-1.002426	7
C	-1.977892	1.138676	-1.292586	6
O	-2.707892	2.039696	-1.681376	8
H	-1.139822	0.156636	1.473554	1
H	0.112038	-0.801304	2.281664	1
H	-0.829582	-1.487034	0.933744	1
H	1.093288	0.903296	0.663154	1
H	1.475418	-2.006484	-0.220906	1
H	2.339968	-1.219904	1.121484	1
H	2.568138	-0.670794	-0.553836	1
H	-0.205712	2.108566	-1.433036	1
H	-2.338052	0.112146	-1.110956	1
Es	0.160519	-0.320044	0.822837	99
Es	1.585434	-1.693911	-0.091053	99
Es	-1.977737	1.138695	-1.292532	99
Es	-0.119677	-0.122079	-1.013049	99
Es	1.256929	-0.556259	0.237682	99
Es	-0.885029	-0.074416	1.417661	99
Es	-0.022825	-0.729521	1.966487	99
Es	-2.707637	2.039414	-1.681254	99
Es	-0.345875	-0.580154	1.312747	99
Es	-1.183348	1.209156	-1.225756	99
Es	2.171612	-1.157755	0.820117	99
Es	-0.380470	1.764895	-1.266020	99
Es	0.308782	0.144843	-1.173282	99
Es	-0.653086	1.306168	-1.002982	99
Es	-0.661479	-1.195821	1.049632	99
Es	2.328619	-0.788843	-0.315311	99
Es	-3.003087	1.950916	-1.715261	99
Es	-2.539969	2.298499	-1.715789	99
Es	0.685353	-0.055887	0.318958	99
Es	0.303969	0.071684	-0.485432	99
Es	-2.210152	0.440792	-1.165748	99
Es	-0.810510	1.377821	-0.733847	99
Es	-2.500735	1.789734	-1.311785	99
Es	0.089849	0.102654	-0.977105	99
Es	-0.244621	0.660470	-0.972927	99
Es	0.959272	0.604083	0.553018	99
Es	1.833705	-1.046282	0.167017	99
Es	-2.414584	1.674170	-1.787059	99
44
Properties=species:S:1:pos:R:3:Z:I:1 energy=-360.963165975262 field_type=dipole dipole="0.000000 0.000000 0.000000" charge=0
C	-0.345892	-0.580164	1.312754	6
C	0.685458	-0.055864	0.319164	6
C	1.833728	-1.046304	0.167004	6
O	0.089858	0.102396	-0.977396	8
N	-0.653052	1.306436	-1.002426	7
C	-1.977892	1.138676	-1.292586	6
O	-2.707892	2.039696	-1.681376	8
H	-1.139822	0.156636	1.473554	1
H	0.112038	-0.801304	2.281664	1
H	-0.829582	-1.487034	0.933744	1
H	1.093288	0.903296	0.663154	1
H	1.475418	-2.006484	-0.220906	1
H	2.339968	-1.219904	1.121484	1
H	2.568138	-0.670794	-0.553836	1
H	-0.205712	2.108566	-1.433036	1
H	-2.338052	0.112146	-1.110956	1
Es	0.160013	-0.320637	0.822941	99
Es	-0.116952	-0.122623	-1.017138	99
Es	-1.188187	1.209800	-1.220599	99
Es	0.685351	-0.055887	0.318957	99
Es	-0.345876	-0.580154	1.312746	99
Es	-2.502618	1.788960	-1.311912	99
Es	0.305718	0.070583	-0.485427	99
Es	1.586026	-1.693278	-0.091227	99
Es	-0.380387	1.765579	-1.265320	99
Es	-0.660413	-1.194643	1.049596	99
Es	-3.005821	1.957628	-1.718289	99
Es	-2.415778	1.673202	-1.785827	99
Es	1.256951	-0.556023	0.237410	99
Es	-0.806408	1.376240	-0.741455	99
Es	0.304888	0.146216	-1.168339	99
Es	0.089706	0.102605	-0.977022	99
Es	-1.977735	1.138693	-1.292534	99
Es	-0.021944	-0.730325	1.966638	99
Es	-0.885836	-0.073539	1.416684	99
Es	-0.245000	0.661027	-0.972110	99
Es	1.833706	-1.046282	0.167015	99
Es	-2.210103	0.440674	-1.165747	99
Es	0.958502	0.603822	0.553231	99
Es	2.327430	-0.789977	-0.314441	99
Es	-2.707684	2.039419	-1.681259	99
Es	-0.653029	1.306185	-1.002866	99
Es	-2.533914	2.293908	-1.713850	99
Es	2.172618	-1.158152	0.820105	99
44
Properties=species:S:1:pos:R:3:Z:I:1 energy=-360.963165975262 field_type=dipole dipole="0.000000 0.000000 0.000000" charge=0
C	-0.345892	-0.580164	1.312754	6
C	0.685458	-0.055864	0.319164	6
C	1.833728	-1.046304	0.167004	6
O	0.089858	0.102396	-0.977396	8
N	-0.653052	1.306436	-1.002426	7
C	-1.977892	1.138676	-1.292586	6
O	-2.707892	2.039696	-1.681376	8
H	-1.139822	0.156636	1.473554	1
H	0.112038	-0.801304	2.281664	1
H	-0.829582	-1.487034	0.933744	1
H	1.093288	0.903296	0.663154	1
H	1.475418	-2.006484	-0.220906	1
H	2.339968	-1.219904	1.121484	1
H	2.568138	-0.670794	-0.553836	1
H	-0.205712	2.108566	-1.433036	1
H	-2.338052	0.112146	-1.110956	1
Es	-0.345875	-0.580153	1.312746	99
Es	0.302472	0.146544	-1.165411	99
Es	-2.210135	0.440718	-1.165742	99
Es	-0.114894	-0.121896	-1.019423	99
Es	2.326303	-0.790986	-0.313696	99
Es	-0.245355	0.661337	-0.971461	99
Es	-2.536017	2.296368	-1.715562	99
Es	2.173559	-1.158762	0.820164	99
Es	-3.004390	1.954785	-1.716264	99
Es	-2.707702	2.039429	-1.681268	99
Es	-0.803402	1.374705	-0.747649	99
Es	0.685349	-0.055885	0.318954	99
Es	-2.416217	1.673508	-1.786173	99
Es	1.256798	-0.555957	0.237150	99
Es	-1.977735	1.138695	-1.292533	99
Es	-0.021229	-0.731156	1.966592	99
Es	-0.659719	-1.193645	1.049415	99
Es	0.089942	0.102749	-0.977111	99
Es	1.833705	-1.046283	0.167017	99
Es	1.586603	-1.692340	-0.091363	99
Es	0.306259	0.069382	-0.485093	99
Es	-2.501370	1.789273	-1.311856	99
Es	-0.886266	-0.072821	1.416111	99
Es	-0.380182	1.766273	-1.264286	99
Es	-0.653166	1.306150	-1.003115	99
Es	0.159558	-0.320934	0.823009	99
Es	-1.191563	1.210342	-1.216646	99
Es	0.957892	0.603580	0.553457	99
44
Properties=species:S:1:pos:R:3:Z:I:1 energy=-360.963165975262 field_type=dipole dipole="0.000000 0.000000 0.000000" charge=0
C	-0.345892	-0.580164	1.312754	6
C	0.685458	-0.055864	0.319164	6
C	1.833728	-1.046304	0.167004	6
O	0.089858	0.102396	-0.977396	8
N	-0.653052	1.306436	-1.002426	7
C	-1.977892	1.138676	-1.292586	6
O	-2.707892	2.039696	-1.681376	8
H	-1.139822	0.156636	1.473554	1
H	0.112038	-0.801304	2.281664	1
H	-0.829582	-1.487034	0.933744	1
H	1.093288	0.903296	0.663154	1
H	1.475418	-2.006484	-0.220906	1
H	2.339968	-1.219904	1.121484	1
H	2.568138	-0.670794	-0.553836	1
H	-0.205712	2.108566	-1.433036	1
H	-2.338052	0.112146	-1.110956	1
Es	-0.653222	1.306127	-1.003226	99
Es	0.089710	0.102563	-0.977063	99
Es	0.307411	0.069003	-0.485355	99
Es	1.256830	-0.555719	0.237033	99
Es	-2.210091	0.440579	-1.165634	99
Es	-2.528815	2.289240	-1.712963	99
Es	-0.345875	-0.580154	1.312747	99
Es	1.586930	-1.692029	-0.091840	99
Es	-1.977735	1.138694	-1.292535	99
Es	-0.114281	-0.121107	-1.019383	99
Es	-3.008162	1.964704	-1.718651	99
Es	1.833705	-1.046283	0.167018	99
Es	-0.020722	-0.731886	1.966490	99
Es	2.325546	-0.791617	-0.312661	99
Es	-0.659144	-1.192801	1.049256	99
Es	2.173978	-1.159184	0.820047	99
Es	0.685352	-0.055887	0.318957	99
Es	-2.501436	1.787123	-1.311785	99
Es	-0.800478	1.373666	-0.752585	99
Es	-2.707711	2.039365	-1.681243	99
Es	-2.419382	1.673222	-1.786473	99
Es	-0.244796	0.662020	-0.971696	99
Es	-0.380222	1.766776	-1.264533	99
Es	-0.886523	-0.072117	1.415546	99
Es	0.957536	0.603530	0.553601	99
Es	0.159187	-0.321302	0.823254	99
Es	0.300246	0.145687	-1.164145	99
Es	-1.194614	1.210809	-1.212214	99
44
Properties=species:S:1:pos:R:3:Z:I:1 energy=-360.963165975262 field_type=dipole dipole="0.000000 0.000000 0.000000" charge=0
C	-0.345892	-0.580164	1.312754	6
C	0.685458	-0.055864	0.319164	6
C	1.833728	-1.046304	0.167004	6
O	0.089858	0.102396	-0.977396	8
N	-0.653052	1.306436	-1.002426	7
C	-1.977892	1.138676	-1.292586	6
O	-2.707892	2.039696	-1.681376	8
H	-1.139822	0.156636	1.473554	1
H	0.112038	-0.801304	2.281664	1
H	-0.829582	-1.487034	0.933744	1
H	1.093288	0.903296	0.663154	1
H	1.475418	-2.006484	-0.220906	1
H	2.339968	-1.219904	1.121484	1
H	2.568138	-0.670794	-0.553836	1
H	-0.205712	2.108566	-1.433036	1
H	-2.338052	0.112146	-1.110956	1
Es	0.957171	0.603252	0.553710	99
Es	-0.653096	1.306154	-1.003041	99
Es	2.325076	-0.792291	-0.312232	99
Es	-0.379170	1.768590	-1.260778	99
Es	-2.502194	1.788307	-1.311822	99
Es	1.256828	-0.555573	0.236731	99
Es	-2.707619	2.039438	-1.681212	99
Es	-0.800973	1.371131	-0.757922	99
Es	0.307303	0.066717	-0.484765	99
Es	-0.112640	-0.118756	-1.020851	99
Es	-0.345875	-0.580154	1.312746	99
Es	0.089816	0.102605	-0.977128	99
Es	2.174283	-1.159700	0.820092	99
Es	-0.244682	0.662416	-0.971109	99
Es	-2.529875	2.290829	-1.713887	99
Es	1.833706	-1.046285	0.167016	99
Es	0.159018	-0.321572	0.823267	99
Es	-0.020411	-0.732546	1.966445	99
Es	-0.658646	-1.191929	1.049331	99
Es	1.587223	-1.691298	-0.091783	99
Es	0.685350	-0.055886	0.318955	99
Es	-3.007273	1.962696	-1.718385	99
Es	-2.418455	1.672565	-1.785798	99
Es	0.298524	0.145536	-1.162828	99
Es	-0.886814	-0.071727	1.415089	99
Es	-1.977736	1.138695	-1.292533	99
Es	-2.210062	0.440598	-1.165626	99
Es	-1.195554	1.211212	-1.211720	99
44
Properties=species:S:1:pos:R:3:Z:I:1 energy=-360.963165975262 field_type=dipole dipole="0.000000 0.000000 0.000000" charge=0
C	-0.345892	-0.580164	1.312754	6
C	0.685458	-0.055864	0.319164	6
C	1.833728	-1.046304	0.167004	6
O	0.089858	0.102396	-0.977396	8
N	-0.653052	1.306436	-1.002426	7
C	-1.977892	1.138676	-1.292586	6
O	-2.707892	2.039696	-1.681376	8
H	-1.139822	0.156636	1.473554	1
H	0.112038	-0.801304	2.281664	1
H	-0.829582	-1.487034	0.933744	1
H	1.093288	0.903296	0.663154	1
H	1.475418	-2.006484	-0.220906	1
H	2.339968	-1.219904	1.121484	1
H	2.568138	-0.670794	-0.553836	1
H	-0.205712	2.108566	-1.433036	1
H	-2.338052	0.112146	-1.110956	1
Es	-1.197022	1.211369	-1.209144	99
Es	-3.006169	1.960049	-1.716754	99
Es	0.309900	0.067170	-0.485701	99
Es	-2.531270	2.293722	-1.714294	99
Es	-2.500758	1.786791	-1.312332	99
Es	-0.653126	1.306148	-1.003095	99
Es	-0.112014	-0.118854	-1.021148	99
Es	0.158710	-0.321750	0.823405	99
Es	2.324493	-0.792814	-0.311815	99
Es	-2.707688	2.039406	-1.681254	99
Es	0.295474	0.145180	-1.161223	99
Es	-0.345876	-0.580153	1.312747	99
Es	-2.419425	1.674031	-1.786455	99
Es	0.089861	0.102747	-0.977048	99
Es	1.256872	-0.555462	0.236721	99
Es	-0.020077	-0.733332	1.966352	99
Es	-1.977735	1.138695	-1.292533	99
Es	0.685350	-0.055887	0.318956	99
Es	-0.658150	-1.190985	1.049292	99
Es	1.833706	-1.046284	0.167016	99
Es	-2.210108	0.440618	-1.165563	99
Es	-0.799170	1.371090	-0.759854	99
Es	-0.244909	0.662450	-0.971042	99
Es	-0.379570	1.768282	-1.261901	99
Es	0.956839	0.603034	0.553748	99
Es	1.587431	-1.690715	-0.091845	99
Es	-0.887060	-0.071357	1.414712	99
Es	2.174716	-1.160170	0.820014	99
44
Properties=species:S:1:pos:R:3:Z:I:1 energy=-360.963165975262 field_type=dipole dipole="0.000000 0.000000 0.000000" charge=0
C	-0.345892	-0.580164	1.312754	6
C	0.685458	-0.055864	0.319164	6
C	1.833728	-1.046304	0.167004	6
O	0.089858	0.102396	-0.977396	8
N	-0.653052	1.306436	-1.002426	7
C	-1.977892	1.138676	-1.292586	6
O	-2.707892	2.039696	-1.681376	8
H	-1.139822	0.156636	1.473554	1
H	0.112038	-0.801304	2.281664	1
H	-0.829582	-1.487034	0.933744	1
H	1.093288	0.903296	0.663154	1
H	1.475418	-2.006484	-0.220906	1
H	2.339968	-1.219904	1.121484	1
H	2.568138	-0.670794	-0.553836	1
H	-0.205712	2.108566	-1.433036	1
H	-2.338052	0.112146	-1.110956	1
Es	-2.707724	2.039352	-1.681249	99
Es	-1.977734	1.138695	-1.292533	99
Es	-0.379790	1.768469	-1.262597	99
Es	-2.498997	1.783350	-1.312226	99
Es	1.256888	-0.555402	0.236646	99
Es	-0.796536	1.370476	-0.763568	99
Es	-0.653197	1.306137	-1.003185	99
Es	0.956652	0.603060	0.553920	99
Es	-2.529528	2.292073	-1.712698	99
Es	-0.657771	-1.190798	1.049141	99
Es	1.587572	-1.690611	-0.092135	99
Es	0.310687	0.066759	-0.486050	99
Es	2.175036	-1.160319	0.819948	99
Es	0.294456	0.142208	-1.163968	99
Es	-1.199468	1.211791	-1.204958	99
Es	0.158512	-0.321900	0.823642	99
Es	-0.345876	-0.580154	1.312747	99
Es	0.685350	-0.055886	0.318955	99
Es	-2.210058	0.440517	-1.165615	99
Es	-0.112582	-0.115933	-1.017411	99
Es	-2.421901	1.676524	-1.787698	99
Es	0.089882	0.102692	-0.977106	99
Es	-0.887098	-0.070918	1.414212	99
Es	-0.019788	-0.733468	1.966240	99
Es	2.323866	-0.793253	-0.311088	99
Es	1.833705	-1.046283	0.167017	99
Es	-0.244265	0.662974	-0.971285	99
Es	-3.007070	1.962868	-1.717135	99
44
Properties=species:S:1:pos:R:3:Z:I:1 energy=-360.963165975262 field_type=dipole dipole="0.000000 0.000000 0.000000" charge=0
C	-0.345892	-0.580164	1.312754	6
C	0.685458	-0.055864	0.319164	6
C	1.833728	-1.046304	0.167004	6
O	0.089858	0.102396	-0.977396	8
N	-0.653052	1.306436	-1.002426	7
C	-1.977892	1.138676	-1.292586	6
O	-2.707892	2.039696	-1.681376	8
H	-1.139822	0.156636	1.473554	1
H	0.112038	-0.801304	2.281664	1
H	-0.829582	-1.487034	0.933744	1
H	1.093288	0.903296	0.663154	1
H	1.475418	-2.006484	-0.220906	1
H	2.339968	-1.219904	1.121484	1
H	2.568138	-0.670794	-0.553836	1
H	-0.205712	2.108566	-1.433036	1
H	-2.338052	0.112146	-1.110956	1
Es	0.685353	-0.055888	0.318959	99
Es	-0.657820	-1.190368	1.049149	99
Es	-1.977734	1.138694	-1.292535	99
Es	0.158500	-0.322059	0.823555	99
Es	2.174892	-1.160593	0.819862	99
Es	-2.501668	1.780948	-1.312437	99
Es	-0.019751	-0.733960	1.966090	99
Es	-2.707683	2.039464	-1.681272	99
Es	-3.011673	1.978756	-1.721678	99
Es	0.293639	0.146093	-1.157373	99
Es	-0.345875	-0.580153	1.312746	99
Es	-2.519181	2.280396	-1.707679	99
Es	2.323913	-0.793493	-0.310906	99
Es	-0.653103	1.306145	-1.003076	99
Es	1.587513	-1.690451	-0.092140	99
Es	0.089802	0.102597	-0.977115	99
Es	1.256920	-0.555296	0.236578	99
Es	1.833705	-1.046283	0.167016	99
Es	-2.210027	0.440383	-1.165448	99
Es	-0.796052	1.369522	-0.766384	99
Es	-0.244072	0.663197	-0.971389	99
Es	0.309067	0.064990	-0.485121	99
Es	0.956621	0.603006	0.554007	99
Es	-0.379762	1.769411	-1.262575	99
Es	-0.886965	-0.070579	1.414231	99
Es	-2.424825	1.674811	-1.787965	99
Es	-1.200206	1.211797	-1.202721	99
Es	-0.110307	-0.118065	-1.024413	99
44
Properties=species:S:1:pos:R:3:Z:I:1 energy=-360.963165975262 field_type=dipole dipole="0.000000 0.000000 0.000000" charge=0
C	-0.345892	-0.580164	1.312754	6
C	0.685458	-0.055864	0.319164	6
C	1.833728	-1.046304	0.167004	6
O	0.089858	0.102396	-0.977396	8
N	-0.653052	1.306436	-1.002426	7
C	-1.977892	1.138676	-1.292586	6
O	-2.707892	2.039696	-1.681376	8
H	-1.139822	0.156636	1.473554	1
H	0.112038	-0.801304	2.281664	1
H	-0.829582	-1.487034	0.933744	1
H	1.093288	0.903296	0.663154	1
H	1.475418	-2.006484	-0.220906	1
H	2.339968	-1.219904	1.121484	1
H	2.568138	-0.670794	-0.553836	1
H	-0.205712	2.108566	-1.433036	1
H	-2.338052	0.112146	-1.110956	1
Es	-2.210048	0.440530	-1.165464	99
Es	-0.379379	1.769500	-1.260798	99
Es	1.587997	-1.689285	-0.092130	99
Es	-0.657162	-1.189319	1.049274	99
Es	-2.707692	2.039435	-1.681267	99
Es	-0.794796	1.368606	-0.769734	99
Es	-0.653058	1.306149	-1.003013	99
Es	-0.245183	0.662625	-0.971026	99
Es	-2.530983	2.294534	-1.713408	99
Es	0.089778	0.102636	-0.977063	99
Es	0.685353	-0.055887	0.318960	99
Es	2.323288	-0.793896	-0.310627	99
Es	-1.977735	1.138695	-1.292532	99
Es	1.833701	-1.046286	0.167015	99
Es	-0.108848	-0.116451	-1.024485	99
Es	0.292714	0.146101	-1.157389	99
Es	-2.501342	1.785342	-1.312123	99
Es	1.256801	-0.555380	0.236397	99
Es	0.309696	0.064105	-0.485285	99
Es	2.175389	-1.161358	0.820011	99
Es	0.158096	-0.322253	0.823709	99
Es	-3.005225	1.960366	-1.717149	99
Es	-2.419859	1.674675	-1.787054	99
Es	-1.201939	1.212411	-1.201368	99
Es	-0.019334	-0.734607	1.966169	99
Es	-0.887345	-0.070515	1.413605	99
Es	-0.345875	-0.580155	1.312744	99
Es	0.956214	0.602703	0.553995	99
44
Properties=species:S:1:pos:R:3:Z:I:1 energy=-360.963165975262 field_type=dipole dipole="0.000000 0.000000 0.000000" charge=0
C	-0.345892	-0.580164	1.312754	6
C	0.685458	-0.055864	0.319164	6
C	1.833728	-1.046304	0.167004	6
O	0.089858	0.102396	-0.977396	8
N	-0.653052	1.306436	-1.002426	7
C	-1.977892	1.138676	-1.292586	6
O	-2.707892	2.039696	-1.681376	8
H	-1.139822	0.156636	1.473554	1
H	0.112038	-0.801304	2.281664	1
H	-0.829582	-1.487034	0.933744	1
H	1.093288	0.903296	0.663154	1
H	1.475418	-2.006484	-0.220906	1
H	2.339968	-1.219904	1.121484	1
H	2.568138	-0.670794	-0.553836	1
H	-0.205712	2.108566	-1.433036	1
H	-2.338052	0.112146	-1.110956	1
Es	-0.345875	-0.580153	1.312746	99
Es	1.256915	-0.555179	0.236358	99
Es	-2.512072	2.271161	-1.703828	99
Es	-0.886899	-0.070083	1.413700	99
Es	-2.210044	0.440207	-1.165280	99
Es	1.833705	-1.046283	0.167017	99
Es	-0.243120	0.663900	-0.971562	99
Es	2.174975	-1.160525	0.819669	99
Es	-0.379598	1.770334	-1.262046	99
Es	2.323481	-0.794073	-0.310227	99
Es	0.158632	-0.322319	0.823489	99
Es	-0.653065	1.306152	-1.003016	99
Es	0.956341	0.603145	0.554335	99
Es	0.308056	0.062950	-0.484628	99
Es	0.685352	-0.055887	0.318957	99
Es	-0.109461	-0.116505	-1.025542	99
Es	-1.977734	1.138694	-1.292536	99
Es	-0.657511	-1.189872	1.049082	99
Es	1.587628	-1.690567	-0.092141	99
Es	-0.019712	-0.734415	1.966033	99
Es	0.089821	0.102560	-0.977176	99
Es	-3.014038	1.991361	-1.725299	99
Es	-2.707736	2.039328	-1.681243	99
Es	0.292645	0.145912	-1.155864	99
Es	-2.503092	1.777937	-1.312553	99
Es	-2.427822	1.674891	-1.788089	99
Es	-1.202519	1.212363	-1.198401	99
Es	-0.794030	1.367987	-0.771993	99
44
Properties=species:S:1:pos:R:3:Z:I:1 energy=-360.963165975262 field_type=dipole dipole="0.000000 0.000000 0.000000" charge=0
C	-0.345892	-0.580164	1.312754	6
C	0.685458	-0.055864	0.319164	6
C	1.833728	-1.046304	0.167004	6
O	0.089858	0.102396	-0.977396	8
N	-0.653052	1.306436	-1.002426	7
C	-1.977892	1.138676	-1.292586	6
O	-2.707892	2.039696	-1.681376	8
H	-1.139822	0.156636	1.473554	1
H	0.112038	-0.801304	2.281664	1
H	-0.829582	-1.487034	0.933744	1
H	1.093288	0.903296	0.663154	1
H	1.475418	-2.006484	-0.220906	1
H	2.339968	-1.219904	1.121484	1
H	2.568138	-0.670794	-0.553836	1
H	-0.205712	2.108566	-1.433036	1
H	-2.338052	0.112146	-1.110956	1
Es	0.290078	0.144269	-1.158590	99
Es	-2.417235	1.676093	-1.787111	99
Es	0.955755	0.602500	0.554105	99
Es	-0.791334	1.368462	-0.773816	99
Es	-2.210017	0.440587	-1.165627	99
Es	-0.018773	-0.735562	1.966082	99
Es	-0.245865	0.662434	-0.970361	99
Es	-0.887675	-0.070350	1.413031	99
Es	-0.345875	-0.580153	1.312747	99
Es	1.256920	-0.555226	0.236122	99
Es	-2.497240	1.788838	-1.312916	99
Es	2.322059	-0.794565	-0.309960	99
Es	0.312836	0.064714	-0.486683	99
Es	0.685351	-0.055886	0.318956	99
Es	-0.656478	-1.187966	1.049382	99
Es	0.157630	-0.322567	0.823809	99
Es	-0.108666	-0.114606	-1.021584	99
Es	-2.997871	1.942690	-1.709319	99
Es	0.089812	0.102556	-0.977177	99
Es	1.588340	-1.688390	-0.092240	99
Es	-0.379895	1.768580	-1.261970	99
Es	-1.977734	1.138693	-1.292533	99
Es	2.176315	-1.161880	0.820023	99
Es	1.833706	-1.046284	0.167017	99
Es	-1.204983	1.213132	-1.196805	99
Es	-2.707663	2.039434	-1.681258	99
Es	-0.653125	1.306147	-1.003092	99
Es	-2.545150	2.307328	-1.720269	99
44
Properties=species:S:1:pos:R:3:Z:I:1 energy=-360.963165975262 field_type=dipole dipole="0.000000 0.000000 0.000000" charge=0
C	-0.345892	-0.580164	1.312754	6
C	0.685458	-0.055864	0.319164	6
C	1.833728	-1.046304	0.167004	6
O	0.089858	0.102396	-0.977396	8
N	-0.653052	1.306436	-1.002426	7
C	-1.977892	1.138676	-1.292586	6
O	-2.707892	2.039696	-1.681376	8
H	-1.139822	0.156636	1.473554	1
H	0.112038	-0.801304	2.281664	1
H	-0.829582	-1.487034	0.933744	1
H	1.093288	0.903296	0.663154	1
H	1.475418	-2.006484	-0.220906	1
H	2.339968	-1.219904	1.121484	1
H	2.568138	-0.670794	-0.553836	1
H	-0.205712	2.108566	-1.433036	1
H	-2.338052	0.112146	-1.110956	1
Es	-2.498654	1.785667	-1.312616	99
Es	-1.977734	1.138694	-1.292535	99
Es	1.257002	-0.555091	0.235999	99
Es	0.311221	0.063682	-0.485909	99
Es	-2.210033	0.440610	-1.165524	99
Es	-0.653102	1.306143	-1.003086	99
Es	1.833705	-1.046283	0.167017	99
Es	-2.540474	2.304382	-1.716990	99
Es	0.955691	0.602335	0.554137	99
Es	1.588357	-1.688298	-0.092266	99
Es	-0.107986	-0.114071	-1.022756	99
Es	-2.418769	1.676729	-1.787932	99
Es	-2.707643	2.039433	-1.681250	99
Es	-2.999546	1.948259	-1.712116	99
Es	-0.245589	0.662579	-0.970774	99
Es	0.157430	-0.322710	0.824050	99
Es	-0.790145	1.367936	-0.776186	99
Es	-0.887468	-0.069982	1.412842	99
Es	-0.379863	1.768771	-1.261927	99
Es	0.089800	0.102602	-0.977116	99
Es	-0.656466	-1.187873	1.049273	99
Es	-0.345875	-0.580153	1.312746	99
Es	0.685358	-0.055885	0.318968	99
Es	0.290580	0.144635	-1.157875	99
Es	-0.018584	-0.735711	1.965947	99
Es	2.176473	-1.161972	0.819931	99
Es	-1.206197	1.213475	-1.194460	99
Es	2.321731	-0.794881	-0.309631	99
44
Properties=species:S:1:pos:R:3:Z:I:1 energy=-360.963165975262 field_type=dipole dipole="0.000000 0.000000 0.000000" charge=0
C	-0.345892	-0.580164	1.312754	6
C	0.685458	-0.055864	0.319164	6
C	1.833728	-1.046304	0.167004	6
O	0.089858	0.102396	-0.977396	8
N	-0.653052	1.306436	-1.002426	7
C	-1.977892	1.138676	-1.292586	6
O	-2.707892	2.039696	-1.681376	8
H	-1.139822	0.156636	1.473554	1
H	0.112038	-0.801304	2.281664	1
H	-0.829582	-1.487034	0.933744	1
H	1.093288	0.903296	0.663154	1
H	1.475418	-2.006484	-0.220906	1
H	2.339968	-1.219904	1.121484	1
H	2.568138	-0.670794	-0.553836	1
H	-0.205712	2.108566	-1.433036	1
H	-2.338052	0.112146	-1.110956	1
Es	-2.439024	1.677953	-1.788587	99
Es	-2.209980	0.439872	-1.164952	99
Es	-0.792955	1.364781	-0.780749	99
Es	0.089828	0.102513	-0.977234	99
Es	-1.204406	1.212760	-1.193211	99
Es	0.956810	0.603554	0.554478	99
Es	1.256823	-0.555145	0.236468	99
Es	-0.020255	-0.733952	1.965857	99
Es	0.292436	0.147138	-1.152206	99
Es	1.833705	-1.046283	0.167019	99
Es	2.173990	-1.159746	0.819241	99
Es	-0.109823	-0.118525	-1.028762	99
Es	-0.652984	1.306184	-1.002757	99
Es	-0.378888	1.773327	-1.259461	99
Es	-1.977734	1.138695	-1.292532	99
Es	0.306382	0.062362	-0.484098	99
Es	2.324324	-0.793930	-0.310033	99
Es	-2.494819	2.233985	-1.691160	99
Es	0.159043	-0.322357	0.823557	99
Es	-0.886349	-0.069597	1.413791	99
Es	-0.657979	-1.190756	1.048933	99
Es	-0.345874	-0.580156	1.312743	99
Es	0.685351	-0.055887	0.318956	99
Es	-2.707695	2.039400	-1.681261	99
Es	-3.016712	2.037425	-1.736953	99
Es	-0.241088	0.665142	-0.971896	99
Es	1.587241	-1.691946	-0.092094	99
Es	-2.506143	1.766210	-1.313133	99
44
Properties=species:S:1:pos:R:3:Z:I:1 energy=-360.963165975262 field_type=dipole dipole="0.000000 0.000000 0.000000" charge=0
C	-0.345892	-0.580164	1.312754	6
C	0.685458	-0.055864	0.319164	6
C	1.833728	-1.046304	0.167004	6
O	0.089858	0.102396	-0.977396	8
N	-0.653052	1.306436	-1.002426	7
C	-1.977892	1.138676	-1.292586	6
O	-2.707892	2.039696	-1.681376	8
H	-1.139822	0.156636	1.473554	1
H	0.112038	-0.801304	2.281664	1
H	-0.829582	-1.487034	0.933744	1
H	1.093288	0.903296	0.663154	1
H	1.475418	-2.006484	-0.220906	1
H	2.339968	-1.219904	1.121484	1
H	2.568138	-0.670794	-0.553836	1
H	-0.205712	2.108566	-1.433036	1
H	-2.338052	0.112146	-1.110956	1
Es	2.321286	-0.794870	-0.309941	99
Es	0.089485	0.102518	-0.976942	99
Es	-0.345875	-0.580153	1.312747	99
Es	-0.018159	-0.736106	1.965848	99
Es	0.685353	-0.055888	0.318959	99
Es	-0.107424	-0.114114	-1.020373	99
Es	-0.655730	-1.186910	1.049707	99
Es	0.316947	0.066395	-0.488614	99
Es	-0.789630	1.366696	-0.780470	99
Es	1.256829	-0.555276	0.236087	99
Es	-2.488960	1.789728	-1.313075	99
Es	0.287123	0.143742	-1.158525	99
Es	-2.210080	0.440960	-1.165724	99
Es	2.177123	-1.162577	0.819917	99
Es	-2.415295	1.683032	-1.789278	99
Es	-2.574800	2.326359	-1.729338	99
Es	1.588967	-1.687050	-0.091970	99
Es	-2.707639	2.039458	-1.681260	99
Es	-0.652966	1.306263	-1.002339	99
Es	0.955473	0.601695	0.553564	99
Es	-0.379330	1.768866	-1.258947	99
Es	-0.247752	0.661374	-0.969562	99
Es	0.156916	-0.322429	0.824243	99
Es	-0.888381	-0.070657	1.412826	99
Es	-2.978797	1.915512	-1.697842	99
Es	1.833705	-1.046283	0.167016	99
Es	-1.207428	1.214042	-1.194221	99
Es	-1.977735	1.138695	-1.292533	99
44
Properties=species:S:1:pos:R:3:Z:I:1 energy=-360.963165975262 field_type=dipole dipole="0.000000 0.000000 0.000000" charge=0
C	-0.345892	-0.580164	1.312754	6
C	0.685458	-0.055864	0.319164	6
C	1.833728	-1.046304	0.167004	6
O	0.089858	0.102396	-0.977396	8
N	-0.653052	1.306436	-1.002426	7
C	-1.977892	1.138676	-1.292586	6
O	-2.707892	2.039696	-1.681376	8
H	-1.139822	0.156636	1.473554	1
H	0.112038	-0.801304	2.281664	1
H	-0.829582	-1.487034	0.933744	1
H	1.093288	0.903296	0.663154	1
H	1.475418	-2.006484	-0.220906	1
H	2.339968	-1.219904	1.121484	1
H	2.568138	-0.670794	-0.553836	1
H	-0.205712	2.108566	-1.433036	1
H	-2.338052	0.112146	-1.110956	1
Es	-2.437919	1.681005	-1.789974	99
Es	0.305751	0.059976	-0.483844	99
Es	-2.501385	2.251397	-1.696516	99
Es	-0.019847	-0.735396	1.965750	99
Es	1.256808	-0.555106	0.236273	99
Es	-3.016964	2.017034	-1.729361	99
Es	0.685345	-0.055887	0.318955	99
Es	-0.886403	-0.069043	1.413223	99
Es	0.291381	0.148394	-1.150206	99
Es	-0.345875	-0.580153	1.312746	99
Es	-2.500390	1.766306	-1.313781	99
Es	2.174567	-1.160352	0.819291	99
Es	-0.242306	0.664549	-0.971670	99
Es	-0.106893	-0.116768	-1.031406	99
Es	1.587632	-1.691103	-0.092240	99
Es	-2.707703	2.039417	-1.681264	99
Es	-1.977734	1.138695	-1.292533	99
Es	-0.790620	1.365215	-0.781415	99
Es	-2.209900	0.439905	-1.165056	99
Es	-1.206103	1.213295	-1.190560	99
Es	-0.379492	1.772252	-1.260954	99
Es	0.956379	0.603278	0.554559	99
Es	-0.653253	1.306122	-1.003268	99
Es	0.089765	0.102601	-0.977081	99
Es	1.833704	-1.046283	0.167017	99
Es	0.158678	-0.322590	0.823789	99
Es	-0.657382	-1.189135	1.048812	99
Es	2.323383	-0.794608	-0.309323	99
