44
Properties=species:S:1:pos:R:3:Z:I:1 energy=-304.062548621726 field_type=dipole dipole="0.000000 0.000000 0.000000" charge=0
C	-0.177872	-0.464752	-0.344247	6
C	-0.605632	-0.403262	1.094623	6
C	-1.937842	0.192518	1.468853	6
N	-1.711352	-1.248082	1.558843	7
N	0.613118	0.739778	-0.630237	7
C	2.042048	0.483128	-0.800277	6
C	1.156728	0.748798	-1.987047	6
H	0.374898	-1.398012	-0.511857	1
H	-1.054572	-0.486682	-1.003777	1
H	0.227708	-0.295262	1.778783	1
H	-2.601613	0.521338	0.678513	1
H	-2.016442	0.736748	2.401343	1
H	-1.564542	-1.528742	2.530313	1
H	2.420778	-0.520752	-0.651027	1
H	2.705117	1.275628	-0.474067	1
H	1.217588	1.721097	-2.460607	1
H	0.911888	-0.073482	-2.648127	1
Es	2.291486	-0.203648	-0.693471	99
Es	0.214676	-1.102078	-0.463576	99
Es	-1.612418	-1.398158	2.147739	99
Es	-1.993467	0.561683	2.107202	99
Es	-0.177792	-0.464629	-0.344240	99
Es	-1.711058	-1.247652	1.559169	99
Es	-1.144059	-1.000056	1.357180	99
Es	-0.402409	-0.446962	0.376333	99
Es	2.495178	1.019052	-0.574898	99
Es	-2.389717	0.415346	0.932158	99
Es	0.511012	1.046646	-0.485774	99
Es	0.719595	0.751476	-1.280379	99
Es	-1.874576	-1.469090	1.327945	99
Es	-1.937754	0.192293	1.468867	99
Es	-0.776482	-0.475836	-0.792451	99
Es	1.195563	1.407656	-2.312837	99
Es	2.041817	0.483168	-0.800318	99
Es	-1.936297	-0.637556	1.583457	99
Es	0.613371	0.739249	-0.630547	99
Es	1.776351	0.597811	-1.530878	99
Es	-0.605853	-0.403377	1.094689	99
Es	0.984645	0.185531	-2.432066	99
Es	0.298124	0.196727	-0.524108	99
Es	1.250311	0.586866	-0.558200	99
Es	1.156703	0.748771	-1.986800	99
Es	-1.197872	0.103945	1.232580	99
Es	-0.037901	-0.329087	1.565812	99
44
Properties=species:S:1:pos:R:3:Z:I:1 energy=-304.062548621726 field_type=dipole dipole="0.000000 0.000000 0.000000" charge=0
C	-0.177872	-0.464752	-0.344247	6
C	-0.605632	-0.403262	1.094623	6
C	-1.937842	0.192518	1.468853	6
N	-1.711352	-1.248082	1.558843	7
N	0.613118	0.739778	-0.630237	7
C	2.042048	0.483128	-0.800277	6
C	1.156728	0.748798	-1.987047	6
H	0.374898	-1.398012	-0.511857	1
H	-1.054572	-0.486682	-1.003777	1
H	0.227708	-0.295262	1.778783	1
H	-2.601613	0.521338	0.678513	1
H	-2.016442	0.736748	2.401343	1
H	-1.564542	-1.528742	2.530313	1
H	2.420778	-0.520752	-0.651027	1
H	2.705117	1.275628	-0.474067	1
H	1.217588	1.721097	-2.460607	1
H	0.911888	-0.073482	-2.648127	1
Es	2.292161	-0.203690	-0.693646	99
Es	0.613368	0.739256	-0.630539	99
Es	-0.605852	-0.403373	1.094688	99
Es	-1.140906	-1.000672	1.352780	99
Es	0.984572	0.187168	-2.430912	99
Es	-0.402261	-0.447040	0.376210	99
Es	2.494756	1.018545	-0.575794	99
Es	-1.613579	-1.399887	2.147879	99
Es	-1.871649	-1.464664	1.333229	99
Es	1.195008	1.406964	-2.313334	99
Es	-1.196392	0.103961	1.232730	99
Es	0.214821	-1.102100	-0.463340	99
Es	0.716429	0.751584	-1.279873	99
Es	0.511687	1.045371	-0.487549	99
Es	-1.940950	-0.636792	1.582240	99
Es	1.251445	0.587114	-0.557581	99
Es	-2.390882	0.415357	0.932469	99
Es	-0.177793	-0.464632	-0.344238	99
Es	-1.994247	0.559990	2.106790	99
Es	-1.937757	0.192278	1.468869	99
Es	0.296812	0.197701	-0.523267	99
Es	1.779398	0.596873	-1.530560	99
Es	-0.037608	-0.329821	1.566042	99
Es	-1.711118	-1.247732	1.559057	99
Es	2.041815	0.483167	-0.800315	99
Es	1.156707	0.748770	-1.986801	99
Es	-0.776807	-0.475604	-0.792643	99
44
Properties=species:S:1:pos:R:3:Z:I:1 energy=-304.062548621726 field_type=dipole dipole="0.000000 0.000000 0.000000" charge=0
C	-0.177872	-0.464752	-0.344247	6
C	-0.605632	-0.403262	1.094623	6
C	-1.937842	0.192518	1.468853	6
N	-1.711352	-1.248082	1.558843	7
N	0.613118	0.739778	-0.630237	7
C	2.042048	0.483128	-0.800277	6
C	1.156728	0.748798	-1.987047	6
H	0.374898	-1.398012	-0.511857	1
H	-1.054572	-0.486682	-1.003777	1
H	0.227708	-0.295262	1.778783	1
H	-2.601613	0.521338	0.678513	1
H	-2.016442	0.736748	2.401343	1
H	-1.564542	-1.528742	2.530313	1
H	2.420778	-0.520752	-0.651027	1
H	2.705117	1.275628	-0.474067	1
H	1.217588	1.721097	-2.460607	1
H	0.911888	-0.073482	-2.648127	1
Es	-1.614678	-1.400930	2.147749	99
Es	-0.037433	-0.330303	1.566177	99
Es	0.613381	0.739248	-0.630553	99
Es	0.215044	-1.102111	-0.463213	99
Es	-0.605853	-0.403374	1.094689	99
Es	-1.138909	-1.000787	1.350555	99
Es	-1.994699	0.559118	2.106421	99
Es	-1.944692	-0.636499	1.581254	99
Es	0.714187	0.752002	-1.279213	99
Es	-1.195478	0.103618	1.232956	99
Es	-0.177792	-0.464631	-0.344238	99
Es	-0.402181	-0.447010	0.376137	99
Es	2.292540	-0.203767	-0.693679	99
Es	2.494410	1.018162	-0.576240	99
Es	1.194722	1.406476	-2.313728	99
Es	1.252519	0.587491	-0.557305	99
Es	-2.391471	0.415279	0.932550	99
Es	-1.937745	0.192288	1.468863	99
Es	-1.711050	-1.247634	1.559170	99
Es	2.041815	0.483165	-0.800317	99
Es	0.512224	1.043994	-0.488929	99
Es	-0.776987	-0.475520	-0.792711	99
Es	0.984537	0.188307	-2.429970	99
Es	0.295621	0.198436	-0.522802	99
Es	1.156701	0.748771	-1.986799	99
Es	-1.868890	-1.461946	1.336389	99
Es	1.781337	0.596247	-1.530626	99
44
Properties=species:S:1:pos:R:3:Z:I:1 energy=-304.062548621726 field_type=dipole dipole="0.000000 0.000000 0.000000" charge=0
C	-0.177872	-0.464752	-0.344247	6
C	-0.605632	-0.403262	1.094623	6
C	-1.937842	0.192518	1.468853	6
N	-1.711352	-1.248082	1.558843	7
N	0.613118	0.739778	-0.630237	7
C	2.042048	0.483128	-0.800277	6
C	1.156728	0.748798	-1.987047	6
H	0.374898	-1.398012	-0.511857	1
H	-1.054572	-0.486682	-1.003777	1
H	0.227708	-0.295262	1.778783	1
H	-2.601613	0.521338	0.678513	1
H	-2.016442	0.736748	2.401343	1
H	-1.564542	-1.528742	2.530313	1
H	2.420778	-0.520752	-0.651027	1
H	2.705117	1.275628	-0.474067	1
H	1.217588	1.721097	-2.460607	1
H	0.911888	-0.073482	-2.648127	1
Es	0.512826	1.043445	-0.489696	99
Es	1.782741	0.595734	-1.530783	99
Es	-0.037293	-0.330635	1.566300	99
Es	-0.777075	-0.475465	-0.792755	99
Es	0.613365	0.739232	-0.630544	99
Es	1.194452	1.406165	-2.313916	99
Es	2.494085	1.017883	-0.576527	99
Es	-1.994958	0.558292	2.106229	99
Es	-0.177794	-0.464635	-0.344237	99
Es	-1.615302	-1.402215	2.147541	99
Es	0.984541	0.189203	-2.429303	99
Es	-1.866707	-1.459120	1.339075	99
Es	0.294776	0.198941	-0.522520	99
Es	-0.605849	-0.403370	1.094686	99
Es	-1.947213	-0.636060	1.580474	99
Es	0.712869	0.752108	-1.278871	99
Es	1.156708	0.748770	-1.986799	99
Es	2.292843	-0.203666	-0.693644	99
Es	1.252967	0.587370	-0.557248	99
Es	-1.137807	-1.001417	1.348600	99
Es	0.215060	-1.102040	-0.463188	99
Es	-1.937756	0.192278	1.468867	99
Es	-1.711049	-1.247636	1.559173	99
Es	-0.402145	-0.447045	0.376158	99
Es	-1.194894	0.103512	1.233009	99
Es	2.041811	0.483168	-0.800315	99
Es	-2.392026	0.415296	0.932825	99
44
Properties=species:S:1:pos:R:3:Z:I:1 energy=-304.062548621726 field_type=dipole dipole="0.000000 0.000000 0.000000" charge=0
C	-0.177872	-0.464752	-0.344247	6
C	-0.605632	-0.403262	1.094623	6
C	-1.937842	0.192518	1.468853	6
N	-1.711352	-1.248082	1.558843	7
N	0.613118	0.739778	-0.630237	7
C	2.042048	0.483128	-0.800277	6
C	1.156728	0.748798	-1.987047	6
H	0.374898	-1.398012	-0.511857	1
H	-1.054572	-0.486682	-1.003777	1
H	0.227708	-0.295262	1.778783	1
H	-2.601613	0.521338	0.678513	1
H	-2.016442	0.736748	2.401343	1
H	-1.564542	-1.528742	2.530313	1
H	2.420778	-0.520752	-0.651027	1
H	2.705117	1.275628	-0.474067	1
H	1.217588	1.721097	-2.460607	1
H	0.911888	-0.073482	-2.648127	1
Es	-1.937756	0.192274	1.468868	99
Es	-0.777237	-0.475393	-0.792834	99
Es	-1.711054	-1.247639	1.559163	99
Es	2.293046	-0.203688	-0.693721	99
Es	1.194259	1.405871	-2.314095	99
Es	0.215138	-1.102004	-0.463121	99
Es	0.711776	0.752105	-1.278760	99
Es	1.253276	0.587481	-0.557234	99
Es	0.984666	0.189812	-2.428772	99
Es	-0.177793	-0.464632	-0.344237	99
Es	-1.995279	0.557855	2.106047	99
Es	1.156704	0.748770	-1.986796	99
Es	-1.136833	-1.001431	1.347513	99
Es	-0.402053	-0.447077	0.376092	99
Es	-1.865033	-1.457541	1.340786	99
Es	-0.037193	-0.330828	1.566427	99
Es	-1.949006	-0.636212	1.579753	99
Es	-2.392281	0.415165	0.932873	99
Es	-1.615880	-1.402690	2.147499	99
Es	-1.194666	0.103424	1.233169	99
Es	2.493932	1.017753	-0.576752	99
Es	2.041817	0.483170	-0.800319	99
Es	0.294127	0.199325	-0.521913	99
Es	0.513364	1.042884	-0.490454	99
Es	0.613375	0.739244	-0.630550	99
Es	-0.605848	-0.403368	1.094688	99
Es	1.783610	0.595462	-1.530732	99
44
Properties=species:S:1:pos:R:3:Z:I:1 energy=-304.062548621726 field_type=dipole dipole="0.000000 0.000000 0.000000" charge=0
C	-0.177872	-0.464752	-0.344247	6
C	-0.605632	-0.403262	1.094623	6
C	-1.937842	0.192518	1.468853	6
N	-1.711352	-1.248082	1.558843	7
N	0.613118	0.739778	-0.630237	7
C	2.042048	0.483128	-0.800277	6
C	1.156728	0.748798	-1.987047	6
H	0.374898	-1.398012	-0.511857	1
H	-1.054572	-0.486682	-1.003777	1
H	0.227708	-0.295262	1.778783	1
H	-2.601613	0.521338	0.678513	1
H	-2.016442	0.736748	2.401343	1
H	-1.564542	-1.528742	2.530313	1
H	2.420778	-0.520752	-0.651027	1
H	2.705117	1.275628	-0.474067	1
H	1.217588	1.721097	-2.460607	1
H	0.911888	-0.073482	-2.648127	1
Es	0.984774	0.190302	-2.428274	99
Es	0.613378	0.739238	-0.630552	99
Es	-0.177793	-0.464634	-0.344238	99
Es	2.293329	-0.203683	-0.693710	99
Es	-0.605848	-0.403375	1.094686	99
Es	1.253660	0.587207	-0.557585	99
Es	-1.995331	0.557494	2.105948	99
Es	-1.950404	-0.635829	1.579169	99
Es	-1.864042	-1.456519	1.342220	99
Es	0.215297	-1.101996	-0.463099	99
Es	-1.136418	-1.001790	1.346481	99
Es	1.156708	0.748771	-1.986804	99
Es	-1.711070	-1.247660	1.559156	99
Es	-0.037126	-0.331004	1.566471	99
Es	0.710466	0.752990	-1.278649	99
Es	2.041813	0.483169	-0.800319	99
Es	-2.392538	0.415201	0.932998	99
Es	-0.402073	-0.446986	0.376051	99
Es	0.293211	0.199671	-0.521571	99
Es	2.493684	1.017641	-0.576988	99
Es	-1.194273	0.102929	1.233206	99
Es	0.514408	1.041891	-0.490561	99
Es	-1.615984	-1.402736	2.147600	99
Es	-1.937758	0.192280	1.468868	99
Es	1.194171	1.405668	-2.314301	99
Es	1.784218	0.595195	-1.530726	99
Es	-0.777280	-0.475344	-0.792890	99
44
Properties=species:S:1:pos:R:3:Z:I:1 energy=-304.062548621726 field_type=dipole dipole="0.000000 0.000000 0.000000" charge=0
C	-0.177872	-0.464752	-0.344247	6
C	-0.605632	-0.403262	1.094623	6
C	-1.937842	0.192518	1.468853	6
N	-1.711352	-1.248082	1.558843	7
N	0.613118	0.739778	-0.630237	7
C	2.042048	0.483128	-0.800277	6
C	1.156728	0.748798	-1.987047	6
H	0.374898	-1.398012	-0.511857	1
H	-1.054572	-0.486682	-1.003777	1
H	0.227708	-0.295262	1.778783	1
H	-2.601613	0.521338	0.678513	1
H	-2.016442	0.736748	2.401343	1
H	-1.564542	-1.528742	2.530313	1
H	2.420778	-0.520752	-0.651027	1
H	2.705117	1.275628	-0.474067	1
H	1.217588	1.721097	-2.460607	1
H	0.911888	-0.073482	-2.648127	1
Es	0.513932	1.041444	-0.490546	99
Es	2.041811	0.483168	-0.800314	99
Es	-1.194179	0.102840	1.233247	99
Es	1.156706	0.748770	-1.986794	99
Es	0.709816	0.753238	-1.278419	99
Es	-1.135610	-1.002128	1.345592	99
Es	-1.616494	-1.403059	2.147502	99
Es	-2.392731	0.415164	0.933108	99
Es	-1.863046	-1.455150	1.343623	99
Es	-0.037085	-0.331099	1.566512	99
Es	-1.995450	0.557195	2.105805	99
Es	1.253882	0.587732	-0.557772	99
Es	-0.177793	-0.464632	-0.344238	99
Es	-0.402027	-0.447038	0.375985	99
Es	2.493730	1.017567	-0.577011	99
Es	1.194096	1.405500	-2.314295	99
Es	-0.777368	-0.475312	-0.792925	99
Es	0.293688	0.199428	-0.521810	99
Es	1.784939	0.594818	-1.530834	99
Es	0.613380	0.739230	-0.630556	99
Es	2.293259	-0.203703	-0.693700	99
Es	-0.605841	-0.403372	1.094683	99
Es	-1.951527	-0.635918	1.578719	99
Es	0.215263	-1.101993	-0.462993	99
Es	-1.937753	0.192278	1.468868	99
Es	0.984646	0.190769	-2.427996	99
Es	-1.711065	-1.247644	1.559147	99
44
Properties=species:S:1:pos:R:3:Z:I:1 energy=-304.062548621726 field_type=dipole dipole="0.000000 0.000000 0.000000" charge=0
C	-0.177872	-0.464752	-0.344247	6
C	-0.605632	-0.403262	1.094623	6
C	-1.937842	0.192518	1.468853	6
N	-1.711352	-1.248082	1.558843	7
N	0.613118	0.739778	-0.630237	7
C	2.042048	0.483128	-0.800277	6
C	1.156728	0.748798	-1.987047	6
H	0.374898	-1.398012	-0.511857	1
H	-1.054572	-0.486682	-1.003777	1
H	0.227708	-0.295262	1.778783	1
H	-2.601613	0.521338	0.678513	1
H	-2.016442	0.736748	2.401343	1
H	-1.564542	-1.528742	2.530313	1
H	2.420778	-0.520752	-0.651027	1
H	2.705117	1.275628	-0.474067	1
H	1.217588	1.721097	-2.460607	1
H	0.911888	-0.073482	-2.648127	1
Es	1.156707	0.748770	-1.986797	99
Es	-1.952236	-0.635720	1.578314	99
Es	0.292205	0.200352	-0.520322	99
Es	-0.402005	-0.447054	0.375916	99
Es	2.041811	0.483167	-0.800310	99
Es	-1.616478	-1.403158	2.147470	99
Es	-1.862316	-1.454551	1.344441	99
Es	-1.995463	0.556916	2.105754	99
Es	-1.135413	-1.002464	1.345118	99
Es	2.293370	-0.203610	-0.693680	99
Es	-0.605849	-0.403375	1.094686	99
Es	-1.194145	0.102779	1.233272	99
Es	-1.711050	-1.247634	1.559171	99
Es	0.709709	0.752165	-1.278310	99
Es	0.613382	0.739228	-0.630556	99
Es	-1.937756	0.192282	1.468868	99
Es	0.984753	0.191077	-2.427737	99
Es	-0.777426	-0.475255	-0.792978	99
Es	0.215348	-1.101989	-0.462953	99
Es	1.253844	0.587500	-0.557616	99
Es	1.785359	0.594671	-1.530930	99
Es	-0.177794	-0.464632	-0.344238	99
Es	1.194042	1.405302	-2.314352	99
Es	2.493597	1.017469	-0.577119	99
Es	0.515068	1.041801	-0.492219	99
Es	-0.037076	-0.331106	1.566527	99
Es	-2.393012	0.415158	0.933167	99
44
Properties=species:S:1:pos:R:3:Z:I:1 energy=-304.062548621726 field_type=dipole dipole="0.000000 0.000000 0.000000" charge=0
C	-0.177872	-0.464752	-0.344247	6
C	-0.605632	-0.403262	1.094623	6
C	-1.937842	0.192518	1.468853	6
N	-1.711352	-1.248082	1.558843	7
N	0.613118	0.739778	-0.630237	7
C	2.042048	0.483128	-0.800277	6
C	1.156728	0.748798	-1.987047	6
H	0.374898	-1.398012	-0.511857	1
H	-1.054572	-0.486682	-1.003777	1
H	0.227708	-0.295262	1.778783	1
H	-2.601613	0.521338	0.678513	1
H	-2.016442	0.736748	2.401343	1
H	-1.564542	-1.528742	2.530313	1
H	2.420778	-0.520752	-0.651027	1
H	2.705117	1.275628	-0.474067	1
H	1.217588	1.721097	-2.460607	1
H	0.911888	-0.073482	-2.648127	1
Es	0.613390	0.739220	-0.630561	99
Es	-1.995666	0.556705	2.105750	99
Es	-0.037040	-0.331325	1.566565	99
Es	1.785627	0.594525	-1.531025	99
Es	-0.777446	-0.475288	-0.793028	99
Es	1.193937	1.405219	-2.314429	99
Es	0.709518	0.752286	-1.278201	99
Es	-1.711050	-1.247638	1.559172	99
Es	-1.861401	-1.453913	1.345219	99
Es	2.293443	-0.203637	-0.693737	99
Es	-1.135034	-1.002251	1.344698	99
Es	1.156705	0.748770	-1.986791	99
Es	-1.953312	-0.635924	1.577909	99
Es	-1.193898	0.102705	1.233373	99
Es	0.215317	-1.101881	-0.462973	99
Es	-0.177790	-0.464627	-0.344238	99
Es	-0.401967	-0.447057	0.376032	99
Es	0.292319	0.200269	-0.520707	99
Es	0.984778	0.191405	-2.427456	99
Es	2.493560	1.017418	-0.577198	99
Es	-1.616732	-1.403264	2.147347	99
Es	0.514741	1.041531	-0.492273	99
Es	2.041812	0.483167	-0.800318	99
Es	-1.937757	0.192273	1.468868	99
Es	1.254018	0.587656	-0.557287	99
Es	-2.393043	0.415117	0.933189	99
Es	-0.605850	-0.403370	1.094689	99
44
Properties=species:S:1:pos:R:3:Z:I:1 energy=-304.062548621726 field_type=dipole dipole="0.000000 0.000000 0.000000" charge=0
C	-0.177872	-0.464752	-0.344247	6
C	-0.605632	-0.403262	1.094623	6
C	-1.937842	0.192518	1.468853	6
N	-1.711352	-1.248082	1.558843	7
N	0.613118	0.739778	-0.630237	7
C	2.042048	0.483128	-0.800277	6
C	1.156728	0.748798	-1.987047	6
H	0.374898	-1.398012	-0.511857	1
H	-1.054572	-0.486682	-1.003777	1
H	0.227708	-0.295262	1.778783	1
H	-2.601613	0.521338	0.678513	1
H	-2.016442	0.736748	2.401343	1
H	-1.564542	-1.528742	2.530313	1
H	2.420778	-0.520752	-0.651027	1
H	2.705117	1.275628	-0.474067	1
H	1.217588	1.721097	-2.460607	1
H	0.911888	-0.073482	-2.648127	1
Es	-1.995721	0.556556	2.105708	99
Es	0.613391	0.739220	-0.630567	99
Es	1.786043	0.594316	-1.531109	99
Es	-0.177791	-0.464632	-0.344238	99
Es	-1.134708	-1.002407	1.344254	99
Es	0.515150	1.041374	-0.492580	99
Es	-1.194020	0.102494	1.233416	99
Es	1.253902	0.587497	-0.557264	99
Es	2.493438	1.017340	-0.577247	99
Es	0.215332	-1.101902	-0.462980	99
Es	1.193898	1.405182	-2.314432	99
Es	2.293535	-0.203562	-0.693726	99
Es	-1.861038	-1.453125	1.345691	99
Es	2.041813	0.483167	-0.800318	99
Es	-2.393178	0.415086	0.933160	99
Es	-0.036990	-0.331254	1.566626	99
Es	-0.777482	-0.475245	-0.793002	99
Es	-1.711056	-1.247647	1.559175	99
Es	0.984724	0.191656	-2.427296	99
Es	-1.616864	-1.403679	2.147302	99
Es	-1.953593	-0.635742	1.577869	99
Es	-0.605850	-0.403376	1.094685	99
Es	0.709498	0.752353	-1.278029	99
Es	1.156708	0.748769	-1.986792	99
Es	-0.401950	-0.447112	0.376024	99
Es	0.291740	0.200488	-0.520609	99
Es	-1.937752	0.192275	1.468867	99
44
Properties=species:S:1:pos:R:3:Z:I:1 energy=-304.062548621726 field_type=dipole dipole="0.000000 0.000000 0.000000" charge=0
C	-0.177872	-0.464752	-0.344247	6
C	-0.605632	-0.403262	1.094623	6
C	-1.937842	0.192518	1.468853	6
N	-1.711352	-1.248082	1.558843	7
N	0.613118	0.739778	-0.630237	7
C	2.042048	0.483128	-0.800277	6
C	1.156728	0.748798	-1.987047	6
H	0.374898	-1.398012	-0.511857	1
H	-1.054572	-0.486682	-1.003777	1
H	0.227708	-0.295262	1.778783	1
H	-2.601613	0.521338	0.678513	1
H	-2.016442	0.736748	2.401343	1
H	-1.564542	-1.528742	2.530313	1
H	2.420778	-0.520752	-0.651027	1
H	2.705117	1.275628	-0.474067	1
H	1.217588	1.721097	-2.460607	1
H	0.911888	-0.073482	-2.648127	1
Es	-0.605847	-0.403375	1.094686	99
Es	-1.617071	-1.403841	2.147206	99
Es	-1.134508	-1.002674	1.343909	99
Es	0.984842	0.191803	-2.427165	99
Es	-1.995805	0.556456	2.105716	99
Es	1.254153	0.587719	-0.557652	99
Es	0.708762	0.752533	-1.278081	99
Es	2.041812	0.483168	-0.800316	99
Es	-1.711043	-1.247627	1.559180	99
Es	0.291788	0.200471	-0.520327	99
Es	0.215378	-1.101867	-0.462914	99
Es	-0.036978	-0.331305	1.566640	99
Es	1.786177	0.594214	-1.530918	99
Es	1.193910	1.405085	-2.314475	99
Es	-1.193853	0.102344	1.233415	99
Es	0.515288	1.041002	-0.492636	99
Es	0.613377	0.739235	-0.630557	99
Es	2.493515	1.017391	-0.577267	99
Es	-1.954406	-0.635693	1.577473	99
Es	-2.393233	0.415029	0.933204	99
Es	2.293503	-0.203608	-0.693755	99
Es	1.156699	0.748760	-1.986791	99
Es	-0.177793	-0.464632	-0.344238	99
Es	-0.401988	-0.447093	0.375961	99
Es	-1.860268	-1.452422	1.346478	99
Es	-0.777483	-0.475263	-0.793057	99
Es	-1.937753	0.192281	1.468867	99
44
Properties=species:S:1:pos:R:3:Z:I:1 energy=-304.062548621726 field_type=dipole dipole="0.000000 0.000000 0.000000" charge=0
C	-0.177872	-0.464752	-0.344247	6
C	-0.605632	-0.403262	1.094623	6
C	-1.937842	0.192518	1.468853	6
N	-1.711352	-1.248082	1.558843	7
N	0.613118	0.739778	-0.630237	7
C	2.042048	0.483128	-0.800277	6
C	1.156728	0.748798	-1.987047	6
H	0.374898	-1.398012	-0.511857	1
H	-1.054572	-0.486682	-1.003777	1
H	0.227708	-0.295262	1.778783	1
H	-2.601613	0.521338	0.678513	1
H	-2.016442	0.736748	2.401343	1
H	-1.564542	-1.528742	2.530313	1
H	2.420778	-0.520752	-0.651027	1
H	2.705117	1.275628	-0.474067	1
H	1.217588	1.721097	-2.460607	1
H	0.911888	-0.073482	-2.648127	1
Es	-0.177794	-0.464634	-0.344238	99
Es	1.786328	0.594184	-1.530963	99
Es	-0.401944	-0.447120	0.375942	99
Es	-0.036932	-0.331338	1.566671	99
Es	2.041810	0.483165	-0.800319	99
Es	-2.393317	0.415070	0.933321	99
Es	-1.954950	-0.635756	1.577249	99
Es	-1.859783	-1.452050	1.346838	99
Es	2.293629	-0.203609	-0.693766	99
Es	1.254222	0.587842	-0.557469	99
Es	-1.937751	0.192277	1.468870	99
Es	0.291662	0.200548	-0.520088	99
Es	0.515425	1.040875	-0.492981	99
Es	-1.193832	0.102258	1.233410	99
Es	0.613363	0.739230	-0.630542	99
Es	2.493403	1.017335	-0.577370	99
Es	-1.134255	-1.002537	1.343725	99
Es	-1.711050	-1.247631	1.559171	99
Es	-1.995839	0.556265	2.105679	99
Es	0.215343	-1.101852	-0.462886	99
Es	-0.777563	-0.475230	-0.793089	99
Es	0.708628	0.752473	-1.278106	99
Es	-0.605846	-0.403375	1.094685	99
Es	-1.617177	-1.403962	2.147172	99
Es	0.984806	0.191930	-2.427016	99
Es	1.193889	1.404961	-2.314524	99
Es	1.156703	0.748773	-1.986786	99
44
Properties=species:S:1:pos:R:3:Z:I:1 energy=-304.062548621726 field_type=dipole dipole="0.000000 0.000000 0.000000" charge=0
C	-0.177872	-0.464752	-0.344247	6
C	-0.605632	-0.403262	1.094623	6
C	-1.937842	0.192518	1.468853	6
N	-1.711352	-1.248082	1.558843	7
N	0.613118	0.739778	-0.630237	7
C	2.042048	0.483128	-0.800277	6
C	1.156728	0.748798	-1.987047	6
H	0.374898	-1.398012	-0.511857	1
H	-1.054572	-0.486682	-1.003777	1
H	0.227708	-0.295262	1.778783	1
H	-2.601613	0.521338	0.678513	1
H	-2.016442	0.736748	2.401343	1
H	-1.564542	-1.528742	2.530313	1
H	2.420778	-0.520752	-0.651027	1
H	2.705117	1.275628	-0.474067	1
H	1.217588	1.721097	-2.460607	1
H	0.911888	-0.073482	-2.648127	1
Es	-0.605848	-0.403367	1.094685	99
Es	0.291270	0.200724	-0.519948	99
Es	-0.036926	-0.331476	1.566663	99
Es	-1.955289	-0.635718	1.577159	99
Es	-0.777534	-0.475218	-0.793072	99
Es	0.984780	0.192051	-2.426896	99
Es	-1.859376	-1.451726	1.347022	99
Es	1.254331	0.587697	-0.557642	99
Es	0.515772	1.040602	-0.493126	99
Es	-1.193677	0.102297	1.233526	99
Es	0.613363	0.739289	-0.630532	99
Es	-2.393381	0.415018	0.933310	99
Es	1.156707	0.748771	-1.986797	99
Es	1.193784	1.404866	-2.314533	99
Es	-0.401983	-0.447132	0.375918	99
Es	0.215405	-1.101870	-0.462913	99
Es	-1.995921	0.556163	2.105607	99
Es	-1.937754	0.192284	1.468868	99
Es	2.493359	1.017359	-0.577467	99
Es	2.293692	-0.203516	-0.693705	99
Es	2.041813	0.483168	-0.800318	99
Es	0.708356	0.752621	-1.277854	99
Es	-1.134162	-1.002427	1.343728	99
Es	1.786577	0.594054	-1.531110	99
Es	-0.177793	-0.464633	-0.344238	99
Es	-1.711047	-1.247623	1.559167	99
Es	-1.617339	-1.404168	2.147086	99
44
Properties=species:S:1:pos:R:3:Z:I:1 energy=-304.062548621726 field_type=dipole dipole="0.000000 0.000000 0.000000" charge=0
C	-0.177872	-0.464752	-0.344247	6
C	-0.605632	-0.403262	1.094623	6
C	-1.937842	0.192518	1.468853	6
N	-1.711352	-1.248082	1.558843	7
N	0.613118	0.739778	-0.630237	7
C	2.042048	0.483128	-0.800277	6
C	1.156728	0.748798	-1.987047	6
H	0.374898	-1.398012	-0.511857	1
H	-1.054572	-0.486682	-1.003777	1
H	0.227708	-0.295262	1.778783	1
H	-2.601613	0.521338	0.678513	1
H	-2.016442	0.736748	2.401343	1
H	-1.564542	-1.528742	2.530313	1
H	2.420778	-0.520752	-0.651027	1
H	2.705117	1.275628	-0.474067	1
H	1.217588	1.721097	-2.460607	1
H	0.911888	-0.073482	-2.648127	1
Es	-2.393445	0.415016	0.933369	99
Es	1.786749	0.593902	-1.531189	99
Es	-1.134090	-1.002867	1.343214	99
Es	-1.937760	0.192281	1.468868	99
Es	0.291383	0.200694	-0.519932	99
Es	-1.995869	0.556147	2.105588	99
Es	-1.859136	-1.451479	1.347866	99
Es	2.493456	1.017334	-0.577465	99
Es	1.193688	1.404872	-2.314579	99
Es	-1.955690	-0.635881	1.576790	99
Es	0.515725	1.040626	-0.493130	99
Es	-0.177793	-0.464632	-0.344238	99
Es	-1.193556	0.102153	1.233417	99
Es	0.984814	0.192256	-2.426720	99
Es	-0.401970	-0.447072	0.375914	99
Es	-1.711082	-1.247659	1.559105	99
Es	-0.036868	-0.331462	1.566707	99
Es	0.215365	-1.101885	-0.462913	99
Es	0.613355	0.739307	-0.630519	99
Es	-0.605845	-0.403374	1.094686	99
Es	2.041813	0.483168	-0.800319	99
Es	1.254418	0.587734	-0.557792	99
Es	-0.777585	-0.475160	-0.793056	99
Es	-1.617336	-1.403666	2.147204	99
Es	2.293599	-0.203516	-0.693746	99
Es	1.156705	0.748769	-1.986783	99
Es	0.708134	0.752484	-1.277759	99
44
Properties=species:S:1:pos:R:3:Z:I:1 energy=-304.062548621726 field_type=dipole dipole="0.000000 0.000000 0.000000" charge=0
C	-0.177872	-0.464752	-0.344247	6
C	-0.605632	-0.403262	1.094623	6
C	-1.937842	0.192518	1.468853	6
N	-1.711352	-1.248082	1.558843	7
N	0.613118	0.739778	-0.630237	7
C	2.042048	0.483128	-0.800277	6
C	1.156728	0.748798	-1.987047	6
H	0.374898	-1.398012	-0.511857	1
H	-1.054572	-0.486682	-1.003777	1
H	0.227708	-0.295262	1.778783	1
H	-2.601613	0.521338	0.678513	1
H	-2.016442	0.736748	2.401343	1
H	-1.564542	-1.528742	2.530313	1
H	2.420778	-0.520752	-0.651027	1
H	2.705117	1.275628	-0.474067	1
H	1.217588	1.721097	-2.460607	1
H	0.911888	-0.073482	-2.648127	1
Es	1.787020	0.593918	-1.531055	99
Es	2.293637	-0.203522	-0.693799	99
Es	1.254467	0.587396	-0.558143	99
Es	-1.133867	-1.002772	1.343022	99
Es	1.156702	0.748770	-1.986792	99
Es	-0.605846	-0.403375	1.094685	99
Es	-1.711058	-1.247650	1.559185	99
Es	0.290897	0.201066	-0.519716	99
Es	0.516370	1.040288	-0.493052	99
Es	-0.036898	-0.331444	1.566721	99
Es	0.613398	0.739197	-0.630575	99
Es	0.707599	0.752945	-1.277859	99
Es	-1.617284	-1.403931	2.147073	99
Es	-1.995921	0.556101	2.105653	99
Es	1.193654	1.404746	-2.314577	99
Es	-1.937756	0.192279	1.468866	99
Es	-1.858937	-1.451221	1.347938	99
Es	-0.777582	-0.475175	-0.793043	99
Es	-0.401918	-0.447051	0.375974	99
Es	0.984841	0.192384	-2.426622	99
Es	2.493405	1.017284	-0.577438	99
Es	-2.393444	0.414996	0.933414	99
Es	2.041814	0.483166	-0.800318	99
Es	-0.177794	-0.464632	-0.344238	99
Es	-1.193719	0.102040	1.233416	99
Es	-1.955984	-0.635844	1.576826	99
Es	0.215380	-1.101867	-0.462959	99
44
Properties=species:S:1:pos:R:3:Z:I:1 energy=-304.062548621726 field_type=dipole dipole="0.000000 0.000000 0.000000" charge=0
C	-0.177872	-0.464752	-0.344247	6
C	-0.605632	-0.403262	1.094623	6
C	-1.937842	0.192518	1.468853	6
N	-1.711352	-1.248082	1.558843	7
N	0.613118	0.739778	-0.630237	7
C	2.042048	0.483128	-0.800277	6
C	1.156728	0.748798	-1.987047	6
H	0.374898	-1.398012	-0.511857	1
H	-1.054572	-0.486682	-1.003777	1
H	0.227708	-0.295262	1.778783	1
H	-2.601613	0.521338	0.678513	1
H	-2.016442	0.736748	2.401343	1
H	-1.564542	-1.528742	2.530313	1
H	2.420778	-0.520752	-0.651027	1
H	2.705117	1.275628	-0.474067	1
H	1.217588	1.721097	-2.460607	1
H	0.911888	-0.073482	-2.648127	1
Es	-0.177793	-0.464632	-0.344238	99
Es	-1.995934	0.555949	2.105481	99
Es	-1.937756	0.192281	1.468867	99
Es	-1.711056	-1.247635	1.559157	99
Es	-1.858737	-1.450617	1.348085	99
Es	-0.036866	-0.331491	1.566756	99
Es	-0.401866	-0.447091	0.375917	99
Es	0.215366	-1.101823	-0.462884	99
Es	-0.605847	-0.403374	1.094685	99
Es	0.291010	0.200980	-0.519688	99
Es	2.041817	0.483167	-0.800320	99
Es	-1.193583	0.101983	1.233537	99
Es	-1.133676	-1.002865	1.342960	99
Es	1.786956	0.593851	-1.531168	99
Es	0.707882	0.752527	-1.277763	99
Es	0.516067	1.040573	-0.493372	99
Es	1.156704	0.748771	-1.986793	99
Es	0.613380	0.739237	-0.630554	99
Es	-0.777674	-0.475154	-0.793102	99
Es	0.984824	0.192430	-2.426573	99
Es	2.493416	1.017248	-0.577475	99
Es	2.293628	-0.203538	-0.693816	99
Es	1.193766	1.404738	-2.314612	99
Es	1.254394	0.587580	-0.557788	99
Es	-1.617629	-1.404393	2.146922	99
Es	-2.393615	0.414967	0.933380	99
Es	-1.956001	-0.635575	1.576985	99
44
Properties=species:S:1:pos:R:3:Z:I:1 energy=-304.062548621726 field_type=dipole dipole="0.000000 0.000000 0.000000" charge=0
C	-0.177872	-0.464752	-0.344247	6
C	-0.605632	-0.403262	1.094623	6
C	-1.937842	0.192518	1.468853	6
N	-1.711352	-1.248082	1.558843	7
N	0.613118	0.739778	-0.630237	7
C	2.042048	0.483128	-0.800277	6
C	1.156728	0.748798	-1.987047	6
H	0.374898	-1.398012	-0.511857	1
H	-1.054572	-0.486682	-1.003777	1
H	0.227708	-0.295262	1.778783	1
H	-2.601613	0.521338	0.678513	1
H	-2.016442	0.736748	2.401343	1
H	-1.564542	-1.528742	2.530313	1
H	2.420778	-0.520752	-0.651027	1
H	2.705117	1.275628	-0.474067	1
H	1.217588	1.721097	-2.460607	1
H	0.911888	-0.073482	-2.648127	1
Es	2.293706	-0.203514	-0.693868	99
Es	-2.393500	0.415011	0.933369	99
Es	-1.956808	-0.636029	1.576485	99
Es	0.984835	0.192589	-2.426476	99
Es	0.707747	0.752536	-1.277593	99
Es	-1.711050	-1.247639	1.559175	99
Es	0.215404	-1.101869	-0.462885	99
Es	-0.036852	-0.331522	1.566793	99
Es	-0.177792	-0.464632	-0.344238	99
Es	-1.937753	0.192282	1.468866	99
Es	1.156705	0.748770	-1.986793	99
Es	0.290707	0.201073	-0.519521	99
Es	0.516218	1.040350	-0.493652	99
Es	2.493385	1.017291	-0.577484	99
Es	-0.401927	-0.447116	0.375880	99
Es	-1.858118	-1.450609	1.348548	99
Es	-0.777633	-0.475128	-0.793095	99
Es	2.041813	0.483168	-0.800317	99
Es	0.613405	0.739235	-0.630576	99
Es	-1.193631	0.101932	1.233496	99
Es	1.787089	0.593806	-1.531233	99
Es	-1.133683	-1.002651	1.342792	99
Es	1.254511	0.587613	-0.557780	99
Es	-0.605846	-0.403376	1.094685	99
Es	1.193705	1.404660	-2.314588	99
Es	-1.995981	0.555970	2.105570	99
Es	-1.617478	-1.404109	2.147027	99
44
Properties=species:S:1:pos:R:3:Z:I:1 energy=-304.062548621726 field_type=dipole dipole="0.000000 0.000000 0.000000" charge=0
C	-0.177872	-0.464752	-0.344247	6
C	-0.605632	-0.403262	1.094623	6
C	-1.937842	0.192518	1.468853	6
N	-1.711352	-1.248082	1.558843	7
N	0.613118	0.739778	-0.630237	7
C	2.042048	0.483128	-0.800277	6
C	1.156728	0.748798	-1.987047	6
H	0.374898	-1.398012	-0.511857	1
H	-1.054572	-0.486682	-1.003777	1
H	0.227708	-0.295262	1.778783	1
H	-2.601613	0.521338	0.678513	1
H	-2.016442	0.736748	2.401343	1
H	-1.564542	-1.528742	2.530313	1
H	2.420778	-0.520752	-0.651027	1
H	2.705117	1.275628	-0.474067	1
H	1.217588	1.721097	-2.460607	1
H	0.911888	-0.073482	-2.648127	1
Es	-0.605846	-0.403375	1.094685	99
Es	1.156705	0.748769	-1.986793	99
Es	-1.133636	-1.002788	1.342597	99
Es	2.293734	-0.203533	-0.693872	99
Es	-1.617593	-1.404271	2.147049	99
Es	0.516458	1.040096	-0.493745	99
Es	-2.393573	0.414989	0.933418	99
Es	-1.858145	-1.450300	1.348662	99
Es	0.613347	0.739304	-0.630517	99
Es	-0.177794	-0.464633	-0.344238	99
Es	0.290600	0.201113	-0.519457	99
Es	1.787137	0.593842	-1.531170	99
Es	2.493379	1.017259	-0.577601	99
Es	-1.193558	0.101935	1.233554	99
Es	-1.711052	-1.247651	1.559178	99
Es	1.254585	0.587649	-0.557761	99
Es	-0.036818	-0.331621	1.566812	99
Es	0.215376	-1.101887	-0.462932	99
Es	2.041811	0.483169	-0.800324	99
Es	0.707538	0.752738	-1.277599	99
Es	-0.777623	-0.475086	-0.793060	99
Es	-1.937755	0.192281	1.468867	99
Es	0.984867	0.192567	-2.426471	99
Es	-1.996016	0.555865	2.105510	99
Es	1.193677	1.404580	-2.314582	99
Es	-1.956682	-0.635847	1.576487	99
Es	-0.401945	-0.447071	0.375891	99
44
Properties=species:S:1:pos:R:3:Z:I:1 energy=-304.062548621726 field_type=dipole dipole="0.000000 0.000000 0.000000" charge=0
C	-0.177872	-0.464752	-0.344247	6
C	-0.605632	-0.403262	1.094623	6
C	-1.937842	0.192518	1.468853	6
N	-1.711352	-1.248082	1.558843	7
N	0.613118	0.739778	-0.630237	7
C	2.042048	0.483128	-0.800277	6
C	1.156728	0.748798	-1.987047	6
H	0.374898	-1.398012	-0.511857	1
H	-1.054572	-0.486682	-1.003777	1
H	0.227708	-0.295262	1.778783	1
H	-2.601613	0.521338	0.678513	1
H	-2.016442	0.736748	2.401343	1
H	-1.564542	-1.528742	2.530313	1
H	2.420778	-0.520752	-0.651027	1
H	2.705117	1.275628	-0.474067	1
H	1.217588	1.721097	-2.460607	1
H	0.911888	-0.073482	-2.648127	1
Es	-0.605847	-0.403372	1.094686	99
Es	1.156705	0.748770	-1.986790	99
Es	2.293760	-0.203478	-0.693857	99
Es	-1.193546	0.101912	1.233517	99
Es	-1.711110	-1.247750	1.559090	99
Es	0.613394	0.739224	-0.630565	99
Es	-0.036849	-0.331546	1.566786	99
Es	0.984887	0.192678	-2.426358	99
Es	-1.857884	-1.450371	1.349245	99
Es	0.215367	-1.101782	-0.462901	99
Es	-1.996002	0.555788	2.105460	99
Es	-0.177793	-0.464632	-0.344238	99
Es	0.707526	0.752545	-1.277677	99
Es	1.193675	1.404584	-2.314636	99
Es	-1.937755	0.192277	1.468866	99
Es	-1.133486	-1.002972	1.342399	99
Es	-0.401898	-0.447140	0.375975	99
Es	1.254535	0.587654	-0.557755	99
Es	1.787266	0.593757	-1.531183	99
Es	0.290698	0.201150	-0.519470	99
Es	2.041812	0.483167	-0.800314	99
Es	-1.957155	-0.635958	1.576286	99
Es	-0.777634	-0.475185	-0.793108	99
Es	-2.393666	0.414981	0.933449	99
Es	2.493316	1.017231	-0.577563	99
Es	-1.617410	-1.403745	2.146994	99
Es	0.516272	1.040306	-0.493750	99
44
Properties=species:S:1:pos:R:3:Z:I:1 energy=-304.062548621726 field_type=dipole dipole="0.000000 0.000000 0.000000" charge=0
C	-0.177872	-0.464752	-0.344247	6
C	-0.605632	-0.403262	1.094623	6
C	-1.937842	0.192518	1.468853	6
N	-1.711352	-1.248082	1.558843	7
N	0.613118	0.739778	-0.630237	7
C	2.042048	0.483128	-0.800277	6
C	1.156728	0.748798	-1.987047	6
H	0.374898	-1.398012	-0.511857	1
H	-1.054572	-0.486682	-1.003777	1
H	0.227708	-0.295262	1.778783	1
H	-2.601613	0.521338	0.678513	1
H	-2.016442	0.736748	2.401343	1
H	-1.564542	-1.528742	2.530313	1
H	2.420778	-0.520752	-0.651027	1
H	2.705117	1.275628	-0.474067	1
H	1.217588	1.721097	-2.460607	1
H	0.911888	-0.073482	-2.648127	1
Es	-1.617607	-1.404126	2.146936	99
Es	-1.193451	0.101948	1.233555	99
Es	0.290559	0.201167	-0.519422	99
Es	0.215406	-1.101799	-0.462920	99
Es	-0.401906	-0.447142	0.375937	99
Es	-0.777647	-0.475149	-0.793100	99
Es	1.787379	0.593704	-1.531288	99
Es	-1.937758	0.192281	1.468869	99
Es	-0.177793	-0.464633	-0.344238	99
Es	-0.605846	-0.403371	1.094684	99
Es	2.493310	1.017244	-0.577584	99
Es	0.516337	1.040213	-0.493832	99
Es	2.293745	-0.203461	-0.693737	99
Es	-1.857487	-1.450036	1.349278	99
Es	1.254598	0.587693	-0.557911	99
Es	0.613388	0.739238	-0.630556	99
Es	2.041813	0.483169	-0.800317	99
Es	1.193619	1.404544	-2.314619	99
Es	-1.133413	-1.002721	1.342474	99
Es	0.984839	0.192666	-2.426359	99
Es	-0.036830	-0.331531	1.566780	99
Es	-1.711101	-1.247682	1.559084	99
Es	0.707509	0.752594	-1.277483	99
Es	-1.996067	0.555662	2.105456	99
Es	-1.957442	-0.636157	1.576220	99
Es	1.156706	0.748770	-1.986791	99
Es	-2.393683	0.415006	0.933473	99
44
Properties=species:S:1:pos:R:3:Z:I:1 energy=-304.062548621726 field_type=dipole dipole="0.000000 0.000000 0.000000" charge=0
C	-0.177872	-0.464752	-0.344247	6
C	-0.605632	-0.403262	1.094623	6
C	-1.937842	0.192518	1.468853	6
N	-1.711352	-1.248082	1.558843	7
N	0.613118	0.739778	-0.630237	7
C	2.042048	0.483128	-0.800277	6
C	1.156728	0.748798	-1.987047	6
H	0.374898	-1.398012	-0.511857	1
H	-1.054572	-0.486682	-1.003777	1
H	0.227708	-0.295262	1.778783	1
H	-2.601613	0.521338	0.678513	1
H	-2.016442	0.736748	2.401343	1
H	-1.564542	-1.528742	2.530313	1
H	2.420778	-0.520752	-0.651027	1
H	2.705117	1.275628	-0.474067	1
H	1.217588	1.721097	-2.460607	1
H	0.911888	-0.073482	-2.648127	1
Es	1.787614	0.593879	-1.531490	99
Es	-0.777726	-0.475175	-0.793150	99
Es	-1.857321	-1.449950	1.349304	99
Es	-1.957686	-0.635855	1.576101	99
Es	-1.996070	0.555698	2.105419	99
Es	1.254556	0.587631	-0.557865	99
Es	-1.617594	-1.404223	2.146954	99
Es	-1.193415	0.101804	1.233435	99
Es	-0.036832	-0.331477	1.566814	99
Es	-0.177793	-0.464633	-0.344238	99
Es	2.493294	1.017069	-0.577366	99
Es	-0.605846	-0.403377	1.094685	99
Es	-1.937755	0.192282	1.468867	99
Es	-1.133474	-1.002940	1.342518	99
Es	2.041815	0.483166	-0.800310	99
Es	0.613364	0.739219	-0.630545	99
Es	0.707351	0.752661	-1.277467	99
Es	-2.393649	0.414972	0.933549	99
Es	0.516540	1.040103	-0.493911	99
Es	2.293679	-0.203455	-0.693942	99
Es	-0.401860	-0.447134	0.375837	99
Es	-1.711059	-1.247646	1.559157	99
Es	0.984861	0.192795	-2.426244	99
Es	0.215459	-1.101795	-0.462805	99
Es	0.290422	0.201254	-0.519292	99
Es	1.193597	1.404450	-2.314637	99
Es	1.156705	0.748770	-1.986792	99
44
Properties=species:S:1:pos:R:3:Z:I:1 energy=-304.062548621726 field_type=dipole dipole="0.000000 0.000000 0.000000" charge=0
C	-0.177872	-0.464752	-0.344247	6
C	-0.605632	-0.403262	1.094623	6
C	-1.937842	0.192518	1.468853	6
N	-1.711352	-1.248082	1.558843	7
N	0.613118	0.739778	-0.630237	7
C	2.042048	0.483128	-0.800277	6
C	1.156728	0.748798	-1.987047	6
H	0.374898	-1.398012	-0.511857	1
H	-1.054572	-0.486682	-1.003777	1
H	0.227708	-0.295262	1.778783	1
H	-2.601613	0.521338	0.678513	1
H	-2.016442	0.736748	2.401343	1
H	-1.564542	-1.528742	2.530313	1
H	2.420778	-0.520752	-0.651027	1
H	2.705117	1.275628	-0.474067	1
H	1.217588	1.721097	-2.460607	1
H	0.911888	-0.073482	-2.648127	1
Es	0.984902	0.192887	-2.426237	99
Es	0.613387	0.739198	-0.630570	99
Es	-0.177794	-0.464633	-0.344238	99
Es	-1.957730	-0.635982	1.575942	99
Es	0.516544	1.040226	-0.494051	99
Es	0.215395	-1.101707	-0.462870	99
Es	1.156708	0.748770	-1.986799	99
Es	-1.711057	-1.247655	1.559177	99
Es	1.787452	0.593584	-1.531124	99
Es	-1.996172	0.555633	2.105525	99
Es	-1.193463	0.101711	1.233597	99
Es	-0.401874	-0.447144	0.375927	99
Es	-1.857147	-1.449874	1.349290	99
Es	2.293836	-0.203483	-0.693902	99
Es	-1.617735	-1.404233	2.146931	99
Es	-2.393684	0.414936	0.933432	99
Es	0.290398	0.201351	-0.519140	99
Es	2.493259	1.017191	-0.577614	99
Es	2.041813	0.483167	-0.800317	99
Es	0.707220	0.752427	-1.277498	99
Es	1.254637	0.587615	-0.557973	99
Es	-1.133299	-1.002711	1.342482	99
Es	-1.937755	0.192282	1.468867	99
Es	1.193688	1.404604	-2.314628	99
Es	-0.777641	-0.475182	-0.793186	99
Es	-0.036861	-0.331521	1.566879	99
Es	-0.605848	-0.403366	1.094685	99
44
Properties=species:S:1:pos:R:3:Z:I:1 energy=-304.062548621726 field_type=dipole dipole="0.000000 0.000000 0.000000" charge=0
C	-0.177872	-0.464752	-0.344247	6
C	-0.605632	-0.403262	1.094623	6
C	-1.937842	0.192518	1.468853	6
N	-1.711352	-1.248082	1.558843	7
N	0.613118	0.739778	-0.630237	7
C	2.042048	0.483128	-0.800277	6
C	1.156728	0.748798	-1.987047	6
H	0.374898	-1.398012	-0.511857	1
H	-1.054572	-0.486682	-1.003777	1
H	0.227708	-0.295262	1.778783	1
H	-2.601613	0.521338	0.678513	1
H	-2.016442	0.736748	2.401343	1
H	-1.564542	-1.528742	2.530313	1
H	2.420778	-0.520752	-0.651027	1
H	2.705117	1.275628	-0.474067	1
H	1.217588	1.721097	-2.460607	1
H	0.911888	-0.073482	-2.648127	1
Es	-0.036801	-0.331633	1.566801	99
Es	0.215416	-1.101841	-0.462849	99
Es	0.707353	0.752325	-1.277485	99
Es	-1.193448	0.101739	1.233499	99
Es	1.156706	0.748769	-1.986794	99
Es	0.290405	0.201189	-0.519164	99
Es	-0.177792	-0.464631	-0.344238	99
Es	-1.133191	-1.002655	1.342481	99
Es	-0.777702	-0.475094	-0.793133	99
Es	-1.711113	-1.247760	1.559107	99
Es	2.041816	0.483167	-0.800319	99
Es	1.193577	1.404501	-2.314591	99
Es	-1.958011	-0.636028	1.575902	99
Es	-1.937757	0.192284	1.468867	99
Es	-1.856755	-1.449341	1.349545	99
Es	-1.996105	0.555629	2.105565	99
Es	-1.617918	-1.404550	2.146811	99
Es	-2.393720	0.414950	0.933545	99
Es	1.787513	0.593593	-1.531378	99
Es	-0.605846	-0.403375	1.094685	99
Es	0.984916	0.192919	-2.426219	99
Es	-0.401904	-0.447085	0.375866	99
Es	0.516337	1.039974	-0.494414	99
Es	2.293678	-0.203413	-0.693881	99
Es	1.254737	0.588006	-0.557495	99
Es	2.493405	1.017215	-0.577571	99
Es	0.613382	0.739238	-0.630555	99
