43
Properties=species:S:1:pos:R:3:Z:I:1 energy=-323.9937041547738 field_type=dipole dipole="0.000000 0.000000 0.000000" charge=0
C	-0.163743	-1.575234	0.988882	6
C	-0.428313	-0.927864	-0.362657	6
N	0.385037	0.271246	-0.568507	7
C	-0.014293	1.526646	-0.136277	6
C	-1.149673	1.820846	0.505723	6
C	1.629007	0.099906	-1.174808	6
O	2.110057	-0.959774	-1.560777	8
H	-0.771473	-2.478264	1.102342	1
H	-0.407083	-0.895034	1.811132	1
H	0.889467	-1.857184	1.090253	1
H	-1.490123	-0.687214	-0.480907	1
H	-0.197673	-1.655454	-1.150247	1
H	0.679047	2.340506	-0.345577	1
H	-1.899113	1.084635	0.768832	1
H	-1.356533	2.846216	0.798523	1
H	2.185407	1.046026	-1.285928	1
Es	-0.294469	-1.238348	0.316570	99
Es	1.994416	0.757417	-1.241430	99
Es	1.921165	-1.199075	-1.504537	99
Es	0.385460	0.271224	-0.567982	99
Es	2.109892	-0.959492	-1.560645	99
Es	-1.288349	2.511718	0.701823	99
Es	1.833468	-0.566255	-1.652119	99
Es	0.423121	0.350411	-0.778861	99
Es	-0.762298	1.728584	-0.088112	99
Es	0.941903	0.189324	-0.716542	99
Es	-0.581600	-2.186793	1.058449	99
Es	-0.014127	1.526461	-0.136401	99
Es	-0.163763	-1.575216	0.988848	99
Es	-1.654478	1.319861	0.681856	99
Es	0.230668	0.799495	-0.341146	99
Es	-1.147310	-0.749626	-0.433854	99
Es	-0.271015	-1.406408	-0.890817	99
Es	2.384452	-0.912940	-1.685422	99
Es	-0.464056	1.626308	0.487810	99
Es	0.046897	-0.223077	-0.461464	99
Es	0.468011	2.060178	-0.286936	99
Es	0.547752	-1.762238	1.052390	99
Es	1.628840	0.099935	-1.174720	99
Es	2.047891	-0.630456	-1.202988	99
Es	-0.332957	-1.109122	1.543466	99
Es	-1.149727	1.820854	0.505737	99
Es	-0.428193	-0.927679	-0.362638	99
43
Properties=species:S:1:pos:R:3:Z:I:1 energy=-323.9937041547738 field_type=dipole dipole="0.000000 0.000000 0.000000" charge=0
C	-0.163743	-1.575234	0.988882	6
C	-0.428313	-0.927864	-0.362657	6
N	0.385037	0.271246	-0.568507	7
C	-0.014293	1.526646	-0.136277	6
C	-1.149673	1.820846	0.505723	6
C	1.629007	0.099906	-1.174808	6
O	2.110057	-0.959774	-1.560777	8
H	-0.771473	-2.478264	1.102342	1
H	-0.407083	-0.895034	1.811132	1
H	0.889467	-1.857184	1.090253	1
H	-1.490123	-0.687214	-0.480907	1
H	-0.197673	-1.655454	-1.150247	1
H	0.679047	2.340506	-0.345577	1
H	-1.899113	1.084635	0.768832	1
H	-1.356533	2.846216	0.798523	1
H	2.185407	1.046026	-1.285928	1
Es	1.914173	-1.161837	-1.497385	99
Es	-0.268792	-1.408759	-0.891643	99
Es	-0.014123	1.526460	-0.136396	99
Es	0.385674	0.271223	-0.567713	99
Es	-0.163764	-1.575215	0.988846	99
Es	0.041152	-0.222868	-0.472409	99
Es	0.549801	-1.765198	1.050789	99
Es	0.461146	0.328518	-0.638345	99
Es	2.397526	-0.945802	-1.696751	99
Es	-0.428194	-0.927677	-0.362636	99
Es	2.044461	-0.632817	-1.200064	99
Es	-1.148841	-0.748311	-0.431586	99
Es	1.831460	-0.568309	-1.650977	99
Es	0.211249	0.813548	-0.372084	99
Es	-1.149726	1.820853	0.505746	99
Es	-0.579893	-2.182765	1.055835	99
Es	1.628837	0.099935	-1.174724	99
Es	-0.763368	1.728836	-0.088971	99
Es	-1.651875	1.321359	0.680434	99
Es	1.993760	0.756936	-1.241774	99
Es	-1.290189	2.513500	0.702866	99
Es	2.109948	-0.959414	-1.560674	99
Es	-0.336102	-1.107378	1.545623	99
Es	-0.463442	1.625159	0.489260	99
Es	0.466119	2.058221	-0.286365	99
Es	-0.294649	-1.238339	0.316088	99
Es	0.929243	0.195190	-0.814656	99
43
Properties=species:S:1:pos:R:3:Z:I:1 energy=-323.9937041547738 field_type=dipole dipole="0.000000 0.000000 0.000000" charge=0
C	-0.163743	-1.575234	0.988882	6
C	-0.428313	-0.927864	-0.362657	6
N	0.385037	0.271246	-0.568507	7
C	-0.014293	1.526646	-0.136277	6
C	-1.149673	1.820846	0.505723	6
C	1.629007	0.099906	-1.174808	6
O	2.110057	-0.959774	-1.560777	8
H	-0.771473	-2.478264	1.102342	1
H	-0.407083	-0.895034	1.811132	1
H	0.889467	-1.857184	1.090253	1
H	-1.490123	-0.687214	-0.480907	1
H	-0.197673	-1.655454	-1.150247	1
H	0.679047	2.340506	-0.345577	1
H	-1.899113	1.084635	0.768832	1
H	-1.356533	2.846216	0.798523	1
H	2.185407	1.046026	-1.285928	1
Es	2.043870	-0.635704	-1.199708	99
Es	-0.428188	-0.927672	-0.362638	99
Es	-0.163763	-1.575216	0.988847	99
Es	-0.267208	-1.410447	-0.891483	99
Es	0.550925	-1.766498	1.049431	99
Es	2.109948	-0.959489	-1.560680	99
Es	0.470406	0.325386	-0.618505	99
Es	0.385046	0.271261	-0.568504	99
Es	1.628838	0.099935	-1.174721	99
Es	-1.149786	-0.747611	-0.429942	99
Es	-0.763304	1.728425	-0.088610	99
Es	0.207353	0.814262	-0.377180	99
Es	0.465153	2.057568	-0.285945	99
Es	1.911516	-1.127065	-1.494103	99
Es	1.833037	-0.565567	-1.650057	99
Es	-0.463655	1.624947	0.489446	99
Es	-1.650424	1.321879	0.679531	99
Es	-0.579184	-2.180774	1.054204	99
Es	0.924393	0.195697	-0.827099	99
Es	-1.291404	2.514409	0.703175	99
Es	-0.294719	-1.238209	0.315922	99
Es	-1.149724	1.820853	0.505746	99
Es	-0.338057	-1.106171	1.546165	99
Es	2.399466	-0.980373	-1.701330	99
Es	1.993530	0.756535	-1.241897	99
Es	-0.014122	1.526455	-0.136400	99
Es	0.041653	-0.221771	-0.473330	99
43
Properties=species:S:1:pos:R:3:Z:I:1 energy=-323.9937041547738 field_type=dipole dipole="0.000000 0.000000 0.000000" charge=0
C	-0.163743	-1.575234	0.988882	6
C	-0.428313	-0.927864	-0.362657	6
N	0.385037	0.271246	-0.568507	7
C	-0.014293	1.526646	-0.136277	6
C	-1.149673	1.820846	0.505723	6
C	1.629007	0.099906	-1.174808	6
O	2.110057	-0.959774	-1.560777	8
H	-0.771473	-2.478264	1.102342	1
H	-0.407083	-0.895034	1.811132	1
H	0.889467	-1.857184	1.090253	1
H	-1.490123	-0.687214	-0.480907	1
H	-0.197673	-1.655454	-1.150247	1
H	0.679047	2.340506	-0.345577	1
H	-1.899113	1.084635	0.768832	1
H	-1.356533	2.846216	0.798523	1
H	2.185407	1.046026	-1.285928	1
Es	0.922065	0.195557	-0.832297	99
Es	-0.163765	-1.575213	0.988843	99
Es	-0.578803	-2.179250	1.053117	99
Es	0.384917	0.271341	-0.568855	99
Es	0.551739	-1.767437	1.048249	99
Es	-0.294570	-1.238256	0.315604	99
Es	-0.339521	-1.105078	1.546046	99
Es	-0.266063	-1.411745	-0.891109	99
Es	2.109960	-0.959403	-1.560681	99
Es	0.464376	2.057169	-0.285780	99
Es	2.042143	-0.634791	-1.200287	99
Es	-1.292286	2.514948	0.703419	99
Es	-1.150515	-0.747239	-0.428156	99
Es	-0.014121	1.526454	-0.136399	99
Es	1.628835	0.099937	-1.174722	99
Es	0.474560	0.323971	-0.609808	99
Es	-1.649318	1.322052	0.679063	99
Es	0.205104	0.814556	-0.380280	99
Es	-0.763386	1.728224	-0.088000	99
Es	1.830788	-0.568653	-1.649438	99
Es	-1.149725	1.820852	0.505745	99
Es	2.398743	-0.994279	-1.703811	99
Es	-0.428197	-0.927681	-0.362637	99
Es	1.993487	0.756310	-1.241990	99
Es	0.042570	-0.221011	-0.472993	99
Es	-0.463673	1.624831	0.489196	99
Es	1.916247	-1.111117	-1.491704	99
43
Properties=species:S:1:pos:R:3:Z:I:1 energy=-323.9937041547738 field_type=dipole dipole="0.000000 0.000000 0.000000" charge=0
C	-0.163743	-1.575234	0.988882	6
C	-0.428313	-0.927864	-0.362657	6
N	0.385037	0.271246	-0.568507	7
C	-0.014293	1.526646	-0.136277	6
C	-1.149673	1.820846	0.505723	6
C	1.629007	0.099906	-1.174808	6
O	2.110057	-0.959774	-1.560777	8
H	-0.771473	-2.478264	1.102342	1
H	-0.407083	-0.895034	1.811132	1
H	0.889467	-1.857184	1.090253	1
H	-1.490123	-0.687214	-0.480907	1
H	-0.197673	-1.655454	-1.150247	1
H	0.679047	2.340506	-0.345577	1
H	-1.899113	1.084635	0.768832	1
H	-1.356533	2.846216	0.798523	1
H	2.185407	1.046026	-1.285928	1
Es	0.922391	0.194696	-0.831689	99
Es	-0.578472	-2.178277	1.052095	99
Es	-0.294388	-1.238134	0.315346	99
Es	2.109988	-0.959381	-1.560687	99
Es	-1.149737	1.820859	0.505718	99
Es	0.472662	0.324579	-0.613600	99
Es	2.397058	-1.005778	-1.704751	99
Es	2.040842	-0.634685	-1.200138	99
Es	-0.265032	-1.412797	-0.890541	99
Es	0.463934	2.057097	-0.285693	99
Es	-0.340741	-1.104302	1.545903	99
Es	1.919156	-1.098656	-1.491446	99
Es	-1.648492	1.322077	0.678955	99
Es	0.204946	0.814338	-0.379930	99
Es	1.628834	0.099935	-1.174725	99
Es	-0.163763	-1.575215	0.988847	99
Es	-0.428194	-0.927680	-0.362636	99
Es	-1.292888	2.515173	0.703652	99
Es	-0.464050	1.625046	0.488989	99
Es	1.993381	0.756183	-1.242171	99
Es	0.385321	0.271211	-0.568070	99
Es	0.044053	-0.220686	-0.470610	99
Es	-0.763241	1.727743	-0.087814	99
Es	-0.014120	1.526453	-0.136397	99
Es	0.552378	-1.767805	1.046847	99
Es	1.830948	-0.569737	-1.648840	99
Es	-1.151179	-0.747213	-0.426278	99
43
Properties=species:S:1:pos:R:3:Z:I:1 energy=-323.9937041547738 field_type=dipole dipole="0.000000 0.000000 0.000000" charge=0
C	-0.163743	-1.575234	0.988882	6
C	-0.428313	-0.927864	-0.362657	6
N	0.385037	0.271246	-0.568507	7
C	-0.014293	1.526646	-0.136277	6
C	-1.149673	1.820846	0.505723	6
C	1.629007	0.099906	-1.174808	6
O	2.110057	-0.959774	-1.560777	8
H	-0.771473	-2.478264	1.102342	1
H	-0.407083	-0.895034	1.811132	1
H	0.889467	-1.857184	1.090253	1
H	-1.490123	-0.687214	-0.480907	1
H	-0.197673	-1.655454	-1.150247	1
H	0.679047	2.340506	-0.345577	1
H	-1.899113	1.084635	0.768832	1
H	-1.356533	2.846216	0.798523	1
H	2.185407	1.046026	-1.285928	1
Es	1.921220	-1.088956	-1.492364	99
Es	-1.149726	1.820854	0.505746	99
Es	2.395478	-1.014830	-1.704606	99
Es	0.463616	2.057007	-0.285709	99
Es	-1.647846	1.322001	0.678917	99
Es	1.831056	-0.568046	-1.647695	99
Es	-0.341638	-1.103602	1.545530	99
Es	1.993289	0.756048	-1.242333	99
Es	-0.428191	-0.927676	-0.362629	99
Es	-0.264149	-1.413764	-0.889882	99
Es	0.204389	0.814172	-0.380146	99
Es	0.044963	-0.220628	-0.469489	99
Es	-1.151561	-0.747084	-0.424784	99
Es	0.472836	0.324329	-0.612708	99
Es	-0.463855	1.624914	0.488414	99
Es	-0.578303	-2.177375	1.051405	99
Es	2.040387	-0.636979	-1.200437	99
Es	-0.294509	-1.238038	0.315043	99
Es	0.385739	0.271234	-0.567675	99
Es	-0.163764	-1.575215	0.988844	99
Es	-0.014124	1.526456	-0.136403	99
Es	0.552867	-1.768190	1.045659	99
Es	2.109966	-0.959410	-1.560676	99
Es	1.628834	0.099936	-1.174723	99
Es	-1.293359	2.515298	0.703873	99
Es	-0.763564	1.727873	-0.087312	99
Es	0.921545	0.194719	-0.833526	99
43
Properties=species:S:1:pos:R:3:Z:I:1 energy=-323.9937041547738 field_type=dipole dipole="0.000000 0.000000 0.000000" charge=0
C	-0.163743	-1.575234	0.988882	6
C	-0.428313	-0.927864	-0.362657	6
N	0.385037	0.271246	-0.568507	7
C	-0.014293	1.526646	-0.136277	6
C	-1.149673	1.820846	0.505723	6
C	1.629007	0.099906	-1.174808	6
O	2.110057	-0.959774	-1.560777	8
H	-0.771473	-2.478264	1.102342	1
H	-0.407083	-0.895034	1.811132	1
H	0.889467	-1.857184	1.090253	1
H	-1.490123	-0.687214	-0.480907	1
H	-0.197673	-1.655454	-1.150247	1
H	0.679047	2.340506	-0.345577	1
H	-1.899113	1.084635	0.768832	1
H	-1.356533	2.846216	0.798523	1
H	2.185407	1.046026	-1.285928	1
Es	2.040654	-0.637049	-1.201548	99
Es	1.628835	0.099935	-1.174721	99
Es	0.203605	0.814102	-0.381104	99
Es	2.395078	-1.016448	-1.705868	99
Es	-1.293712	2.515459	0.703938	99
Es	0.469656	0.322624	-0.611687	99
Es	-1.647397	1.322050	0.678780	99
Es	-0.014122	1.526454	-0.136399	99
Es	-0.294529	-1.237956	0.314730	99
Es	-0.263377	-1.414635	-0.889145	99
Es	0.389899	0.272529	-0.566549	99
Es	-1.151871	-0.747046	-0.423441	99
Es	-0.428195	-0.927681	-0.362637	99
Es	-0.578075	-2.176624	1.050854	99
Es	1.828909	-0.569209	-1.646332	99
Es	0.046149	-0.220379	-0.467974	99
Es	-0.464133	1.625163	0.488373	99
Es	-0.342471	-1.102947	1.545090	99
Es	0.553184	-1.768448	1.044659	99
Es	2.109956	-0.959435	-1.560678	99
Es	1.993160	0.755922	-1.242470	99
Es	-0.763333	1.727457	-0.087101	99
Es	0.463206	2.056928	-0.285733	99
Es	0.920375	0.194699	-0.836017	99
Es	-0.163764	-1.575215	0.988845	99
Es	1.923632	-1.086057	-1.491280	99
Es	-1.149725	1.820854	0.505749	99
43
Properties=species:S:1:pos:R:3:Z:I:1 energy=-323.9937041547738 field_type=dipole dipole="0.000000 0.000000 0.000000" charge=0
C	-0.163743	-1.575234	0.988882	6
C	-0.428313	-0.927864	-0.362657	6
N	0.385037	0.271246	-0.568507	7
C	-0.014293	1.526646	-0.136277	6
C	-1.149673	1.820846	0.505723	6
C	1.629007	0.099906	-1.174808	6
O	2.110057	-0.959774	-1.560777	8
H	-0.771473	-2.478264	1.102342	1
H	-0.407083	-0.895034	1.811132	1
H	0.889467	-1.857184	1.090253	1
H	-1.490123	-0.687214	-0.480907	1
H	-0.197673	-1.655454	-1.150247	1
H	0.679047	2.340506	-0.345577	1
H	-1.899113	1.084635	0.768832	1
H	-1.356533	2.846216	0.798523	1
H	2.185407	1.046026	-1.285928	1
Es	1.925635	-1.079357	-1.493429	99
Es	1.628834	0.099936	-1.174724	99
Es	-0.343113	-1.102616	1.544853	99
Es	2.109948	-0.959447	-1.560676	99
Es	0.384933	0.271321	-0.568776	99
Es	-0.428193	-0.927680	-0.362636	99
Es	-1.152067	-0.747034	-0.422127	99
Es	1.830186	-0.569225	-1.645873	99
Es	0.046941	-0.220371	-0.466604	99
Es	0.202965	0.814158	-0.382060	99
Es	-0.294706	-1.237885	0.314409	99
Es	2.038579	-0.638377	-1.200025	99
Es	0.474490	0.323835	-0.609636	99
Es	-1.293917	2.515529	0.704052	99
Es	-0.262753	-1.415214	-0.888607	99
Es	-1.646988	1.321884	0.679000	99
Es	-0.577806	-2.176057	1.050438	99
Es	-1.149726	1.820854	0.505748	99
Es	0.463004	2.056990	-0.285840	99
Es	0.920389	0.194354	-0.835962	99
Es	-0.163766	-1.575212	0.988838	99
Es	-0.014120	1.526453	-0.136396	99
Es	0.553474	-1.768468	1.043538	99
Es	2.393887	-1.021841	-1.705608	99
Es	-0.463966	1.625115	0.487705	99
Es	-0.763666	1.727498	-0.086603	99
Es	1.993119	0.755905	-1.242660	99
43
Properties=species:S:1:pos:R:3:Z:I:1 energy=-323.9937041547738 field_type=dipole dipole="0.000000 0.000000 0.000000" charge=0
C	-0.163743	-1.575234	0.988882	6
C	-0.428313	-0.927864	-0.362657	6
N	0.385037	0.271246	-0.568507	7
C	-0.014293	1.526646	-0.136277	6
C	-1.149673	1.820846	0.505723	6
C	1.629007	0.099906	-1.174808	6
O	2.110057	-0.959774	-1.560777	8
H	-0.771473	-2.478264	1.102342	1
H	-0.407083	-0.895034	1.811132	1
H	0.889467	-1.857184	1.090253	1
H	-1.490123	-0.687214	-0.480907	1
H	-0.197673	-1.655454	-1.150247	1
H	0.679047	2.340506	-0.345577	1
H	-1.899113	1.084635	0.768832	1
H	-1.356533	2.846216	0.798523	1
H	2.185407	1.046026	-1.285928	1
Es	-0.014123	1.526453	-0.136401	99
Es	0.919511	0.194507	-0.837803	99
Es	1.993065	0.755844	-1.242711	99
Es	2.109945	-0.959446	-1.560677	99
Es	-0.262304	-1.415787	-0.888068	99
Es	0.385777	0.271226	-0.567609	99
Es	-0.343666	-1.102066	1.544394	99
Es	2.040481	-0.643185	-1.201451	99
Es	1.628833	0.099935	-1.174723	99
Es	-1.646617	1.321884	0.678901	99
Es	-0.763542	1.727290	-0.086507	99
Es	-0.294664	-1.237900	0.314030	99
Es	-1.149726	1.820854	0.505748	99
Es	1.927080	-1.075371	-1.494228	99
Es	0.047878	-0.220294	-0.465486	99
Es	0.462757	2.056974	-0.285911	99
Es	2.392804	-1.024935	-1.706216	99
Es	0.473803	0.323769	-0.610341	99
Es	0.553631	-1.768444	1.042674	99
Es	-0.428197	-0.927683	-0.362638	99
Es	-1.294230	2.515524	0.704215	99
Es	0.202827	0.813967	-0.381779	99
Es	-0.464093	1.625253	0.487730	99
Es	1.827989	-0.565277	-1.643018	99
Es	-0.163765	-1.575214	0.988839	99
Es	-1.152205	-0.747134	-0.420761	99
Es	-0.577656	-2.175699	1.050131	99
43
Properties=species:S:1:pos:R:3:Z:I:1 energy=-323.9937041547738 field_type=dipole dipole="0.000000 0.000000 0.000000" charge=0
C	-0.163743	-1.575234	0.988882	6
C	-0.428313	-0.927864	-0.362657	6
N	0.385037	0.271246	-0.568507	7
C	-0.014293	1.526646	-0.136277	6
C	-1.149673	1.820846	0.505723	6
C	1.629007	0.099906	-1.174808	6
O	2.110057	-0.959774	-1.560777	8
H	-0.771473	-2.478264	1.102342	1
H	-0.407083	-0.895034	1.811132	1
H	0.889467	-1.857184	1.090253	1
H	-1.490123	-0.687214	-0.480907	1
H	-0.197673	-1.655454	-1.150247	1
H	0.679047	2.340506	-0.345577	1
H	-1.899113	1.084635	0.768832	1
H	-1.356533	2.846216	0.798523	1
H	2.185407	1.046026	-1.285928	1
Es	1.628833	0.099937	-1.174724	99
Es	2.109975	-0.959381	-1.560680	99
Es	-1.294484	2.515653	0.704092	99
Es	-1.149729	1.820855	0.505744	99
Es	2.393744	-1.024799	-1.705038	99
Es	-0.163764	-1.575213	0.988842	99
Es	0.919411	0.194315	-0.837937	99
Es	-0.261668	-1.416304	-0.887403	99
Es	0.473755	0.323711	-0.610448	99
Es	0.048983	-0.220260	-0.463706	99
Es	0.462572	2.056948	-0.285944	99
Es	1.992996	0.755773	-1.242821	99
Es	-1.646293	1.321971	0.678917	99
Es	-0.344267	-1.101879	1.544181	99
Es	1.928344	-1.074683	-1.494422	99
Es	-0.763787	1.727211	-0.086100	99
Es	2.036152	-0.638627	-1.199646	99
Es	0.202186	0.814069	-0.382823	99
Es	1.830139	-0.570735	-1.645729	99
Es	0.385447	0.271209	-0.567925	99
Es	-0.014121	1.526453	-0.136397	99
Es	-1.152331	-0.747268	-0.419771	99
Es	0.553764	-1.768749	1.041915	99
Es	-0.428195	-0.927681	-0.362635	99
Es	-0.294796	-1.237690	0.313619	99
Es	-0.463910	1.625128	0.487448	99
Es	-0.577362	-2.174916	1.049727	99
43
Properties=species:S:1:pos:R:3:Z:I:1 energy=-323.9937041547738 field_type=dipole dipole="0.000000 0.000000 0.000000" charge=0
C	-0.163743	-1.575234	0.988882	6
C	-0.428313	-0.927864	-0.362657	6
N	0.385037	0.271246	-0.568507	7
C	-0.014293	1.526646	-0.136277	6
C	-1.149673	1.820846	0.505723	6
C	1.629007	0.099906	-1.174808	6
O	2.110057	-0.959774	-1.560777	8
H	-0.771473	-2.478264	1.102342	1
H	-0.407083	-0.895034	1.811132	1
H	0.889467	-1.857184	1.090253	1
H	-1.490123	-0.687214	-0.480907	1
H	-0.197673	-1.655454	-1.150247	1
H	0.679047	2.340506	-0.345577	1
H	-1.899113	1.084635	0.768832	1
H	-1.356533	2.846216	0.798523	1
H	2.185407	1.046026	-1.285928	1
Es	2.109946	-0.959485	-1.560680	99
Es	0.384861	0.271440	-0.569182	99
Es	-0.464248	1.625546	0.487457	99
Es	-0.763553	1.726944	-0.086333	99
Es	-0.261452	-1.416574	-0.887191	99
Es	1.825206	-0.562256	-1.639381	99
Es	-0.344695	-1.101613	1.543944	99
Es	1.929270	-1.071098	-1.494451	99
Es	-1.149732	1.820851	0.505740	99
Es	1.992934	0.755707	-1.242924	99
Es	0.462351	2.056964	-0.286098	99
Es	-0.428189	-0.927677	-0.362627	99
Es	-0.163765	-1.575217	0.988847	99
Es	2.391352	-1.028031	-1.707467	99
Es	0.474633	0.323378	-0.608649	99
Es	0.049348	-0.220158	-0.463346	99
Es	-0.014124	1.526454	-0.136401	99
Es	-1.294549	2.515558	0.704452	99
Es	0.918696	0.194361	-0.839370	99
Es	0.553840	-1.768675	1.041167	99
Es	-0.294774	-1.237740	0.313246	99
Es	-1.152329	-0.747310	-0.418499	99
Es	-1.646002	1.321800	0.679102	99
Es	1.628833	0.099936	-1.174725	99
Es	2.042623	-0.647322	-1.203524	99
Es	0.202302	0.813883	-0.382209	99
Es	-0.577187	-2.174616	1.049438	99
43
Properties=species:S:1:pos:R:3:Z:I:1 energy=-323.9937041547738 field_type=dipole dipole="0.000000 0.000000 0.000000" charge=0
C	-0.163743	-1.575234	0.988882	6
C	-0.428313	-0.927864	-0.362657	6
N	0.385037	0.271246	-0.568507	7
C	-0.014293	1.526646	-0.136277	6
C	-1.149673	1.820846	0.505723	6
C	1.629007	0.099906	-1.174808	6
O	2.110057	-0.959774	-1.560777	8
H	-0.771473	-2.478264	1.102342	1
H	-0.407083	-0.895034	1.811132	1
H	0.889467	-1.857184	1.090253	1
H	-1.490123	-0.687214	-0.480907	1
H	-0.197673	-1.655454	-1.150247	1
H	0.679047	2.340506	-0.345577	1
H	-1.899113	1.084635	0.768832	1
H	-1.356533	2.846216	0.798523	1
H	2.185407	1.046026	-1.285928	1
Es	-1.149729	1.820855	0.505744	99
Es	2.392833	-1.029118	-1.704391	99
Es	-0.260889	-1.417138	-0.886331	99
Es	1.931158	-1.067769	-1.497821	99
Es	0.553928	-1.768890	1.040532	99
Es	-0.014121	1.526452	-0.136397	99
Es	1.830207	-0.568465	-1.644393	99
Es	0.918987	0.194273	-0.838804	99
Es	-0.344953	-1.101191	1.543457	99
Es	-0.577218	-2.174174	1.049309	99
Es	-1.152427	-0.747453	-0.417865	99
Es	-0.428192	-0.927680	-0.362628	99
Es	-0.763673	1.726952	-0.085820	99
Es	-0.294943	-1.237569	0.313004	99
Es	-1.645928	1.321779	0.679043	99
Es	0.462307	2.057014	-0.286076	99
Es	1.628833	0.099935	-1.174724	99
Es	0.050318	-0.220320	-0.461721	99
Es	2.109936	-0.959492	-1.560683	99
Es	-0.163766	-1.575216	0.988843	99
Es	1.992925	0.755724	-1.242998	99
Es	0.385189	0.271224	-0.568252	99
Es	2.034282	-0.643402	-1.198096	99
Es	0.473446	0.323640	-0.610897	99
Es	0.201898	0.813981	-0.383037	99
Es	-1.294738	2.515683	0.704175	99
Es	-0.464074	1.625413	0.487164	99
43
Properties=species:S:1:pos:R:3:Z:I:1 energy=-323.9937041547738 field_type=dipole dipole="0.000000 0.000000 0.000000" charge=0
C	-0.163743	-1.575234	0.988882	6
C	-0.428313	-0.927864	-0.362657	6
N	0.385037	0.271246	-0.568507	7
C	-0.014293	1.526646	-0.136277	6
C	-1.149673	1.820846	0.505723	6
C	1.629007	0.099906	-1.174808	6
O	2.110057	-0.959774	-1.560777	8
H	-0.771473	-2.478264	1.102342	1
H	-0.407083	-0.895034	1.811132	1
H	0.889467	-1.857184	1.090253	1
H	-1.490123	-0.687214	-0.480907	1
H	-0.197673	-1.655454	-1.150247	1
H	0.679047	2.340506	-0.345577	1
H	-1.899113	1.084635	0.768832	1
H	-1.356533	2.846216	0.798523	1
H	2.185407	1.046026	-1.285928	1
Es	0.553864	-1.768705	1.040101	99
Es	0.049072	-0.219925	-0.464003	99
Es	-0.576732	-2.173982	1.049130	99
Es	0.461950	2.056800	-0.286278	99
Es	-1.149720	1.820852	0.505761	99
Es	-0.014124	1.526454	-0.136402	99
Es	-1.152270	-0.747308	-0.417560	99
Es	0.203269	0.813480	-0.379947	99
Es	2.388999	-1.028304	-1.711988	99
Es	-1.645455	1.321993	0.679300	99
Es	1.992902	0.755645	-1.242946	99
Es	-1.294541	2.515384	0.705212	99
Es	-0.261114	-1.416725	-0.887134	99
Es	0.475223	0.323329	-0.607913	99
Es	-0.763290	1.726491	-0.087181	99
Es	1.815216	-0.548278	-1.619706	99
Es	-0.294860	-1.237861	0.313402	99
Es	-0.464826	1.625993	0.487814	99
Es	1.628834	0.099935	-1.174724	99
Es	2.051638	-0.663969	-1.218883	99
Es	-0.345199	-1.101612	1.544001	99
Es	2.109988	-0.959372	-1.560689	99
Es	1.932553	-1.068248	-1.494304	99
Es	-0.163764	-1.575216	0.988845	99
Es	0.385432	0.271211	-0.567945	99
Es	-0.428195	-0.927679	-0.362637	99
Es	0.916744	0.194664	-0.842989	99
43
Properties=species:S:1:pos:R:3:Z:I:1 energy=-323.9937041547738 field_type=dipole dipole="0.000000 0.000000 0.000000" charge=0
C	-0.163743	-1.575234	0.988882	6
C	-0.428313	-0.927864	-0.362657	6
N	0.385037	0.271246	-0.568507	7
C	-0.014293	1.526646	-0.136277	6
C	-1.149673	1.820846	0.505723	6
C	1.629007	0.099906	-1.174808	6
O	2.110057	-0.959774	-1.560777	8
H	-0.771473	-2.478264	1.102342	1
H	-0.407083	-0.895034	1.811132	1
H	0.889467	-1.857184	1.090253	1
H	-1.490123	-0.687214	-0.480907	1
H	-0.197673	-1.655454	-1.150247	1
H	0.679047	2.340506	-0.345577	1
H	-1.899113	1.084635	0.768832	1
H	-1.356533	2.846216	0.798523	1
H	2.185407	1.046026	-1.285928	1
Es	0.385209	0.271219	-0.568214	99
Es	1.997705	-0.605882	-1.203671	99
Es	-0.462933	1.624809	0.487108	99
Es	1.628832	0.099935	-1.174725	99
Es	-0.345201	-1.101685	1.543528	99
Es	1.992947	0.755762	-1.243180	99
Es	-0.163764	-1.575215	0.988844	99
Es	-0.428195	-0.927681	-0.362635	99
Es	-1.295479	2.515788	0.703042	99
Es	0.052000	-0.220629	-0.459070	99
Es	2.395682	-1.031421	-1.697577	99
Es	-0.576821	-2.173468	1.049567	99
Es	0.471715	0.323793	-0.613448	99
Es	1.935984	-1.063996	-1.497179	99
Es	2.109856	-0.959476	-1.560632	99
Es	-0.014122	1.526450	-0.136399	99
Es	0.462330	2.056765	-0.285800	99
Es	-0.295041	-1.237344	0.312646	99
Es	-1.149727	1.820854	0.505746	99
Es	0.921315	0.193419	-0.834049	99
Es	-1.645952	1.322026	0.678631	99
Es	-0.764351	1.727445	-0.084832	99
Es	-1.152621	-0.747009	-0.419096	99
Es	-0.260623	-1.416846	-0.886203	99
Es	0.554018	-1.769647	1.041834	99
Es	0.199588	0.814642	-0.387903	99
Es	1.859245	-0.607563	-1.646001	99
43
Properties=species:S:1:pos:R:3:Z:I:1 energy=-323.9937041547738 field_type=dipole dipole="0.000000 0.000000 0.000000" charge=0
C	-0.163743	-1.575234	0.988882	6
C	-0.428313	-0.927864	-0.362657	6
N	0.385037	0.271246	-0.568507	7
C	-0.014293	1.526646	-0.136277	6
C	-1.149673	1.820846	0.505723	6
C	1.629007	0.099906	-1.174808	6
O	2.110057	-0.959774	-1.560777	8
H	-0.771473	-2.478264	1.102342	1
H	-0.407083	-0.895034	1.811132	1
H	0.889467	-1.857184	1.090253	1
H	-1.490123	-0.687214	-0.480907	1
H	-0.197673	-1.655454	-1.150247	1
H	0.679047	2.340506	-0.345577	1
H	-1.899113	1.084635	0.768832	1
H	-1.356533	2.846216	0.798523	1
H	2.185407	1.046026	-1.285928	1
Es	-0.763472	1.726710	-0.087996	99
Es	0.553710	-1.768975	1.040231	99
Es	2.055008	-0.679185	-1.243380	99
Es	-1.149726	1.820853	0.505749	99
Es	-0.345190	-1.102159	1.544687	99
Es	0.204336	0.812883	-0.377261	99
Es	0.915721	0.194867	-0.844970	99
Es	-0.261422	-1.416214	-0.887932	99
Es	-0.428196	-0.927682	-0.362637	99
Es	1.810691	-0.536060	-1.590753	99
Es	2.109969	-0.959419	-1.560684	99
Es	-0.464772	1.625937	0.488310	99
Es	1.935129	-1.066166	-1.495422	99
Es	-1.152102	-0.747014	-0.417979	99
Es	-1.294597	2.515102	0.705913	99
Es	-0.294790	-1.238018	0.313810	99
Es	-1.645082	1.322366	0.679180	99
Es	-0.576357	-2.173620	1.049054	99
Es	0.461654	2.056380	-0.286254	99
Es	0.384926	0.271333	-0.568831	99
Es	1.992984	0.755610	-1.242879	99
Es	-0.163764	-1.575215	0.988845	99
Es	2.387484	-1.027352	-1.715478	99
Es	0.048710	-0.219545	-0.465141	99
Es	-0.014124	1.526454	-0.136400	99
Es	1.628833	0.099935	-1.174724	99
Es	0.476034	0.323238	-0.606724	99
43
Properties=species:S:1:pos:R:3:Z:I:1 energy=-323.9937041547738 field_type=dipole dipole="0.000000 0.000000 0.000000" charge=0
C	-0.163743	-1.575234	0.988882	6
C	-0.428313	-0.927864	-0.362657	6
N	0.385037	0.271246	-0.568507	7
C	-0.014293	1.526646	-0.136277	6
C	-1.149673	1.820846	0.505723	6
C	1.629007	0.099906	-1.174808	6
O	2.110057	-0.959774	-1.560777	8
H	-0.771473	-2.478264	1.102342	1
H	-0.407083	-0.895034	1.811132	1
H	0.889467	-1.857184	1.090253	1
H	-1.490123	-0.687214	-0.480907	1
H	-0.197673	-1.655454	-1.150247	1
H	0.679047	2.340506	-0.345577	1
H	-1.899113	1.084635	0.768832	1
H	-1.356533	2.846216	0.798523	1
H	2.185407	1.046026	-1.285928	1
Es	2.387120	-1.028663	-1.715349	99
Es	0.203977	0.813016	-0.378005	99
Es	-0.763570	1.726592	-0.087710	99
Es	0.461583	2.056491	-0.286408	99
Es	0.049341	-0.219726	-0.463887	99
Es	0.915787	0.194768	-0.844820	99
Es	-1.152154	-0.747244	-0.416715	99
Es	-0.345494	-1.101946	1.544436	99
Es	-0.464690	1.626031	0.488045	99
Es	1.936173	-1.064756	-1.494946	99
Es	-0.261033	-1.416630	-0.887382	99
Es	2.109990	-0.959383	-1.560685	99
Es	1.628833	0.099935	-1.174724	99
Es	0.384886	0.271383	-0.569010	99
Es	-0.428195	-0.927681	-0.362635	99
Es	-0.163764	-1.575215	0.988846	99
Es	-0.576256	-2.173326	1.048868	99
Es	-0.014123	1.526453	-0.136401	99
Es	1.810032	-0.538935	-1.596399	99
Es	0.553760	-1.768977	1.039635	99
Es	-0.294886	-1.237725	0.312998	99
Es	1.992931	0.755598	-1.242948	99
Es	-1.644872	1.322256	0.679331	99
Es	-1.294749	2.515141	0.705856	99
Es	0.475686	0.323167	-0.607101	99
Es	-1.149724	1.820853	0.505753	99
Es	2.055004	-0.676430	-1.238308	99
43
Properties=species:S:1:pos:R:3:Z:I:1 energy=-323.9937041547738 field_type=dipole dipole="0.000000 0.000000 0.000000" charge=0
C	-0.163743	-1.575234	0.988882	6
C	-0.428313	-0.927864	-0.362657	6
N	0.385037	0.271246	-0.568507	7
C	-0.014293	1.526646	-0.136277	6
C	-1.149673	1.820846	0.505723	6
C	1.629007	0.099906	-1.174808	6
O	2.110057	-0.959774	-1.560777	8
H	-0.771473	-2.478264	1.102342	1
H	-0.407083	-0.895034	1.811132	1
H	0.889467	-1.857184	1.090253	1
H	-1.490123	-0.687214	-0.480907	1
H	-0.197673	-1.655454	-1.150247	1
H	0.679047	2.340506	-0.345577	1
H	-1.899113	1.084635	0.768832	1
H	-1.356533	2.846216	0.798523	1
H	2.185407	1.046026	-1.285928	1
Es	1.628832	0.099935	-1.174724	99
Es	-0.428193	-0.927680	-0.362633	99
Es	-1.149725	1.820854	0.505750	99
Es	-0.345419	-1.102536	1.545040	99
Es	-1.152152	-0.746994	-0.417767	99
Es	0.553668	-1.769275	1.040169	99
Es	-1.644789	1.322543	0.679039	99
Es	0.384920	0.271334	-0.568833	99
Es	-0.014123	1.526453	-0.136400	99
Es	-0.575977	-2.173069	1.048897	99
Es	-0.294794	-1.237829	0.313558	99
Es	1.810563	-0.532466	-1.577464	99
Es	0.048384	-0.219530	-0.465705	99
Es	-0.464743	1.626032	0.488704	99
Es	2.055352	-0.683405	-1.255379	99
Es	0.204408	0.812788	-0.376931	99
Es	1.992927	0.755525	-1.242874	99
Es	-0.261295	-1.416079	-0.887995	99
Es	-0.763484	1.726716	-0.088404	99
Es	2.110000	-0.959341	-1.560686	99
Es	0.915170	0.195016	-0.846010	99
Es	-0.163764	-1.575216	0.988845	99
Es	0.461494	2.056170	-0.286306	99
Es	0.476740	0.323072	-0.605526	99
Es	2.386081	-1.028631	-1.717154	99
Es	1.936360	-1.064266	-1.495064	99
Es	-1.294846	2.514927	0.706190	99
43
Properties=species:S:1:pos:R:3:Z:I:1 energy=-323.9937041547738 field_type=dipole dipole="0.000000 0.000000 0.000000" charge=0
C	-0.163743	-1.575234	0.988882	6
C	-0.428313	-0.927864	-0.362657	6
N	0.385037	0.271246	-0.568507	7
C	-0.014293	1.526646	-0.136277	6
C	-1.149673	1.820846	0.505723	6
C	1.629007	0.099906	-1.174808	6
O	2.110057	-0.959774	-1.560777	8
H	-0.771473	-2.478264	1.102342	1
H	-0.407083	-0.895034	1.811132	1
H	0.889467	-1.857184	1.090253	1
H	-1.490123	-0.687214	-0.480907	1
H	-0.197673	-1.655454	-1.150247	1
H	0.679047	2.340506	-0.345577	1
H	-1.899113	1.084635	0.768832	1
H	-1.356533	2.846216	0.798523	1
H	2.185407	1.046026	-1.285928	1
Es	-0.163764	-1.575216	0.988844	99
Es	-0.294611	-1.237805	0.313813	99
Es	-1.644890	1.322600	0.679071	99
Es	2.109968	-0.959409	-1.560681	99
Es	-1.152137	-0.746787	-0.418457	99
Es	0.915032	0.194960	-0.846282	99
Es	-0.261456	-1.415657	-0.888459	99
Es	2.386685	-1.024530	-1.719077	99
Es	1.809882	-0.529854	-1.558683	99
Es	0.435136	0.294992	-0.576643	99
Es	-1.149724	1.820854	0.505752	99
Es	2.054332	-0.688004	-1.272596	99
Es	-0.465108	1.626290	0.489128	99
Es	0.461484	2.056145	-0.286193	99
Es	-0.575882	-2.173097	1.048909	99
Es	-0.428194	-0.927680	-0.362635	99
Es	0.204651	0.812805	-0.376745	99
Es	1.992973	0.755554	-1.242905	99
Es	-0.014115	1.526450	-0.136404	99
Es	1.628836	0.099937	-1.174724	99
Es	0.426936	0.299269	-0.596919	99
Es	0.047689	-0.219438	-0.466621	99
Es	-0.763119	1.726467	-0.088894	99
Es	1.937492	-1.066281	-1.494679	99
Es	-0.345372	-1.102958	1.545364	99
Es	0.553649	-1.769366	1.040827	99
Es	-1.294777	2.514806	0.706225	99
43
Properties=species:S:1:pos:R:3:Z:I:1 energy=-323.9937041547738 field_type=dipole dipole="0.000000 0.000000 0.000000" charge=0
C	-0.163743	-1.575234	0.988882	6
C	-0.428313	-0.927864	-0.362657	6
N	0.385037	0.271246	-0.568507	7
C	-0.014293	1.526646	-0.136277	6
C	-1.149673	1.820846	0.505723	6
C	1.629007	0.099906	-1.174808	6
O	2.110057	-0.959774	-1.560777	8
H	-0.771473	-2.478264	1.102342	1
H	-0.407083	-0.895034	1.811132	1
H	0.889467	-1.857184	1.090253	1
H	-1.490123	-0.687214	-0.480907	1
H	-0.197673	-1.655454	-1.150247	1
H	0.679047	2.340506	-0.345577	1
H	-1.899113	1.084635	0.768832	1
H	-1.356533	2.846216	0.798523	1
H	2.185407	1.046026	-1.285928	1
Es	2.109977	-0.959399	-1.560683	99
Es	2.396597	-1.033664	-1.694408	99
Es	1.962132	-0.581856	-1.228991	99
Es	0.385195	0.271222	-0.568242	99
Es	-0.462330	1.624372	0.487641	99
Es	0.198688	0.814792	-0.389641	99
Es	-0.345439	-1.102580	1.544202	99
Es	0.553915	-1.770550	1.042839	99
Es	-0.295002	-1.237573	0.313122	99
Es	-0.428193	-0.927679	-0.362634	99
Es	-1.645603	1.322613	0.678240	99
Es	1.888687	-0.634901	-1.622854	99
Es	-0.260716	-1.415935	-0.887036	99
Es	0.922168	0.192884	-0.832286	99
Es	-1.296039	2.515583	0.702958	99
Es	-0.576024	-2.172397	1.049740	99
Es	-0.014121	1.526452	-0.136398	99
Es	1.941080	-1.058536	-1.498035	99
Es	-0.764939	1.727887	-0.085341	99
Es	0.052472	-0.220610	-0.458489	99
Es	0.462120	2.056193	-0.285406	99
Es	-1.152631	-0.746446	-0.420508	99
Es	-0.163763	-1.575216	0.988845	99
Es	0.471276	0.323867	-0.614084	99
Es	1.628833	0.099935	-1.174724	99
Es	-1.149724	1.820852	0.505753	99
Es	1.992978	0.755737	-1.243245	99
43
Properties=species:S:1:pos:R:3:Z:I:1 energy=-323.9937041547738 field_type=dipole dipole="0.000000 0.000000 0.000000" charge=0
C	-0.163743	-1.575234	0.988882	6
C	-0.428313	-0.927864	-0.362657	6
N	0.385037	0.271246	-0.568507	7
C	-0.014293	1.526646	-0.136277	6
C	-1.149673	1.820846	0.505723	6
C	1.629007	0.099906	-1.174808	6
O	2.110057	-0.959774	-1.560777	8
H	-0.771473	-2.478264	1.102342	1
H	-0.407083	-0.895034	1.811132	1
H	0.889467	-1.857184	1.090253	1
H	-1.490123	-0.687214	-0.480907	1
H	-0.197673	-1.655454	-1.150247	1
H	0.679047	2.340506	-0.345577	1
H	-1.899113	1.084635	0.768832	1
H	-1.356533	2.846216	0.798523	1
H	2.185407	1.046026	-1.285928	1
Es	0.047796	-0.219421	-0.466739	99
Es	-0.294748	-1.238102	0.314174	99
Es	-1.644436	1.322800	0.679215	99
Es	-0.261434	-1.415505	-0.888669	99
Es	-1.149730	1.820855	0.505740	99
Es	0.204753	0.812546	-0.375957	99
Es	0.461368	2.055957	-0.286248	99
Es	0.915254	0.194841	-0.845873	99
Es	0.553583	-1.769631	1.040855	99
Es	-0.428194	-0.927682	-0.362637	99
Es	-1.294965	2.514764	0.706403	99
Es	-1.152038	-0.746513	-0.418940	99
Es	1.993095	0.755568	-1.242826	99
Es	-0.575628	-2.172762	1.049058	99
Es	1.940124	-1.061277	-1.495409	99
Es	2.385079	-1.028606	-1.719045	99
Es	-0.014124	1.526453	-0.136403	99
Es	0.475863	0.323279	-0.606878	99
Es	-0.345435	-1.102954	1.545403	99
Es	1.628833	0.099935	-1.174723	99
Es	-0.163765	-1.575214	0.988843	99
Es	-0.763613	1.726588	-0.089051	99
Es	1.810131	-0.528532	-1.550135	99
Es	0.385769	0.271231	-0.567635	99
Es	-0.464793	1.626186	0.489039	99
Es	2.109976	-0.959362	-1.560677	99
Es	2.052875	-0.690395	-1.280549	99
43
Properties=species:S:1:pos:R:3:Z:I:1 energy=-323.9937041547738 field_type=dipole dipole="0.000000 0.000000 0.000000" charge=0
C	-0.163743	-1.575234	0.988882	6
C	-0.428313	-0.927864	-0.362657	6
N	0.385037	0.271246	-0.568507	7
C	-0.014293	1.526646	-0.136277	6
C	-1.149673	1.820846	0.505723	6
C	1.629007	0.099906	-1.174808	6
O	2.110057	-0.959774	-1.560777	8
H	-0.771473	-2.478264	1.102342	1
H	-0.407083	-0.895034	1.811132	1
H	0.889467	-1.857184	1.090253	1
H	-1.490123	-0.687214	-0.480907	1
H	-0.197673	-1.655454	-1.150247	1
H	0.679047	2.340506	-0.345577	1
H	-1.899113	1.084635	0.768832	1
H	-1.356533	2.846216	0.798523	1
H	2.185407	1.046026	-1.285928	1
Es	-0.575477	-2.172577	1.048996	99
Es	-0.163765	-1.575213	0.988844	99
Es	-1.152058	-0.746686	-0.418267	99
Es	-1.294943	2.514719	0.706450	99
Es	0.461290	2.055968	-0.286298	99
Es	0.048162	-0.219389	-0.466167	99
Es	1.628833	0.099935	-1.174723	99
Es	0.385103	0.271242	-0.568389	99
Es	-0.014124	1.526454	-0.136401	99
Es	1.809045	-0.529471	-1.550945	99
Es	-0.294790	-1.237956	0.313719	99
Es	0.914970	0.194887	-0.846386	99
Es	2.110025	-0.959321	-1.560696	99
Es	2.053747	-0.689041	-1.280918	99
Es	-0.763852	1.726905	-0.088804	99
Es	-0.428194	-0.927680	-0.362636	99
Es	-0.261374	-1.415652	-0.888560	99
Es	-1.644549	1.322778	0.679085	99
Es	0.204889	0.812478	-0.375702	99
Es	0.476335	0.323279	-0.606453	99
Es	-0.464438	1.625900	0.488932	99
Es	0.553615	-1.769618	1.040589	99
Es	-0.345596	-1.103003	1.545419	99
Es	1.993047	0.755564	-1.242860	99
Es	1.941268	-1.060120	-1.493743	99
Es	-1.149725	1.820854	0.505749	99
Es	2.384150	-1.030189	-1.719500	99
43
Properties=species:S:1:pos:R:3:Z:I:1 energy=-323.9937041547738 field_type=dipole dipole="0.000000 0.000000 0.000000" charge=0
C	-0.163743	-1.575234	0.988882	6
C	-0.428313	-0.927864	-0.362657	6
N	0.385037	0.271246	-0.568507	7
C	-0.014293	1.526646	-0.136277	6
C	-1.149673	1.820846	0.505723	6
C	1.629007	0.099906	-1.174808	6
O	2.110057	-0.959774	-1.560777	8
H	-0.771473	-2.478264	1.102342	1
H	-0.407083	-0.895034	1.811132	1
H	0.889467	-1.857184	1.090253	1
H	-1.490123	-0.687214	-0.480907	1
H	-0.197673	-1.655454	-1.150247	1
H	0.679047	2.340506	-0.345577	1
H	-1.899113	1.084635	0.768832	1
H	-1.356533	2.846216	0.798523	1
H	2.185407	1.046026	-1.285928	1
Es	0.204667	0.812536	-0.376098	99
Es	2.109549	-0.959591	-1.560524	99
Es	2.053658	-0.688949	-1.277610	99
Es	-0.464672	1.626097	0.488883	99
Es	-1.152090	-0.746756	-0.417702	99
Es	-1.295096	2.514743	0.706544	99
Es	-0.163764	-1.575215	0.988845	99
Es	-0.294802	-1.237880	0.313477	99
Es	-0.428196	-0.927684	-0.362635	99
Es	1.940474	-1.061218	-1.494682	99
Es	1.809562	-0.529448	-1.553904	99
Es	0.385624	0.271218	-0.567764	99
Es	0.914985	0.194750	-0.846339	99
Es	0.475980	0.323247	-0.606758	99
Es	-0.763719	1.726699	-0.088858	99
Es	-0.014124	1.526453	-0.136401	99
Es	1.992963	0.755509	-1.242959	99
Es	0.048233	-0.219292	-0.466068	99
Es	2.385037	-1.028943	-1.719029	99
Es	-0.575389	-2.172275	1.048829	99
Es	-0.345798	-1.102897	1.545328	99
Es	0.461207	2.055918	-0.286295	99
Es	0.553610	-1.769742	1.040222	99
Es	1.628836	0.099936	-1.174724	99
Es	-1.644272	1.322788	0.679127	99
Es	-0.261142	-1.415811	-0.888317	99
Es	-1.149727	1.820854	0.505748	99
43
Properties=species:S:1:pos:R:3:Z:I:1 energy=-323.9937041547738 field_type=dipole dipole="0.000000 0.000000 0.000000" charge=0
C	-0.163743	-1.575234	0.988882	6
C	-0.428313	-0.927864	-0.362657	6
N	0.385037	0.271246	-0.568507	7
C	-0.014293	1.526646	-0.136277	6
C	-1.149673	1.820846	0.505723	6
C	1.629007	0.099906	-1.174808	6
O	2.110057	-0.959774	-1.560777	8
H	-0.771473	-2.478264	1.102342	1
H	-0.407083	-0.895034	1.811132	1
H	0.889467	-1.857184	1.090253	1
H	-1.490123	-0.687214	-0.480907	1
H	-0.197673	-1.655454	-1.150247	1
H	0.679047	2.340506	-0.345577	1
H	-1.899113	1.084635	0.768832	1
H	-1.356533	2.846216	0.798523	1
H	2.185407	1.046026	-1.285928	1
Es	-0.163764	-1.575215	0.988845	99
Es	1.993037	0.755505	-1.242826	99
Es	1.941684	-1.059566	-1.495483	99
Es	0.204667	0.812534	-0.375984	99
Es	2.109952	-0.959423	-1.560673	99
Es	0.385337	0.271210	-0.568049	99
Es	0.048484	-0.219367	-0.465876	99
Es	-0.763198	1.726390	-0.089190	99
Es	-1.295088	2.514710	0.706474	99
Es	0.915139	0.194709	-0.846008	99
Es	-1.152068	-0.746539	-0.418410	99
Es	-0.575352	-2.172329	1.049009	99
Es	2.051824	-0.691691	-1.287219	99
Es	-0.465027	1.626400	0.489454	99
Es	-1.644431	1.322895	0.678946	99
Es	0.553577	-1.769847	1.040719	99
Es	-0.261330	-1.415581	-0.888588	99
Es	-0.014124	1.526454	-0.136401	99
Es	1.810069	-0.528267	-1.542997	99
Es	0.461198	2.055835	-0.286273	99
Es	-0.428195	-0.927681	-0.362636	99
Es	0.475883	0.323358	-0.607164	99
Es	-1.149726	1.820854	0.505749	99
Es	-0.294812	-1.238020	0.313683	99
Es	-0.345671	-1.103024	1.545434	99
Es	1.628833	0.099935	-1.174722	99
Es	2.384695	-1.029191	-1.719481	99
43
Properties=species:S:1:pos:R:3:Z:I:1 energy=-323.9937041547738 field_type=dipole dipole="0.000000 0.000000 0.000000" charge=0
C	-0.163743	-1.575234	0.988882	6
C	-0.428313	-0.927864	-0.362657	6
N	0.385037	0.271246	-0.568507	7
C	-0.014293	1.526646	-0.136277	6
C	-1.149673	1.820846	0.505723	6
C	1.629007	0.099906	-1.174808	6
O	2.110057	-0.959774	-1.560777	8
H	-0.771473	-2.478264	1.102342	1
H	-0.407083	-0.895034	1.811132	1
H	0.889467	-1.857184	1.090253	1
H	-1.490123	-0.687214	-0.480907	1
H	-0.197673	-1.655454	-1.150247	1
H	0.679047	2.340506	-0.345577	1
H	-1.899113	1.084635	0.768832	1
H	-1.356533	2.846216	0.798523	1
H	2.185407	1.046026	-1.285928	1
Es	0.048748	-0.219519	-0.465272	99
Es	-0.163764	-1.575215	0.988844	99
Es	-1.644484	1.322642	0.679191	99
Es	1.628833	0.099935	-1.174723	99
Es	-0.345872	-1.103040	1.545379	99
Es	-0.763351	1.726419	-0.088978	99
Es	-0.261169	-1.415785	-0.888324	99
Es	-0.014123	1.526452	-0.136402	99
Es	-1.294984	2.514712	0.706465	99
Es	-1.149725	1.820854	0.505750	99
Es	-0.464967	1.626388	0.489076	99
Es	-1.152118	-0.746744	-0.417557	99
Es	2.109978	-0.959313	-1.560671	99
Es	1.941717	-1.061678	-1.494906	99
Es	0.553697	-1.769581	1.040055	99
Es	-0.575295	-2.172274	1.048859	99
Es	1.808597	-0.529696	-1.544806	99
Es	0.914671	0.194994	-0.846962	99
Es	0.461208	2.056044	-0.286357	99
Es	0.423135	0.297288	-0.595922	99
Es	1.993005	0.755517	-1.242915	99
Es	0.438440	0.297021	-0.578493	99
Es	2.052180	-0.690739	-1.285946	99
Es	0.204489	0.812587	-0.376392	99
Es	-0.294881	-1.237891	0.313440	99
Es	-0.428198	-0.927686	-0.362636	99
Es	2.385829	-1.026644	-1.719462	99
