45
Properties=species:S:1:pos:R:3:Z:I:1 energy=-341.10313648677595 field_type=dipole dipole="0.000000 0.000000 0.000000" charge=0
C	-2.310864	-0.642042	0.909478	6
C	-0.937174	-0.844642	0.292268	6
N	-0.260834	0.448298	0.251268	7
C	0.944016	0.504518	-0.230252	6
C	1.698626	-0.697622	-0.755392	6
N	1.601366	1.720008	-0.274072	7
O	0.728936	2.815538	-0.217312	8
H	-2.854894	-1.590632	0.953648	1
H	-2.903174	0.067828	0.322088	1
H	-2.227484	-0.245292	1.927058	1
H	-1.059994	-1.252942	-0.716672	1
H	-0.378384	-1.560962	0.903998	1
H	1.152366	-1.141512	-1.591872	1
H	1.815716	-1.438412	0.039978	1
H	2.693646	-0.409082	-1.106212	1
H	2.355026	1.830988	-0.947692	1
H	-0.056894	2.435958	0.239698	1
Es	1.336175	-0.087171	-0.491179	99
Es	-2.712712	-0.162219	0.505434	99
Es	0.647016	2.866869	-0.515387	99
Es	-0.260554	0.447950	0.251050	99
Es	1.769431	-1.185752	-0.221602	99
Es	-0.436154	0.766040	0.372014	99
Es	0.867897	3.028996	-0.033207	99
Es	1.121611	2.302603	-0.242723	99
Es	-2.250825	-0.376303	1.602760	99
Es	-2.310851	-0.642065	0.909468	99
Es	0.310834	0.408760	0.323290	99
Es	-0.543941	-1.337819	0.707984	99
Es	0.099379	0.496061	-0.199710	99
Es	-1.011435	-1.125860	-0.404915	99
Es	-0.937125	-0.844500	0.292273	99
Es	1.600951	1.719884	-0.274624	99
Es	2.371497	-0.492091	-0.992803	99
Es	1.718844	1.585453	0.021582	99
Es	0.728882	2.815195	-0.217150	99
Es	-0.521674	-0.125622	0.256479	99
Es	1.698598	-0.697555	-0.755370	99
Es	1.290034	1.218717	-0.357420	99
Es	-1.627550	-0.746257	0.601534	99
Es	-2.680710	-1.296073	0.937616	99
Es	0.338920	2.614345	0.019255	99
Es	2.023806	1.780520	-0.697216	99
Es	0.944171	0.504611	-0.230263	99
Es	1.324894	-0.983209	-1.308826	99
45
Properties=species:S:1:pos:R:3:Z:I:1 energy=-341.10313648677595 field_type=dipole dipole="0.000000 0.000000 0.000000" charge=0
C	-2.310864	-0.642042	0.909478	6
C	-0.937174	-0.844642	0.292268	6
N	-0.260834	0.448298	0.251268	7
C	0.944016	0.504518	-0.230252	6
C	1.698626	-0.697622	-0.755392	6
N	1.601366	1.720008	-0.274072	7
O	0.728936	2.815538	-0.217312	8
H	-2.854894	-1.590632	0.953648	1
H	-2.903174	0.067828	0.322088	1
H	-2.227484	-0.245292	1.927058	1
H	-1.059994	-1.252942	-0.716672	1
H	-0.378384	-1.560962	0.903998	1
H	1.152366	-1.141512	-1.591872	1
H	1.815716	-1.438412	0.039978	1
H	2.693646	-0.409082	-1.106212	1
H	2.355026	1.830988	-0.947692	1
H	-0.056894	2.435958	0.239698	1
Es	-2.251444	-0.376277	1.599473	99
Es	-1.010221	-1.125638	-0.402705	99
Es	-2.683216	-1.296946	0.938990	99
Es	-2.711787	-0.162223	0.507948	99
Es	-0.544264	-1.337432	0.706042	99
Es	1.123419	2.304000	-0.243354	99
Es	1.600918	1.719871	-0.274669	99
Es	0.098305	0.495585	-0.198597	99
Es	0.728908	2.815227	-0.217102	99
Es	0.944172	0.504614	-0.230261	99
Es	1.706138	1.589365	0.001488	99
Es	-0.524049	-0.125769	0.257686	99
Es	-1.627601	-0.746243	0.601351	99
Es	1.289709	1.210558	-0.347261	99
Es	1.698599	-0.697556	-0.755371	99
Es	0.311203	0.409140	0.321876	99
Es	0.332445	2.614782	0.020908	99
Es	0.648802	2.855672	-0.503734	99
Es	-0.432633	0.766556	0.370334	99
Es	1.334755	-0.088307	-0.490757	99
Es	1.767483	-1.185099	-0.222823	99
Es	-0.937125	-0.844501	0.292274	99
Es	1.324990	-0.982724	-1.305836	99
Es	2.374766	-0.491741	-0.994412	99
Es	-0.260537	0.447924	0.251086	99
Es	2.037227	1.784438	-0.688862	99
Es	0.871297	3.038297	-0.044835	99
Es	-2.310851	-0.642065	0.909467	99
45
Properties=species:S:1:pos:R:3:Z:I:1 energy=-341.10313648677595 field_type=dipole dipole="0.000000 0.000000 0.000000" charge=0
C	-2.310864	-0.642042	0.909478	6
C	-0.937174	-0.844642	0.292268	6
N	-0.260834	0.448298	0.251268	7
C	0.944016	0.504518	-0.230252	6
C	1.698626	-0.697622	-0.755392	6
N	1.601366	1.720008	-0.274072	7
O	0.728936	2.815538	-0.217312	8
H	-2.854894	-1.590632	0.953648	1
H	-2.903174	0.067828	0.322088	1
H	-2.227484	-0.245292	1.927058	1
H	-1.059994	-1.252942	-0.716672	1
H	-0.378384	-1.560962	0.903998	1
H	1.152366	-1.141512	-1.591872	1
H	1.815716	-1.438412	0.039978	1
H	2.693646	-0.409082	-1.106212	1
H	2.355026	1.830988	-0.947692	1
H	-0.056894	2.435958	0.239698	1
Es	0.649454	2.848473	-0.495803	99
Es	0.728883	2.815293	-0.217202	99
Es	-0.544310	-1.337312	0.704895	99
Es	1.124438	2.304727	-0.243716	99
Es	0.872781	3.044173	-0.052169	99
Es	-2.684328	-1.297294	0.939784	99
Es	0.310186	0.409434	0.322514	99
Es	1.700208	1.592478	-0.011577	99
Es	2.043062	1.786002	-0.684379	99
Es	-0.430543	0.766393	0.368437	99
Es	-0.937127	-0.844503	0.292275	99
Es	1.698598	-0.697557	-0.755369	99
Es	-0.525787	-0.125597	0.258767	99
Es	1.325312	-0.981749	-1.304114	99
Es	0.329452	2.615006	0.021133	99
Es	1.290082	1.205897	-0.339265	99
Es	-1.627536	-0.746115	0.601414	99
Es	0.944174	0.504615	-0.230261	99
Es	-2.252084	-0.376234	1.597552	99
Es	1.600904	1.719890	-0.274685	99
Es	2.376197	-0.491577	-0.995352	99
Es	1.334054	-0.088865	-0.490725	99
Es	-2.310849	-0.642064	0.909468	99
Es	-1.009636	-1.125199	-0.401222	99
Es	-2.711286	-0.162606	0.509148	99
Es	-0.260536	0.447918	0.251082	99
Es	0.099216	0.495198	-0.198616	99
Es	1.766428	-1.185317	-0.223668	99
45
Properties=species:S:1:pos:R:3:Z:I:1 energy=-341.10313648677595 field_type=dipole dipole="0.000000 0.000000 0.000000" charge=0
C	-2.310864	-0.642042	0.909478	6
C	-0.937174	-0.844642	0.292268	6
N	-0.260834	0.448298	0.251268	7
C	0.944016	0.504518	-0.230252	6
C	1.698626	-0.697622	-0.755392	6
N	1.601366	1.720008	-0.274072	7
O	0.728936	2.815538	-0.217312	8
H	-2.854894	-1.590632	0.953648	1
H	-2.903174	0.067828	0.322088	1
H	-2.227484	-0.245292	1.927058	1
H	-1.059994	-1.252942	-0.716672	1
H	-0.378384	-1.560962	0.903998	1
H	1.152366	-1.141512	-1.591872	1
H	1.815716	-1.438412	0.039978	1
H	2.693646	-0.409082	-1.106212	1
H	2.355026	1.830988	-0.947692	1
H	-0.056894	2.435958	0.239698	1
Es	-1.627506	-0.746017	0.601385	99
Es	-2.252266	-0.376489	1.596259	99
Es	1.600831	1.719481	-0.274750	99
Es	1.765827	-1.184883	-0.223981	99
Es	0.873323	3.045803	-0.055531	99
Es	1.325512	-0.981648	-1.303062	99
Es	2.046842	1.787055	-0.680912	99
Es	1.696215	1.594078	-0.019641	99
Es	0.944172	0.504613	-0.230256	99
Es	1.290557	1.203647	-0.335068	99
Es	-0.937127	-0.844502	0.292274	99
Es	0.728877	2.815165	-0.217189	99
Es	-2.710869	-0.162688	0.510262	99
Es	0.100033	0.495181	-0.199008	99
Es	0.309291	0.409350	0.323175	99
Es	-0.544480	-1.337056	0.704091	99
Es	1.124875	2.305195	-0.243948	99
Es	-2.685249	-1.297390	0.940218	99
Es	0.650622	2.846125	-0.491837	99
Es	1.698598	-0.697556	-0.755370	99
Es	-2.310851	-0.642068	0.909467	99
Es	2.377055	-0.491550	-0.995820	99
Es	0.327481	2.615166	0.020943	99
Es	-0.526940	-0.125246	0.259202	99
Es	-1.009315	-1.125022	-0.400341	99
Es	1.333540	-0.089196	-0.490845	99
Es	-0.260529	0.447923	0.251073	99
Es	-0.429110	0.766035	0.367556	99
45
Properties=species:S:1:pos:R:3:Z:I:1 energy=-341.10313648677595 field_type=dipole dipole="0.000000 0.000000 0.000000" charge=0
C	-2.310864	-0.642042	0.909478	6
C	-0.937174	-0.844642	0.292268	6
N	-0.260834	0.448298	0.251268	7
C	0.944016	0.504518	-0.230252	6
C	1.698626	-0.697622	-0.755392	6
N	1.601366	1.720008	-0.274072	7
O	0.728936	2.815538	-0.217312	8
H	-2.854894	-1.590632	0.953648	1
H	-2.903174	0.067828	0.322088	1
H	-2.227484	-0.245292	1.927058	1
H	-1.059994	-1.252942	-0.716672	1
H	-0.378384	-1.560962	0.903998	1
H	1.152366	-1.141512	-1.591872	1
H	1.815716	-1.438412	0.039978	1
H	2.693646	-0.409082	-1.106212	1
H	2.355026	1.830988	-0.947692	1
H	-0.056894	2.435958	0.239698	1
Es	2.377578	-0.491490	-0.996179	99
Es	-0.427298	0.765010	0.367850	99
Es	0.326320	2.615392	0.020891	99
Es	1.765316	-1.184999	-0.224263	99
Es	-2.685678	-1.297351	0.940610	99
Es	-1.627311	-0.746063	0.601686	99
Es	-0.528029	-0.124768	0.259925	99
Es	-1.009100	-1.125043	-0.399767	99
Es	-0.544592	-1.336689	0.703562	99
Es	0.650560	2.841079	-0.486541	99
Es	-2.310851	-0.642065	0.909468	99
Es	0.944172	0.504613	-0.230258	99
Es	-2.710651	-0.162984	0.510693	99
Es	1.698599	-0.697555	-0.755370	99
Es	1.333354	-0.089538	-0.490861	99
Es	2.048549	1.787373	-0.679512	99
Es	1.600891	1.719880	-0.274714	99
Es	0.873847	3.050001	-0.060777	99
Es	1.694169	1.595391	-0.025824	99
Es	-0.260528	0.447925	0.251079	99
Es	1.291118	1.201591	-0.330482	99
Es	0.098257	0.495824	-0.199643	99
Es	1.125568	2.305546	-0.243956	99
Es	1.325662	-0.981098	-1.302359	99
Es	0.728881	2.815177	-0.217184	99
Es	-2.252639	-0.376468	1.595390	99
Es	-0.937126	-0.844503	0.292275	99
Es	0.310373	0.409319	0.322604	99
45
Properties=species:S:1:pos:R:3:Z:I:1 energy=-341.10313648677595 field_type=dipole dipole="0.000000 0.000000 0.000000" charge=0
C	-2.310864	-0.642042	0.909478	6
C	-0.937174	-0.844642	0.292268	6
N	-0.260834	0.448298	0.251268	7
C	0.944016	0.504518	-0.230252	6
C	1.698626	-0.697622	-0.755392	6
N	1.601366	1.720008	-0.274072	7
O	0.728936	2.815538	-0.217312	8
H	-2.854894	-1.590632	0.953648	1
H	-2.903174	0.067828	0.322088	1
H	-2.227484	-0.245292	1.927058	1
H	-1.059994	-1.252942	-0.716672	1
H	-0.378384	-1.560962	0.903998	1
H	1.152366	-1.141512	-1.591872	1
H	1.815716	-1.438412	0.039978	1
H	2.693646	-0.409082	-1.106212	1
H	2.355026	1.830988	-0.947692	1
H	-0.056894	2.435958	0.239698	1
Es	-0.426946	0.764453	0.365826	99
Es	1.325830	-0.981080	-1.301920	99
Es	1.291391	1.200728	-0.328844	99
Es	1.125928	2.305580	-0.244673	99
Es	2.050658	1.788058	-0.677249	99
Es	-2.710417	-0.163250	0.511253	99
Es	1.600837	1.719740	-0.274802	99
Es	0.650827	2.839116	-0.483277	99
Es	0.307594	0.409748	0.325129	99
Es	1.333071	-0.089655	-0.491196	99
Es	1.765000	-1.184734	-0.224357	99
Es	0.325508	2.615527	0.020875	99
Es	2.377968	-0.491450	-0.996278	99
Es	-0.260510	0.447936	0.251070	99
Es	0.728886	2.815167	-0.217160	99
Es	1.691997	1.595829	-0.029691	99
Es	0.101556	0.495549	-0.200434	99
Es	-0.937126	-0.844501	0.292274	99
Es	-2.252725	-0.376456	1.594835	99
Es	1.698598	-0.697556	-0.755370	99
Es	-1.627423	-0.746054	0.601356	99
Es	-0.544663	-1.336619	0.703199	99
Es	-0.528840	-0.124467	0.260427	99
Es	-2.310850	-0.642066	0.909467	99
Es	-1.008838	-1.124816	-0.399283	99
Es	0.874034	3.051490	-0.063431	99
Es	0.944171	0.504615	-0.230267	99
Es	-2.686105	-1.297325	0.940865	99
45
Properties=species:S:1:pos:R:3:Z:I:1 energy=-341.10313648677595 field_type=dipole dipole="0.000000 0.000000 0.000000" charge=0
C	-2.310864	-0.642042	0.909478	6
C	-0.937174	-0.844642	0.292268	6
N	-0.260834	0.448298	0.251268	7
C	0.944016	0.504518	-0.230252	6
C	1.698626	-0.697622	-0.755392	6
N	1.601366	1.720008	-0.274072	7
O	0.728936	2.815538	-0.217312	8
H	-2.854894	-1.590632	0.953648	1
H	-2.903174	0.067828	0.322088	1
H	-2.227484	-0.245292	1.927058	1
H	-1.059994	-1.252942	-0.716672	1
H	-0.378384	-1.560962	0.903998	1
H	1.152366	-1.141512	-1.591872	1
H	1.815716	-1.438412	0.039978	1
H	2.693646	-0.409082	-1.106212	1
H	2.355026	1.830988	-0.947692	1
H	-0.056894	2.435958	0.239698	1
Es	1.126249	2.305802	-0.244239	99
Es	1.326040	-0.980818	-1.301419	99
Es	0.875037	3.056121	-0.070537	99
Es	-2.710228	-0.163353	0.511717	99
Es	-1.627339	-0.746152	0.601397	99
Es	1.764758	-1.184766	-0.224528	99
Es	0.944173	0.504614	-0.230263	99
Es	0.728877	2.815358	-0.217242	99
Es	-0.425020	0.763672	0.367443	99
Es	2.051040	1.788067	-0.677086	99
Es	0.325836	2.616494	0.023148	99
Es	1.291549	1.200454	-0.327703	99
Es	-1.008723	-1.124773	-0.398935	99
Es	2.378229	-0.491392	-0.996518	99
Es	1.332818	-0.089778	-0.491211	99
Es	0.649274	2.832965	-0.478707	99
Es	1.600908	1.719888	-0.274683	99
Es	1.691504	1.595924	-0.031311	99
Es	-0.937126	-0.844500	0.292275	99
Es	0.097461	0.496397	-0.200471	99
Es	-0.529687	-0.124071	0.260978	99
Es	-2.252831	-0.376579	1.594304	99
Es	-0.260517	0.447936	0.251077	99
Es	-2.686507	-1.297151	0.941074	99
Es	0.310674	0.409167	0.322880	99
Es	1.698598	-0.697557	-0.755372	99
Es	-0.544788	-1.336396	0.702808	99
Es	-2.310850	-0.642065	0.909469	99
45
Properties=species:S:1:pos:R:3:Z:I:1 energy=-341.10313648677595 field_type=dipole dipole="0.000000 0.000000 0.000000" charge=0
C	-2.310864	-0.642042	0.909478	6
C	-0.937174	-0.844642	0.292268	6
N	-0.260834	0.448298	0.251268	7
C	0.944016	0.504518	-0.230252	6
C	1.698626	-0.697622	-0.755392	6
N	1.601366	1.720008	-0.274072	7
O	0.728936	2.815538	-0.217312	8
H	-2.854894	-1.590632	0.953648	1
H	-2.903174	0.067828	0.322088	1
H	-2.227484	-0.245292	1.927058	1
H	-1.059994	-1.252942	-0.716672	1
H	-0.378384	-1.560962	0.903998	1
H	1.152366	-1.141512	-1.591872	1
H	1.815716	-1.438412	0.039978	1
H	2.693646	-0.409082	-1.106212	1
H	2.355026	1.830988	-0.947692	1
H	-0.056894	2.435958	0.239698	1
Es	-2.710065	-0.163679	0.511829	99
Es	1.689583	1.596356	-0.035635	99
Es	0.650647	2.835204	-0.478990	99
Es	1.126519	2.305937	-0.244667	99
Es	-0.544867	-1.336231	0.702623	99
Es	-1.627346	-0.746104	0.601437	99
Es	2.378453	-0.491435	-0.996663	99
Es	1.291915	1.199462	-0.325439	99
Es	-0.424738	0.763370	0.366095	99
Es	0.874455	3.054053	-0.068397	99
Es	0.308114	0.409322	0.324843	99
Es	-0.937126	-0.844501	0.292274	99
Es	-0.530305	-0.123806	0.261085	99
Es	1.332919	-0.089883	-0.490984	99
Es	0.324788	2.616131	0.021740	99
Es	-2.253027	-0.376384	1.593974	99
Es	0.100386	0.496232	-0.201270	99
Es	-2.686666	-1.297190	0.941267	99
Es	-1.008563	-1.124758	-0.398670	99
Es	0.728886	2.815286	-0.217204	99
Es	1.764548	-1.184788	-0.224790	99
Es	-0.260562	0.447936	0.251091	99
Es	2.052628	1.788496	-0.675290	99
Es	-2.310850	-0.642065	0.909468	99
Es	1.698598	-0.697555	-0.755370	99
Es	1.600978	1.719995	-0.274563	99
Es	1.325933	-0.980507	-1.301189	99
Es	0.944173	0.504614	-0.230261	99
45
Properties=species:S:1:pos:R:3:Z:I:1 energy=-341.10313648677595 field_type=dipole dipole="0.000000 0.000000 0.000000" charge=0
C	-2.310864	-0.642042	0.909478	6
C	-0.937174	-0.844642	0.292268	6
N	-0.260834	0.448298	0.251268	7
C	0.944016	0.504518	-0.230252	6
C	1.698626	-0.697622	-0.755392	6
N	1.601366	1.720008	-0.274072	7
O	0.728936	2.815538	-0.217312	8
H	-2.854894	-1.590632	0.953648	1
H	-2.903174	0.067828	0.322088	1
H	-2.227484	-0.245292	1.927058	1
H	-1.059994	-1.252942	-0.716672	1
H	-0.378384	-1.560962	0.903998	1
H	1.152366	-1.141512	-1.591872	1
H	1.815716	-1.438412	0.039978	1
H	2.693646	-0.409082	-1.106212	1
H	2.355026	1.830988	-0.947692	1
H	-0.056894	2.435958	0.239698	1
Es	-2.253017	-0.376542	1.593579	99
Es	-2.709830	-0.163693	0.512287	99
Es	1.126960	2.306088	-0.245105	99
Es	1.764383	-1.184493	-0.224926	99
Es	-0.260518	0.447926	0.251073	99
Es	-0.937126	-0.844499	0.292272	99
Es	1.600862	1.719812	-0.274760	99
Es	-2.687075	-1.297083	0.941354	99
Es	-0.530938	-0.123485	0.261547	99
Es	1.326130	-0.980667	-1.300968	99
Es	-1.627308	-0.746173	0.601399	99
Es	2.378704	-0.491378	-0.996581	99
Es	1.689224	1.597269	-0.037567	99
Es	-0.544995	-1.336006	0.702395	99
Es	-0.423816	0.763047	0.366233	99
Es	0.944172	0.504615	-0.230264	99
Es	0.324394	2.616237	0.021865	99
Es	0.874319	3.054468	-0.069880	99
Es	0.099161	0.496347	-0.201277	99
Es	2.052889	1.788523	-0.675133	99
Es	-1.008452	-1.124799	-0.398484	99
Es	1.292115	1.198728	-0.323486	99
Es	0.309055	0.409200	0.324240	99
Es	-2.310853	-0.642064	0.909470	99
Es	1.698598	-0.697556	-0.755370	99
Es	0.650823	2.834488	-0.477377	99
Es	1.332612	-0.089992	-0.491136	99
Es	0.728934	2.815189	-0.217053	99
45
Properties=species:S:1:pos:R:3:Z:I:1 energy=-341.10313648677595 field_type=dipole dipole="0.000000 0.000000 0.000000" charge=0
C	-2.310864	-0.642042	0.909478	6
C	-0.937174	-0.844642	0.292268	6
N	-0.260834	0.448298	0.251268	7
C	0.944016	0.504518	-0.230252	6
C	1.698626	-0.697622	-0.755392	6
N	1.601366	1.720008	-0.274072	7
O	0.728936	2.815538	-0.217312	8
H	-2.854894	-1.590632	0.953648	1
H	-2.903174	0.067828	0.322088	1
H	-2.227484	-0.245292	1.927058	1
H	-1.059994	-1.252942	-0.716672	1
H	-0.378384	-1.560962	0.903998	1
H	1.152366	-1.141512	-1.591872	1
H	1.815716	-1.438412	0.039978	1
H	2.693646	-0.409082	-1.106212	1
H	2.355026	1.830988	-0.947692	1
H	-0.056894	2.435958	0.239698	1
Es	0.944172	0.504615	-0.230265	99
Es	0.097998	0.496545	-0.201433	99
Es	-1.008363	-1.124769	-0.398367	99
Es	0.874081	3.054756	-0.070583	99
Es	1.332753	-0.090076	-0.490949	99
Es	-0.545102	-1.335854	0.702155	99
Es	-0.937126	-0.844502	0.292275	99
Es	-1.627397	-0.746102	0.601381	99
Es	-2.310852	-0.642065	0.909468	99
Es	0.650817	2.833904	-0.476862	99
Es	1.688206	1.597562	-0.040316	99
Es	1.127217	2.306283	-0.245018	99
Es	0.309877	0.409150	0.323746	99
Es	0.324329	2.616190	0.021950	99
Es	-0.531307	-0.123286	0.262131	99
Es	1.601069	1.720065	-0.274389	99
Es	0.728877	2.815205	-0.217173	99
Es	-2.253013	-0.376468	1.593341	99
Es	1.326006	-0.980344	-1.300799	99
Es	2.378909	-0.491480	-0.996693	99
Es	-2.709696	-0.163857	0.512509	99
Es	-2.687252	-1.297143	0.941497	99
Es	1.764182	-1.184538	-0.225204	99
Es	-0.260525	0.447923	0.251066	99
Es	-0.423034	0.762619	0.366399	99
Es	2.053526	1.788677	-0.674372	99
Es	1.292460	1.198054	-0.321782	99
Es	1.698598	-0.697556	-0.755370	99
45
Properties=species:S:1:pos:R:3:Z:I:1 energy=-341.10313648677595 field_type=dipole dipole="0.000000 0.000000 0.000000" charge=0
C	-2.310864	-0.642042	0.909478	6
C	-0.937174	-0.844642	0.292268	6
N	-0.260834	0.448298	0.251268	7
C	0.944016	0.504518	-0.230252	6
C	1.698626	-0.697622	-0.755392	6
N	1.601366	1.720008	-0.274072	7
O	0.728936	2.815538	-0.217312	8
H	-2.854894	-1.590632	0.953648	1
H	-2.903174	0.067828	0.322088	1
H	-2.227484	-0.245292	1.927058	1
H	-1.059994	-1.252942	-0.716672	1
H	-0.378384	-1.560962	0.903998	1
H	1.152366	-1.141512	-1.591872	1
H	1.815716	-1.438412	0.039978	1
H	2.693646	-0.409082	-1.106212	1
H	2.355026	1.830988	-0.947692	1
H	-0.056894	2.435958	0.239698	1
Es	-1.008328	-1.124665	-0.398032	99
Es	1.698597	-0.697555	-0.755370	99
Es	1.332636	-0.090220	-0.490979	99
Es	2.378981	-0.491356	-0.996791	99
Es	0.308773	0.409079	0.324559	99
Es	0.324611	2.616231	0.022871	99
Es	1.600938	1.719943	-0.274636	99
Es	-0.531630	-0.123070	0.261856	99
Es	-0.422879	0.762358	0.366076	99
Es	-0.937126	-0.844502	0.292275	99
Es	1.764176	-1.184435	-0.225248	99
Es	0.728891	2.815204	-0.217105	99
Es	-2.709597	-0.163887	0.512715	99
Es	1.127096	2.306237	-0.246314	99
Es	2.054115	1.788803	-0.673766	99
Es	-2.687408	-1.297106	0.941500	99
Es	1.687845	1.597706	-0.040691	99
Es	1.326048	-0.980370	-1.300612	99
Es	-1.627365	-0.746091	0.601418	99
Es	0.650213	2.832651	-0.475103	99
Es	-2.310852	-0.642064	0.909469	99
Es	-2.253116	-0.376584	1.593098	99
Es	-0.545067	-1.335836	0.702009	99
Es	0.874390	3.055753	-0.072334	99
Es	0.099212	0.496641	-0.201843	99
Es	0.944173	0.504615	-0.230265	99
Es	1.292597	1.198038	-0.321495	99
Es	-0.260517	0.447990	0.251083	99
45
Properties=species:S:1:pos:R:3:Z:I:1 energy=-341.10313648677595 field_type=dipole dipole="0.000000 0.000000 0.000000" charge=0
C	-2.310864	-0.642042	0.909478	6
C	-0.937174	-0.844642	0.292268	6
N	-0.260834	0.448298	0.251268	7
C	0.944016	0.504518	-0.230252	6
C	1.698626	-0.697622	-0.755392	6
N	1.601366	1.720008	-0.274072	7
O	0.728936	2.815538	-0.217312	8
H	-2.854894	-1.590632	0.953648	1
H	-2.903174	0.067828	0.322088	1
H	-2.227484	-0.245292	1.927058	1
H	-1.059994	-1.252942	-0.716672	1
H	-0.378384	-1.560962	0.903998	1
H	1.152366	-1.141512	-1.591872	1
H	1.815716	-1.438412	0.039978	1
H	2.693646	-0.409082	-1.106212	1
H	2.355026	1.830988	-0.947692	1
H	-0.056894	2.435958	0.239698	1
Es	-1.627327	-0.746135	0.601388	99
Es	0.099074	0.496476	-0.201814	99
Es	1.326088	-0.980306	-1.300335	99
Es	2.379039	-0.491397	-0.997007	99
Es	-0.260518	0.447922	0.251071	99
Es	1.292604	1.197787	-0.320948	99
Es	-2.687560	-1.296998	0.941471	99
Es	2.054442	1.788860	-0.673405	99
Es	1.687377	1.597728	-0.042002	99
Es	0.650833	2.832262	-0.474498	99
Es	-2.709476	-0.164041	0.512950	99
Es	1.600910	1.719904	-0.274683	99
Es	0.944173	0.504615	-0.230264	99
Es	-0.937126	-0.844501	0.292272	99
Es	-2.310850	-0.642065	0.909468	99
Es	-0.422424	0.762272	0.365646	99
Es	1.332568	-0.090197	-0.491141	99
Es	-0.545163	-1.335712	0.701800	99
Es	1.764093	-1.184371	-0.225168	99
Es	-0.532080	-0.122784	0.262195	99
Es	1.127642	2.306516	-0.245336	99
Es	0.308993	0.409062	0.324769	99
Es	0.874100	3.055798	-0.072880	99
Es	0.323975	2.616357	0.022231	99
Es	1.698599	-0.697557	-0.755370	99
Es	0.728895	2.815252	-0.217146	99
Es	-2.253217	-0.376610	1.592996	99
Es	-1.008253	-1.124630	-0.397912	99
45
Properties=species:S:1:pos:R:3:Z:I:1 energy=-341.10313648677595 field_type=dipole dipole="0.000000 0.000000 0.000000" charge=0
C	-2.310864	-0.642042	0.909478	6
C	-0.937174	-0.844642	0.292268	6
N	-0.260834	0.448298	0.251268	7
C	0.944016	0.504518	-0.230252	6
C	1.698626	-0.697622	-0.755392	6
N	1.601366	1.720008	-0.274072	7
O	0.728936	2.815538	-0.217312	8
H	-2.854894	-1.590632	0.953648	1
H	-2.903174	0.067828	0.322088	1
H	-2.227484	-0.245292	1.927058	1
H	-1.059994	-1.252942	-0.716672	1
H	-0.378384	-1.560962	0.903998	1
H	1.152366	-1.141512	-1.591872	1
H	1.815716	-1.438412	0.039978	1
H	2.693646	-0.409082	-1.106212	1
H	2.355026	1.830988	-0.947692	1
H	-0.056894	2.435958	0.239698	1
Es	-2.253237	-0.376631	1.592907	99
Es	-1.008219	-1.124720	-0.397975	99
Es	0.728943	2.815231	-0.217009	99
Es	1.292701	1.197589	-0.320346	99
Es	2.379097	-0.491332	-0.997048	99
Es	1.326140	-0.980178	-1.300227	99
Es	1.698599	-0.697556	-0.755371	99
Es	0.098483	0.497017	-0.202237	99
Es	-0.532736	-0.122443	0.262564	99
Es	0.944172	0.504615	-0.230264	99
Es	1.687101	1.597895	-0.042819	99
Es	1.332548	-0.090350	-0.491145	99
Es	1.600881	1.719842	-0.274731	99
Es	-0.421504	0.761474	0.365798	99
Es	0.323978	2.616565	0.022810	99
Es	1.764039	-1.184441	-0.225281	99
Es	1.127996	2.306775	-0.245237	99
Es	2.054693	1.788932	-0.673125	99
Es	-2.687562	-1.296914	0.941553	99
Es	-2.310854	-0.642061	0.909477	99
Es	0.309287	0.408981	0.324680	99
Es	0.874121	3.057885	-0.076275	99
Es	-0.937125	-0.844500	0.292275	99
Es	-0.545249	-1.335568	0.701780	99
Es	-1.627273	-0.746169	0.601470	99
Es	-0.260507	0.447962	0.251075	99
Es	0.650410	2.829645	-0.471905	99
Es	-2.709514	-0.164037	0.512951	99
45
Properties=species:S:1:pos:R:3:Z:I:1 energy=-341.10313648677595 field_type=dipole dipole="0.000000 0.000000 0.000000" charge=0
C	-2.310864	-0.642042	0.909478	6
C	-0.937174	-0.844642	0.292268	6
N	-0.260834	0.448298	0.251268	7
C	0.944016	0.504518	-0.230252	6
C	1.698626	-0.697622	-0.755392	6
N	1.601366	1.720008	-0.274072	7
O	0.728936	2.815538	-0.217312	8
H	-2.854894	-1.590632	0.953648	1
H	-2.903174	0.067828	0.322088	1
H	-2.227484	-0.245292	1.927058	1
H	-1.059994	-1.252942	-0.716672	1
H	-0.378384	-1.560962	0.903998	1
H	1.152366	-1.141512	-1.591872	1
H	1.815716	-1.438412	0.039978	1
H	2.693646	-0.409082	-1.106212	1
H	2.355026	1.830988	-0.947692	1
H	-0.056894	2.435958	0.239698	1
Es	2.055132	1.789040	-0.672601	99
Es	0.944173	0.504615	-0.230263	99
Es	1.764040	-1.184190	-0.225211	99
Es	0.323636	2.616586	0.022424	99
Es	2.379154	-0.491402	-0.997198	99
Es	0.650939	2.830599	-0.472357	99
Es	1.600802	1.719616	-0.274833	99
Es	1.332425	-0.090240	-0.491256	99
Es	-0.260507	0.447955	0.251073	99
Es	0.100094	0.496779	-0.202302	99
Es	0.728910	2.815250	-0.217037	99
Es	-0.532963	-0.122376	0.262389	99
Es	-2.709337	-0.164284	0.513094	99
Es	0.307982	0.408979	0.325541	99
Es	-1.627262	-0.746144	0.601453	99
Es	0.873898	3.056833	-0.075317	99
Es	-2.310851	-0.642065	0.909468	99
Es	-0.545237	-1.335573	0.701615	99
Es	-2.687726	-1.296919	0.941629	99
Es	-2.253364	-0.376514	1.592714	99
Es	1.128020	2.306786	-0.245279	99
Es	1.292899	1.197468	-0.319959	99
Es	-1.008182	-1.124589	-0.397758	99
Es	1.326165	-0.980340	-1.300001	99
Es	1.686668	1.598123	-0.043748	99
Es	1.698598	-0.697555	-0.755370	99
Es	-0.937127	-0.844502	0.292274	99
Es	-0.421569	0.761573	0.365161	99
45
Properties=species:S:1:pos:R:3:Z:I:1 energy=-341.10313648677595 field_type=dipole dipole="0.000000 0.000000 0.000000" charge=0
C	-2.310864	-0.642042	0.909478	6
C	-0.937174	-0.844642	0.292268	6
N	-0.260834	0.448298	0.251268	7
C	0.944016	0.504518	-0.230252	6
C	1.698626	-0.697622	-0.755392	6
N	1.601366	1.720008	-0.274072	7
O	0.728936	2.815538	-0.217312	8
H	-2.854894	-1.590632	0.953648	1
H	-2.903174	0.067828	0.322088	1
H	-2.227484	-0.245292	1.927058	1
H	-1.059994	-1.252942	-0.716672	1
H	-0.378384	-1.560962	0.903998	1
H	1.152366	-1.141512	-1.591872	1
H	1.815716	-1.438412	0.039978	1
H	2.693646	-0.409082	-1.106212	1
H	2.355026	1.830988	-0.947692	1
H	-0.056894	2.435958	0.239698	1
Es	0.323467	2.616530	0.022267	99
Es	0.309141	0.408750	0.324526	99
Es	-0.260542	0.447919	0.251085	99
Es	-0.545249	-1.335531	0.701507	99
Es	-1.008095	-1.124523	-0.397558	99
Es	2.055087	1.789041	-0.672770	99
Es	-0.937126	-0.844501	0.292274	99
Es	-0.420913	0.761474	0.365756	99
Es	-2.687830	-1.296887	0.941753	99
Es	-2.310850	-0.642065	0.909468	99
Es	-2.709319	-0.164311	0.513317	99
Es	-1.627318	-0.746119	0.601311	99
Es	-0.533120	-0.122237	0.262867	99
Es	1.686633	1.598206	-0.044067	99
Es	1.292920	1.197365	-0.319419	99
Es	0.944172	0.504614	-0.230265	99
Es	1.326107	-0.980296	-1.299961	99
Es	1.698598	-0.697557	-0.755370	99
Es	1.600879	1.719835	-0.274732	99
Es	0.651019	2.830503	-0.471628	99
Es	0.728869	2.815194	-0.217164	99
Es	0.873814	3.056895	-0.075528	99
Es	-2.253350	-0.376609	1.592476	99
Es	2.379296	-0.491500	-0.997145	99
Es	1.332395	-0.090239	-0.491135	99
Es	1.128275	2.306747	-0.245708	99
Es	1.763933	-1.184071	-0.225434	99
Es	0.098515	0.496882	-0.202378	99
45
Properties=species:S:1:pos:R:3:Z:I:1 energy=-341.10313648677595 field_type=dipole dipole="0.000000 0.000000 0.000000" charge=0
C	-2.310864	-0.642042	0.909478	6
C	-0.937174	-0.844642	0.292268	6
N	-0.260834	0.448298	0.251268	7
C	0.944016	0.504518	-0.230252	6
C	1.698626	-0.697622	-0.755392	6
N	1.601366	1.720008	-0.274072	7
O	0.728936	2.815538	-0.217312	8
H	-2.854894	-1.590632	0.953648	1
H	-2.903174	0.067828	0.322088	1
H	-2.227484	-0.245292	1.927058	1
H	-1.059994	-1.252942	-0.716672	1
H	-0.378384	-1.560962	0.903998	1
H	1.152366	-1.141512	-1.591872	1
H	1.815716	-1.438412	0.039978	1
H	2.693646	-0.409082	-1.106212	1
H	2.355026	1.830988	-0.947692	1
H	-0.056894	2.435958	0.239698	1
Es	0.728918	2.815175	-0.217081	99
Es	0.099888	0.496881	-0.202595	99
Es	-0.533574	-0.122012	0.262706	99
Es	0.874010	3.057857	-0.077336	99
Es	-2.709186	-0.164315	0.513425	99
Es	-2.310850	-0.642065	0.909468	99
Es	-0.260509	0.447934	0.251079	99
Es	1.763761	-1.184162	-0.225351	99
Es	0.307936	0.408622	0.325226	99
Es	-2.253339	-0.376620	1.592352	99
Es	1.326237	-0.980139	-1.299841	99
Es	-0.420636	0.761412	0.365403	99
Es	-2.688006	-1.296846	0.941780	99
Es	0.323617	2.616938	0.022942	99
Es	1.128243	2.306711	-0.245363	99
Es	1.332386	-0.090297	-0.491363	99
Es	0.650631	2.829117	-0.470982	99
Es	2.379373	-0.491487	-0.997166	99
Es	1.698598	-0.697555	-0.755370	99
Es	1.292875	1.197381	-0.319772	99
Es	-1.008055	-1.124665	-0.397543	99
Es	-0.545355	-1.335352	0.701489	99
Es	-1.627297	-0.746115	0.601384	99
Es	-0.937126	-0.844501	0.292275	99
Es	0.944175	0.504617	-0.230264	99
Es	2.055683	1.789224	-0.671938	99
Es	1.600867	1.719797	-0.274747	99
Es	1.686144	1.597975	-0.044471	99
45
Properties=species:S:1:pos:R:3:Z:I:1 energy=-341.10313648677595 field_type=dipole dipole="0.000000 0.000000 0.000000" charge=0
C	-2.310864	-0.642042	0.909478	6
C	-0.937174	-0.844642	0.292268	6
N	-0.260834	0.448298	0.251268	7
C	0.944016	0.504518	-0.230252	6
C	1.698626	-0.697622	-0.755392	6
N	1.601366	1.720008	-0.274072	7
O	0.728936	2.815538	-0.217312	8
H	-2.854894	-1.590632	0.953648	1
H	-2.903174	0.067828	0.322088	1
H	-2.227484	-0.245292	1.927058	1
H	-1.059994	-1.252942	-0.716672	1
H	-0.378384	-1.560962	0.903998	1
H	1.152366	-1.141512	-1.591872	1
H	1.815716	-1.438412	0.039978	1
H	2.693646	-0.409082	-1.106212	1
H	2.355026	1.830988	-0.947692	1
H	-0.056894	2.435958	0.239698	1
Es	0.944173	0.504615	-0.230264	99
Es	-0.260539	0.447926	0.251066	99
Es	-0.533694	-0.121985	0.263059	99
Es	-0.937126	-0.844501	0.292275	99
Es	-1.008029	-1.124644	-0.397426	99
Es	-1.627272	-0.746148	0.601405	99
Es	0.309771	0.408533	0.323809	99
Es	-2.253381	-0.376560	1.592156	99
Es	-2.310851	-0.642065	0.909467	99
Es	-2.709194	-0.164422	0.513447	99
Es	0.873755	3.055939	-0.074810	99
Es	1.293142	1.196951	-0.318338	99
Es	1.698598	-0.697556	-0.755370	99
Es	-2.688021	-1.296852	0.941957	99
Es	0.097561	0.497153	-0.202284	99
Es	1.128302	2.306936	-0.246243	99
Es	1.600987	1.719992	-0.274545	99
Es	1.332355	-0.090381	-0.491080	99
Es	1.685901	1.598292	-0.046000	99
Es	0.323097	2.616497	0.021990	99
Es	0.651457	2.831246	-0.471478	99
Es	1.763819	-1.184121	-0.225513	99
Es	1.326172	-0.980108	-1.299710	99
Es	2.379396	-0.491449	-0.997304	99
Es	2.055560	1.789040	-0.672194	99
Es	-0.419968	0.761205	0.366106	99
Es	0.728870	2.815257	-0.217201	99
Es	-0.545433	-1.335282	0.701367	99
