39
Properties=species:S:1:pos:R:3:Z:I:1 energy=-338.80723394654325 field_type=dipole dipole="0.000000 0.000000 0.000000" charge=0
C	-2.333139	0.034678	-0.894498	6
C	-1.295219	-0.351502	-0.147428	6
N	-0.034569	0.177348	-0.182078	7
C	1.098801	-0.132422	0.532012	6
N	1.234031	-1.039352	1.444612	7
C	2.343841	0.686258	0.215002	6
O	2.289971	1.559488	-0.639568	8
H	-3.298689	-0.450982	-0.791898	1
H	-2.251979	0.836488	-1.620958	1
H	-1.432499	-1.160372	0.565382	1
H	0.097831	0.936438	-0.853208	1
H	0.342041	-1.520891	1.572442	1
H	3.239581	0.424818	0.800191	1
Es	1.999158	1.574222	-0.761089	99
Es	-0.034568	0.177346	-0.182016	99
Es	1.098708	-0.132311	0.531876	99
Es	-1.749246	-0.366846	-0.766028	99
Es	2.374010	1.067375	-0.498948	99
Es	1.250331	-0.849088	0.867114	99
Es	-0.576297	-0.046940	-0.131439	99
Es	0.017689	0.077248	-0.185176	99
Es	-2.333153	0.034681	-0.894543	99
Es	1.704788	0.278291	0.366451	99
Es	1.534299	-1.113968	1.626600	99
Es	-1.371941	-0.897441	0.339739	99
Es	1.233618	-1.039207	1.444321	99
Es	0.429265	0.053612	0.170916	99
Es	2.343757	0.686240	0.214980	99
Es	0.037281	0.627044	-0.566551	99
Es	2.289968	1.559272	-0.639366	99
Es	1.104972	-0.474089	1.261261	99
Es	-2.981148	-0.291056	-0.825925	99
Es	2.554853	1.713978	-0.687062	99
Es	-1.294942	-0.351482	-0.147345	99
Es	-1.919008	0.066673	-0.306355	99
Es	0.689030	-1.323403	1.513169	99
Es	-2.274008	0.578626	-1.386043	99
Es	2.243090	1.402245	-0.148178	99
Es	2.938853	0.508186	0.607924	99
39
Properties=species:S:1:pos:R:3:Z:I:1 energy=-338.80723394654325 field_type=dipole dipole="0.000000 0.000000 0.000000" charge=0
C	-2.333139	0.034678	-0.894498	6
C	-1.295219	-0.351502	-0.147428	6
N	-0.034569	0.177348	-0.182078	7
C	1.098801	-0.132422	0.532012	6
N	1.234031	-1.039352	1.444612	7
C	2.343841	0.686258	0.215002	6
O	2.289971	1.559488	-0.639568	8
H	-3.298689	-0.450982	-0.791898	1
H	-2.251979	0.836488	-1.620958	1
H	-1.432499	-1.160372	0.565382	1
H	0.097831	0.936438	-0.853208	1
H	0.342041	-1.520891	1.572442	1
H	3.239581	0.424818	0.800191	1
Es	-2.978352	-0.291145	-0.824948	99
Es	0.690819	-1.318085	1.508858	99
Es	-1.294939	-0.351480	-0.147343	99
Es	1.233608	-1.039197	1.444310	99
Es	2.375567	1.071154	-0.493797	99
Es	1.542858	-1.117336	1.632715	99
Es	-0.005221	0.134089	-0.129827	99
Es	-0.034466	0.177104	-0.182252	99
Es	1.704737	0.278012	0.366352	99
Es	2.247217	1.402880	-0.149945	99
Es	-2.274746	0.580884	-1.388278	99
Es	1.243962	-0.846626	0.870061	99
Es	0.444127	0.020894	0.143412	99
Es	1.993946	1.590446	-0.780477	99
Es	2.289935	1.559214	-0.639320	99
Es	2.939428	0.507771	0.608404	99
Es	1.098709	-0.132315	0.531868	99
Es	1.101056	-0.478848	1.257302	99
Es	-1.750007	-0.364955	-0.764341	99
Es	0.037796	0.621629	-0.575775	99
Es	-2.333170	0.034701	-0.894533	99
Es	-1.918154	0.065277	-0.308402	99
Es	-1.372312	-0.899150	0.341226	99
Es	2.343756	0.686239	0.214986	99
Es	2.553349	1.693220	-0.671107	99
Es	-0.570146	-0.065169	-0.150863	99
39
Properties=species:S:1:pos:R:3:Z:I:1 energy=-338.80723394654325 field_type=dipole dipole="0.000000 0.000000 0.000000" charge=0
C	-2.333139	0.034678	-0.894498	6
C	-1.295219	-0.351502	-0.147428	6
N	-0.034569	0.177348	-0.182078	7
C	1.098801	-0.132422	0.532012	6
N	1.234031	-1.039352	1.444612	7
C	2.343841	0.686258	0.215002	6
O	2.289971	1.559488	-0.639568	8
H	-3.298689	-0.450982	-0.791898	1
H	-2.251979	0.836488	-1.620958	1
H	-1.432499	-1.160372	0.565382	1
H	0.097831	0.936438	-0.853208	1
H	0.342041	-1.520891	1.572442	1
H	3.239581	0.424818	0.800191	1
Es	-0.034788	0.178103	-0.180639	99
Es	-2.333174	0.034700	-0.894535	99
Es	1.233618	-1.039203	1.444320	99
Es	-1.917580	0.064000	-0.310339	99
Es	1.098706	-0.132313	0.531869	99
Es	-0.569332	-0.063326	-0.150088	99
Es	1.704794	0.277880	0.366465	99
Es	1.546377	-1.118522	1.635730	99
Es	1.099362	-0.482310	1.255282	99
Es	1.240711	-0.844809	0.871911	99
Es	2.939632	0.507599	0.608681	99
Es	1.999259	1.610014	-0.796749	99
Es	-1.372607	-0.900109	0.341971	99
Es	-1.750287	-0.362930	-0.762660	99
Es	-0.004107	0.131801	-0.132792	99
Es	2.246612	1.400155	-0.152067	99
Es	2.375343	1.072210	-0.493504	99
Es	0.691991	-1.315539	1.506243	99
Es	-2.275290	0.581884	-1.389651	99
Es	2.289935	1.559235	-0.639339	99
Es	2.343754	0.686239	0.214990	99
Es	2.548468	1.675126	-0.653011	99
Es	0.443122	0.020806	0.144836	99
Es	-2.976702	-0.291489	-0.824074	99
Es	-1.294939	-0.351482	-0.147345	99
Es	0.036479	0.621490	-0.577215	99
39
Properties=species:S:1:pos:R:3:Z:I:1 energy=-338.80723394654325 field_type=dipole dipole="0.000000 0.000000 0.000000" charge=0
C	-2.333139	0.034678	-0.894498	6
C	-1.295219	-0.351502	-0.147428	6
N	-0.034569	0.177348	-0.182078	7
C	1.098801	-0.132422	0.532012	6
N	1.234031	-1.039352	1.444612	7
C	2.343841	0.686258	0.215002	6
O	2.289971	1.559488	-0.639568	8
H	-3.298689	-0.450982	-0.791898	1
H	-2.251979	0.836488	-1.620958	1
H	-1.432499	-1.160372	0.565382	1
H	0.097831	0.936438	-0.853208	1
H	0.342041	-1.520891	1.572442	1
H	3.239581	0.424818	0.800191	1
Es	-1.750664	-0.361222	-0.761333	99
Es	-2.975868	-0.291847	-0.823339	99
Es	-0.034380	0.176886	-0.182416	99
Es	2.004144	1.621778	-0.805882	99
Es	-1.916797	0.062850	-0.312153	99
Es	1.098327	-0.484501	1.252739	99
Es	-1.294935	-0.351480	-0.147343	99
Es	-1.372880	-0.900659	0.342475	99
Es	2.374525	1.073243	-0.491123	99
Es	2.289918	1.559229	-0.639338	99
Es	2.939727	0.507386	0.608831	99
Es	1.233614	-1.039201	1.444307	99
Es	-2.333173	0.034696	-0.894541	99
Es	2.543853	1.663076	-0.643543	99
Es	0.035430	0.621619	-0.577923	99
Es	-0.568078	-0.063206	-0.150873	99
Es	1.238550	-0.844177	0.874288	99
Es	1.098710	-0.132311	0.531874	99
Es	-0.004807	0.134269	-0.129675	99
Es	0.442747	0.019509	0.144632	99
Es	2.343755	0.686241	0.214990	99
Es	2.247055	1.399364	-0.154715	99
Es	1.548499	-1.119913	1.637916	99
Es	1.704920	0.277884	0.366477	99
Es	-2.275503	0.582506	-1.390378	99
Es	0.692669	-1.312811	1.504339	99
39
Properties=species:S:1:pos:R:3:Z:I:1 energy=-338.80723394654325 field_type=dipole dipole="0.000000 0.000000 0.000000" charge=0
C	-2.333139	0.034678	-0.894498	6
C	-1.295219	-0.351502	-0.147428	6
N	-0.034569	0.177348	-0.182078	7
C	1.098801	-0.132422	0.532012	6
N	1.234031	-1.039352	1.444612	7
C	2.343841	0.686258	0.215002	6
O	2.289971	1.559488	-0.639568	8
H	-3.298689	-0.450982	-0.791898	1
H	-2.251979	0.836488	-1.620958	1
H	-1.432499	-1.160372	0.565382	1
H	0.097831	0.936438	-0.853208	1
H	0.342041	-1.520891	1.572442	1
H	3.239581	0.424818	0.800191	1
Es	1.705006	0.277791	0.366508	99
Es	1.098221	-0.486579	1.251147	99
Es	2.246235	1.397789	-0.156707	99
Es	2.289882	1.559198	-0.639325	99
Es	1.098705	-0.132311	0.531871	99
Es	-0.034534	0.177259	-0.182109	99
Es	-1.373027	-0.901002	0.342850	99
Es	-0.004069	0.132535	-0.131344	99
Es	-2.275577	0.582968	-1.390770	99
Es	2.343756	0.686237	0.214986	99
Es	2.372903	1.074062	-0.490092	99
Es	1.236922	-0.842923	0.876370	99
Es	2.939821	0.507319	0.608921	99
Es	-1.752120	-0.359589	-0.760439	99
Es	0.692577	-1.311334	1.502871	99
Es	-0.567626	-0.061891	-0.150462	99
Es	-1.294933	-0.351480	-0.147345	99
Es	0.442087	0.019814	0.145631	99
Es	1.233615	-1.039201	1.444317	99
Es	2.012409	1.634673	-0.814782	99
Es	-2.333180	0.034705	-0.894533	99
Es	-1.915049	0.061705	-0.313465	99
Es	2.537998	1.650862	-0.633661	99
Es	0.034673	0.621666	-0.578313	99
Es	-2.975418	-0.292421	-0.822770	99
Es	1.550079	-1.120644	1.638933	99
39
Properties=species:S:1:pos:R:3:Z:I:1 energy=-338.80723394654325 field_type=dipole dipole="0.000000 0.000000 0.000000" charge=0
C	-2.333139	0.034678	-0.894498	6
C	-1.295219	-0.351502	-0.147428	6
N	-0.034569	0.177348	-0.182078	7
C	1.098801	-0.132422	0.532012	6
N	1.234031	-1.039352	1.444612	7
C	2.343841	0.686258	0.215002	6
O	2.289971	1.559488	-0.639568	8
H	-3.298689	-0.450982	-0.791898	1
H	-2.251979	0.836488	-1.620958	1
H	-1.432499	-1.160372	0.565382	1
H	0.097831	0.936438	-0.853208	1
H	0.342041	-1.520891	1.572442	1
H	3.239581	0.424818	0.800191	1
Es	-2.975030	-0.292077	-0.822409	99
Es	0.442433	0.017741	0.144063	99
Es	-0.566743	-0.062513	-0.151410	99
Es	1.093678	-0.482415	1.237559	99
Es	1.704802	0.278232	0.366941	99
Es	0.033634	0.622762	-0.577533	99
Es	2.264044	1.353290	-0.154392	99
Es	1.233608	-1.039200	1.444312	99
Es	2.289887	1.559201	-0.639325	99
Es	-1.913904	0.061406	-0.313733	99
Es	2.532387	1.643691	-0.630822	99
Es	1.098706	-0.132313	0.531868	99
Es	-0.004945	0.134824	-0.129123	99
Es	-2.275913	0.583347	-1.390681	99
Es	-1.753011	-0.359431	-0.760629	99
Es	2.343756	0.686240	0.214990	99
Es	-2.333176	0.034702	-0.894535	99
Es	2.939821	0.507251	0.609017	99
Es	-1.372821	-0.901333	0.342797	99
Es	1.550061	-1.122298	1.640037	99
Es	2.356871	1.118033	-0.493093	99
Es	-0.034225	0.176555	-0.182613	99
Es	0.693659	-1.310116	1.501085	99
Es	2.016211	1.642252	-0.816996	99
Es	-1.294931	-0.351477	-0.147343	99
Es	1.240502	-0.847146	0.890257	99
39
Properties=species:S:1:pos:R:3:Z:I:1 energy=-338.80723394654325 field_type=dipole dipole="0.000000 0.000000 0.000000" charge=0
C	-2.333139	0.034678	-0.894498	6
C	-1.295219	-0.351502	-0.147428	6
N	-0.034569	0.177348	-0.182078	7
C	1.098801	-0.132422	0.532012	6
N	1.234031	-1.039352	1.444612	7
C	2.343841	0.686258	0.215002	6
O	2.289971	1.559488	-0.639568	8
H	-3.298689	-0.450982	-0.791898	1
H	-2.251979	0.836488	-1.620958	1
H	-1.432499	-1.160372	0.565382	1
H	0.097831	0.936438	-0.853208	1
H	0.342041	-1.520891	1.572442	1
H	3.239581	0.424818	0.800191	1
Es	-1.294937	-0.351481	-0.147345	99
Es	0.441398	0.019658	0.146429	99
Es	1.098702	-0.132308	0.531873	99
Es	-1.372706	-0.901116	0.343102	99
Es	0.033760	0.621513	-0.579039	99
Es	1.240090	-0.835509	0.935422	99
Es	1.549020	-1.121908	1.642810	99
Es	2.356483	1.119779	-0.492474	99
Es	0.695075	-1.308873	1.500101	99
Es	-2.974127	-0.292166	-0.822763	99
Es	-0.003802	0.132044	-0.131943	99
Es	2.266312	1.352548	-0.153983	99
Es	1.093608	-0.495731	1.190663	99
Es	1.704838	0.278336	0.367122	99
Es	2.343756	0.686239	0.214989	99
Es	2.289902	1.559213	-0.639331	99
Es	-2.276395	0.582987	-1.391243	99
Es	2.020040	1.646240	-0.820195	99
Es	-2.333175	0.034702	-0.894535	99
Es	-0.566711	-0.061702	-0.150699	99
Es	-1.914768	0.061952	-0.313219	99
Es	1.233607	-1.039202	1.444314	99
Es	2.939685	0.507277	0.609228	99
Es	-1.752267	-0.359541	-0.760706	99
Es	2.526689	1.638473	-0.628889	99
Es	-0.034721	0.177785	-0.181400	99
39
Properties=species:S:1:pos:R:3:Z:I:1 energy=-338.80723394654325 field_type=dipole dipole="0.000000 0.000000 0.000000" charge=0
C	-2.333139	0.034678	-0.894498	6
C	-1.295219	-0.351502	-0.147428	6
N	-0.034569	0.177348	-0.182078	7
C	1.098801	-0.132422	0.532012	6
N	1.234031	-1.039352	1.444612	7
C	2.343841	0.686258	0.215002	6
O	2.289971	1.559488	-0.639568	8
H	-3.298689	-0.450982	-0.791898	1
H	-2.251979	0.836488	-1.620958	1
H	-1.432499	-1.160372	0.565382	1
H	0.097831	0.936438	-0.853208	1
H	0.342041	-1.520891	1.572442	1
H	3.239581	0.424818	0.800191	1
Es	-1.372473	-0.901290	0.343070	99
Es	-0.034716	0.177781	-0.181410	99
Es	-2.276691	0.583062	-1.391358	99
Es	2.371259	1.086518	-0.419144	99
Es	-2.333177	0.034704	-0.894533	99
Es	1.205643	-0.784831	0.883965	99
Es	1.705198	0.277310	0.366003	99
Es	-1.915950	0.062023	-0.313702	99
Es	0.033175	0.621718	-0.578989	99
Es	1.098706	-0.132314	0.531869	99
Es	-0.566399	-0.061283	-0.150581	99
Es	2.521402	1.637133	-0.625460	99
Es	0.695250	-1.306743	1.500913	99
Es	2.023340	1.646902	-0.824231	99
Es	2.939715	0.506931	0.609048	99
Es	2.253285	1.387083	-0.226082	99
Es	-2.973785	-0.291638	-0.822345	99
Es	-0.004338	0.133472	-0.130411	99
Es	1.126828	-0.544450	1.244227	99
Es	2.289909	1.559210	-0.639325	99
Es	1.233613	-1.039220	1.444332	99
Es	-1.751077	-0.359795	-0.760349	99
Es	2.343756	0.686237	0.214987	99
Es	1.549780	-1.125333	1.640642	99
Es	0.442037	0.017497	0.144499	99
Es	-1.294932	-0.351478	-0.147345	99
39
Properties=species:S:1:pos:R:3:Z:I:1 energy=-338.80723394654325 field_type=dipole dipole="0.000000 0.000000 0.000000" charge=0
C	-2.333139	0.034678	-0.894498	6
C	-1.295219	-0.351502	-0.147428	6
N	-0.034569	0.177348	-0.182078	7
C	1.098801	-0.132422	0.532012	6
N	1.234031	-1.039352	1.444612	7
C	2.343841	0.686258	0.215002	6
O	2.289971	1.559488	-0.639568	8
H	-3.298689	-0.450982	-0.791898	1
H	-2.251979	0.836488	-1.620958	1
H	-1.432499	-1.160372	0.565382	1
H	0.097831	0.936438	-0.853208	1
H	0.342041	-1.520891	1.572442	1
H	3.239581	0.424818	0.800191	1
Es	2.939626	0.507189	0.609336	99
Es	1.548635	-1.123018	1.643695	99
Es	2.289888	1.559213	-0.639332	99
Es	1.704564	0.278310	0.367215	99
Es	2.343756	0.686240	0.214989	99
Es	2.336930	1.173655	-0.462774	99
Es	1.233618	-1.039198	1.444313	99
Es	-0.565538	-0.062606	-0.152020	99
Es	1.093547	-0.498001	1.185690	99
Es	0.441425	0.018683	0.145878	99
Es	2.024891	1.651582	-0.823577	99
Es	-1.294935	-0.351478	-0.147342	99
Es	-2.276944	0.582972	-1.391476	99
Es	-1.372332	-0.901162	0.343270	99
Es	0.696411	-1.307459	1.499646	99
Es	0.032750	0.621799	-0.579085	99
Es	1.239293	-0.833675	0.939977	99
Es	-0.004598	0.134129	-0.129486	99
Es	-1.915892	0.062306	-0.313078	99
Es	-2.973234	-0.291680	-0.822821	99
Es	2.517709	1.632105	-0.626304	99
Es	-2.333175	0.034702	-0.894536	99
Es	-1.751228	-0.359971	-0.760718	99
Es	1.098706	-0.132311	0.531871	99
Es	2.290005	1.299657	-0.182906	99
Es	-0.034521	0.177226	-0.182135	99
39
Properties=species:S:1:pos:R:3:Z:I:1 energy=-338.80723394654325 field_type=dipole dipole="0.000000 0.000000 0.000000" charge=0
C	-2.333139	0.034678	-0.894498	6
C	-1.295219	-0.351502	-0.147428	6
N	-0.034569	0.177348	-0.182078	7
C	1.098801	-0.132422	0.532012	6
N	1.234031	-1.039352	1.444612	7
C	2.343841	0.686258	0.215002	6
O	2.289971	1.559488	-0.639568	8
H	-3.298689	-0.450982	-0.791898	1
H	-2.251979	0.836488	-1.620958	1
H	-1.432499	-1.160372	0.565382	1
H	0.097831	0.936438	-0.853208	1
H	0.342041	-1.520891	1.572442	1
H	3.239581	0.424818	0.800191	1
Es	-1.372181	-0.901320	0.343151	99
Es	-0.565977	-0.061193	-0.150622	99
Es	-1.294935	-0.351480	-0.147344	99
Es	-2.973178	-0.291308	-0.822405	99
Es	-0.004685	0.134377	-0.129249	99
Es	2.028323	1.652631	-0.827241	99
Es	0.696542	-1.305700	1.500152	99
Es	2.939721	0.506854	0.609059	99
Es	2.343756	0.686237	0.214987	99
Es	1.126825	-0.544723	1.244352	99
Es	-0.034441	0.177039	-0.182304	99
Es	-1.916008	0.062264	-0.313406	99
Es	2.289875	1.559193	-0.639322	99
Es	1.704956	0.277228	0.366061	99
Es	-2.277179	0.583200	-1.391309	99
Es	1.204853	-0.784327	0.884075	99
Es	2.267085	1.353631	-0.281176	99
Es	2.512712	1.631132	-0.622436	99
Es	2.361161	1.120277	-0.364019	99
Es	0.032478	0.622018	-0.578886	99
Es	1.233606	-1.039195	1.444303	99
Es	-1.750933	-0.360162	-0.760779	99
Es	1.098706	-0.132311	0.531871	99
Es	-2.333176	0.034702	-0.894535	99
Es	0.442058	0.016886	0.144122	99
Es	1.549393	-1.126745	1.641189	99
39
Properties=species:S:1:pos:R:3:Z:I:1 energy=-338.80723394654325 field_type=dipole dipole="0.000000 0.000000 0.000000" charge=0
C	-2.333139	0.034678	-0.894498	6
C	-1.295219	-0.351502	-0.147428	6
N	-0.034569	0.177348	-0.182078	7
C	1.098801	-0.132422	0.532012	6
N	1.234031	-1.039352	1.444612	7
C	2.343841	0.686258	0.215002	6
O	2.289971	1.559488	-0.639568	8
H	-3.298689	-0.450982	-0.791898	1
H	-2.251979	0.836488	-1.620958	1
H	-1.432499	-1.160372	0.565382	1
H	0.097831	0.936438	-0.853208	1
H	0.342041	-1.520891	1.572442	1
H	3.239581	0.424818	0.800191	1
Es	1.547361	-1.123893	1.645804	99
Es	1.241174	-0.840800	0.924477	99
Es	2.509894	1.627070	-0.623185	99
Es	-1.372271	-0.900796	0.343745	99
Es	0.033005	0.620273	-0.580778	99
Es	2.343755	0.686241	0.214992	99
Es	2.289871	1.559197	-0.639322	99
Es	-2.276980	0.582547	-1.392025	99
Es	-0.004662	0.134122	-0.129947	99
Es	2.327122	1.209842	-0.258898	99
Es	-2.972834	-0.291558	-0.822908	99
Es	-2.333177	0.034705	-0.894532	99
Es	1.091880	-0.491335	1.200621	99
Es	0.697347	-1.305564	1.498716	99
Es	-1.753105	-0.359989	-0.761148	99
Es	-0.034029	0.176140	-0.182788	99
Es	1.233616	-1.039222	1.444335	99
Es	-1.294935	-0.351477	-0.147341	99
Es	-0.565888	-0.061387	-0.150748	99
Es	-1.914072	0.062346	-0.312571	99
Es	2.302172	1.265626	-0.384848	99
Es	2.030442	1.654255	-0.828839	99
Es	2.939563	0.507206	0.609490	99
Es	1.098705	-0.132312	0.531869	99
Es	0.440865	0.020036	0.147320	99
Es	1.704538	0.277934	0.366799	99
39
Properties=species:S:1:pos:R:3:Z:I:1 energy=-338.80723394654325 field_type=dipole dipole="0.000000 0.000000 0.000000" charge=0
C	-2.333139	0.034678	-0.894498	6
C	-1.295219	-0.351502	-0.147428	6
N	-0.034569	0.177348	-0.182078	7
C	1.098801	-0.132422	0.532012	6
N	1.234031	-1.039352	1.444612	7
C	2.343841	0.686258	0.215002	6
O	2.289971	1.559488	-0.639568	8
H	-3.298689	-0.450982	-0.791898	1
H	-2.251979	0.836488	-1.620958	1
H	-1.432499	-1.160372	0.565382	1
H	0.097831	0.936438	-0.853208	1
H	0.342041	-1.520891	1.572442	1
H	3.239581	0.424818	0.800191	1
Es	2.939736	0.506692	0.609000	99
Es	2.343757	0.686237	0.214987	99
Es	0.442504	0.015529	0.142728	99
Es	-1.294934	-0.351480	-0.147345	99
Es	-1.749240	-0.360286	-0.760483	99
Es	1.126170	-0.543276	1.245349	99
Es	1.204858	-0.785194	0.883709	99
Es	-1.917672	0.062076	-0.313871	99
Es	-2.972742	-0.290980	-0.822365	99
Es	-2.277673	0.583574	-1.390966	99
Es	2.286734	1.304893	-0.342934	99
Es	2.289852	1.559178	-0.639318	99
Es	0.697586	-1.304800	1.499164	99
Es	-0.565609	-0.061866	-0.151396	99
Es	-2.333177	0.034707	-0.894530	99
Es	-0.034699	0.177718	-0.181519	99
Es	-0.004764	0.134582	-0.129042	99
Es	1.098709	-0.132322	0.531862	99
Es	1.233619	-1.039213	1.444326	99
Es	-1.371845	-0.901617	0.342886	99
Es	2.343259	1.168330	-0.303132	99
Es	0.031735	0.623251	-0.577650	99
Es	2.506684	1.625887	-0.620136	99
Es	2.032510	1.658743	-0.828488	99
Es	1.704789	0.277412	0.366272	99
Es	1.549211	-1.128566	1.641180	99
39
Properties=species:S:1:pos:R:3:Z:I:1 energy=-338.80723394654325 field_type=dipole dipole="0.000000 0.000000 0.000000" charge=0
C	-2.333139	0.034678	-0.894498	6
C	-1.295219	-0.351502	-0.147428	6
N	-0.034569	0.177348	-0.182078	7
C	1.098801	-0.132422	0.532012	6
N	1.234031	-1.039352	1.444612	7
C	2.343841	0.686258	0.215002	6
O	2.289971	1.559488	-0.639568	8
H	-3.298689	-0.450982	-0.791898	1
H	-2.251979	0.836488	-1.620958	1
H	-1.432499	-1.160372	0.565382	1
H	0.097831	0.936438	-0.853208	1
H	0.342041	-1.520891	1.572442	1
H	3.239581	0.424818	0.800191	1
Es	-0.565273	-0.062156	-0.151796	99
Es	-1.294934	-0.351479	-0.147344	99
Es	-1.916544	0.062769	-0.312631	99
Es	1.095000	-0.505578	1.171256	99
Es	1.704439	0.278054	0.366982	99
Es	2.320818	1.228575	-0.240954	99
Es	2.289906	1.559198	-0.639315	99
Es	2.506553	1.624719	-0.621869	99
Es	1.098705	-0.132312	0.531871	99
Es	2.309528	1.246782	-0.403032	99
Es	1.547016	-1.124148	1.646760	99
Es	2.343756	0.686240	0.214989	99
Es	2.939489	0.507135	0.609566	99
Es	0.698304	-1.304726	1.498348	99
Es	2.032653	1.656674	-0.829979	99
Es	-1.372051	-0.900834	0.343765	99
Es	0.440702	0.019615	0.147271	99
Es	-0.033535	0.175172	-0.182957	99
Es	1.237494	-0.827327	0.953186	99
Es	-1.750748	-0.360266	-0.760818	99
Es	-0.005445	0.135945	-0.128869	99
Es	1.233615	-1.039209	1.444322	99
Es	0.032626	0.620549	-0.580629	99
Es	-2.333176	0.034704	-0.894533	99
Es	-2.972187	-0.291392	-0.823149	99
Es	-2.277350	0.582506	-1.392152	99
39
Properties=species:S:1:pos:R:3:Z:I:1 energy=-338.80723394654325 field_type=dipole dipole="0.000000 0.000000 0.000000" charge=0
C	-2.333139	0.034678	-0.894498	6
C	-1.295219	-0.351502	-0.147428	6
N	-0.034569	0.177348	-0.182078	7
C	1.098801	-0.132422	0.532012	6
N	1.234031	-1.039352	1.444612	7
C	2.343841	0.686258	0.215002	6
O	2.289971	1.559488	-0.639568	8
H	-3.298689	-0.450982	-0.791898	1
H	-2.251979	0.836488	-1.620958	1
H	-1.432499	-1.160372	0.565382	1
H	0.097831	0.936438	-0.853208	1
H	0.342041	-1.520891	1.572442	1
H	3.239581	0.424818	0.800191	1
Es	1.170513	-0.708962	0.936232	99
Es	2.371142	1.099131	-0.396592	99
Es	2.257410	1.375197	-0.248049	99
Es	1.549029	-1.127309	1.642903	99
Es	-1.916615	0.062650	-0.312951	99
Es	1.098706	-0.132312	0.531870	99
Es	2.343756	0.686238	0.214987	99
Es	2.939576	0.506761	0.609242	99
Es	-2.972227	-0.290930	-0.822661	99
Es	2.037578	1.659604	-0.833237	99
Es	-1.371916	-0.901158	0.343430	99
Es	1.705203	0.277221	0.366117	99
Es	1.233613	-1.039204	1.444316	99
Es	-2.277680	0.582926	-1.391721	99
Es	2.503058	1.623581	-0.617152	99
Es	-2.333175	0.034702	-0.894535	99
Es	0.441349	0.017936	0.145565	99
Es	1.159310	-0.621224	1.191293	99
Es	-0.004438	0.133658	-0.130147	99
Es	-1.750480	-0.360580	-0.760965	99
Es	2.289867	1.559194	-0.639327	99
Es	0.032226	0.621359	-0.579752	99
Es	-0.565860	-0.060488	-0.150126	99
Es	-0.034248	0.176604	-0.182583	99
Es	0.698595	-1.303907	1.499479	99
Es	-1.294934	-0.351480	-0.147345	99
39
Properties=species:S:1:pos:R:3:Z:I:1 energy=-338.80723394654325 field_type=dipole dipole="0.000000 0.000000 0.000000" charge=0
C	-2.333139	0.034678	-0.894498	6
C	-1.295219	-0.351502	-0.147428	6
N	-0.034569	0.177348	-0.182078	7
C	1.098801	-0.132422	0.532012	6
N	1.234031	-1.039352	1.444612	7
C	2.343841	0.686258	0.215002	6
O	2.289971	1.559488	-0.639568	8
H	-3.298689	-0.450982	-0.791898	1
H	-2.251979	0.836488	-1.620958	1
H	-1.432499	-1.160372	0.565382	1
H	0.097831	0.936438	-0.853208	1
H	0.342041	-1.520891	1.572442	1
H	3.239581	0.424818	0.800191	1
Es	2.939500	0.506989	0.609494	99
Es	1.704656	0.278119	0.367134	99
Es	1.228604	-0.800828	0.995700	99
Es	2.302066	1.275772	-0.200317	99
Es	-1.371830	-0.901144	0.343484	99
Es	-2.971951	-0.291170	-0.822902	99
Es	2.289856	1.559191	-0.639327	99
Es	2.036389	1.662098	-0.830600	99
Es	-2.277770	0.582835	-1.391877	99
Es	-1.917048	0.062651	-0.312923	99
Es	1.547408	-1.125820	1.646052	99
Es	2.327678	1.198683	-0.444373	99
Es	-0.004333	0.133509	-0.130067	99
Es	1.098706	-0.132310	0.531873	99
Es	-1.750152	-0.360313	-0.760749	99
Es	1.102466	-0.530985	1.129970	99
Es	2.343755	0.686242	0.214992	99
Es	1.233615	-1.039198	1.444311	99
Es	0.440785	0.019293	0.146963	99
Es	-1.294934	-0.351476	-0.147341	99
Es	0.699342	-1.304435	1.497533	99
Es	-0.565122	-0.062250	-0.152043	99
Es	-2.333175	0.034701	-0.894536	99
Es	2.503255	1.620389	-0.620324	99
Es	-0.034464	0.177084	-0.182265	99
Es	0.032060	0.621581	-0.579571	99
39
Properties=species:S:1:pos:R:3:Z:I:1 energy=-338.80723394654325 field_type=dipole dipole="0.000000 0.000000 0.000000" charge=0
C	-2.333139	0.034678	-0.894498	6
C	-1.295219	-0.351502	-0.147428	6
N	-0.034569	0.177348	-0.182078	7
C	1.098801	-0.132422	0.532012	6
N	1.234031	-1.039352	1.444612	7
C	2.343841	0.686258	0.215002	6
O	2.289971	1.559488	-0.639568	8
H	-3.298689	-0.450982	-0.791898	1
H	-2.251979	0.836488	-1.620958	1
H	-1.432499	-1.160372	0.565382	1
H	0.097831	0.936438	-0.853208	1
H	0.342041	-1.520891	1.572442	1
H	3.239581	0.424818	0.800191	1
Es	1.704834	0.277346	0.366258	99
Es	2.500969	1.621681	-0.618585	99
Es	-0.565030	-0.061895	-0.151719	99
Es	1.140635	-0.576792	1.225084	99
Es	-0.034706	0.177737	-0.181483	99
Es	-2.278076	0.583463	-1.391255	99
Es	-1.371613	-0.901629	0.343017	99
Es	-1.748393	-0.360161	-0.759951	99
Es	-1.918633	0.062090	-0.314163	99
Es	0.699142	-1.303245	1.498291	99
Es	0.031184	0.623138	-0.577966	99
Es	-2.333172	0.034695	-0.894542	99
Es	1.233613	-1.039211	1.444321	99
Es	1.098702	-0.132306	0.531876	99
Es	2.343756	0.686238	0.214987	99
Es	2.289936	1.559215	-0.639320	99
Es	-1.294936	-0.351480	-0.147344	99
Es	1.189431	-0.752170	0.903588	99
Es	0.442114	0.015756	0.143358	99
Es	1.548596	-1.129666	1.642502	99
Es	2.939645	0.506585	0.609090	99
Es	2.282538	1.315630	-0.330414	99
Es	2.349193	1.158256	-0.315145	99
Es	-2.971994	-0.290704	-0.822439	99
Es	2.036315	1.662245	-0.830543	99
Es	-0.004693	0.134391	-0.129216	99
39
Properties=species:S:1:pos:R:3:Z:I:1 energy=-338.80723394654325 field_type=dipole dipole="0.000000 0.000000 0.000000" charge=0
C	-2.333139	0.034678	-0.894498	6
C	-1.295219	-0.351502	-0.147428	6
N	-0.034569	0.177348	-0.182078	7
C	1.098801	-0.132422	0.532012	6
N	1.234031	-1.039352	1.444612	7
C	2.343841	0.686258	0.215002	6
O	2.289971	1.559488	-0.639568	8
H	-3.298689	-0.450982	-0.791898	1
H	-2.251979	0.836488	-1.620958	1
H	-1.432499	-1.160372	0.565382	1
H	0.097831	0.936438	-0.853208	1
H	0.342041	-1.520891	1.572442	1
H	3.239581	0.424818	0.800191	1
Es	0.440822	0.018677	0.146658	99
Es	2.289841	1.559180	-0.639321	99
Es	0.031932	0.621330	-0.579897	99
Es	1.704610	0.278211	0.367172	99
Es	0.699752	-1.303972	1.497554	99
Es	2.343755	0.686240	0.214990	99
Es	-0.033054	0.174278	-0.182935	99
Es	-2.277989	0.582897	-1.391844	99
Es	-1.914285	0.062589	-0.312199	99
Es	1.233615	-1.039192	1.444307	99
Es	-1.294935	-0.351479	-0.147343	99
Es	2.037987	1.663705	-0.831324	99
Es	-0.005495	0.135690	-0.130055	99
Es	1.098704	-0.132309	0.531873	99
Es	-2.971720	-0.290929	-0.822818	99
Es	2.939491	0.506945	0.609468	99
Es	-0.565476	-0.060884	-0.150709	99
Es	1.104328	-0.537377	1.120816	99
Es	1.226287	-0.794567	1.004814	99
Es	2.499558	1.618654	-0.619483	99
Es	-1.371753	-0.901083	0.343597	99
Es	-1.752777	-0.360478	-0.761732	99
Es	1.547462	-1.126231	1.646040	99
Es	-2.333175	0.034702	-0.894536	99
Es	2.307133	1.267699	-0.206863	99
Es	2.324739	1.206912	-0.437942	99
39
Properties=species:S:1:pos:R:3:Z:I:1 energy=-338.80723394654325 field_type=dipole dipole="0.000000 0.000000 0.000000" charge=0
C	-2.333139	0.034678	-0.894498	6
C	-1.295219	-0.351502	-0.147428	6
N	-0.034569	0.177348	-0.182078	7
C	1.098801	-0.132422	0.532012	6
N	1.234031	-1.039352	1.444612	7
C	2.343841	0.686258	0.215002	6
O	2.289971	1.559488	-0.639568	8
H	-3.298689	-0.450982	-0.791898	1
H	-2.251979	0.836488	-1.620958	1
H	-1.432499	-1.160372	0.565382	1
H	0.097831	0.936438	-0.853208	1
H	0.342041	-1.520891	1.572442	1
H	3.239581	0.424818	0.800191	1
Es	-1.915865	0.062695	-0.312665	99
Es	-2.278034	0.583077	-1.391646	99
Es	-2.971851	-0.290577	-0.822502	99
Es	0.699655	-1.302919	1.498677	99
Es	2.040400	1.663573	-0.833921	99
Es	-1.371664	-0.901242	0.343416	99
Es	-0.004516	0.134000	-0.129567	99
Es	1.705047	0.277253	0.366209	99
Es	1.171530	-0.712254	0.933499	99
Es	-2.333176	0.034705	-0.894533	99
Es	1.157778	-0.617574	1.194390	99
Es	-0.565474	-0.060776	-0.150539	99
Es	-0.034474	0.177115	-0.182239	99
Es	2.496961	1.619018	-0.616662	99
Es	2.289899	1.559203	-0.639321	99
Es	1.548590	-1.128813	1.643240	99
Es	2.268131	1.351132	-0.284901	99
Es	0.031670	0.621723	-0.579483	99
Es	-1.294932	-0.351484	-0.147350	99
Es	2.363650	1.123786	-0.359539	99
Es	2.939539	0.506669	0.609273	99
Es	2.343756	0.686238	0.214988	99
Es	0.441584	0.017079	0.144770	99
Es	1.098706	-0.132315	0.531868	99
Es	-1.751163	-0.360898	-0.761489	99
Es	1.233612	-1.039207	1.444318	99
39
Properties=species:S:1:pos:R:3:Z:I:1 energy=-338.80723394654325 field_type=dipole dipole="0.000000 0.000000 0.000000" charge=0
C	-2.333139	0.034678	-0.894498	6
C	-1.295219	-0.351502	-0.147428	6
N	-0.034569	0.177348	-0.182078	7
C	1.098801	-0.132422	0.532012	6
N	1.234031	-1.039352	1.444612	7
C	2.343841	0.686258	0.215002	6
O	2.289971	1.559488	-0.639568	8
H	-3.298689	-0.450982	-0.791898	1
H	-2.251979	0.836488	-1.620958	1
H	-1.432499	-1.160372	0.565382	1
H	0.097831	0.936438	-0.853208	1
H	0.342041	-1.520891	1.572442	1
H	3.239581	0.424818	0.800191	1
Es	2.039948	1.663663	-0.833512	99
Es	2.939424	0.506958	0.609596	99
Es	2.343757	0.686237	0.214987	99
Es	1.229074	-0.802165	0.994172	99
Es	0.699841	-1.303272	1.497645	99
Es	2.324324	1.225536	-0.243991	99
Es	1.098706	-0.132311	0.531872	99
Es	1.102150	-0.531136	1.130042	99
Es	-0.004049	0.132818	-0.130738	99
Es	-1.750431	-0.360622	-0.761201	99
Es	1.546652	-1.125229	1.647729	99
Es	-1.294935	-0.351478	-0.147343	99
Es	-0.564847	-0.061531	-0.151468	99
Es	-1.371799	-0.900760	0.343913	99
Es	-2.277903	0.582461	-1.392256	99
Es	0.440113	0.020106	0.148288	99
Es	1.704637	0.278055	0.366982	99
Es	-1.916811	0.063016	-0.312304	99
Es	2.497024	1.617411	-0.618471	99
Es	2.289847	1.559167	-0.639311	99
Es	2.308180	1.250179	-0.399845	99
Es	-2.333176	0.034701	-0.894536	99
Es	1.233616	-1.039203	1.444319	99
Es	-2.971465	-0.291074	-0.823235	99
Es	-0.034545	0.177290	-0.182079	99
Es	0.032027	0.620391	-0.580967	99
39
Properties=species:S:1:pos:R:3:Z:I:1 energy=-338.80723394654325 field_type=dipole dipole="0.000000 0.000000 0.000000" charge=0
C	-2.333139	0.034678	-0.894498	6
C	-1.295219	-0.351502	-0.147428	6
N	-0.034569	0.177348	-0.182078	7
C	1.098801	-0.132422	0.532012	6
N	1.234031	-1.039352	1.444612	7
C	2.343841	0.686258	0.215002	6
O	2.289971	1.559488	-0.639568	8
H	-3.298689	-0.450982	-0.791898	1
H	-2.251979	0.836488	-1.620958	1
H	-1.432499	-1.160372	0.565382	1
H	0.097831	0.936438	-0.853208	1
H	0.342041	-1.520891	1.572442	1
H	3.239581	0.424818	0.800191	1
Es	2.343756	0.686240	0.214990	99
Es	-1.914541	0.062798	-0.312084	99
Es	1.704627	0.278044	0.367015	99
Es	2.289905	1.559206	-0.639323	99
Es	1.098706	-0.132311	0.531872	99
Es	-2.333175	0.034700	-0.894537	99
Es	-2.971467	-0.290838	-0.822908	99
Es	2.318645	1.240916	-0.229817	99
Es	2.040026	1.664254	-0.833228	99
Es	-0.564957	-0.061365	-0.151306	99
Es	-2.278023	0.582678	-1.392114	99
Es	-0.034369	0.176871	-0.182429	99
Es	0.440564	0.019113	0.147183	99
Es	0.031843	0.620755	-0.580588	99
Es	2.939434	0.506935	0.609577	99
Es	-1.294934	-0.351479	-0.147344	99
Es	2.496796	1.616672	-0.618851	99
Es	2.313914	1.234986	-0.413831	99
Es	1.233613	-1.039215	1.444324	99
Es	1.103896	-0.536286	1.122323	99
Es	-0.004408	0.133679	-0.129898	99
Es	-1.752600	-0.360614	-0.761701	99
Es	0.700242	-1.303076	1.497346	99
Es	-1.371729	-0.900917	0.343801	99
Es	1.226731	-0.796023	1.002873	99
Es	1.546863	-1.126514	1.646944	99
39
Properties=species:S:1:pos:R:3:Z:I:1 energy=-338.80723394654325 field_type=dipole dipole="0.000000 0.000000 0.000000" charge=0
C	-2.333139	0.034678	-0.894498	6
C	-1.295219	-0.351502	-0.147428	6
N	-0.034569	0.177348	-0.182078	7
C	1.098801	-0.132422	0.532012	6
N	1.234031	-1.039352	1.444612	7
C	2.343841	0.686258	0.215002	6
O	2.289971	1.559488	-0.639568	8
H	-3.298689	-0.450982	-0.791898	1
H	-2.251979	0.836488	-1.620958	1
H	-1.432499	-1.160372	0.565382	1
H	0.097831	0.936438	-0.853208	1
H	0.342041	-1.520891	1.572442	1
H	3.239581	0.424818	0.800191	1
Es	-2.333175	0.034702	-0.894535	99
Es	1.233618	-1.039201	1.444316	99
Es	2.041217	1.664004	-0.834515	99
Es	0.700461	-1.302310	1.497908	99
Es	2.343756	0.686238	0.214988	99
Es	2.289848	1.559174	-0.639322	99
Es	-2.971405	-0.290463	-0.822726	99
Es	2.496084	1.618767	-0.615847	99
Es	-1.749964	-0.360959	-0.761182	99
Es	1.162000	-0.628260	1.185549	99
Es	2.270397	1.344668	-0.293691	99
Es	-1.917143	0.062897	-0.312734	99
Es	-1.294934	-0.351479	-0.147344	99
Es	1.098704	-0.132310	0.531872	99
Es	-0.004280	0.133344	-0.130221	99
Es	2.939526	0.506645	0.609299	99
Es	2.361433	1.130070	-0.350988	99
Es	-2.278262	0.582986	-1.391765	99
Es	-1.371545	-0.901220	0.343491	99
Es	0.441225	0.017145	0.145204	99
Es	-0.034444	0.177043	-0.182301	99
Es	1.547956	-1.129245	1.644272	99
Es	-0.565238	-0.060372	-0.150276	99
Es	1.167155	-0.701783	0.942097	99
Es	0.031361	0.621847	-0.579511	99
Es	1.705008	0.277280	0.366252	99
39
Properties=species:S:1:pos:R:3:Z:I:1 energy=-338.80723394654325 field_type=dipole dipole="0.000000 0.000000 0.000000" charge=0
C	-2.333139	0.034678	-0.894498	6
C	-1.295219	-0.351502	-0.147428	6
N	-0.034569	0.177348	-0.182078	7
C	1.098801	-0.132422	0.532012	6
N	1.234031	-1.039352	1.444612	7
C	2.343841	0.686258	0.215002	6
O	2.289971	1.559488	-0.639568	8
H	-3.298689	-0.450982	-0.791898	1
H	-2.251979	0.836488	-1.620958	1
H	-1.432499	-1.160372	0.565382	1
H	0.097831	0.936438	-0.853208	1
H	0.342041	-1.520891	1.572442	1
H	3.239581	0.424818	0.800191	1
Es	2.494030	1.616838	-0.616443	99
Es	-0.565272	-0.061215	-0.150885	99
Es	0.440787	0.018841	0.146725	99
Es	2.365816	1.121597	-0.362941	99
Es	-0.004077	0.132920	-0.130652	99
Es	0.031685	0.621097	-0.580226	99
Es	1.705067	0.277286	0.366253	99
Es	-2.333175	0.034702	-0.894536	99
Es	-2.971170	-0.290547	-0.822977	99
Es	1.547938	-1.128559	1.644637	99
Es	-0.034557	0.177314	-0.182059	99
Es	2.266954	1.354681	-0.280277	99
Es	1.098706	-0.132311	0.531872	99
Es	-1.918437	0.062805	-0.313101	99
Es	2.939472	0.506678	0.609359	99
Es	1.158801	-0.682029	0.959314	99
Es	-1.371538	-0.901088	0.343625	99
Es	-1.748834	-0.360683	-0.760510	99
Es	2.343756	0.686237	0.214986	99
Es	2.042372	1.664297	-0.835479	99
Es	2.289866	1.559196	-0.639328	99
Es	-2.278248	0.582759	-1.392018	99
Es	1.233616	-1.039204	1.444317	99
Es	-1.294934	-0.351479	-0.147344	99
Es	1.170248	-0.648558	1.167810	99
Es	0.700486	-1.302366	1.498166	99
39
Properties=species:S:1:pos:R:3:Z:I:1 energy=-338.80723394654325 field_type=dipole dipole="0.000000 0.000000 0.000000" charge=0
C	-2.333139	0.034678	-0.894498	6
C	-1.295219	-0.351502	-0.147428	6
N	-0.034569	0.177348	-0.182078	7
C	1.098801	-0.132422	0.532012	6
N	1.234031	-1.039352	1.444612	7
C	2.343841	0.686258	0.215002	6
O	2.289971	1.559488	-0.639568	8
H	-3.298689	-0.450982	-0.791898	1
H	-2.251979	0.836488	-1.620958	1
H	-1.432499	-1.160372	0.565382	1
H	0.097831	0.936438	-0.853208	1
H	0.342041	-1.520891	1.572442	1
H	3.239581	0.424818	0.800191	1
Es	2.939398	0.506929	0.609618	99
Es	-2.333176	0.034702	-0.894535	99
Es	1.704636	0.278002	0.366981	99
Es	2.289884	1.559200	-0.639330	99
Es	-1.371622	-0.900902	0.343826	99
Es	1.106732	-0.545654	1.109321	99
Es	2.041978	1.665955	-0.834166	99
Es	1.223697	-0.787130	1.015411	99
Es	1.098706	-0.132311	0.531872	99
Es	-0.004047	0.132620	-0.131281	99
Es	1.546715	-1.126116	1.647384	99
Es	0.700599	-1.303018	1.497389	99
Es	-1.294936	-0.351478	-0.147342	99
Es	-0.034121	0.176330	-0.182715	99
Es	2.493249	1.615272	-0.617413	99
Es	2.311152	1.242742	-0.406847	99
Es	2.323009	1.232891	-0.237268	99
Es	-1.751682	-0.360884	-0.761770	99
Es	2.343756	0.686240	0.214989	99
Es	-2.971102	-0.290748	-0.823127	99
Es	-0.565263	-0.060344	-0.150212	99
Es	1.233616	-1.039202	1.444316	99
Es	0.031633	0.620803	-0.580560	99
Es	-2.278246	0.582577	-1.392187	99
Es	0.440321	0.019576	0.147745	99
Es	-1.915528	0.063157	-0.311808	99
39
Properties=species:S:1:pos:R:3:Z:I:1 energy=-338.80723394654325 field_type=dipole dipole="0.000000 0.000000 0.000000" charge=0
C	-2.333139	0.034678	-0.894498	6
C	-1.295219	-0.351502	-0.147428	6
N	-0.034569	0.177348	-0.182078	7
C	1.098801	-0.132422	0.532012	6
N	1.234031	-1.039352	1.444612	7
C	2.343841	0.686258	0.215002	6
O	2.289971	1.559488	-0.639568	8
H	-3.298689	-0.450982	-0.791898	1
H	-2.251979	0.836488	-1.620958	1
H	-1.432499	-1.160372	0.565382	1
H	0.097831	0.936438	-0.853208	1
H	0.342041	-1.520891	1.572442	1
H	3.239581	0.424818	0.800191	1
Es	1.098705	-0.132310	0.531873	99
Es	2.343757	0.686237	0.214986	99
Es	1.161451	-0.626553	1.187359	99
Es	1.548683	-1.132330	1.641775	99
Es	0.442627	0.013897	0.141526	99
Es	0.701044	-1.302545	1.496739	99
Es	2.316551	1.228730	-0.420014	99
Es	1.233613	-1.039220	1.444332	99
Es	-1.294934	-0.351481	-0.147346	99
Es	2.290044	1.559224	-0.639287	99
Es	-0.004967	0.135288	-0.128168	99
Es	2.317990	1.243316	-0.227823	99
Es	1.704763	0.277728	0.366776	99
Es	-1.918588	0.062628	-0.313324	99
Es	1.166755	-0.701084	0.942963	99
Es	-2.278842	0.583841	-1.390810	99
Es	0.029928	0.625104	-0.575938	99
Es	-1.748387	-0.361136	-0.760992	99
Es	-2.971287	-0.289920	-0.822367	99
Es	-0.564522	-0.062465	-0.152264	99
Es	-0.034544	0.177289	-0.182079	99
Es	2.939596	0.506382	0.609057	99
Es	2.492463	1.614914	-0.616225	99
Es	2.041781	1.670975	-0.830508	99
Es	-2.333176	0.034704	-0.894534	99
Es	-1.371144	-0.902004	0.342580	99
39
Properties=species:S:1:pos:R:3:Z:I:1 energy=-338.80723394654325 field_type=dipole dipole="0.000000 0.000000 0.000000" charge=0
C	-2.333139	0.034678	-0.894498	6
C	-1.295219	-0.351502	-0.147428	6
N	-0.034569	0.177348	-0.182078	7
C	1.098801	-0.132422	0.532012	6
N	1.234031	-1.039352	1.444612	7
C	2.343841	0.686258	0.215002	6
O	2.289971	1.559488	-0.639568	8
H	-3.298689	-0.450982	-0.791898	1
H	-2.251979	0.836488	-1.620958	1
H	-1.432499	-1.160372	0.565382	1
H	0.097831	0.936438	-0.853208	1
H	0.342041	-1.520891	1.572442	1
H	3.239581	0.424818	0.800191	1
Es	1.233612	-1.039201	1.444312	99
Es	2.492858	1.615843	-0.615832	99
Es	-0.034523	0.177235	-0.182133	99
Es	2.939449	0.506685	0.609415	99
Es	-0.004069	0.132808	-0.130739	99
Es	1.547393	-1.128778	1.645548	99
Es	2.289879	1.559201	-0.639334	99
Es	-1.371526	-0.901050	0.343714	99
Es	0.031501	0.620853	-0.580543	99
Es	-2.333175	0.034701	-0.894537	99
Es	1.705073	0.277338	0.366306	99
Es	1.098705	-0.132312	0.531870	99
Es	2.364387	1.125148	-0.357954	99
Es	-1.917779	0.062886	-0.312832	99
Es	2.268372	1.350969	-0.285429	99
Es	1.155525	-0.673956	0.966602	99
Es	0.700992	-1.301777	1.497689	99
Es	-0.565125	-0.060384	-0.150372	99
Es	-1.749422	-0.360750	-0.760863	99
Es	0.440692	0.018453	0.146662	99
Es	1.173625	-0.657042	1.160054	99
Es	-2.278284	0.582788	-1.392022	99
Es	-1.294934	-0.351479	-0.147343	99
Es	2.343756	0.686238	0.214988	99
Es	-2.971111	-0.290606	-0.822990	99
Es	2.043486	1.665398	-0.835948	99
39
Properties=species:S:1:pos:R:3:Z:I:1 energy=-338.80723394654325 field_type=dipole dipole="0.000000 0.000000 0.000000" charge=0
C	-2.333139	0.034678	-0.894498	6
C	-1.295219	-0.351502	-0.147428	6
N	-0.034569	0.177348	-0.182078	7
C	1.098801	-0.132422	0.532012	6
N	1.234031	-1.039352	1.444612	7
C	2.343841	0.686258	0.215002	6
O	2.289971	1.559488	-0.639568	8
H	-3.298689	-0.450982	-0.791898	1
H	-2.251979	0.836488	-1.620958	1
H	-1.432499	-1.160372	0.565382	1
H	0.097831	0.936438	-0.853208	1
H	0.342041	-1.520891	1.572442	1
H	3.239581	0.424818	0.800191	1
Es	2.044361	1.666445	-0.836177	99
Es	2.491720	1.614930	-0.615455	99
Es	2.289997	1.559224	-0.639306	99
Es	-0.565025	-0.061033	-0.151066	99
Es	-1.748535	-0.360617	-0.760405	99
Es	1.174341	-0.658837	1.158410	99
Es	0.031779	0.620476	-0.580922	99
Es	2.269450	1.348346	-0.288996	99
Es	1.233614	-1.039201	1.444314	99
Es	2.343755	0.686240	0.214989	99
Es	2.939445	0.506684	0.609429	99
Es	-0.034653	0.177583	-0.181725	99
Es	-1.918777	0.062827	-0.313096	99
Es	-0.004326	0.133459	-0.130091	99
Es	-1.294935	-0.351480	-0.147344	99
Es	-1.371431	-0.901057	0.343673	99
Es	1.705096	0.277292	0.366320	99
Es	0.440682	0.018508	0.146665	99
Es	-2.278415	0.582687	-1.392100	99
Es	2.363471	1.127583	-0.354590	99
Es	1.098706	-0.132312	0.531871	99
Es	-2.970914	-0.290560	-0.823090	99
Es	1.154344	-0.672087	0.968406	99
Es	1.547667	-1.128539	1.645318	99
Es	0.701113	-1.302054	1.497794	99
Es	-2.333175	0.034701	-0.894536	99
39
Properties=species:S:1:pos:R:3:Z:I:1 energy=-338.80723394654325 field_type=dipole dipole="0.000000 0.000000 0.000000" charge=0
C	-2.333139	0.034678	-0.894498	6
C	-1.295219	-0.351502	-0.147428	6
N	-0.034569	0.177348	-0.182078	7
C	1.098801	-0.132422	0.532012	6
N	1.234031	-1.039352	1.444612	7
C	2.343841	0.686258	0.215002	6
O	2.289971	1.559488	-0.639568	8
H	-3.298689	-0.450982	-0.791898	1
H	-2.251979	0.836488	-1.620958	1
H	-1.432499	-1.160372	0.565382	1
H	0.097831	0.936438	-0.853208	1
H	0.342041	-1.520891	1.572442	1
H	3.239581	0.424818	0.800191	1
Es	0.030577	0.623127	-0.578162	99
Es	1.170500	-0.709792	0.935516	99
Es	1.704888	0.277324	0.366322	99
Es	-2.278605	0.583444	-1.391360	99
Es	2.347966	1.172082	-0.299816	99
Es	-0.034771	0.178138	-0.180376	99
Es	2.043308	1.668904	-0.833649	99
Es	-1.749344	-0.360916	-0.761043	99
Es	2.289900	1.559206	-0.639325	99
Es	2.939532	0.506469	0.609218	99
Es	-1.371367	-0.901578	0.343180	99
Es	1.233618	-1.039205	1.444317	99
Es	0.700740	-1.301953	1.497417	99
Es	2.343757	0.686237	0.214987	99
Es	1.548059	-1.130892	1.643419	99
Es	-0.564507	-0.061697	-0.151827	99
Es	1.098708	-0.132314	0.531870	99
Es	-0.004641	0.134021	-0.130245	99
Es	-1.917597	0.062635	-0.313219	99
Es	-2.971244	-0.290253	-0.822468	99
Es	0.441849	0.015504	0.143509	99
Es	2.490104	1.613695	-0.616233	99
Es	2.287596	1.303109	-0.344998	99
Es	-2.333177	0.034706	-0.894531	99
Es	-1.294934	-0.351480	-0.147345	99
Es	1.158443	-0.619313	1.193131	99
