42
Properties=species:S:1:pos:R:3:Z:I:1 energy=-339.90055098998045 field_type=dipole dipole="0.000000 0.000000 0.000000" charge=0
C	-1.343921	-0.128187	-0.406601	6
C	0.146629	-0.279457	-0.254711	6
N	0.799659	-1.402657	-0.195321	7
N	0.048639	-2.526987	-0.238361	7
C	0.954599	0.960193	-0.195671	6
C	0.577429	2.120933	0.692409	6
O	1.592578	1.192153	1.076159	8
H	-1.612251	0.907963	-0.628561	1
H	-1.834731	-0.430117	0.522909	1
H	-1.705171	-0.755387	-1.226471	1
H	0.666379	-3.330257	-0.384771	1
H	-0.375801	-2.701837	0.676589	1
H	1.543348	1.167183	-1.081061	1
H	-0.352241	2.093183	1.245719	1
H	0.894859	3.113282	0.397749	1
Es	0.146609	-0.279401	-0.254677	99
Es	0.511092	-0.907436	-0.508386	99
Es	1.218638	1.606835	1.022262	99
Es	0.540317	0.349799	-0.223352	99
Es	-1.577183	-0.546541	-0.950779	99
Es	0.049115	-2.526956	-0.237913	99
Es	0.577639	2.120710	0.692455	99
Es	0.411551	-1.964980	-0.198482	99
Es	0.586256	1.605583	0.084528	99
Es	1.176425	-1.432788	-0.187704	99
Es	-0.195149	-2.492281	-0.492175	99
Es	0.481272	-0.916783	0.072924	99
Es	0.796037	2.798043	0.497755	99
Es	0.799024	-1.402640	-0.195350	99
Es	-0.599300	-0.202897	-0.325896	99
Es	-1.517453	0.576693	-0.552996	99
Es	1.352491	1.094822	-0.793598	99
Es	1.871271	1.320027	1.036381	99
Es	0.430755	-3.005462	-0.311065	99
Es	1.416072	1.021834	0.573114	99
Es	-0.193913	-2.610311	0.317423	99
Es	-1.662628	-0.332349	0.220701	99
Es	-1.343857	-0.128185	-0.406578	99
Es	-0.054611	2.100183	1.073289	99
Es	1.466059	0.996725	1.275504	99
Es	0.954700	0.960240	-0.195384	99
Es	1.592118	1.192150	1.075975	99
42
Properties=species:S:1:pos:R:3:Z:I:1 energy=-339.90055098998045 field_type=dipole dipole="0.000000 0.000000 0.000000" charge=0
C	-1.343921	-0.128187	-0.406601	6
C	0.146629	-0.279457	-0.254711	6
N	0.799659	-1.402657	-0.195321	7
N	0.048639	-2.526987	-0.238361	7
C	0.954599	0.960193	-0.195671	6
C	0.577429	2.120933	0.692409	6
O	1.592578	1.192153	1.076159	8
H	-1.612251	0.907963	-0.628561	1
H	-1.834731	-0.430117	0.522909	1
H	-1.705171	-0.755387	-1.226471	1
H	0.666379	-3.330257	-0.384771	1
H	-0.375801	-2.701837	0.676589	1
H	1.543348	1.167183	-1.081061	1
H	-0.352241	2.093183	1.245719	1
H	0.894859	3.113282	0.397749	1
Es	-0.195112	-2.491305	-0.485722	99
Es	-1.343858	-0.128187	-0.406578	99
Es	0.582722	1.608764	0.084573	99
Es	1.478850	0.994864	1.281170	99
Es	1.853140	1.315770	1.028903	99
Es	-1.519190	0.580741	-0.552343	99
Es	0.541979	0.349081	-0.222914	99
Es	0.954703	0.960242	-0.195380	99
Es	-1.659353	-0.332907	0.217556	99
Es	0.510219	-0.907669	-0.510585	99
Es	-0.191435	-2.608042	0.314495	99
Es	-1.576647	-0.548058	-0.949331	99
Es	1.217638	1.616371	1.023178	99
Es	1.422078	1.016746	0.572059	99
Es	0.799006	-1.402641	-0.195349	99
Es	0.431725	-3.010421	-0.313949	99
Es	-0.600204	-0.203715	-0.324503	99
Es	0.577642	2.120709	0.692472	99
Es	0.413009	-1.966290	-0.200331	99
Es	0.795762	2.799129	0.497691	99
Es	1.592331	1.192289	1.075894	99
Es	-0.053109	2.099945	1.073120	99
Es	1.352227	1.093147	-0.791058	99
Es	0.480963	-0.916676	0.077274	99
Es	0.049099	-2.526954	-0.237929	99
Es	1.172556	-1.430906	-0.189763	99
Es	0.146605	-0.279395	-0.254678	99
42
Properties=species:S:1:pos:R:3:Z:I:1 energy=-339.90055098998045 field_type=dipole dipole="0.000000 0.000000 0.000000" charge=0
C	-1.343921	-0.128187	-0.406601	6
C	0.146629	-0.279457	-0.254711	6
N	0.799659	-1.402657	-0.195321	7
N	0.048639	-2.526987	-0.238361	7
C	0.954599	0.960193	-0.195671	6
C	0.577429	2.120933	0.692409	6
O	1.592578	1.192153	1.076159	8
H	-1.612251	0.907963	-0.628561	1
H	-1.834731	-0.430117	0.522909	1
H	-1.705171	-0.755387	-1.226471	1
H	0.666379	-3.330257	-0.384771	1
H	-0.375801	-2.701837	0.676589	1
H	1.543348	1.167183	-1.081061	1
H	-0.352241	2.093183	1.245719	1
H	0.894859	3.113282	0.397749	1
Es	1.491156	0.993534	1.286954	99
Es	-1.576226	-0.548975	-0.948519	99
Es	1.218376	1.620791	1.023176	99
Es	0.580948	1.611119	0.084201	99
Es	0.542918	0.348535	-0.222454	99
Es	0.799020	-1.402649	-0.195346	99
Es	0.480609	-0.916806	0.079091	99
Es	0.431460	-3.013331	-0.316179	99
Es	0.146605	-0.279395	-0.254668	99
Es	-0.600816	-0.204163	-0.323154	99
Es	1.351835	1.092006	-0.789054	99
Es	0.577636	2.120717	0.692458	99
Es	0.509512	-0.907925	-0.511580	99
Es	1.835735	1.314122	1.022553	99
Es	-1.520411	0.582714	-0.551498	99
Es	0.795439	2.799920	0.498068	99
Es	-1.657355	-0.332856	0.214796	99
Es	1.170184	-1.429308	-0.190823	99
Es	0.954698	0.960248	-0.195374	99
Es	-0.052173	2.099513	1.072688	99
Es	-0.187466	-2.606590	0.312339	99
Es	1.426406	1.014204	0.571222	99
Es	-1.343859	-0.128186	-0.406577	99
Es	-0.196669	-2.490924	-0.480636	99
Es	1.592316	1.192283	1.075896	99
Es	0.049108	-2.526963	-0.237913	99
Es	0.414358	-1.966999	-0.201691	99
42
Properties=species:S:1:pos:R:3:Z:I:1 energy=-339.90055098998045 field_type=dipole dipole="0.000000 0.000000 0.000000" charge=0
C	-1.343921	-0.128187	-0.406601	6
C	0.146629	-0.279457	-0.254711	6
N	0.799659	-1.402657	-0.195321	7
N	0.048639	-2.526987	-0.238361	7
C	0.954599	0.960193	-0.195671	6
C	0.577429	2.120933	0.692409	6
O	1.592578	1.192153	1.076159	8
H	-1.612251	0.907963	-0.628561	1
H	-1.834731	-0.430117	0.522909	1
H	-1.705171	-0.755387	-1.226471	1
H	0.666379	-3.330257	-0.384771	1
H	-0.375801	-2.701837	0.676589	1
H	1.543348	1.167183	-1.081061	1
H	-0.352241	2.093183	1.245719	1
H	0.894859	3.113282	0.397749	1
Es	1.351494	1.091340	-0.787546	99
Es	-0.051546	2.099024	1.072299	99
Es	1.428563	1.012054	0.570914	99
Es	0.798988	-1.402631	-0.195350	99
Es	1.219430	1.623714	1.023977	99
Es	-1.343857	-0.128187	-0.406578	99
Es	0.480467	-0.916910	0.080069	99
Es	0.543660	0.348146	-0.222392	99
Es	0.415659	-1.967858	-0.202397	99
Es	-1.521586	0.583770	-0.550626	99
Es	0.577637	2.120716	0.692459	99
Es	0.579997	1.612573	0.083960	99
Es	1.819395	1.312892	1.016203	99
Es	0.146604	-0.279394	-0.254664	99
Es	-1.576164	-0.549581	-0.947790	99
Es	0.431546	-3.014900	-0.316311	99
Es	-1.655805	-0.332557	0.212351	99
Es	0.795018	2.800557	0.498368	99
Es	1.168532	-1.427709	-0.192033	99
Es	1.592302	1.192246	1.075950	99
Es	1.504204	0.993380	1.291770	99
Es	-0.196279	-2.490982	-0.478256	99
Es	0.508437	-0.908276	-0.511465	99
Es	-0.186272	-2.605607	0.310449	99
Es	-0.600891	-0.204470	-0.322099	99
Es	0.049113	-2.526963	-0.237910	99
Es	0.954702	0.960245	-0.195377	99
42
Properties=species:S:1:pos:R:3:Z:I:1 energy=-339.90055098998045 field_type=dipole dipole="0.000000 0.000000 0.000000" charge=0
C	-1.343921	-0.128187	-0.406601	6
C	0.146629	-0.279457	-0.254711	6
N	0.799659	-1.402657	-0.195321	7
N	0.048639	-2.526987	-0.238361	7
C	0.954599	0.960193	-0.195671	6
C	0.577429	2.120933	0.692409	6
O	1.592578	1.192153	1.076159	8
H	-1.612251	0.907963	-0.628561	1
H	-1.834731	-0.430117	0.522909	1
H	-1.705171	-0.755387	-1.226471	1
H	0.666379	-3.330257	-0.384771	1
H	-0.375801	-2.701837	0.676589	1
H	1.543348	1.167183	-1.081061	1
H	-0.352241	2.093183	1.245719	1
H	0.894859	3.113282	0.397749	1
Es	1.430734	1.010941	0.570767	99
Es	-0.600801	-0.204783	-0.321154	99
Es	1.804494	1.311970	1.011520	99
Es	-1.522598	0.584424	-0.549707	99
Es	-0.195851	-2.491157	-0.475927	99
Es	0.480089	-0.917085	0.080479	99
Es	0.798989	-1.402621	-0.195351	99
Es	-1.343857	-0.128187	-0.406577	99
Es	0.794628	2.801106	0.498550	99
Es	0.544297	0.347568	-0.222466	99
Es	0.146604	-0.279394	-0.254664	99
Es	0.049120	-2.526965	-0.237908	99
Es	0.507805	-0.908527	-0.511426	99
Es	0.954703	0.960242	-0.195378	99
Es	0.577625	2.120711	0.692459	99
Es	0.579409	1.613518	0.084032	99
Es	0.431414	-3.016041	-0.316652	99
Es	1.592277	1.192247	1.075920	99
Es	1.351171	1.091086	-0.786267	99
Es	0.416508	-1.968019	-0.203390	99
Es	1.167471	-1.426629	-0.192571	99
Es	-0.185243	-2.604974	0.308955	99
Es	-0.050995	2.098612	1.072046	99
Es	-1.654573	-0.332229	0.210164	99
Es	1.516638	0.993534	1.295848	99
Es	-1.576344	-0.549862	-0.947126	99
Es	1.219634	1.625152	1.023798	99
42
Properties=species:S:1:pos:R:3:Z:I:1 energy=-339.90055098998045 field_type=dipole dipole="0.000000 0.000000 0.000000" charge=0
C	-1.343921	-0.128187	-0.406601	6
C	0.146629	-0.279457	-0.254711	6
N	0.799659	-1.402657	-0.195321	7
N	0.048639	-2.526987	-0.238361	7
C	0.954599	0.960193	-0.195671	6
C	0.577429	2.120933	0.692409	6
O	1.592578	1.192153	1.076159	8
H	-1.612251	0.907963	-0.628561	1
H	-1.834731	-0.430117	0.522909	1
H	-1.705171	-0.755387	-1.226471	1
H	0.666379	-3.330257	-0.384771	1
H	-0.375801	-2.701837	0.676589	1
H	1.543348	1.167183	-1.081061	1
H	-0.352241	2.093183	1.245719	1
H	0.894859	3.113282	0.397749	1
Es	0.431066	-3.016993	-0.316984	99
Es	0.479879	-0.917183	0.080446	99
Es	1.350997	1.090782	-0.785207	99
Es	0.798994	-1.402630	-0.195349	99
Es	1.167101	-1.425911	-0.193145	99
Es	1.433233	1.010806	0.570060	99
Es	0.146604	-0.279394	-0.254665	99
Es	-1.653715	-0.332112	0.208494	99
Es	0.794332	2.801535	0.498833	99
Es	-1.576290	-0.549940	-0.946720	99
Es	-1.523364	0.584882	-0.548877	99
Es	1.592284	1.192205	1.075980	99
Es	0.954698	0.960247	-0.195378	99
Es	-0.600712	-0.205189	-0.320394	99
Es	0.507053	-0.908835	-0.511155	99
Es	0.544726	0.347357	-0.222487	99
Es	0.579261	1.614516	0.084052	99
Es	-0.184562	-2.604567	0.307601	99
Es	1.218620	1.625098	1.024150	99
Es	0.577636	2.120718	0.692461	99
Es	-1.343858	-0.128186	-0.406579	99
Es	0.049112	-2.526952	-0.237927	99
Es	-0.195275	-2.491232	-0.474005	99
Es	-0.050772	2.098186	1.071755	99
Es	1.789703	1.311416	1.007869	99
Es	1.529692	0.993907	1.298917	99
Es	0.416904	-1.967897	-0.203770	99
42
Properties=species:S:1:pos:R:3:Z:I:1 energy=-339.90055098998045 field_type=dipole dipole="0.000000 0.000000 0.000000" charge=0
C	-1.343921	-0.128187	-0.406601	6
C	0.146629	-0.279457	-0.254711	6
N	0.799659	-1.402657	-0.195321	7
N	0.048639	-2.526987	-0.238361	7
C	0.954599	0.960193	-0.195671	6
C	0.577429	2.120933	0.692409	6
O	1.592578	1.192153	1.076159	8
H	-1.612251	0.907963	-0.628561	1
H	-1.834731	-0.430117	0.522909	1
H	-1.705171	-0.755387	-1.226471	1
H	0.666379	-3.330257	-0.384771	1
H	-0.375801	-2.701837	0.676589	1
H	1.543348	1.167183	-1.081061	1
H	-0.352241	2.093183	1.245719	1
H	0.894859	3.113282	0.397749	1
Es	-1.523986	0.585215	-0.548435	99
Es	0.794133	2.801773	0.498844	99
Es	0.577635	2.120726	0.692459	99
Es	0.418891	-1.968909	-0.204652	99
Es	-1.652841	-0.331737	0.207137	99
Es	-0.183303	-2.604309	0.306889	99
Es	1.350714	1.090491	-0.784578	99
Es	0.479432	-0.917268	0.080584	99
Es	1.219459	1.625675	1.023857	99
Es	-1.576460	-0.550170	-0.946093	99
Es	1.530953	0.993909	1.298622	99
Es	0.049093	-2.526967	-0.237911	99
Es	-1.343857	-0.128186	-0.406578	99
Es	0.798992	-1.402641	-0.195350	99
Es	0.578802	1.615396	0.084281	99
Es	-0.600782	-0.205303	-0.319918	99
Es	0.506797	-0.909048	-0.511141	99
Es	1.164947	-1.424207	-0.193325	99
Es	-0.195399	-2.491485	-0.472418	99
Es	0.430990	-3.017413	-0.317393	99
Es	1.785540	1.310099	1.008330	99
Es	1.592382	1.192230	1.075986	99
Es	0.545136	0.346960	-0.222212	99
Es	-0.050527	2.098014	1.071563	99
Es	1.435298	1.010944	0.569458	99
Es	0.954703	0.960241	-0.195380	99
Es	0.146603	-0.279393	-0.254652	99
42
Properties=species:S:1:pos:R:3:Z:I:1 energy=-339.90055098998045 field_type=dipole dipole="0.000000 0.000000 0.000000" charge=0
C	-1.343921	-0.128187	-0.406601	6
C	0.146629	-0.279457	-0.254711	6
N	0.799659	-1.402657	-0.195321	7
N	0.048639	-2.526987	-0.238361	7
C	0.954599	0.960193	-0.195671	6
C	0.577429	2.120933	0.692409	6
O	1.592578	1.192153	1.076159	8
H	-1.612251	0.907963	-0.628561	1
H	-1.834731	-0.430117	0.522909	1
H	-1.705171	-0.755387	-1.226471	1
H	0.666379	-3.330257	-0.384771	1
H	-0.375801	-2.701837	0.676589	1
H	1.543348	1.167183	-1.081061	1
H	-0.352241	2.093183	1.245719	1
H	0.894859	3.113282	0.397749	1
Es	0.479444	-0.917385	0.080714	99
Es	-0.600649	-0.205464	-0.319365	99
Es	-1.524576	0.585399	-0.547721	99
Es	0.577641	2.120721	0.692465	99
Es	1.164643	-1.423753	-0.193904	99
Es	0.506190	-0.909195	-0.510745	99
Es	0.418921	-1.968421	-0.205361	99
Es	1.219242	1.626027	1.023332	99
Es	0.578727	1.615900	0.084308	99
Es	-1.652393	-0.331654	0.205763	99
Es	0.146604	-0.279393	-0.254661	99
Es	-0.194302	-2.491860	-0.470748	99
Es	-0.050475	2.097875	1.071485	99
Es	0.049067	-2.526979	-0.237894	99
Es	0.798985	-1.402624	-0.195350	99
Es	0.545608	0.346534	-0.222252	99
Es	-1.343859	-0.128188	-0.406575	99
Es	1.350578	1.090359	-0.783808	99
Es	1.436546	1.010402	0.569409	99
Es	-1.576404	-0.550041	-0.945883	99
Es	1.776299	1.308774	1.006656	99
Es	1.592447	1.192423	1.075770	99
Es	0.430759	-3.017963	-0.317562	99
Es	0.954700	0.960245	-0.195377	99
Es	-0.183241	-2.604148	0.305924	99
Es	1.538769	0.995100	1.300431	99
Es	0.794075	2.801945	0.498924	99
42
Properties=species:S:1:pos:R:3:Z:I:1 energy=-339.90055098998045 field_type=dipole dipole="0.000000 0.000000 0.000000" charge=0
C	-1.343921	-0.128187	-0.406601	6
C	0.146629	-0.279457	-0.254711	6
N	0.799659	-1.402657	-0.195321	7
N	0.048639	-2.526987	-0.238361	7
C	0.954599	0.960193	-0.195671	6
C	0.577429	2.120933	0.692409	6
O	1.592578	1.192153	1.076159	8
H	-1.612251	0.907963	-0.628561	1
H	-1.834731	-0.430117	0.522909	1
H	-1.705171	-0.755387	-1.226471	1
H	0.666379	-3.330257	-0.384771	1
H	-0.375801	-2.701837	0.676589	1
H	1.543348	1.167183	-1.081061	1
H	-0.352241	2.093183	1.245719	1
H	0.894859	3.113282	0.397749	1
Es	0.146603	-0.279394	-0.254662	99
Es	0.578679	1.616407	0.084575	99
Es	1.767638	1.307445	1.005016	99
Es	1.592408	1.192247	1.076013	99
Es	1.546362	0.996264	1.301349	99
Es	1.437339	1.010302	0.569236	99
Es	0.793824	2.802247	0.499028	99
Es	0.577637	2.120717	0.692465	99
Es	-1.651866	-0.331398	0.204666	99
Es	0.798993	-1.402642	-0.195348	99
Es	-1.576498	-0.550122	-0.945538	99
Es	0.505833	-0.909351	-0.510538	99
Es	1.350502	1.090325	-0.783223	99
Es	0.430662	-3.018326	-0.317471	99
Es	0.545995	0.346118	-0.222395	99
Es	-0.050288	2.097591	1.071288	99
Es	-0.184053	-2.604151	0.305106	99
Es	1.219377	1.626188	1.023436	99
Es	0.954706	0.960246	-0.195376	99
Es	-1.525047	0.585548	-0.547277	99
Es	1.164094	-1.423281	-0.194303	99
Es	0.479453	-0.917386	0.080676	99
Es	0.419202	-1.968283	-0.205592	99
Es	0.049112	-2.526967	-0.237905	99
Es	-0.192802	-2.491995	-0.469896	99
Es	-1.343857	-0.128186	-0.406577	99
Es	-0.600660	-0.205530	-0.318780	99
42
Properties=species:S:1:pos:R:3:Z:I:1 energy=-339.90055098998045 field_type=dipole dipole="0.000000 0.000000 0.000000" charge=0
C	-1.343921	-0.128187	-0.406601	6
C	0.146629	-0.279457	-0.254711	6
N	0.799659	-1.402657	-0.195321	7
N	0.048639	-2.526987	-0.238361	7
C	0.954599	0.960193	-0.195671	6
C	0.577429	2.120933	0.692409	6
O	1.592578	1.192153	1.076159	8
H	-1.612251	0.907963	-0.628561	1
H	-1.834731	-0.430117	0.522909	1
H	-1.705171	-0.755387	-1.226471	1
H	0.666379	-3.330257	-0.384771	1
H	-0.375801	-2.701837	0.676589	1
H	1.543348	1.167183	-1.081061	1
H	-0.352241	2.093183	1.245719	1
H	0.894859	3.113282	0.397749	1
Es	-1.343856	-0.128187	-0.406578	99
Es	0.577633	2.120717	0.692459	99
Es	0.430427	-3.018629	-0.317919	99
Es	0.146602	-0.279393	-0.254656	99
Es	-1.525446	0.585663	-0.546870	99
Es	0.793725	2.802377	0.499124	99
Es	0.419528	-1.968020	-0.206729	99
Es	1.761436	1.306066	1.004203	99
Es	1.163609	-1.422675	-0.194555	99
Es	0.479243	-0.917486	0.080553	99
Es	1.219629	1.626359	1.022825	99
Es	1.438107	1.009187	0.569329	99
Es	0.799026	-1.402603	-0.195351	99
Es	-0.600462	-0.205873	-0.318457	99
Es	-1.651406	-0.331164	0.203699	99
Es	0.049094	-2.526970	-0.237895	99
Es	1.551291	0.998154	1.302443	99
Es	-0.050310	2.097429	1.071111	99
Es	-0.192170	-2.492498	-0.468128	99
Es	0.954702	0.960249	-0.195375	99
Es	1.350439	1.090078	-0.782893	99
Es	0.546220	0.346045	-0.222181	99
Es	1.592545	1.192467	1.075784	99
Es	-1.576682	-0.550099	-0.945164	99
Es	0.578635	1.616970	0.084626	99
Es	0.505419	-0.909536	-0.510284	99
Es	-0.183633	-2.603992	0.304852	99
42
Properties=species:S:1:pos:R:3:Z:I:1 energy=-339.90055098998045 field_type=dipole dipole="0.000000 0.000000 0.000000" charge=0
C	-1.343921	-0.128187	-0.406601	6
C	0.146629	-0.279457	-0.254711	6
N	0.799659	-1.402657	-0.195321	7
N	0.048639	-2.526987	-0.238361	7
C	0.954599	0.960193	-0.195671	6
C	0.577429	2.120933	0.692409	6
O	1.592578	1.192153	1.076159	8
H	-1.612251	0.907963	-0.628561	1
H	-1.834731	-0.430117	0.522909	1
H	-1.705171	-0.755387	-1.226471	1
H	0.666379	-3.330257	-0.384771	1
H	-0.375801	-2.701837	0.676589	1
H	1.543348	1.167183	-1.081061	1
H	-0.352241	2.093183	1.245719	1
H	0.894859	3.113282	0.397749	1
Es	0.049083	-2.526968	-0.237921	99
Es	-1.525845	0.585724	-0.546507	99
Es	-1.343858	-0.128188	-0.406575	99
Es	-0.050271	2.097332	1.071109	99
Es	0.577637	2.120720	0.692461	99
Es	0.798988	-1.402646	-0.195347	99
Es	1.219723	1.626365	1.023278	99
Es	-1.576632	-0.549983	-0.944945	99
Es	-0.183418	-2.603950	0.304196	99
Es	0.546414	0.345897	-0.222292	99
Es	0.479145	-0.917518	0.080712	99
Es	0.419778	-1.967757	-0.207609	99
Es	0.146602	-0.279394	-0.254657	99
Es	1.437814	1.009348	0.569138	99
Es	0.793662	2.802495	0.499069	99
Es	0.954707	0.960250	-0.195375	99
Es	0.430383	-3.018852	-0.317964	99
Es	-0.191465	-2.492976	-0.466783	99
Es	1.756371	1.305062	1.003213	99
Es	1.592524	1.192497	1.075722	99
Es	1.162975	-1.422070	-0.194971	99
Es	-1.651097	-0.331172	0.203090	99
Es	-0.600401	-0.205974	-0.318281	99
Es	1.350327	1.090057	-0.782520	99
Es	0.505136	-0.909680	-0.509917	99
Es	0.578586	1.617332	0.084982	99
Es	1.556479	0.998682	1.302670	99
42
Properties=species:S:1:pos:R:3:Z:I:1 energy=-339.90055098998045 field_type=dipole dipole="0.000000 0.000000 0.000000" charge=0
C	-1.343921	-0.128187	-0.406601	6
C	0.146629	-0.279457	-0.254711	6
N	0.799659	-1.402657	-0.195321	7
N	0.048639	-2.526987	-0.238361	7
C	0.954599	0.960193	-0.195671	6
C	0.577429	2.120933	0.692409	6
O	1.592578	1.192153	1.076159	8
H	-1.612251	0.907963	-0.628561	1
H	-1.834731	-0.430117	0.522909	1
H	-1.705171	-0.755387	-1.226471	1
H	0.666379	-3.330257	-0.384771	1
H	-0.375801	-2.701837	0.676589	1
H	1.543348	1.167183	-1.081061	1
H	-0.352241	2.093183	1.245719	1
H	0.894859	3.113282	0.397749	1
Es	1.439258	1.009428	0.568710	99
Es	-1.343856	-0.128186	-0.406578	99
Es	-1.650647	-0.330899	0.202211	99
Es	0.504966	-0.909805	-0.509901	99
Es	0.430210	-3.019108	-0.318009	99
Es	0.578567	1.617776	0.085013	99
Es	-1.576808	-0.550034	-0.944568	99
Es	0.049111	-2.526961	-0.237919	99
Es	1.162826	-1.421882	-0.195144	99
Es	1.559963	0.999544	1.303252	99
Es	0.577642	2.120721	0.692463	99
Es	0.954701	0.960246	-0.195376	99
Es	0.793497	2.802690	0.499207	99
Es	-1.526176	0.585825	-0.546179	99
Es	0.546681	0.345546	-0.222217	99
Es	1.219886	1.626383	1.022847	99
Es	-0.184189	-2.603861	0.303984	99
Es	1.751173	1.304001	1.003065	99
Es	0.419911	-1.967762	-0.207763	99
Es	-0.600370	-0.206154	-0.317945	99
Es	1.592476	1.192456	1.075745	99
Es	0.146603	-0.279393	-0.254659	99
Es	0.479073	-0.917499	0.080515	99
Es	0.799030	-1.402666	-0.195349	99
Es	-0.050123	2.097151	1.070926	99
Es	1.350252	1.089968	-0.782028	99
Es	-0.190310	-2.492892	-0.466330	99
42
Properties=species:S:1:pos:R:3:Z:I:1 energy=-339.90055098998045 field_type=dipole dipole="0.000000 0.000000 0.000000" charge=0
C	-1.343921	-0.128187	-0.406601	6
C	0.146629	-0.279457	-0.254711	6
N	0.799659	-1.402657	-0.195321	7
N	0.048639	-2.526987	-0.238361	7
C	0.954599	0.960193	-0.195671	6
C	0.577429	2.120933	0.692409	6
O	1.592578	1.192153	1.076159	8
H	-1.612251	0.907963	-0.628561	1
H	-1.834731	-0.430117	0.522909	1
H	-1.705171	-0.755387	-1.226471	1
H	0.666379	-3.330257	-0.384771	1
H	-0.375801	-2.701837	0.676589	1
H	1.543348	1.167183	-1.081061	1
H	-0.352241	2.093183	1.245719	1
H	0.894859	3.113282	0.397749	1
Es	1.161764	-1.421186	-0.195146	99
Es	-0.191080	-2.493405	-0.464994	99
Es	1.559489	0.999360	1.302679	99
Es	0.793410	2.802746	0.499243	99
Es	0.954702	0.960246	-0.195375	99
Es	1.592068	1.192122	1.075986	99
Es	0.478941	-0.917589	0.080503	99
Es	1.440677	1.009840	0.568058	99
Es	0.146603	-0.279394	-0.254652	99
Es	0.049106	-2.526960	-0.237920	99
Es	1.219801	1.626424	1.023075	99
Es	-0.600307	-0.206045	-0.317961	99
Es	0.430155	-3.019222	-0.318216	99
Es	1.350060	1.090044	-0.781725	99
Es	0.504750	-0.909883	-0.509756	99
Es	0.547023	0.345179	-0.222366	99
Es	0.578551	1.617883	0.085152	99
Es	-0.182600	-2.603732	0.303559	99
Es	0.577636	2.120720	0.692461	99
Es	-0.050122	2.097061	1.070876	99
Es	-1.526665	0.585845	-0.545740	99
Es	-1.650222	-0.330856	0.201552	99
Es	-1.576849	-0.549921	-0.944283	99
Es	-1.343850	-0.128186	-0.406574	99
Es	1.750672	1.304029	1.003529	99
Es	0.798996	-1.402648	-0.195348	99
Es	0.420637	-1.967836	-0.208640	99
42
Properties=species:S:1:pos:R:3:Z:I:1 energy=-339.90055098998045 field_type=dipole dipole="0.000000 0.000000 0.000000" charge=0
C	-1.343921	-0.128187	-0.406601	6
C	0.146629	-0.279457	-0.254711	6
N	0.799659	-1.402657	-0.195321	7
N	0.048639	-2.526987	-0.238361	7
C	0.954599	0.960193	-0.195671	6
C	0.577429	2.120933	0.692409	6
O	1.592578	1.192153	1.076159	8
H	-1.612251	0.907963	-0.628561	1
H	-1.834731	-0.430117	0.522909	1
H	-1.705171	-0.755387	-1.226471	1
H	0.666379	-3.330257	-0.384771	1
H	-0.375801	-2.701837	0.676589	1
H	1.543348	1.167183	-1.081061	1
H	-0.352241	2.093183	1.245719	1
H	0.894859	3.113282	0.397749	1
Es	1.161450	-1.421054	-0.195368	99
Es	0.547210	0.345010	-0.222228	99
Es	1.442191	1.009652	0.568039	99
Es	-0.182523	-2.603620	0.303185	99
Es	1.559564	0.999785	1.302729	99
Es	0.430132	-3.019376	-0.318125	99
Es	0.420904	-1.967883	-0.208709	99
Es	0.478900	-0.917635	0.080631	99
Es	-1.650130	-0.330706	0.200765	99
Es	0.577637	2.120722	0.692460	99
Es	0.504538	-0.909957	-0.509694	99
Es	0.798982	-1.402613	-0.195350	99
Es	0.049059	-2.526981	-0.237898	99
Es	-1.343859	-0.128187	-0.406581	99
Es	0.146602	-0.279394	-0.254656	99
Es	0.578370	1.618402	0.085417	99
Es	1.219729	1.626167	1.022117	99
Es	0.793140	2.802991	0.499475	99
Es	-0.049815	2.096838	1.070675	99
Es	-1.526803	0.585911	-0.545449	99
Es	-1.576694	-0.549960	-0.944340	99
Es	1.748852	1.303561	1.003913	99
Es	-0.600379	-0.206077	-0.317331	99
Es	0.954688	0.960251	-0.195388	99
Es	1.592326	1.192212	1.075988	99
Es	-0.190779	-2.493371	-0.464767	99
Es	1.350053	1.089947	-0.781535	99
42
Properties=species:S:1:pos:R:3:Z:I:1 energy=-339.90055098998045 field_type=dipole dipole="0.000000 0.000000 0.000000" charge=0
C	-1.343921	-0.128187	-0.406601	6
C	0.146629	-0.279457	-0.254711	6
N	0.799659	-1.402657	-0.195321	7
N	0.048639	-2.526987	-0.238361	7
C	0.954599	0.960193	-0.195671	6
C	0.577429	2.120933	0.692409	6
O	1.592578	1.192153	1.076159	8
H	-1.612251	0.907963	-0.628561	1
H	-1.834731	-0.430117	0.522909	1
H	-1.705171	-0.755387	-1.226471	1
H	0.666379	-3.330257	-0.384771	1
H	-0.375801	-2.701837	0.676589	1
H	1.543348	1.167183	-1.081061	1
H	-0.352241	2.093183	1.245719	1
H	0.894859	3.113282	0.397749	1
Es	0.793283	2.802932	0.499408	99
Es	-0.183556	-2.603675	0.302710	99
Es	-1.527056	0.585883	-0.545232	99
Es	0.146603	-0.279394	-0.254656	99
Es	0.504182	-0.910006	-0.509486	99
Es	1.442043	1.010278	0.567819	99
Es	1.349994	1.089992	-0.781260	99
Es	0.429979	-3.019596	-0.317943	99
Es	0.954698	0.960248	-0.195374	99
Es	0.049091	-2.526962	-0.237927	99
Es	1.219726	1.626139	1.022495	99
Es	0.578449	1.618590	0.085551	99
Es	0.798995	-1.402616	-0.195351	99
Es	-1.577128	-0.549843	-0.943936	99
Es	0.547389	0.344924	-0.222313	99
Es	0.479017	-0.917696	0.080515	99
Es	-0.189270	-2.493579	-0.464147	99
Es	0.577635	2.120717	0.692463	99
Es	1.743082	1.301541	1.003984	99
Es	1.160808	-1.420568	-0.195579	99
Es	1.593227	1.193189	1.075164	99
Es	1.564394	1.000213	1.303039	99
Es	-1.343857	-0.128186	-0.406578	99
Es	-0.600026	-0.206471	-0.317431	99
Es	-0.050007	2.096888	1.070710	99
Es	0.421440	-1.967779	-0.209070	99
Es	-1.649789	-0.330528	0.200398	99
42
Properties=species:S:1:pos:R:3:Z:I:1 energy=-339.90055098998045 field_type=dipole dipole="0.000000 0.000000 0.000000" charge=0
C	-1.343921	-0.128187	-0.406601	6
C	0.146629	-0.279457	-0.254711	6
N	0.799659	-1.402657	-0.195321	7
N	0.048639	-2.526987	-0.238361	7
C	0.954599	0.960193	-0.195671	6
C	0.577429	2.120933	0.692409	6
O	1.592578	1.192153	1.076159	8
H	-1.612251	0.907963	-0.628561	1
H	-1.834731	-0.430117	0.522909	1
H	-1.705171	-0.755387	-1.226471	1
H	0.666379	-3.330257	-0.384771	1
H	-0.375801	-2.701837	0.676589	1
H	1.543348	1.167183	-1.081061	1
H	-0.352241	2.093183	1.245719	1
H	0.894859	3.113282	0.397749	1
Es	1.570061	1.001141	1.303497	99
Es	0.798979	-1.402628	-0.195350	99
Es	0.504104	-0.910161	-0.509326	99
Es	0.578467	1.618790	0.085781	99
Es	-1.343858	-0.128186	-0.406579	99
Es	-0.183658	-2.603677	0.302723	99
Es	0.048988	-2.526954	-0.238015	99
Es	1.592356	1.192221	1.075989	99
Es	1.739451	1.301641	1.002006	99
Es	0.429768	-3.019739	-0.318467	99
Es	0.146602	-0.279393	-0.254654	99
Es	0.793121	2.803089	0.499500	99
Es	-0.599890	-0.206745	-0.317403	99
Es	-0.049843	2.096740	1.070644	99
Es	-1.577264	-0.549679	-0.943676	99
Es	0.421529	-1.967777	-0.209382	99
Es	1.440827	1.010351	0.567999	99
Es	0.577636	2.120720	0.692462	99
Es	-0.188566	-2.493581	-0.463233	99
Es	0.478892	-0.917643	0.080441	99
Es	1.350118	1.089910	-0.781140	99
Es	0.547479	0.344866	-0.222227	99
Es	-1.649614	-0.330465	0.200051	99
Es	-1.527182	0.585929	-0.545039	99
Es	0.954699	0.960248	-0.195376	99
Es	1.219525	1.625968	1.022576	99
Es	1.160617	-1.420352	-0.195827	99
42
Properties=species:S:1:pos:R:3:Z:I:1 energy=-339.90055098998045 field_type=dipole dipole="0.000000 0.000000 0.000000" charge=0
C	-1.343921	-0.128187	-0.406601	6
C	0.146629	-0.279457	-0.254711	6
N	0.799659	-1.402657	-0.195321	7
N	0.048639	-2.526987	-0.238361	7
C	0.954599	0.960193	-0.195671	6
C	0.577429	2.120933	0.692409	6
O	1.592578	1.192153	1.076159	8
H	-1.612251	0.907963	-0.628561	1
H	-1.834731	-0.430117	0.522909	1
H	-1.705171	-0.755387	-1.226471	1
H	0.666379	-3.330257	-0.384771	1
H	-0.375801	-2.701837	0.676589	1
H	1.543348	1.167183	-1.081061	1
H	-0.352241	2.093183	1.245719	1
H	0.894859	3.113282	0.397749	1
Es	0.578425	1.619000	0.085752	99
Es	1.592330	1.192215	1.075990	99
Es	-0.049848	2.096712	1.070608	99
Es	-1.527337	0.585962	-0.544955	99
Es	-1.343857	-0.128186	-0.406577	99
Es	-0.188157	-2.493819	-0.462613	99
Es	0.429721	-3.019849	-0.318421	99
Es	1.571381	1.001941	1.303376	99
Es	0.049109	-2.526961	-0.237915	99
Es	0.504109	-0.910257	-0.509223	99
Es	-0.599973	-0.206773	-0.317146	99
Es	1.219884	1.626143	1.022639	99
Es	0.478698	-0.917633	0.080285	99
Es	0.146603	-0.279394	-0.254658	99
Es	-0.183652	-2.603698	0.302316	99
Es	1.737149	1.300901	1.002066	99
Es	0.954699	0.960250	-0.195375	99
Es	0.547659	0.344716	-0.222204	99
Es	-1.577124	-0.549655	-0.943579	99
Es	0.577636	2.120720	0.692462	99
Es	1.160637	-1.420347	-0.195810	99
Es	-1.649530	-0.330429	0.199695	99
Es	1.441508	1.010051	0.567815	99
Es	0.799058	-1.402581	-0.195352	99
Es	0.421183	-1.967362	-0.209771	99
Es	0.793076	2.803100	0.499497	99
Es	1.349959	1.089869	-0.780926	99
42
Properties=species:S:1:pos:R:3:Z:I:1 energy=-339.90055098998045 field_type=dipole dipole="0.000000 0.000000 0.000000" charge=0
C	-1.343921	-0.128187	-0.406601	6
C	0.146629	-0.279457	-0.254711	6
N	0.799659	-1.402657	-0.195321	7
N	0.048639	-2.526987	-0.238361	7
C	0.954599	0.960193	-0.195671	6
C	0.577429	2.120933	0.692409	6
O	1.592578	1.192153	1.076159	8
H	-1.612251	0.907963	-0.628561	1
H	-1.834731	-0.430117	0.522909	1
H	-1.705171	-0.755387	-1.226471	1
H	0.666379	-3.330257	-0.384771	1
H	-0.375801	-2.701837	0.676589	1
H	1.543348	1.167183	-1.081061	1
H	-0.352241	2.093183	1.245719	1
H	0.894859	3.113282	0.397749	1
Es	0.578445	1.619273	0.085778	99
Es	0.429600	-3.020041	-0.318356	99
Es	0.478898	-0.917647	0.080447	99
Es	0.798976	-1.402623	-0.195350	99
Es	1.160022	-1.419941	-0.196064	99
Es	0.954699	0.960248	-0.195375	99
Es	-0.049882	2.096641	1.070571	99
Es	-0.599956	-0.206794	-0.317133	99
Es	-0.184232	-2.603591	0.302107	99
Es	0.421735	-1.967520	-0.210104	99
Es	1.349892	1.089822	-0.780665	99
Es	1.220079	1.626134	1.022271	99
Es	1.735776	1.300495	1.001829	99
Es	0.146603	-0.279393	-0.254657	99
Es	0.547687	0.344551	-0.222301	99
Es	1.592468	1.192256	1.076010	99
Es	1.441448	1.009310	0.567998	99
Es	-1.577241	-0.549699	-0.943339	99
Es	-1.527565	0.585963	-0.544804	99
Es	-1.649254	-0.330275	0.199312	99
Es	1.572499	1.002892	1.303578	99
Es	0.577636	2.120718	0.692461	99
Es	-1.343857	-0.128186	-0.406577	99
Es	-0.187151	-2.493864	-0.462133	99
Es	0.503858	-0.910271	-0.509165	99
Es	0.793034	2.803140	0.499532	99
Es	0.049128	-2.526964	-0.237897	99
42
Properties=species:S:1:pos:R:3:Z:I:1 energy=-339.90055098998045 field_type=dipole dipole="0.000000 0.000000 0.000000" charge=0
C	-1.343921	-0.128187	-0.406601	6
C	0.146629	-0.279457	-0.254711	6
N	0.799659	-1.402657	-0.195321	7
N	0.048639	-2.526987	-0.238361	7
C	0.954599	0.960193	-0.195671	6
C	0.577429	2.120933	0.692409	6
O	1.592578	1.192153	1.076159	8
H	-1.612251	0.907963	-0.628561	1
H	-1.834731	-0.430117	0.522909	1
H	-1.705171	-0.755387	-1.226471	1
H	0.666379	-3.330257	-0.384771	1
H	-0.375801	-2.701837	0.676589	1
H	1.543348	1.167183	-1.081061	1
H	-0.352241	2.093183	1.245719	1
H	0.894859	3.113282	0.397749	1
Es	0.049112	-2.526970	-0.237895	99
Es	-0.049832	2.096590	1.070518	99
Es	0.793012	2.803217	0.499560	99
Es	1.160069	-1.419879	-0.196105	99
Es	1.575718	1.003928	1.303657	99
Es	1.349888	1.089854	-0.780526	99
Es	0.577634	2.120719	0.692461	99
Es	0.421378	-1.967274	-0.210473	99
Es	1.442351	1.009367	0.567991	99
Es	1.731155	1.298373	1.003026	99
Es	0.798979	-1.402620	-0.195350	99
Es	1.220182	1.626090	1.021660	99
Es	-1.343858	-0.128186	-0.406579	99
Es	-1.577316	-0.549594	-0.943330	99
Es	0.954700	0.960248	-0.195375	99
Es	-0.186083	-2.494032	-0.461832	99
Es	0.578434	1.619571	0.086118	99
Es	-0.599918	-0.206847	-0.317017	99
Es	-1.649192	-0.330237	0.199010	99
Es	0.429648	-3.020009	-0.318329	99
Es	-0.185027	-2.603754	0.301997	99
Es	0.146603	-0.279394	-0.254655	99
Es	0.478830	-0.917653	0.080281	99
Es	1.592767	1.193087	1.074965	99
Es	-1.527612	0.585973	-0.544586	99
Es	0.547903	0.344391	-0.222349	99
Es	0.503822	-0.910327	-0.508869	99
42
Properties=species:S:1:pos:R:3:Z:I:1 energy=-339.90055098998045 field_type=dipole dipole="0.000000 0.000000 0.000000" charge=0
C	-1.343921	-0.128187	-0.406601	6
C	0.146629	-0.279457	-0.254711	6
N	0.799659	-1.402657	-0.195321	7
N	0.048639	-2.526987	-0.238361	7
C	0.954599	0.960193	-0.195671	6
C	0.577429	2.120933	0.692409	6
O	1.592578	1.192153	1.076159	8
H	-1.612251	0.907963	-0.628561	1
H	-1.834731	-0.430117	0.522909	1
H	-1.705171	-0.755387	-1.226471	1
H	0.666379	-3.330257	-0.384771	1
H	-0.375801	-2.701837	0.676589	1
H	1.543348	1.167183	-1.081061	1
H	-0.352241	2.093183	1.245719	1
H	0.894859	3.113282	0.397749	1
Es	0.146604	-0.279394	-0.254653	99
Es	1.349789	1.089858	-0.780247	99
Es	-0.184738	-2.603792	0.301542	99
Es	1.220275	1.626258	1.022018	99
Es	0.577633	2.120718	0.692461	99
Es	1.575980	1.003716	1.303589	99
Es	-1.527703	0.586005	-0.544473	99
Es	0.954700	0.960248	-0.195374	99
Es	-1.343857	-0.128186	-0.406578	99
Es	0.792862	2.803293	0.499678	99
Es	0.578445	1.619552	0.085966	99
Es	0.548171	0.344156	-0.222336	99
Es	0.429768	-3.020010	-0.318170	99
Es	1.731237	1.298729	1.002365	99
Es	-1.577323	-0.549663	-0.943262	99
Es	0.420620	-1.966665	-0.211049	99
Es	0.049138	-2.526966	-0.237879	99
Es	-0.185722	-2.494450	-0.461053	99
Es	-0.599978	-0.206753	-0.316933	99
Es	1.592378	1.192623	1.075512	99
Es	0.478625	-0.917717	0.080342	99
Es	-1.649007	-0.330129	0.198748	99
Es	0.503797	-0.910371	-0.508940	99
Es	-0.049763	2.096468	1.070441	99
Es	0.798977	-1.402628	-0.195349	99
Es	1.160286	-1.419930	-0.196112	99
Es	1.442155	1.009664	0.567721	99
42
Properties=species:S:1:pos:R:3:Z:I:1 energy=-339.90055098998045 field_type=dipole dipole="0.000000 0.000000 0.000000" charge=0
C	-1.343921	-0.128187	-0.406601	6
C	0.146629	-0.279457	-0.254711	6
N	0.799659	-1.402657	-0.195321	7
N	0.048639	-2.526987	-0.238361	7
C	0.954599	0.960193	-0.195671	6
C	0.577429	2.120933	0.692409	6
O	1.592578	1.192153	1.076159	8
H	-1.612251	0.907963	-0.628561	1
H	-1.834731	-0.430117	0.522909	1
H	-1.705171	-0.755387	-1.226471	1
H	0.666379	-3.330257	-0.384771	1
H	-0.375801	-2.701837	0.676589	1
H	1.543348	1.167183	-1.081061	1
H	-0.352241	2.093183	1.245719	1
H	0.894859	3.113282	0.397749	1
Es	-0.049714	2.096465	1.070459	99
Es	0.049145	-2.526961	-0.237887	99
Es	1.159331	-1.419527	-0.195980	99
Es	0.146603	-0.279393	-0.254657	99
Es	1.592001	1.192098	1.075988	99
Es	0.421718	-1.967097	-0.211205	99
Es	0.954700	0.960247	-0.195376	99
Es	0.792858	2.803324	0.499668	99
Es	0.577637	2.120720	0.692464	99
Es	0.799027	-1.402589	-0.195353	99
Es	0.478493	-0.917726	0.080175	99
Es	0.548153	0.344128	-0.222243	99
Es	1.219856	1.625915	1.021934	99
Es	-0.184523	-2.603698	0.301505	99
Es	1.349783	1.089810	-0.780152	99
Es	0.578390	1.619708	0.086030	99
Es	-0.185818	-2.494385	-0.460896	99
Es	1.442974	1.009824	0.567562	99
Es	0.503808	-0.910396	-0.508913	99
Es	-1.527888	0.585991	-0.544313	99
Es	-0.599810	-0.207043	-0.316763	99
Es	1.576217	1.003817	1.303457	99
Es	1.730943	1.299259	1.002053	99
Es	0.429635	-3.020117	-0.318233	99
Es	-1.343857	-0.128186	-0.406578	99
Es	-1.577475	-0.549587	-0.943025	99
Es	-1.648840	-0.329966	0.198254	99
