42
Properties=species:S:1:pos:R:3:Z:I:1 energy=-339.9892982315954 field_type=dipole dipole="0.000000 0.000000 0.000000" charge=0
C	-2.622223	-0.008117	0.865512	6
C	-1.364113	-0.719217	0.475112	6
N	-0.319933	-0.052297	0.105672	7
N	0.759166	-0.814047	-0.221478	7
C	1.951567	-0.269317	-0.633438	6
C	2.020247	1.232473	-0.708398	6
O	2.902897	-0.990167	-0.931848	8
H	-2.872793	-0.273997	1.895462	1
H	-3.432593	-0.339187	0.211412	1
H	-2.502423	1.074843	0.783922	1
H	-1.383503	-1.822597	0.522532	1
H	0.718257	-1.826447	-0.176518	1
H	1.354467	1.596223	-1.495018	1
H	3.044507	1.536743	-0.945978	1
H	1.746467	1.675103	0.253052	1
Es	-0.319916	-0.052950	0.105690	99
Es	1.571493	1.460255	-1.231302	99
Es	1.968847	0.481052	-0.663230	99
Es	0.216147	-0.462964	-0.076070	99
Es	0.710939	-1.414262	-0.214632	99
Es	-0.277224	0.309355	0.078024	99
Es	-2.782512	-0.194528	1.555681	99
Es	-1.370617	-1.473072	0.505116	99
Es	2.902660	-0.989831	-0.931765	99
Es	2.829910	-1.299106	-0.900666	99
Es	2.705942	1.431848	-0.868660	99
Es	-0.862503	-0.368083	-0.010635	99
Es	-0.680254	-0.348129	0.542946	99
Es	-2.540648	0.715670	0.810533	99
Es	1.833465	1.516182	-0.065528	99
Es	2.503615	-0.753483	-1.066208	99
Es	3.149829	-0.824735	-1.018455	99
Es	2.661692	-0.743460	-0.594142	99
Es	0.937023	-0.729168	-0.064715	99
Es	2.020224	1.232400	-0.708392	99
Es	-1.986497	-0.365224	0.667854	99
Es	1.161995	-0.588800	-0.528972	99
Es	-3.159170	-0.238298	0.423203	99
Es	-2.622174	-0.008172	0.865498	99
Es	1.951397	-0.269355	-0.633378	99
Es	-1.364126	-0.719215	0.475104	99
Es	0.759327	-0.813457	-0.223042	99
42
Properties=species:S:1:pos:R:3:Z:I:1 energy=-339.9892982315954 field_type=dipole dipole="0.000000 0.000000 0.000000" charge=0
C	-2.622223	-0.008117	0.865512	6
C	-1.364113	-0.719217	0.475112	6
N	-0.319933	-0.052297	0.105672	7
N	0.759166	-0.814047	-0.221478	7
C	1.951567	-0.269317	-0.633438	6
C	2.020247	1.232473	-0.708398	6
O	2.902897	-0.990167	-0.931848	8
H	-2.872793	-0.273997	1.895462	1
H	-3.432593	-0.339187	0.211412	1
H	-2.502423	1.074843	0.783922	1
H	-1.383503	-1.822597	0.522532	1
H	0.718257	-1.826447	-0.176518	1
H	1.354467	1.596223	-1.495018	1
H	3.044507	1.536743	-0.945978	1
H	1.746467	1.675103	0.253052	1
Es	-2.622173	-0.008173	0.865499	99
Es	0.720107	-1.417010	-0.192633	99
Es	2.902646	-0.989972	-0.931768	99
Es	-1.369867	-1.471317	0.504852	99
Es	3.174723	-0.841287	-1.026151	99
Es	-0.680098	-0.346569	0.544933	99
Es	2.659128	-0.746867	-0.594970	99
Es	2.020225	1.232400	-0.708392	99
Es	-3.160047	-0.236782	0.424159	99
Es	0.826992	-0.755672	-0.224518	99
Es	2.709654	1.432539	-0.870298	99
Es	0.759158	-0.813189	-0.224332	99
Es	-0.279916	0.301886	0.079483	99
Es	1.967385	0.483495	-0.662846	99
Es	1.951394	-0.269355	-0.633376	99
Es	1.570941	1.457734	-1.229279	99
Es	0.222700	-0.456946	-0.060252	99
Es	-2.783294	-0.192595	1.555415	99
Es	-2.542038	0.712791	0.810864	99
Es	-1.985011	-0.365943	0.667485	99
Es	1.260730	-0.562696	-0.407163	99
Es	-1.364120	-0.719214	0.475126	99
Es	2.501258	-0.757360	-1.064350	99
Es	2.810387	-1.274341	-0.894459	99
Es	-0.863767	-0.367028	-0.012981	99
Es	1.831679	1.514903	-0.065880	99
Es	-0.319911	-0.052962	0.105688	99
42
Properties=species:S:1:pos:R:3:Z:I:1 energy=-339.9892982315954 field_type=dipole dipole="0.000000 0.000000 0.000000" charge=0
C	-2.622223	-0.008117	0.865512	6
C	-1.364113	-0.719217	0.475112	6
N	-0.319933	-0.052297	0.105672	7
N	0.759166	-0.814047	-0.221478	7
C	1.951567	-0.269317	-0.633438	6
C	2.020247	1.232473	-0.708398	6
O	2.902897	-0.990167	-0.931848	8
H	-2.872793	-0.273997	1.895462	1
H	-3.432593	-0.339187	0.211412	1
H	-2.502423	1.074843	0.783922	1
H	-1.383503	-1.822597	0.522532	1
H	0.718257	-1.826447	-0.176518	1
H	1.354467	1.596223	-1.495018	1
H	3.044507	1.536743	-0.945978	1
H	1.746467	1.675103	0.253052	1
Es	2.902633	-0.989933	-0.931768	99
Es	-0.319908	-0.052971	0.105687	99
Es	-0.864011	-0.366625	-0.013216	99
Es	0.760282	-0.813378	-0.219633	99
Es	0.819108	-0.756088	-0.248931	99
Es	-0.281902	0.297415	0.079946	99
Es	-1.984138	-0.366239	0.667084	99
Es	1.951392	-0.269355	-0.633382	99
Es	1.830292	1.514574	-0.066538	99
Es	3.185122	-0.851807	-1.029549	99
Es	-2.543086	0.711300	0.811443	99
Es	0.225285	-0.455160	-0.058716	99
Es	2.711419	1.433017	-0.871118	99
Es	1.571573	1.456316	-1.227619	99
Es	2.655948	-0.747567	-0.596112	99
Es	-0.680019	-0.345748	0.545744	99
Es	-2.622174	-0.008172	0.865498	99
Es	-1.364123	-0.719213	0.475113	99
Es	-3.159816	-0.235684	0.424737	99
Es	-2.784253	-0.192112	1.554876	99
Es	2.501000	-0.761893	-1.063663	99
Es	2.803686	-1.258207	-0.890774	99
Es	-1.369352	-1.470269	0.504676	99
Es	2.020225	1.232400	-0.708392	99
Es	1.265303	-0.562924	-0.395691	99
Es	1.966515	0.484116	-0.662974	99
Es	0.721863	-1.415325	-0.186872	99
42
Properties=species:S:1:pos:R:3:Z:I:1 energy=-339.9892982315954 field_type=dipole dipole="0.000000 0.000000 0.000000" charge=0
C	-2.622223	-0.008117	0.865512	6
C	-1.364113	-0.719217	0.475112	6
N	-0.319933	-0.052297	0.105672	7
N	0.759166	-0.814047	-0.221478	7
C	1.951567	-0.269317	-0.633438	6
C	2.020247	1.232473	-0.708398	6
O	2.902897	-0.990167	-0.931848	8
H	-2.872793	-0.273997	1.895462	1
H	-3.432593	-0.339187	0.211412	1
H	-2.502423	1.074843	0.783922	1
H	-1.383503	-1.822597	0.522532	1
H	0.718257	-1.826447	-0.176518	1
H	1.354467	1.596223	-1.495018	1
H	3.044507	1.536743	-0.945978	1
H	1.746467	1.675103	0.253052	1
Es	-2.544136	0.710322	0.811680	99
Es	-1.983360	-0.366339	0.666864	99
Es	1.264502	-0.563444	-0.399012	99
Es	-0.283283	0.295527	0.080444	99
Es	1.829244	1.514367	-0.067275	99
Es	2.902655	-0.989958	-0.931771	99
Es	1.951392	-0.269354	-0.633380	99
Es	-0.319913	-0.052977	0.105690	99
Es	-1.368972	-1.469574	0.504644	99
Es	2.657346	-0.751793	-0.597618	99
Es	0.721190	-1.414398	-0.188977	99
Es	-0.863825	-0.366746	-0.013096	99
Es	0.822115	-0.755169	-0.241602	99
Es	2.020225	1.232401	-0.708392	99
Es	-3.159785	-0.235366	0.425564	99
Es	1.965492	0.484356	-0.663440	99
Es	2.799254	-1.247915	-0.891124	99
Es	0.759038	-0.813960	-0.221573	99
Es	2.498384	-0.760668	-1.060747	99
Es	1.572460	1.455515	-1.226004	99
Es	-2.622173	-0.008172	0.865498	99
Es	0.226283	-0.454092	-0.059015	99
Es	2.712595	1.433365	-0.871669	99
Es	-2.784517	-0.191602	1.554262	99
Es	3.190970	-0.858759	-1.030527	99
Es	-1.364125	-0.719215	0.475114	99
Es	-0.680193	-0.345882	0.545321	99
42
Properties=species:S:1:pos:R:3:Z:I:1 energy=-339.9892982315954 field_type=dipole dipole="0.000000 0.000000 0.000000" charge=0
C	-2.622223	-0.008117	0.865512	6
C	-1.364113	-0.719217	0.475112	6
N	-0.319933	-0.052297	0.105672	7
N	0.759166	-0.814047	-0.221478	7
C	1.951567	-0.269317	-0.633438	6
C	2.020247	1.232473	-0.708398	6
O	2.902897	-0.990167	-0.931848	8
H	-2.872793	-0.273997	1.895462	1
H	-3.432593	-0.339187	0.211412	1
H	-2.502423	1.074843	0.783922	1
H	-1.383503	-1.822597	0.522532	1
H	0.718257	-1.826447	-0.176518	1
H	1.354467	1.596223	-1.495018	1
H	3.044507	1.536743	-0.945978	1
H	1.746467	1.675103	0.253052	1
Es	-1.368653	-1.469018	0.504479	99
Es	-2.544730	0.709790	0.812131	99
Es	-0.680302	-0.346107	0.544722	99
Es	3.193721	-0.861145	-1.031246	99
Es	2.798997	-1.241295	-0.889734	99
Es	-2.622172	-0.008170	0.865497	99
Es	0.760242	-0.813412	-0.219612	99
Es	-0.319908	-0.052990	0.105693	99
Es	1.964884	0.484403	-0.663639	99
Es	-1.364126	-0.719216	0.475114	99
Es	-0.284268	0.293984	0.081162	99
Es	1.828085	1.514644	-0.067875	99
Es	2.499049	-0.764567	-1.060571	99
Es	1.265344	-0.563823	-0.397343	99
Es	1.951394	-0.269354	-0.633375	99
Es	-0.863715	-0.366681	-0.012742	99
Es	2.020227	1.232402	-0.708392	99
Es	2.654273	-0.751939	-0.598552	99
Es	0.722100	-1.413291	-0.185984	99
Es	1.573652	1.454449	-1.224558	99
Es	0.819393	-0.755857	-0.248031	99
Es	0.226989	-0.453152	-0.059578	99
Es	2.902648	-0.989971	-0.931769	99
Es	2.713263	1.433783	-0.872285	99
Es	-3.159670	-0.234962	0.426041	99
Es	-2.784851	-0.191490	1.553531	99
Es	-1.983002	-0.366544	0.666772	99
42
Properties=species:S:1:pos:R:3:Z:I:1 energy=-339.9892982315954 field_type=dipole dipole="0.000000 0.000000 0.000000" charge=0
C	-2.622223	-0.008117	0.865512	6
C	-1.364113	-0.719217	0.475112	6
N	-0.319933	-0.052297	0.105672	7
N	0.759166	-0.814047	-0.221478	7
C	1.951567	-0.269317	-0.633438	6
C	2.020247	1.232473	-0.708398	6
O	2.902897	-0.990167	-0.931848	8
H	-2.872793	-0.273997	1.895462	1
H	-3.432593	-0.339187	0.211412	1
H	-2.502423	1.074843	0.783922	1
H	-1.383503	-1.822597	0.522532	1
H	0.718257	-1.826447	-0.176518	1
H	1.354467	1.596223	-1.495018	1
H	3.044507	1.536743	-0.945978	1
H	1.746467	1.675103	0.253052	1
Es	2.796919	-1.235279	-0.892095	99
Es	-1.368312	-1.468700	0.504571	99
Es	2.020226	1.232403	-0.708389	99
Es	-3.159348	-0.234785	0.426636	99
Es	2.495800	-0.761674	-1.057056	99
Es	2.657118	-0.757252	-0.599617	99
Es	1.265055	-0.564115	-0.398701	99
Es	0.797318	-0.781388	-0.220777	99
Es	1.951391	-0.269354	-0.633378	99
Es	-0.285507	0.292804	0.081224	99
Es	0.783442	-0.787707	-0.243384	99
Es	-0.863345	-0.367098	-0.012116	99
Es	-1.364127	-0.719216	0.475118	99
Es	1.826774	1.515358	-0.068921	99
Es	-0.680451	-0.346192	0.544263	99
Es	-2.622174	-0.008172	0.865498	99
Es	0.721593	-1.412616	-0.187636	99
Es	2.713782	1.434275	-0.872821	99
Es	0.227494	-0.452080	-0.060405	99
Es	-1.982709	-0.366761	0.666663	99
Es	-0.319908	-0.052983	0.105689	99
Es	3.196342	-0.864538	-1.031147	99
Es	-2.785148	-0.191444	1.552921	99
Es	2.902646	-0.989948	-0.931771	99
Es	1.964086	0.484126	-0.663817	99
Es	1.575249	1.453246	-1.223033	99
Es	-2.545343	0.709559	0.812336	99
42
Properties=species:S:1:pos:R:3:Z:I:1 energy=-339.9892982315954 field_type=dipole dipole="0.000000 0.000000 0.000000" charge=0
C	-2.622223	-0.008117	0.865512	6
C	-1.364113	-0.719217	0.475112	6
N	-0.319933	-0.052297	0.105672	7
N	0.759166	-0.814047	-0.221478	7
C	1.951567	-0.269317	-0.633438	6
C	2.020247	1.232473	-0.708398	6
O	2.902897	-0.990167	-0.931848	8
H	-2.872793	-0.273997	1.895462	1
H	-3.432593	-0.339187	0.211412	1
H	-2.502423	1.074843	0.783922	1
H	-1.383503	-1.822597	0.522532	1
H	0.718257	-1.826447	-0.176518	1
H	1.354467	1.596223	-1.495018	1
H	3.044507	1.536743	-0.945978	1
H	1.746467	1.675103	0.253052	1
Es	1.825338	1.516166	-0.069267	99
Es	0.721653	-1.411937	-0.187511	99
Es	-2.545935	0.709206	0.812373	99
Es	-2.785425	-0.191283	1.552502	99
Es	-0.680547	-0.346260	0.543993	99
Es	2.795739	-1.230845	-0.889191	99
Es	2.714040	1.434401	-0.873366	99
Es	2.665186	-0.759538	-0.604733	99
Es	-0.863277	-0.367137	-0.012027	99
Es	2.902666	-0.989964	-0.931778	99
Es	1.951391	-0.269354	-0.633379	99
Es	-3.159021	-0.234721	0.427113	99
Es	0.227775	-0.451683	-0.060378	99
Es	2.487978	-0.759619	-1.051609	99
Es	1.264914	-0.564374	-0.399519	99
Es	0.758891	-0.813772	-0.222866	99
Es	-2.622174	-0.008172	0.865498	99
Es	-1.364127	-0.719216	0.475117	99
Es	3.197361	-0.868630	-1.034321	99
Es	-1.368115	-1.468316	0.504574	99
Es	1.576928	1.452005	-1.221822	99
Es	1.963588	0.484161	-0.664229	99
Es	0.822050	-0.755194	-0.240766	99
Es	-0.319934	-0.052978	0.105697	99
Es	-1.982361	-0.366829	0.666747	99
Es	2.020225	1.232400	-0.708392	99
Es	-0.285940	0.291951	0.081396	99
42
Properties=species:S:1:pos:R:3:Z:I:1 energy=-339.9892982315954 field_type=dipole dipole="0.000000 0.000000 0.000000" charge=0
C	-2.622223	-0.008117	0.865512	6
C	-1.364113	-0.719217	0.475112	6
N	-0.319933	-0.052297	0.105672	7
N	0.759166	-0.814047	-0.221478	7
C	1.951567	-0.269317	-0.633438	6
C	2.020247	1.232473	-0.708398	6
O	2.902897	-0.990167	-0.931848	8
H	-2.872793	-0.273997	1.895462	1
H	-3.432593	-0.339187	0.211412	1
H	-2.502423	1.074843	0.783922	1
H	-1.383503	-1.822597	0.522532	1
H	0.718257	-1.826447	-0.176518	1
H	1.354467	1.596223	-1.495018	1
H	3.044507	1.536743	-0.945978	1
H	1.746467	1.675103	0.253052	1
Es	0.758875	-0.813801	-0.222787	99
Es	-1.364126	-0.719216	0.475118	99
Es	1.578493	1.450806	-1.220972	99
Es	2.688026	-0.774515	-0.626343	99
Es	-3.158250	-0.234075	0.426894	99
Es	-0.680370	-0.345866	0.544730	99
Es	-1.982314	-0.366737	0.666610	99
Es	1.951389	-0.269354	-0.633390	99
Es	-2.786270	-0.191419	1.553264	99
Es	0.721000	-1.411687	-0.189458	99
Es	1.264346	-0.564567	-0.401408	99
Es	-2.622174	-0.008173	0.865498	99
Es	2.464844	-0.749325	-1.023345	99
Es	0.228675	-0.450739	-0.059229	99
Es	-0.286644	0.290494	0.080863	99
Es	0.822827	-0.755016	-0.238596	99
Es	2.020226	1.232401	-0.708392	99
Es	2.714063	1.434298	-0.873930	99
Es	3.195356	-0.867654	-1.040687	99
Es	-0.863250	-0.367340	-0.011968	99
Es	-2.545992	0.708370	0.812255	99
Es	-1.368026	-1.467961	0.504500	99
Es	2.798035	-1.227147	-0.889466	99
Es	1.823926	1.517048	-0.069046	99
Es	2.902627	-0.989958	-0.931764	99
Es	1.963496	0.484583	-0.664790	99
Es	-0.319924	-0.052981	0.105696	99
42
Properties=species:S:1:pos:R:3:Z:I:1 energy=-339.9892982315954 field_type=dipole dipole="0.000000 0.000000 0.000000" charge=0
C	-2.622223	-0.008117	0.865512	6
C	-1.364113	-0.719217	0.475112	6
N	-0.319933	-0.052297	0.105672	7
N	0.759166	-0.814047	-0.221478	7
C	1.951567	-0.269317	-0.633438	6
C	2.020247	1.232473	-0.708398	6
O	2.902897	-0.990167	-0.931848	8
H	-2.872793	-0.273997	1.895462	1
H	-3.432593	-0.339187	0.211412	1
H	-2.502423	1.074843	0.783922	1
H	-1.383503	-1.822597	0.522532	1
H	0.718257	-1.826447	-0.176518	1
H	1.354467	1.596223	-1.495018	1
H	3.044507	1.536743	-0.945978	1
H	1.746467	1.675103	0.253052	1
Es	0.228989	-0.450341	-0.058823	99
Es	-0.863098	-0.367119	-0.012015	99
Es	0.759214	-0.813928	-0.221093	99
Es	-1.364126	-0.719224	0.475118	99
Es	-0.319920	-0.052998	0.105691	99
Es	2.460855	-0.749740	-1.017635	99
Es	-2.546312	0.708166	0.812217	99
Es	2.714177	1.434394	-0.874224	99
Es	1.963170	0.484602	-0.665233	99
Es	2.902661	-0.989925	-0.931773	99
Es	-1.367871	-1.467773	0.504552	99
Es	-2.622174	-0.008172	0.865498	99
Es	1.580052	1.449769	-1.219995	99
Es	-1.982163	-0.366694	0.666682	99
Es	3.196184	-0.869521	-1.041254	99
Es	-0.680607	-0.346393	0.544306	99
Es	0.721083	-1.411128	-0.189312	99
Es	0.821873	-0.754917	-0.242062	99
Es	-0.286951	0.290071	0.081317	99
Es	1.822554	1.517811	-0.069404	99
Es	-2.786564	-0.191456	1.553221	99
Es	1.264833	-0.564769	-0.400348	99
Es	2.690703	-0.775938	-0.633450	99
Es	-3.157875	-0.234027	0.427058	99
Es	1.951391	-0.269355	-0.633379	99
Es	2.020227	1.232403	-0.708390	99
Es	2.798560	-1.223327	-0.887411	99
42
Properties=species:S:1:pos:R:3:Z:I:1 energy=-339.9892982315954 field_type=dipole dipole="0.000000 0.000000 0.000000" charge=0
C	-2.622223	-0.008117	0.865512	6
C	-1.364113	-0.719217	0.475112	6
N	-0.319933	-0.052297	0.105672	7
N	0.759166	-0.814047	-0.221478	7
C	1.951567	-0.269317	-0.633438	6
C	2.020247	1.232473	-0.708398	6
O	2.902897	-0.990167	-0.931848	8
H	-2.872793	-0.273997	1.895462	1
H	-3.432593	-0.339187	0.211412	1
H	-2.502423	1.074843	0.783922	1
H	-1.383503	-1.822597	0.522532	1
H	0.718257	-1.826447	-0.176518	1
H	1.354467	1.596223	-1.495018	1
H	3.044507	1.536743	-0.945978	1
H	1.746467	1.675103	0.253052	1
Es	-2.622175	-0.008173	0.865498	99
Es	-2.786867	-0.191581	1.553593	99
Es	1.951388	-0.269342	-0.633375	99
Es	3.195567	-0.869116	-1.043431	99
Es	1.580172	1.449620	-1.219688	99
Es	1.822409	1.517607	-0.069099	99
Es	-0.863588	-0.366828	-0.012698	99
Es	2.020225	1.232403	-0.708396	99
Es	-3.157729	-0.233629	0.426747	99
Es	-0.680331	-0.345792	0.545228	99
Es	-1.364127	-0.719216	0.475117	99
Es	-1.982138	-0.366544	0.666513	99
Es	-2.546250	0.707527	0.812376	99
Es	2.698277	-0.784250	-0.651426	99
Es	0.229256	-0.449789	-0.058895	99
Es	1.264320	-0.564775	-0.401819	99
Es	0.758885	-0.813874	-0.222458	99
Es	-0.319909	-0.052995	0.105691	99
Es	1.963334	0.484918	-0.665537	99
Es	2.799302	-1.220651	-0.889337	99
Es	2.902639	-0.989959	-0.931768	99
Es	0.721001	-1.411070	-0.189571	99
Es	0.822761	-0.754893	-0.239066	99
Es	-1.367878	-1.467518	0.504457	99
Es	2.714152	1.434472	-0.874479	99
Es	2.453089	-0.744525	-0.995639	99
Es	-0.286919	0.288445	0.081317	99
42
Properties=species:S:1:pos:R:3:Z:I:1 energy=-339.9892982315954 field_type=dipole dipole="0.000000 0.000000 0.000000" charge=0
C	-2.622223	-0.008117	0.865512	6
C	-1.364113	-0.719217	0.475112	6
N	-0.319933	-0.052297	0.105672	7
N	0.759166	-0.814047	-0.221478	7
C	1.951567	-0.269317	-0.633438	6
C	2.020247	1.232473	-0.708398	6
O	2.902897	-0.990167	-0.931848	8
H	-2.872793	-0.273997	1.895462	1
H	-3.432593	-0.339187	0.211412	1
H	-2.502423	1.074843	0.783922	1
H	-1.383503	-1.822597	0.522532	1
H	0.718257	-1.826447	-0.176518	1
H	1.354467	1.596223	-1.495018	1
H	3.044507	1.536743	-0.945978	1
H	1.746467	1.675103	0.253052	1
Es	1.951391	-0.269355	-0.633379	99
Es	-0.319913	-0.053005	0.105689	99
Es	1.267192	-0.564580	-0.393211	99
Es	3.203673	-0.866757	-1.017823	99
Es	2.020226	1.232401	-0.708391	99
Es	1.572775	1.454119	-1.223028	99
Es	0.759704	-0.813714	-0.220275	99
Es	-2.783773	-0.189962	1.551536	99
Es	2.714865	1.434174	-0.872263	99
Es	0.227305	-0.449861	-0.065300	99
Es	0.818040	-0.755839	-0.252490	99
Es	1.828432	1.513114	-0.070791	99
Es	2.801302	-1.216783	-0.890824	99
Es	-1.364128	-0.719216	0.475114	99
Es	1.964091	0.485300	-0.662783	99
Es	-2.622176	-0.008173	0.865496	99
Es	-2.546009	0.707112	0.813051	99
Es	-0.286573	0.288183	0.082613	99
Es	-1.982075	-0.366509	0.666601	99
Es	-0.680379	-0.345851	0.544759	99
Es	2.588406	-0.803263	-1.026585	99
Es	2.902648	-0.989934	-0.931772	99
Es	2.552827	-0.731842	-0.644332	99
Es	-0.863942	-0.366858	-0.013419	99
Es	-3.161594	-0.235059	0.426850	99
Es	-1.367770	-1.467316	0.504608	99
Es	0.724320	-1.410059	-0.179796	99
42
Properties=species:S:1:pos:R:3:Z:I:1 energy=-339.9892982315954 field_type=dipole dipole="0.000000 0.000000 0.000000" charge=0
C	-2.622223	-0.008117	0.865512	6
C	-1.364113	-0.719217	0.475112	6
N	-0.319933	-0.052297	0.105672	7
N	0.759166	-0.814047	-0.221478	7
C	1.951567	-0.269317	-0.633438	6
C	2.020247	1.232473	-0.708398	6
O	2.902897	-0.990167	-0.931848	8
H	-2.872793	-0.273997	1.895462	1
H	-3.432593	-0.339187	0.211412	1
H	-2.502423	1.074843	0.783922	1
H	-1.383503	-1.822597	0.522532	1
H	0.718257	-1.826447	-0.176518	1
H	1.354467	1.596223	-1.495018	1
H	3.044507	1.536743	-0.945978	1
H	1.746467	1.675103	0.253052	1
Es	2.703322	-0.791597	-0.677336	99
Es	-0.319898	-0.052976	0.105683	99
Es	0.229809	-0.449065	-0.058151	99
Es	2.902650	-0.989951	-0.931771	99
Es	3.195016	-0.867144	-1.044612	99
Es	1.580232	1.449053	-1.219853	99
Es	-2.546347	0.706497	0.812380	99
Es	0.822435	-0.754785	-0.240434	99
Es	1.951389	-0.269355	-0.633380	99
Es	-2.787110	-0.191430	1.554043	99
Es	-0.680191	-0.345793	0.545600	99
Es	2.714233	1.434430	-0.874498	99
Es	2.020226	1.232401	-0.708393	99
Es	-1.367866	-1.467159	0.504404	99
Es	2.802006	-1.216900	-0.889619	99
Es	0.720929	-1.410510	-0.189866	99
Es	1.821963	1.517665	-0.069095	99
Es	0.759116	-0.813951	-0.221336	99
Es	-1.981913	-0.366141	0.666527	99
Es	1.264336	-0.564996	-0.402140	99
Es	-2.622175	-0.008172	0.865500	99
Es	-1.364127	-0.719216	0.475118	99
Es	1.963715	0.485478	-0.665431	99
Es	-3.157677	-0.233380	0.426417	99
Es	-0.863644	-0.366968	-0.012957	99
Es	-0.287393	0.287361	0.081308	99
Es	2.445829	-0.742925	-0.968250	99
42
Properties=species:S:1:pos:R:3:Z:I:1 energy=-339.9892982315954 field_type=dipole dipole="0.000000 0.000000 0.000000" charge=0
C	-2.622223	-0.008117	0.865512	6
C	-1.364113	-0.719217	0.475112	6
N	-0.319933	-0.052297	0.105672	7
N	0.759166	-0.814047	-0.221478	7
C	1.951567	-0.269317	-0.633438	6
C	2.020247	1.232473	-0.708398	6
O	2.902897	-0.990167	-0.931848	8
H	-2.872793	-0.273997	1.895462	1
H	-3.432593	-0.339187	0.211412	1
H	-2.502423	1.074843	0.783922	1
H	-1.383503	-1.822597	0.522532	1
H	0.718257	-1.826447	-0.176518	1
H	1.354467	1.596223	-1.495018	1
H	3.044507	1.536743	-0.945978	1
H	1.746467	1.675103	0.253052	1
Es	2.704355	-0.796071	-0.687563	99
Es	-1.364127	-0.719216	0.475118	99
Es	0.721184	-1.410431	-0.189312	99
Es	-2.622175	-0.008172	0.865498	99
Es	0.758996	-0.813960	-0.221752	99
Es	2.445030	-0.739702	-0.955632	99
Es	-0.319914	-0.053018	0.105689	99
Es	0.822312	-0.754802	-0.240747	99
Es	-2.546365	0.706216	0.812254	99
Es	1.580115	1.449278	-1.219780	99
Es	1.951390	-0.269355	-0.633378	99
Es	1.264446	-0.564943	-0.401713	99
Es	-2.787164	-0.191317	1.554272	99
Es	-0.863885	-0.367199	-0.013209	99
Es	2.020225	1.232400	-0.708393	99
Es	-0.287518	0.286535	0.081146	99
Es	1.822114	1.517357	-0.068955	99
Es	-0.679925	-0.345431	0.546098	99
Es	-3.157645	-0.233370	0.426351	99
Es	2.714352	1.434268	-0.874499	99
Es	-1.367799	-1.466845	0.504441	99
Es	2.902646	-0.989914	-0.931768	99
Es	1.963566	0.485648	-0.665675	99
Es	3.195410	-0.866878	-1.043844	99
Es	2.801410	-1.215860	-0.892732	99
Es	-1.981976	-0.366187	0.666533	99
Es	0.229805	-0.448563	-0.058592	99
