42
Properties=species:S:1:pos:R:3:Z:I:1 energy=-339.94193666695975 field_type=dipole dipole="0.000000 0.000000 0.000000" charge=0
C	-1.788365	-1.678148	-1.337186	6
C	-1.153455	-1.089008	-0.116966	6
N	-0.053335	-0.413068	-0.209456	7
N	0.389415	0.065212	0.978274	7
C	1.660574	0.797292	0.950144	6
C	1.498785	2.063192	0.145264	6
O	1.545694	3.189792	0.634364	8
H	-2.801535	-1.279538	-1.435276	1
H	-1.848875	-2.762718	-1.216816	1
H	-1.211485	-1.438968	-2.234096	1
H	-1.667135	-1.266558	0.845554	1
H	-0.312456	0.640902	1.454894	1
H	2.456904	0.191712	0.506594	1
H	1.958594	1.056512	1.971024	1
H	1.326674	1.923392	-0.936316	1
Es	1.380240	1.956737	-0.589629	99
Es	-0.397443	-0.950509	-0.116851	99
Es	0.155749	-0.143379	0.387484	99
Es	1.601997	3.183074	0.944274	99
Es	-1.505881	-1.202424	0.537883	99
Es	1.851532	0.972688	1.637813	99
Es	-1.788358	-1.678132	-1.337122	99
Es	0.431861	-0.206320	1.154402	99
Es	0.389274	0.065780	0.977787	99
Es	1.590057	1.432888	0.541053	99
Es	-2.468555	-1.406668	-1.393604	99
Es	-0.036369	0.425209	1.237235	99
Es	1.277981	2.768928	0.501720	99
Es	1.499674	3.418452	0.424659	99
Es	-1.402073	-1.517879	-1.937848	99
Es	-1.827130	-2.405252	-1.245985	99
Es	1.545681	3.189480	0.634236	99
Es	1.498785	2.063202	0.145278	99
Es	1.775226	2.787320	0.411901	99
Es	2.192428	0.394951	0.640100	99
Es	-1.469112	-1.380672	-0.725429	99
Es	-1.153496	-1.088986	-0.116992	99
Es	0.933719	0.415433	0.924746	99
Es	1.660429	0.797250	0.950097	99
Es	-0.686640	-0.452684	-0.205177	99
Es	-0.053628	-0.413133	-0.208918	99
Es	0.154753	-0.353392	-0.514367	99
42
Properties=species:S:1:pos:R:3:Z:I:1 energy=-339.94193666695975 field_type=dipole dipole="0.000000 0.000000 0.000000" charge=0
C	-1.788365	-1.678148	-1.337186	6
C	-1.153455	-1.089008	-0.116966	6
N	-0.053335	-0.413068	-0.209456	7
N	0.389415	0.065212	0.978274	7
C	1.660574	0.797292	0.950144	6
C	1.498785	2.063192	0.145264	6
O	1.545694	3.189792	0.634364	8
H	-2.801535	-1.279538	-1.435276	1
H	-1.848875	-2.762718	-1.216816	1
H	-1.211485	-1.438968	-2.234096	1
H	-1.667135	-1.266558	0.845554	1
H	-0.312456	0.640902	1.454894	1
H	2.456904	0.191712	0.506594	1
H	1.958594	1.056512	1.971024	1
H	1.326674	1.923392	-0.936316	1
Es	-1.153486	-1.089015	-0.116989	99
Es	1.378401	1.956391	-0.588857	99
Es	1.545689	3.189496	0.634235	99
Es	1.851994	0.973480	1.637345	99
Es	-2.466251	-1.406447	-1.394624	99
Es	-0.395822	-0.953406	-0.117044	99
Es	2.192704	0.396560	0.640069	99
Es	0.159104	-0.151119	0.387859	99
Es	1.498775	2.063201	0.145280	99
Es	0.149077	-0.352200	-0.511697	99
Es	-1.788359	-1.678133	-1.337122	99
Es	-0.687447	-0.451780	-0.205283	99
Es	-1.404089	-1.517831	-1.936136	99
Es	-1.504759	-1.202420	0.536873	99
Es	1.777476	2.788459	0.413077	99
Es	-0.053629	-0.413136	-0.208939	99
Es	1.660429	0.797250	0.950097	99
Es	0.428174	-0.191991	1.148476	99
Es	-1.828195	-2.407494	-1.247293	99
Es	1.505651	3.405647	0.423226	99
Es	1.268759	2.767782	0.503014	99
Es	0.389289	0.065788	0.977772	99
Es	-1.468024	-1.381168	-0.724602	99
Es	1.588650	1.431991	0.541525	99
Es	-0.037542	0.422740	1.238993	99
Es	1.606749	3.195898	0.942838	99
Es	0.937384	0.413416	0.926653	99
42
Properties=species:S:1:pos:R:3:Z:I:1 energy=-339.94193666695975 field_type=dipole dipole="0.000000 0.000000 0.000000" charge=0
C	-1.788365	-1.678148	-1.337186	6
C	-1.153455	-1.089008	-0.116966	6
N	-0.053335	-0.413068	-0.209456	7
N	0.389415	0.065212	0.978274	7
C	1.660574	0.797292	0.950144	6
C	1.498785	2.063192	0.145264	6
O	1.545694	3.189792	0.634364	8
H	-2.801535	-1.279538	-1.435276	1
H	-1.848875	-2.762718	-1.216816	1
H	-1.211485	-1.438968	-2.234096	1
H	-1.667135	-1.266558	0.845554	1
H	-0.312456	0.640902	1.454894	1
H	2.456904	0.191712	0.506594	1
H	1.958594	1.056512	1.971024	1
H	1.326674	1.923392	-0.936316	1
Es	0.146028	-0.352353	-0.509775	99
Es	1.498769	2.063201	0.145282	99
Es	1.660426	0.797250	0.950096	99
Es	1.851981	0.974132	1.636860	99
Es	1.264437	2.767315	0.504025	99
Es	-2.464247	-1.406259	-1.395183	99
Es	0.389269	0.065853	0.977714	99
Es	-0.395456	-0.954496	-0.116952	99
Es	-0.038513	0.419976	1.241681	99
Es	-1.153486	-1.089006	-0.116989	99
Es	-1.405552	-1.517922	-1.934869	99
Es	0.426287	-0.178282	1.141529	99
Es	-0.053624	-0.413127	-0.208894	99
Es	1.545684	3.189464	0.634258	99
Es	0.161822	-0.160024	0.389599	99
Es	2.193087	0.397656	0.640239	99
Es	1.777962	2.789935	0.412201	99
Es	0.938994	0.412485	0.927661	99
Es	1.507879	3.402179	0.424823	99
Es	-1.788359	-1.678133	-1.337122	99
Es	1.610553	3.198281	0.940636	99
Es	-1.829204	-2.409087	-1.248083	99
Es	-1.467311	-1.381373	-0.724163	99
Es	-0.688106	-0.450694	-0.205636	99
Es	1.587685	1.431397	0.541975	99
Es	-1.503709	-1.202624	0.536109	99
Es	1.377406	1.956215	-0.588273	99
42
Properties=species:S:1:pos:R:3:Z:I:1 energy=-339.94193666695975 field_type=dipole dipole="0.000000 0.000000 0.000000" charge=0
C	-1.788365	-1.678148	-1.337186	6
C	-1.153455	-1.089008	-0.116966	6
N	-0.053335	-0.413068	-0.209456	7
N	0.389415	0.065212	0.978274	7
C	1.660574	0.797292	0.950144	6
C	1.498785	2.063192	0.145264	6
O	1.545694	3.189792	0.634364	8
H	-2.801535	-1.279538	-1.435276	1
H	-1.848875	-2.762718	-1.216816	1
H	-1.211485	-1.438968	-2.234096	1
H	-1.667135	-1.266558	0.845554	1
H	-0.312456	0.640902	1.454894	1
H	2.456904	0.191712	0.506594	1
H	1.958594	1.056512	1.971024	1
H	1.326674	1.923392	-0.936316	1
Es	-1.502994	-1.202677	0.535551	99
Es	-1.466964	-1.381463	-0.724096	99
Es	1.498768	2.063197	0.145283	99
Es	-1.406665	-1.517827	-1.933720	99
Es	-1.830135	-2.410530	-1.248729	99
Es	0.164709	-0.166199	0.391413	99
Es	-0.038633	0.419120	1.240933	99
Es	0.389268	0.065838	0.977741	99
Es	1.587051	1.431473	0.542382	99
Es	0.938821	0.413069	0.927559	99
Es	-0.394406	-0.955950	-0.117056	99
Es	-1.788359	-1.678134	-1.337122	99
Es	2.193426	0.398271	0.640453	99
Es	1.778745	2.789391	0.415328	99
Es	0.142888	-0.351637	-0.508573	99
Es	1.262441	2.765542	0.508691	99
Es	-1.153499	-1.088993	-0.116992	99
Es	1.376684	1.956360	-0.587651	99
Es	1.851875	0.973963	1.635998	99
Es	1.507498	3.370520	0.416507	99
Es	-0.053641	-0.413134	-0.208896	99
Es	-0.688625	-0.450430	-0.204901	99
Es	0.425264	-0.170919	1.138978	99
Es	-2.462539	-1.405787	-1.395330	99
Es	1.660425	0.797250	0.950097	99
Es	1.613612	3.232199	0.940627	99
Es	1.545685	3.189450	0.634273	99
42
Properties=species:S:1:pos:R:3:Z:I:1 energy=-339.94193666695975 field_type=dipole dipole="0.000000 0.000000 0.000000" charge=0
C	-1.788365	-1.678148	-1.337186	6
C	-1.153455	-1.089008	-0.116966	6
N	-0.053335	-0.413068	-0.209456	7
N	0.389415	0.065212	0.978274	7
C	1.660574	0.797292	0.950144	6
C	1.498785	2.063192	0.145264	6
O	1.545694	3.189792	0.634364	8
H	-2.801535	-1.279538	-1.435276	1
H	-1.848875	-2.762718	-1.216816	1
H	-1.211485	-1.438968	-2.234096	1
H	-1.667135	-1.266558	0.845554	1
H	-0.312456	0.640902	1.454894	1
H	2.456904	0.191712	0.506594	1
H	1.958594	1.056512	1.971024	1
H	1.326674	1.923392	-0.936316	1
Es	1.779014	2.788986	0.416547	99
Es	1.376210	1.956627	-0.587136	99
Es	1.506487	3.332000	0.417917	99
Es	-1.502300	-1.203110	0.535345	99
Es	-1.788360	-1.678133	-1.337123	99
Es	1.498759	2.063203	0.145280	99
Es	0.389310	0.065722	0.977835	99
Es	0.140594	-0.350664	-0.508605	99
Es	0.938827	0.413239	0.927625	99
Es	1.545556	3.189550	0.633543	99
Es	-1.153493	-1.089003	-0.116990	99
Es	-1.407295	-1.517694	-1.933261	99
Es	-1.466890	-1.381448	-0.724055	99
Es	-2.461396	-1.405618	-1.395209	99
Es	0.166216	-0.167883	0.391750	99
Es	-0.688845	-0.450675	-0.203491	99
Es	1.660424	0.797251	0.950097	99
Es	2.193320	0.398545	0.641168	99
Es	-0.393818	-0.956586	-0.117329	99
Es	-1.830784	-2.411320	-1.249002	99
Es	1.851743	0.973496	1.635323	99
Es	1.586768	1.431954	0.542216	99
Es	-0.038122	0.419219	1.239064	99
Es	0.424376	-0.169049	1.139197	99
Es	1.616588	3.272417	0.932201	99
Es	-0.053634	-0.413134	-0.208894	99
Es	1.261447	2.764069	0.514735	99
42
Properties=species:S:1:pos:R:3:Z:I:1 energy=-339.94193666695975 field_type=dipole dipole="0.000000 0.000000 0.000000" charge=0
C	-1.788365	-1.678148	-1.337186	6
C	-1.153455	-1.089008	-0.116966	6
N	-0.053335	-0.413068	-0.209456	7
N	0.389415	0.065212	0.978274	7
C	1.660574	0.797292	0.950144	6
C	1.498785	2.063192	0.145264	6
O	1.545694	3.189792	0.634364	8
H	-2.801535	-1.279538	-1.435276	1
H	-1.848875	-2.762718	-1.216816	1
H	-1.211485	-1.438968	-2.234096	1
H	-1.667135	-1.266558	0.845554	1
H	-0.312456	0.640902	1.454894	1
H	2.456904	0.191712	0.506594	1
H	1.958594	1.056512	1.971024	1
H	1.326674	1.923392	-0.936316	1
Es	2.192769	0.398854	0.641667	99
Es	1.508994	3.290135	0.427577	99
Es	-1.831458	-2.411477	-1.248766	99
Es	-0.394180	-0.956343	-0.117360	99
Es	1.778833	2.788458	0.420887	99
Es	-1.407317	-1.517717	-1.933582	99
Es	0.938513	0.413716	0.927374	99
Es	-2.460636	-1.405639	-1.395028	99
Es	-0.037358	0.419187	1.237486	99
Es	-0.688953	-0.450497	-0.203079	99
Es	1.615143	3.316608	0.913742	99
Es	0.140081	-0.350704	-0.508704	99
Es	1.375657	1.956862	-0.586829	99
Es	1.851965	0.973078	1.635127	99
Es	1.545662	3.189220	0.634005	99
Es	1.660427	0.797252	0.950099	99
Es	1.261475	2.762496	0.518308	99
Es	1.586590	1.432351	0.541990	99
Es	-1.788359	-1.678133	-1.337122	99
Es	0.389260	0.065857	0.977714	99
Es	0.166416	-0.166674	0.391087	99
Es	1.498764	2.063202	0.145283	99
Es	-0.053643	-0.413139	-0.208914	99
Es	0.424484	-0.171155	1.141352	99
Es	-1.502035	-1.203633	0.535520	99
Es	-1.466900	-1.381200	-0.724096	99
Es	-1.153495	-1.089001	-0.116988	99
42
Properties=species:S:1:pos:R:3:Z:I:1 energy=-339.94193666695975 field_type=dipole dipole="0.000000 0.000000 0.000000" charge=0
C	-1.788365	-1.678148	-1.337186	6
C	-1.153455	-1.089008	-0.116966	6
N	-0.053335	-0.413068	-0.209456	7
N	0.389415	0.065212	0.978274	7
C	1.660574	0.797292	0.950144	6
C	1.498785	2.063192	0.145264	6
O	1.545694	3.189792	0.634364	8
H	-2.801535	-1.279538	-1.435276	1
H	-1.848875	-2.762718	-1.216816	1
H	-1.211485	-1.438968	-2.234096	1
H	-1.667135	-1.266558	0.845554	1
H	-0.312456	0.640902	1.454894	1
H	2.456904	0.191712	0.506594	1
H	1.958594	1.056512	1.971024	1
H	1.326674	1.923392	-0.936316	1
Es	1.511556	3.266437	0.439322	99
Es	1.498759	2.063202	0.145285	99
Es	0.389297	0.065777	0.977790	99
Es	1.375292	1.956972	-0.586623	99
Es	-2.460277	-1.405677	-1.394898	99
Es	1.586530	1.432492	0.541812	99
Es	1.545755	3.188868	0.634526	99
Es	-1.407317	-1.517641	-1.933744	99
Es	-1.153494	-1.089002	-0.116990	99
Es	-0.036881	0.418788	1.237151	99
Es	0.166341	-0.166029	0.390717	99
Es	1.660424	0.797251	0.950098	99
Es	-1.467106	-1.381139	-0.724053	99
Es	1.615559	3.340599	0.898353	99
Es	-0.393974	-0.956433	-0.117594	99
Es	-1.788359	-1.678134	-1.337122	99
Es	1.777818	2.787645	0.421952	99
Es	2.192153	0.399190	0.641908	99
Es	0.424698	-0.171869	1.141952	99
Es	1.852320	0.972862	1.635204	99
Es	-1.831782	-2.411519	-1.248774	99
Es	-1.501791	-1.203827	0.535551	99
Es	0.938195	0.414117	0.927113	99
Es	1.260118	2.763271	0.520090	99
Es	-0.688629	-0.451185	-0.201986	99
Es	0.139104	-0.349932	-0.509373	99
Es	-0.053608	-0.413126	-0.208917	99
42
Properties=species:S:1:pos:R:3:Z:I:1 energy=-339.94193666695975 field_type=dipole dipole="0.000000 0.000000 0.000000" charge=0
C	-1.788365	-1.678148	-1.337186	6
C	-1.153455	-1.089008	-0.116966	6
N	-0.053335	-0.413068	-0.209456	7
N	0.389415	0.065212	0.978274	7
C	1.660574	0.797292	0.950144	6
C	1.498785	2.063192	0.145264	6
O	1.545694	3.189792	0.634364	8
H	-2.801535	-1.279538	-1.435276	1
H	-1.848875	-2.762718	-1.216816	1
H	-1.211485	-1.438968	-2.234096	1
H	-1.667135	-1.266558	0.845554	1
H	-0.312456	0.640902	1.454894	1
H	2.456904	0.191712	0.506594	1
H	1.958594	1.056512	1.971024	1
H	1.326674	1.923392	-0.936316	1
Es	0.139015	-0.349773	-0.509664	99
Es	0.424299	-0.173660	1.143556	99
Es	-1.467208	-1.381150	-0.723948	99
Es	-1.153494	-1.089003	-0.116990	99
Es	-1.501736	-1.204007	0.535715	99
Es	1.259453	2.763174	0.521845	99
Es	-2.459889	-1.405775	-1.394758	99
Es	1.660422	0.797248	0.950096	99
Es	1.375013	1.956926	-0.586667	99
Es	-1.788359	-1.678134	-1.337122	99
Es	2.191592	0.399602	0.642036	99
Es	1.513361	3.245092	0.454293	99
Es	1.776611	2.788151	0.421119	99
Es	-1.407136	-1.517588	-1.934139	99
Es	1.852670	0.972695	1.635379	99
Es	1.545691	3.189434	0.634291	99
Es	-0.036206	0.418914	1.235921	99
Es	-0.053628	-0.413128	-0.208893	99
Es	1.586371	1.432768	0.541755	99
Es	0.166080	-0.164653	0.390114	99
Es	0.938412	0.413887	0.927331	99
Es	-1.832240	-2.411385	-1.248716	99
Es	0.389260	0.065879	0.977690	99
Es	-0.394175	-0.956143	-0.117736	99
Es	1.498763	2.063202	0.145284	99
Es	1.616266	3.360822	0.882617	99
Es	-0.688506	-0.451435	-0.201661	99
42
Properties=species:S:1:pos:R:3:Z:I:1 energy=-339.94193666695975 field_type=dipole dipole="0.000000 0.000000 0.000000" charge=0
C	-1.788365	-1.678148	-1.337186	6
C	-1.153455	-1.089008	-0.116966	6
N	-0.053335	-0.413068	-0.209456	7
N	0.389415	0.065212	0.978274	7
C	1.660574	0.797292	0.950144	6
C	1.498785	2.063192	0.145264	6
O	1.545694	3.189792	0.634364	8
H	-2.801535	-1.279538	-1.435276	1
H	-1.848875	-2.762718	-1.216816	1
H	-1.211485	-1.438968	-2.234096	1
H	-1.667135	-1.266558	0.845554	1
H	-0.312456	0.640902	1.454894	1
H	2.456904	0.191712	0.506594	1
H	1.958594	1.056512	1.971024	1
H	1.326674	1.923392	-0.936316	1
Es	1.535398	3.192519	0.579538	99
Es	1.586661	1.432475	0.540870	99
Es	-1.406699	-1.517615	-1.935356	99
Es	1.612302	3.405170	0.837951	99
Es	1.255459	2.767334	0.515422	99
Es	0.389267	0.065844	0.977732	99
Es	1.498762	2.063202	0.145284	99
Es	1.533566	3.190247	0.569399	99
Es	-0.395069	-0.954984	-0.118390	99
Es	0.140162	-0.348882	-0.511530	99
Es	-1.501782	-1.204579	0.536278	99
Es	1.374645	1.956826	-0.587198	99
Es	-1.153492	-1.089007	-0.116989	99
Es	-0.687287	-0.452606	-0.200804	99
Es	0.425099	-0.183364	1.148974	99
Es	1.775136	2.791216	0.411927	99
Es	-0.053637	-0.413139	-0.208931	99
Es	-2.460231	-1.406427	-1.394523	99
Es	0.937911	0.414470	0.926962	99
Es	-1.467502	-1.380569	-0.723773	99
Es	-0.034289	0.418971	1.234303	99
Es	1.660422	0.797248	0.950096	99
Es	0.162975	-0.156888	0.387904	99
Es	1.854122	0.972862	1.637071	99
Es	-1.832243	-2.410358	-1.248516	99
Es	-1.788359	-1.678133	-1.337121	99
Es	2.189403	0.400127	0.642172	99
42
Properties=species:S:1:pos:R:3:Z:I:1 energy=-339.94193666695975 field_type=dipole dipole="0.000000 0.000000 0.000000" charge=0
C	-1.788365	-1.678148	-1.337186	6
C	-1.153455	-1.089008	-0.116966	6
N	-0.053335	-0.413068	-0.209456	7
N	0.389415	0.065212	0.978274	7
C	1.660574	0.797292	0.950144	6
C	1.498785	2.063192	0.145264	6
O	1.545694	3.189792	0.634364	8
H	-2.801535	-1.279538	-1.435276	1
H	-1.848875	-2.762718	-1.216816	1
H	-1.211485	-1.438968	-2.234096	1
H	-1.667135	-1.266558	0.845554	1
H	-0.312456	0.640902	1.454894	1
H	2.456904	0.191712	0.506594	1
H	1.958594	1.056512	1.971024	1
H	1.326674	1.923392	-0.936316	1
Es	2.187946	0.401079	0.641224	99
Es	1.586235	1.431105	0.541002	99
Es	1.855567	0.974111	1.638981	99
Es	-1.788358	-1.678132	-1.337122	99
Es	0.389249	0.065790	0.977762	99
Es	-1.501892	-1.203965	0.536469	99
Es	1.498761	2.063202	0.145283	99
Es	1.559378	3.101804	0.681030	99
Es	-1.406867	-1.518153	-1.936317	99
Es	-0.396422	-0.952998	-0.118518	99
Es	0.161727	-0.157270	0.388193	99
Es	1.545542	3.189240	0.633456	99
Es	0.141661	-0.350441	-0.511752	99
Es	-0.686196	-0.453694	-0.201611	99
Es	0.939408	0.413131	0.928331	99
Es	1.374609	1.956328	-0.588089	99
Es	-1.832585	-2.408772	-1.248955	99
Es	1.250478	2.778924	0.494058	99
Es	-0.035082	0.415662	1.240715	99
Es	-0.053637	-0.413133	-0.208900	99
Es	0.425155	-0.178548	1.141617	99
Es	1.588416	3.475827	0.709235	99
Es	-1.467656	-1.380028	-0.722957	99
Es	-2.460072	-1.407600	-1.394702	99
Es	1.660424	0.797250	0.950098	99
Es	1.768411	2.800239	0.397207	99
Es	-1.153497	-1.088999	-0.116990	99
42
Properties=species:S:1:pos:R:3:Z:I:1 energy=-339.94193666695975 field_type=dipole dipole="0.000000 0.000000 0.000000" charge=0
C	-1.788365	-1.678148	-1.337186	6
C	-1.153455	-1.089008	-0.116966	6
N	-0.053335	-0.413068	-0.209456	7
N	0.389415	0.065212	0.978274	7
C	1.660574	0.797292	0.950144	6
C	1.498785	2.063192	0.145264	6
O	1.545694	3.189792	0.634364	8
H	-2.801535	-1.279538	-1.435276	1
H	-1.848875	-2.762718	-1.216816	1
H	-1.211485	-1.438968	-2.234096	1
H	-1.667135	-1.266558	0.845554	1
H	-0.312456	0.640902	1.454894	1
H	2.456904	0.191712	0.506594	1
H	1.958594	1.056512	1.971024	1
H	1.326674	1.923392	-0.936316	1
Es	-0.396654	-0.952888	-0.118360	99
Es	0.424590	-0.176781	1.140579	99
Es	1.250473	2.778822	0.494272	99
Es	-0.686195	-0.453535	-0.201911	99
Es	-0.053638	-0.413135	-0.208903	99
Es	-1.832934	-2.408867	-1.249011	99
Es	1.374466	1.956267	-0.588042	99
Es	0.939847	0.412765	0.928724	99
Es	-1.501759	-1.203885	0.536421	99
Es	-1.467549	-1.380003	-0.722883	99
Es	1.545692	3.189434	0.634233	99
Es	0.162202	-0.158279	0.388410	99
Es	1.855794	0.974163	1.639049	99
Es	0.389257	0.065861	0.977697	99
Es	1.586089	1.431075	0.541020	99
Es	-1.153496	-1.089000	-0.116990	99
Es	1.588490	3.476662	0.706081	99
Es	-2.459615	-1.407637	-1.394652	99
Es	1.498756	2.063201	0.145285	99
Es	-0.035180	0.415335	1.240934	99
Es	0.141524	-0.350846	-0.511438	99
Es	1.767978	2.800305	0.397319	99
Es	1.660425	0.797250	0.950097	99
Es	-1.788359	-1.678133	-1.337122	99
Es	2.187675	0.401330	0.641220	99
Es	-1.407130	-1.518237	-1.936319	99
Es	1.559950	3.100716	0.683039	99
42
Properties=species:S:1:pos:R:3:Z:I:1 energy=-339.94193666695975 field_type=dipole dipole="0.000000 0.000000 0.000000" charge=0
C	-1.788365	-1.678148	-1.337186	6
C	-1.153455	-1.089008	-0.116966	6
N	-0.053335	-0.413068	-0.209456	7
N	0.389415	0.065212	0.978274	7
C	1.660574	0.797292	0.950144	6
C	1.498785	2.063192	0.145264	6
O	1.545694	3.189792	0.634364	8
H	-2.801535	-1.279538	-1.435276	1
H	-1.848875	-2.762718	-1.216816	1
H	-1.211485	-1.438968	-2.234096	1
H	-1.667135	-1.266558	0.845554	1
H	-0.312456	0.640902	1.454894	1
H	2.456904	0.191712	0.506594	1
H	1.958594	1.056512	1.971024	1
H	1.326674	1.923392	-0.936316	1
Es	-1.501400	-1.204220	0.535891	99
Es	0.166054	-0.164315	0.389806	99
Es	1.374335	1.956981	-0.586605	99
Es	-1.153495	-1.089000	-0.116990	99
Es	-1.788359	-1.678133	-1.337122	99
Es	-1.407439	-1.517775	-1.934590	99
Es	0.424148	-0.173242	1.142968	99
Es	1.772929	2.788877	0.419820	99
Es	-1.467218	-1.380729	-0.723778	99
Es	1.586048	1.432508	0.541383	99
Es	0.938422	0.414191	0.927460	99
Es	-1.833405	-2.411317	-1.248728	99
Es	1.257574	2.764355	0.522535	99
Es	0.389267	0.065854	0.977719	99
Es	1.853547	0.972924	1.636062	99
Es	-0.687951	-0.451940	-0.201132	99
Es	1.617824	3.392549	0.850383	99
Es	-2.458639	-1.406029	-1.394564	99
Es	2.190248	0.400317	0.642290	99
Es	0.138627	-0.350074	-0.510229	99
Es	1.545710	3.189354	0.634370	99
Es	-0.035386	0.417654	1.236150	99
Es	1.518813	3.211182	0.486753	99
Es	-0.395099	-0.955336	-0.117593	99
Es	1.498760	2.063202	0.145284	99
Es	1.660426	0.797252	0.950097	99
Es	-0.053639	-0.413129	-0.208891	99
42
Properties=species:S:1:pos:R:3:Z:I:1 energy=-339.94193666695975 field_type=dipole dipole="0.000000 0.000000 0.000000" charge=0
C	-1.788365	-1.678148	-1.337186	6
C	-1.153455	-1.089008	-0.116966	6
N	-0.053335	-0.413068	-0.209456	7
N	0.389415	0.065212	0.978274	7
C	1.660574	0.797292	0.950144	6
C	1.498785	2.063192	0.145264	6
O	1.545694	3.189792	0.634364	8
H	-2.801535	-1.279538	-1.435276	1
H	-1.848875	-2.762718	-1.216816	1
H	-1.211485	-1.438968	-2.234096	1
H	-1.667135	-1.266558	0.845554	1
H	-0.312456	0.640902	1.454894	1
H	2.456904	0.191712	0.506594	1
H	1.958594	1.056512	1.971024	1
H	1.326674	1.923392	-0.936316	1
Es	0.138387	-0.349644	-0.510611	99
Es	-1.153494	-1.089002	-0.116990	99
Es	-1.407451	-1.517730	-1.934675	99
Es	-0.035157	0.417343	1.236351	99
Es	-0.394904	-0.955341	-0.117815	99
Es	2.189884	0.400534	0.642269	99
Es	0.165820	-0.164287	0.389823	99
Es	1.520574	3.204771	0.496237	99
Es	0.389259	0.065837	0.977742	99
Es	-1.833543	-2.411284	-1.248796	99
Es	1.257328	2.764479	0.521529	99
Es	-1.501454	-1.204222	0.535898	99
Es	0.938626	0.414022	0.927694	99
Es	1.660423	0.797248	0.950096	99
Es	1.498757	2.063203	0.145286	99
Es	1.374142	1.956974	-0.586597	99
Es	1.545381	3.189541	0.632613	99
Es	1.585936	1.432649	0.541398	99
Es	0.424002	-0.173030	1.142629	99
Es	-0.053640	-0.413135	-0.208897	99
Es	-0.687836	-0.452336	-0.200589	99
Es	1.853853	0.972783	1.636141	99
Es	1.772469	2.789440	0.419333	99
Es	-1.788359	-1.678134	-1.337122	99
Es	-1.467311	-1.380567	-0.723707	99
Es	-2.458429	-1.406157	-1.394557	99
Es	1.617439	3.398004	0.844064	99
42
Properties=species:S:1:pos:R:3:Z:I:1 energy=-339.94193666695975 field_type=dipole dipole="0.000000 0.000000 0.000000" charge=0
C	-1.788365	-1.678148	-1.337186	6
C	-1.153455	-1.089008	-0.116966	6
N	-0.053335	-0.413068	-0.209456	7
N	0.389415	0.065212	0.978274	7
C	1.660574	0.797292	0.950144	6
C	1.498785	2.063192	0.145264	6
O	1.545694	3.189792	0.634364	8
H	-2.801535	-1.279538	-1.435276	1
H	-1.848875	-2.762718	-1.216816	1
H	-1.211485	-1.438968	-2.234096	1
H	-1.667135	-1.266558	0.845554	1
H	-0.312456	0.640902	1.454894	1
H	2.456904	0.191712	0.506594	1
H	1.958594	1.056512	1.971024	1
H	1.326674	1.923392	-0.936316	1
Es	-2.458343	-1.406223	-1.394659	99
Es	1.374060	1.956994	-0.586567	99
Es	0.138217	-0.349792	-0.510492	99
Es	1.520554	3.201957	0.497840	99
Es	0.166064	-0.164762	0.389937	99
Es	-1.153498	-1.088998	-0.116990	99
Es	0.389262	0.065863	0.977706	99
Es	-1.833667	-2.411174	-1.248816	99
Es	-1.788359	-1.678133	-1.337122	99
Es	1.771741	2.789425	0.418766	99
Es	-0.394949	-0.955331	-0.117733	99
Es	1.853885	0.973019	1.636297	99
Es	1.585913	1.432376	0.541338	99
Es	1.660421	0.797248	0.950096	99
Es	2.189826	0.400573	0.642281	99
Es	-1.407437	-1.517854	-1.934682	99
Es	1.257076	2.764696	0.522551	99
Es	1.618297	3.400758	0.840192	99
Es	-1.467380	-1.380569	-0.723526	99
Es	1.545717	3.189339	0.634397	99
Es	-1.501326	-1.204193	0.535875	99
Es	-0.035021	0.417292	1.236045	99
Es	0.938587	0.414166	0.927642	99
Es	-0.687813	-0.452334	-0.200632	99
Es	-0.053636	-0.413135	-0.208899	99
Es	1.498751	2.063203	0.145288	99
Es	0.423759	-0.172451	1.142616	99
