45
Properties=species:S:1:pos:R:3:Z:I:1 energy=-341.09960518883986 field_type=dipole dipole="0.000000 0.000000 0.000000" charge=0
C	-3.463526	-1.205259	-0.076090	6
C	-1.969256	-1.221779	-0.021620	6
N	-1.293166	-0.122589	-0.063600	7
O	0.074344	-0.432489	0.015670	8
C	0.814314	0.791001	0.060780	6
C	2.303464	0.452761	0.145360	6
N	3.154854	1.642171	0.185080	7
H	-3.794216	-1.812019	-0.923040	1
H	-3.840796	-0.185209	-0.184740	1
H	-3.855266	-1.645669	0.844000	1
H	-1.481346	-2.208939	0.063890	1
H	0.502695	1.370641	0.938280	1
H	0.604954	1.372371	-0.845590	1
H	2.587034	-0.171779	-0.709660	1
H	2.487604	-0.152839	1.039790	1
H	3.035834	2.176561	-0.675430	1
H	4.132464	1.353061	0.206920	1
Es	0.074242	-0.432175	0.015667	99
Es	1.557905	0.624302	0.101265	99
Es	-1.601012	-0.582346	0.244843	99
Es	0.814240	0.790770	0.060759	99
Es	-3.716291	-0.522711	-0.148849	99
Es	-3.675272	-1.616185	-0.645472	99
Es	0.331600	0.042795	0.029295	99
Es	-1.969309	-1.221793	-0.021615	99
Es	3.084288	1.945333	-0.349451	99
Es	2.303506	0.452906	0.145359	99
Es	-0.522112	-0.287948	-0.017688	99
Es	3.080289	1.846601	0.462971	99
Es	0.678396	1.194129	-0.564391	99
Es	0.134955	-0.575166	-0.252576	99
Es	2.788815	1.123213	0.146408	99
Es	-1.391519	0.242172	-0.090675	99
Es	2.490813	0.020615	-0.449333	99
Es	-1.644882	-1.887355	0.035690	99
Es	3.740359	1.452017	0.180938	99
Es	0.604532	1.189155	0.660296	99
Es	-1.292962	-0.123174	-0.063554	99
Es	2.429147	0.043706	0.758687	99
Es	-3.463458	-1.205281	-0.076086	99
Es	-3.715297	-1.504214	0.543252	99
Es	3.154967	1.641850	0.184624	99
Es	-1.575415	-0.618976	-0.337152	99
Es	-2.709937	-1.206849	-0.050723	99
Es	0.106821	-0.575551	0.290312	99
45
Properties=species:S:1:pos:R:3:Z:I:1 energy=-341.09960518883986 field_type=dipole dipole="0.000000 0.000000 0.000000" charge=0
C	-3.463526	-1.205259	-0.076090	6
C	-1.969256	-1.221779	-0.021620	6
N	-1.293166	-0.122589	-0.063600	7
O	0.074344	-0.432489	0.015670	8
C	0.814314	0.791001	0.060780	6
C	2.303464	0.452761	0.145360	6
N	3.154854	1.642171	0.185080	7
H	-3.794216	-1.812019	-0.923040	1
H	-3.840796	-0.185209	-0.184740	1
H	-3.855266	-1.645669	0.844000	1
H	-1.481346	-2.208939	0.063890	1
H	0.502695	1.370641	0.938280	1
H	0.604954	1.372371	-0.845590	1
H	2.587034	-0.171779	-0.709660	1
H	2.487604	-0.152839	1.039790	1
H	3.035834	2.176561	-0.675430	1
H	4.132464	1.353061	0.206920	1
Es	0.604648	1.188847	0.659111	99
Es	0.074223	-0.432142	0.015652	99
Es	-3.715700	-1.503896	0.542448	99
Es	3.084474	1.947819	-0.346800	99
Es	-1.574659	-0.619957	-0.335946	99
Es	-1.392709	0.242083	-0.091388	99
Es	-3.716774	-0.523442	-0.148828	99
Es	3.154962	1.641827	0.184603	99
Es	3.083136	1.843256	0.454700	99
Es	3.742160	1.454962	0.183616	99
Es	-2.709085	-1.207126	-0.050533	99
Es	-1.600410	-0.582896	0.244184	99
Es	-1.644853	-1.886655	0.035824	99
Es	2.490418	0.020849	-0.447899	99
Es	0.814235	0.790765	0.060755	99
Es	2.429032	0.043523	0.757168	99
Es	-3.463460	-1.205281	-0.076088	99
Es	2.303505	0.452909	0.145360	99
Es	1.557970	0.623974	0.101491	99
Es	-1.969310	-1.221795	-0.021623	99
Es	-0.523457	-0.289508	-0.017037	99
Es	0.335759	0.044711	0.027616	99
Es	0.678140	1.194270	-0.563429	99
Es	2.785186	1.122183	0.149398	99
Es	0.131898	-0.574176	-0.245754	99
Es	-3.675829	-1.615941	-0.644742	99
Es	-1.292941	-0.123179	-0.063551	99
Es	0.106850	-0.576146	0.284491	99
45
Properties=species:S:1:pos:R:3:Z:I:1 energy=-341.09960518883986 field_type=dipole dipole="0.000000 0.000000 0.000000" charge=0
C	-3.463526	-1.205259	-0.076090	6
C	-1.969256	-1.221779	-0.021620	6
N	-1.293166	-0.122589	-0.063600	7
O	0.074344	-0.432489	0.015670	8
C	0.814314	0.791001	0.060780	6
C	2.303464	0.452761	0.145360	6
N	3.154854	1.642171	0.185080	7
H	-3.794216	-1.812019	-0.923040	1
H	-3.840796	-0.185209	-0.184740	1
H	-3.855266	-1.645669	0.844000	1
H	-1.481346	-2.208939	0.063890	1
H	0.502695	1.370641	0.938280	1
H	0.604954	1.372371	-0.845590	1
H	2.587034	-0.171779	-0.709660	1
H	2.487604	-0.152839	1.039790	1
H	3.035834	2.176561	-0.675430	1
H	4.132464	1.353061	0.206920	1
Es	3.154958	1.641831	0.184628	99
Es	-1.292946	-0.123187	-0.063554	99
Es	3.084543	1.840753	0.449969	99
Es	0.074220	-0.432129	0.015645	99
Es	-2.708709	-1.207269	-0.050477	99
Es	0.604735	1.188689	0.658352	99
Es	0.107495	-0.578689	0.279725	99
Es	0.677959	1.194209	-0.562601	99
Es	-3.717001	-0.523939	-0.148809	99
Es	1.558147	0.623734	0.101347	99
Es	-1.969312	-1.221797	-0.021622	99
Es	0.814238	0.790766	0.060760	99
Es	-1.599799	-0.583531	0.243662	99
Es	-1.393666	0.242067	-0.091399	99
Es	0.338057	0.045541	0.027997	99
Es	2.490250	0.020958	-0.446873	99
Es	-3.715948	-1.503884	0.542155	99
Es	-1.644802	-1.886221	0.035749	99
Es	-3.675982	-1.615715	-0.644430	99
Es	0.129393	-0.570624	-0.242165	99
Es	-0.524241	-0.290369	-0.016379	99
Es	3.743175	1.457177	0.184872	99
Es	3.084257	1.949245	-0.344742	99
Es	2.428783	0.043588	0.756108	99
Es	2.303506	0.452910	0.145361	99
Es	-1.574209	-0.620581	-0.335285	99
Es	-3.463457	-1.205281	-0.076086	99
Es	2.783764	1.121588	0.150889	99
45
Properties=species:S:1:pos:R:3:Z:I:1 energy=-341.09960518883986 field_type=dipole dipole="0.000000 0.000000 0.000000" charge=0
C	-3.463526	-1.205259	-0.076090	6
C	-1.969256	-1.221779	-0.021620	6
N	-1.293166	-0.122589	-0.063600	7
O	0.074344	-0.432489	0.015670	8
C	0.814314	0.791001	0.060780	6
C	2.303464	0.452761	0.145360	6
N	3.154854	1.642171	0.185080	7
H	-3.794216	-1.812019	-0.923040	1
H	-3.840796	-0.185209	-0.184740	1
H	-3.855266	-1.645669	0.844000	1
H	-1.481346	-2.208939	0.063890	1
H	0.502695	1.370641	0.938280	1
H	0.604954	1.372371	-0.845590	1
H	2.587034	-0.171779	-0.709660	1
H	2.487604	-0.152839	1.039790	1
H	3.035834	2.176561	-0.675430	1
H	4.132464	1.353061	0.206920	1
Es	3.744021	1.458815	0.185884	99
Es	-3.717100	-0.524343	-0.148686	99
Es	-1.292942	-0.123181	-0.063553	99
Es	3.085622	1.838492	0.446152	99
Es	-1.644811	-1.885912	0.035569	99
Es	1.558273	0.623649	0.101629	99
Es	-3.715939	-1.503716	0.541950	99
Es	0.339818	0.045778	0.026591	99
Es	3.084055	1.950360	-0.342973	99
Es	-1.599433	-0.584131	0.243517	99
Es	-1.573728	-0.620894	-0.334466	99
Es	0.814237	0.790762	0.060762	99
Es	3.154952	1.641844	0.184642	99
Es	0.678004	1.193897	-0.562027	99
Es	0.127497	-0.568774	-0.238610	99
Es	-1.969312	-1.221797	-0.021621	99
Es	0.108000	-0.579246	0.276848	99
Es	-3.676283	-1.615710	-0.644300	99
Es	-2.708410	-1.207380	-0.050426	99
Es	2.428638	0.043859	0.755197	99
Es	2.303506	0.452910	0.145359	99
Es	-3.463457	-1.205281	-0.076086	99
Es	2.782515	1.121465	0.152018	99
Es	0.074250	-0.432196	0.015689	99
Es	-1.394544	0.241911	-0.091948	99
Es	0.604637	1.188799	0.657766	99
Es	2.490076	0.020868	-0.446367	99
Es	-0.524734	-0.291009	-0.015712	99
45
Properties=species:S:1:pos:R:3:Z:I:1 energy=-341.09960518883986 field_type=dipole dipole="0.000000 0.000000 0.000000" charge=0
C	-3.463526	-1.205259	-0.076090	6
C	-1.969256	-1.221779	-0.021620	6
N	-1.293166	-0.122589	-0.063600	7
O	0.074344	-0.432489	0.015670	8
C	0.814314	0.791001	0.060780	6
C	2.303464	0.452761	0.145360	6
N	3.154854	1.642171	0.185080	7
H	-3.794216	-1.812019	-0.923040	1
H	-3.840796	-0.185209	-0.184740	1
H	-3.855266	-1.645669	0.844000	1
H	-1.481346	-2.208939	0.063890	1
H	0.502695	1.370641	0.938280	1
H	0.604954	1.372371	-0.845590	1
H	2.587034	-0.171779	-0.709660	1
H	2.487604	-0.152839	1.039790	1
H	3.035834	2.176561	-0.675430	1
H	4.132464	1.353061	0.206920	1
Es	2.428578	0.044088	0.754543	99
Es	-1.644789	-1.885596	0.035589	99
Es	0.340882	0.046048	0.025713	99
Es	-2.708266	-1.207393	-0.050461	99
Es	-3.715963	-1.503694	0.541810	99
Es	3.084120	1.951038	-0.341738	99
Es	-1.573425	-0.621340	-0.334067	99
Es	0.814238	0.790765	0.060759	99
Es	0.604748	1.188665	0.657396	99
Es	3.744260	1.460100	0.186602	99
Es	2.489983	0.020903	-0.445647	99
Es	0.127399	-0.569689	-0.235604	99
Es	3.086241	1.837076	0.443825	99
Es	2.781979	1.121174	0.152358	99
Es	-1.969312	-1.221796	-0.021621	99
Es	2.303503	0.452914	0.145358	99
Es	0.107357	-0.577052	0.274583	99
Es	1.558191	0.623462	0.101573	99
Es	0.677903	1.193874	-0.561618	99
Es	-0.525244	-0.292068	-0.015602	99
Es	-3.463458	-1.205282	-0.076086	99
Es	3.154967	1.641801	0.184582	99
Es	-1.599016	-0.584468	0.243158	99
Es	-1.395120	0.242007	-0.091833	99
Es	-3.717283	-0.524679	-0.148652	99
Es	-1.292960	-0.123181	-0.063555	99
Es	-3.676327	-1.615707	-0.644196	99
Es	0.074221	-0.432130	0.015630	99
45
Properties=species:S:1:pos:R:3:Z:I:1 energy=-341.09960518883986 field_type=dipole dipole="0.000000 0.000000 0.000000" charge=0
C	-3.463526	-1.205259	-0.076090	6
C	-1.969256	-1.221779	-0.021620	6
N	-1.293166	-0.122589	-0.063600	7
O	0.074344	-0.432489	0.015670	8
C	0.814314	0.791001	0.060780	6
C	2.303464	0.452761	0.145360	6
N	3.154854	1.642171	0.185080	7
H	-3.794216	-1.812019	-0.923040	1
H	-3.840796	-0.185209	-0.184740	1
H	-3.855266	-1.645669	0.844000	1
H	-1.481346	-2.208939	0.063890	1
H	0.502695	1.370641	0.938280	1
H	0.604954	1.372371	-0.845590	1
H	2.587034	-0.171779	-0.709660	1
H	2.487604	-0.152839	1.039790	1
H	3.035834	2.176561	-0.675430	1
H	4.132464	1.353061	0.206920	1
Es	3.087156	1.834961	0.441678	99
Es	3.083721	1.952451	-0.340464	99
Es	1.558288	0.623275	0.101808	99
Es	0.108603	-0.579171	0.271487	99
Es	-3.716002	-1.503721	0.541691	99
Es	2.428581	0.044308	0.753828	99
Es	0.341682	0.046133	0.025899	99
Es	-1.395556	0.241747	-0.091578	99
Es	-1.573302	-0.621577	-0.334111	99
Es	0.814237	0.790764	0.060761	99
Es	-1.292950	-0.123183	-0.063554	99
Es	0.677973	1.193534	-0.561182	99
Es	0.604668	1.188848	0.657118	99
Es	-1.598655	-0.584788	0.243072	99
Es	3.154973	1.641799	0.184574	99
Es	0.125616	-0.566290	-0.234223	99
Es	-3.717289	-0.524896	-0.148509	99
Es	3.744527	1.461043	0.186989	99
Es	0.074216	-0.432129	0.015719	99
Es	2.781398	1.121221	0.152889	99
Es	-3.676410	-1.615624	-0.644246	99
Es	-2.708154	-1.207487	-0.050303	99
Es	2.303508	0.452908	0.145349	99
Es	-1.644796	-1.885389	0.035493	99
Es	-1.969312	-1.221798	-0.021623	99
Es	-0.525649	-0.292705	-0.014316	99
Es	-3.463458	-1.205281	-0.076086	99
Es	2.489796	0.020888	-0.445358	99
45
Properties=species:S:1:pos:R:3:Z:I:1 energy=-341.09960518883986 field_type=dipole dipole="0.000000 0.000000 0.000000" charge=0
C	-3.463526	-1.205259	-0.076090	6
C	-1.969256	-1.221779	-0.021620	6
N	-1.293166	-0.122589	-0.063600	7
O	0.074344	-0.432489	0.015670	8
C	0.814314	0.791001	0.060780	6
C	2.303464	0.452761	0.145360	6
N	3.154854	1.642171	0.185080	7
H	-3.794216	-1.812019	-0.923040	1
H	-3.840796	-0.185209	-0.184740	1
H	-3.855266	-1.645669	0.844000	1
H	-1.481346	-2.208939	0.063890	1
H	0.502695	1.370641	0.938280	1
H	0.604954	1.372371	-0.845590	1
H	2.587034	-0.171779	-0.709660	1
H	2.487604	-0.152839	1.039790	1
H	3.035834	2.176561	-0.675430	1
H	4.132464	1.353061	0.206920	1
Es	0.106887	-0.573813	0.270005	99
Es	1.558362	0.623224	0.101787	99
Es	-1.395932	0.241778	-0.091886	99
Es	-1.598493	-0.584890	0.242899	99
Es	0.074277	-0.432209	0.015616	99
Es	2.428575	0.044255	0.753460	99
Es	3.154973	1.641796	0.184563	99
Es	-1.969312	-1.221798	-0.021626	99
Es	-3.715842	-1.503475	0.541615	99
Es	2.303506	0.452911	0.145360	99
Es	-0.525996	-0.293768	-0.013807	99
Es	2.781087	1.120967	0.153594	99
Es	-2.708106	-1.207495	-0.050251	99
Es	0.604695	1.188760	0.656878	99
Es	-3.676561	-1.615891	-0.644159	99
Es	0.677913	1.193487	-0.560876	99
Es	3.088093	1.832556	0.439396	99
Es	-1.644722	-1.885262	0.035461	99
Es	0.342270	0.046233	0.024772	99
Es	-3.463458	-1.205281	-0.076086	99
Es	-1.573075	-0.621929	-0.333610	99
Es	2.489670	0.021093	-0.445064	99
Es	-3.717377	-0.525065	-0.148539	99
Es	-1.292926	-0.123173	-0.063552	99
Es	3.083192	1.954102	-0.339405	99
Es	0.814237	0.790764	0.060762	99
Es	3.744591	1.462184	0.187551	99
Es	0.126881	-0.570220	-0.232057	99
45
Properties=species:S:1:pos:R:3:Z:I:1 energy=-341.09960518883986 field_type=dipole dipole="0.000000 0.000000 0.000000" charge=0
C	-3.463526	-1.205259	-0.076090	6
C	-1.969256	-1.221779	-0.021620	6
N	-1.293166	-0.122589	-0.063600	7
O	0.074344	-0.432489	0.015670	8
C	0.814314	0.791001	0.060780	6
C	2.303464	0.452761	0.145360	6
N	3.154854	1.642171	0.185080	7
H	-3.794216	-1.812019	-0.923040	1
H	-3.840796	-0.185209	-0.184740	1
H	-3.855266	-1.645669	0.844000	1
H	-1.481346	-2.208939	0.063890	1
H	0.502695	1.370641	0.938280	1
H	0.604954	1.372371	-0.845590	1
H	2.587034	-0.171779	-0.709660	1
H	2.487604	-0.152839	1.039790	1
H	3.035834	2.176561	-0.675430	1
H	4.132464	1.353061	0.206920	1
Es	-1.969313	-1.221798	-0.021624	99
Es	-0.526463	-0.294902	-0.012364	99
Es	2.428339	0.044834	0.752908	99
Es	0.604672	1.188980	0.656767	99
Es	-3.463458	-1.205282	-0.076086	99
Es	2.489725	0.020674	-0.444877	99
Es	0.074188	-0.432082	0.015525	99
Es	0.677915	1.193135	-0.560436	99
Es	-1.292952	-0.123185	-0.063553	99
Es	-1.396230	0.241818	-0.091384	99
Es	-1.644813	-1.885055	0.035301	99
Es	0.814236	0.790764	0.060759	99
Es	-2.708003	-1.207417	-0.050153	99
Es	3.082716	1.955135	-0.337988	99
Es	0.110519	-0.582025	0.266133	99
Es	0.123411	-0.560726	-0.231544	99
Es	-3.715795	-1.503397	0.541569	99
Es	2.303506	0.452911	0.145358	99
Es	1.558488	0.623132	0.101700	99
Es	3.744357	1.462330	0.186332	99
Es	3.154978	1.641820	0.184588	99
Es	-3.676683	-1.615937	-0.644238	99
Es	2.780769	1.120985	0.153809	99
Es	-3.717410	-0.525366	-0.148422	99
Es	3.089267	1.831489	0.439046	99
Es	-1.572920	-0.621981	-0.333810	99
Es	-1.598091	-0.585414	0.242718	99
Es	0.342454	0.046401	0.026764	99
45
Properties=species:S:1:pos:R:3:Z:I:1 energy=-341.09960518883986 field_type=dipole dipole="0.000000 0.000000 0.000000" charge=0
C	-3.463526	-1.205259	-0.076090	6
C	-1.969256	-1.221779	-0.021620	6
N	-1.293166	-0.122589	-0.063600	7
O	0.074344	-0.432489	0.015670	8
C	0.814314	0.791001	0.060780	6
C	2.303464	0.452761	0.145360	6
N	3.154854	1.642171	0.185080	7
H	-3.794216	-1.812019	-0.923040	1
H	-3.840796	-0.185209	-0.184740	1
H	-3.855266	-1.645669	0.844000	1
H	-1.481346	-2.208939	0.063890	1
H	0.502695	1.370641	0.938280	1
H	0.604954	1.372371	-0.845590	1
H	2.587034	-0.171779	-0.709660	1
H	2.487604	-0.152839	1.039790	1
H	3.035834	2.176561	-0.675430	1
H	4.132464	1.353061	0.206920	1
Es	2.303506	0.452912	0.145361	99
Es	0.677796	1.193214	-0.560203	99
Es	-3.676552	-1.615866	-0.644260	99
Es	3.154964	1.641820	0.184607	99
Es	-3.463458	-1.205282	-0.076086	99
Es	2.428427	0.044766	0.752690	99
Es	0.106324	-0.571019	0.266711	99
Es	-1.969313	-1.221798	-0.021622	99
Es	-1.597967	-0.585594	0.242597	99
Es	3.089408	1.828629	0.436077	99
Es	-2.708045	-1.207644	-0.050082	99
Es	-3.715896	-1.503507	0.541547	99
Es	-1.644646	-1.884936	0.035376	99
Es	3.082379	1.956900	-0.337140	99
Es	0.343029	0.046311	0.024301	99
Es	0.074297	-0.432257	0.015657	99
Es	1.558539	0.623054	0.101723	99
Es	3.744821	1.463667	0.188231	99
Es	-1.572720	-0.622187	-0.333494	99
Es	0.126806	-0.570758	-0.229568	99
Es	0.814238	0.790763	0.060758	99
Es	0.604705	1.188737	0.656426	99
Es	-0.526509	-0.295016	-0.012638	99
Es	2.489672	0.020929	-0.444482	99
Es	-1.396607	0.241679	-0.091602	99
Es	2.780544	1.120891	0.153906	99
Es	-3.717388	-0.525383	-0.148441	99
Es	-1.292946	-0.123186	-0.063553	99
