39
Properties=species:S:1:pos:R:3:Z:I:1 energy=-338.75825939107335 field_type=dipole dipole="0.000000 0.000000 0.000000" charge=0
C	-2.152756	1.444638	0.687969	6
C	-1.312026	0.351748	0.108949	6
N	-0.024806	0.370608	0.228469	7
O	0.502444	-0.767062	-0.406321	8
C	1.929824	-0.738332	-0.291511	6
C	2.509654	-1.922722	-0.936371	6
N	2.986363	-2.853842	-1.442061	7
H	-2.868836	1.006908	1.388069	1
H	-2.705646	1.930718	-0.119861	1
H	-1.535066	2.181918	1.206379	1
H	-1.840306	-0.459282	-0.422971	1
H	2.203344	-0.717312	0.769389	1
H	2.307814	0.172018	-0.770131	1
Es	1.059624	-0.740483	-0.352357	99
Es	0.222425	0.607043	0.391267	99
Es	0.289430	-0.272666	-0.129937	99
Es	2.986177	-2.853474	-1.441861	99
Es	3.138444	-3.146790	-1.600722	99
Es	-1.718728	0.893975	0.397823	99
Es	2.509490	-1.922422	-0.936201	99
Es	2.674866	-2.332033	-1.489322	99
Es	-0.594539	0.212256	0.427215	99
Es	2.196987	-0.148088	-0.621326	99
Es	-2.152726	1.444570	0.687931	99
Es	-2.517335	1.759368	0.140063	99
Es	-2.627206	1.140056	1.151647	99
Es	-0.551858	0.512220	-0.073006	99
Es	0.401705	-1.005024	-0.238143	99
Es	0.502676	-0.766797	-0.406171	99
Es	-1.312043	0.351778	0.108964	99
Es	-1.666881	-0.189740	-0.246055	99
Es	1.929662	-0.738523	-0.291633	99
Es	3.041187	-2.328941	-1.096907	99
Es	-1.738848	1.936536	1.033999	99
Es	2.590147	-2.613266	-1.040546	99
Es	2.225028	-1.371047	-0.637194	99
Es	0.433002	-0.731738	-0.705650	99
Es	2.126829	-0.742940	0.407962	99
Es	-0.025158	0.370171	0.228170	99
39
Properties=species:S:1:pos:R:3:Z:I:1 energy=-338.75825939107335 field_type=dipole dipole="0.000000 0.000000 0.000000" charge=0
C	-2.152756	1.444638	0.687969	6
C	-1.312026	0.351748	0.108949	6
N	-0.024806	0.370608	0.228469	7
O	0.502444	-0.767062	-0.406321	8
C	1.929824	-0.738332	-0.291511	6
C	2.509654	-1.922722	-0.936371	6
N	2.986363	-2.853842	-1.442061	7
H	-2.868836	1.006908	1.388069	1
H	-2.705646	1.930718	-0.119861	1
H	-1.535066	2.181918	1.206379	1
H	-1.840306	-0.459282	-0.422971	1
H	2.203344	-0.717312	0.769389	1
H	2.307814	0.172018	-0.770131	1
Es	2.509497	-1.922424	-0.936197	99
Es	-1.741220	1.937477	1.034018	99
Es	-1.312053	0.351776	0.108968	99
Es	-1.717848	0.892125	0.396783	99
Es	0.502669	-0.766812	-0.406134	99
Es	2.666307	-2.605196	-0.999341	99
Es	-2.517337	1.758860	0.143197	99
Es	1.929653	-0.738526	-0.291632	99
Es	2.223602	-1.374284	-0.638159	99
Es	-0.594203	0.212900	0.424613	99
Es	-0.025147	0.370167	0.228174	99
Es	-2.152726	1.444570	0.687931	99
Es	0.286091	-0.271107	-0.129308	99
Es	-1.665293	-0.189415	-0.245574	99
Es	2.595089	-2.381973	-1.455236	99
Es	-0.552668	0.508865	-0.070837	99
Es	2.195730	-0.149421	-0.618397	99
Es	0.220736	0.608690	0.390823	99
Es	2.986179	-2.853476	-1.441862	99
Es	-2.627053	1.142793	1.150101	99
Es	0.432759	-0.735601	-0.695464	99
Es	2.125964	-0.740632	0.405228	99
Es	3.041262	-2.285046	-1.171861	99
Es	0.402342	-0.998347	-0.246717	99
Es	3.146332	-3.147661	-1.600884	99
Es	1.063691	-0.744306	-0.354223	99
39
Properties=species:S:1:pos:R:3:Z:I:1 energy=-338.75825939107335 field_type=dipole dipole="0.000000 0.000000 0.000000" charge=0
C	-2.152756	1.444638	0.687969	6
C	-1.312026	0.351748	0.108949	6
N	-0.024806	0.370608	0.228469	7
O	0.502444	-0.767062	-0.406321	8
C	1.929824	-0.738332	-0.291511	6
C	2.509654	-1.922722	-0.936371	6
N	2.986363	-2.853842	-1.442061	7
H	-2.868836	1.006908	1.388069	1
H	-2.705646	1.930718	-0.119861	1
H	-1.535066	2.181918	1.206379	1
H	-1.840306	-0.459282	-0.422971	1
H	2.203344	-0.717312	0.769389	1
H	2.307814	0.172018	-0.770131	1
Es	2.778524	-2.565307	-0.975879	99
Es	-1.717307	0.891247	0.396195	99
Es	-0.025121	0.370157	0.228173	99
Es	-2.152726	1.444570	0.687931	99
Es	0.284057	-0.270850	-0.129145	99
Es	-2.516780	1.758366	0.145196	99
Es	-1.312053	0.351777	0.108965	99
Es	0.219582	0.608626	0.391555	99
Es	-1.742776	1.937944	1.034160	99
Es	2.986178	-2.853475	-1.441861	99
Es	1.929650	-0.738527	-0.291631	99
Es	3.009341	-2.253528	-1.272163	99
Es	-2.627194	1.144115	1.148902	99
Es	-0.552508	0.508194	-0.069879	99
Es	1.065453	-0.747800	-0.354991	99
Es	2.509480	-1.922424	-0.936195	99
Es	2.224260	-1.375205	-0.638601	99
Es	3.151622	-3.147460	-1.599596	99
Es	0.403357	-0.992360	-0.252069	99
Es	-0.594414	0.213212	0.422519	99
Es	2.194714	-0.150669	-0.616322	99
Es	2.125493	-0.739567	0.403550	99
Es	0.502597	-0.766909	-0.406189	99
Es	2.510647	-2.453255	-1.379987	99
Es	0.432736	-0.737780	-0.689177	99
Es	-1.664458	-0.189094	-0.245452	99
39
Properties=species:S:1:pos:R:3:Z:I:1 energy=-338.75825939107335 field_type=dipole dipole="0.000000 0.000000 0.000000" charge=0
C	-2.152756	1.444638	0.687969	6
C	-1.312026	0.351748	0.108949	6
N	-0.024806	0.370608	0.228469	7
O	0.502444	-0.767062	-0.406321	8
C	1.929824	-0.738332	-0.291511	6
C	2.509654	-1.922722	-0.936371	6
N	2.986363	-2.853842	-1.442061	7
H	-2.868836	1.006908	1.388069	1
H	-2.705646	1.930718	-0.119861	1
H	-1.535066	2.181918	1.206379	1
H	-1.840306	-0.459282	-0.422971	1
H	2.203344	-0.717312	0.769389	1
H	2.307814	0.172018	-0.770131	1
Es	1.929661	-0.738518	-0.291634	99
Es	2.986179	-2.853474	-1.441860	99
Es	2.497729	-2.469640	-1.358078	99
Es	3.155166	-3.146502	-1.599203	99
Es	2.509477	-1.922416	-0.936201	99
Es	-0.594127	0.213472	0.421681	99
Es	0.218799	0.608732	0.391464	99
Es	2.795797	-2.551087	-0.987735	99
Es	-1.312055	0.351777	0.108966	99
Es	-1.663719	-0.188809	-0.245518	99
Es	-0.553043	0.507186	-0.069007	99
Es	0.282844	-0.270904	-0.129028	99
Es	-2.626555	1.144965	1.147961	99
Es	-0.025151	0.370158	0.228172	99
Es	0.430896	-0.741563	-0.686082	99
Es	-2.152726	1.444570	0.687931	99
Es	-2.516976	1.758064	0.146400	99
Es	2.125217	-0.738420	0.402098	99
Es	-1.717229	0.890820	0.395805	99
Es	3.002299	-2.252209	-1.282283	99
Es	-1.743728	1.938220	1.034354	99
Es	2.224716	-1.375729	-0.639104	99
Es	0.406144	-0.986150	-0.253843	99
Es	2.193865	-0.152076	-0.615095	99
Es	1.066200	-0.749686	-0.355924	99
Es	0.502676	-0.766782	-0.406226	99
39
Properties=species:S:1:pos:R:3:Z:I:1 energy=-338.75825939107335 field_type=dipole dipole="0.000000 0.000000 0.000000" charge=0
C	-2.152756	1.444638	0.687969	6
C	-1.312026	0.351748	0.108949	6
N	-0.024806	0.370608	0.228469	7
O	0.502444	-0.767062	-0.406321	8
C	1.929824	-0.738332	-0.291511	6
C	2.509654	-1.922722	-0.936371	6
N	2.986363	-2.853842	-1.442061	7
H	-2.868836	1.006908	1.388069	1
H	-2.705646	1.930718	-0.119861	1
H	-1.535066	2.181918	1.206379	1
H	-1.840306	-0.459282	-0.422971	1
H	2.203344	-0.717312	0.769389	1
H	2.307814	0.172018	-0.770131	1
Es	3.156488	-3.146092	-1.599792	99
Es	-0.025148	0.370146	0.228163	99
Es	-1.312056	0.351773	0.108971	99
Es	-1.744567	1.938097	1.034192	99
Es	0.440860	-0.730420	-0.673397	99
Es	2.509473	-1.922413	-0.936213	99
Es	0.217962	0.608023	0.391104	99
Es	-2.517090	1.758020	0.147063	99
Es	2.812527	-2.314526	-1.413306	99
Es	-0.594113	0.213577	0.421829	99
Es	2.193875	-0.151893	-0.613825	99
Es	2.487570	-2.559759	-1.200501	99
Es	2.224734	-1.375667	-0.640455	99
Es	0.282188	-0.270413	-0.129763	99
Es	2.986178	-2.853476	-1.441861	99
Es	-1.717142	0.890378	0.395678	99
Es	2.124365	-0.738576	0.400181	99
Es	-2.626075	1.145784	1.147461	99
Es	0.397001	-0.994682	-0.265066	99
Es	1.929651	-0.738526	-0.291633	99
Es	0.502681	-0.766846	-0.405996	99
Es	-0.552921	0.507387	-0.069297	99
Es	-1.663194	-0.188490	-0.245049	99
Es	-2.152726	1.444570	0.687931	99
Es	1.066490	-0.752435	-0.356536	99
Es	2.995343	-2.399544	-1.011873	99
39
Properties=species:S:1:pos:R:3:Z:I:1 energy=-338.75825939107335 field_type=dipole dipole="0.000000 0.000000 0.000000" charge=0
C	-2.152756	1.444638	0.687969	6
C	-1.312026	0.351748	0.108949	6
N	-0.024806	0.370608	0.228469	7
O	0.502444	-0.767062	-0.406321	8
C	1.929824	-0.738332	-0.291511	6
C	2.509654	-1.922722	-0.936371	6
N	2.986363	-2.853842	-1.442061	7
H	-2.868836	1.006908	1.388069	1
H	-2.705646	1.930718	-0.119861	1
H	-1.535066	2.181918	1.206379	1
H	-1.840306	-0.459282	-0.422971	1
H	2.203344	-0.717312	0.769389	1
H	2.307814	0.172018	-0.770131	1
Es	0.384927	-1.005902	-0.282991	99
Es	0.281788	-0.271361	-0.128181	99
Es	2.813007	-2.323876	-1.398539	99
Es	2.224714	-1.375963	-0.640737	99
Es	2.193064	-0.153470	-0.613319	99
Es	0.453929	-0.715415	-0.657703	99
Es	-2.625792	1.146202	1.147338	99
Es	-2.152724	1.444570	0.687931	99
Es	2.997016	-2.396714	-1.014118	99
Es	-1.745277	1.937793	1.033932	99
Es	0.502643	-0.766839	-0.406168	99
Es	-0.553528	0.508009	-0.069618	99
Es	-1.312054	0.351778	0.108965	99
Es	2.509470	-1.922413	-0.936209	99
Es	2.124581	-0.737654	0.399957	99
Es	-2.517164	1.758106	0.147536	99
Es	-0.025154	0.370151	0.228165	99
Es	2.986183	-2.853484	-1.441867	99
Es	2.484717	-2.553293	-1.213128	99
Es	1.929660	-0.738521	-0.291631	99
Es	3.157788	-3.145615	-1.599889	99
Es	-1.716898	0.890280	0.395609	99
Es	1.066416	-0.754710	-0.355563	99
Es	-1.662751	-0.187865	-0.245244	99
Es	0.217092	0.606684	0.390892	99
Es	-0.593299	0.213519	0.422589	99
39
Properties=species:S:1:pos:R:3:Z:I:1 energy=-338.75825939107335 field_type=dipole dipole="0.000000 0.000000 0.000000" charge=0
C	-2.152756	1.444638	0.687969	6
C	-1.312026	0.351748	0.108949	6
N	-0.024806	0.370608	0.228469	7
O	0.502444	-0.767062	-0.406321	8
C	1.929824	-0.738332	-0.291511	6
C	2.509654	-1.922722	-0.936371	6
N	2.986363	-2.853842	-1.442061	7
H	-2.868836	1.006908	1.388069	1
H	-2.705646	1.930718	-0.119861	1
H	-1.535066	2.181918	1.206379	1
H	-1.840306	-0.459282	-0.422971	1
H	2.203344	-0.717312	0.769389	1
H	2.307814	0.172018	-0.770131	1
Es	-1.312054	0.351777	0.108966	99
Es	2.986178	-2.853475	-1.441861	99
Es	0.502687	-0.766896	-0.405799	99
Es	2.224783	-1.376818	-0.639702	99
Es	1.929658	-0.738523	-0.291631	99
Es	-2.152728	1.444569	0.687931	99
Es	-1.745789	1.937957	1.033619	99
Es	0.407760	-0.778557	-0.684671	99
Es	0.281482	-0.269396	-0.131781	99
Es	3.013671	-2.257480	-1.254587	99
Es	-0.552588	0.507726	-0.069768	99
Es	3.158559	-3.146843	-1.597171	99
Es	2.493208	-2.477108	-1.344619	99
Es	1.066747	-0.753282	-0.361598	99
Es	-2.515973	1.757608	0.148370	99
Es	-0.025150	0.370139	0.228159	99
Es	2.787593	-2.537604	-1.029679	99
Es	2.193425	-0.152592	-0.612313	99
Es	2.509459	-1.922426	-0.936199	99
Es	-0.594220	0.213776	0.423164	99
Es	-1.662458	-0.188185	-0.244029	99
Es	2.123716	-0.738354	0.397777	99
Es	0.431209	-0.945919	-0.246213	99
Es	-2.626754	1.146661	1.147152	99
Es	0.216772	0.607050	0.389118	99
Es	-1.716839	0.890195	0.395376	99
39
Properties=species:S:1:pos:R:3:Z:I:1 energy=-338.75825939107335 field_type=dipole dipole="0.000000 0.000000 0.000000" charge=0
C	-2.152756	1.444638	0.687969	6
C	-1.312026	0.351748	0.108949	6
N	-0.024806	0.370608	0.228469	7
O	0.502444	-0.767062	-0.406321	8
C	1.929824	-0.738332	-0.291511	6
C	2.509654	-1.922722	-0.936371	6
N	2.986363	-2.853842	-1.442061	7
H	-2.868836	1.006908	1.388069	1
H	-2.705646	1.930718	-0.119861	1
H	-1.535066	2.181918	1.206379	1
H	-1.840306	-0.459282	-0.422971	1
H	2.203344	-0.717312	0.769389	1
H	2.307814	0.172018	-0.770131	1
Es	-1.662128	-0.187390	-0.244810	99
Es	1.066286	-0.757177	-0.357544	99
Es	-0.025150	0.370136	0.228167	99
Es	0.216030	0.605231	0.390796	99
Es	2.224981	-1.376327	-0.640830	99
Es	0.281153	-0.271229	-0.128574	99
Es	0.502689	-0.766789	-0.406071	99
Es	-1.312055	0.351778	0.108965	99
Es	1.929651	-0.738526	-0.291635	99
Es	2.483461	-2.548753	-1.220614	99
Es	-1.716752	0.890016	0.395507	99
Es	0.385943	-1.001725	-0.285670	99
Es	2.192471	-0.154747	-0.612167	99
Es	-0.552272	0.509176	-0.069865	99
Es	2.807299	-2.339151	-1.380213	99
Es	-2.152727	1.444571	0.687930	99
Es	3.159267	-3.145303	-1.599584	99
Es	2.986184	-2.853484	-1.441865	99
Es	2.124217	-0.737100	0.398353	99
Es	2.509457	-1.922418	-0.936211	99
Es	0.454159	-0.716539	-0.652304	99
Es	-0.594309	0.213246	0.422358	99
Es	-1.746251	1.937685	1.033874	99
Es	-2.625721	1.146927	1.146638	99
Es	3.003216	-2.386003	-1.025108	99
Es	-2.516742	1.757893	0.148488	99
39
Properties=species:S:1:pos:R:3:Z:I:1 energy=-338.75825939107335 field_type=dipole dipole="0.000000 0.000000 0.000000" charge=0
C	-2.152756	1.444638	0.687969	6
C	-1.312026	0.351748	0.108949	6
N	-0.024806	0.370608	0.228469	7
O	0.502444	-0.767062	-0.406321	8
C	1.929824	-0.738332	-0.291511	6
C	2.509654	-1.922722	-0.936371	6
N	2.986363	-2.853842	-1.442061	7
H	-2.868836	1.006908	1.388069	1
H	-2.705646	1.930718	-0.119861	1
H	-1.535066	2.181918	1.206379	1
H	-1.840306	-0.459282	-0.422971	1
H	2.203344	-0.717312	0.769389	1
H	2.307814	0.172018	-0.770131	1
Es	-0.025159	0.370145	0.228171	99
Es	0.505597	-0.756604	-0.410671	99
Es	-2.626097	1.146828	1.150203	99
Es	0.326886	-0.991506	-0.515064	99
Es	-1.312053	0.351777	0.108965	99
Es	1.929651	-0.738526	-0.291635	99
Es	2.484277	-2.522344	-1.269763	99
Es	-0.593721	0.211386	0.430014	99
Es	0.512778	-0.733112	-0.415986	99
Es	0.279753	-0.271776	-0.128809	99
Es	-2.517087	1.761112	0.146768	99
Es	-0.550721	0.514940	-0.074800	99
Es	2.908205	-2.484008	-0.969428	99
Es	3.161858	-3.143688	-1.598329	99
Es	-1.716059	0.890632	0.396053	99
Es	0.213127	0.599334	0.386909	99
Es	2.124657	-0.737434	0.399712	99
Es	2.900012	-2.268274	-1.387984	99
Es	-2.152727	1.444572	0.687931	99
Es	-1.661656	-0.185428	-0.243798	99
Es	1.066226	-0.760428	-0.359417	99
Es	2.986178	-2.853474	-1.441861	99
Es	2.509444	-1.922430	-0.936213	99
Es	-1.746881	1.933485	1.031252	99
Es	2.223111	-1.377063	-0.641224	99
Es	2.192755	-0.154116	-0.612985	99
39
Properties=species:S:1:pos:R:3:Z:I:1 energy=-338.75825939107335 field_type=dipole dipole="0.000000 0.000000 0.000000" charge=0
C	-2.152756	1.444638	0.687969	6
C	-1.312026	0.351748	0.108949	6
N	-0.024806	0.370608	0.228469	7
O	0.502444	-0.767062	-0.406321	8
C	1.929824	-0.738332	-0.291511	6
C	2.509654	-1.922722	-0.936371	6
N	2.986363	-2.853842	-1.442061	7
H	-2.868836	1.006908	1.388069	1
H	-2.705646	1.930718	-0.119861	1
H	-1.535066	2.181918	1.206379	1
H	-1.840306	-0.459282	-0.422971	1
H	2.203344	-0.717312	0.769389	1
H	2.307814	0.172018	-0.770131	1
Es	2.799413	-2.532290	-1.025528	99
Es	2.490468	-2.485061	-1.331156	99
Es	0.214782	0.604770	0.385352	99
Es	0.502736	-0.766503	-0.406449	99
Es	-2.627151	1.147558	1.147889	99
Es	-0.593867	0.213727	0.427097	99
Es	3.003574	-2.254717	-1.273242	99
Es	-1.746868	1.936738	1.032264	99
Es	3.160527	-3.146894	-1.595116	99
Es	2.986178	-2.853475	-1.441861	99
Es	2.224575	-1.377523	-0.639626	99
Es	2.122170	-0.739841	0.393652	99
Es	-1.661799	-0.187439	-0.242668	99
Es	-0.552133	0.509112	-0.071565	99
Es	0.281045	-0.268099	-0.134566	99
Es	0.374444	-0.840393	-0.667471	99
Es	2.194182	-0.151125	-0.610159	99
Es	1.066264	-0.756770	-0.364881	99
Es	-1.312054	0.351777	0.108967	99
Es	1.929654	-0.738524	-0.291636	99
Es	-0.025163	0.370142	0.228166	99
Es	-2.515411	1.758033	0.148764	99
Es	-1.716344	0.890187	0.395561	99
Es	-2.152726	1.444572	0.687932	99
Es	0.466404	-0.881545	-0.255499	99
Es	2.509454	-1.922423	-0.936211	99
