41
Properties=species:S:1:pos:R:3:Z:I:1 energy=-359.7993028903527 field_type=dipole dipole="0.000000 0.000000 0.000000" charge=0
C	-0.846187	2.331046	1.690656	6
C	-0.743497	0.966436	1.086306	6
N	0.122113	0.718126	0.162306	7
O	0.004033	-0.629434	-0.227064	8
C	0.902353	-0.916214	-1.227464	6
C	0.755083	-2.359684	-1.609964	6
O	1.717503	-0.158984	-1.739364	8
H	-0.684347	2.253606	2.769116	1
H	-1.852657	2.720296	1.515406	1
H	-0.108627	3.010256	1.255996	1
H	-1.438567	0.197626	1.465176	1
H	1.103143	-2.994654	-0.792504	1
H	1.358343	-2.561234	-2.499163	1
H	-0.288687	-2.577184	-1.849444	1
Es	0.375021	0.920628	-0.005293	99
Es	0.057170	-0.058304	-0.064822	99
Es	0.121666	0.717708	0.162591	99
Es	-0.251437	-0.670001	-0.365679	99
Es	-1.522654	2.577918	1.568994	99
Es	1.867632	-0.319620	-1.950044	99
Es	-0.846200	2.330962	1.690637	99
Es	-0.445207	0.892111	0.353893	99
Es	1.717225	0.125452	-1.628538	99
Es	1.258795	-0.349730	-1.731942	99
Es	0.755076	-2.359620	-1.609928	99
Es	-0.743501	0.966466	1.086325	99
Es	-0.354851	2.782525	1.400767	99
Es	0.902165	-0.916160	-1.227260	99
Es	0.105446	-0.802030	-0.014400	99
Es	-0.787673	1.640646	1.379345	99
Es	0.355582	-0.697518	-0.604646	99
Es	1.717291	-0.159168	-1.739241	99
Es	1.603395	-0.484738	-1.383372	99
Es	1.159318	-2.492880	-2.201894	99
Es	-0.055118	0.740642	0.759807	99
Es	0.055783	-2.495409	-1.760736	99
Es	-0.738869	2.265091	2.410423	99
Es	0.817569	-1.637974	-1.412459	99
Es	0.983945	-2.767985	-1.057222	99
Es	0.004287	-0.629211	-0.227203	99
Es	-1.211334	0.451050	1.342259	99
41
Properties=species:S:1:pos:R:3:Z:I:1 energy=-359.7993028903527 field_type=dipole dipole="0.000000 0.000000 0.000000" charge=0
C	-0.846187	2.331046	1.690656	6
C	-0.743497	0.966436	1.086306	6
N	0.122113	0.718126	0.162306	7
O	0.004033	-0.629434	-0.227064	8
C	0.902353	-0.916214	-1.227464	6
C	0.755083	-2.359684	-1.609964	6
O	1.717503	-0.158984	-1.739364	8
H	-0.684347	2.253606	2.769116	1
H	-1.852657	2.720296	1.515406	1
H	-0.108627	3.010256	1.255996	1
H	-1.438567	0.197626	1.465176	1
H	1.103143	-2.994654	-0.792504	1
H	1.358343	-2.561234	-2.499163	1
H	-0.288687	-2.577184	-1.849444	1
Es	-1.521656	2.576643	1.570399	99
Es	0.371875	-0.707270	-0.595594	99
Es	-0.210243	-0.641595	-0.390384	99
Es	1.261468	-0.348831	-1.725474	99
Es	0.055851	-2.496219	-1.757694	99
Es	-0.740404	2.264871	2.409038	99
Es	0.048467	-0.819525	-0.002505	99
Es	1.162161	-2.494826	-2.204643	99
Es	0.981512	-2.764443	-1.059814	99
Es	0.902166	-0.916163	-1.227252	99
Es	0.817222	-1.638617	-1.410280	99
Es	1.597900	-0.478416	-1.386634	99
Es	-1.212075	0.450430	1.342572	99
Es	1.717310	-0.159179	-1.739253	99
Es	1.886062	-0.313419	-1.963394	99
Es	-0.442769	0.889063	0.357292	99
Es	0.755077	-2.359621	-1.609928	99
Es	0.121652	0.717704	0.162592	99
Es	-0.743513	0.966473	1.086335	99
Es	-0.846202	2.330963	1.690638	99
Es	0.056330	-0.058783	-0.060686	99
Es	-0.060777	0.739725	0.756464	99
Es	-0.788338	1.639822	1.379553	99
Es	0.378708	0.924837	-0.005482	99
Es	0.004311	-0.629178	-0.227251	99
Es	1.701859	0.111868	-1.618400	99
Es	-0.353435	2.784539	1.400143	99
41
Properties=species:S:1:pos:R:3:Z:I:1 energy=-359.7993028903527 field_type=dipole dipole="0.000000 0.000000 0.000000" charge=0
C	-0.846187	2.331046	1.690656	6
C	-0.743497	0.966436	1.086306	6
N	0.122113	0.718126	0.162306	7
O	0.004033	-0.629434	-0.227064	8
C	0.902353	-0.916214	-1.227464	6
C	0.755083	-2.359684	-1.609964	6
O	1.717503	-0.158984	-1.739364	8
H	-0.684347	2.253606	2.769116	1
H	-1.852657	2.720296	1.515406	1
H	-0.108627	3.010256	1.255996	1
H	-1.438567	0.197626	1.465176	1
H	1.103143	-2.994654	-0.792504	1
H	1.358343	-2.561234	-2.499163	1
H	-0.288687	-2.577184	-1.849444	1
Es	1.695910	0.100605	-1.614261	99
Es	-1.212337	0.450877	1.342190	99
Es	1.163489	-2.495453	-2.205211	99
Es	-0.110369	-0.850057	-0.024504	99
Es	-0.443756	0.888922	0.357616	99
Es	0.385323	-0.719140	-0.582017	99
Es	-0.353279	2.784000	1.400310	99
Es	1.258680	-0.347895	-1.723465	99
Es	-0.740235	2.264729	2.408996	99
Es	0.055187	-2.496446	-1.756658	99
Es	0.057997	-0.059638	-0.054959	99
Es	0.755074	-2.359620	-1.609930	99
Es	-0.066478	-0.597649	-0.388292	99
Es	-0.743510	0.966469	1.086336	99
Es	0.379134	0.924985	-0.004848	99
Es	-1.522115	2.577028	1.570187	99
Es	0.980832	-2.762568	-1.060796	99
Es	1.894210	-0.305109	-1.967742	99
Es	1.598920	-0.476823	-1.388212	99
Es	-0.788497	1.639875	1.379635	99
Es	0.817002	-1.639322	-1.410031	99
Es	-0.846201	2.330962	1.690638	99
Es	0.004664	-0.629249	-0.227063	99
Es	1.717295	-0.159201	-1.739249	99
Es	0.121664	0.717692	0.162577	99
Es	0.902158	-0.916159	-1.227257	99
Es	-0.060240	0.739031	0.756369	99
41
Properties=species:S:1:pos:R:3:Z:I:1 energy=-359.7993028903527 field_type=dipole dipole="0.000000 0.000000 0.000000" charge=0
C	-0.846187	2.331046	1.690656	6
C	-0.743497	0.966436	1.086306	6
N	0.122113	0.718126	0.162306	7
O	0.004033	-0.629434	-0.227064	8
C	0.902353	-0.916214	-1.227464	6
C	0.755083	-2.359684	-1.609964	6
O	1.717503	-0.158984	-1.739364	8
H	-0.684347	2.253606	2.769116	1
H	-1.852657	2.720296	1.515406	1
H	-0.108627	3.010256	1.255996	1
H	-1.438567	0.197626	1.465176	1
H	1.103143	-2.994654	-0.792504	1
H	1.358343	-2.561234	-2.499163	1
H	-0.288687	-2.577184	-1.849444	1
Es	0.072555	-0.624058	-0.275944	99
Es	1.262287	-0.346840	-1.723986	99
Es	0.050526	-0.056048	-0.061507	99
Es	-0.444499	0.888855	0.356439	99
Es	1.896245	-0.304336	-1.969884	99
Es	0.056488	-2.495034	-1.756813	99
Es	0.902161	-0.916161	-1.227257	99
Es	-0.743512	0.966471	1.086332	99
Es	0.816741	-1.640095	-1.410117	99
Es	0.004594	-0.629227	-0.227062	99
Es	-0.846200	2.330961	1.690637	99
Es	-0.059343	0.738959	0.757814	99
Es	-0.739762	2.264836	2.409929	99
Es	-0.788379	1.640192	1.379570	99
Es	0.359239	-0.712353	-0.615478	99
Es	0.377899	0.924722	-0.005449	99
Es	-1.211744	0.451085	1.342632	99
Es	-1.522307	2.577113	1.569553	99
Es	1.691870	0.096893	-1.618358	99
Es	0.121663	0.717704	0.162580	99
Es	1.596647	-0.474942	-1.382321	99
Es	-0.353899	2.783293	1.400155	99
Es	-0.214931	-0.833583	-0.096797	99
Es	0.980473	-2.763500	-1.059036	99
Es	0.755077	-2.359621	-1.609929	99
Es	1.163360	-2.495235	-2.206126	99
Es	1.717272	-0.159198	-1.739218	99
41
Properties=species:S:1:pos:R:3:Z:I:1 energy=-359.7993028903527 field_type=dipole dipole="0.000000 0.000000 0.000000" charge=0
C	-0.846187	2.331046	1.690656	6
C	-0.743497	0.966436	1.086306	6
N	0.122113	0.718126	0.162306	7
O	0.004033	-0.629434	-0.227064	8
C	0.902353	-0.916214	-1.227464	6
C	0.755083	-2.359684	-1.609964	6
O	1.717503	-0.158984	-1.739364	8
H	-0.684347	2.253606	2.769116	1
H	-1.852657	2.720296	1.515406	1
H	-0.108627	3.010256	1.255996	1
H	-1.438567	0.197626	1.465176	1
H	1.103143	-2.994654	-0.792504	1
H	1.358343	-2.561234	-2.499163	1
H	-0.288687	-2.577184	-1.849444	1
Es	0.050991	-0.056363	-0.061552	99
Es	1.262796	-0.344795	-1.722508	99
Es	-0.743512	0.966471	1.086335	99
Es	0.121664	0.717699	0.162578	99
Es	0.364049	-0.714342	-0.610958	99
Es	-0.059946	0.738726	0.757327	99
Es	-1.211707	0.450977	1.342718	99
Es	-1.522117	2.576927	1.569816	99
Es	0.979865	-2.762568	-1.059568	99
Es	1.717283	-0.159195	-1.739226	99
Es	0.065713	-0.621299	-0.283018	99
Es	-0.353856	2.783527	1.399992	99
Es	1.164011	-2.495686	-2.206662	99
Es	1.898944	-0.299380	-1.973417	99
Es	0.816477	-1.640375	-1.409692	99
Es	0.004528	-0.629204	-0.227101	99
Es	-0.739862	2.264833	2.409829	99
Es	-0.788539	1.640129	1.379578	99
Es	0.056840	-2.495188	-1.756082	99
Es	1.595790	-0.475636	-1.383110	99
Es	-0.846200	2.330963	1.690638	99
Es	-0.444167	0.887935	0.357328	99
Es	0.377791	0.925741	-0.005559	99
Es	-0.212958	-0.833724	-0.094462	99
Es	0.755076	-2.359620	-1.609930	99
Es	1.689409	0.090460	-1.615677	99
Es	0.902156	-0.916161	-1.227257	99
41
Properties=species:S:1:pos:R:3:Z:I:1 energy=-359.7993028903527 field_type=dipole dipole="0.000000 0.000000 0.000000" charge=0
C	-0.846187	2.331046	1.690656	6
C	-0.743497	0.966436	1.086306	6
N	0.122113	0.718126	0.162306	7
O	0.004033	-0.629434	-0.227064	8
C	0.902353	-0.916214	-1.227464	6
C	0.755083	-2.359684	-1.609964	6
O	1.717503	-0.158984	-1.739364	8
H	-0.684347	2.253606	2.769116	1
H	-1.852657	2.720296	1.515406	1
H	-0.108627	3.010256	1.255996	1
H	-1.438567	0.197626	1.465176	1
H	1.103143	-2.994654	-0.792504	1
H	1.358343	-2.561234	-2.499163	1
H	-0.288687	-2.577184	-1.849444	1
Es	0.378098	0.926234	-0.005494	99
Es	-0.740042	2.264816	2.409408	99
Es	1.901195	-0.300041	-1.974199	99
Es	-1.211728	0.450951	1.342659	99
Es	-0.353661	2.783794	1.400033	99
Es	0.056593	-2.495661	-1.755282	99
Es	-0.203862	-0.836654	-0.085776	99
Es	0.365548	-0.714584	-0.609810	99
Es	-0.060660	0.738594	0.757039	99
Es	0.755076	-2.359622	-1.609928	99
Es	-1.522075	2.576863	1.570137	99
Es	0.816586	-1.640459	-1.409177	99
Es	0.055624	-0.617574	-0.293166	99
Es	-0.743512	0.966471	1.086334	99
Es	1.690005	0.085979	-1.615671	99
Es	-0.443789	0.887464	0.357627	99
Es	0.979347	-2.761260	-1.060774	99
Es	0.902159	-0.916160	-1.227257	99
Es	0.051025	-0.056924	-0.060788	99
Es	0.121652	0.717705	0.162592	99
Es	0.004100	-0.629051	-0.227523	99
Es	1.593012	-0.473790	-1.383044	99
Es	1.262784	-0.341621	-1.721802	99
Es	1.717275	-0.159199	-1.739219	99
Es	-0.788723	1.639971	1.379604	99
Es	1.164696	-2.496353	-2.206800	99
Es	-0.846200	2.330961	1.690637	99
41
Properties=species:S:1:pos:R:3:Z:I:1 energy=-359.7993028903527 field_type=dipole dipole="0.000000 0.000000 0.000000" charge=0
C	-0.846187	2.331046	1.690656	6
C	-0.743497	0.966436	1.086306	6
N	0.122113	0.718126	0.162306	7
O	0.004033	-0.629434	-0.227064	8
C	0.902353	-0.916214	-1.227464	6
C	0.755083	-2.359684	-1.609964	6
O	1.717503	-0.158984	-1.739364	8
H	-0.684347	2.253606	2.769116	1
H	-1.852657	2.720296	1.515406	1
H	-0.108627	3.010256	1.255996	1
H	-1.438567	0.197626	1.465176	1
H	1.103143	-2.994654	-0.792504	1
H	1.358343	-2.561234	-2.499163	1
H	-0.288687	-2.577184	-1.849444	1
Es	1.687772	0.083006	-1.617677	99
Es	-0.788892	1.639739	1.379684	99
Es	-0.061326	0.738371	0.756676	99
Es	0.978773	-2.760487	-1.061377	99
Es	0.902151	-0.916155	-1.227261	99
Es	1.902233	-0.299507	-1.975719	99
Es	0.755077	-2.359620	-1.609930	99
Es	-0.740272	2.264976	2.409403	99
Es	0.028792	-0.622358	-0.263171	99
Es	0.035928	-0.625985	-0.252552	99
Es	0.057074	-2.495821	-1.754635	99
Es	-1.521756	2.576709	1.570229	99
Es	-1.211808	0.450982	1.342832	99
Es	-0.206781	-0.835569	-0.088807	99
Es	1.262377	-0.342529	-1.718844	99
Es	1.165155	-2.496792	-2.207186	99
Es	0.121653	0.717708	0.162592	99
Es	0.816333	-1.640620	-1.408744	99
Es	0.050068	-0.056804	-0.061214	99
Es	0.364460	-0.713848	-0.611231	99
Es	-0.846200	2.330962	1.690637	99
Es	-0.353513	2.783879	1.399776	99
Es	0.378596	0.926647	-0.005376	99
Es	1.594478	-0.470488	-1.382583	99
Es	1.717316	-0.159192	-1.739247	99
Es	-0.443652	0.887178	0.357752	99
Es	-0.743513	0.966471	1.086334	99
41
Properties=species:S:1:pos:R:3:Z:I:1 energy=-359.7993028903527 field_type=dipole dipole="0.000000 0.000000 0.000000" charge=0
C	-0.846187	2.331046	1.690656	6
C	-0.743497	0.966436	1.086306	6
N	0.122113	0.718126	0.162306	7
O	0.004033	-0.629434	-0.227064	8
C	0.902353	-0.916214	-1.227464	6
C	0.755083	-2.359684	-1.609964	6
O	1.717503	-0.158984	-1.739364	8
H	-0.684347	2.253606	2.769116	1
H	-1.852657	2.720296	1.515406	1
H	-0.108627	3.010256	1.255996	1
H	-1.438567	0.197626	1.465176	1
H	1.103143	-2.994654	-0.792504	1
H	1.358343	-2.561234	-2.499163	1
H	-0.288687	-2.577184	-1.849444	1
Es	-0.060981	0.738391	0.756522	99
Es	0.902157	-0.916158	-1.227255	99
Es	-0.740371	2.264931	2.409278	99
Es	0.049174	-0.056651	-0.062109	99
Es	1.165516	-2.497098	-2.207308	99
Es	1.263443	-0.342512	-1.718443	99
Es	1.903915	-0.297657	-1.976539	99
Es	-0.207110	-0.835201	-0.089167	99
Es	0.364496	-0.713867	-0.611311	99
Es	0.061694	-0.620097	-0.285111	99
Es	-0.789018	1.639697	1.379547	99
Es	-0.443676	0.886603	0.358486	99
Es	0.978373	-2.759853	-1.062227	99
Es	0.121654	0.717704	0.162591	99
Es	0.816423	-1.640666	-1.408192	99
Es	0.004327	-0.628588	-0.229383	99
Es	1.685883	0.080465	-1.617383	99
Es	-0.353573	2.784052	1.399958	99
Es	0.378175	0.927081	-0.005794	99
Es	-0.743510	0.966470	1.086336	99
Es	1.593594	-0.469863	-1.382531	99
Es	-1.521671	2.576695	1.570355	99
Es	-1.211679	0.450905	1.342738	99
Es	1.717283	-0.159208	-1.739238	99
Es	-0.846200	2.330961	1.690637	99
Es	0.755076	-2.359621	-1.609929	99
Es	0.057126	-2.496066	-1.754167	99
41
Properties=species:S:1:pos:R:3:Z:I:1 energy=-359.7993028903527 field_type=dipole dipole="0.000000 0.000000 0.000000" charge=0
C	-0.846187	2.331046	1.690656	6
C	-0.743497	0.966436	1.086306	6
N	0.122113	0.718126	0.162306	7
O	0.004033	-0.629434	-0.227064	8
C	0.902353	-0.916214	-1.227464	6
C	0.755083	-2.359684	-1.609964	6
O	1.717503	-0.158984	-1.739364	8
H	-0.684347	2.253606	2.769116	1
H	-1.852657	2.720296	1.515406	1
H	-0.108627	3.010256	1.255996	1
H	-1.438567	0.197626	1.465176	1
H	1.103143	-2.994654	-0.792504	1
H	1.358343	-2.561234	-2.499163	1
H	-0.288687	-2.577184	-1.849444	1
Es	0.977975	-2.758885	-1.062946	99
Es	0.366201	-0.714387	-0.609708	99
Es	0.057165	-2.496355	-1.753594	99
Es	-0.353484	2.784188	1.399887	99
Es	0.816350	-1.640705	-1.408020	99
Es	-0.061516	0.738214	0.756352	99
Es	1.165948	-2.497680	-2.207329	99
Es	-0.743509	0.966470	1.086337	99
Es	-0.202810	-0.836427	-0.084923	99
Es	0.049694	-0.057017	-0.061685	99
Es	1.593725	-0.468347	-1.382968	99
Es	-0.789046	1.639500	1.379701	99
Es	0.121652	0.717707	0.162591	99
Es	1.686252	0.078371	-1.617926	99
Es	0.005519	-0.629295	-0.227253	99
Es	-1.211726	0.450910	1.342725	99
Es	0.755077	-2.359619	-1.609929	99
Es	0.054180	-0.617151	-0.293563	99
Es	0.902159	-0.916160	-1.227254	99
Es	-0.846202	2.330961	1.690635	99
Es	1.262493	-0.341557	-1.717037	99
Es	-1.521356	2.576510	1.570283	99
Es	1.904345	-0.298099	-1.977002	99
Es	1.717299	-0.159219	-1.739252	99
Es	0.378340	0.927353	-0.005575	99
Es	-0.740727	2.265173	2.409279	99
Es	-0.443480	0.886396	0.358534	99
41
Properties=species:S:1:pos:R:3:Z:I:1 energy=-359.7993028903527 field_type=dipole dipole="0.000000 0.000000 0.000000" charge=0
C	-0.846187	2.331046	1.690656	6
C	-0.743497	0.966436	1.086306	6
N	0.122113	0.718126	0.162306	7
O	0.004033	-0.629434	-0.227064	8
C	0.902353	-0.916214	-1.227464	6
C	0.755083	-2.359684	-1.609964	6
O	1.717503	-0.158984	-1.739364	8
H	-0.684347	2.253606	2.769116	1
H	-1.852657	2.720296	1.515406	1
H	-0.108627	3.010256	1.255996	1
H	-1.438567	0.197626	1.465176	1
H	1.103143	-2.994654	-0.792504	1
H	1.358343	-2.561234	-2.499163	1
H	-0.288687	-2.577184	-1.849444	1
Es	1.717310	-0.159178	-1.739256	99
Es	-0.846201	2.330962	1.690637	99
Es	1.166256	-2.497877	-2.207412	99
Es	-0.443593	0.886050	0.358931	99
Es	0.049279	-0.057001	-0.062190	99
Es	-1.211763	0.450932	1.342839	99
Es	0.816261	-1.640724	-1.407517	99
Es	0.059575	-0.618677	-0.289407	99
Es	-0.743513	0.966471	1.086334	99
Es	0.977632	-2.758382	-1.063615	99
Es	0.121657	0.717692	0.162585	99
Es	-0.205327	-0.835392	-0.087333	99
Es	0.057428	-2.496652	-1.753244	99
Es	0.378372	0.927667	-0.005513	99
Es	-0.740608	2.265130	2.408933	99
Es	-1.521443	2.576553	1.570646	99
Es	0.365125	-0.713948	-0.610972	99
Es	0.004268	-0.629134	-0.227306	99
Es	0.755079	-2.359622	-1.609928	99
Es	-0.061599	0.738154	0.755965	99
Es	0.902164	-0.916161	-1.227250	99
Es	1.905192	-0.298442	-1.977200	99
Es	1.590881	-0.467783	-1.380891	99
Es	1.264810	-0.339808	-1.718041	99
Es	-0.353402	2.784273	1.399794	99
Es	-0.789122	1.639401	1.379682	99
Es	1.685802	0.076347	-1.618912	99
41
Properties=species:S:1:pos:R:3:Z:I:1 energy=-359.7993028903527 field_type=dipole dipole="0.000000 0.000000 0.000000" charge=0
C	-0.846187	2.331046	1.690656	6
C	-0.743497	0.966436	1.086306	6
N	0.122113	0.718126	0.162306	7
O	0.004033	-0.629434	-0.227064	8
C	0.902353	-0.916214	-1.227464	6
C	0.755083	-2.359684	-1.609964	6
O	1.717503	-0.158984	-1.739364	8
H	-0.684347	2.253606	2.769116	1
H	-1.852657	2.720296	1.515406	1
H	-0.108627	3.010256	1.255996	1
H	-1.438567	0.197626	1.465176	1
H	1.103143	-2.994654	-0.792504	1
H	1.358343	-2.561234	-2.499163	1
H	-0.288687	-2.577184	-1.849444	1
Es	-1.211741	0.450868	1.342813	99
Es	0.365381	-0.714030	-0.610820	99
Es	-0.443164	0.885887	0.358902	99
Es	-0.062296	0.738024	0.755883	99
Es	0.977460	-2.757510	-1.064476	99
Es	1.905310	-0.299857	-1.977262	99
Es	1.265270	-0.338412	-1.717746	99
Es	0.004631	-0.629238	-0.227125	99
Es	0.755077	-2.359621	-1.609929	99
Es	0.057535	-2.497280	-1.752663	99
Es	-1.521370	2.576440	1.570756	99
Es	0.048652	-0.056914	-0.062839	99
Es	1.686252	0.074669	-1.620725	99
Es	1.589799	-0.466083	-1.379425	99
Es	0.816094	-1.640637	-1.407187	99
Es	0.902153	-0.916156	-1.227256	99
Es	-0.743512	0.966471	1.086335	99
Es	0.059320	-0.618572	-0.289474	99
Es	1.166566	-2.498198	-2.207409	99
Es	-0.740673	2.265144	2.408852	99
Es	-0.353432	2.784422	1.399790	99
Es	-0.789113	1.639321	1.379733	99
Es	0.121645	0.717714	0.162602	99
Es	-0.846200	2.330961	1.690637	99
Es	1.717288	-0.159195	-1.739232	99
Es	0.378582	0.927938	-0.005441	99
Es	-0.204993	-0.835308	-0.086935	99
