46
Properties=species:S:1:pos:R:3:Z:I:1 energy=-325.1220050948879 field_type=dipole dipole="0.000000 0.000000 0.000000" charge=0
C	-0.251299	-2.539641	-0.477911	6
N	-0.592679	-1.279772	0.169949	7
C	0.539891	-0.339952	0.182019	6
C	0.736121	0.589149	-0.985321	6
C	0.312261	1.146308	0.343379	6
C	-1.059149	1.713618	0.516799	6
O	1.330701	1.846268	1.077079	8
H	-1.124059	-3.199421	-0.478441	1
H	0.561321	-3.050662	0.048189	1
H	0.044821	-2.379542	-1.519421	1
H	-0.891569	-1.468412	1.127669	1
H	1.439921	-0.724862	0.659289	1
H	0.010041	0.558378	-1.788971	1
H	1.751861	0.765288	-1.316231	1
H	-1.798749	1.226948	-0.128611	1
H	-1.060369	2.781708	0.272959	1
H	-1.386839	1.601788	1.555709	1
H	1.437771	2.752809	0.741869	1
Es	1.226210	1.871942	1.365183	99
Es	0.240542	0.567100	-1.524476	99
Es	-0.045730	-2.426650	-1.185774	99
Es	0.314509	-2.894018	-0.116248	99
Es	-1.549339	1.385531	0.078526	99
Es	0.539741	-0.339873	0.181931	99
Es	1.423820	0.712037	-1.203699	99
Es	-1.048240	2.442943	0.349439	99
Es	-0.251332	-2.539526	-0.477848	99
Es	-0.415202	-1.828418	-0.095907	99
Es	1.330570	1.846370	1.076778	99
Es	0.312486	1.146300	0.343406	99
Es	-1.059116	1.713619	0.516795	99
Es	0.943264	1.605877	0.781262	99
Es	1.156748	-0.601580	0.501939	99
Es	-0.846783	-2.990454	-0.472957	99
Es	-0.083678	-0.880982	0.186679	99
Es	-1.278073	1.637035	1.222966	99
Es	-0.592159	-1.280031	0.170254	99
Es	1.363944	2.328436	0.875416	99
Es	0.369351	0.371313	0.455681	99
Es	0.523151	1.037087	-0.415985	99
Es	1.592837	1.703630	1.011916	99
Es	-0.377147	1.421668	0.423640	99
Es	0.685055	-0.017713	-0.515984	99
Es	0.736085	0.589103	-0.985175	99
Es	-0.746671	-1.403795	0.755281	99
Es	-0.858871	-1.129607	-0.002522	99
46
Properties=species:S:1:pos:R:3:Z:I:1 energy=-325.1220050948879 field_type=dipole dipole="0.000000 0.000000 0.000000" charge=0
C	-0.251299	-2.539641	-0.477911	6
N	-0.592679	-1.279772	0.169949	7
C	0.539891	-0.339952	0.182019	6
C	0.736121	0.589149	-0.985321	6
C	0.312261	1.146308	0.343379	6
C	-1.059149	1.713618	0.516799	6
O	1.330701	1.846268	1.077079	8
H	-1.124059	-3.199421	-0.478441	1
H	0.561321	-3.050662	0.048189	1
H	0.044821	-2.379542	-1.519421	1
H	-0.891569	-1.468412	1.127669	1
H	1.439921	-0.724862	0.659289	1
H	0.010041	0.558378	-1.788971	1
H	1.751861	0.765288	-1.316231	1
H	-1.798749	1.226948	-0.128611	1
H	-1.060369	2.781708	0.272959	1
H	-1.386839	1.601788	1.555709	1
H	1.437771	2.752809	0.741869	1
Es	-0.251331	-2.539522	-0.477846	99
Es	0.539740	-0.339870	0.181937	99
Es	0.522796	1.039316	-0.417061	99
Es	0.685644	-0.020020	-0.515716	99
Es	1.422541	0.712355	-1.203809	99
Es	0.368946	0.370337	0.457015	99
Es	0.736083	0.589100	-0.985168	99
Es	-0.846340	-2.990534	-0.472590	99
Es	1.226385	1.868598	1.367967	99
Es	1.330518	1.846410	1.076831	99
Es	0.241727	0.567435	-1.523963	99
Es	1.365641	2.330814	0.874018	99
Es	1.587204	1.706567	1.012065	99
Es	-0.854936	-1.133298	0.000731	99
Es	-0.415589	-1.828797	-0.097490	99
Es	-1.548024	1.385085	0.079121	99
Es	-0.748136	-1.402903	0.756482	99
Es	-0.592160	-1.280040	0.170253	99
Es	0.312486	1.146299	0.343406	99
Es	1.155969	-0.601297	0.501620	99
Es	-1.048114	2.444622	0.348621	99
Es	0.313673	-2.893834	-0.116383	99
Es	0.946793	1.604051	0.779456	99
Es	-0.085567	-0.877716	0.184191	99
Es	-1.059115	1.713618	0.516795	99
Es	-1.278013	1.635849	1.223182	99
Es	-0.377555	1.421821	0.423165	99
Es	-0.045293	-2.427107	-1.186310	99
46
Properties=species:S:1:pos:R:3:Z:I:1 energy=-325.1220050948879 field_type=dipole dipole="0.000000 0.000000 0.000000" charge=0
C	-0.251299	-2.539641	-0.477911	6
N	-0.592679	-1.279772	0.169949	7
C	0.539891	-0.339952	0.182019	6
C	0.736121	0.589149	-0.985321	6
C	0.312261	1.146308	0.343379	6
C	-1.059149	1.713618	0.516799	6
O	1.330701	1.846268	1.077079	8
H	-1.124059	-3.199421	-0.478441	1
H	0.561321	-3.050662	0.048189	1
H	0.044821	-2.379542	-1.519421	1
H	-0.891569	-1.468412	1.127669	1
H	1.439921	-0.724862	0.659289	1
H	0.010041	0.558378	-1.788971	1
H	1.751861	0.765288	-1.316231	1
H	-1.798749	1.226948	-0.128611	1
H	-1.060369	2.781708	0.272959	1
H	-1.386839	1.601788	1.555709	1
H	1.437771	2.752809	0.741869	1
Es	0.686181	-0.021570	-0.515568	99
Es	-0.853384	-1.135447	0.003052	99
Es	-0.845968	-2.990435	-0.472276	99
Es	0.242546	0.567656	-1.523805	99
Es	-0.592150	-1.280047	0.170284	99
Es	-1.547027	1.384976	0.079744	99
Es	1.365826	2.332159	0.873327	99
Es	-1.059116	1.713618	0.516796	99
Es	1.583794	1.709271	1.012068	99
Es	-0.748080	-1.402581	0.756687	99
Es	0.368931	0.369461	0.457348	99
Es	-0.045057	-2.427453	-1.186782	99
Es	0.539742	-0.339877	0.181932	99
Es	0.736085	0.589099	-0.985173	99
Es	0.312485	1.146297	0.343400	99
Es	1.421475	0.712640	-1.203610	99
Es	1.226881	1.866316	1.369692	99
Es	-0.086665	-0.875556	0.182655	99
Es	-0.377864	1.421675	0.422947	99
Es	0.522321	1.041185	-0.417405	99
Es	-1.048135	2.445604	0.347919	99
Es	-1.278083	1.635121	1.223341	99
Es	1.330545	1.846385	1.076694	99
Es	-0.251332	-2.539525	-0.477846	99
Es	0.313079	-2.893782	-0.116428	99
Es	0.949314	1.602379	0.778433	99
Es	-0.415909	-1.829115	-0.098316	99
Es	1.155536	-0.601110	0.501412	99
46
Properties=species:S:1:pos:R:3:Z:I:1 energy=-325.1220050948879 field_type=dipole dipole="0.000000 0.000000 0.000000" charge=0
C	-0.251299	-2.539641	-0.477911	6
N	-0.592679	-1.279772	0.169949	7
C	0.539891	-0.339952	0.182019	6
C	0.736121	0.589149	-0.985321	6
C	0.312261	1.146308	0.343379	6
C	-1.059149	1.713618	0.516799	6
O	1.330701	1.846268	1.077079	8
H	-1.124059	-3.199421	-0.478441	1
H	0.561321	-3.050662	0.048189	1
H	0.044821	-2.379542	-1.519421	1
H	-0.891569	-1.468412	1.127669	1
H	1.439921	-0.724862	0.659289	1
H	0.010041	0.558378	-1.788971	1
H	1.751861	0.765288	-1.316231	1
H	-1.798749	1.226948	-0.128611	1
H	-1.060369	2.781708	0.272959	1
H	-1.386839	1.601788	1.555709	1
H	1.437771	2.752809	0.741869	1
Es	-1.278048	1.634583	1.223466	99
Es	0.522332	1.042112	-0.417564	99
Es	0.539740	-0.339880	0.181931	99
Es	1.330545	1.846403	1.076832	99
Es	-0.845649	-2.990316	-0.472010	99
Es	-1.059116	1.713619	0.516795	99
Es	-0.251331	-2.539530	-0.477851	99
Es	0.312984	-2.893780	-0.116465	99
Es	-0.592146	-1.280049	0.170273	99
Es	-0.087681	-0.874420	0.181578	99
Es	-1.047998	2.446172	0.347626	99
Es	0.950462	1.602041	0.777968	99
Es	-0.416134	-1.829502	-0.098891	99
Es	0.686318	-0.022807	-0.515683	99
Es	-0.852315	-1.136724	0.004588	99
Es	1.228461	1.863279	1.370908	99
Es	1.581372	1.711159	1.010327	99
Es	-0.747899	-1.402072	0.757011	99
Es	-0.045211	-2.427684	-1.187069	99
Es	0.312489	1.146315	0.343402	99
Es	-0.378161	1.421676	0.422745	99
Es	0.736084	0.589097	-0.985169	99
Es	1.420846	0.712637	-1.203747	99
Es	0.242967	0.568134	-1.523379	99
Es	1.155254	-0.600949	0.501213	99
Es	0.368929	0.369176	0.457651	99
Es	-1.546487	1.384939	0.079966	99
Es	1.365366	2.333715	0.874067	99
46
Properties=species:S:1:pos:R:3:Z:I:1 energy=-325.1220050948879 field_type=dipole dipole="0.000000 0.000000 0.000000" charge=0
C	-0.251299	-2.539641	-0.477911	6
N	-0.592679	-1.279772	0.169949	7
C	0.539891	-0.339952	0.182019	6
C	0.736121	0.589149	-0.985321	6
C	0.312261	1.146308	0.343379	6
C	-1.059149	1.713618	0.516799	6
O	1.330701	1.846268	1.077079	8
H	-1.124059	-3.199421	-0.478441	1
H	0.561321	-3.050662	0.048189	1
H	0.044821	-2.379542	-1.519421	1
H	-0.891569	-1.468412	1.127669	1
H	1.439921	-0.724862	0.659289	1
H	0.010041	0.558378	-1.788971	1
H	1.751861	0.765288	-1.316231	1
H	-1.798749	1.226948	-0.128611	1
H	-1.060369	2.781708	0.272959	1
H	-1.386839	1.601788	1.555709	1
H	1.437771	2.752809	0.741869	1
Es	1.330478	1.846436	1.076807	99
Es	-0.845466	-2.990241	-0.472040	99
Es	1.364788	2.334518	0.874126	99
Es	0.522094	1.043122	-0.417727	99
Es	-1.277995	1.634192	1.223467	99
Es	0.368710	0.368925	0.457839	99
Es	-0.378209	1.421635	0.422555	99
Es	-1.546000	1.384879	0.080370	99
Es	-0.592080	-1.280078	0.170308	99
Es	0.539741	-0.339882	0.181927	99
Es	-0.747887	-1.402091	0.757353	99
Es	-0.415888	-1.829232	-0.098931	99
Es	0.243359	0.568091	-1.523168	99
Es	-0.045043	-2.427863	-1.187160	99
Es	-0.251332	-2.539525	-0.477848	99
Es	1.420196	0.712736	-1.203751	99
Es	0.736081	0.589092	-0.985170	99
Es	1.228434	1.861710	1.371578	99
Es	0.312486	1.146303	0.343411	99
Es	0.686759	-0.023678	-0.515622	99
Es	0.312695	-2.893831	-0.116448	99
Es	-0.851555	-1.138550	0.005595	99
Es	0.952398	1.601083	0.777122	99
Es	1.580026	1.712895	1.010393	99
Es	1.155028	-0.600868	0.501204	99
Es	-1.048087	2.446676	0.347286	99
Es	-1.059116	1.713619	0.516795	99
Es	-0.088644	-0.872731	0.180250	99
46
Properties=species:S:1:pos:R:3:Z:I:1 energy=-325.1220050948879 field_type=dipole dipole="0.000000 0.000000 0.000000" charge=0
C	-0.251299	-2.539641	-0.477911	6
N	-0.592679	-1.279772	0.169949	7
C	0.539891	-0.339952	0.182019	6
C	0.736121	0.589149	-0.985321	6
C	0.312261	1.146308	0.343379	6
C	-1.059149	1.713618	0.516799	6
O	1.330701	1.846268	1.077079	8
H	-1.124059	-3.199421	-0.478441	1
H	0.561321	-3.050662	0.048189	1
H	0.044821	-2.379542	-1.519421	1
H	-0.891569	-1.468412	1.127669	1
H	1.439921	-0.724862	0.659289	1
H	0.010041	0.558378	-1.788971	1
H	1.751861	0.765288	-1.316231	1
H	-1.798749	1.226948	-0.128611	1
H	-1.060369	2.781708	0.272959	1
H	-1.386839	1.601788	1.555709	1
H	1.437771	2.752809	0.741869	1
Es	1.419699	0.712701	-1.203587	99
Es	-0.748278	-1.401712	0.757380	99
Es	0.243717	0.568328	-1.523114	99
Es	-1.048117	2.447000	0.347037	99
Es	1.364937	2.334466	0.873054	99
Es	1.578717	1.714402	1.011871	99
Es	-0.415506	-1.829427	-0.098735	99
Es	-0.850526	-1.140379	0.006426	99
Es	1.330726	1.846290	1.076957	99
Es	0.312486	1.146303	0.343409	99
Es	1.155071	-0.600888	0.501130	99
Es	-1.545601	1.384876	0.080616	99
Es	0.686707	-0.024250	-0.515509	99
Es	0.368628	0.368707	0.458063	99
Es	1.227396	1.862003	1.371811	99
Es	0.312551	-2.893947	-0.116311	99
Es	0.522210	1.043618	-0.417940	99
Es	0.539739	-0.339880	0.181933	99
Es	0.736085	0.589101	-0.985170	99
Es	-0.044974	-2.427985	-1.187264	99
Es	0.954209	1.599511	0.776245	99
Es	-0.845293	-2.990068	-0.472083	99
Es	-0.089628	-0.871070	0.179261	99
Es	-0.592158	-1.280048	0.170260	99
Es	-0.251332	-2.539525	-0.477847	99
Es	-0.378311	1.421669	0.422379	99
Es	-1.278065	1.633928	1.223455	99
Es	-1.059114	1.713618	0.516795	99
46
Properties=species:S:1:pos:R:3:Z:I:1 energy=-325.1220050948879 field_type=dipole dipole="0.000000 0.000000 0.000000" charge=0
C	-0.251299	-2.539641	-0.477911	6
N	-0.592679	-1.279772	0.169949	7
C	0.539891	-0.339952	0.182019	6
C	0.736121	0.589149	-0.985321	6
C	0.312261	1.146308	0.343379	6
C	-1.059149	1.713618	0.516799	6
O	1.330701	1.846268	1.077079	8
H	-1.124059	-3.199421	-0.478441	1
H	0.561321	-3.050662	0.048189	1
H	0.044821	-2.379542	-1.519421	1
H	-0.891569	-1.468412	1.127669	1
H	1.439921	-0.724862	0.659289	1
H	0.010041	0.558378	-1.788971	1
H	1.751861	0.765288	-1.316231	1
H	-1.798749	1.226948	-0.128611	1
H	-1.060369	2.781708	0.272959	1
H	-1.386839	1.601788	1.555709	1
H	1.437771	2.752809	0.741869	1
Es	0.312514	-2.893887	-0.116395	99
Es	-0.415937	-1.829498	-0.099519	99
Es	-0.378406	1.421700	0.422354	99
Es	-0.090363	-0.870176	0.178461	99
Es	0.522005	1.044249	-0.417997	99
Es	1.330490	1.846438	1.076826	99
Es	-1.545268	1.384821	0.080771	99
Es	-0.251333	-2.539524	-0.477846	99
Es	0.686936	-0.025058	-0.515416	99
Es	0.312487	1.146306	0.343405	99
Es	0.736084	0.589101	-0.985169	99
Es	0.953405	1.600791	0.776949	99
Es	1.419335	0.712783	-1.203514	99
Es	1.364383	2.335562	0.874342	99
Es	-1.059116	1.713619	0.516796	99
Es	-1.278086	1.633710	1.223496	99
Es	0.244014	0.568371	-1.523002	99
Es	1.577188	1.714961	1.008331	99
Es	-0.849877	-1.141081	0.007869	99
Es	-0.845128	-2.990082	-0.471932	99
Es	0.539736	-0.339878	0.181942	99
Es	-1.048124	2.447240	0.346818	99
Es	1.154956	-0.600873	0.501158	99
Es	-0.045060	-2.428114	-1.187377	99
Es	1.230448	1.858920	1.373428	99
Es	0.368604	0.368728	0.457913	99
Es	-0.747748	-1.401738	0.757569	99
Es	-0.592169	-1.280046	0.170260	99
46
Properties=species:S:1:pos:R:3:Z:I:1 energy=-325.1220050948879 field_type=dipole dipole="0.000000 0.000000 0.000000" charge=0
C	-0.251299	-2.539641	-0.477911	6
N	-0.592679	-1.279772	0.169949	7
C	0.539891	-0.339952	0.182019	6
C	0.736121	0.589149	-0.985321	6
C	0.312261	1.146308	0.343379	6
C	-1.059149	1.713618	0.516799	6
O	1.330701	1.846268	1.077079	8
H	-1.124059	-3.199421	-0.478441	1
H	0.561321	-3.050662	0.048189	1
H	0.044821	-2.379542	-1.519421	1
H	-0.891569	-1.468412	1.127669	1
H	1.439921	-0.724862	0.659289	1
H	0.010041	0.558378	-1.788971	1
H	1.751861	0.765288	-1.316231	1
H	-1.798749	1.226948	-0.128611	1
H	-1.060369	2.781708	0.272959	1
H	-1.386839	1.601788	1.555709	1
H	1.437771	2.752809	0.741869	1
Es	-1.277974	1.633492	1.223571	99
Es	-0.044986	-2.428264	-1.187567	99
Es	-1.048124	2.447455	0.346647	99
Es	0.312317	-2.893892	-0.116327	99
Es	-1.545034	1.384724	0.080901	99
Es	0.244188	0.568524	-1.522900	99
Es	-0.592147	-1.280057	0.170285	99
Es	0.539740	-0.339880	0.181932	99
Es	0.368537	0.368454	0.458291	99
Es	1.364643	2.336036	0.874298	99
Es	-0.090703	-0.869819	0.178044	99
Es	-0.415803	-1.829446	-0.099627	99
Es	0.954678	1.600468	0.776221	99
Es	-0.747449	-1.401793	0.757635	99
Es	-0.845033	-2.989966	-0.471793	99
Es	1.154868	-0.600833	0.500978	99
Es	1.577239	1.714877	1.010116	99
Es	0.312485	1.146300	0.343411	99
Es	-0.849875	-1.141487	0.008228	99
Es	-1.059117	1.713619	0.516795	99
Es	1.419027	0.712725	-1.203485	99
Es	-0.251332	-2.539524	-0.477846	99
Es	0.736085	0.589100	-0.985169	99
Es	-0.378561	1.421800	0.422243	99
Es	1.228758	1.858896	1.372422	99
Es	1.330532	1.846435	1.076763	99
Es	0.522042	1.044620	-0.418064	99
Es	0.686970	-0.025222	-0.515484	99
46
Properties=species:S:1:pos:R:3:Z:I:1 energy=-325.1220050948879 field_type=dipole dipole="0.000000 0.000000 0.000000" charge=0
C	-0.251299	-2.539641	-0.477911	6
N	-0.592679	-1.279772	0.169949	7
C	0.539891	-0.339952	0.182019	6
C	0.736121	0.589149	-0.985321	6
C	0.312261	1.146308	0.343379	6
C	-1.059149	1.713618	0.516799	6
O	1.330701	1.846268	1.077079	8
H	-1.124059	-3.199421	-0.478441	1
H	0.561321	-3.050662	0.048189	1
H	0.044821	-2.379542	-1.519421	1
H	-0.891569	-1.468412	1.127669	1
H	1.439921	-0.724862	0.659289	1
H	0.010041	0.558378	-1.788971	1
H	1.751861	0.765288	-1.316231	1
H	-1.798749	1.226948	-0.128611	1
H	-1.060369	2.781708	0.272959	1
H	-1.386839	1.601788	1.555709	1
H	1.437771	2.752809	0.741869	1
Es	0.312387	-2.893941	-0.116385	99
Es	-0.415888	-1.829452	-0.099703	99
Es	-1.544750	1.384835	0.081039	99
Es	1.229890	1.857911	1.372969	99
Es	0.312487	1.146306	0.343410	99
Es	1.418697	0.712707	-1.203464	99
Es	-0.747529	-1.401679	0.757722	99
Es	-0.378414	1.421717	0.422133	99
Es	0.368395	0.368376	0.458492	99
Es	-1.278148	1.633327	1.223530	99
Es	-0.844979	-2.989955	-0.471844	99
Es	-1.048171	2.447606	0.346537	99
Es	-0.045085	-2.428292	-1.187495	99
Es	0.687025	-0.025630	-0.515616	99
Es	-0.090936	-0.869359	0.177724	99
Es	-0.592163	-1.280045	0.170260	99
Es	0.736083	0.589097	-0.985167	99
Es	0.522117	1.044910	-0.418146	99
Es	0.244336	0.568666	-1.522789	99
Es	1.576433	1.716165	1.009203	99
Es	-0.849387	-1.142025	0.008703	99
Es	1.330498	1.846447	1.076878	99
Es	1.154812	-0.600775	0.500893	99
Es	1.363776	2.336413	0.874506	99
Es	-1.059116	1.713619	0.516795	99
Es	0.539736	-0.339883	0.181939	99
Es	0.955195	1.599804	0.776247	99
Es	-0.251331	-2.539527	-0.477849	99
46
Properties=species:S:1:pos:R:3:Z:I:1 energy=-325.1220050948879 field_type=dipole dipole="0.000000 0.000000 0.000000" charge=0
C	-0.251299	-2.539641	-0.477911	6
N	-0.592679	-1.279772	0.169949	7
C	0.539891	-0.339952	0.182019	6
C	0.736121	0.589149	-0.985321	6
C	0.312261	1.146308	0.343379	6
C	-1.059149	1.713618	0.516799	6
O	1.330701	1.846268	1.077079	8
H	-1.124059	-3.199421	-0.478441	1
H	0.561321	-3.050662	0.048189	1
H	0.044821	-2.379542	-1.519421	1
H	-0.891569	-1.468412	1.127669	1
H	1.439921	-0.724862	0.659289	1
H	0.010041	0.558378	-1.788971	1
H	1.751861	0.765288	-1.316231	1
H	-1.798749	1.226948	-0.128611	1
H	-1.060369	2.781708	0.272959	1
H	-1.386839	1.601788	1.555709	1
H	1.437771	2.752809	0.741869	1
Es	0.244518	0.568526	-1.522644	99
Es	1.363207	2.336822	0.874847	99
Es	-0.849288	-1.142734	0.009261	99
Es	-0.415705	-1.829584	-0.099683	99
Es	0.539737	-0.339884	0.181929	99
Es	1.574476	1.717871	1.007162	99
Es	-1.059115	1.713618	0.516795	99
Es	-0.592165	-1.280062	0.170270	99
Es	0.955273	1.599649	0.776330	99
Es	1.330572	1.846391	1.076697	99
Es	1.418639	0.712896	-1.203494	99
Es	-0.747171	-1.401600	0.757683	99
Es	0.521829	1.045155	-0.418049	99
Es	0.736085	0.589092	-0.985167	99
Es	1.154797	-0.600749	0.500941	99
Es	-1.278176	1.633199	1.223507	99
Es	-1.048273	2.447747	0.346408	99
Es	0.368431	0.368350	0.458304	99
Es	-1.544561	1.384925	0.081276	99
Es	1.232233	1.855988	1.374685	99
Es	0.312487	1.146308	0.343411	99
Es	-0.378512	1.421693	0.422030	99
Es	-0.044968	-2.428352	-1.187567	99
Es	-0.251329	-2.539526	-0.477845	99
Es	0.687147	-0.025960	-0.515533	99
Es	-0.091496	-0.868582	0.177118	99
Es	-0.844932	-2.989842	-0.471865	99
Es	0.312231	-2.894014	-0.116287	99
46
Properties=species:S:1:pos:R:3:Z:I:1 energy=-325.1220050948879 field_type=dipole dipole="0.000000 0.000000 0.000000" charge=0
C	-0.251299	-2.539641	-0.477911	6
N	-0.592679	-1.279772	0.169949	7
C	0.539891	-0.339952	0.182019	6
C	0.736121	0.589149	-0.985321	6
C	0.312261	1.146308	0.343379	6
C	-1.059149	1.713618	0.516799	6
O	1.330701	1.846268	1.077079	8
H	-1.124059	-3.199421	-0.478441	1
H	0.561321	-3.050662	0.048189	1
H	0.044821	-2.379542	-1.519421	1
H	-0.891569	-1.468412	1.127669	1
H	1.439921	-0.724862	0.659289	1
H	0.010041	0.558378	-1.788971	1
H	1.751861	0.765288	-1.316231	1
H	-1.798749	1.226948	-0.128611	1
H	-1.060369	2.781708	0.272959	1
H	-1.386839	1.601788	1.555709	1
H	1.437771	2.752809	0.741869	1
Es	-0.415924	-1.829567	-0.099820	99
Es	0.736085	0.589103	-0.985173	99
Es	1.418328	0.712852	-1.203387	99
Es	0.521899	1.045490	-0.418267	99
Es	0.955824	1.599602	0.776275	99
Es	-1.059116	1.713619	0.516795	99
Es	0.244651	0.568650	-1.522645	99
Es	-0.747863	-1.401404	0.757668	99
Es	1.362944	2.337056	0.874848	99
Es	-0.045014	-2.428480	-1.187621	99
Es	-1.544436	1.384929	0.081335	99
Es	-0.844772	-2.989681	-0.471890	99
Es	0.312485	1.146300	0.343409	99
Es	-0.378593	1.421667	0.421949	99
Es	0.539736	-0.339881	0.181939	99
Es	-1.048185	2.447938	0.346379	99
Es	0.368435	0.368222	0.458468	99
Es	1.154745	-0.600715	0.500809	99
Es	-1.278099	1.632985	1.223507	99
Es	-0.091326	-0.868909	0.177414	99
Es	0.312177	-2.894136	-0.116219	99
Es	1.574673	1.717850	1.007318	99
Es	-0.251331	-2.539525	-0.477847	99
Es	0.687201	-0.026186	-0.515418	99
Es	-0.592222	-1.280002	0.170244	99
Es	-0.848595	-1.142670	0.009185	99
Es	1.330588	1.846399	1.076889	99
Es	1.231677	1.855837	1.374378	99
46
Properties=species:S:1:pos:R:3:Z:I:1 energy=-325.1220050948879 field_type=dipole dipole="0.000000 0.000000 0.000000" charge=0
C	-0.251299	-2.539641	-0.477911	6
N	-0.592679	-1.279772	0.169949	7
C	0.539891	-0.339952	0.182019	6
C	0.736121	0.589149	-0.985321	6
C	0.312261	1.146308	0.343379	6
C	-1.059149	1.713618	0.516799	6
O	1.330701	1.846268	1.077079	8
H	-1.124059	-3.199421	-0.478441	1
H	0.561321	-3.050662	0.048189	1
H	0.044821	-2.379542	-1.519421	1
H	-0.891569	-1.468412	1.127669	1
H	1.439921	-0.724862	0.659289	1
H	0.010041	0.558378	-1.788971	1
H	1.751861	0.765288	-1.316231	1
H	-1.798749	1.226948	-0.128611	1
H	-1.060369	2.781708	0.272959	1
H	-1.386839	1.601788	1.555709	1
H	1.437771	2.752809	0.741869	1
Es	-1.544418	1.384974	0.081401	99
Es	0.687193	-0.026246	-0.515422	99
Es	0.312207	-2.894248	-0.116182	99
Es	1.230686	1.854701	1.374995	99
Es	0.521935	1.045700	-0.418111	99
Es	-0.378556	1.421641	0.421846	99
Es	-1.059116	1.713619	0.516795	99
Es	-1.278122	1.632958	1.223436	99
Es	0.312486	1.146306	0.343405	99
Es	-0.747134	-1.401433	0.757704	99
Es	-0.251333	-2.539523	-0.477846	99
Es	-0.844778	-2.989611	-0.472013	99
Es	-0.415437	-1.829577	-0.099335	99
Es	1.418140	0.712753	-1.203305	99
Es	1.154812	-0.600777	0.500784	99
Es	0.539736	-0.339879	0.181934	99
Es	0.736084	0.589102	-0.985172	99
Es	0.368470	0.368117	0.458428	99
Es	1.330513	1.846393	1.076854	99
Es	0.244747	0.568670	-1.522681	99
Es	0.957003	1.600215	0.774993	99
Es	1.573670	1.718188	1.007609	99
Es	-0.592164	-1.280053	0.170285	99
Es	1.363804	2.337273	0.875260	99
Es	-0.045018	-2.428439	-1.187559	99
Es	-0.092503	-0.867119	0.176011	99
Es	-0.848679	-1.144345	0.009998	99
Es	-1.048257	2.447982	0.346407	99
46
Properties=species:S:1:pos:R:3:Z:I:1 energy=-325.1220050948879 field_type=dipole dipole="0.000000 0.000000 0.000000" charge=0
C	-0.251299	-2.539641	-0.477911	6
N	-0.592679	-1.279772	0.169949	7
C	0.539891	-0.339952	0.182019	6
C	0.736121	0.589149	-0.985321	6
C	0.312261	1.146308	0.343379	6
C	-1.059149	1.713618	0.516799	6
O	1.330701	1.846268	1.077079	8
H	-1.124059	-3.199421	-0.478441	1
H	0.561321	-3.050662	0.048189	1
H	0.044821	-2.379542	-1.519421	1
H	-0.891569	-1.468412	1.127669	1
H	1.439921	-0.724862	0.659289	1
H	0.010041	0.558378	-1.788971	1
H	1.751861	0.765288	-1.316231	1
H	-1.798749	1.226948	-0.128611	1
H	-1.060369	2.781708	0.272959	1
H	-1.386839	1.601788	1.555709	1
H	1.437771	2.752809	0.741869	1
Es	-1.048220	2.448053	0.346196	99
Es	-0.251333	-2.539523	-0.477846	99
Es	-0.415568	-1.829486	-0.099764	99
Es	1.227716	1.857737	1.372572	99
Es	-0.045145	-2.428560	-1.187731	99
Es	-0.746853	-1.401542	0.757893	99
Es	1.364266	2.336687	0.873769	99
Es	0.687326	-0.026456	-0.515286	99
Es	1.330365	1.846478	1.076899	99
Es	-1.544097	1.384985	0.081451	99
Es	0.312183	-2.894180	-0.116253	99
Es	0.521909	1.046116	-0.418357	99
Es	0.957924	1.598484	0.774573	99
Es	1.417939	0.712670	-1.203142	99
Es	-0.378607	1.421714	0.421928	99
Es	-1.278243	1.632805	1.223561	99
Es	-0.592225	-1.280005	0.170208	99
Es	1.154676	-0.600716	0.500865	99
Es	0.736084	0.589100	-0.985165	99
Es	0.244884	0.568694	-1.522792	99
Es	-0.844650	-2.989592	-0.471785	99
Es	0.368430	0.368004	0.458443	99
Es	0.312487	1.146304	0.343404	99
Es	1.575372	1.717313	1.011823	99
Es	-0.092680	-0.867248	0.175917	99
Es	-0.848590	-1.144232	0.010413	99
Es	0.539739	-0.339881	0.181932	99
Es	-1.059117	1.713619	0.516795	99
46
Properties=species:S:1:pos:R:3:Z:I:1 energy=-325.1220050948879 field_type=dipole dipole="0.000000 0.000000 0.000000" charge=0
C	-0.251299	-2.539641	-0.477911	6
N	-0.592679	-1.279772	0.169949	7
C	0.539891	-0.339952	0.182019	6
C	0.736121	0.589149	-0.985321	6
C	0.312261	1.146308	0.343379	6
C	-1.059149	1.713618	0.516799	6
O	1.330701	1.846268	1.077079	8
H	-1.124059	-3.199421	-0.478441	1
H	0.561321	-3.050662	0.048189	1
H	0.044821	-2.379542	-1.519421	1
H	-0.891569	-1.468412	1.127669	1
H	1.439921	-0.724862	0.659289	1
H	0.010041	0.558378	-1.788971	1
H	1.751861	0.765288	-1.316231	1
H	-1.798749	1.226948	-0.128611	1
H	-1.060369	2.781708	0.272959	1
H	-1.386839	1.601788	1.555709	1
H	1.437771	2.752809	0.741869	1
Es	0.521944	1.046090	-0.418232	99
Es	0.687227	-0.026811	-0.515390	99
Es	0.244966	0.568793	-1.522533	99
Es	1.231025	1.855241	1.375084	99
Es	-0.045092	-2.428577	-1.187687	99
Es	0.312485	1.146304	0.343409	99
Es	-0.093007	-0.866599	0.175685	99
Es	1.330370	1.846518	1.076905	99
Es	1.363903	2.337020	0.874168	99
Es	-1.278107	1.632777	1.223401	99
Es	0.539738	-0.339880	0.181936	99
Es	0.736085	0.589098	-0.985164	99
Es	-0.746818	-1.401434	0.757721	99
Es	-0.415375	-1.829596	-0.099533	99
Es	-0.378630	1.421642	0.421769	99
Es	-0.592154	-1.280051	0.170260	99
Es	-1.544204	1.385010	0.081604	99
Es	1.417873	0.712684	-1.203286	99
Es	0.368416	0.368151	0.458392	99
Es	1.154741	-0.600760	0.500835	99
Es	0.312131	-2.894276	-0.116204	99
Es	1.573020	1.718580	1.008190	99
Es	-1.059116	1.713619	0.516795	99
Es	-0.844621	-2.989516	-0.471896	99
Es	0.957324	1.599395	0.775264	99
Es	-0.848547	-1.144743	0.010602	99
Es	-1.048276	2.448186	0.346272	99
Es	-0.251329	-2.539523	-0.477845	99
46
Properties=species:S:1:pos:R:3:Z:I:1 energy=-325.1220050948879 field_type=dipole dipole="0.000000 0.000000 0.000000" charge=0
C	-0.251299	-2.539641	-0.477911	6
N	-0.592679	-1.279772	0.169949	7
C	0.539891	-0.339952	0.182019	6
C	0.736121	0.589149	-0.985321	6
C	0.312261	1.146308	0.343379	6
C	-1.059149	1.713618	0.516799	6
O	1.330701	1.846268	1.077079	8
H	-1.124059	-3.199421	-0.478441	1
H	0.561321	-3.050662	0.048189	1
H	0.044821	-2.379542	-1.519421	1
H	-0.891569	-1.468412	1.127669	1
H	1.439921	-0.724862	0.659289	1
H	0.010041	0.558378	-1.788971	1
H	1.751861	0.765288	-1.316231	1
H	-1.798749	1.226948	-0.128611	1
H	-1.060369	2.781708	0.272959	1
H	-1.386839	1.601788	1.555709	1
H	1.437771	2.752809	0.741869	1
Es	0.521891	1.046208	-0.418287	99
Es	0.539739	-0.339882	0.181931	99
Es	0.957551	1.599481	0.775132	99
Es	-1.543978	1.385002	0.081696	99
Es	1.363450	2.337434	0.874785	99
Es	-1.278138	1.632655	1.223486	99
Es	0.312050	-2.894152	-0.116183	99
Es	-0.415733	-1.829524	-0.100037	99
Es	1.154762	-0.600795	0.500764	99
Es	-0.844644	-2.989602	-0.471832	99
Es	1.230556	1.854923	1.374645	99
Es	0.736082	0.589099	-0.985159	99
Es	1.330489	1.846410	1.076828	99
Es	-1.059116	1.713619	0.516795	99
Es	-0.746238	-1.401620	0.757913	99
Es	-0.093157	-0.866471	0.175394	99
Es	-0.848559	-1.144734	0.011197	99
Es	0.312486	1.146300	0.343409	99
Es	0.687273	-0.027007	-0.515380	99
Es	1.417735	0.712779	-1.203297	99
Es	-0.592170	-1.280051	0.170264	99
Es	-0.044979	-2.428603	-1.187725	99
Es	-0.251332	-2.539525	-0.477847	99
Es	0.245004	0.568794	-1.522473	99
Es	0.368389	0.368143	0.458445	99
Es	1.573560	1.718562	1.008237	99
Es	-1.048342	2.448249	0.346120	99
Es	-0.378660	1.421648	0.421698	99
46
Properties=species:S:1:pos:R:3:Z:I:1 energy=-325.1220050948879 field_type=dipole dipole="0.000000 0.000000 0.000000" charge=0
C	-0.251299	-2.539641	-0.477911	6
N	-0.592679	-1.279772	0.169949	7
C	0.539891	-0.339952	0.182019	6
C	0.736121	0.589149	-0.985321	6
C	0.312261	1.146308	0.343379	6
C	-1.059149	1.713618	0.516799	6
O	1.330701	1.846268	1.077079	8
H	-1.124059	-3.199421	-0.478441	1
H	0.561321	-3.050662	0.048189	1
H	0.044821	-2.379542	-1.519421	1
H	-0.891569	-1.468412	1.127669	1
H	1.439921	-0.724862	0.659289	1
H	0.010041	0.558378	-1.788971	1
H	1.751861	0.765288	-1.316231	1
H	-1.798749	1.226948	-0.128611	1
H	-1.060369	2.781708	0.272959	1
H	-1.386839	1.601788	1.555709	1
H	1.437771	2.752809	0.741869	1
Es	1.229839	1.855103	1.374251	99
Es	-0.378597	1.421665	0.421721	99
Es	0.245117	0.568781	-1.522465	99
Es	-1.048354	2.448274	0.346058	99
Es	-0.415335	-1.829648	-0.099627	99
Es	1.154742	-0.600736	0.500789	99
Es	-0.251333	-2.539523	-0.477846	99
Es	-1.059116	1.713619	0.516795	99
Es	-0.844605	-2.989499	-0.471863	99
Es	0.687236	-0.026933	-0.515314	99
Es	0.368289	0.368000	0.458590	99
Es	1.573408	1.719462	1.009452	99
Es	-0.093363	-0.866169	0.175291	99
Es	0.312153	-2.894274	-0.116182	99
Es	-0.848289	-1.145208	0.010997	99
Es	1.330478	1.846442	1.076849	99
Es	0.736083	0.589099	-0.985166	99
Es	-1.278206	1.632642	1.223475	99
Es	-0.045119	-2.428579	-1.187722	99
Es	-0.592155	-1.280053	0.170273	99
Es	-0.746680	-1.401387	0.757801	99
Es	0.312487	1.146298	0.343409	99
Es	1.417677	0.712748	-1.203246	99
Es	0.539738	-0.339882	0.181934	99
Es	0.521894	1.046334	-0.418517	99
Es	-1.543890	1.385031	0.081747	99
Es	1.363133	2.337489	0.874691	99
Es	0.958738	1.598245	0.774347	99
46
Properties=species:S:1:pos:R:3:Z:I:1 energy=-325.1220050948879 field_type=dipole dipole="0.000000 0.000000 0.000000" charge=0
C	-0.251299	-2.539641	-0.477911	6
N	-0.592679	-1.279772	0.169949	7
C	0.539891	-0.339952	0.182019	6
C	0.736121	0.589149	-0.985321	6
C	0.312261	1.146308	0.343379	6
C	-1.059149	1.713618	0.516799	6
O	1.330701	1.846268	1.077079	8
H	-1.124059	-3.199421	-0.478441	1
H	0.561321	-3.050662	0.048189	1
H	0.044821	-2.379542	-1.519421	1
H	-0.891569	-1.468412	1.127669	1
H	1.439921	-0.724862	0.659289	1
H	0.010041	0.558378	-1.788971	1
H	1.751861	0.765288	-1.316231	1
H	-1.798749	1.226948	-0.128611	1
H	-1.060369	2.781708	0.272959	1
H	-1.386839	1.601788	1.555709	1
H	1.437771	2.752809	0.741869	1
Es	0.312081	-2.894232	-0.116196	99
Es	0.687359	-0.027000	-0.515506	99
Es	-0.592140	-1.280065	0.170286	99
Es	1.417513	0.712787	-1.203326	99
Es	1.573060	1.719539	1.010943	99
Es	-1.059116	1.713619	0.516795	99
Es	-1.543719	1.385057	0.081854	99
Es	1.330572	1.846438	1.076886	99
Es	-1.278232	1.632542	1.223512	99
Es	-0.848371	-1.144929	0.010699	99
Es	0.312489	1.146314	0.343408	99
Es	-0.251332	-2.539524	-0.477847	99
Es	0.245120	0.568866	-1.522323	99
Es	0.959284	1.597436	0.774114	99
Es	-0.093205	-0.866524	0.175498	99
Es	-0.378679	1.421710	0.421618	99
Es	-1.048399	2.448343	0.345944	99
Es	1.154721	-0.600693	0.500813	99
Es	-0.045107	-2.428653	-1.187804	99
Es	0.368273	0.367865	0.458591	99
Es	0.539739	-0.339880	0.181935	99
Es	0.521997	1.046375	-0.418397	99
Es	1.228954	1.855794	1.373489	99
Es	0.736082	0.589097	-0.985164	99
Es	1.363688	2.337513	0.874195	99
Es	-0.844445	-2.989502	-0.471819	99
Es	-0.415403	-1.829609	-0.099505	99
Es	-0.746810	-1.401341	0.757826	99
46
Properties=species:S:1:pos:R:3:Z:I:1 energy=-325.1220050948879 field_type=dipole dipole="0.000000 0.000000 0.000000" charge=0
C	-0.251299	-2.539641	-0.477911	6
N	-0.592679	-1.279772	0.169949	7
C	0.539891	-0.339952	0.182019	6
C	0.736121	0.589149	-0.985321	6
C	0.312261	1.146308	0.343379	6
C	-1.059149	1.713618	0.516799	6
O	1.330701	1.846268	1.077079	8
H	-1.124059	-3.199421	-0.478441	1
H	0.561321	-3.050662	0.048189	1
H	0.044821	-2.379542	-1.519421	1
H	-0.891569	-1.468412	1.127669	1
H	1.439921	-0.724862	0.659289	1
H	0.010041	0.558378	-1.788971	1
H	1.751861	0.765288	-1.316231	1
H	-1.798749	1.226948	-0.128611	1
H	-1.060369	2.781708	0.272959	1
H	-1.386839	1.601788	1.555709	1
H	1.437771	2.752809	0.741869	1
Es	1.572540	1.720051	1.007249	99
Es	0.539738	-0.339883	0.181933	99
Es	0.312486	1.146298	0.343399	99
Es	-0.847858	-1.145592	0.011303	99
Es	0.368258	0.367895	0.458473	99
Es	-0.415496	-1.829674	-0.099637	99
Es	0.521837	1.046616	-0.418347	99
Es	0.312065	-2.894291	-0.116149	99
Es	0.958206	1.598744	0.775081	99
Es	0.687369	-0.027317	-0.515503	99
Es	-0.746851	-1.401314	0.757756	99
Es	1.330514	1.846436	1.076842	99
Es	-1.059115	1.713617	0.516794	99
Es	1.362433	2.337828	0.875009	99
Es	-0.378558	1.421753	0.421647	99
Es	-0.093530	-0.865797	0.175032	99
Es	-0.844444	-2.989434	-0.471847	99
Es	0.736082	0.589095	-0.985164	99
Es	-0.592138	-1.280068	0.170291	99
Es	-0.045101	-2.428668	-1.187810	99
Es	-1.543855	1.384926	0.081817	99
Es	-1.278089	1.632588	1.223439	99
Es	1.417468	0.712783	-1.203204	99
Es	1.231826	1.853684	1.375379	99
Es	1.154691	-0.600684	0.500897	99
Es	-0.251332	-2.539523	-0.477846	99
Es	-1.048464	2.448360	0.346034	99
Es	0.245291	0.568913	-1.522346	99
