46
Properties=species:S:1:pos:R:3:Z:I:1 energy=-325.11137603068676 field_type=dipole dipole="0.000000 0.000000 0.000000" charge=0
C	-1.751403	-1.530092	-0.139709	6
N	-0.357403	-1.183322	0.108101	7
C	-0.089973	0.257808	-0.018179	6
C	-0.879514	1.108258	0.981891	6
C	1.387587	0.436998	0.221461	6
C	2.364926	0.540478	-0.923089	6
O	1.915077	1.701658	-0.212129	8
H	-1.855833	-2.619582	-0.145909	1
H	-2.096573	-1.155692	-1.109059	1
H	-2.409113	-1.155042	0.650691	1
H	0.220507	-1.680472	-0.569199	1
H	-0.338813	0.585678	-1.036959	1
H	-0.704803	0.778708	2.010461	1
H	-1.954003	1.071818	0.783091	1
H	-0.573533	2.157088	0.917561	1
H	1.728677	0.053548	1.174130	1
H	2.009247	0.412388	-1.936639	1
H	3.384947	0.219768	-0.756509	1
Es	1.387716	0.437276	0.221325	99
Es	1.867202	0.240353	-0.390864	99
Es	-1.751271	-1.530063	-0.139691	99
Es	0.657107	0.350481	0.094349	99
Es	1.622143	0.184961	0.871175	99
Es	2.122920	0.458498	-1.616291	99
Es	2.138219	1.795867	-0.021714	99
Es	-1.992052	-1.265204	-0.810466	99
Es	-1.819224	-2.273765	-0.149359	99
Es	-0.669836	1.812892	0.931758	99
Es	2.148957	1.321499	-0.549498	99
Es	-0.258973	0.488484	-0.723531	99
Es	-0.967611	-1.314477	-0.023825	99
Es	-0.879502	1.108234	0.981862	99
Es	-0.261896	-0.555428	0.030292	99
Es	-0.488504	0.674089	0.487949	99
Es	-0.264265	-1.286682	0.434362	99
Es	1.696376	1.841179	-0.380998	99
Es	3.063143	0.330025	-0.813407	99
Es	-0.757778	0.878124	1.678333	99
Es	-0.089982	0.257684	-0.018115	99
Es	-1.609839	1.076505	0.842527	99
Es	2.364813	0.540709	-0.922926	99
Es	-0.017765	-1.469854	-0.323711	99
Es	1.915037	1.701353	-0.212169	99
Es	-0.357569	-1.183115	0.107537	99
Es	1.666058	1.277260	0.032215	99
Es	-2.197648	-1.266440	0.395657	99
46
Properties=species:S:1:pos:R:3:Z:I:1 energy=-325.11137603068676 field_type=dipole dipole="0.000000 0.000000 0.000000" charge=0
C	-1.751403	-1.530092	-0.139709	6
N	-0.357403	-1.183322	0.108101	7
C	-0.089973	0.257808	-0.018179	6
C	-0.879514	1.108258	0.981891	6
C	1.387587	0.436998	0.221461	6
C	2.364926	0.540478	-0.923089	6
O	1.915077	1.701658	-0.212129	8
H	-1.855833	-2.619582	-0.145909	1
H	-2.096573	-1.155692	-1.109059	1
H	-2.409113	-1.155042	0.650691	1
H	0.220507	-1.680472	-0.569199	1
H	-0.338813	0.585678	-1.036959	1
H	-0.704803	0.778708	2.010461	1
H	-1.954003	1.071818	0.783091	1
H	-0.573533	2.157088	0.917561	1
H	1.728677	0.053548	1.174130	1
H	2.009247	0.412388	-1.936639	1
H	3.384947	0.219768	-0.756509	1
Es	-0.488638	0.674191	0.487807	99
Es	-0.670612	1.813859	0.932002	99
Es	-0.758903	0.878088	1.678379	99
Es	2.364814	0.540716	-0.922924	99
Es	1.866777	0.237510	-0.391193	99
Es	1.698989	1.837007	-0.378920	99
Es	-0.089982	0.257685	-0.018115	99
Es	0.656651	0.350707	0.094437	99
Es	-1.751269	-1.530061	-0.139691	99
Es	-0.879501	1.108233	0.981862	99
Es	2.133150	1.798670	-0.025688	99
Es	-0.258102	0.488149	-0.723386	99
Es	-0.016296	-1.472548	-0.324016	99
Es	-0.265265	-1.283889	0.431643	99
Es	2.123838	0.459241	-1.615905	99
Es	-2.198403	-1.265671	0.396408	99
Es	1.387720	0.437276	0.221318	99
Es	-1.818681	-2.273975	-0.150074	99
Es	-0.357568	-1.183126	0.107527	99
Es	1.664299	1.277520	0.036985	99
Es	-1.991221	-1.265631	-0.809949	99
Es	-0.967686	-1.315400	-0.021034	99
Es	3.062674	0.330828	-0.814022	99
Es	-1.608041	1.076533	0.843092	99
Es	1.621488	0.185563	0.870997	99
Es	2.153222	1.322696	-0.552443	99
Es	-0.262526	-0.555091	0.029861	99
Es	1.915046	1.701366	-0.212182	99
46
Properties=species:S:1:pos:R:3:Z:I:1 energy=-325.11137603068676 field_type=dipole dipole="0.000000 0.000000 0.000000" charge=0
C	-1.751403	-1.530092	-0.139709	6
N	-0.357403	-1.183322	0.108101	7
C	-0.089973	0.257808	-0.018179	6
C	-0.879514	1.108258	0.981891	6
C	1.387587	0.436998	0.221461	6
C	2.364926	0.540478	-0.923089	6
O	1.915077	1.701658	-0.212129	8
H	-1.855833	-2.619582	-0.145909	1
H	-2.096573	-1.155692	-1.109059	1
H	-2.409113	-1.155042	0.650691	1
H	0.220507	-1.680472	-0.569199	1
H	-0.338813	0.585678	-1.036959	1
H	-0.704803	0.778708	2.010461	1
H	-1.954003	1.071818	0.783091	1
H	-0.573533	2.157088	0.917561	1
H	1.728677	0.053548	1.174130	1
H	2.009247	0.412388	-1.936639	1
H	3.384947	0.219768	-0.756509	1
Es	3.062268	0.331408	-0.814391	99
Es	1.915012	1.701275	-0.212219	99
Es	-1.606606	1.076508	0.843478	99
Es	1.662406	1.278078	0.040457	99
Es	-0.671235	1.814580	0.932175	99
Es	2.130888	1.791806	-0.029612	99
Es	1.866535	0.235719	-0.391432	99
Es	-0.262865	-0.554650	0.030210	99
Es	0.656469	0.350911	0.094429	99
Es	-0.357574	-1.183129	0.107528	99
Es	-1.751272	-1.530065	-0.139690	99
Es	-0.488825	0.674263	0.487562	99
Es	2.364815	0.540717	-0.922921	99
Es	1.621005	0.185917	0.870991	99
Es	-0.879500	1.108233	0.981862	99
Es	-0.759663	0.877922	1.678437	99
Es	1.701890	1.842695	-0.376740	99
Es	-0.264464	-1.282398	0.428409	99
Es	-0.089981	0.257683	-0.018116	99
Es	-0.968341	-1.316632	-0.017557	99
Es	-1.818255	-2.274121	-0.150627	99
Es	-1.990727	-1.265769	-0.809572	99
Es	2.124488	0.459795	-1.615695	99
Es	-0.257577	0.487934	-0.723307	99
Es	-2.198826	-1.265331	0.396904	99
Es	-0.016296	-1.473512	-0.324971	99
Es	2.154486	1.323331	-0.554136	99
Es	1.387718	0.437274	0.221323	99
46
Properties=species:S:1:pos:R:3:Z:I:1 energy=-325.11137603068676 field_type=dipole dipole="0.000000 0.000000 0.000000" charge=0
C	-1.751403	-1.530092	-0.139709	6
N	-0.357403	-1.183322	0.108101	7
C	-0.089973	0.257808	-0.018179	6
C	-0.879514	1.108258	0.981891	6
C	1.387587	0.436998	0.221461	6
C	2.364926	0.540478	-0.923089	6
O	1.915077	1.701658	-0.212129	8
H	-1.855833	-2.619582	-0.145909	1
H	-2.096573	-1.155692	-1.109059	1
H	-2.409113	-1.155042	0.650691	1
H	0.220507	-1.680472	-0.569199	1
H	-0.338813	0.585678	-1.036959	1
H	-0.704803	0.778708	2.010461	1
H	-1.954003	1.071818	0.783091	1
H	-0.573533	2.157088	0.917561	1
H	1.728677	0.053548	1.174130	1
H	2.009247	0.412388	-1.936639	1
H	3.384947	0.219768	-0.756509	1
Es	-1.605650	1.076438	0.843695	99
Es	-1.990421	-1.266012	-0.809227	99
Es	2.124926	0.460085	-1.615554	99
Es	1.866306	0.234579	-0.391276	99
Es	-1.751273	-1.530060	-0.139688	99
Es	-0.015931	-1.474315	-0.324919	99
Es	-0.760174	0.877811	1.678442	99
Es	2.157168	1.325173	-0.556322	99
Es	3.061904	0.331981	-0.814693	99
Es	-2.199140	-1.265037	0.397228	99
Es	-0.357570	-1.183122	0.107514	99
Es	1.620826	0.186158	0.870933	99
Es	-0.089981	0.257685	-0.018115	99
Es	1.660315	1.277874	0.041013	99
Es	-0.671640	1.815083	0.932275	99
Es	-0.257103	0.487928	-0.723357	99
Es	-0.968255	-1.316793	-0.017084	99
Es	1.387717	0.437270	0.221321	99
Es	1.915062	1.701304	-0.212149	99
Es	-0.265136	-1.281995	0.427094	99
Es	2.127581	1.786876	-0.030930	99
Es	-0.879501	1.108232	0.981862	99
Es	2.364813	0.540716	-0.922924	99
Es	-0.488837	0.674321	0.487490	99
Es	-0.262658	-0.554385	0.030662	99
Es	1.704691	1.845825	-0.374109	99
Es	-1.818046	-2.274118	-0.150984	99
Es	0.655981	0.350941	0.094579	99
46
Properties=species:S:1:pos:R:3:Z:I:1 energy=-325.11137603068676 field_type=dipole dipole="0.000000 0.000000 0.000000" charge=0
C	-1.751403	-1.530092	-0.139709	6
N	-0.357403	-1.183322	0.108101	7
C	-0.089973	0.257808	-0.018179	6
C	-0.879514	1.108258	0.981891	6
C	1.387587	0.436998	0.221461	6
C	2.364926	0.540478	-0.923089	6
O	1.915077	1.701658	-0.212129	8
H	-1.855833	-2.619582	-0.145909	1
H	-2.096573	-1.155692	-1.109059	1
H	-2.409113	-1.155042	0.650691	1
H	0.220507	-1.680472	-0.569199	1
H	-0.338813	0.585678	-1.036959	1
H	-0.704803	0.778708	2.010461	1
H	-1.954003	1.071818	0.783091	1
H	-0.573533	2.157088	0.917561	1
H	1.728677	0.053548	1.174130	1
H	2.009247	0.412388	-1.936639	1
H	3.384947	0.219768	-0.756509	1
Es	-0.879500	1.108233	0.981861	99
Es	-0.263405	-0.554417	0.030275	99
Es	-1.990067	-1.266253	-0.809051	99
Es	2.157476	1.326106	-0.557678	99
Es	1.914971	1.701269	-0.212253	99
Es	-0.016427	-1.474305	-0.325943	99
Es	-1.817860	-2.274124	-0.151173	99
Es	1.866144	0.233672	-0.391272	99
Es	2.364814	0.540717	-0.922924	99
Es	-0.760786	0.877692	1.678600	99
Es	2.126341	1.782616	-0.033082	99
Es	1.620630	0.186347	0.870874	99
Es	3.061726	0.332342	-0.814975	99
Es	-0.488790	0.674380	0.487534	99
Es	1.706864	1.848997	-0.372109	99
Es	-0.357562	-1.183113	0.107490	99
Es	-2.199414	-1.264702	0.397437	99
Es	0.655754	0.350915	0.094606	99
Es	-1.751274	-1.530063	-0.139691	99
Es	1.659210	1.278037	0.042541	99
Es	-1.604765	1.076468	0.843652	99
Es	-0.256782	0.487882	-0.723334	99
Es	1.387717	0.437275	0.221321	99
Es	-0.671957	1.815408	0.932340	99
Es	-0.263318	-1.280607	0.424791	99
Es	-0.089981	0.257688	-0.018115	99
Es	-0.968963	-1.318367	-0.013592	99
Es	2.125179	0.460352	-1.615350	99
46
Properties=species:S:1:pos:R:3:Z:I:1 energy=-325.11137603068676 field_type=dipole dipole="0.000000 0.000000 0.000000" charge=0
C	-1.751403	-1.530092	-0.139709	6
N	-0.357403	-1.183322	0.108101	7
C	-0.089973	0.257808	-0.018179	6
C	-0.879514	1.108258	0.981891	6
C	1.387587	0.436998	0.221461	6
C	2.364926	0.540478	-0.923089	6
O	1.915077	1.701658	-0.212129	8
H	-1.855833	-2.619582	-0.145909	1
H	-2.096573	-1.155692	-1.109059	1
H	-2.409113	-1.155042	0.650691	1
H	0.220507	-1.680472	-0.569199	1
H	-0.338813	0.585678	-1.036959	1
H	-0.704803	0.778708	2.010461	1
H	-1.954003	1.071818	0.783091	1
H	-0.573533	2.157088	0.917561	1
H	1.728677	0.053548	1.174130	1
H	2.009247	0.412388	-1.936639	1
H	3.384947	0.219768	-0.756509	1
Es	1.659507	1.278423	0.044768	99
Es	-1.751277	-1.530063	-0.139692	99
Es	-0.672277	1.815689	0.932374	99
Es	-0.969403	-1.319064	-0.011788	99
Es	-0.256615	0.487815	-0.723316	99
Es	-0.879500	1.108233	0.981862	99
Es	-1.989904	-1.266196	-0.808909	99
Es	1.707205	1.846996	-0.371635	99
Es	2.364815	0.540710	-0.922924	99
Es	-0.263164	-1.279608	0.422790	99
Es	-0.761353	0.877468	1.678850	99
Es	-1.603804	1.076556	0.843620	99
Es	-1.817631	-2.274208	-0.151426	99
Es	-0.016175	-1.474881	-0.325970	99
Es	1.387715	0.437268	0.221324	99
Es	-0.263534	-0.554181	0.030448	99
Es	-0.089981	0.257686	-0.018115	99
Es	0.655672	0.350990	0.094586	99
Es	-0.357577	-1.183095	0.107479	99
Es	-2.199537	-1.264698	0.397610	99
Es	1.915162	1.701259	-0.212091	99
Es	1.865926	0.232879	-0.391187	99
Es	2.158962	1.326823	-0.558485	99
Es	2.125553	0.460634	-1.615270	99
Es	-0.488875	0.674421	0.487395	99
Es	2.124156	1.783440	-0.035354	99
Es	1.620439	0.186518	0.870899	99
Es	3.061470	0.332629	-0.815068	99
46
Properties=species:S:1:pos:R:3:Z:I:1 energy=-325.11137603068676 field_type=dipole dipole="0.000000 0.000000 0.000000" charge=0
C	-1.751403	-1.530092	-0.139709	6
N	-0.357403	-1.183322	0.108101	7
C	-0.089973	0.257808	-0.018179	6
C	-0.879514	1.108258	0.981891	6
C	1.387587	0.436998	0.221461	6
C	2.364926	0.540478	-0.923089	6
O	1.915077	1.701658	-0.212129	8
H	-1.855833	-2.619582	-0.145909	1
H	-2.096573	-1.155692	-1.109059	1
H	-2.409113	-1.155042	0.650691	1
H	0.220507	-1.680472	-0.569199	1
H	-0.338813	0.585678	-1.036959	1
H	-0.704803	0.778708	2.010461	1
H	-1.954003	1.071818	0.783091	1
H	-0.573533	2.157088	0.917561	1
H	1.728677	0.053548	1.174130	1
H	2.009247	0.412388	-1.936639	1
H	3.384947	0.219768	-0.756509	1
Es	-0.879500	1.108232	0.981861	99
Es	-1.603084	1.076650	0.843585	99
Es	2.160202	1.327217	-0.558568	99
Es	-0.263632	-0.554010	0.030479	99
Es	-0.357558	-1.183136	0.107582	99
Es	-0.016581	-1.474972	-0.326466	99
Es	-0.489019	0.674410	0.487369	99
Es	2.125671	0.460898	-1.614998	99
Es	2.122774	1.784650	-0.036647	99
Es	-1.817465	-2.274186	-0.151723	99
Es	-0.256340	0.487762	-0.723328	99
Es	-0.089981	0.257684	-0.018115	99
Es	-2.199629	-1.264683	0.397889	99
Es	-1.989766	-1.266147	-0.808751	99
Es	1.620414	0.186588	0.870871	99
Es	-1.751275	-1.530063	-0.139691	99
Es	1.865760	0.232359	-0.391257	99
Es	0.655449	0.351029	0.094734	99
Es	3.061460	0.332875	-0.815367	99
Es	-0.672456	1.815881	0.932308	99
Es	1.915033	1.701366	-0.212196	99
Es	-0.969695	-1.319808	-0.010011	99
Es	1.387715	0.437275	0.221321	99
Es	-0.761813	0.877385	1.679059	99
Es	2.364813	0.540717	-0.922923	99
Es	1.707685	1.844825	-0.371822	99
Es	-0.262464	-1.279072	0.421217	99
Es	1.659258	1.278718	0.046364	99
46
Properties=species:S:1:pos:R:3:Z:I:1 energy=-325.11137603068676 field_type=dipole dipole="0.000000 0.000000 0.000000" charge=0
C	-1.751403	-1.530092	-0.139709	6
N	-0.357403	-1.183322	0.108101	7
C	-0.089973	0.257808	-0.018179	6
C	-0.879514	1.108258	0.981891	6
C	1.387587	0.436998	0.221461	6
C	2.364926	0.540478	-0.923089	6
O	1.915077	1.701658	-0.212129	8
H	-1.855833	-2.619582	-0.145909	1
H	-2.096573	-1.155692	-1.109059	1
H	-2.409113	-1.155042	0.650691	1
H	0.220507	-1.680472	-0.569199	1
H	-0.338813	0.585678	-1.036959	1
H	-0.704803	0.778708	2.010461	1
H	-1.954003	1.071818	0.783091	1
H	-0.573533	2.157088	0.917561	1
H	1.728677	0.053548	1.174130	1
H	2.009247	0.412388	-1.936639	1
H	3.384947	0.219768	-0.756509	1
Es	0.655232	0.350946	0.094748	99
Es	1.658189	1.278931	0.046205	99
Es	1.387717	0.437279	0.221323	99
Es	1.865708	0.231845	-0.391030	99
Es	-1.989671	-1.266364	-0.808706	99
Es	1.709972	1.850583	-0.369146	99
Es	-0.089981	0.257687	-0.018114	99
Es	-0.879500	1.108232	0.981861	99
Es	1.915047	1.701347	-0.212182	99
Es	-1.817419	-2.274150	-0.151672	99
Es	-0.263895	-0.554146	0.030279	99
Es	2.364815	0.540718	-0.922923	99
Es	2.159843	1.327906	-0.560111	99
Es	-1.602543	1.076629	0.843543	99
Es	-0.970329	-1.320825	-0.007664	99
Es	2.125946	0.460988	-1.615193	99
Es	-0.016402	-1.475179	-0.326522	99
Es	-0.256109	0.487848	-0.723432	99
Es	-0.762170	0.877251	1.679133	99
Es	-1.751273	-1.530061	-0.139689	99
Es	-0.672645	1.816092	0.932356	99
Es	2.122121	1.777969	-0.037770	99
Es	-0.261751	-1.277725	0.419123	99
Es	-2.199779	-1.264549	0.397853	99
Es	-0.488894	0.674472	0.487436	99
Es	3.061063	0.333148	-0.815324	99
Es	-0.357571	-1.183109	0.107484	99
Es	1.620250	0.186682	0.870910	99
46
Properties=species:S:1:pos:R:3:Z:I:1 energy=-325.11137603068676 field_type=dipole dipole="0.000000 0.000000 0.000000" charge=0
C	-1.751403	-1.530092	-0.139709	6
N	-0.357403	-1.183322	0.108101	7
C	-0.089973	0.257808	-0.018179	6
C	-0.879514	1.108258	0.981891	6
C	1.387587	0.436998	0.221461	6
C	2.364926	0.540478	-0.923089	6
O	1.915077	1.701658	-0.212129	8
H	-1.855833	-2.619582	-0.145909	1
H	-2.096573	-1.155692	-1.109059	1
H	-2.409113	-1.155042	0.650691	1
H	0.220507	-1.680472	-0.569199	1
H	-0.338813	0.585678	-1.036959	1
H	-0.704803	0.778708	2.010461	1
H	-1.954003	1.071818	0.783091	1
H	-0.573533	2.157088	0.917561	1
H	1.728677	0.053548	1.174130	1
H	2.009247	0.412388	-1.936639	1
H	3.384947	0.219768	-0.756509	1
Es	1.387717	0.437275	0.221324	99
Es	-0.970422	-1.321313	-0.006611	99
Es	-0.488919	0.674522	0.487324	99
Es	-1.602109	1.076598	0.843616	99
Es	-0.261726	-1.277047	0.418238	99
Es	3.061007	0.333324	-0.815419	99
Es	2.119979	1.783469	-0.038902	99
Es	-0.264018	-0.554088	0.030061	99
Es	-0.672869	1.816248	0.932359	99
Es	1.620135	0.186648	0.870921	99
Es	1.658404	1.279587	0.048332	99
Es	2.126112	0.461103	-1.615040	99
Es	-0.089981	0.257684	-0.018114	99
Es	-0.016314	-1.475604	-0.326422	99
Es	2.364815	0.540716	-0.922924	99
Es	-1.817272	-2.274185	-0.151770	99
Es	-0.357575	-1.183091	0.107436	99
Es	-0.256007	0.487816	-0.723470	99
Es	-1.751274	-1.530063	-0.139690	99
Es	-0.762338	0.877176	1.679197	99
Es	0.655165	0.351054	0.094712	99
Es	-1.989574	-1.266303	-0.808695	99
Es	1.915074	1.701261	-0.212181	99
Es	-0.879502	1.108231	0.981860	99
Es	1.865655	0.231582	-0.391128	99
Es	-2.199776	-1.264515	0.398008	99
Es	1.709260	1.844413	-0.371295	99
Es	2.162331	1.327944	-0.558950	99
46
Properties=species:S:1:pos:R:3:Z:I:1 energy=-325.11137603068676 field_type=dipole dipole="0.000000 0.000000 0.000000" charge=0
C	-1.751403	-1.530092	-0.139709	6
N	-0.357403	-1.183322	0.108101	7
C	-0.089973	0.257808	-0.018179	6
C	-0.879514	1.108258	0.981891	6
C	1.387587	0.436998	0.221461	6
C	2.364926	0.540478	-0.923089	6
O	1.915077	1.701658	-0.212129	8
H	-1.855833	-2.619582	-0.145909	1
H	-2.096573	-1.155692	-1.109059	1
H	-2.409113	-1.155042	0.650691	1
H	0.220507	-1.680472	-0.569199	1
H	-0.338813	0.585678	-1.036959	1
H	-0.704803	0.778708	2.010461	1
H	-1.954003	1.071818	0.783091	1
H	-0.573533	2.157088	0.917561	1
H	1.728677	0.053548	1.174130	1
H	2.009247	0.412388	-1.936639	1
H	3.384947	0.219768	-0.756509	1
Es	-0.255796	0.487817	-0.723543	99
Es	-0.089982	0.257690	-0.018114	99
Es	-1.989505	-1.266339	-0.808649	99
Es	-1.601708	1.076587	0.843658	99
Es	-0.489023	0.674569	0.487223	99
Es	2.119793	1.774245	-0.039196	99
Es	-1.751274	-1.530063	-0.139690	99
Es	1.619987	0.186744	0.871008	99
Es	-0.017052	-1.474918	-0.327337	99
Es	-0.971107	-1.322274	-0.004001	99
Es	-0.762488	0.877089	1.679309	99
Es	-0.879501	1.108232	0.981861	99
Es	1.656506	1.279183	0.046743	99
Es	1.915121	1.701288	-0.212123	99
Es	3.060821	0.333475	-0.815457	99
Es	2.126139	0.461095	-1.615153	99
Es	-1.817170	-2.274093	-0.151908	99
Es	-0.260330	-1.276737	0.415985	99
Es	1.712326	1.852948	-0.367867	99
Es	0.655063	0.351013	0.094726	99
Es	-0.357574	-1.183105	0.107487	99
Es	-2.199937	-1.264602	0.398078	99
Es	-0.263958	-0.554059	0.030545	99
Es	1.387717	0.437276	0.221323	99
Es	2.364815	0.540715	-0.922923	99
Es	-0.673079	1.816351	0.932356	99
Es	2.161436	1.328906	-0.560646	99
Es	1.865733	0.231411	-0.390919	99
46
Properties=species:S:1:pos:R:3:Z:I:1 energy=-325.11137603068676 field_type=dipole dipole="0.000000 0.000000 0.000000" charge=0
C	-1.751403	-1.530092	-0.139709	6
N	-0.357403	-1.183322	0.108101	7
C	-0.089973	0.257808	-0.018179	6
C	-0.879514	1.108258	0.981891	6
C	1.387587	0.436998	0.221461	6
C	2.364926	0.540478	-0.923089	6
O	1.915077	1.701658	-0.212129	8
H	-1.855833	-2.619582	-0.145909	1
H	-2.096573	-1.155692	-1.109059	1
H	-2.409113	-1.155042	0.650691	1
H	0.220507	-1.680472	-0.569199	1
H	-0.338813	0.585678	-1.036959	1
H	-0.704803	0.778708	2.010461	1
H	-1.954003	1.071818	0.783091	1
H	-0.573533	2.157088	0.917561	1
H	1.728677	0.053548	1.174130	1
H	2.009247	0.412388	-1.936639	1
H	3.384947	0.219768	-0.756509	1
Es	-2.199943	-1.264607	0.398186	99
Es	-0.762956	0.876835	1.679470	99
Es	1.712064	1.851588	-0.367729	99
Es	1.865654	0.231149	-0.390990	99
Es	-1.751275	-1.530063	-0.139691	99
Es	-0.357571	-1.183120	0.107509	99
Es	2.162010	1.329469	-0.560819	99
Es	0.654887	0.350985	0.094803	99
Es	-0.970924	-1.322454	-0.003690	99
Es	-0.260703	-1.275972	0.415463	99
Es	2.364816	0.540716	-0.922926	99
Es	1.387717	0.437274	0.221323	99
Es	-0.673048	1.816427	0.932442	99
Es	-1.817139	-2.274068	-0.152012	99
Es	-0.089981	0.257685	-0.018114	99
Es	-0.264254	-0.554086	0.030308	99
Es	-0.255733	0.487795	-0.723503	99
Es	2.118931	1.775087	-0.040050	99
Es	-1.601178	1.076801	0.843502	99
Es	1.620072	0.186788	0.870895	99
Es	-0.879501	1.108232	0.981862	99
Es	-1.989540	-1.266381	-0.808504	99
Es	3.060657	0.333651	-0.815445	99
Es	1.915084	1.701370	-0.212149	99
Es	-0.489090	0.674617	0.487172	99
Es	1.657069	1.278937	0.047677	99
Es	-0.016544	-1.475473	-0.327058	99
Es	2.126396	0.461261	-1.615154	99
46
Properties=species:S:1:pos:R:3:Z:I:1 energy=-325.11137603068676 field_type=dipole dipole="0.000000 0.000000 0.000000" charge=0
C	-1.751403	-1.530092	-0.139709	6
N	-0.357403	-1.183322	0.108101	7
C	-0.089973	0.257808	-0.018179	6
C	-0.879514	1.108258	0.981891	6
C	1.387587	0.436998	0.221461	6
C	2.364926	0.540478	-0.923089	6
O	1.915077	1.701658	-0.212129	8
H	-1.855833	-2.619582	-0.145909	1
H	-2.096573	-1.155692	-1.109059	1
H	-2.409113	-1.155042	0.650691	1
H	0.220507	-1.680472	-0.569199	1
H	-0.338813	0.585678	-1.036959	1
H	-0.704803	0.778708	2.010461	1
H	-1.954003	1.071818	0.783091	1
H	-0.573533	2.157088	0.917561	1
H	1.728677	0.053548	1.174130	1
H	2.009247	0.412388	-1.936639	1
H	3.384947	0.219768	-0.756509	1
Es	1.714825	1.857604	-0.364851	99
Es	2.364812	0.540724	-0.922927	99
Es	2.126356	0.461274	-1.615199	99
Es	-1.600925	1.076884	0.843418	99
Es	2.160901	1.329658	-0.562342	99
Es	1.655789	1.279476	0.047478	99
Es	3.060589	0.333834	-0.815553	99
Es	0.654821	0.350963	0.094934	99
Es	2.118695	1.768292	-0.041211	99
Es	-0.357566	-1.183119	0.107481	99
Es	1.865712	0.230952	-0.390795	99
Es	-2.200114	-1.264539	0.398204	99
Es	-0.260264	-1.276077	0.414328	99
Es	-0.263995	-0.553935	0.030753	99
Es	-0.489021	0.674550	0.487112	99
Es	1.915036	1.701318	-0.212191	99
Es	-1.989466	-1.266616	-0.808551	99
Es	-0.971350	-1.322842	-0.002804	99
Es	-0.016891	-1.475084	-0.327292	99
Es	-0.673084	1.816435	0.932525	99
Es	-0.879501	1.108233	0.981863	99
Es	1.387716	0.437274	0.221323	99
Es	-0.255619	0.487846	-0.723563	99
Es	1.620020	0.186873	0.870866	99
Es	-1.817008	-2.273952	-0.151938	99
Es	-0.763237	0.876796	1.679515	99
Es	-0.089982	0.257685	-0.018115	99
Es	-1.751276	-1.530063	-0.139691	99
46
Properties=species:S:1:pos:R:3:Z:I:1 energy=-325.11137603068676 field_type=dipole dipole="0.000000 0.000000 0.000000" charge=0
C	-1.751403	-1.530092	-0.139709	6
N	-0.357403	-1.183322	0.108101	7
C	-0.089973	0.257808	-0.018179	6
C	-0.879514	1.108258	0.981891	6
C	1.387587	0.436998	0.221461	6
C	2.364926	0.540478	-0.923089	6
O	1.915077	1.701658	-0.212129	8
H	-1.855833	-2.619582	-0.145909	1
H	-2.096573	-1.155692	-1.109059	1
H	-2.409113	-1.155042	0.650691	1
H	0.220507	-1.680472	-0.569199	1
H	-0.338813	0.585678	-1.036959	1
H	-0.704803	0.778708	2.010461	1
H	-1.954003	1.071818	0.783091	1
H	-0.573533	2.157088	0.917561	1
H	1.728677	0.053548	1.174130	1
H	2.009247	0.412388	-1.936639	1
H	3.384947	0.219768	-0.756509	1
Es	-0.357573	-1.183094	0.107442	99
Es	3.060599	0.333816	-0.815679	99
Es	-0.879501	1.108231	0.981861	99
Es	-0.255584	0.487877	-0.723612	99
Es	2.160655	1.329487	-0.562526	99
Es	-1.817023	-2.273926	-0.152047	99
Es	2.364813	0.540717	-0.922926	99
Es	1.620032	0.186944	0.870820	99
Es	-2.200111	-1.264555	0.398289	99
Es	2.118527	1.766193	-0.041732	99
Es	1.865649	0.230835	-0.390797	99
Es	-1.751275	-1.530063	-0.139691	99
Es	1.387714	0.437273	0.221318	99
Es	1.654723	1.280005	0.047529	99
Es	-0.259613	-1.275765	0.413069	99
Es	1.716406	1.859336	-0.364203	99
Es	-0.089981	0.257685	-0.018115	99
Es	-1.600602	1.076967	0.843312	99
Es	-0.488959	0.674557	0.487272	99
Es	-0.017266	-1.474815	-0.327774	99
Es	0.654670	0.350883	0.094957	99
Es	-0.673116	1.816450	0.932426	99
Es	-0.264014	-0.553991	0.030892	99
Es	2.126314	0.461363	-1.615091	99
Es	-1.989375	-1.266487	-0.808590	99
Es	1.915008	1.701291	-0.212221	99
Es	-0.971658	-1.323525	-0.001112	99
Es	-0.763486	0.876752	1.679704	99
46
Properties=species:S:1:pos:R:3:Z:I:1 energy=-325.11137603068676 field_type=dipole dipole="0.000000 0.000000 0.000000" charge=0
C	-1.751403	-1.530092	-0.139709	6
N	-0.357403	-1.183322	0.108101	7
C	-0.089973	0.257808	-0.018179	6
C	-0.879514	1.108258	0.981891	6
C	1.387587	0.436998	0.221461	6
C	2.364926	0.540478	-0.923089	6
O	1.915077	1.701658	-0.212129	8
H	-1.855833	-2.619582	-0.145909	1
H	-2.096573	-1.155692	-1.109059	1
H	-2.409113	-1.155042	0.650691	1
H	0.220507	-1.680472	-0.569199	1
H	-0.338813	0.585678	-1.036959	1
H	-0.704803	0.778708	2.010461	1
H	-1.954003	1.071818	0.783091	1
H	-0.573533	2.157088	0.917561	1
H	1.728677	0.053548	1.174130	1
H	2.009247	0.412388	-1.936639	1
H	3.384947	0.219768	-0.756509	1
Es	-1.600422	1.076940	0.843335	99
Es	-0.016785	-1.475534	-0.327340	99
Es	2.126613	0.461377	-1.615176	99
Es	-0.264334	-0.554146	0.030211	99
Es	-0.489029	0.674516	0.487238	99
Es	-0.971614	-1.323840	-0.000224	99
Es	2.162296	1.330198	-0.562453	99
Es	-0.259874	-1.274609	0.412426	99
Es	1.619952	0.186868	0.870970	99
Es	-0.879499	1.108232	0.981860	99
Es	-1.989316	-1.266528	-0.808576	99
Es	-2.200140	-1.264492	0.398278	99
Es	-0.763598	0.876757	1.679698	99
Es	-1.751275	-1.530063	-0.139690	99
Es	-0.357567	-1.183099	0.107433	99
Es	0.654638	0.351032	0.094936	99
Es	1.387714	0.437275	0.221323	99
Es	-0.089981	0.257685	-0.018115	99
Es	-0.255449	0.487872	-0.723620	99
Es	3.060335	0.333949	-0.815534	99
Es	2.364817	0.540718	-0.922925	99
Es	1.655853	1.279616	0.048262	99
Es	1.714607	1.854875	-0.365336	99
Es	2.117502	1.770333	-0.041757	99
Es	-1.816941	-2.273988	-0.152025	99
Es	1.865465	0.230702	-0.390722	99
Es	-0.673161	1.816556	0.932393	99
Es	1.915169	1.701243	-0.212091	99
46
Properties=species:S:1:pos:R:3:Z:I:1 energy=-325.11137603068676 field_type=dipole dipole="0.000000 0.000000 0.000000" charge=0
C	-1.751403	-1.530092	-0.139709	6
N	-0.357403	-1.183322	0.108101	7
C	-0.089973	0.257808	-0.018179	6
C	-0.879514	1.108258	0.981891	6
C	1.387587	0.436998	0.221461	6
C	2.364926	0.540478	-0.923089	6
O	1.915077	1.701658	-0.212129	8
H	-1.855833	-2.619582	-0.145909	1
H	-2.096573	-1.155692	-1.109059	1
H	-2.409113	-1.155042	0.650691	1
H	0.220507	-1.680472	-0.569199	1
H	-0.338813	0.585678	-1.036959	1
H	-0.704803	0.778708	2.010461	1
H	-1.954003	1.071818	0.783091	1
H	-0.573533	2.157088	0.917561	1
H	1.728677	0.053548	1.174130	1
H	2.009247	0.412388	-1.936639	1
H	3.384947	0.219768	-0.756509	1
Es	1.720500	1.865746	-0.359192	99
Es	-1.751275	-1.530063	-0.139690	99
Es	1.865768	0.230640	-0.390521	99
Es	-0.763512	0.876603	1.679615	99
Es	-2.200332	-1.264668	0.398298	99
Es	1.653744	1.280060	0.047247	99
Es	1.387716	0.437273	0.221322	99
Es	-0.264017	-0.553971	0.031114	99
Es	0.654630	0.350903	0.094895	99
Es	-1.816970	-2.273825	-0.152232	99
Es	2.116791	1.758362	-0.044103	99
Es	-0.259761	-1.275556	0.412589	99
Es	2.364816	0.540716	-0.922923	99
Es	-0.357571	-1.183105	0.107475	99
Es	-0.673116	1.816513	0.932593	99
Es	2.126563	0.461324	-1.615326	99
Es	-0.017040	-1.474893	-0.327705	99
Es	-1.600595	1.076940	0.843296	99
Es	-0.971520	-1.323478	-0.000984	99
Es	3.060235	0.334100	-0.815565	99
Es	-0.879501	1.108233	0.981862	99
Es	-0.255564	0.487858	-0.723657	99
Es	-0.488928	0.674656	0.487184	99
Es	-0.089979	0.257686	-0.018114	99
Es	2.159472	1.330649	-0.564976	99
Es	-1.989415	-1.266658	-0.808336	99
Es	1.914918	1.701360	-0.212274	99
Es	1.619919	0.187039	0.870885	99
46
Properties=species:S:1:pos:R:3:Z:I:1 energy=-325.11137603068676 field_type=dipole dipole="0.000000 0.000000 0.000000" charge=0
C	-1.751403	-1.530092	-0.139709	6
N	-0.357403	-1.183322	0.108101	7
C	-0.089973	0.257808	-0.018179	6
C	-0.879514	1.108258	0.981891	6
C	1.387587	0.436998	0.221461	6
C	2.364926	0.540478	-0.923089	6
O	1.915077	1.701658	-0.212129	8
H	-1.855833	-2.619582	-0.145909	1
H	-2.096573	-1.155692	-1.109059	1
H	-2.409113	-1.155042	0.650691	1
H	0.220507	-1.680472	-0.569199	1
H	-0.338813	0.585678	-1.036959	1
H	-0.704803	0.778708	2.010461	1
H	-1.954003	1.071818	0.783091	1
H	-0.573533	2.157088	0.917561	1
H	1.728677	0.053548	1.174130	1
H	2.009247	0.412388	-1.936639	1
H	3.384947	0.219768	-0.756509	1
Es	-0.255338	0.487907	-0.723757	99
Es	3.060229	0.334089	-0.815565	99
Es	1.865588	0.230575	-0.390673	99
Es	-1.816903	-2.273843	-0.152114	99
Es	-0.879501	1.108231	0.981859	99
Es	1.619872	0.186945	0.871015	99
Es	-1.989293	-1.266517	-0.808587	99
Es	2.117064	1.766056	-0.042702	99
Es	-1.599936	1.076962	0.843302	99
Es	2.126673	0.461433	-1.615245	99
Es	1.387715	0.437280	0.221321	99
Es	-0.017107	-1.475264	-0.327697	99
Es	1.716423	1.858481	-0.363281	99
Es	-0.488993	0.674668	0.487091	99
Es	2.161737	1.330607	-0.563409	99
Es	-1.751275	-1.530063	-0.139690	99
Es	-0.259157	-1.274018	0.409990	99
Es	-2.200208	-1.264572	0.398398	99
Es	-0.357563	-1.183104	0.107479	99
Es	-0.763825	0.876527	1.679853	99
Es	-0.264270	-0.553982	0.030561	99
Es	-0.673413	1.816623	0.932487	99
Es	-0.089981	0.257685	-0.018114	99
Es	2.364818	0.540716	-0.922924	99
Es	0.654478	0.350975	0.094957	99
Es	1.914980	1.701280	-0.212245	99
Es	-0.972028	-1.324917	0.002181	99
Es	1.655191	1.279681	0.048286	99
46
Properties=species:S:1:pos:R:3:Z:I:1 energy=-325.11137603068676 field_type=dipole dipole="0.000000 0.000000 0.000000" charge=0
C	-1.751403	-1.530092	-0.139709	6
N	-0.357403	-1.183322	0.108101	7
C	-0.089973	0.257808	-0.018179	6
C	-0.879514	1.108258	0.981891	6
C	1.387587	0.436998	0.221461	6
C	2.364926	0.540478	-0.923089	6
O	1.915077	1.701658	-0.212129	8
H	-1.855833	-2.619582	-0.145909	1
H	-2.096573	-1.155692	-1.109059	1
H	-2.409113	-1.155042	0.650691	1
H	0.220507	-1.680472	-0.569199	1
H	-0.338813	0.585678	-1.036959	1
H	-0.704803	0.778708	2.010461	1
H	-1.954003	1.071818	0.783091	1
H	-0.573533	2.157088	0.917561	1
H	1.728677	0.053548	1.174130	1
H	2.009247	0.412388	-1.936639	1
H	3.384947	0.219768	-0.756509	1
Es	1.619814	0.186994	0.870984	99
Es	-0.764389	0.876388	1.680084	99
Es	1.716262	1.857043	-0.363840	99
Es	-0.016913	-1.475368	-0.327611	99
Es	0.654461	0.350938	0.095100	99
Es	-0.972027	-1.325033	0.002489	99
Es	-0.673379	1.816614	0.932487	99
Es	-1.816850	-2.273877	-0.152244	99
Es	-0.489011	0.674659	0.487120	99
Es	1.865545	0.230175	-0.390746	99
Es	-0.264508	-0.554046	0.030317	99
Es	-0.255164	0.487915	-0.723801	99
Es	-2.200291	-1.264585	0.398412	99
Es	2.126848	0.461577	-1.615212	99
Es	2.117084	1.767364	-0.042878	99
Es	-0.879501	1.108233	0.981862	99
Es	1.914934	1.701283	-0.212285	99
Es	-1.989269	-1.266557	-0.808424	99
Es	-0.259135	-1.273613	0.409750	99
Es	1.387711	0.437277	0.221321	99
Es	-1.599454	1.077150	0.843016	99
Es	3.060182	0.334238	-0.815571	99
Es	-0.089981	0.257685	-0.018115	99
Es	2.364814	0.540717	-0.922924	99
Es	-1.751276	-1.530064	-0.139690	99
Es	1.655286	1.279911	0.048784	99
Es	2.161749	1.330534	-0.563100	99
Es	-0.357569	-1.183110	0.107496	99
46
Properties=species:S:1:pos:R:3:Z:I:1 energy=-325.11137603068676 field_type=dipole dipole="0.000000 0.000000 0.000000" charge=0
C	-1.751403	-1.530092	-0.139709	6
N	-0.357403	-1.183322	0.108101	7
C	-0.089973	0.257808	-0.018179	6
C	-0.879514	1.108258	0.981891	6
C	1.387587	0.436998	0.221461	6
C	2.364926	0.540478	-0.923089	6
O	1.915077	1.701658	-0.212129	8
H	-1.855833	-2.619582	-0.145909	1
H	-2.096573	-1.155692	-1.109059	1
H	-2.409113	-1.155042	0.650691	1
H	0.220507	-1.680472	-0.569199	1
H	-0.338813	0.585678	-1.036959	1
H	-0.704803	0.778708	2.010461	1
H	-1.954003	1.071818	0.783091	1
H	-0.573533	2.157088	0.917561	1
H	1.728677	0.053548	1.174130	1
H	2.009247	0.412388	-1.936639	1
H	3.384947	0.219768	-0.756509	1
Es	1.915032	1.701387	-0.212185	99
Es	-0.489141	0.674590	0.487085	99
Es	0.654392	0.350976	0.095048	99
Es	2.162685	1.331086	-0.563176	99
Es	1.865522	0.230247	-0.390633	99
Es	-0.764101	0.876482	1.680000	99
Es	-0.089981	0.257685	-0.018115	99
Es	-2.200271	-1.264516	0.398441	99
Es	-1.989223	-1.266578	-0.808495	99
Es	-0.972093	-1.325475	0.003426	99
Es	1.654912	1.279617	0.048425	99
Es	-0.879501	1.108233	0.981862	99
Es	1.387717	0.437276	0.221322	99
Es	-1.816868	-2.273839	-0.152187	99
Es	-0.255172	0.487907	-0.723816	99
Es	-0.673391	1.816650	0.932407	99
Es	-1.599548	1.077119	0.843280	99
Es	-1.751273	-1.530062	-0.139689	99
Es	2.364813	0.540716	-0.922923	99
Es	2.126867	0.461509	-1.615298	99
Es	-0.017117	-1.475257	-0.327832	99
Es	3.060052	0.334257	-0.815530	99
Es	1.716501	1.857352	-0.363644	99
Es	-0.258839	-1.273410	0.409018	99
Es	2.116285	1.766639	-0.042852	99
Es	-0.357563	-1.183102	0.107481	99
Es	1.619790	0.187003	0.871003	99
Es	-0.264512	-0.554049	0.030353	99
46
Properties=species:S:1:pos:R:3:Z:I:1 energy=-325.11137603068676 field_type=dipole dipole="0.000000 0.000000 0.000000" charge=0
C	-1.751403	-1.530092	-0.139709	6
N	-0.357403	-1.183322	0.108101	7
C	-0.089973	0.257808	-0.018179	6
C	-0.879514	1.108258	0.981891	6
C	1.387587	0.436998	0.221461	6
C	2.364926	0.540478	-0.923089	6
O	1.915077	1.701658	-0.212129	8
H	-1.855833	-2.619582	-0.145909	1
H	-2.096573	-1.155692	-1.109059	1
H	-2.409113	-1.155042	0.650691	1
H	0.220507	-1.680472	-0.569199	1
H	-0.338813	0.585678	-1.036959	1
H	-0.704803	0.778708	2.010461	1
H	-1.954003	1.071818	0.783091	1
H	-0.573533	2.157088	0.917561	1
H	1.728677	0.053548	1.174130	1
H	2.009247	0.412388	-1.936639	1
H	3.384947	0.219768	-0.756509	1
Es	-0.764346	0.876397	1.680085	99
Es	-0.673524	1.816805	0.932355	99
Es	-0.489166	0.674613	0.487063	99
Es	1.865452	0.230259	-0.390765	99
Es	1.915170	1.701244	-0.212091	99
Es	-0.879501	1.108232	0.981861	99
Es	2.115990	1.771107	-0.043279	99
Es	-1.989132	-1.266455	-0.808637	99
Es	-0.017017	-1.475543	-0.327672	99
Es	1.619769	0.186962	0.871025	99
Es	2.364818	0.540714	-0.922924	99
Es	-0.089981	0.257687	-0.018114	99
Es	-0.357563	-1.183114	0.107503	99
Es	1.714547	1.852961	-0.365124	99
Es	3.060157	0.334186	-0.815607	99
Es	-2.200216	-1.264516	0.398504	99
Es	1.656343	1.279694	0.049948	99
Es	-0.972320	-1.326091	0.004741	99
Es	2.126864	0.461617	-1.615118	99
Es	-0.264663	-0.554081	0.030028	99
Es	-1.751278	-1.530063	-0.139693	99
Es	1.387716	0.437279	0.221321	99
Es	0.654308	0.350993	0.095073	99
Es	-0.258736	-1.272614	0.407948	99
Es	2.163338	1.331031	-0.562862	99
Es	-1.816824	-2.273836	-0.152160	99
Es	-1.599157	1.077072	0.843229	99
Es	-0.255074	0.487901	-0.723863	99
46
Properties=species:S:1:pos:R:3:Z:I:1 energy=-325.11137603068676 field_type=dipole dipole="0.000000 0.000000 0.000000" charge=0
C	-1.751403	-1.530092	-0.139709	6
N	-0.357403	-1.183322	0.108101	7
C	-0.089973	0.257808	-0.018179	6
C	-0.879514	1.108258	0.981891	6
C	1.387587	0.436998	0.221461	6
C	2.364926	0.540478	-0.923089	6
O	1.915077	1.701658	-0.212129	8
H	-1.855833	-2.619582	-0.145909	1
H	-2.096573	-1.155692	-1.109059	1
H	-2.409113	-1.155042	0.650691	1
H	0.220507	-1.680472	-0.569199	1
H	-0.338813	0.585678	-1.036959	1
H	-0.704803	0.778708	2.010461	1
H	-1.954003	1.071818	0.783091	1
H	-0.573533	2.157088	0.917561	1
H	1.728677	0.053548	1.174130	1
H	2.009247	0.412388	-1.936639	1
H	3.384947	0.219768	-0.756509	1
Es	-1.989175	-1.266555	-0.808442	99
Es	-0.488978	0.674693	0.487034	99
Es	-0.264660	-0.554053	0.030083	99
Es	-0.255173	0.487901	-0.723772	99
Es	2.126764	0.461603	-1.615117	99
Es	1.865476	0.230183	-0.390529	99
Es	1.655149	1.279801	0.049239	99
Es	-0.258743	-1.272820	0.408215	99
Es	1.619820	0.187027	0.870964	99
Es	-0.357565	-1.183103	0.107474	99
Es	0.654441	0.350916	0.095076	99
Es	-0.089981	0.257684	-0.018114	99
Es	2.116126	1.766026	-0.043725	99
Es	1.387716	0.437274	0.221323	99
Es	2.364814	0.540716	-0.922923	99
Es	-2.200280	-1.264519	0.398453	99
Es	-1.598964	1.077227	0.843016	99
Es	1.915085	1.701482	-0.212134	99
Es	-0.764704	0.876270	1.680178	99
Es	-1.816830	-2.273887	-0.152242	99
Es	3.060106	0.334296	-0.815747	99
Es	1.716825	1.857311	-0.362817	99
Es	-0.972184	-1.325745	0.004445	99
Es	-0.673516	1.816695	0.932535	99
Es	-0.879501	1.108232	0.981862	99
Es	-0.017140	-1.475522	-0.327787	99
Es	2.162318	1.331373	-0.564079	99
Es	-1.751276	-1.530063	-0.139691	99
46
Properties=species:S:1:pos:R:3:Z:I:1 energy=-325.11137603068676 field_type=dipole dipole="0.000000 0.000000 0.000000" charge=0
C	-1.751403	-1.530092	-0.139709	6
N	-0.357403	-1.183322	0.108101	7
C	-0.089973	0.257808	-0.018179	6
C	-0.879514	1.108258	0.981891	6
C	1.387587	0.436998	0.221461	6
C	2.364926	0.540478	-0.923089	6
O	1.915077	1.701658	-0.212129	8
H	-1.855833	-2.619582	-0.145909	1
H	-2.096573	-1.155692	-1.109059	1
H	-2.409113	-1.155042	0.650691	1
H	0.220507	-1.680472	-0.569199	1
H	-0.338813	0.585678	-1.036959	1
H	-0.704803	0.778708	2.010461	1
H	-1.954003	1.071818	0.783091	1
H	-0.573533	2.157088	0.917561	1
H	1.728677	0.053548	1.174130	1
H	2.009247	0.412388	-1.936639	1
H	3.384947	0.219768	-0.756509	1
Es	0.654309	0.350977	0.095070	99
Es	-0.357559	-1.183136	0.107584	99
Es	-1.751275	-1.530063	-0.139690	99
Es	1.865346	0.230063	-0.390671	99
Es	1.387717	0.437276	0.221324	99
Es	-0.489052	0.674716	0.487086	99
Es	-2.200276	-1.264553	0.398550	99
Es	-0.089981	0.257684	-0.018114	99
Es	-0.673684	1.816801	0.932423	99
Es	3.060115	0.334274	-0.815680	99
Es	-1.599045	1.077013	0.843164	99
Es	-1.989105	-1.266475	-0.808644	99
Es	2.115494	1.769258	-0.043883	99
Es	2.163426	1.331685	-0.563413	99
Es	2.364814	0.540718	-0.922925	99
Es	-0.879501	1.108233	0.981862	99
Es	1.619744	0.186978	0.871002	99
Es	-0.972371	-1.326297	0.005539	99
Es	-0.764436	0.876355	1.680126	99
Es	2.126899	0.461679	-1.615080	99
Es	1.655927	1.279772	0.050134	99
Es	-0.264608	-0.553967	0.030209	99
Es	1.914812	1.701237	-0.212390	99
Es	-0.255061	0.487906	-0.723874	99
Es	-0.017245	-1.475428	-0.327940	99
Es	-0.258546	-1.272544	0.407123	99
Es	-1.816696	-2.273833	-0.152206	99
Es	1.715814	1.854113	-0.363907	99
46
Properties=species:S:1:pos:R:3:Z:I:1 energy=-325.11137603068676 field_type=dipole dipole="0.000000 0.000000 0.000000" charge=0
C	-1.751403	-1.530092	-0.139709	6
N	-0.357403	-1.183322	0.108101	7
C	-0.089973	0.257808	-0.018179	6
C	-0.879514	1.108258	0.981891	6
C	1.387587	0.436998	0.221461	6
C	2.364926	0.540478	-0.923089	6
O	1.915077	1.701658	-0.212129	8
H	-1.855833	-2.619582	-0.145909	1
H	-2.096573	-1.155692	-1.109059	1
H	-2.409113	-1.155042	0.650691	1
H	0.220507	-1.680472	-0.569199	1
H	-0.338813	0.585678	-1.036959	1
H	-0.704803	0.778708	2.010461	1
H	-1.954003	1.071818	0.783091	1
H	-0.573533	2.157088	0.917561	1
H	1.728677	0.053548	1.174130	1
H	2.009247	0.412388	-1.936639	1
H	3.384947	0.219768	-0.756509	1
Es	1.387716	0.437274	0.221324	99
Es	2.364815	0.540717	-0.922924	99
Es	-0.673518	1.816790	0.932480	99
Es	-0.357541	-1.183104	0.107481	99
Es	-0.258717	-1.272653	0.407098	99
Es	-1.989145	-1.266569	-0.808594	99
Es	0.654200	0.350871	0.095107	99
Es	2.114448	1.767577	-0.043949	99
Es	-0.879501	1.108232	0.981861	99
Es	1.915465	1.701149	-0.211862	99
Es	1.619755	0.187052	0.871007	99
Es	-2.200323	-1.264564	0.398581	99
Es	3.060081	0.334326	-0.815749	99
Es	-0.254982	0.487911	-0.723923	99
Es	-0.972344	-1.326358	0.005284	99
Es	-0.017071	-1.475305	-0.327835	99
Es	-1.816732	-2.273731	-0.152219	99
Es	-1.598726	1.077258	0.843062	99
Es	-0.089981	0.257686	-0.018115	99
Es	1.865437	0.230007	-0.390615	99
Es	1.716257	1.855630	-0.363247	99
Es	-1.751274	-1.530063	-0.139690	99
Es	2.126829	0.461657	-1.615095	99
Es	1.655390	1.279260	0.049186	99
Es	-0.264632	-0.553932	0.030458	99
Es	-0.764801	0.876208	1.680214	99
Es	-0.489053	0.674708	0.487079	99
Es	2.163923	1.332409	-0.563627	99
