46
Properties=species:S:1:pos:R:3:Z:I:1 energy=-325.1518002164531 field_type=dipole dipole="0.000000 0.000000 0.000000" charge=0
C	-2.425912	-0.832918	0.812881	6
N	-0.968042	-0.850158	0.743661	7
C	-0.469062	0.395282	0.144801	6
C	1.063768	0.440932	0.096521	6
C	1.679698	-0.660778	-0.763609	6
C	1.530047	1.780892	-0.447339	6
O	0.786278	2.672052	-0.845799	8
H	-2.781162	-1.772468	1.247241	1
H	-2.872082	-0.733228	-0.182309	1
H	-2.783632	-0.018008	1.450181	1
H	-0.684362	-1.644758	0.172191	1
H	-0.826602	1.246332	0.738631	1
H	-0.875813	0.511382	-0.867799	1
H	1.464718	0.364882	1.114971	1
H	1.305838	-0.614428	-1.792659	1
H	1.460837	-1.655088	-0.362649	1
H	2.770188	-0.559718	-0.807439	1
H	2.625298	1.929802	-0.451469	1
Es	1.419989	-0.623347	-1.460104	99
Es	2.286870	1.868059	-0.446980	99
Es	1.343415	0.404182	0.776842	99
Es	-2.668329	-1.476873	1.105369	99
Es	0.941149	2.924339	-0.944568	99
Es	1.063797	0.440953	0.096460	99
Es	-2.665429	-0.271907	1.243122	99
Es	-0.828860	-0.888443	1.070110	99
Es	-1.605679	-0.834259	0.746963	99
Es	-0.712399	0.967957	0.554143	99
Es	0.310234	0.409550	0.113830	99
Es	-0.759600	-0.316868	0.458872	99
Es	-2.425781	-0.832924	0.812873	99
Es	1.679684	-0.660735	-0.763583	99
Es	1.530040	1.780890	-0.447342	99
Es	1.046548	2.444896	-0.468821	99
Es	-0.807460	-1.321348	0.374200	99
Es	-2.735428	-0.759622	0.123511	99
Es	1.294577	1.111910	-0.181153	99
Es	-0.968285	-0.850079	0.743073	99
Es	1.066311	2.250210	-0.934924	99
Es	-0.469030	0.395148	0.144860	99
Es	2.419994	-0.584012	-0.789574	99
Es	-0.742672	0.470632	-0.557080	99
Es	0.485460	2.592397	-0.825063	99
Es	0.786456	2.671791	-0.845683	99
Es	1.371200	-0.097872	-0.337448	99
Es	1.524970	-1.329672	-0.488896	99
46
Properties=species:S:1:pos:R:3:Z:I:1 energy=-325.1518002164531 field_type=dipole dipole="0.000000 0.000000 0.000000" charge=0
C	-2.425912	-0.832918	0.812881	6
N	-0.968042	-0.850158	0.743661	7
C	-0.469062	0.395282	0.144801	6
C	1.063768	0.440932	0.096521	6
C	1.679698	-0.660778	-0.763609	6
C	1.530047	1.780892	-0.447339	6
O	0.786278	2.672052	-0.845799	8
H	-2.781162	-1.772468	1.247241	1
H	-2.872082	-0.733228	-0.182309	1
H	-2.783632	-0.018008	1.450181	1
H	-0.684362	-1.644758	0.172191	1
H	-0.826602	1.246332	0.738631	1
H	-0.875813	0.511382	-0.867799	1
H	1.464718	0.364882	1.114971	1
H	1.305838	-0.614428	-1.792659	1
H	1.460837	-1.655088	-0.362649	1
H	2.770188	-0.559718	-0.807439	1
H	2.625298	1.929802	-0.451469	1
Es	1.371382	-0.097982	-0.337277	99
Es	2.286786	1.867999	-0.447002	99
Es	1.530042	1.780887	-0.447339	99
Es	2.419261	-0.583844	-0.789364	99
Es	-2.665337	-0.271801	1.243239	99
Es	1.046814	2.444897	-0.468539	99
Es	-0.742915	0.470631	-0.556872	99
Es	0.939980	2.924434	-0.943859	99
Es	1.525149	-1.330268	-0.488698	99
Es	-0.760384	-0.318232	0.457309	99
Es	1.066362	2.250030	-0.936470	99
Es	1.420618	-0.623250	-1.460316	99
Es	-2.735301	-0.759468	0.123380	99
Es	-1.605419	-0.834384	0.744449	99
Es	0.310641	0.409623	0.113179	99
Es	-0.831088	-0.884429	1.071338	99
Es	-2.425776	-0.832922	0.812870	99
Es	-2.668449	-1.476851	1.105227	99
Es	-0.968286	-0.850075	0.743085	99
Es	-0.712457	0.967955	0.554341	99
Es	1.342825	0.404205	0.776829	99
Es	-0.804671	-1.324025	0.377016	99
Es	1.294952	1.112098	-0.181176	99
Es	1.679684	-0.660737	-0.763582	99
Es	0.786503	2.671821	-0.845696	99
Es	-0.469029	0.395144	0.144863	99
Es	1.063797	0.440956	0.096460	99
Es	0.486060	2.592541	-0.824389	99
46
Properties=species:S:1:pos:R:3:Z:I:1 energy=-325.1518002164531 field_type=dipole dipole="0.000000 0.000000 0.000000" charge=0
C	-2.425912	-0.832918	0.812881	6
N	-0.968042	-0.850158	0.743661	7
C	-0.469062	0.395282	0.144801	6
C	1.063768	0.440932	0.096521	6
C	1.679698	-0.660778	-0.763609	6
C	1.530047	1.780892	-0.447339	6
O	0.786278	2.672052	-0.845799	8
H	-2.781162	-1.772468	1.247241	1
H	-2.872082	-0.733228	-0.182309	1
H	-2.783632	-0.018008	1.450181	1
H	-0.684362	-1.644758	0.172191	1
H	-0.826602	1.246332	0.738631	1
H	-0.875813	0.511382	-0.867799	1
H	1.464718	0.364882	1.114971	1
H	1.305838	-0.614428	-1.792659	1
H	1.460837	-1.655088	-0.362649	1
H	2.770188	-0.559718	-0.807439	1
H	2.625298	1.929802	-0.451469	1
Es	-0.761063	-0.319525	0.456055	99
Es	-0.469030	0.395145	0.144862	99
Es	0.310782	0.409834	0.113499	99
Es	2.286686	1.867954	-0.446900	99
Es	-0.742974	0.470615	-0.556932	99
Es	-1.605230	-0.834728	0.742516	99
Es	0.940085	2.923339	-0.943809	99
Es	1.530042	1.780886	-0.447339	99
Es	1.371350	-0.098063	-0.337122	99
Es	1.295192	1.112227	-0.181289	99
Es	-2.425779	-0.832923	0.812873	99
Es	1.063798	0.440956	0.096460	99
Es	-2.665055	-0.271904	1.243214	99
Es	-2.735414	-0.759223	0.123239	99
Es	0.485363	2.593393	-0.824005	99
Es	1.066058	2.249992	-0.937079	99
Es	1.525437	-1.330711	-0.488494	99
Es	1.679685	-0.660737	-0.763582	99
Es	1.342747	0.404322	0.776475	99
Es	1.420882	-0.623320	-1.460234	99
Es	1.047619	2.445229	-0.468459	99
Es	-0.968293	-0.850072	0.743081	99
Es	-0.712597	0.967863	0.554442	99
Es	0.786460	2.671785	-0.845682	99
Es	-0.801757	-1.326541	0.380023	99
Es	-0.833255	-0.880541	1.071477	99
Es	2.418723	-0.583702	-0.789558	99
Es	-2.668719	-1.476600	1.105277	99
46
Properties=species:S:1:pos:R:3:Z:I:1 energy=-325.1518002164531 field_type=dipole dipole="0.000000 0.000000 0.000000" charge=0
C	-2.425912	-0.832918	0.812881	6
N	-0.968042	-0.850158	0.743661	7
C	-0.469062	0.395282	0.144801	6
C	1.063768	0.440932	0.096521	6
C	1.679698	-0.660778	-0.763609	6
C	1.530047	1.780892	-0.447339	6
O	0.786278	2.672052	-0.845799	8
H	-2.781162	-1.772468	1.247241	1
H	-2.872082	-0.733228	-0.182309	1
H	-2.783632	-0.018008	1.450181	1
H	-0.684362	-1.644758	0.172191	1
H	-0.826602	1.246332	0.738631	1
H	-0.875813	0.511382	-0.867799	1
H	1.464718	0.364882	1.114971	1
H	1.305838	-0.614428	-1.792659	1
H	1.460837	-1.655088	-0.362649	1
H	2.770188	-0.559718	-0.807439	1
H	2.625298	1.929802	-0.451469	1
Es	1.679686	-0.660738	-0.763584	99
Es	1.525937	-1.331258	-0.488107	99
Es	-0.798772	-1.329224	0.383557	99
Es	-0.743184	0.470758	-0.556986	99
Es	-2.735481	-0.758707	0.123063	99
Es	1.421130	-0.623391	-1.460303	99
Es	-2.664776	-0.272203	1.243319	99
Es	-2.668880	-1.476660	1.105198	99
Es	-0.469030	0.395145	0.144861	99
Es	-0.968280	-0.850066	0.743100	99
Es	1.342479	0.404295	0.776510	99
Es	0.943584	2.919599	-0.943238	99
Es	1.371376	-0.098020	-0.336968	99
Es	-0.836064	-0.876889	1.070691	99
Es	1.046540	2.446071	-0.467787	99
Es	0.483666	2.598252	-0.825536	99
Es	2.286540	1.867963	-0.446884	99
Es	1.295525	1.112258	-0.181459	99
Es	-0.761155	-0.320681	0.455201	99
Es	-2.425771	-0.832923	0.812871	99
Es	0.310991	0.409954	0.113283	99
Es	1.065149	2.248039	-0.936721	99
Es	0.786522	2.671824	-0.845700	99
Es	1.063797	0.440957	0.096459	99
Es	1.530043	1.780885	-0.447339	99
Es	-1.605265	-0.834603	0.740629	99
Es	-0.712542	0.967637	0.554560	99
Es	2.417977	-0.583325	-0.789683	99
46
Properties=species:S:1:pos:R:3:Z:I:1 energy=-325.1518002164531 field_type=dipole dipole="0.000000 0.000000 0.000000" charge=0
C	-2.425912	-0.832918	0.812881	6
N	-0.968042	-0.850158	0.743661	7
C	-0.469062	0.395282	0.144801	6
C	1.063768	0.440932	0.096521	6
C	1.679698	-0.660778	-0.763609	6
C	1.530047	1.780892	-0.447339	6
O	0.786278	2.672052	-0.845799	8
H	-2.781162	-1.772468	1.247241	1
H	-2.872082	-0.733228	-0.182309	1
H	-2.783632	-0.018008	1.450181	1
H	-0.684362	-1.644758	0.172191	1
H	-0.826602	1.246332	0.738631	1
H	-0.875813	0.511382	-0.867799	1
H	1.464718	0.364882	1.114971	1
H	1.305838	-0.614428	-1.792659	1
H	1.460837	-1.655088	-0.362649	1
H	2.770188	-0.559718	-0.807439	1
H	2.625298	1.929802	-0.451469	1
Es	1.371276	-0.097962	-0.336964	99
Es	-0.838337	-0.872172	1.068889	99
Es	0.502914	2.569427	-0.815040	99
Es	1.070725	2.253090	-0.937662	99
Es	2.418526	-0.583444	-0.789590	99
Es	-2.669075	-1.475903	1.105078	99
Es	1.342642	0.404393	0.776465	99
Es	1.063797	0.440958	0.096461	99
Es	1.530042	1.780884	-0.447342	99
Es	1.679687	-0.660739	-0.763584	99
Es	2.286676	1.867918	-0.446744	99
Es	1.050359	2.448506	-0.468601	99
Es	0.311087	0.410268	0.113114	99
Es	-0.469028	0.395147	0.144861	99
Es	-0.712814	0.967280	0.554499	99
Es	-0.968289	-0.850067	0.743094	99
Es	-2.425779	-0.832923	0.812872	99
Es	0.786533	2.671830	-0.845698	99
Es	-0.761888	-0.322577	0.454223	99
Es	1.525817	-1.330788	-0.488203	99
Es	-2.735811	-0.758568	0.122841	99
Es	0.914657	2.940763	-0.952049	99
Es	-2.664684	-0.272520	1.243407	99
Es	-1.605608	-0.834699	0.739091	99
Es	-0.743506	0.470673	-0.556798	99
Es	1.295799	1.111824	-0.181310	99
Es	-0.794986	-1.331958	0.387901	99
Es	1.421008	-0.623688	-1.460204	99
46
Properties=species:S:1:pos:R:3:Z:I:1 energy=-325.1518002164531 field_type=dipole dipole="0.000000 0.000000 0.000000" charge=0
C	-2.425912	-0.832918	0.812881	6
N	-0.968042	-0.850158	0.743661	7
C	-0.469062	0.395282	0.144801	6
C	1.063768	0.440932	0.096521	6
C	1.679698	-0.660778	-0.763609	6
C	1.530047	1.780892	-0.447339	6
O	0.786278	2.672052	-0.845799	8
H	-2.781162	-1.772468	1.247241	1
H	-2.872082	-0.733228	-0.182309	1
H	-2.783632	-0.018008	1.450181	1
H	-0.684362	-1.644758	0.172191	1
H	-0.826602	1.246332	0.738631	1
H	-0.875813	0.511382	-0.867799	1
H	1.464718	0.364882	1.114971	1
H	1.305838	-0.614428	-1.792659	1
H	1.460837	-1.655088	-0.362649	1
H	2.770188	-0.559718	-0.807439	1
H	2.625298	1.929802	-0.451469	1
Es	-0.712135	0.967441	0.554288	99
Es	0.786421	2.671745	-0.845671	99
Es	-0.469030	0.395144	0.144861	99
Es	1.056996	2.240818	-0.931384	99
Es	-0.792393	-1.335023	0.392994	99
Es	1.371171	-0.097655	-0.336914	99
Es	-1.604060	-0.835995	0.738620	99
Es	0.311650	0.409694	0.113383	99
Es	-0.761089	-0.319875	0.453679	99
Es	1.527265	-1.333848	-0.486902	99
Es	-2.663751	-0.272417	1.242385	99
Es	1.063796	0.440957	0.096458	99
Es	-0.743225	0.471211	-0.556957	99
Es	0.465888	2.680546	-0.863671	99
Es	-0.844126	-0.870998	1.065115	99
Es	-2.425780	-0.832923	0.812872	99
Es	-0.968298	-0.850062	0.743066	99
Es	0.980921	2.847954	-0.913195	99
Es	1.035382	2.442852	-0.465252	99
Es	2.415267	-0.581763	-0.790322	99
Es	1.530043	1.780886	-0.447337	99
Es	2.286121	1.868275	-0.446937	99
Es	1.422053	-0.622805	-1.459951	99
Es	1.341909	0.403415	0.776130	99
Es	1.295690	1.113794	-0.182070	99
Es	1.679686	-0.660737	-0.763583	99
Es	-2.735121	-0.757674	0.123222	99
Es	-2.669507	-1.478006	1.106079	99
46
Properties=species:S:1:pos:R:3:Z:I:1 energy=-325.1518002164531 field_type=dipole dipole="0.000000 0.000000 0.000000" charge=0
C	-2.425912	-0.832918	0.812881	6
N	-0.968042	-0.850158	0.743661	7
C	-0.469062	0.395282	0.144801	6
C	1.063768	0.440932	0.096521	6
C	1.679698	-0.660778	-0.763609	6
C	1.530047	1.780892	-0.447339	6
O	0.786278	2.672052	-0.845799	8
H	-2.781162	-1.772468	1.247241	1
H	-2.872082	-0.733228	-0.182309	1
H	-2.783632	-0.018008	1.450181	1
H	-0.684362	-1.644758	0.172191	1
H	-0.826602	1.246332	0.738631	1
H	-0.875813	0.511382	-0.867799	1
H	1.464718	0.364882	1.114971	1
H	1.305838	-0.614428	-1.792659	1
H	1.460837	-1.655088	-0.362649	1
H	2.770188	-0.559718	-0.807439	1
H	2.625298	1.929802	-0.451469	1
Es	1.063797	0.440957	0.096458	99
Es	-2.663515	-0.272699	1.242009	99
Es	-0.968299	-0.850065	0.743079	99
Es	1.526940	-1.334397	-0.486835	99
Es	2.286079	1.868459	-0.446708	99
Es	1.295801	1.114283	-0.182238	99
Es	-0.790296	-1.336886	0.396655	99
Es	1.679686	-0.660739	-0.763584	99
Es	-0.847373	-0.869956	1.061176	99
Es	1.371231	-0.097824	-0.336753	99
Es	-0.759931	-0.319213	0.454359	99
Es	-0.711783	0.967119	0.554078	99
Es	1.341704	0.403253	0.775743	99
Es	0.981696	2.821309	-0.900288	99
Es	0.470032	2.710484	-0.876220	99
Es	0.311812	0.409585	0.113483	99
Es	-2.734972	-0.757184	0.123446	99
Es	1.053812	2.242949	-0.933369	99
Es	-0.469031	0.395144	0.144860	99
Es	-1.604253	-0.835784	0.738404	99
Es	-0.743441	0.471560	-0.556921	99
Es	0.786399	2.671679	-0.845641	99
Es	1.530043	1.780884	-0.447339	99
Es	2.415198	-0.581537	-0.790424	99
Es	-2.425778	-0.832921	0.812872	99
Es	1.033741	2.437396	-0.463994	99
Es	1.422252	-0.622372	-1.459552	99
Es	-2.669810	-1.478532	1.106247	99
46
Properties=species:S:1:pos:R:3:Z:I:1 energy=-325.1518002164531 field_type=dipole dipole="0.000000 0.000000 0.000000" charge=0
C	-2.425912	-0.832918	0.812881	6
N	-0.968042	-0.850158	0.743661	7
C	-0.469062	0.395282	0.144801	6
C	1.063768	0.440932	0.096521	6
C	1.679698	-0.660778	-0.763609	6
C	1.530047	1.780892	-0.447339	6
O	0.786278	2.672052	-0.845799	8
H	-2.781162	-1.772468	1.247241	1
H	-2.872082	-0.733228	-0.182309	1
H	-2.783632	-0.018008	1.450181	1
H	-0.684362	-1.644758	0.172191	1
H	-0.826602	1.246332	0.738631	1
H	-0.875813	0.511382	-0.867799	1
H	1.464718	0.364882	1.114971	1
H	1.305838	-0.614428	-1.792659	1
H	1.460837	-1.655088	-0.362649	1
H	2.770188	-0.559718	-0.807439	1
H	2.625298	1.929802	-0.451469	1
Es	-0.469030	0.395145	0.144860	99
Es	1.371024	-0.097771	-0.336929	99
Es	-2.664332	-0.274058	1.242664	99
Es	2.287297	1.867883	-0.446287	99
Es	-2.670127	-1.475195	1.105117	99
Es	-0.760146	-0.323347	0.455312	99
Es	0.310441	0.410868	0.113060	99
Es	1.063777	2.457133	-0.473051	99
Es	-2.425782	-0.832923	0.812873	99
Es	-0.712692	0.965321	0.553786	99
Es	0.793904	2.964990	-0.968308	99
Es	-2.736411	-0.757379	0.123094	99
Es	1.679685	-0.660738	-0.763582	99
Es	-0.845253	-0.867117	1.058554	99
Es	1.296856	1.111107	-0.181225	99
Es	1.077685	2.262972	-0.940994	99
Es	1.530043	1.780885	-0.447337	99
Es	-1.607322	-0.834460	0.738028	99
Es	1.343290	0.404077	0.775328	99
Es	-0.787494	-1.336172	0.398386	99
Es	-0.968315	-0.850068	0.743048	99
Es	1.420427	-0.623762	-1.458748	99
Es	1.063796	0.440957	0.096459	99
Es	1.523425	-1.329084	-0.488833	99
Es	2.422082	-0.584029	-0.789182	99
Es	0.786633	2.671848	-0.845701	99
Es	-0.744645	0.471586	-0.556132	99
Es	0.602927	2.526283	-0.791254	99
46
Properties=species:S:1:pos:R:3:Z:I:1 energy=-325.1518002164531 field_type=dipole dipole="0.000000 0.000000 0.000000" charge=0
C	-2.425912	-0.832918	0.812881	6
N	-0.968042	-0.850158	0.743661	7
C	-0.469062	0.395282	0.144801	6
C	1.063768	0.440932	0.096521	6
C	1.679698	-0.660778	-0.763609	6
C	1.530047	1.780892	-0.447339	6
O	0.786278	2.672052	-0.845799	8
H	-2.781162	-1.772468	1.247241	1
H	-2.872082	-0.733228	-0.182309	1
H	-2.783632	-0.018008	1.450181	1
H	-0.684362	-1.644758	0.172191	1
H	-0.826602	1.246332	0.738631	1
H	-0.875813	0.511382	-0.867799	1
H	1.464718	0.364882	1.114971	1
H	1.305838	-0.614428	-1.792659	1
H	1.460837	-1.655088	-0.362649	1
H	2.770188	-0.559718	-0.807439	1
H	2.625298	1.929802	-0.451469	1
Es	1.296269	1.114593	-0.182385	99
Es	1.371287	-0.097722	-0.336705	99
Es	2.415637	-0.580939	-0.790651	99
Es	-0.469028	0.395148	0.144860	99
Es	-1.604523	-0.836229	0.738018	99
Es	-0.711747	0.966343	0.553663	99
Es	1.063796	0.440957	0.096459	99
Es	-0.786708	-1.338965	0.402579	99
Es	-0.968316	-0.850070	0.743046	99
Es	1.679686	-0.660738	-0.763582	99
Es	-0.759246	-0.318713	0.454508	99
Es	0.311746	0.409658	0.113513	99
Es	0.483273	2.750183	-0.892671	99
Es	-2.735083	-0.756409	0.123631	99
Es	2.286158	1.868613	-0.446563	99
Es	-0.743720	0.472034	-0.556665	99
Es	1.341665	0.402783	0.775217	99
Es	-2.425780	-0.832923	0.812872	99
Es	1.049865	2.238979	-0.930755	99
Es	0.976065	2.784751	-0.886908	99
Es	1.530044	1.780885	-0.447338	99
Es	0.786287	2.671451	-0.845551	99
Es	1.422045	-0.622174	-1.458987	99
Es	1.030228	2.438388	-0.463765	99
Es	-0.851403	-0.867884	1.055555	99
Es	-2.663045	-0.273419	1.241427	99
Es	1.526599	-1.334730	-0.486447	99
Es	-2.670308	-1.478901	1.106629	99
46
Properties=species:S:1:pos:R:3:Z:I:1 energy=-325.1518002164531 field_type=dipole dipole="0.000000 0.000000 0.000000" charge=0
C	-2.425912	-0.832918	0.812881	6
N	-0.968042	-0.850158	0.743661	7
C	-0.469062	0.395282	0.144801	6
C	1.063768	0.440932	0.096521	6
C	1.679698	-0.660778	-0.763609	6
C	1.530047	1.780892	-0.447339	6
O	0.786278	2.672052	-0.845799	8
H	-2.781162	-1.772468	1.247241	1
H	-2.872082	-0.733228	-0.182309	1
H	-2.783632	-0.018008	1.450181	1
H	-0.684362	-1.644758	0.172191	1
H	-0.826602	1.246332	0.738631	1
H	-0.875813	0.511382	-0.867799	1
H	1.464718	0.364882	1.114971	1
H	1.305838	-0.614428	-1.792659	1
H	1.460837	-1.655088	-0.362649	1
H	2.770188	-0.559718	-0.807439	1
H	2.625298	1.929802	-0.451469	1
Es	-2.736501	-0.756865	0.123297	99
Es	2.422648	-0.583483	-0.789239	99
Es	1.371017	-0.097841	-0.336836	99
Es	-0.744959	0.472082	-0.555911	99
Es	1.522877	-1.329423	-0.488726	99
Es	1.530043	1.780885	-0.447338	99
Es	-0.712435	0.964559	0.553282	99
Es	1.343079	0.403590	0.774667	99
Es	1.679686	-0.660737	-0.763578	99
Es	-2.425779	-0.832922	0.812871	99
Es	1.063796	0.440958	0.096460	99
Es	-0.758601	-0.321876	0.456432	99
Es	-0.784616	-1.337633	0.403298	99
Es	1.420411	-0.623441	-1.458125	99
Es	2.287426	1.868092	-0.446138	99
Es	1.078144	2.265551	-0.942327	99
Es	-0.849509	-0.866605	1.052915	99
Es	1.297345	1.111696	-0.181242	99
Es	1.067203	2.458595	-0.473705	99
Es	-2.670504	-1.475599	1.105514	99
Es	-0.968306	-0.850058	0.743047	99
Es	-1.607631	-0.834769	0.737797	99
Es	-2.664039	-0.274649	1.242070	99
Es	0.642213	2.528221	-0.790410	99
Es	0.310411	0.410773	0.113103	99
Es	0.749982	2.958847	-0.967354	99
Es	-0.469031	0.395143	0.144861	99
Es	0.787373	2.671862	-0.845680	99
46
Properties=species:S:1:pos:R:3:Z:I:1 energy=-325.1518002164531 field_type=dipole dipole="0.000000 0.000000 0.000000" charge=0
C	-2.425912	-0.832918	0.812881	6
N	-0.968042	-0.850158	0.743661	7
C	-0.469062	0.395282	0.144801	6
C	1.063768	0.440932	0.096521	6
C	1.679698	-0.660778	-0.763609	6
C	1.530047	1.780892	-0.447339	6
O	0.786278	2.672052	-0.845799	8
H	-2.781162	-1.772468	1.247241	1
H	-2.872082	-0.733228	-0.182309	1
H	-2.783632	-0.018008	1.450181	1
H	-0.684362	-1.644758	0.172191	1
H	-0.826602	1.246332	0.738631	1
H	-0.875813	0.511382	-0.867799	1
H	1.464718	0.364882	1.114971	1
H	1.305838	-0.614428	-1.792659	1
H	1.460837	-1.655088	-0.362649	1
H	2.770188	-0.559718	-0.807439	1
H	2.625298	1.929802	-0.451469	1
Es	-0.782385	-1.338889	0.406850	99
Es	0.786660	2.671846	-0.845702	99
Es	-0.745178	0.472314	-0.556008	99
Es	-2.670625	-1.475560	1.105569	99
Es	1.063797	0.440958	0.096458	99
Es	1.420307	-0.623481	-1.458160	99
Es	-0.968330	-0.850073	0.743020	99
Es	1.343237	0.403541	0.774690	99
Es	-2.736684	-0.756441	0.123198	99
Es	1.078328	2.264228	-0.941389	99
Es	-0.758331	-0.322001	0.456682	99
Es	1.370926	-0.097825	-0.336858	99
Es	0.746147	2.957945	-0.968458	99
Es	1.066562	2.459736	-0.473783	99
Es	-2.663780	-0.275071	1.242015	99
Es	2.287435	1.868081	-0.446126	99
Es	-1.607608	-0.834692	0.736939	99
Es	-0.851970	-0.865253	1.050055	99
Es	0.647212	2.529355	-0.790081	99
Es	1.679686	-0.660738	-0.763581	99
Es	0.310349	0.410967	0.113233	99
Es	2.422716	-0.583390	-0.789205	99
Es	-0.469030	0.395145	0.144861	99
Es	1.297406	1.111461	-0.181346	99
Es	1.530044	1.780885	-0.447337	99
Es	-2.425779	-0.832923	0.812871	99
Es	1.522918	-1.329355	-0.488645	99
Es	-0.712287	0.964183	0.553243	99
46
Properties=species:S:1:pos:R:3:Z:I:1 energy=-325.1518002164531 field_type=dipole dipole="0.000000 0.000000 0.000000" charge=0
C	-2.425912	-0.832918	0.812881	6
N	-0.968042	-0.850158	0.743661	7
C	-0.469062	0.395282	0.144801	6
C	1.063768	0.440932	0.096521	6
C	1.679698	-0.660778	-0.763609	6
C	1.530047	1.780892	-0.447339	6
O	0.786278	2.672052	-0.845799	8
H	-2.781162	-1.772468	1.247241	1
H	-2.872082	-0.733228	-0.182309	1
H	-2.783632	-0.018008	1.450181	1
H	-0.684362	-1.644758	0.172191	1
H	-0.826602	1.246332	0.738631	1
H	-0.875813	0.511382	-0.867799	1
H	1.464718	0.364882	1.114971	1
H	1.305838	-0.614428	-1.792659	1
H	1.460837	-1.655088	-0.362649	1
H	2.770188	-0.559718	-0.807439	1
H	2.625298	1.929802	-0.451469	1
Es	1.679686	-0.660738	-0.763581	99
Es	0.787055	2.671879	-0.845698	99
Es	-0.712186	0.963977	0.553144	99
Es	-1.607818	-0.834847	0.737205	99
Es	-0.745317	0.472461	-0.555890	99
Es	1.076269	2.265701	-0.942364	99
Es	1.343066	0.403591	0.774482	99
Es	-0.758005	-0.321749	0.456841	99
Es	1.530043	1.780885	-0.447337	99
Es	-0.852787	-0.865059	1.048355	99
Es	2.287433	1.868148	-0.446027	99
Es	2.422909	-0.583319	-0.789312	99
Es	0.657582	2.532060	-0.791090	99
Es	-2.670863	-1.475635	1.105753	99
Es	-2.663695	-0.275071	1.241701	99
Es	-0.469032	0.395142	0.144863	99
Es	1.420288	-0.623377	-1.457881	99
Es	0.310421	0.410941	0.113163	99
Es	0.735725	2.955944	-0.966823	99
Es	-0.968326	-0.850071	0.743042	99
Es	-0.781727	-1.339182	0.408181	99
Es	1.063796	0.440957	0.096459	99
Es	-2.736571	-0.756393	0.123269	99
Es	1.297563	1.111587	-0.181458	99
Es	1.068315	2.457492	-0.473544	99
Es	1.371029	-0.098005	-0.336718	99
Es	1.522669	-1.329446	-0.488600	99
Es	-2.425780	-0.832924	0.812873	99
46
Properties=species:S:1:pos:R:3:Z:I:1 energy=-325.1518002164531 field_type=dipole dipole="0.000000 0.000000 0.000000" charge=0
C	-2.425912	-0.832918	0.812881	6
N	-0.968042	-0.850158	0.743661	7
C	-0.469062	0.395282	0.144801	6
C	1.063768	0.440932	0.096521	6
C	1.679698	-0.660778	-0.763609	6
C	1.530047	1.780892	-0.447339	6
O	0.786278	2.672052	-0.845799	8
H	-2.781162	-1.772468	1.247241	1
H	-2.872082	-0.733228	-0.182309	1
H	-2.783632	-0.018008	1.450181	1
H	-0.684362	-1.644758	0.172191	1
H	-0.826602	1.246332	0.738631	1
H	-0.875813	0.511382	-0.867799	1
H	1.464718	0.364882	1.114971	1
H	1.305838	-0.614428	-1.792659	1
H	1.460837	-1.655088	-0.362649	1
H	2.770188	-0.559718	-0.807439	1
H	2.625298	1.929802	-0.451469	1
Es	0.666762	2.534281	-0.791180	99
Es	-0.745430	0.472639	-0.555842	99
Es	-0.780338	-1.340084	0.410791	99
Es	1.522490	-1.329581	-0.488521	99
Es	-0.757365	-0.321452	0.457343	99
Es	-1.607686	-0.834667	0.736773	99
Es	-2.425778	-0.832921	0.812872	99
Es	0.726702	2.953404	-0.966628	99
Es	1.679686	-0.660738	-0.763581	99
Es	1.530044	1.780883	-0.447345	99
Es	-2.670981	-1.475806	1.105696	99
Es	1.069445	2.457778	-0.473622	99
Es	-0.968324	-0.850070	0.743049	99
Es	1.063796	0.440957	0.096458	99
Es	1.343190	0.403288	0.774496	99
Es	2.287449	1.868212	-0.445982	99
Es	2.422922	-0.583226	-0.789227	99
Es	1.420313	-0.623183	-1.457884	99
Es	-2.736587	-0.756088	0.123393	99
Es	-0.854906	-0.864650	1.045671	99
Es	1.075417	2.265724	-0.942459	99
Es	-2.663619	-0.275321	1.241651	99
Es	1.297574	1.111714	-0.181368	99
Es	0.310380	0.410897	0.113113	99
Es	-0.469030	0.395144	0.144861	99
Es	-0.712079	0.963768	0.553098	99
Es	1.371081	-0.097791	-0.336921	99
Es	0.786617	2.671842	-0.845700	99
46
Properties=species:S:1:pos:R:3:Z:I:1 energy=-325.1518002164531 field_type=dipole dipole="0.000000 0.000000 0.000000" charge=0
C	-2.425912	-0.832918	0.812881	6
N	-0.968042	-0.850158	0.743661	7
C	-0.469062	0.395282	0.144801	6
C	1.063768	0.440932	0.096521	6
C	1.679698	-0.660778	-0.763609	6
C	1.530047	1.780892	-0.447339	6
O	0.786278	2.672052	-0.845799	8
H	-2.781162	-1.772468	1.247241	1
H	-2.872082	-0.733228	-0.182309	1
H	-2.783632	-0.018008	1.450181	1
H	-0.684362	-1.644758	0.172191	1
H	-0.826602	1.246332	0.738631	1
H	-0.875813	0.511382	-0.867799	1
H	1.464718	0.364882	1.114971	1
H	1.305838	-0.614428	-1.792659	1
H	1.460837	-1.655088	-0.362649	1
H	2.770188	-0.559718	-0.807439	1
H	2.625298	1.929802	-0.451469	1
Es	-0.968328	-0.850071	0.743060	99
Es	-0.779676	-1.342648	0.415288	99
Es	1.047148	2.236987	-0.929423	99
Es	2.416794	-0.580433	-0.790622	99
Es	-2.662533	-0.274599	1.240825	99
Es	0.506007	2.793039	-0.910073	99
Es	0.954393	2.741233	-0.871795	99
Es	1.530043	1.780886	-0.447337	99
Es	0.786199	2.671416	-0.845547	99
Es	1.525644	-1.334795	-0.486380	99
Es	-0.469031	0.395144	0.144862	99
Es	1.679686	-0.660738	-0.763581	99
Es	-2.735410	-0.755379	0.123759	99
Es	0.311654	0.409694	0.113549	99
Es	1.031927	2.440870	-0.463074	99
Es	-0.757139	-0.317782	0.456179	99
Es	1.371173	-0.097617	-0.336730	99
Es	-0.744677	0.473128	-0.556532	99
Es	2.286395	1.868793	-0.446264	99
Es	1.063796	0.440957	0.096458	99
Es	-1.605042	-0.836200	0.736516	99
Es	-0.711067	0.964771	0.553241	99
Es	1.296802	1.114789	-0.182521	99
Es	-2.425779	-0.832923	0.812872	99
Es	-0.860038	-0.864848	1.042869	99
Es	1.421711	-0.621681	-1.458356	99
Es	1.341950	0.402041	0.774802	99
Es	-2.670860	-1.479081	1.106962	99
46
Properties=species:S:1:pos:R:3:Z:I:1 energy=-325.1518002164531 field_type=dipole dipole="0.000000 0.000000 0.000000" charge=0
C	-2.425912	-0.832918	0.812881	6
N	-0.968042	-0.850158	0.743661	7
C	-0.469062	0.395282	0.144801	6
C	1.063768	0.440932	0.096521	6
C	1.679698	-0.660778	-0.763609	6
C	1.530047	1.780892	-0.447339	6
O	0.786278	2.672052	-0.845799	8
H	-2.781162	-1.772468	1.247241	1
H	-2.872082	-0.733228	-0.182309	1
H	-2.783632	-0.018008	1.450181	1
H	-0.684362	-1.644758	0.172191	1
H	-0.826602	1.246332	0.738631	1
H	-0.875813	0.511382	-0.867799	1
H	1.464718	0.364882	1.114971	1
H	1.305838	-0.614428	-1.792659	1
H	1.460837	-1.655088	-0.362649	1
H	2.770188	-0.559718	-0.807439	1
H	2.625298	1.929802	-0.451469	1
Es	1.679685	-0.660738	-0.763581	99
Es	1.297710	1.111886	-0.181469	99
Es	1.343241	0.402998	0.774354	99
Es	-0.469031	0.395144	0.144859	99
Es	0.310380	0.410901	0.113258	99
Es	1.530043	1.780885	-0.447337	99
Es	1.420122	-0.623037	-1.457829	99
Es	-0.857729	-0.863490	1.041285	99
Es	-0.968305	-0.850063	0.743065	99
Es	1.063796	0.440957	0.096457	99
Es	-0.745680	0.472970	-0.555894	99
Es	-1.607724	-0.834800	0.736495	99
Es	-0.777939	-1.341315	0.415457	99
Es	0.679330	2.538425	-0.791109	99
Es	-2.425780	-0.832922	0.812872	99
Es	1.071518	2.458750	-0.474073	99
Es	1.371054	-0.097774	-0.336809	99
Es	0.713497	2.948940	-0.966301	99
Es	1.073568	2.264973	-0.942432	99
Es	-2.663518	-0.275546	1.241532	99
Es	2.422894	-0.582967	-0.789361	99
Es	2.287435	1.868243	-0.445910	99
Es	1.522545	-1.329765	-0.488370	99
Es	-2.736581	-0.755852	0.123419	99
Es	0.787089	2.671961	-0.845733	99
Es	-0.757026	-0.321111	0.457425	99
Es	-0.711808	0.963346	0.552968	99
Es	-2.671044	-1.476048	1.105771	99
46
Properties=species:S:1:pos:R:3:Z:I:1 energy=-325.1518002164531 field_type=dipole dipole="0.000000 0.000000 0.000000" charge=0
C	-2.425912	-0.832918	0.812881	6
N	-0.968042	-0.850158	0.743661	7
C	-0.469062	0.395282	0.144801	6
C	1.063768	0.440932	0.096521	6
C	1.679698	-0.660778	-0.763609	6
C	1.530047	1.780892	-0.447339	6
O	0.786278	2.672052	-0.845799	8
H	-2.781162	-1.772468	1.247241	1
H	-2.872082	-0.733228	-0.182309	1
H	-2.783632	-0.018008	1.450181	1
H	-0.684362	-1.644758	0.172191	1
H	-0.826602	1.246332	0.738631	1
H	-0.875813	0.511382	-0.867799	1
H	1.464718	0.364882	1.114971	1
H	1.305838	-0.614428	-1.792659	1
H	1.460837	-1.655088	-0.362649	1
H	2.770188	-0.559718	-0.807439	1
H	2.625298	1.929802	-0.451469	1
Es	-0.745859	0.473217	-0.555992	99
Es	0.715156	2.949491	-0.966840	99
Es	1.074918	2.263702	-0.941896	99
Es	-0.968339	-0.850078	0.743014	99
Es	1.063796	0.440957	0.096458	99
Es	-0.776820	-1.341813	0.417542	99
Es	2.287460	1.868269	-0.445811	99
Es	-1.607639	-0.834747	0.735843	99
Es	-0.757207	-0.321703	0.457195	99
Es	2.422914	-0.583015	-0.789274	99
Es	-2.663331	-0.275839	1.241585	99
Es	-2.425780	-0.832923	0.812871	99
Es	1.530043	1.780885	-0.447338	99
Es	1.679686	-0.660737	-0.763580	99
Es	1.420139	-0.623069	-1.457883	99
Es	-0.858647	-0.862582	1.040144	99
Es	1.069762	2.459694	-0.474187	99
Es	-0.711654	0.963025	0.552996	99
Es	-2.671091	-1.475861	1.105748	99
Es	-2.736773	-0.755559	0.123295	99
Es	0.786890	2.671951	-0.845738	99
Es	0.310366	0.411086	0.113190	99
Es	-0.469030	0.395147	0.144863	99
Es	1.297865	1.111838	-0.181426	99
Es	0.678224	2.538155	-0.791023	99
Es	1.343130	0.402927	0.774402	99
Es	1.371019	-0.097782	-0.336759	99
Es	1.522547	-1.329686	-0.488393	99
