45
Properties=species:S:1:pos:R:3:Z:I:1 energy=-341.149658730037 field_type=dipole dipole="0.000000 0.000000 0.000000" charge=0
C	-1.529767	-0.807826	-0.166508	6
N	-0.126777	-0.641296	0.205582	7
C	0.626703	-1.884416	0.325852	6
C	0.505603	0.586064	0.054652	6
N	1.789063	0.769974	0.098602	7
C	-0.325497	1.871744	-0.171508	6
O	0.516843	3.005774	-0.321568	8
H	-2.152357	-0.021136	0.270242	1
H	-1.934697	-1.759936	0.193062	1
H	-1.636167	-0.781736	-1.255638	1
H	-0.018987	-2.730126	0.585872	1
H	1.375043	-1.809386	1.121492	1
H	1.129993	-2.117806	-0.618108	1
H	2.269123	-0.115786	0.253572	1
H	-0.978147	2.033164	0.691342	1
H	-0.929207	1.765594	-1.076998	1
H	1.419233	2.637134	-0.189938	1
Es	0.446893	3.188271	-0.087388	99
Es	1.280653	0.717621	0.357955	99
Es	-0.722314	-0.707403	0.027120	99
Es	-0.325304	1.871794	-0.171511	99
Es	1.788786	0.769584	0.098640	99
Es	0.626606	-1.884262	0.325842	99
Es	-1.789753	-1.456872	0.079723	99
Es	-0.096344	-0.469986	0.460225	99
Es	0.205381	-1.167158	0.230579	99
Es	0.505451	0.585958	0.054686	99
Es	-0.738364	1.778299	-0.783406	99
Es	1.952640	1.107710	0.068177	99
Es	0.140841	-0.172316	0.001082	99
Es	-1.529599	-0.807808	-0.166458	99
Es	0.516943	3.005390	-0.321573	99
Es	-1.603743	-0.789480	-0.912412	99
Es	0.486500	3.088634	-0.613150	99
Es	2.071399	0.230674	0.190879	99
Es	0.204041	2.545977	-0.258815	99
Es	-0.126596	-0.641222	0.204933	99
Es	0.970668	2.813008	-0.252367	99
Es	-1.944798	-0.267614	0.125852	99
Es	1.138532	-1.825760	0.859994	99
Es	0.177001	-2.445487	0.497622	99
Es	-0.772295	1.958934	0.416699	99
Es	0.076038	1.199007	-0.058370	99
Es	1.321805	0.647002	-0.197148	99
Es	0.972635	-2.042719	-0.317936	99
45
Properties=species:S:1:pos:R:3:Z:I:1 energy=-341.149658730037 field_type=dipole dipole="0.000000 0.000000 0.000000" charge=0
C	-1.529767	-0.807826	-0.166508	6
N	-0.126777	-0.641296	0.205582	7
C	0.626703	-1.884416	0.325852	6
C	0.505603	0.586064	0.054652	6
N	1.789063	0.769974	0.098602	7
C	-0.325497	1.871744	-0.171508	6
O	0.516843	3.005774	-0.321568	8
H	-2.152357	-0.021136	0.270242	1
H	-1.934697	-1.759936	0.193062	1
H	-1.636167	-0.781736	-1.255638	1
H	-0.018987	-2.730126	0.585872	1
H	1.375043	-1.809386	1.121492	1
H	1.129993	-2.117806	-0.618108	1
H	2.269123	-0.115786	0.253572	1
H	-0.978147	2.033164	0.691342	1
H	-0.929207	1.765594	-1.076998	1
H	1.419233	2.637134	-0.189938	1
Es	-1.790785	-1.457564	0.079292	99
Es	0.971773	-2.041446	-0.316485	99
Es	1.788816	0.769617	0.098639	99
Es	-1.603719	-0.789245	-0.910670	99
Es	0.505444	0.585951	0.054665	99
Es	-0.126573	-0.641205	0.204875	99
Es	-1.944903	-0.267745	0.124532	99
Es	0.199003	2.546044	-0.259283	99
Es	0.445642	3.192035	-0.095418	99
Es	0.626609	-1.884265	0.325841	99
Es	0.176185	-2.447259	0.497417	99
Es	-1.529593	-0.807807	-0.166461	99
Es	-0.098028	-0.491334	0.430580	99
Es	0.146632	-0.151663	0.023170	99
Es	-0.726825	-0.706395	0.033651	99
Es	-0.325301	1.871800	-0.171512	99
Es	2.069681	0.230807	0.190134	99
Es	0.075818	1.198563	-0.058047	99
Es	0.516925	3.005388	-0.321542	99
Es	1.322367	0.645561	-0.194641	99
Es	-0.772221	1.958789	0.416151	99
Es	1.139659	-1.824945	0.859063	99
Es	1.954144	1.111996	0.068535	99
Es	0.487826	3.082935	-0.603846	99
Es	0.975988	2.815145	-0.253156	99
Es	0.206856	-1.166963	0.231280	99
Es	-0.738489	1.778346	-0.782983	99
Es	1.280770	0.714634	0.355693	99
45
Properties=species:S:1:pos:R:3:Z:I:1 energy=-341.149658730037 field_type=dipole dipole="0.000000 0.000000 0.000000" charge=0
C	-1.529767	-0.807826	-0.166508	6
N	-0.126777	-0.641296	0.205582	7
C	0.626703	-1.884416	0.325852	6
C	0.505603	0.586064	0.054652	6
N	1.789063	0.769974	0.098602	7
C	-0.325497	1.871744	-0.171508	6
O	0.516843	3.005774	-0.321568	8
H	-2.152357	-0.021136	0.270242	1
H	-1.934697	-1.759936	0.193062	1
H	-1.636167	-0.781736	-1.255638	1
H	-0.018987	-2.730126	0.585872	1
H	1.375043	-1.809386	1.121492	1
H	1.129993	-2.117806	-0.618108	1
H	2.269123	-0.115786	0.253572	1
H	-0.978147	2.033164	0.691342	1
H	-0.929207	1.765594	-1.076998	1
H	1.419233	2.637134	-0.189938	1
Es	0.149076	-0.141527	0.036998	99
Es	-0.729019	-0.706011	0.037577	99
Es	0.445328	3.190806	-0.099646	99
Es	-0.772223	1.958617	0.416092	99
Es	0.075564	1.198566	-0.057905	99
Es	0.175712	-2.447801	0.497025	99
Es	0.505446	0.585954	0.054670	99
Es	0.979076	2.817085	-0.253204	99
Es	2.069155	0.231395	0.189664	99
Es	0.626604	-1.884258	0.325831	99
Es	0.488083	3.082132	-0.598372	99
Es	-0.325299	1.871804	-0.171514	99
Es	1.140098	-1.824658	0.858972	99
Es	-1.945046	-0.267852	0.124063	99
Es	0.516918	3.005456	-0.321459	99
Es	-1.529604	-0.807808	-0.166458	99
Es	0.196255	2.546094	-0.260515	99
Es	0.207611	-1.166889	0.232409	99
Es	1.323397	0.645105	-0.194483	99
Es	1.280097	0.713473	0.355791	99
Es	-0.098555	-0.501854	0.411630	99
Es	-0.738486	1.778183	-0.782970	99
Es	-1.791195	-1.457822	0.078844	99
Es	0.971441	-2.040809	-0.315968	99
Es	1.954725	1.113036	0.068751	99
Es	-0.126502	-0.641141	0.204704	99
Es	1.788788	0.769588	0.098643	99
Es	-1.603744	-0.789090	-0.909698	99
45
Properties=species:S:1:pos:R:3:Z:I:1 energy=-341.149658730037 field_type=dipole dipole="0.000000 0.000000 0.000000" charge=0
C	-1.529767	-0.807826	-0.166508	6
N	-0.126777	-0.641296	0.205582	7
C	0.626703	-1.884416	0.325852	6
C	0.505603	0.586064	0.054652	6
N	1.789063	0.769974	0.098602	7
C	-0.325497	1.871744	-0.171508	6
O	0.516843	3.005774	-0.321568	8
H	-2.152357	-0.021136	0.270242	1
H	-1.934697	-1.759936	0.193062	1
H	-1.636167	-0.781736	-1.255638	1
H	-0.018987	-2.730126	0.585872	1
H	1.375043	-1.809386	1.121492	1
H	1.129993	-2.117806	-0.618108	1
H	2.269123	-0.115786	0.253572	1
H	-0.978147	2.033164	0.691342	1
H	-0.929207	1.765594	-1.076998	1
H	1.419233	2.637134	-0.189938	1
Es	1.788789	0.769584	0.098644	99
Es	0.149932	-0.137216	0.043906	99
Es	1.280531	0.713600	0.356265	99
Es	0.505444	0.585951	0.054669	99
Es	0.516918	3.005457	-0.321495	99
Es	-0.098008	-0.506616	0.402385	99
Es	-0.730376	-0.705688	0.040722	99
Es	-1.529598	-0.807807	-0.166456	99
Es	1.323201	0.643840	-0.193789	99
Es	-1.945050	-0.267939	0.123643	99
Es	0.207874	-1.166688	0.231247	99
Es	0.487521	3.082844	-0.594170	99
Es	1.955397	1.113644	0.067351	99
Es	0.194536	2.546202	-0.261854	99
Es	0.445506	3.188431	-0.101782	99
Es	0.175426	-2.448173	0.496891	99
Es	0.075466	1.198483	-0.058132	99
Es	2.068552	0.231924	0.189951	99
Es	-0.738504	1.778199	-0.782901	99
Es	-1.603788	-0.789060	-0.909048	99
Es	0.970917	-2.040441	-0.315539	99
Es	-0.126569	-0.641237	0.204832	99
Es	-0.325299	1.871802	-0.171514	99
Es	-1.791567	-1.457878	0.078653	99
Es	0.626607	-1.884262	0.325840	99
Es	1.140701	-1.824228	0.858810	99
Es	-0.772227	1.958518	0.416235	99
Es	0.981370	2.818530	-0.253891	99
45
Properties=species:S:1:pos:R:3:Z:I:1 energy=-341.149658730037 field_type=dipole dipole="0.000000 0.000000 0.000000" charge=0
C	-1.529767	-0.807826	-0.166508	6
N	-0.126777	-0.641296	0.205582	7
C	0.626703	-1.884416	0.325852	6
C	0.505603	0.586064	0.054652	6
N	1.789063	0.769974	0.098602	7
C	-0.325497	1.871744	-0.171508	6
O	0.516843	3.005774	-0.321568	8
H	-2.152357	-0.021136	0.270242	1
H	-1.934697	-1.759936	0.193062	1
H	-1.636167	-0.781736	-1.255638	1
H	-0.018987	-2.730126	0.585872	1
H	1.375043	-1.809386	1.121492	1
H	1.129993	-2.117806	-0.618108	1
H	2.269123	-0.115786	0.253572	1
H	-0.978147	2.033164	0.691342	1
H	-0.929207	1.765594	-1.076998	1
H	1.419233	2.637134	-0.189938	1
Es	1.955443	1.113827	0.067702	99
Es	0.192842	2.547005	-0.260627	99
Es	-0.098048	-0.510143	0.394804	99
Es	1.788797	0.769583	0.098642	99
Es	-1.529596	-0.807810	-0.166456	99
Es	0.516922	3.005430	-0.321583	99
Es	-0.738475	1.778010	-0.782935	99
Es	1.141053	-1.824114	0.858868	99
Es	1.323869	0.643737	-0.194210	99
Es	2.068533	0.232325	0.189742	99
Es	0.487495	3.080704	-0.591439	99
Es	0.626610	-1.884265	0.325840	99
Es	1.280070	0.713115	0.356449	99
Es	-0.731159	-0.705533	0.042376	99
Es	0.075314	1.198483	-0.057931	99
Es	0.505445	0.585952	0.054669	99
Es	-1.791688	-1.457989	0.078446	99
Es	0.970598	-2.040225	-0.315278	99
Es	-1.945192	-0.267987	0.123374	99
Es	0.150612	-0.133976	0.049670	99
Es	-0.126517	-0.641165	0.204716	99
Es	-0.325299	1.871800	-0.171513	99
Es	0.445803	3.188794	-0.105308	99
Es	0.982946	2.819498	-0.254268	99
Es	-0.772253	1.958511	0.416166	99
Es	0.208209	-1.166456	0.231427	99
Es	-1.603794	-0.789092	-0.908502	99
Es	0.175162	-2.448246	0.496632	99
45
Properties=species:S:1:pos:R:3:Z:I:1 energy=-341.149658730037 field_type=dipole dipole="0.000000 0.000000 0.000000" charge=0
C	-1.529767	-0.807826	-0.166508	6
N	-0.126777	-0.641296	0.205582	7
C	0.626703	-1.884416	0.325852	6
C	0.505603	0.586064	0.054652	6
N	1.789063	0.769974	0.098602	7
C	-0.325497	1.871744	-0.171508	6
O	0.516843	3.005774	-0.321568	8
H	-2.152357	-0.021136	0.270242	1
H	-1.934697	-1.759936	0.193062	1
H	-1.636167	-0.781736	-1.255638	1
H	-0.018987	-2.730126	0.585872	1
H	1.375043	-1.809386	1.121492	1
H	1.129993	-2.117806	-0.618108	1
H	2.269123	-0.115786	0.253572	1
H	-0.978147	2.033164	0.691342	1
H	-0.929207	1.765594	-1.076998	1
H	1.419233	2.637134	-0.189938	1
Es	-0.325302	1.871798	-0.171513	99
Es	0.150842	-0.132992	0.051378	99
Es	-0.097186	-0.511186	0.389853	99
Es	1.141351	-1.823968	0.858877	99
Es	-1.603918	-0.789120	-0.908233	99
Es	0.444330	3.189760	-0.108813	99
Es	0.505444	0.585950	0.054671	99
Es	0.208337	-1.166340	0.231663	99
Es	0.970326	-2.039966	-0.315088	99
Es	0.516949	3.005355	-0.321676	99
Es	0.174964	-2.448378	0.496422	99
Es	0.489111	3.078056	-0.588724	99
Es	0.191558	2.547478	-0.261672	99
Es	-0.126694	-0.641311	0.205156	99
Es	-0.738443	1.777973	-0.782960	99
Es	2.068082	0.232547	0.190013	99
Es	0.984137	2.820742	-0.252271	99
Es	-0.772291	1.958469	0.416091	99
Es	1.788799	0.769590	0.098661	99
Es	1.325389	0.643650	-0.194345	99
Es	-1.529597	-0.807807	-0.166458	99
Es	1.955899	1.113974	0.067800	99
Es	-1.791855	-1.457886	0.078409	99
Es	1.278713	0.712775	0.356200	99
Es	0.075302	1.198502	-0.057839	99
Es	-1.945165	-0.268149	0.123170	99
Es	0.626608	-1.884264	0.325841	99
Es	-0.731990	-0.705479	0.044859	99
45
Properties=species:S:1:pos:R:3:Z:I:1 energy=-341.149658730037 field_type=dipole dipole="0.000000 0.000000 0.000000" charge=0
C	-1.529767	-0.807826	-0.166508	6
N	-0.126777	-0.641296	0.205582	7
C	0.626703	-1.884416	0.325852	6
C	0.505603	0.586064	0.054652	6
N	1.789063	0.769974	0.098602	7
C	-0.325497	1.871744	-0.171508	6
O	0.516843	3.005774	-0.321568	8
H	-2.152357	-0.021136	0.270242	1
H	-1.934697	-1.759936	0.193062	1
H	-1.636167	-0.781736	-1.255638	1
H	-0.018987	-2.730126	0.585872	1
H	1.375043	-1.809386	1.121492	1
H	1.129993	-2.117806	-0.618108	1
H	2.269123	-0.115786	0.253572	1
H	-0.978147	2.033164	0.691342	1
H	-0.929207	1.765594	-1.076998	1
H	1.419233	2.637134	-0.189938	1
Es	-1.945325	-0.268204	0.123195	99
Es	0.970018	-2.039781	-0.314878	99
Es	0.505444	0.585951	0.054668	99
Es	-0.097031	-0.511746	0.387116	99
Es	-0.126560	-0.641220	0.204788	99
Es	0.174898	-2.448540	0.496345	99
Es	0.516937	3.005412	-0.321473	99
Es	0.487506	3.080729	-0.584952	99
Es	0.190148	2.547725	-0.263225	99
Es	1.323773	0.643496	-0.193988	99
Es	0.985382	2.821114	-0.255719	99
Es	0.626610	-1.884264	0.325841	99
Es	-1.529592	-0.807806	-0.166458	99
Es	-1.603948	-0.789050	-0.907891	99
Es	-1.791831	-1.457941	0.078121	99
Es	1.280370	0.713030	0.357022	99
Es	0.075194	1.198487	-0.057991	99
Es	0.446217	3.186324	-0.107807	99
Es	1.788760	0.769605	0.098637	99
Es	-0.732432	-0.705406	0.046105	99
Es	1.956832	1.113885	0.067496	99
Es	-0.325301	1.871800	-0.171516	99
Es	2.067292	0.232464	0.189307	99
Es	-0.771971	1.958399	0.416135	99
Es	0.208333	-1.166356	0.232417	99
Es	-0.738777	1.778040	-0.782951	99
Es	0.151083	-0.132549	0.052380	99
Es	1.141673	-1.823822	0.858748	99
45
Properties=species:S:1:pos:R:3:Z:I:1 energy=-341.149658730037 field_type=dipole dipole="0.000000 0.000000 0.000000" charge=0
C	-1.529767	-0.807826	-0.166508	6
N	-0.126777	-0.641296	0.205582	7
C	0.626703	-1.884416	0.325852	6
C	0.505603	0.586064	0.054652	6
N	1.789063	0.769974	0.098602	7
C	-0.325497	1.871744	-0.171508	6
O	0.516843	3.005774	-0.321568	8
H	-2.152357	-0.021136	0.270242	1
H	-1.934697	-1.759936	0.193062	1
H	-1.636167	-0.781736	-1.255638	1
H	-0.018987	-2.730126	0.585872	1
H	1.375043	-1.809386	1.121492	1
H	1.129993	-2.117806	-0.618108	1
H	2.269123	-0.115786	0.253572	1
H	-0.978147	2.033164	0.691342	1
H	-0.929207	1.765594	-1.076998	1
H	1.419233	2.637134	-0.189938	1
Es	-0.732674	-0.705187	0.046988	99
Es	0.969652	-2.039663	-0.314758	99
Es	0.174784	-2.448556	0.496259	99
Es	2.067823	0.232855	0.189770	99
Es	-1.603943	-0.788855	-0.907662	99
Es	0.505444	0.585951	0.054669	99
Es	1.956203	1.114215	0.068245	99
Es	1.142053	-1.823669	0.858719	99
Es	0.151380	-0.131111	0.055094	99
Es	0.985893	2.821803	-0.255128	99
Es	-0.126519	-0.641175	0.204694	99
Es	1.326026	0.643550	-0.194590	99
Es	1.788797	0.769579	0.098644	99
Es	-1.792003	-1.458015	0.077918	99
Es	0.626608	-1.884263	0.325840	99
Es	-0.325300	1.871800	-0.171512	99
Es	0.446073	3.187651	-0.110760	99
Es	0.208325	-1.166418	0.232034	99
Es	-0.772082	1.958342	0.416176	99
Es	0.516925	3.005456	-0.321529	99
Es	0.189165	2.548283	-0.261726	99
Es	-0.097066	-0.513399	0.384063	99
Es	0.075142	1.198574	-0.057937	99
Es	-0.738663	1.777964	-0.782989	99
Es	0.488195	3.078059	-0.584001	99
Es	-1.529593	-0.807805	-0.166456	99
Es	1.278347	0.712176	0.356325	99
Es	-1.945290	-0.268367	0.123084	99
45
Properties=species:S:1:pos:R:3:Z:I:1 energy=-341.149658730037 field_type=dipole dipole="0.000000 0.000000 0.000000" charge=0
C	-1.529767	-0.807826	-0.166508	6
N	-0.126777	-0.641296	0.205582	7
C	0.626703	-1.884416	0.325852	6
C	0.505603	0.586064	0.054652	6
N	1.789063	0.769974	0.098602	7
C	-0.325497	1.871744	-0.171508	6
O	0.516843	3.005774	-0.321568	8
H	-2.152357	-0.021136	0.270242	1
H	-1.934697	-1.759936	0.193062	1
H	-1.636167	-0.781736	-1.255638	1
H	-0.018987	-2.730126	0.585872	1
H	1.375043	-1.809386	1.121492	1
H	1.129993	-2.117806	-0.618108	1
H	2.269123	-0.115786	0.253572	1
H	-0.978147	2.033164	0.691342	1
H	-0.929207	1.765594	-1.076998	1
H	1.419233	2.637134	-0.189938	1
Es	0.626609	-1.884264	0.325841	99
Es	-1.792078	-1.457770	0.078116	99
Es	0.174546	-2.448618	0.496161	99
Es	0.986569	2.822526	-0.254799	99
Es	-0.097106	-0.515311	0.380250	99
Es	0.151557	-0.129406	0.058510	99
Es	-1.604042	-0.789080	-0.907686	99
Es	0.505447	0.585953	0.054667	99
Es	1.280540	0.712726	0.357490	99
Es	0.446116	3.186667	-0.112148	99
Es	1.956134	1.114168	0.066985	99
Es	0.208685	-1.166252	0.231594	99
Es	2.068035	0.233057	0.189290	99
Es	-0.126488	-0.641140	0.204647	99
Es	1.788784	0.769608	0.098638	99
Es	-0.732969	-0.705226	0.047865	99
Es	0.969703	-2.039510	-0.314681	99
Es	1.323808	0.642840	-0.193981	99
Es	0.516929	3.005437	-0.321529	99
Es	-0.772170	1.958388	0.416107	99
Es	0.188618	2.548611	-0.261512	99
Es	0.488016	3.077966	-0.583155	99
Es	0.075158	1.198479	-0.057900	99
Es	1.142014	-1.823610	0.858731	99
Es	-1.529591	-0.807806	-0.166453	99
Es	-0.738585	1.777909	-0.783005	99
Es	-1.945234	-0.268369	0.122945	99
Es	-0.325300	1.871800	-0.171513	99
45
Properties=species:S:1:pos:R:3:Z:I:1 energy=-341.149658730037 field_type=dipole dipole="0.000000 0.000000 0.000000" charge=0
C	-1.529767	-0.807826	-0.166508	6
N	-0.126777	-0.641296	0.205582	7
C	0.626703	-1.884416	0.325852	6
C	0.505603	0.586064	0.054652	6
N	1.789063	0.769974	0.098602	7
C	-0.325497	1.871744	-0.171508	6
O	0.516843	3.005774	-0.321568	8
H	-2.152357	-0.021136	0.270242	1
H	-1.934697	-1.759936	0.193062	1
H	-1.636167	-0.781736	-1.255638	1
H	-0.018987	-2.730126	0.585872	1
H	1.375043	-1.809386	1.121492	1
H	1.129993	-2.117806	-0.618108	1
H	2.269123	-0.115786	0.253572	1
H	-0.978147	2.033164	0.691342	1
H	-0.929207	1.765594	-1.076998	1
H	1.419233	2.637134	-0.189938	1
Es	1.324331	0.642971	-0.194260	99
Es	0.486468	3.082024	-0.581277	99
Es	-0.325300	1.871801	-0.171512	99
Es	-1.792078	-1.457869	0.077904	99
Es	0.987350	2.823022	-0.256274	99
Es	-0.772218	1.958422	0.416053	99
Es	-0.733121	-0.705183	0.048618	99
Es	0.969256	-2.039385	-0.314403	99
Es	-1.529595	-0.807806	-0.166456	99
Es	0.187953	2.548737	-0.263027	99
Es	-1.945423	-0.268293	0.122795	99
Es	0.516932	3.005420	-0.321525	99
Es	1.280132	0.712252	0.357212	99
Es	1.142471	-1.823627	0.858606	99
Es	0.447656	3.181937	-0.111016	99
Es	-0.096699	-0.514877	0.380877	99
Es	-1.603960	-0.789145	-0.907248	99
Es	0.626609	-1.884264	0.325841	99
Es	0.174434	-2.448686	0.496003	99
Es	-0.126579	-0.641235	0.204840	99
Es	1.788790	0.769582	0.098645	99
Es	0.208703	-1.166005	0.230925	99
Es	-0.738558	1.777975	-0.782932	99
Es	0.075013	1.198481	-0.057857	99
Es	1.956261	1.114325	0.067589	99
Es	0.505445	0.585953	0.054669	99
Es	0.151559	-0.129895	0.057499	99
Es	2.067874	0.233142	0.189184	99
45
Properties=species:S:1:pos:R:3:Z:I:1 energy=-341.149658730037 field_type=dipole dipole="0.000000 0.000000 0.000000" charge=0
C	-1.529767	-0.807826	-0.166508	6
N	-0.126777	-0.641296	0.205582	7
C	0.626703	-1.884416	0.325852	6
C	0.505603	0.586064	0.054652	6
N	1.789063	0.769974	0.098602	7
C	-0.325497	1.871744	-0.171508	6
O	0.516843	3.005774	-0.321568	8
H	-2.152357	-0.021136	0.270242	1
H	-1.934697	-1.759936	0.193062	1
H	-1.636167	-0.781736	-1.255638	1
H	-0.018987	-2.730126	0.585872	1
H	1.375043	-1.809386	1.121492	1
H	1.129993	-2.117806	-0.618108	1
H	2.269123	-0.115786	0.253572	1
H	-0.978147	2.033164	0.691342	1
H	-0.929207	1.765594	-1.076998	1
H	1.419233	2.637134	-0.189938	1
Es	0.516925	3.005381	-0.321640	99
Es	0.446637	3.185031	-0.114003	99
Es	0.208771	-1.166117	0.231354	99
Es	1.956208	1.113858	0.067558	99
Es	2.068033	0.233262	0.189299	99
Es	1.324617	0.643084	-0.194795	99
Es	0.626609	-1.884265	0.325841	99
Es	0.187241	2.549360	-0.262031	99
Es	1.279837	0.712577	0.357669	99
Es	1.788780	0.769580	0.098646	99
Es	-0.733506	-0.705040	0.049746	99
Es	-0.126526	-0.641186	0.204715	99
Es	0.174469	-2.448634	0.496022	99
Es	-1.945173	-0.268455	0.122679	99
Es	-1.792279	-1.457829	0.078075	99
Es	-1.529593	-0.807807	-0.166457	99
Es	1.142567	-1.823501	0.858653	99
Es	-0.096705	-0.516372	0.376550	99
Es	-0.772110	1.958334	0.416115	99
Es	0.987722	2.823496	-0.255452	99
Es	0.487821	3.077871	-0.580033	99
Es	0.969159	-2.039412	-0.314403	99
Es	-0.738642	1.777820	-0.783020	99
Es	-0.325297	1.871807	-0.171509	99
Es	-1.604048	-0.789060	-0.907348	99
Es	0.075051	1.198527	-0.057845	99
Es	0.505443	0.585952	0.054672	99
Es	0.151694	-0.128486	0.060416	99
45
Properties=species:S:1:pos:R:3:Z:I:1 energy=-341.149658730037 field_type=dipole dipole="0.000000 0.000000 0.000000" charge=0
C	-1.529767	-0.807826	-0.166508	6
N	-0.126777	-0.641296	0.205582	7
C	0.626703	-1.884416	0.325852	6
C	0.505603	0.586064	0.054652	6
N	1.789063	0.769974	0.098602	7
C	-0.325497	1.871744	-0.171508	6
O	0.516843	3.005774	-0.321568	8
H	-2.152357	-0.021136	0.270242	1
H	-1.934697	-1.759936	0.193062	1
H	-1.636167	-0.781736	-1.255638	1
H	-0.018987	-2.730126	0.585872	1
H	1.375043	-1.809386	1.121492	1
H	1.129993	-2.117806	-0.618108	1
H	2.269123	-0.115786	0.253572	1
H	-0.978147	2.033164	0.691342	1
H	-0.929207	1.765594	-1.076998	1
H	1.419233	2.637134	-0.189938	1
Es	1.280937	0.712982	0.358156	99
Es	-1.603988	-0.789126	-0.907058	99
Es	-0.325299	1.871801	-0.171512	99
Es	0.969077	-2.039275	-0.314281	99
Es	0.074994	1.198633	-0.057859	99
Es	0.446150	3.185660	-0.115044	99
Es	0.988097	2.824021	-0.255340	99
Es	-0.096529	-0.516188	0.375393	99
Es	0.516920	3.005476	-0.321418	99
Es	-0.738703	1.777841	-0.783109	99
Es	0.505444	0.585952	0.054670	99
Es	-1.792329	-1.457853	0.077960	99
Es	1.142658	-1.823469	0.858693	99
Es	0.626611	-1.884265	0.325842	99
Es	-0.733658	-0.705068	0.050269	99
Es	0.488220	3.076467	-0.579090	99
Es	0.208749	-1.166198	0.231994	99
Es	0.187033	2.549444	-0.262175	99
Es	1.788761	0.769568	0.098637	99
Es	0.151817	-0.128580	0.060243	99
Es	0.174334	-2.448674	0.495859	99
Es	1.956177	1.113946	0.066446	99
Es	-1.945263	-0.268316	0.122567	99
Es	1.323557	0.642296	-0.194292	99
Es	2.068134	0.233488	0.189447	99
Es	-0.126557	-0.641226	0.204758	99
Es	-0.772049	1.958244	0.416179	99
Es	-1.529592	-0.807806	-0.166459	99
45
Properties=species:S:1:pos:R:3:Z:I:1 energy=-341.149658730037 field_type=dipole dipole="0.000000 0.000000 0.000000" charge=0
C	-1.529767	-0.807826	-0.166508	6
N	-0.126777	-0.641296	0.205582	7
C	0.626703	-1.884416	0.325852	6
C	0.505603	0.586064	0.054652	6
N	1.789063	0.769974	0.098602	7
C	-0.325497	1.871744	-0.171508	6
O	0.516843	3.005774	-0.321568	8
H	-2.152357	-0.021136	0.270242	1
H	-1.934697	-1.759936	0.193062	1
H	-1.636167	-0.781736	-1.255638	1
H	-0.018987	-2.730126	0.585872	1
H	1.375043	-1.809386	1.121492	1
H	1.129993	-2.117806	-0.618108	1
H	2.269123	-0.115786	0.253572	1
H	-0.978147	2.033164	0.691342	1
H	-0.929207	1.765594	-1.076998	1
H	1.419233	2.637134	-0.189938	1
Es	1.326254	0.642714	-0.194905	99
Es	0.151894	-0.129472	0.058490	99
Es	0.505445	0.585955	0.054675	99
Es	-1.792154	-1.457841	0.077703	99
Es	-1.529595	-0.807809	-0.166456	99
Es	1.142936	-1.823285	0.858522	99
Es	0.074946	1.198662	-0.057789	99
Es	0.516936	3.005412	-0.321475	99
Es	-0.325300	1.871801	-0.171512	99
Es	-0.738828	1.777863	-0.783113	99
Es	1.788773	0.769570	0.098650	99
Es	-0.733760	-0.705142	0.050644	99
Es	1.956390	1.114249	0.067724	99
Es	-0.126619	-0.641269	0.204927	99
Es	0.626609	-1.884264	0.325842	99
Es	2.067794	0.233660	0.189778	99
Es	0.208561	-1.166309	0.233483	99
Es	-1.604002	-0.789141	-0.906864	99
Es	0.445467	3.187515	-0.116122	99
Es	0.186533	2.549765	-0.262816	99
Es	0.174365	-2.448762	0.495948	99
Es	0.489367	3.074368	-0.577754	99
Es	0.988206	2.823931	-0.254914	99
Es	-1.945510	-0.268400	0.122664	99
Es	-0.771933	1.958264	0.416157	99
Es	0.968787	-2.039217	-0.314200	99
Es	1.278441	0.711981	0.357156	99
Es	-0.096301	-0.515027	0.375029	99
45
Properties=species:S:1:pos:R:3:Z:I:1 energy=-341.149658730037 field_type=dipole dipole="0.000000 0.000000 0.000000" charge=0
C	-1.529767	-0.807826	-0.166508	6
N	-0.126777	-0.641296	0.205582	7
C	0.626703	-1.884416	0.325852	6
C	0.505603	0.586064	0.054652	6
N	1.789063	0.769974	0.098602	7
C	-0.325497	1.871744	-0.171508	6
O	0.516843	3.005774	-0.321568	8
H	-2.152357	-0.021136	0.270242	1
H	-1.934697	-1.759936	0.193062	1
H	-1.636167	-0.781736	-1.255638	1
H	-0.018987	-2.730126	0.585872	1
H	1.375043	-1.809386	1.121492	1
H	1.129993	-2.117806	-0.618108	1
H	2.269123	-0.115786	0.253572	1
H	-0.978147	2.033164	0.691342	1
H	-0.929207	1.765594	-1.076998	1
H	1.419233	2.637134	-0.189938	1
Es	0.174269	-2.448830	0.495712	99
Es	2.067983	0.233646	0.189298	99
Es	0.487907	3.076479	-0.576791	99
Es	-0.325300	1.871801	-0.171513	99
Es	-1.792318	-1.457858	0.077630	99
Es	0.516937	3.005397	-0.321544	99
Es	0.075004	1.198598	-0.057827	99
Es	1.325182	0.642779	-0.194853	99
Es	-1.603974	-0.788976	-0.906880	99
Es	0.208900	-1.166264	0.232142	99
Es	-1.945392	-0.268504	0.122604	99
Es	0.505444	0.585952	0.054670	99
Es	-0.738821	1.777856	-0.783124	99
Es	1.279502	0.711969	0.357557	99
Es	0.446756	3.184465	-0.115949	99
Es	-0.733955	-0.705003	0.051715	99
Es	1.788783	0.769576	0.098643	99
Es	1.956235	1.114285	0.067821	99
Es	0.968787	-2.039114	-0.313963	99
Es	-1.529593	-0.807806	-0.166456	99
Es	0.151634	-0.128661	0.060129	99
Es	0.988886	2.824522	-0.256376	99
Es	-0.126170	-0.640656	0.204388	99
Es	0.626609	-1.884264	0.325841	99
Es	1.142963	-1.823291	0.858603	99
Es	0.185981	2.550127	-0.262393	99
Es	-0.771946	1.958242	0.416136	99
Es	-0.096593	-0.516694	0.374252	99
45
Properties=species:S:1:pos:R:3:Z:I:1 energy=-341.149658730037 field_type=dipole dipole="0.000000 0.000000 0.000000" charge=0
C	-1.529767	-0.807826	-0.166508	6
N	-0.126777	-0.641296	0.205582	7
C	0.626703	-1.884416	0.325852	6
C	0.505603	0.586064	0.054652	6
N	1.789063	0.769974	0.098602	7
C	-0.325497	1.871744	-0.171508	6
O	0.516843	3.005774	-0.321568	8
H	-2.152357	-0.021136	0.270242	1
H	-1.934697	-1.759936	0.193062	1
H	-1.636167	-0.781736	-1.255638	1
H	-0.018987	-2.730126	0.585872	1
H	1.375043	-1.809386	1.121492	1
H	1.129993	-2.117806	-0.618108	1
H	2.269123	-0.115786	0.253572	1
H	-0.978147	2.033164	0.691342	1
H	-0.929207	1.765594	-1.076998	1
H	1.419233	2.637134	-0.189938	1
Es	0.968507	-2.039198	-0.314037	99
Es	-1.792150	-1.457739	0.077722	99
Es	0.516926	3.005451	-0.321506	99
Es	-0.126594	-0.641241	0.204876	99
Es	0.185360	2.550363	-0.263705	99
Es	-0.738743	1.777982	-0.782936	99
Es	-1.945567	-0.268329	0.122605	99
Es	0.209118	-1.165847	0.231235	99
Es	-0.325302	1.871799	-0.171511	99
Es	-0.096450	-0.517783	0.371981	99
Es	-1.529593	-0.807807	-0.166457	99
Es	0.174181	-2.448688	0.495855	99
Es	1.143233	-1.823308	0.858480	99
Es	-0.733909	-0.705172	0.051093	99
Es	1.279126	0.712475	0.358020	99
Es	0.486010	3.082305	-0.576486	99
Es	0.074990	1.198441	-0.058004	99
Es	0.989122	2.824430	-0.257511	99
Es	2.067655	0.233450	0.189182	99
Es	0.449075	3.178400	-0.113903	99
Es	0.626610	-1.884266	0.325841	99
Es	-0.772050	1.958297	0.416169	99
Es	-1.604040	-0.789282	-0.906722	99
Es	0.151802	-0.127220	0.063296	99
Es	0.505444	0.585952	0.054668	99
Es	1.956684	1.113834	0.067190	99
Es	1.788780	0.769588	0.098642	99
Es	1.325476	0.642888	-0.194603	99
45
Properties=species:S:1:pos:R:3:Z:I:1 energy=-341.149658730037 field_type=dipole dipole="0.000000 0.000000 0.000000" charge=0
C	-1.529767	-0.807826	-0.166508	6
N	-0.126777	-0.641296	0.205582	7
C	0.626703	-1.884416	0.325852	6
C	0.505603	0.586064	0.054652	6
N	1.789063	0.769974	0.098602	7
C	-0.325497	1.871744	-0.171508	6
O	0.516843	3.005774	-0.321568	8
H	-2.152357	-0.021136	0.270242	1
H	-1.934697	-1.759936	0.193062	1
H	-1.636167	-0.781736	-1.255638	1
H	-0.018987	-2.730126	0.585872	1
H	1.375043	-1.809386	1.121492	1
H	1.129993	-2.117806	-0.618108	1
H	2.269123	-0.115786	0.253572	1
H	-0.978147	2.033164	0.691342	1
H	-0.929207	1.765594	-1.076998	1
H	1.419233	2.637134	-0.189938	1
Es	0.184912	2.550808	-0.262131	99
Es	0.208931	-1.166151	0.232288	99
Es	-0.738830	1.777919	-0.783033	99
Es	0.174178	-2.448771	0.495794	99
Es	-1.529591	-0.807806	-0.166460	99
Es	-0.771956	1.958237	0.416252	99
Es	0.152016	-0.127502	0.062785	99
Es	1.324335	0.642418	-0.194475	99
Es	-0.126529	-0.641186	0.204736	99
Es	0.626610	-1.884265	0.325841	99
Es	-0.734060	-0.704990	0.051672	99
Es	-1.945541	-0.268435	0.122645	99
Es	-0.325300	1.871800	-0.171513	99
Es	2.067784	0.233651	0.189107	99
Es	0.074891	1.198622	-0.058056	99
Es	-1.604069	-0.789118	-0.906621	99
Es	-0.096368	-0.517454	0.370986	99
Es	1.788794	0.769594	0.098642	99
Es	0.989148	2.824946	-0.255630	99
Es	-1.792201	-1.457805	0.077577	99
Es	0.505445	0.585952	0.054671	99
Es	1.143169	-1.823204	0.858519	99
Es	1.280314	0.712582	0.358469	99
Es	0.447266	3.183554	-0.117665	99
Es	0.488360	3.076012	-0.576143	99
Es	0.516876	3.005573	-0.321528	99
Es	0.968570	-2.039086	-0.314017	99
Es	1.956549	1.113877	0.066761	99
45
Properties=species:S:1:pos:R:3:Z:I:1 energy=-341.149658730037 field_type=dipole dipole="0.000000 0.000000 0.000000" charge=0
C	-1.529767	-0.807826	-0.166508	6
N	-0.126777	-0.641296	0.205582	7
C	0.626703	-1.884416	0.325852	6
C	0.505603	0.586064	0.054652	6
N	1.789063	0.769974	0.098602	7
C	-0.325497	1.871744	-0.171508	6
O	0.516843	3.005774	-0.321568	8
H	-2.152357	-0.021136	0.270242	1
H	-1.934697	-1.759936	0.193062	1
H	-1.636167	-0.781736	-1.255638	1
H	-0.018987	-2.730126	0.585872	1
H	1.375043	-1.809386	1.121492	1
H	1.129993	-2.117806	-0.618108	1
H	2.269123	-0.115786	0.253572	1
H	-0.978147	2.033164	0.691342	1
H	-0.929207	1.765594	-1.076998	1
H	1.419233	2.637134	-0.189938	1
Es	1.955924	1.114191	0.067710	99
Es	1.788768	0.769573	0.098650	99
Es	0.174075	-2.448784	0.495648	99
Es	0.208812	-1.165967	0.231960	99
Es	-0.738852	1.777881	-0.783088	99
Es	0.989515	2.825673	-0.255577	99
Es	-1.604048	-0.789164	-0.906583	99
Es	-1.945384	-0.268408	0.122428	99
Es	1.277869	0.711718	0.357353	99
Es	2.068346	0.233698	0.189448	99
Es	-1.792395	-1.457784	0.077728	99
Es	0.505444	0.585952	0.054669	99
Es	0.516922	3.005336	-0.322128	99
Es	-0.126553	-0.641192	0.204806	99
Es	0.446935	3.182604	-0.117674	99
Es	0.152096	-0.128309	0.061209	99
Es	-0.771934	1.958262	0.416188	99
Es	0.184885	2.550528	-0.263619	99
Es	1.326911	0.642912	-0.194752	99
Es	1.143395	-1.823249	0.858486	99
Es	-1.529596	-0.807809	-0.166457	99
Es	0.968350	-2.039031	-0.313798	99
Es	-0.734103	-0.705013	0.051844	99
Es	0.626610	-1.884265	0.325841	99
Es	-0.096186	-0.516780	0.372585	99
Es	0.074854	1.198690	-0.057815	99
Es	-0.325301	1.871799	-0.171512	99
Es	0.488343	3.076714	-0.574078	99
45
Properties=species:S:1:pos:R:3:Z:I:1 energy=-341.149658730037 field_type=dipole dipole="0.000000 0.000000 0.000000" charge=0
C	-1.529767	-0.807826	-0.166508	6
N	-0.126777	-0.641296	0.205582	7
C	0.626703	-1.884416	0.325852	6
C	0.505603	0.586064	0.054652	6
N	1.789063	0.769974	0.098602	7
C	-0.325497	1.871744	-0.171508	6
O	0.516843	3.005774	-0.321568	8
H	-2.152357	-0.021136	0.270242	1
H	-1.934697	-1.759936	0.193062	1
H	-1.636167	-0.781736	-1.255638	1
H	-0.018987	-2.730126	0.585872	1
H	1.375043	-1.809386	1.121492	1
H	1.129993	-2.117806	-0.618108	1
H	2.269123	-0.115786	0.253572	1
H	-0.978147	2.033164	0.691342	1
H	-0.929207	1.765594	-1.076998	1
H	1.419233	2.637134	-0.189938	1
Es	-0.771894	1.958208	0.416272	99
Es	0.989527	2.825807	-0.254777	99
Es	-0.325301	1.871799	-0.171511	99
Es	1.956148	1.113873	0.067152	99
Es	-1.529593	-0.807807	-0.166456	99
Es	1.278460	0.712094	0.358158	99
Es	-0.734212	-0.704893	0.052138	99
Es	0.447126	3.183430	-0.119802	99
Es	0.968478	-2.039066	-0.314010	99
Es	-1.792210	-1.457645	0.077705	99
Es	0.208949	-1.166141	0.232277	99
Es	1.143267	-1.823177	0.858576	99
Es	-0.738899	1.777938	-0.783058	99
Es	1.326288	0.642684	-0.194829	99
Es	0.074834	1.198619	-0.057956	99
Es	0.184273	2.551182	-0.261646	99
Es	-1.604138	-0.789188	-0.906791	99
Es	-0.096216	-0.518478	0.367445	99
Es	0.488726	3.075085	-0.575121	99
Es	0.626609	-1.884265	0.325841	99
Es	1.788802	0.769585	0.098646	99
Es	-1.945484	-0.268549	0.122619	99
Es	0.152243	-0.126421	0.065196	99
Es	0.174106	-2.448695	0.495730	99
Es	2.068183	0.233838	0.189248	99
Es	-0.126766	-0.641313	0.205488	99
Es	0.516955	3.005316	-0.321728	99
Es	0.505445	0.585953	0.054670	99
45
Properties=species:S:1:pos:R:3:Z:I:1 energy=-341.149658730037 field_type=dipole dipole="0.000000 0.000000 0.000000" charge=0
C	-1.529767	-0.807826	-0.166508	6
N	-0.126777	-0.641296	0.205582	7
C	0.626703	-1.884416	0.325852	6
C	0.505603	0.586064	0.054652	6
N	1.789063	0.769974	0.098602	7
C	-0.325497	1.871744	-0.171508	6
O	0.516843	3.005774	-0.321568	8
H	-2.152357	-0.021136	0.270242	1
H	-1.934697	-1.759936	0.193062	1
H	-1.636167	-0.781736	-1.255638	1
H	-0.018987	-2.730126	0.585872	1
H	1.375043	-1.809386	1.121492	1
H	1.129993	-2.117806	-0.618108	1
H	2.269123	-0.115786	0.253572	1
H	-0.978147	2.033164	0.691342	1
H	-0.929207	1.765594	-1.076998	1
H	1.419233	2.637134	-0.189938	1
Es	1.788779	0.769580	0.098641	99
Es	0.208885	-1.165972	0.232335	99
Es	1.326374	0.642654	-0.194753	99
Es	1.955713	1.114262	0.067550	99
Es	0.626610	-1.884263	0.325842	99
Es	1.143358	-1.823249	0.858574	99
Es	-0.325300	1.871800	-0.171512	99
Es	-0.734210	-0.705019	0.052388	99
Es	-1.529591	-0.807807	-0.166456	99
Es	0.183970	2.551211	-0.263529	99
Es	2.068569	0.233826	0.189467	99
Es	0.488256	3.076279	-0.573129	99
Es	-0.126490	-0.641140	0.204657	99
Es	0.074833	1.198586	-0.057829	99
Es	-1.604009	-0.789178	-0.906410	99
Es	-1.792441	-1.457763	0.077607	99
Es	0.173970	-2.448787	0.495493	99
Es	0.152177	-0.127990	0.061902	99
Es	0.516852	3.005682	-0.321545	99
Es	-0.738768	1.777882	-0.783064	99
Es	1.278457	0.711775	0.357566	99
Es	0.505444	0.585952	0.054669	99
Es	0.447654	3.181767	-0.118276	99
Es	-1.945449	-0.268406	0.122341	99
Es	0.989900	2.825905	-0.256543	99
Es	0.968403	-2.038963	-0.313695	99
Es	-0.772023	1.958265	0.416079	99
Es	-0.096219	-0.517116	0.371105	99
45
Properties=species:S:1:pos:R:3:Z:I:1 energy=-341.149658730037 field_type=dipole dipole="0.000000 0.000000 0.000000" charge=0
C	-1.529767	-0.807826	-0.166508	6
N	-0.126777	-0.641296	0.205582	7
C	0.626703	-1.884416	0.325852	6
C	0.505603	0.586064	0.054652	6
N	1.789063	0.769974	0.098602	7
C	-0.325497	1.871744	-0.171508	6
O	0.516843	3.005774	-0.321568	8
H	-2.152357	-0.021136	0.270242	1
H	-1.934697	-1.759936	0.193062	1
H	-1.636167	-0.781736	-1.255638	1
H	-0.018987	-2.730126	0.585872	1
H	1.375043	-1.809386	1.121492	1
H	1.129993	-2.117806	-0.618108	1
H	2.269123	-0.115786	0.253572	1
H	-0.978147	2.033164	0.691342	1
H	-0.929207	1.765594	-1.076998	1
H	1.419233	2.637134	-0.189938	1
Es	0.447037	3.182937	-0.119643	99
Es	0.626610	-1.884265	0.325841	99
Es	-0.126601	-0.641260	0.204864	99
Es	1.956356	1.113783	0.065986	99
Es	0.968098	-2.038976	-0.313682	99
Es	0.209040	-1.165870	0.232129	99
Es	-1.529592	-0.807806	-0.166455	99
Es	-0.325301	1.871800	-0.171512	99
Es	0.990208	2.826374	-0.256242	99
Es	2.068071	0.234052	0.189437	99
Es	-1.792388	-1.457796	0.077504	99
Es	-0.096114	-0.517696	0.369395	99
Es	0.184327	2.551284	-0.261971	99
Es	-0.771936	1.958217	0.416142	99
Es	1.788774	0.769592	0.098631	99
Es	0.174023	-2.448797	0.495659	99
Es	-1.945533	-0.268410	0.122373	99
Es	0.074925	1.198557	-0.057965	99
Es	0.152036	-0.127319	0.063319	99
Es	-0.734329	-0.705023	0.052691	99
Es	-1.604000	-0.789162	-0.906311	99
Es	-0.738863	1.777934	-0.783034	99
Es	1.143637	-1.823180	0.858351	99
Es	0.516879	3.005632	-0.321560	99
Es	1.324091	0.641760	-0.194452	99
Es	1.280660	0.712854	0.358922	99
Es	0.488145	3.074602	-0.573611	99
Es	0.505444	0.585951	0.054669	99
