43
Properties=species:S:1:pos:R:3:Z:I:1 energy=-323.98726430014233 field_type=dipole dipole="0.000000 0.000000 0.000000" charge=0
C	-1.279542	-0.756193	-0.855809	6
N	-0.145952	-0.780333	0.057071	7
C	0.357228	-2.097833	0.411811	6
C	0.592908	0.328767	0.447761	6
O	1.548098	0.258897	1.218801	8
C	0.200818	1.647177	-0.127899	6
C	0.674508	2.784387	0.399001	6
H	-1.889962	0.135637	-0.699969	1
H	-1.912562	-1.631683	-0.684219	1
H	-0.901712	-0.772363	-1.881979	1
H	-0.464312	-2.698753	0.812961	1
H	1.152348	-2.052573	1.160481	1
H	0.750928	-2.573493	-0.491549	1
H	-0.433152	1.683687	-1.001309	1
H	1.335168	2.777607	1.261841	1
H	0.415188	3.747067	-0.026999	1
Es	0.166171	2.179140	0.320022	99
Es	1.673332	0.540774	1.263972	99
Es	-0.209171	-2.508419	0.677906	99
Es	1.547848	0.258912	1.218603	99
Es	-1.700158	-1.352118	-0.736127	99
Es	-0.232837	1.658523	-0.718532	99
Es	-0.621779	-0.759327	-0.343155	99
Es	0.499824	3.436639	0.112893	99
Es	0.071295	-1.338794	0.202983	99
Es	0.674516	2.784475	0.399022	99
Es	-0.178371	-0.535181	0.360219	99
Es	-1.027479	-0.767280	-1.560326	99
Es	0.879471	-2.067100	0.904911	99
Es	0.228506	-0.413209	0.001224	99
Es	-1.279396	-0.756195	-0.855692	99
Es	-1.686929	-0.149414	-0.751645	99
Es	0.368643	0.981462	0.143773	99
Es	0.200798	1.647051	-0.127923	99
Es	-0.145739	-0.780289	0.056831	99
Es	0.357139	-2.097674	0.411743	99
Es	1.080916	0.315841	1.157510	99
Es	1.602357	-0.034329	1.316293	99
Es	0.620994	-2.424592	-0.209078	99
Es	1.382209	0.244497	0.772364	99
Es	1.109010	2.794119	0.971388	99
Es	0.677226	2.159293	-0.062712	99
Es	0.592777	0.328678	0.447687	99
43
Properties=species:S:1:pos:R:3:Z:I:1 energy=-323.98726430014233 field_type=dipole dipole="0.000000 0.000000 0.000000" charge=0
C	-1.279542	-0.756193	-0.855809	6
N	-0.145952	-0.780333	0.057071	7
C	0.357228	-2.097833	0.411811	6
C	0.592908	0.328767	0.447761	6
O	1.548098	0.258897	1.218801	8
C	0.200818	1.647177	-0.127899	6
C	0.674508	2.784387	0.399001	6
H	-1.889962	0.135637	-0.699969	1
H	-1.912562	-1.631683	-0.684219	1
H	-0.901712	-0.772363	-1.881979	1
H	-0.464312	-2.698753	0.812961	1
H	1.152348	-2.052573	1.160481	1
H	0.750928	-2.573493	-0.491549	1
H	-0.433152	1.683687	-1.001309	1
H	1.335168	2.777607	1.261841	1
H	0.415188	3.747067	-0.026999	1
Es	0.078336	-1.338597	0.197651	99
Es	-0.233900	1.658090	-0.718801	99
Es	1.087448	0.309087	1.152638	99
Es	-1.686179	-0.149278	-0.753161	99
Es	1.547856	0.258924	1.218604	99
Es	1.686938	0.547247	1.280849	99
Es	0.674519	2.784474	0.399020	99
Es	0.499809	3.435064	0.113371	99
Es	-0.209225	-2.507742	0.676561	99
Es	0.677413	2.159445	-0.063566	99
Es	-0.184062	-0.618797	0.276729	99
Es	1.109935	2.794869	0.972143	99
Es	0.166335	2.179399	0.320509	99
Es	0.619440	-2.424101	-0.209126	99
Es	0.880985	-2.067565	0.906143	99
Es	0.592773	0.328675	0.447682	99
Es	-1.279395	-0.756195	-0.855691	99
Es	-1.027989	-0.766610	-1.557968	99
Es	0.224255	-0.333189	0.098145	99
Es	-0.617288	-0.756658	-0.351130	99
Es	0.368579	0.982384	0.143645	99
Es	0.200773	1.647051	-0.127908	99
Es	-0.145768	-0.780334	0.056811	99
Es	1.584160	-0.028964	1.304658	99
Es	-1.701279	-1.353767	-0.736999	99
Es	0.357137	-2.097675	0.411742	99
Es	1.379566	0.240249	0.771602	99
43
Properties=species:S:1:pos:R:3:Z:I:1 energy=-323.98726430014233 field_type=dipole dipole="0.000000 0.000000 0.000000" charge=0
C	-1.279542	-0.756193	-0.855809	6
N	-0.145952	-0.780333	0.057071	7
C	0.357228	-2.097833	0.411811	6
C	0.592908	0.328767	0.447761	6
O	1.548098	0.258897	1.218801	8
C	0.200818	1.647177	-0.127899	6
C	0.674508	2.784387	0.399001	6
H	-1.889962	0.135637	-0.699969	1
H	-1.912562	-1.631683	-0.684219	1
H	-0.901712	-0.772363	-1.881979	1
H	-0.464312	-2.698753	0.812961	1
H	1.152348	-2.052573	1.160481	1
H	0.750928	-2.573493	-0.491549	1
H	-0.433152	1.683687	-1.001309	1
H	1.335168	2.777607	1.261841	1
H	0.415188	3.747067	-0.026999	1
Es	0.367979	0.982948	0.143810	99
Es	-0.621277	-0.755648	-0.348715	99
Es	1.088955	0.306199	1.152484	99
Es	0.881218	-2.067356	0.906292	99
Es	0.357138	-2.097675	0.411742	99
Es	1.693324	0.546797	1.288863	99
Es	0.165363	2.179402	0.321270	99
Es	0.500324	3.434058	0.113698	99
Es	-0.150654	-0.650421	0.201971	99
Es	-1.685500	-0.149713	-0.753646	99
Es	0.195023	-0.302079	0.168667	99
Es	0.678507	2.159629	-0.064281	99
Es	0.592779	0.328673	0.447674	99
Es	0.200787	1.647049	-0.127917	99
Es	0.674515	2.784474	0.399023	99
Es	-1.702039	-1.354794	-0.737606	99
Es	-0.209649	-2.507701	0.676387	99
Es	1.547865	0.258935	1.218612	99
Es	-1.279395	-0.756194	-0.855697	99
Es	1.379150	0.237580	0.770100	99
Es	-0.145669	-0.780313	0.056703	99
Es	-0.234283	1.657613	-0.718789	99
Es	1.576456	-0.022460	1.297793	99
Es	1.110309	2.795464	0.972154	99
Es	0.078623	-1.339496	0.199809	99
Es	-1.027986	-0.765698	-1.556976	99
Es	0.619307	-2.423787	-0.209268	99
43
Properties=species:S:1:pos:R:3:Z:I:1 energy=-323.98726430014233 field_type=dipole dipole="0.000000 0.000000 0.000000" charge=0
C	-1.279542	-0.756193	-0.855809	6
N	-0.145952	-0.780333	0.057071	7
C	0.357228	-2.097833	0.411811	6
C	0.592908	0.328767	0.447761	6
O	1.548098	0.258897	1.218801	8
C	0.200818	1.647177	-0.127899	6
C	0.674508	2.784387	0.399001	6
H	-1.889962	0.135637	-0.699969	1
H	-1.912562	-1.631683	-0.684219	1
H	-0.901712	-0.772363	-1.881979	1
H	-0.464312	-2.698753	0.812961	1
H	1.152348	-2.052573	1.160481	1
H	0.750928	-2.573493	-0.491549	1
H	-0.433152	1.683687	-1.001309	1
H	1.335168	2.777607	1.261841	1
H	0.415188	3.747067	-0.026999	1
Es	1.695274	0.549237	1.290213	99
Es	1.574736	-0.016313	1.295069	99
Es	-1.702563	-1.355615	-0.738110	99
Es	0.619275	-2.423382	-0.209175	99
Es	1.547860	0.258935	1.218606	99
Es	0.164914	2.179213	0.321568	99
Es	0.357138	-2.097677	0.411741	99
Es	1.374864	0.232935	0.768889	99
Es	-0.625193	-0.755479	-0.345080	99
Es	0.367674	0.983276	0.144104	99
Es	1.092759	0.302523	1.154708	99
Es	0.177914	-0.295016	0.198198	99
Es	-0.127147	-0.657208	0.165696	99
Es	-1.028085	-0.765241	-1.555854	99
Es	1.110716	2.796115	0.972136	99
Es	-1.279397	-0.756195	-0.855693	99
Es	-0.145688	-0.780317	0.056720	99
Es	0.679251	2.159993	-0.064629	99
Es	-1.685018	-0.149993	-0.754337	99
Es	-0.234736	1.657267	-0.718565	99
Es	0.674515	2.784477	0.399023	99
Es	0.076538	-1.339901	0.202961	99
Es	0.200781	1.647050	-0.127914	99
Es	0.881439	-2.067167	0.906353	99
Es	-0.210044	-2.507887	0.676178	99
Es	0.500617	3.433178	0.113672	99
Es	0.592777	0.328673	0.447676	99
43
Properties=species:S:1:pos:R:3:Z:I:1 energy=-323.98726430014233 field_type=dipole dipole="0.000000 0.000000 0.000000" charge=0
C	-1.279542	-0.756193	-0.855809	6
N	-0.145952	-0.780333	0.057071	7
C	0.357228	-2.097833	0.411811	6
C	0.592908	0.328767	0.447761	6
O	1.548098	0.258897	1.218801	8
C	0.200818	1.647177	-0.127899	6
C	0.674508	2.784387	0.399001	6
H	-1.889962	0.135637	-0.699969	1
H	-1.912562	-1.631683	-0.684219	1
H	-0.901712	-0.772363	-1.881979	1
H	-0.464312	-2.698753	0.812961	1
H	1.152348	-2.052573	1.160481	1
H	0.750928	-2.573493	-0.491549	1
H	-0.433152	1.683687	-1.001309	1
H	1.335168	2.777607	1.261841	1
H	0.415188	3.747067	-0.026999	1
Es	-0.210393	-2.508234	0.675997	99
Es	1.090799	0.303625	1.150471	99
Es	0.164832	2.179566	0.321865	99
Es	1.111010	2.796566	0.972073	99
Es	-1.702999	-1.356418	-0.738668	99
Es	0.592780	0.328675	0.447679	99
Es	-1.279398	-0.756196	-0.855691	99
Es	-1.684544	-0.150075	-0.754889	99
Es	0.619078	-2.422847	-0.208915	99
Es	1.698865	0.548450	1.292144	99
Es	-0.109952	-0.659707	0.141397	99
Es	0.074455	-1.340134	0.205666	99
Es	1.379116	0.228828	0.770335	99
Es	-1.028276	-0.764805	-1.554628	99
Es	0.367188	0.983492	0.144655	99
Es	0.200784	1.647049	-0.127916	99
Es	0.500810	3.432591	0.113635	99
Es	-0.145650	-0.780312	0.056686	99
Es	-0.626811	-0.755568	-0.343373	99
Es	0.881854	-2.067071	0.906244	99
Es	0.357137	-2.097675	0.411742	99
Es	1.568643	-0.012253	1.295443	99
Es	-0.235078	1.656965	-0.718349	99
Es	1.547866	0.258926	1.218603	99
Es	0.164658	-0.292195	0.217970	99
Es	0.679883	2.159761	-0.065050	99
Es	0.674514	2.784476	0.399024	99
43
Properties=species:S:1:pos:R:3:Z:I:1 energy=-323.98726430014233 field_type=dipole dipole="0.000000 0.000000 0.000000" charge=0
C	-1.279542	-0.756193	-0.855809	6
N	-0.145952	-0.780333	0.057071	7
C	0.357228	-2.097833	0.411811	6
C	0.592908	0.328767	0.447761	6
O	1.548098	0.258897	1.218801	8
C	0.200818	1.647177	-0.127899	6
C	0.674508	2.784387	0.399001	6
H	-1.889962	0.135637	-0.699969	1
H	-1.912562	-1.631683	-0.684219	1
H	-0.901712	-0.772363	-1.881979	1
H	-0.464312	-2.698753	0.812961	1
H	1.152348	-2.052573	1.160481	1
H	0.750928	-2.573493	-0.491549	1
H	-0.433152	1.683687	-1.001309	1
H	1.335168	2.777607	1.261841	1
H	0.415188	3.747067	-0.026999	1
Es	-0.103426	-0.660347	0.133030	99
Es	0.200783	1.647047	-0.127916	99
Es	0.367342	0.983541	0.144773	99
Es	1.095476	0.299847	1.154896	99
Es	0.592777	0.328672	0.447675	99
Es	0.618897	-2.422586	-0.208698	99
Es	-1.684234	-0.150170	-0.755520	99
Es	0.500952	3.432267	0.113549	99
Es	1.547881	0.258913	1.218611	99
Es	-1.279396	-0.756194	-0.855691	99
Es	-1.703270	-1.357150	-0.739525	99
Es	1.111235	2.796786	0.972054	99
Es	-1.028506	-0.764400	-1.553193	99
Es	0.882154	-2.066936	0.906242	99
Es	0.159964	-0.291533	0.224386	99
Es	-0.628013	-0.755350	-0.341590	99
Es	0.074154	-1.340259	0.205587	99
Es	-0.235402	1.656872	-0.718183	99
Es	0.674517	2.784477	0.399021	99
Es	0.680039	2.160465	-0.064845	99
Es	1.569376	-0.006779	1.292443	99
Es	-0.145781	-0.780340	0.056823	99
Es	1.699183	0.550369	1.292432	99
Es	0.357138	-2.097674	0.411742	99
Es	1.372969	0.225339	0.768448	99
Es	0.164824	2.179031	0.321744	99
Es	-0.210462	-2.508424	0.675855	99
43
Properties=species:S:1:pos:R:3:Z:I:1 energy=-323.98726430014233 field_type=dipole dipole="0.000000 0.000000 0.000000" charge=0
C	-1.279542	-0.756193	-0.855809	6
N	-0.145952	-0.780333	0.057071	7
C	0.357228	-2.097833	0.411811	6
C	0.592908	0.328767	0.447761	6
O	1.548098	0.258897	1.218801	8
C	0.200818	1.647177	-0.127899	6
C	0.674508	2.784387	0.399001	6
H	-1.889962	0.135637	-0.699969	1
H	-1.912562	-1.631683	-0.684219	1
H	-0.901712	-0.772363	-1.881979	1
H	-0.464312	-2.698753	0.812961	1
H	1.152348	-2.052573	1.160481	1
H	0.750928	-2.573493	-0.491549	1
H	-0.433152	1.683687	-1.001309	1
H	1.335168	2.777607	1.261841	1
H	0.415188	3.747067	-0.026999	1
Es	0.674516	2.784477	0.399023	99
Es	0.592777	0.328674	0.447675	99
Es	-0.628580	-0.755634	-0.340905	99
Es	-1.703250	-1.357956	-0.740571	99
Es	0.164674	2.178440	0.321710	99
Es	-1.279397	-0.756195	-0.855690	99
Es	0.155346	-0.291160	0.230714	99
Es	-0.210757	-2.508656	0.675533	99
Es	0.073700	-1.340082	0.206162	99
Es	-1.684131	-0.150133	-0.755724	99
Es	-0.097288	-0.660697	0.125069	99
Es	-0.235483	1.656636	-0.718236	99
Es	1.547870	0.258922	1.218614	99
Es	0.618824	-2.422149	-0.208454	99
Es	0.882365	-2.067000	0.906266	99
Es	1.095877	0.298775	1.152954	99
Es	0.367315	0.983720	0.145075	99
Es	1.567347	-0.003645	1.292666	99
Es	-0.146002	-0.780341	0.057116	99
Es	-1.028752	-0.763797	-1.551828	99
Es	0.501010	3.431889	0.113462	99
Es	1.374479	0.222458	0.768696	99
Es	0.680203	2.161142	-0.064515	99
Es	1.699091	0.551299	1.293573	99
Es	1.111499	2.797124	0.971941	99
Es	0.200781	1.647048	-0.127914	99
Es	0.357137	-2.097676	0.411742	99
43
Properties=species:S:1:pos:R:3:Z:I:1 energy=-323.98726430014233 field_type=dipole dipole="0.000000 0.000000 0.000000" charge=0
C	-1.279542	-0.756193	-0.855809	6
N	-0.145952	-0.780333	0.057071	7
C	0.357228	-2.097833	0.411811	6
C	0.592908	0.328767	0.447761	6
O	1.548098	0.258897	1.218801	8
C	0.200818	1.647177	-0.127899	6
C	0.674508	2.784387	0.399001	6
H	-1.889962	0.135637	-0.699969	1
H	-1.912562	-1.631683	-0.684219	1
H	-0.901712	-0.772363	-1.881979	1
H	-0.464312	-2.698753	0.812961	1
H	1.152348	-2.052573	1.160481	1
H	0.750928	-2.573493	-0.491549	1
H	-0.433152	1.683687	-1.001309	1
H	1.335168	2.777607	1.261841	1
H	0.415188	3.747067	-0.026999	1
Es	-1.703383	-1.358408	-0.741144	99
Es	-1.028993	-0.763769	-1.550600	99
Es	0.073937	-1.339805	0.205691	99
Es	1.370433	0.219821	0.767321	99
Es	0.164885	2.178948	0.322007	99
Es	0.367307	0.983689	0.145216	99
Es	-0.235706	1.656563	-0.718053	99
Es	0.674514	2.784476	0.399024	99
Es	-0.210921	-2.508945	0.675187	99
Es	0.501000	3.431711	0.113459	99
Es	-0.098112	-0.660740	0.126195	99
Es	1.100562	0.298423	1.154136	99
Es	1.565176	-0.000581	1.291326	99
Es	0.680332	2.160695	-0.064826	99
Es	-1.683894	-0.149972	-0.756316	99
Es	-0.145947	-0.780345	0.057033	99
Es	0.357138	-2.097676	0.411742	99
Es	1.700462	0.551292	1.294844	99
Es	1.547860	0.258955	1.218600	99
Es	-0.628212	-0.755742	-0.341104	99
Es	0.200783	1.647047	-0.127916	99
Es	0.618825	-2.421768	-0.208135	99
Es	1.111549	2.797309	0.971922	99
Es	0.882493	-2.067092	0.906292	99
Es	-1.279397	-0.756195	-0.855692	99
Es	0.592770	0.328673	0.447683	99
Es	0.155709	-0.291081	0.230261	99
43
Properties=species:S:1:pos:R:3:Z:I:1 energy=-323.98726430014233 field_type=dipole dipole="0.000000 0.000000 0.000000" charge=0
C	-1.279542	-0.756193	-0.855809	6
N	-0.145952	-0.780333	0.057071	7
C	0.357228	-2.097833	0.411811	6
C	0.592908	0.328767	0.447761	6
O	1.548098	0.258897	1.218801	8
C	0.200818	1.647177	-0.127899	6
C	0.674508	2.784387	0.399001	6
H	-1.889962	0.135637	-0.699969	1
H	-1.912562	-1.631683	-0.684219	1
H	-0.901712	-0.772363	-1.881979	1
H	-0.464312	-2.698753	0.812961	1
H	1.152348	-2.052573	1.160481	1
H	0.750928	-2.573493	-0.491549	1
H	-0.433152	1.683687	-1.001309	1
H	1.335168	2.777607	1.261841	1
H	0.415188	3.747067	-0.026999	1
Es	1.547818	0.258964	1.218579	99
Es	1.366232	0.216657	0.766850	99
Es	0.680534	2.160688	-0.064975	99
Es	-0.093825	-0.660851	0.120754	99
Es	-0.145818	-0.780342	0.056867	99
Es	0.164980	2.179022	0.322065	99
Es	-0.235906	1.656450	-0.717949	99
Es	1.700789	0.552366	1.293320	99
Es	0.152788	-0.290919	0.234194	99
Es	0.674518	2.784476	0.399022	99
Es	-1.029267	-0.763456	-1.549271	99
Es	0.618734	-2.421625	-0.208001	99
Es	-1.279400	-0.756195	-0.855692	99
Es	1.565665	0.002592	1.290744	99
Es	0.501042	3.431433	0.113484	99
Es	-0.211038	-2.509029	0.675129	99
Es	-0.628804	-0.755756	-0.340247	99
Es	-1.683694	-0.149912	-0.756708	99
Es	0.357137	-2.097678	0.411741	99
Es	0.592776	0.328671	0.447676	99
Es	1.111639	2.797521	0.971935	99
Es	0.882637	-2.067051	0.906253	99
Es	0.073243	-1.339811	0.206348	99
Es	0.367343	0.983811	0.145308	99
Es	1.103682	0.297404	1.156634	99
Es	-1.703414	-1.358994	-0.741996	99
Es	0.200780	1.647046	-0.127912	99
43
Properties=species:S:1:pos:R:3:Z:I:1 energy=-323.98726430014233 field_type=dipole dipole="0.000000 0.000000 0.000000" charge=0
C	-1.279542	-0.756193	-0.855809	6
N	-0.145952	-0.780333	0.057071	7
C	0.357228	-2.097833	0.411811	6
C	0.592908	0.328767	0.447761	6
O	1.548098	0.258897	1.218801	8
C	0.200818	1.647177	-0.127899	6
C	0.674508	2.784387	0.399001	6
H	-1.889962	0.135637	-0.699969	1
H	-1.912562	-1.631683	-0.684219	1
H	-0.901712	-0.772363	-1.881979	1
H	-0.464312	-2.698753	0.812961	1
H	1.152348	-2.052573	1.160481	1
H	0.750928	-2.573493	-0.491549	1
H	-0.433152	1.683687	-1.001309	1
H	1.335168	2.777607	1.261841	1
H	0.415188	3.747067	-0.026999	1
Es	0.501017	3.431360	0.113437	99
Es	1.700220	0.553186	1.294027	99
Es	0.882837	-2.067072	0.906272	99
Es	-1.703322	-1.359449	-0.742789	99
Es	1.364553	0.213432	0.765890	99
Es	0.618738	-2.421100	-0.207605	99
Es	0.165078	2.178863	0.322044	99
Es	0.200784	1.647047	-0.127915	99
Es	-0.211233	-2.509467	0.674707	99
Es	0.592776	0.328673	0.447677	99
Es	0.680625	2.160861	-0.064856	99
Es	0.357137	-2.097677	0.411742	99
Es	-0.092301	-0.660926	0.118904	99
Es	1.547842	0.258950	1.218592	99
Es	0.073232	-1.339778	0.206210	99
Es	1.106589	0.296237	1.157157	99
Es	-1.279405	-0.756195	-0.855691	99
Es	-0.629127	-0.755744	-0.339727	99
Es	0.151772	-0.290870	0.235540	99
Es	0.367305	0.983733	0.145452	99
Es	0.674517	2.784477	0.399022	99
Es	-1.683618	-0.149843	-0.757013	99
Es	1.111695	2.797623	0.971902	99
Es	-1.029514	-0.763225	-1.548125	99
Es	-0.145872	-0.780346	0.056933	99
Es	-0.235966	1.656426	-0.717895	99
Es	1.564814	0.006306	1.290260	99
43
Properties=species:S:1:pos:R:3:Z:I:1 energy=-323.98726430014233 field_type=dipole dipole="0.000000 0.000000 0.000000" charge=0
C	-1.279542	-0.756193	-0.855809	6
N	-0.145952	-0.780333	0.057071	7
C	0.357228	-2.097833	0.411811	6
C	0.592908	0.328767	0.447761	6
O	1.548098	0.258897	1.218801	8
C	0.200818	1.647177	-0.127899	6
C	0.674508	2.784387	0.399001	6
H	-1.889962	0.135637	-0.699969	1
H	-1.912562	-1.631683	-0.684219	1
H	-0.901712	-0.772363	-1.881979	1
H	-0.464312	-2.698753	0.812961	1
H	1.152348	-2.052573	1.160481	1
H	0.750928	-2.573493	-0.491549	1
H	-0.433152	1.683687	-1.001309	1
H	1.335168	2.777607	1.261841	1
H	0.415188	3.747067	-0.026999	1
Es	-1.703254	-1.359930	-0.743640	99
Es	1.547856	0.258931	1.218606	99
Es	1.700774	0.553447	1.293703	99
Es	0.357137	-2.097673	0.411740	99
Es	0.073318	-1.339697	0.206036	99
Es	-1.029814	-0.763022	-1.546834	99
Es	0.680485	2.161030	-0.064696	99
Es	0.165219	2.178761	0.322027	99
Es	0.150452	-0.290781	0.237176	99
Es	0.883026	-2.067109	0.906234	99
Es	-1.279399	-0.756195	-0.855691	99
Es	0.501011	3.431170	0.113292	99
Es	0.200781	1.647048	-0.127915	99
Es	1.367152	0.209027	0.766472	99
Es	1.106133	0.297037	1.155096	99
Es	1.561918	0.009638	1.291925	99
Es	0.618579	-2.420974	-0.207431	99
Es	1.111905	2.797781	0.971889	99
Es	0.592779	0.328672	0.447674	99
Es	-0.628868	-0.755663	-0.339869	99
Es	-0.236109	1.656323	-0.717852	99
Es	0.367391	0.983899	0.145525	99
Es	-0.145975	-0.780342	0.057071	99
Es	-0.091101	-0.661005	0.117415	99
Es	-0.211254	-2.509539	0.674621	99
Es	-1.683488	-0.149827	-0.757443	99
Es	0.674517	2.784477	0.399023	99
43
Properties=species:S:1:pos:R:3:Z:I:1 energy=-323.98726430014233 field_type=dipole dipole="0.000000 0.000000 0.000000" charge=0
C	-1.279542	-0.756193	-0.855809	6
N	-0.145952	-0.780333	0.057071	7
C	0.357228	-2.097833	0.411811	6
C	0.592908	0.328767	0.447761	6
O	1.548098	0.258897	1.218801	8
C	0.200818	1.647177	-0.127899	6
C	0.674508	2.784387	0.399001	6
H	-1.889962	0.135637	-0.699969	1
H	-1.912562	-1.631683	-0.684219	1
H	-0.901712	-0.772363	-1.881979	1
H	-0.464312	-2.698753	0.812961	1
H	1.152348	-2.052573	1.160481	1
H	0.750928	-2.573493	-0.491549	1
H	-0.433152	1.683687	-1.001309	1
H	1.335168	2.777607	1.261841	1
H	0.415188	3.747067	-0.026999	1
Es	-0.236270	1.656297	-0.717703	99
Es	0.674516	2.784477	0.399022	99
Es	-1.703240	-1.360112	-0.743964	99
Es	-1.683401	-0.149600	-0.757658	99
Es	0.680639	2.160776	-0.064951	99
Es	0.200782	1.647048	-0.127916	99
Es	1.111398	0.295496	1.157501	99
Es	1.699982	0.554632	1.293409	99
Es	0.165340	2.179038	0.322152	99
Es	1.547858	0.258935	1.218605	99
Es	0.883144	-2.067129	0.906194	99
Es	0.357137	-2.097676	0.411742	99
Es	1.111950	2.797888	0.971879	99
Es	-0.090574	-0.661053	0.116816	99
Es	0.618630	-2.420530	-0.207065	99
Es	1.563038	0.011959	1.290524	99
Es	0.073287	-1.339667	0.205729	99
Es	0.501023	3.431030	0.113331	99
Es	1.361461	0.207066	0.765630	99
Es	-1.029890	-0.763031	-1.546237	99
Es	0.150183	-0.290767	0.237660	99
Es	-0.145801	-0.780343	0.056845	99
Es	-0.629261	-0.755729	-0.339299	99
Es	-1.279400	-0.756195	-0.855691	99
Es	0.367342	0.983930	0.145630	99
Es	-0.211476	-2.509931	0.674292	99
Es	0.592773	0.328676	0.447675	99
43
Properties=species:S:1:pos:R:3:Z:I:1 energy=-323.98726430014233 field_type=dipole dipole="0.000000 0.000000 0.000000" charge=0
C	-1.279542	-0.756193	-0.855809	6
N	-0.145952	-0.780333	0.057071	7
C	0.357228	-2.097833	0.411811	6
C	0.592908	0.328767	0.447761	6
O	1.548098	0.258897	1.218801	8
C	0.200818	1.647177	-0.127899	6
C	0.674508	2.784387	0.399001	6
H	-1.889962	0.135637	-0.699969	1
H	-1.912562	-1.631683	-0.684219	1
H	-0.901712	-0.772363	-1.881979	1
H	-0.464312	-2.698753	0.812961	1
H	1.152348	-2.052573	1.160481	1
H	0.750928	-2.573493	-0.491549	1
H	-0.433152	1.683687	-1.001309	1
H	1.335168	2.777607	1.261841	1
H	0.415188	3.747067	-0.026999	1
Es	0.592775	0.328674	0.447679	99
Es	1.699505	0.555410	1.292912	99
Es	-0.091421	-0.660956	0.117853	99
Es	0.151377	-0.290784	0.236105	99
Es	1.547853	0.258941	1.218587	99
Es	1.111908	2.798138	0.971899	99
Es	0.500939	3.430814	0.113407	99
Es	-1.030259	-0.762715	-1.545014	99
Es	-1.683410	-0.149566	-0.757829	99
Es	1.356951	0.206340	0.765300	99
Es	0.674517	2.784477	0.399022	99
Es	0.072803	-1.339513	0.206578	99
Es	0.357137	-2.097677	0.411742	99
Es	0.618591	-2.420777	-0.207261	99
Es	-0.145790	-0.780339	0.056832	99
Es	-0.236261	1.656172	-0.717743	99
Es	0.367450	0.983963	0.145631	99
Es	0.200781	1.647048	-0.127915	99
Es	-1.279402	-0.756194	-0.855692	99
Es	-0.211359	-2.509685	0.674408	99
Es	-1.703008	-1.360550	-0.744944	99
Es	1.114286	0.293496	1.160391	99
Es	0.680780	2.160935	-0.064945	99
Es	0.883074	-2.067138	0.906265	99
Es	-0.628915	-0.755939	-0.339702	99
Es	0.165314	2.178899	0.322267	99
Es	1.564953	0.014011	1.288319	99
43
Properties=species:S:1:pos:R:3:Z:I:1 energy=-323.98726430014233 field_type=dipole dipole="0.000000 0.000000 0.000000" charge=0
C	-1.279542	-0.756193	-0.855809	6
N	-0.145952	-0.780333	0.057071	7
C	0.357228	-2.097833	0.411811	6
C	0.592908	0.328767	0.447761	6
O	1.548098	0.258897	1.218801	8
C	0.200818	1.647177	-0.127899	6
C	0.674508	2.784387	0.399001	6
H	-1.889962	0.135637	-0.699969	1
H	-1.912562	-1.631683	-0.684219	1
H	-0.901712	-0.772363	-1.881979	1
H	-0.464312	-2.698753	0.812961	1
H	1.152348	-2.052573	1.160481	1
H	0.750928	-2.573493	-0.491549	1
H	-0.433152	1.683687	-1.001309	1
H	1.335168	2.777607	1.261841	1
H	0.415188	3.747067	-0.026999	1
Es	0.150165	-0.290709	0.237539	99
Es	0.680787	2.161186	-0.064781	99
Es	-0.090082	-0.661056	0.116237	99
Es	-1.683444	-0.149484	-0.757916	99
Es	1.117361	0.296927	1.158193	99
Es	0.883140	-2.067195	0.906279	99
Es	1.700726	0.555492	1.291088	99
Es	-1.279399	-0.756196	-0.855691	99
Es	0.165323	2.178619	0.322163	99
Es	-0.629366	-0.755902	-0.339083	99
Es	-0.236307	1.656303	-0.717680	99
Es	-1.702865	-1.360758	-0.745341	99
Es	0.674519	2.784476	0.399021	99
Es	0.592776	0.328672	0.447676	99
Es	0.073232	-1.339471	0.206017	99
Es	0.501002	3.430924	0.113364	99
Es	1.560449	0.018152	1.292078	99
Es	-0.211560	-2.510136	0.673983	99
Es	1.547872	0.258929	1.218613	99
Es	-0.145823	-0.780344	0.056874	99
Es	0.618709	-2.420274	-0.206850	99
Es	0.367386	0.983927	0.145636	99
Es	0.357138	-2.097676	0.411743	99
Es	1.357093	0.198643	0.765567	99
Es	-1.030460	-0.762629	-1.544438	99
Es	0.200781	1.647049	-0.127916	99
Es	1.112021	2.798014	0.971778	99
43
Properties=species:S:1:pos:R:3:Z:I:1 energy=-323.98726430014233 field_type=dipole dipole="0.000000 0.000000 0.000000" charge=0
C	-1.279542	-0.756193	-0.855809	6
N	-0.145952	-0.780333	0.057071	7
C	0.357228	-2.097833	0.411811	6
C	0.592908	0.328767	0.447761	6
O	1.548098	0.258897	1.218801	8
C	0.200818	1.647177	-0.127899	6
C	0.674508	2.784387	0.399001	6
H	-1.889962	0.135637	-0.699969	1
H	-1.912562	-1.631683	-0.684219	1
H	-0.901712	-0.772363	-1.881979	1
H	-0.464312	-2.698753	0.812961	1
H	1.152348	-2.052573	1.160481	1
H	0.750928	-2.573493	-0.491549	1
H	-0.433152	1.683687	-1.001309	1
H	1.335168	2.777607	1.261841	1
H	0.415188	3.747067	-0.026999	1
Es	-1.030638	-0.762468	-1.543725	99
Es	-0.145830	-0.780343	0.056880	99
Es	-0.089922	-0.661134	0.116115	99
Es	0.674517	2.784477	0.399023	99
Es	-0.211655	-2.510306	0.673916	99
Es	0.200780	1.647048	-0.127914	99
Es	1.116694	0.296252	1.156639	99
Es	0.357139	-2.097678	0.411743	99
Es	0.367423	0.983975	0.145788	99
Es	0.165442	2.178550	0.322246	99
Es	0.073426	-1.339389	0.205600	99
Es	0.618647	-2.420069	-0.206721	99
Es	1.547944	0.258848	1.218696	99
Es	-1.702857	-1.361019	-0.745806	99
Es	-1.279402	-0.756197	-0.855709	99
Es	0.500940	3.430609	0.113264	99
Es	1.559953	0.016129	1.290682	99
Es	-0.236426	1.656117	-0.717626	99
Es	0.592776	0.328672	0.447676	99
Es	-0.629036	-0.755857	-0.339315	99
Es	0.680886	2.161266	-0.064714	99
Es	1.700555	0.554952	1.293850	99
Es	0.149576	-0.290664	0.238335	99
Es	1.112091	2.798365	0.971812	99
Es	1.358164	0.202138	0.765370	99
Es	-1.683281	-0.149643	-0.758125	99
Es	0.883265	-2.067149	0.906175	99
43
Properties=species:S:1:pos:R:3:Z:I:1 energy=-323.98726430014233 field_type=dipole dipole="0.000000 0.000000 0.000000" charge=0
C	-1.279542	-0.756193	-0.855809	6
N	-0.145952	-0.780333	0.057071	7
C	0.357228	-2.097833	0.411811	6
C	0.592908	0.328767	0.447761	6
O	1.548098	0.258897	1.218801	8
C	0.200818	1.647177	-0.127899	6
C	0.674508	2.784387	0.399001	6
H	-1.889962	0.135637	-0.699969	1
H	-1.912562	-1.631683	-0.684219	1
H	-0.901712	-0.772363	-1.881979	1
H	-0.464312	-2.698753	0.812961	1
H	1.152348	-2.052573	1.160481	1
H	0.750928	-2.573493	-0.491549	1
H	-0.433152	1.683687	-1.001309	1
H	1.335168	2.777607	1.261841	1
H	0.415188	3.747067	-0.026999	1
Es	0.618647	-2.420067	-0.206735	99
Es	1.701783	0.555273	1.291184	99
Es	-0.145872	-0.780346	0.056932	99
Es	1.547892	0.258917	1.218634	99
Es	0.501034	3.430874	0.113278	99
Es	-1.279401	-0.756196	-0.855691	99
Es	1.122851	0.297363	1.158930	99
Es	0.592777	0.328672	0.447675	99
Es	-0.236545	1.656213	-0.717476	99
Es	1.112012	2.798142	0.971703	99
Es	0.883265	-2.067154	0.906061	99
Es	-0.088613	-0.661147	0.114477	99
Es	0.148900	-0.290696	0.239237	99
Es	0.367327	0.983950	0.145841	99
Es	-1.683197	-0.149484	-0.758350	99
Es	-0.211648	-2.510348	0.674022	99
Es	1.351583	0.195752	0.765596	99
Es	-1.702883	-1.361080	-0.745971	99
Es	0.200780	1.647047	-0.127914	99
Es	-0.629592	-0.755612	-0.338583	99
Es	-1.030735	-0.762557	-1.543331	99
Es	0.681026	2.160871	-0.064945	99
Es	0.674517	2.784478	0.399020	99
Es	0.357134	-2.097674	0.411739	99
Es	0.073395	-1.339540	0.205581	99
Es	0.165590	2.178893	0.322248	99
Es	1.559141	0.020938	1.290991	99
43
Properties=species:S:1:pos:R:3:Z:I:1 energy=-323.98726430014233 field_type=dipole dipole="0.000000 0.000000 0.000000" charge=0
C	-1.279542	-0.756193	-0.855809	6
N	-0.145952	-0.780333	0.057071	7
C	0.357228	-2.097833	0.411811	6
C	0.592908	0.328767	0.447761	6
O	1.548098	0.258897	1.218801	8
C	0.200818	1.647177	-0.127899	6
C	0.674508	2.784387	0.399001	6
H	-1.889962	0.135637	-0.699969	1
H	-1.912562	-1.631683	-0.684219	1
H	-0.901712	-0.772363	-1.881979	1
H	-0.464312	-2.698753	0.812961	1
H	1.152348	-2.052573	1.160481	1
H	0.750928	-2.573493	-0.491549	1
H	-0.433152	1.683687	-1.001309	1
H	1.335168	2.777607	1.261841	1
H	0.415188	3.747067	-0.026999	1
Es	0.680926	2.161405	-0.064638	99
Es	1.112084	2.798333	0.971774	99
Es	-0.236403	1.656164	-0.717603	99
Es	0.592776	0.328672	0.447676	99
Es	1.124047	0.294856	1.161288	99
Es	-1.702732	-1.361284	-0.746433	99
Es	0.165389	2.178458	0.322197	99
Es	-0.088979	-0.661063	0.114892	99
Es	1.348895	0.195295	0.765871	99
Es	-0.145873	-0.780346	0.056935	99
Es	0.357137	-2.097675	0.411742	99
Es	0.883255	-2.067281	0.906125	99
Es	-1.683214	-0.149302	-0.758420	99
Es	0.149433	-0.290641	0.238548	99
Es	1.547803	0.258889	1.218572	99
Es	1.561364	0.023076	1.288546	99
Es	0.618623	-2.420060	-0.206681	99
Es	0.501008	3.430629	0.113276	99
Es	1.701108	0.556004	1.290916	99
Es	0.367411	0.984109	0.145807	99
Es	-0.629088	-0.755887	-0.339170	99
Es	0.072820	-1.339421	0.206353	99
Es	-1.030859	-0.762466	-1.542739	99
Es	-1.279400	-0.756195	-0.855692	99
Es	0.674516	2.784477	0.399024	99
Es	0.200781	1.647048	-0.127914	99
Es	-0.211659	-2.510311	0.673903	99
