43
Properties=species:S:1:pos:R:3:Z:I:1 energy=-324.0060863206764 field_type=dipole dipole="0.000000 0.000000 0.000000" charge=0
C	-2.155619	1.356349	0.814848	6
N	-0.808929	0.995419	0.459768	7
C	-0.546289	-0.178311	-0.201982	6
O	-1.409839	-0.977031	-0.545782	8
C	0.905781	-0.475621	-0.406692	6
C	1.270691	-1.929651	-0.385332	6
C	1.799621	0.496909	-0.652082	6
H	-2.162949	2.395029	1.152898	1
H	-2.498939	0.700239	1.619068	1
H	-2.812189	1.241529	-0.052392	1
H	-0.043179	1.500769	0.885698	1
H	0.747671	-2.470731	-1.180512	1
H	1.001351	-2.376521	0.577118	1
H	2.344991	-2.082671	-0.533202	1
H	1.520821	1.542549	-0.725922	1
H	2.847001	0.261739	-0.825502	1
Es	-1.107408	-0.831298	-0.212038	99
Es	-2.392334	0.914340	1.364493	99
Es	-0.546262	-0.178160	-0.201926	99
Es	1.270689	-1.929579	-0.385321	99
Es	1.085506	-1.190513	-0.391876	99
Es	0.905675	-0.475688	-0.406662	99
Es	1.799675	0.496982	-0.652101	99
Es	-1.697713	-0.876630	-0.473135	99
Es	-0.358785	1.286610	0.726444	99
Es	-0.808914	0.995057	0.460056	99
Es	-1.409716	-0.976856	-0.545704	99
Es	0.190566	-0.313854	-0.296187	99
Es	-1.378597	1.141423	0.620995	99
Es	-0.709051	0.469748	0.379268	99
Es	-2.595626	1.285690	0.232644	99
Es	1.276635	-0.006176	-0.836379	99
Es	2.508467	0.342117	-0.769324	99
Es	-1.285832	-1.221553	-0.691504	99
Es	-2.153334	2.064038	1.047337	99
Es	2.004111	-2.021347	-0.484623	99
Es	-0.750242	0.956621	0.111667	99
Es	-1.131345	-0.586146	-0.643775	99
Es	-2.155419	1.356325	0.814813	99
Es	1.613073	1.206298	-0.695043	99
Es	1.087040	-2.218604	0.265520	99
Es	1.405585	0.056971	-0.199490	99
Es	0.923054	-2.278046	-0.916565	99
43
Properties=species:S:1:pos:R:3:Z:I:1 energy=-324.0060863206764 field_type=dipole dipole="0.000000 0.000000 0.000000" charge=0
C	-2.155619	1.356349	0.814848	6
N	-0.808929	0.995419	0.459768	7
C	-0.546289	-0.178311	-0.201982	6
O	-1.409839	-0.977031	-0.545782	8
C	0.905781	-0.475621	-0.406692	6
C	1.270691	-1.929651	-0.385332	6
C	1.799621	0.496909	-0.652082	6
H	-2.162949	2.395029	1.152898	1
H	-2.498939	0.700239	1.619068	1
H	-2.812189	1.241529	-0.052392	1
H	-0.043179	1.500769	0.885698	1
H	0.747671	-2.470731	-1.180512	1
H	1.001351	-2.376521	0.577118	1
H	2.344991	-2.082671	-0.533202	1
H	1.520821	1.542549	-0.725922	1
H	2.847001	0.261739	-0.825502	1
Es	-0.761869	0.960153	0.147003	99
Es	1.614423	1.206511	-0.691984	99
Es	1.084915	-1.190582	-0.392624	99
Es	-2.153224	2.065726	1.047849	99
Es	-0.808900	0.994958	0.460094	99
Es	-1.377495	1.134716	0.626192	99
Es	0.190959	-0.313521	-0.298427	99
Es	-0.546262	-0.178161	-0.201925	99
Es	1.406614	0.056699	-0.198068	99
Es	-1.109874	-0.832207	-0.218721	99
Es	0.905672	-0.475692	-0.406671	99
Es	-0.704029	0.459559	0.350202	99
Es	1.270689	-1.929577	-0.385321	99
Es	-2.155424	1.356322	0.814814	99
Es	2.003365	-2.020759	-0.483559	99
Es	-1.128842	-0.581366	-0.648717	99
Es	-2.392412	0.913003	1.363677	99
Es	-2.594231	1.285141	0.232717	99
Es	-1.686733	-0.870154	-0.463000	99
Es	0.921737	-2.279949	-0.917768	99
Es	-0.353492	1.299898	0.714730	99
Es	2.507697	0.342832	-0.767249	99
Es	1.088322	-2.217055	0.264865	99
Es	-1.297830	-1.232826	-0.688655	99
Es	-1.409598	-0.976784	-0.545677	99
Es	1.799674	0.496981	-0.652105	99
Es	1.275647	-0.006094	-0.840086	99
43
Properties=species:S:1:pos:R:3:Z:I:1 energy=-324.0060863206764 field_type=dipole dipole="0.000000 0.000000 0.000000" charge=0
C	-2.155619	1.356349	0.814848	6
N	-0.808929	0.995419	0.459768	7
C	-0.546289	-0.178311	-0.201982	6
O	-1.409839	-0.977031	-0.545782	8
C	0.905781	-0.475621	-0.406692	6
C	1.270691	-1.929651	-0.385332	6
C	1.799621	0.496909	-0.652082	6
H	-2.162949	2.395029	1.152898	1
H	-2.498939	0.700239	1.619068	1
H	-2.812189	1.241529	-0.052392	1
H	-0.043179	1.500769	0.885698	1
H	0.747671	-2.470731	-1.180512	1
H	1.001351	-2.376521	0.577118	1
H	2.344991	-2.082671	-0.533202	1
H	1.520821	1.542549	-0.725922	1
H	2.847001	0.261739	-0.825502	1
Es	1.799679	0.496985	-0.652093	99
Es	2.507387	0.343405	-0.766048	99
Es	0.920485	-2.281083	-0.918322	99
Es	-0.546263	-0.178159	-0.201928	99
Es	-2.593379	1.284905	0.232482	99
Es	-0.701348	0.455567	0.326204	99
Es	-0.768966	0.962930	0.173736	99
Es	0.905672	-0.475694	-0.406672	99
Es	1.615053	1.206157	-0.690719	99
Es	2.003288	-2.020270	-0.483007	99
Es	-1.312010	-1.239257	-0.690014	99
Es	-2.392470	0.912188	1.363635	99
Es	1.089122	-2.215669	0.264353	99
Es	-0.351137	1.307031	0.706373	99
Es	-1.675588	-0.862722	-0.455281	99
Es	1.406945	0.056801	-0.196942	99
Es	-0.808924	0.995127	0.460018	99
Es	-2.155425	1.356323	0.814812	99
Es	-1.122992	-0.576351	-0.647279	99
Es	-1.409689	-0.976668	-0.545595	99
Es	1.275511	-0.006099	-0.842506	99
Es	1.270688	-1.929577	-0.385321	99
Es	-1.375807	1.128351	0.631789	99
Es	-1.113306	-0.838712	-0.225612	99
Es	-2.152751	2.066428	1.047807	99
Es	0.191112	-0.313387	-0.299746	99
Es	1.084612	-1.190781	-0.392539	99
43
Properties=species:S:1:pos:R:3:Z:I:1 energy=-324.0060863206764 field_type=dipole dipole="0.000000 0.000000 0.000000" charge=0
C	-2.155619	1.356349	0.814848	6
N	-0.808929	0.995419	0.459768	7
C	-0.546289	-0.178311	-0.201982	6
O	-1.409839	-0.977031	-0.545782	8
C	0.905781	-0.475621	-0.406692	6
C	1.270691	-1.929651	-0.385332	6
C	1.799621	0.496909	-0.652082	6
H	-2.162949	2.395029	1.152898	1
H	-2.498939	0.700239	1.619068	1
H	-2.812189	1.241529	-0.052392	1
H	-0.043179	1.500769	0.885698	1
H	0.747671	-2.470731	-1.180512	1
H	1.001351	-2.376521	0.577118	1
H	2.344991	-2.082671	-0.533202	1
H	1.520821	1.542549	-0.725922	1
H	2.847001	0.261739	-0.825502	1
Es	-1.630798	-0.835890	-0.449449	99
Es	-0.700281	0.456247	0.320298	99
Es	1.275522	-0.005935	-0.843302	99
Es	0.905675	-0.475691	-0.406667	99
Es	-2.155422	1.356322	0.814812	99
Es	1.799679	0.496984	-0.652096	99
Es	1.084177	-1.191118	-0.392421	99
Es	-1.110479	-0.580028	-0.647972	99
Es	-0.808913	0.994997	0.460102	99
Es	-2.592740	1.285061	0.232675	99
Es	-2.152644	2.066660	1.047589	99
Es	1.614977	1.205329	-0.689934	99
Es	-1.117386	-0.843248	-0.231256	99
Es	2.508109	0.343827	-0.765551	99
Es	-0.546262	-0.178160	-0.201926	99
Es	-1.366090	-1.257669	-0.688736	99
Es	0.190620	-0.313464	-0.300313	99
Es	0.919534	-2.281573	-0.918238	99
Es	-1.375641	1.125138	0.634215	99
Es	2.004329	-2.019570	-0.482800	99
Es	-2.392909	0.911714	1.363632	99
Es	1.089347	-2.214618	0.263707	99
Es	-0.350061	1.311943	0.698753	99
Es	-1.409388	-0.976874	-0.545740	99
Es	1.270687	-1.929580	-0.385318	99
Es	-0.771174	0.960088	0.184469	99
Es	1.407028	0.056878	-0.196949	99
43
Properties=species:S:1:pos:R:3:Z:I:1 energy=-324.0060863206764 field_type=dipole dipole="0.000000 0.000000 0.000000" charge=0
C	-2.155619	1.356349	0.814848	6
N	-0.808929	0.995419	0.459768	7
C	-0.546289	-0.178311	-0.201982	6
O	-1.409839	-0.977031	-0.545782	8
C	0.905781	-0.475621	-0.406692	6
C	1.270691	-1.929651	-0.385332	6
C	1.799621	0.496909	-0.652082	6
H	-2.162949	2.395029	1.152898	1
H	-2.498939	0.700239	1.619068	1
H	-2.812189	1.241529	-0.052392	1
H	-0.043179	1.500769	0.885698	1
H	0.747671	-2.470731	-1.180512	1
H	1.001351	-2.376521	0.577118	1
H	2.344991	-2.082671	-0.533202	1
H	1.520821	1.542549	-0.725922	1
H	2.847001	0.261739	-0.825502	1
Es	-0.773189	0.960036	0.212909	99
Es	1.270686	-1.929578	-0.385324	99
Es	-0.546263	-0.178157	-0.201933	99
Es	-0.808941	0.995002	0.460048	99
Es	0.190391	-0.313169	-0.300241	99
Es	-0.698662	0.455326	0.295827	99
Es	1.084010	-1.191161	-0.392476	99
Es	0.905670	-0.475693	-0.406673	99
Es	1.089105	-2.214372	0.263461	99
Es	-1.561984	-0.825298	-0.452458	99
Es	1.275598	-0.005873	-0.842603	99
Es	-2.592419	1.285357	0.233243	99
Es	-1.375725	1.123265	0.635940	99
Es	-1.409489	-0.976838	-0.545714	99
Es	1.614446	1.204726	-0.689935	99
Es	-2.155424	1.356323	0.814814	99
Es	-2.153178	2.066539	1.047360	99
Es	-1.119755	-0.847664	-0.236860	99
Es	0.919175	-2.281292	-0.917491	99
Es	2.508905	0.344086	-0.766133	99
Es	-1.099970	-0.584530	-0.649070	99
Es	1.799679	0.496985	-0.652094	99
Es	-2.393376	0.911497	1.363602	99
Es	-1.442922	-1.259415	-0.678535	99
Es	2.005310	-2.019694	-0.483191	99
Es	1.407084	0.056767	-0.197538	99
Es	-0.349263	1.314598	0.692653	99
43
Properties=species:S:1:pos:R:3:Z:I:1 energy=-324.0060863206764 field_type=dipole dipole="0.000000 0.000000 0.000000" charge=0
C	-2.155619	1.356349	0.814848	6
N	-0.808929	0.995419	0.459768	7
C	-0.546289	-0.178311	-0.201982	6
O	-1.409839	-0.977031	-0.545782	8
C	0.905781	-0.475621	-0.406692	6
C	1.270691	-1.929651	-0.385332	6
C	1.799621	0.496909	-0.652082	6
H	-2.162949	2.395029	1.152898	1
H	-2.498939	0.700239	1.619068	1
H	-2.812189	1.241529	-0.052392	1
H	-0.043179	1.500769	0.885698	1
H	0.747671	-2.470731	-1.180512	1
H	1.001351	-2.376521	0.577118	1
H	2.344991	-2.082671	-0.533202	1
H	1.520821	1.542549	-0.725922	1
H	2.847001	0.261739	-0.825502	1
Es	1.270688	-1.929578	-0.385321	99
Es	0.920007	-2.283366	-0.918264	99
Es	2.000873	-2.021127	-0.482263	99
Es	-2.155421	1.356322	0.814812	99
Es	0.905671	-0.475693	-0.406675	99
Es	-1.139120	-0.558279	-0.643551	99
Es	-2.590778	1.284518	0.234075	99
Es	-1.374311	1.120425	0.637967	99
Es	-1.238171	-1.070234	-0.600088	99
Es	-0.546262	-0.178152	-0.201940	99
Es	1.091012	-2.214818	0.262769	99
Es	1.407979	0.055829	-0.197582	99
Es	1.616310	1.208159	-0.688742	99
Es	0.192598	-0.312296	-0.301174	99
Es	-0.697373	0.455314	0.259199	99
Es	2.504976	0.342660	-0.765843	99
Es	-1.408779	-0.977128	-0.545895	99
Es	-0.808875	0.994759	0.460191	99
Es	-1.707448	-1.065276	-0.549399	99
Es	-0.776659	0.959121	0.253493	99
Es	1.084762	-1.189982	-0.393074	99
Es	-0.350910	1.319195	0.687518	99
Es	-2.152529	2.068896	1.047843	99
Es	-2.393238	0.910551	1.362207	99
Es	-1.139592	-0.823627	-0.223715	99
Es	1.274412	-0.005409	-0.842871	99
Es	1.799679	0.496984	-0.652093	99
43
Properties=species:S:1:pos:R:3:Z:I:1 energy=-324.0060863206764 field_type=dipole dipole="0.000000 0.000000 0.000000" charge=0
C	-2.155619	1.356349	0.814848	6
N	-0.808929	0.995419	0.459768	7
C	-0.546289	-0.178311	-0.201982	6
O	-1.409839	-0.977031	-0.545782	8
C	0.905781	-0.475621	-0.406692	6
C	1.270691	-1.929651	-0.385332	6
C	1.799621	0.496909	-0.652082	6
H	-2.162949	2.395029	1.152898	1
H	-2.498939	0.700239	1.619068	1
H	-2.812189	1.241529	-0.052392	1
H	-0.043179	1.500769	0.885698	1
H	0.747671	-2.470731	-1.180512	1
H	1.001351	-2.376521	0.577118	1
H	2.344991	-2.082671	-0.533202	1
H	1.520821	1.542549	-0.725922	1
H	2.847001	0.261739	-0.825502	1
Es	0.905670	-0.475694	-0.406675	99
Es	1.614469	1.204782	-0.689097	99
Es	0.190223	-0.312817	-0.300623	99
Es	2.509037	0.343910	-0.766432	99
Es	-2.394263	0.910628	1.362895	99
Es	-0.773519	0.955808	0.238078	99
Es	-2.155421	1.356321	0.814812	99
Es	1.275178	-0.005428	-0.842101	99
Es	-1.409428	-0.976858	-0.545722	99
Es	-2.153470	2.067220	1.047405	99
Es	-1.504822	-1.247013	-0.659308	99
Es	-0.808913	0.995017	0.460107	99
Es	0.918457	-2.281897	-0.916932	99
Es	-0.546264	-0.178154	-0.201939	99
Es	1.083898	-1.191014	-0.392722	99
Es	1.089671	-2.213726	0.262538	99
Es	1.407435	0.056348	-0.198230	99
Es	-0.697443	0.456068	0.278418	99
Es	-2.591156	1.285798	0.234254	99
Es	-1.500534	-0.837580	-0.467816	99
Es	1.799680	0.496985	-0.652094	99
Es	-1.376600	1.122183	0.635889	99
Es	-0.349525	1.318838	0.684697	99
Es	2.005655	-2.019875	-0.483235	99
Es	1.270689	-1.929579	-0.385322	99
Es	-1.094156	-0.586202	-0.649609	99
Es	-1.125053	-0.846295	-0.239653	99
43
Properties=species:S:1:pos:R:3:Z:I:1 energy=-324.0060863206764 field_type=dipole dipole="0.000000 0.000000 0.000000" charge=0
C	-2.155619	1.356349	0.814848	6
N	-0.808929	0.995419	0.459768	7
C	-0.546289	-0.178311	-0.201982	6
O	-1.409839	-0.977031	-0.545782	8
C	0.905781	-0.475621	-0.406692	6
C	1.270691	-1.929651	-0.385332	6
C	1.799621	0.496909	-0.652082	6
H	-2.162949	2.395029	1.152898	1
H	-2.498939	0.700239	1.619068	1
H	-2.812189	1.241529	-0.052392	1
H	-0.043179	1.500769	0.885698	1
H	0.747671	-2.470731	-1.180512	1
H	1.001351	-2.376521	0.577118	1
H	2.344991	-2.082671	-0.533202	1
H	1.520821	1.542549	-0.725922	1
H	2.847001	0.261739	-0.825502	1
Es	-0.774391	0.954649	0.252330	99
Es	-0.696713	0.457345	0.266120	99
Es	0.918591	-2.282056	-0.916755	99
Es	0.905669	-0.475693	-0.406673	99
Es	-0.546265	-0.178154	-0.201939	99
Es	1.270689	-1.929579	-0.385322	99
Es	2.005635	-2.020002	-0.483195	99
Es	1.275190	-0.005464	-0.841719	99
Es	-1.127801	-0.845238	-0.241258	99
Es	-1.474835	-0.848672	-0.476367	99
Es	-1.376271	1.120509	0.637198	99
Es	-0.349825	1.320515	0.681399	99
Es	1.614302	1.205083	-0.688982	99
Es	2.508986	0.343820	-0.766440	99
Es	1.407411	0.056303	-0.198699	99
Es	-2.153600	2.067528	1.047233	99
Es	1.089803	-2.213864	0.262148	99
Es	-2.155422	1.356322	0.814812	99
Es	1.083773	-1.190859	-0.392623	99
Es	1.799680	0.496985	-0.652093	99
Es	-1.409155	-0.976768	-0.545704	99
Es	-1.528917	-1.238482	-0.650047	99
Es	-2.394243	0.910678	1.362854	99
Es	-1.093167	-0.584872	-0.648613	99
Es	0.190277	-0.312773	-0.300753	99
Es	-2.591002	1.285565	0.234533	99
Es	-0.808901	0.994943	0.460138	99
43
Properties=species:S:1:pos:R:3:Z:I:1 energy=-324.0060863206764 field_type=dipole dipole="0.000000 0.000000 0.000000" charge=0
C	-2.155619	1.356349	0.814848	6
N	-0.808929	0.995419	0.459768	7
C	-0.546289	-0.178311	-0.201982	6
O	-1.409839	-0.977031	-0.545782	8
C	0.905781	-0.475621	-0.406692	6
C	1.270691	-1.929651	-0.385332	6
C	1.799621	0.496909	-0.652082	6
H	-2.162949	2.395029	1.152898	1
H	-2.498939	0.700239	1.619068	1
H	-2.812189	1.241529	-0.052392	1
H	-0.043179	1.500769	0.885698	1
H	0.747671	-2.470731	-1.180512	1
H	1.001351	-2.376521	0.577118	1
H	2.344991	-2.082671	-0.533202	1
H	1.520821	1.542549	-0.725922	1
H	2.847001	0.261739	-0.825502	1
Es	-0.546264	-0.178155	-0.201936	99
Es	-0.774727	0.953856	0.259023	99
Es	-1.409333	-0.976888	-0.545755	99
Es	0.905669	-0.475695	-0.406678	99
Es	1.407499	0.056204	-0.198919	99
Es	-0.696771	0.457927	0.260085	99
Es	1.089985	-2.213484	0.261911	99
Es	-1.091990	-0.582807	-0.645487	99
Es	-2.155423	1.356322	0.814813	99
Es	-1.460566	-0.856542	-0.482596	99
Es	-1.375837	1.119822	0.637807	99
Es	-2.153631	2.067641	1.047351	99
Es	1.083836	-1.190765	-0.392803	99
Es	1.614372	1.205191	-0.688785	99
Es	-0.808917	0.995031	0.460112	99
Es	0.918399	-2.282441	-0.916601	99
Es	1.275132	-0.005386	-0.841580	99
Es	-2.590302	1.286053	0.234888	99
Es	1.799679	0.496987	-0.652091	99
Es	-1.132287	-0.843583	-0.242729	99
Es	-1.539765	-1.234224	-0.645274	99
Es	2.508941	0.343712	-0.766401	99
Es	0.190246	-0.312635	-0.300824	99
Es	2.005622	-2.020087	-0.483056	99
Es	-2.394867	0.910120	1.362454	99
Es	-0.349889	1.321174	0.679977	99
Es	1.270688	-1.929576	-0.385321	99
43
Properties=species:S:1:pos:R:3:Z:I:1 energy=-324.0060863206764 field_type=dipole dipole="0.000000 0.000000 0.000000" charge=0
C	-2.155619	1.356349	0.814848	6
N	-0.808929	0.995419	0.459768	7
C	-0.546289	-0.178311	-0.201982	6
O	-1.409839	-0.977031	-0.545782	8
C	0.905781	-0.475621	-0.406692	6
C	1.270691	-1.929651	-0.385332	6
C	1.799621	0.496909	-0.652082	6
H	-2.162949	2.395029	1.152898	1
H	-2.498939	0.700239	1.619068	1
H	-2.812189	1.241529	-0.052392	1
H	-0.043179	1.500769	0.885698	1
H	0.747671	-2.470731	-1.180512	1
H	1.001351	-2.376521	0.577118	1
H	2.344991	-2.082671	-0.533202	1
H	1.520821	1.542549	-0.725922	1
H	2.847001	0.261739	-0.825502	1
Es	0.905669	-0.475692	-0.406675	99
Es	-1.134822	-0.845321	-0.248224	99
Es	1.083546	-1.191015	-0.392569	99
Es	-1.547206	-1.230551	-0.642936	99
Es	0.918442	-2.282505	-0.916782	99
Es	1.614375	1.205167	-0.688709	99
Es	-1.375917	1.120010	0.637517	99
Es	-2.394947	0.909897	1.362361	99
Es	-0.350047	1.321917	0.678785	99
Es	-0.808947	0.995497	0.459616	99
Es	1.407610	0.056138	-0.198649	99
Es	2.508807	0.343886	-0.766377	99
Es	-2.153583	2.067798	1.047348	99
Es	1.799680	0.496985	-0.652093	99
Es	-1.088803	-0.581582	-0.640852	99
Es	1.270688	-1.929579	-0.385322	99
Es	1.090103	-2.213590	0.261874	99
Es	-0.774470	0.952181	0.264364	99
Es	-1.453555	-0.859877	-0.483989	99
Es	0.190482	-0.312492	-0.301003	99
Es	-0.546264	-0.178156	-0.201936	99
Es	-2.590038	1.286065	0.234954	99
Es	-2.155422	1.356321	0.814812	99
Es	-0.696956	0.458203	0.256801	99
Es	2.005545	-2.019796	-0.483024	99
Es	-1.409521	-0.976819	-0.545705	99
Es	1.275048	-0.005320	-0.842000	99
43
Properties=species:S:1:pos:R:3:Z:I:1 energy=-324.0060863206764 field_type=dipole dipole="0.000000 0.000000 0.000000" charge=0
C	-2.155619	1.356349	0.814848	6
N	-0.808929	0.995419	0.459768	7
C	-0.546289	-0.178311	-0.201982	6
O	-1.409839	-0.977031	-0.545782	8
C	0.905781	-0.475621	-0.406692	6
C	1.270691	-1.929651	-0.385332	6
C	1.799621	0.496909	-0.652082	6
H	-2.162949	2.395029	1.152898	1
H	-2.498939	0.700239	1.619068	1
H	-2.812189	1.241529	-0.052392	1
H	-0.043179	1.500769	0.885698	1
H	0.747671	-2.470731	-1.180512	1
H	1.001351	-2.376521	0.577118	1
H	2.344991	-2.082671	-0.533202	1
H	1.520821	1.542549	-0.725922	1
H	2.847001	0.261739	-0.825502	1
Es	-2.155423	1.356322	0.814811	99
Es	-1.136477	-0.843742	-0.248551	99
Es	2.005625	-2.019863	-0.482951	99
Es	-1.550365	-1.229526	-0.640395	99
Es	-2.395053	0.909811	1.362254	99
Es	-1.375890	1.119069	0.638118	99
Es	1.090429	-2.212938	0.261541	99
Es	-1.409394	-0.976882	-0.545709	99
Es	1.407628	0.056153	-0.198653	99
Es	-0.808933	0.995065	0.460120	99
Es	1.270688	-1.929577	-0.385321	99
Es	0.917952	-2.283015	-0.916511	99
Es	-0.350214	1.322844	0.676822	99
Es	1.799681	0.496985	-0.652093	99
Es	-2.153433	2.067941	1.047365	99
Es	2.508849	0.343829	-0.766262	99
Es	-2.589873	1.286117	0.235069	99
Es	-1.448016	-0.863855	-0.486846	99
Es	-0.774620	0.951955	0.266242	99
Es	1.083623	-1.190885	-0.392811	99
Es	1.275010	-0.005282	-0.842054	99
Es	-0.546264	-0.178155	-0.201938	99
Es	0.190362	-0.312522	-0.301199	99
Es	1.614476	1.205124	-0.688491	99
Es	-0.696786	0.458640	0.255790	99
Es	0.905670	-0.475694	-0.406673	99
Es	-1.089754	-0.580148	-0.640091	99
43
Properties=species:S:1:pos:R:3:Z:I:1 energy=-324.0060863206764 field_type=dipole dipole="0.000000 0.000000 0.000000" charge=0
C	-2.155619	1.356349	0.814848	6
N	-0.808929	0.995419	0.459768	7
C	-0.546289	-0.178311	-0.201982	6
O	-1.409839	-0.977031	-0.545782	8
C	0.905781	-0.475621	-0.406692	6
C	1.270691	-1.929651	-0.385332	6
C	1.799621	0.496909	-0.652082	6
H	-2.162949	2.395029	1.152898	1
H	-2.498939	0.700239	1.619068	1
H	-2.812189	1.241529	-0.052392	1
H	-0.043179	1.500769	0.885698	1
H	0.747671	-2.470731	-1.180512	1
H	1.001351	-2.376521	0.577118	1
H	2.344991	-2.082671	-0.533202	1
H	1.520821	1.542549	-0.725922	1
H	2.847001	0.261739	-0.825502	1
Es	-0.696727	0.459145	0.251967	99
Es	-2.395151	0.909699	1.362052	99
Es	-2.589548	1.286000	0.235355	99
Es	-1.410095	-0.976103	-0.545337	99
Es	-1.089509	-0.579420	-0.639009	99
Es	1.799681	0.496985	-0.652090	99
Es	0.190418	-0.312407	-0.301278	99
Es	-2.153594	2.068244	1.047300	99
Es	-1.563632	-1.222539	-0.634913	99
Es	-1.432445	-0.873324	-0.493212	99
Es	1.090764	-2.212899	0.261237	99
Es	-0.808941	0.995196	0.460008	99
Es	0.905670	-0.475694	-0.406674	99
Es	-1.375544	1.118610	0.638604	99
Es	-2.155421	1.356321	0.814812	99
Es	1.270687	-1.929577	-0.385321	99
Es	1.274927	-0.005244	-0.841803	99
Es	-1.138204	-0.842838	-0.249091	99
Es	1.614564	1.205467	-0.688292	99
Es	-0.774863	0.951186	0.271131	99
Es	1.407721	0.056038	-0.198913	99
Es	-0.350456	1.323541	0.675441	99
Es	-0.546265	-0.178154	-0.201934	99
Es	0.917794	-2.283245	-0.916384	99
Es	2.508607	0.343633	-0.766324	99
Es	1.083636	-1.190810	-0.392743	99
Es	2.005424	-2.020040	-0.483004	99
43
Properties=species:S:1:pos:R:3:Z:I:1 energy=-324.0060863206764 field_type=dipole dipole="0.000000 0.000000 0.000000" charge=0
C	-2.155619	1.356349	0.814848	6
N	-0.808929	0.995419	0.459768	7
C	-0.546289	-0.178311	-0.201982	6
O	-1.409839	-0.977031	-0.545782	8
C	0.905781	-0.475621	-0.406692	6
C	1.270691	-1.929651	-0.385332	6
C	1.799621	0.496909	-0.652082	6
H	-2.162949	2.395029	1.152898	1
H	-2.498939	0.700239	1.619068	1
H	-2.812189	1.241529	-0.052392	1
H	-0.043179	1.500769	0.885698	1
H	0.747671	-2.470731	-1.180512	1
H	1.001351	-2.376521	0.577118	1
H	2.344991	-2.082671	-0.533202	1
H	1.520821	1.542549	-0.725922	1
H	2.847001	0.261739	-0.825502	1
Es	2.508621	0.343626	-0.766218	99
Es	-1.566560	-1.221049	-0.633287	99
Es	-0.696570	0.459333	0.251439	99
Es	1.090910	-2.212538	0.261092	99
Es	1.083693	-1.190832	-0.392896	99
Es	-0.808936	0.995596	0.459409	99
Es	0.190323	-0.312478	-0.301377	99
Es	-1.428424	-0.876143	-0.495365	99
Es	1.274832	-0.005135	-0.841913	99
Es	2.005459	-2.019987	-0.482920	99
Es	1.407738	0.056039	-0.198953	99
Es	-2.395376	0.909465	1.361909	99
Es	-2.155420	1.356321	0.814812	99
Es	-1.089241	-0.578203	-0.636946	99
Es	-1.375496	1.118190	0.638928	99
Es	1.614627	1.205431	-0.688118	99
Es	-0.546264	-0.178157	-0.201932	99
Es	0.917591	-2.283552	-0.916279	99
Es	1.270688	-1.929578	-0.385321	99
Es	-1.409041	-0.977027	-0.545838	99
Es	-0.350674	1.324297	0.673934	99
Es	0.905670	-0.475694	-0.406674	99
Es	-2.153491	2.068221	1.047407	99
Es	-2.589306	1.286215	0.235354	99
Es	-1.140694	-0.841782	-0.250109	99
Es	-0.774843	0.950207	0.273535	99
Es	1.799681	0.496985	-0.652089	99
43
Properties=species:S:1:pos:R:3:Z:I:1 energy=-324.0060863206764 field_type=dipole dipole="0.000000 0.000000 0.000000" charge=0
C	-2.155619	1.356349	0.814848	6
N	-0.808929	0.995419	0.459768	7
C	-0.546289	-0.178311	-0.201982	6
O	-1.409839	-0.977031	-0.545782	8
C	0.905781	-0.475621	-0.406692	6
C	1.270691	-1.929651	-0.385332	6
C	1.799621	0.496909	-0.652082	6
H	-2.162949	2.395029	1.152898	1
H	-2.498939	0.700239	1.619068	1
H	-2.812189	1.241529	-0.052392	1
H	-0.043179	1.500769	0.885698	1
H	0.747671	-2.470731	-1.180512	1
H	1.001351	-2.376521	0.577118	1
H	2.344991	-2.082671	-0.533202	1
H	1.520821	1.542549	-0.725922	1
H	2.847001	0.261739	-0.825502	1
Es	0.917862	-2.283658	-0.916304	99
Es	1.270688	-1.929577	-0.385321	99
Es	1.090873	-2.212673	0.260968	99
Es	-1.409744	-0.891081	-0.504418	99
Es	0.905671	-0.475694	-0.406674	99
Es	-2.395254	0.909600	1.361918	99
Es	2.005205	-2.020226	-0.482744	99
Es	-1.579703	-1.212987	-0.628277	99
Es	-0.808894	0.994839	0.460205	99
Es	-1.375095	1.117946	0.639111	99
Es	-0.546264	-0.178155	-0.201938	99
Es	2.508461	0.343560	-0.766384	99
Es	1.799679	0.496985	-0.652096	99
Es	0.190273	-0.312373	-0.301579	99
Es	1.614610	1.205642	-0.687989	99
Es	-2.155421	1.356321	0.814813	99
Es	-1.088678	-0.575057	-0.631403	99
Es	-1.409871	-0.974583	-0.544546	99
Es	-1.145807	-0.840600	-0.252794	99
Es	1.083726	-1.190458	-0.393034	99
Es	-2.589330	1.286019	0.235590	99
Es	-0.775219	0.951141	0.274154	99
Es	1.274851	-0.005194	-0.841676	99
Es	-0.350878	1.324346	0.674204	99
Es	1.407857	0.055901	-0.199058	99
Es	-2.153557	2.068441	1.047290	99
Es	-0.696542	0.459346	0.249567	99
43
Properties=species:S:1:pos:R:3:Z:I:1 energy=-324.0060863206764 field_type=dipole dipole="0.000000 0.000000 0.000000" charge=0
C	-2.155619	1.356349	0.814848	6
N	-0.808929	0.995419	0.459768	7
C	-0.546289	-0.178311	-0.201982	6
O	-1.409839	-0.977031	-0.545782	8
C	0.905781	-0.475621	-0.406692	6
C	1.270691	-1.929651	-0.385332	6
C	1.799621	0.496909	-0.652082	6
H	-2.162949	2.395029	1.152898	1
H	-2.498939	0.700239	1.619068	1
H	-2.812189	1.241529	-0.052392	1
H	-0.043179	1.500769	0.885698	1
H	0.747671	-2.470731	-1.180512	1
H	1.001351	-2.376521	0.577118	1
H	2.344991	-2.082671	-0.533202	1
H	1.520821	1.542549	-0.725922	1
H	2.847001	0.261739	-0.825502	1
Es	-0.775098	0.949974	0.279042	99
Es	-1.582119	-1.211800	-0.626019	99
Es	2.005051	-2.020316	-0.482845	99
Es	-0.546265	-0.178152	-0.201943	99
Es	1.274795	-0.005147	-0.841881	99
Es	-1.090268	-0.574723	-0.633229	99
Es	-2.155424	1.356323	0.814813	99
Es	0.190434	-0.312375	-0.301609	99
Es	1.270688	-1.929578	-0.385321	99
Es	-0.696524	0.460145	0.245839	99
Es	1.799680	0.496985	-0.652093	99
Es	-0.351096	1.325100	0.672785	99
Es	0.917520	-2.283912	-0.916157	99
Es	-1.143437	-0.841065	-0.253217	99
Es	-2.153487	2.068502	1.047367	99
Es	1.614628	1.205643	-0.687933	99
Es	-1.409752	-0.976557	-0.545545	99
Es	2.508437	0.343597	-0.766241	99
Es	-2.589059	1.286172	0.235673	99
Es	-0.808907	0.994887	0.460210	99
Es	1.091223	-2.212438	0.260758	99
Es	1.407862	0.055928	-0.198944	99
Es	-1.375085	1.117466	0.639304	99
Es	-1.408295	-0.890182	-0.503393	99
Es	-2.395433	0.909360	1.361752	99
Es	0.905670	-0.475694	-0.406675	99
Es	1.083759	-1.190373	-0.392916	99
