42
Properties=species:S:1:pos:R:3:Z:I:1 energy=-339.96630017871985 field_type=dipole dipole="0.000000 0.000000 0.000000" charge=0
C	-0.833258	-0.941892	2.271301	6
N	-1.363828	0.012818	1.300441	7
N	-0.820938	-0.236662	0.019981	7
C	0.226452	0.542228	-0.442209	6
O	0.771492	1.423218	0.215341	8
C	0.626202	0.201198	-1.831979	6
C	1.635472	0.852318	-2.427289	6
H	-1.269218	-0.742812	3.254681	1
H	0.255312	-0.860862	2.358871	1
H	-1.091888	-1.968492	1.992331	1
H	-1.046958	0.952148	1.580341	1
H	-1.296658	-0.901102	-0.582799	1
H	0.090162	-0.580982	-2.351669	1
H	2.183062	1.639498	-1.916209	1
H	1.934592	0.609378	-3.441139	1
Es	0.413654	0.359113	-1.143723	99
Es	-0.385790	-0.266448	-0.007594	99
Es	-1.163173	0.558801	1.459118	99
Es	0.429681	1.298910	-0.087074	99
Es	0.751636	0.966681	0.089036	99
Es	-1.105815	-0.626412	-0.335657	99
Es	-1.131762	-0.799194	2.937770	99
Es	-1.363099	0.012836	1.300402	99
Es	-1.101858	-0.399476	1.709467	99
Es	-0.087038	-0.890659	2.329832	99
Es	1.635526	0.852347	-2.427348	99
Es	-0.833318	-0.941807	2.271215	99
Es	-0.656427	0.167578	-0.215829	99
Es	0.226318	0.542107	-0.442197	99
Es	0.641729	1.450588	0.501256	99
Es	1.839626	0.690191	-3.111549	99
Es	1.301977	0.292925	-1.984017	99
Es	0.626116	0.201154	-1.831892	99
Es	0.251812	-0.333473	-2.172699	99
Es	0.997320	1.558177	0.054724	99
Es	2.004030	1.373782	-2.099203	99
Es	-1.723199	-0.013926	1.280278	99
Es	0.771331	1.422973	0.215175	99
Es	-1.066221	-0.120417	0.641423	99
Es	-0.820999	-0.236479	0.019981	99
Es	-1.010659	-1.641358	2.073547	99
Es	0.890124	0.726500	-2.211148	99
42
Properties=species:S:1:pos:R:3:Z:I:1 energy=-339.96630017871985 field_type=dipole dipole="0.000000 0.000000 0.000000" charge=0
C	-0.833258	-0.941892	2.271301	6
N	-1.363828	0.012818	1.300441	7
N	-0.820938	-0.236662	0.019981	7
C	0.226452	0.542228	-0.442209	6
O	0.771492	1.423218	0.215341	8
C	0.626202	0.201198	-1.831979	6
C	1.635472	0.852318	-2.427289	6
H	-1.269218	-0.742812	3.254681	1
H	0.255312	-0.860862	2.358871	1
H	-1.091888	-1.968492	1.992331	1
H	-1.046958	0.952148	1.580341	1
H	-1.296658	-0.901102	-0.582799	1
H	0.090162	-0.580982	-2.351669	1
H	2.183062	1.639498	-1.916209	1
H	1.934592	0.609378	-3.441139	1
Es	-1.065998	-0.116323	0.642863	99
Es	-0.833319	-0.941808	2.271216	99
Es	-0.507122	0.178282	-0.215059	99
Es	-1.102052	-0.398180	1.706981	99
Es	0.434244	1.293582	-0.082481	99
Es	-0.527266	-0.287193	0.000878	99
Es	-0.086005	-0.890159	2.329930	99
Es	1.839234	0.689717	-3.110876	99
Es	-1.011840	-1.641736	2.073257	99
Es	0.626111	0.201158	-1.831894	99
Es	0.251331	-0.334385	-2.173319	99
Es	1.010344	1.570965	0.057562	99
Es	-1.132207	-0.798373	2.936901	99
Es	0.413754	0.359577	-1.144349	99
Es	0.226317	0.542105	-0.442198	99
Es	0.891125	0.725110	-2.210706	99
Es	-0.821174	-0.236300	0.019890	99
Es	0.771352	1.422955	0.215100	99
Es	1.635531	0.852344	-2.427346	99
Es	2.004751	1.374654	-2.098686	99
Es	0.744121	0.971486	0.088547	99
Es	-1.111568	-0.620303	-0.343373	99
Es	-1.159112	0.557602	1.460811	99
Es	-1.728766	-0.014954	1.280314	99
Es	1.301087	0.294329	-1.984677	99
Es	0.631761	1.438031	0.493610	99
Es	-1.363109	0.012828	1.300397	99
42
Properties=species:S:1:pos:R:3:Z:I:1 energy=-339.96630017871985 field_type=dipole dipole="0.000000 0.000000 0.000000" charge=0
C	-0.833258	-0.941892	2.271301	6
N	-1.363828	0.012818	1.300441	7
N	-0.820938	-0.236662	0.019981	7
C	0.226452	0.542228	-0.442209	6
O	0.771492	1.423218	0.215341	8
C	0.626202	0.201198	-1.831979	6
C	1.635472	0.852318	-2.427289	6
H	-1.269218	-0.742812	3.254681	1
H	0.255312	-0.860862	2.358871	1
H	-1.091888	-1.968492	1.992331	1
H	-1.046958	0.952148	1.580341	1
H	-1.296658	-0.901102	-0.582799	1
H	0.090162	-0.580982	-2.351669	1
H	2.183062	1.639498	-1.916209	1
H	1.934592	0.609378	-3.441139	1
Es	-1.012125	-1.642023	2.073187	99
Es	-1.157265	0.557081	1.461476	99
Es	-0.821145	-0.236384	0.019944	99
Es	1.301063	0.294472	-1.984827	99
Es	0.630257	1.433033	0.489656	99
Es	0.741227	0.971740	0.087292	99
Es	-0.833319	-0.941807	2.271215	99
Es	0.251407	-0.334915	-2.173129	99
Es	-0.085687	-0.889700	2.330073	99
Es	0.226312	0.542116	-0.442201	99
Es	-1.730538	-0.014916	1.279927	99
Es	-1.102853	-0.397999	1.706187	99
Es	1.635531	0.852342	-2.427345	99
Es	1.013400	1.576217	0.058257	99
Es	-1.106933	-0.627778	-0.341909	99
Es	-1.132268	-0.798235	2.936399	99
Es	0.626110	0.201157	-1.831892	99
Es	2.004832	1.375209	-2.098904	99
Es	-1.063712	-0.118099	0.645371	99
Es	0.891007	0.725174	-2.210853	99
Es	-0.440005	0.154113	-0.202046	99
Es	0.771358	1.423001	0.215175	99
Es	1.838848	0.689871	-3.110485	99
Es	0.414438	0.359098	-1.144317	99
Es	-0.600677	-0.253604	-0.014778	99
Es	0.435380	1.293019	-0.078587	99
Es	-1.363119	0.012829	1.300408	99
42
Properties=species:S:1:pos:R:3:Z:I:1 energy=-339.96630017871985 field_type=dipole dipole="0.000000 0.000000 0.000000" charge=0
C	-0.833258	-0.941892	2.271301	6
N	-1.363828	0.012818	1.300441	7
N	-0.820938	-0.236662	0.019981	7
C	0.226452	0.542228	-0.442209	6
O	0.771492	1.423218	0.215341	8
C	0.626202	0.201198	-1.831979	6
C	1.635472	0.852318	-2.427289	6
H	-1.269218	-0.742812	3.254681	1
H	0.255312	-0.860862	2.358871	1
H	-1.091888	-1.968492	1.992331	1
H	-1.046958	0.952148	1.580341	1
H	-1.296658	-0.901102	-0.582799	1
H	0.090162	-0.580982	-2.351669	1
H	2.183062	1.639498	-1.916209	1
H	1.934592	0.609378	-3.441139	1
Es	0.437657	1.287922	-0.077215	99
Es	-1.061255	-0.120250	0.647235	99
Es	1.635532	0.852343	-2.427346	99
Es	-1.156703	0.557031	1.462016	99
Es	1.300510	0.294183	-1.984445	99
Es	1.838289	0.690243	-3.110326	99
Es	0.251536	-0.335445	-2.172863	99
Es	-0.833320	-0.941807	2.271214	99
Es	1.013669	1.581313	0.058031	99
Es	0.891529	0.725614	-2.211342	99
Es	0.415119	0.358805	-1.144234	99
Es	-0.821189	-0.236312	0.019904	99
Es	0.626124	0.201146	-1.831889	99
Es	-1.363098	0.012822	1.300382	99
Es	-0.085530	-0.889603	2.330182	99
Es	0.226319	0.542098	-0.442195	99
Es	2.004769	1.375708	-2.099218	99
Es	-1.132215	-0.797972	2.936021	99
Es	0.742343	0.973184	0.089260	99
Es	-1.102413	-0.633922	-0.339263	99
Es	-1.731791	-0.015913	1.279862	99
Es	-1.102807	-0.397118	1.705326	99
Es	0.771362	1.422997	0.215169	99
Es	0.626482	1.431482	0.486218	99
Es	-1.012525	-1.642240	2.073221	99
Es	-0.410462	0.136357	-0.193181	99
Es	-0.636409	-0.227652	-0.027230	99
42
Properties=species:S:1:pos:R:3:Z:I:1 energy=-339.96630017871985 field_type=dipole dipole="0.000000 0.000000 0.000000" charge=0
C	-0.833258	-0.941892	2.271301	6
N	-1.363828	0.012818	1.300441	7
N	-0.820938	-0.236662	0.019981	7
C	0.226452	0.542228	-0.442209	6
O	0.771492	1.423218	0.215341	8
C	0.626202	0.201198	-1.831979	6
C	1.635472	0.852318	-2.427289	6
H	-1.269218	-0.742812	3.254681	1
H	0.255312	-0.860862	2.358871	1
H	-1.091888	-1.968492	1.992331	1
H	-1.046958	0.952148	1.580341	1
H	-1.296658	-0.901102	-0.582799	1
H	0.090162	-0.580982	-2.351669	1
H	2.183062	1.639498	-1.916209	1
H	1.934592	0.609378	-3.441139	1
Es	-1.363089	0.012852	1.300402	99
Es	0.415690	0.358423	-1.143996	99
Es	0.226316	0.542104	-0.442197	99
Es	-0.085327	-0.889360	2.330154	99
Es	-1.100069	-0.636845	-0.337641	99
Es	0.771308	1.422966	0.215189	99
Es	0.736288	0.971161	0.082804	99
Es	2.004787	1.376055	-2.099401	99
Es	1.015947	1.584086	0.059882	99
Es	-0.833319	-0.941810	2.271217	99
Es	0.626117	0.201148	-1.831890	99
Es	-1.012773	-1.642325	2.073166	99
Es	-0.821090	-0.236480	0.020003	99
Es	1.635532	0.852343	-2.427347	99
Es	-1.132300	-0.797788	2.935786	99
Es	0.891400	0.725862	-2.211413	99
Es	1.300434	0.294289	-1.984610	99
Es	-1.059251	-0.122258	0.648676	99
Es	-0.652217	-0.214046	-0.033898	99
Es	-0.398535	0.127710	-0.188866	99
Es	0.251756	-0.335819	-2.172671	99
Es	0.441648	1.292871	-0.071890	99
Es	1.837924	0.690438	-3.110152	99
Es	-1.732687	-0.016200	1.279525	99
Es	0.626127	1.425784	0.485125	99
Es	-1.155737	0.556828	1.462547	99
Es	-1.103360	-0.396977	1.704791	99
42
Properties=species:S:1:pos:R:3:Z:I:1 energy=-339.96630017871985 field_type=dipole dipole="0.000000 0.000000 0.000000" charge=0
C	-0.833258	-0.941892	2.271301	6
N	-1.363828	0.012818	1.300441	7
N	-0.820938	-0.236662	0.019981	7
C	0.226452	0.542228	-0.442209	6
O	0.771492	1.423218	0.215341	8
C	0.626202	0.201198	-1.831979	6
C	1.635472	0.852318	-2.427289	6
H	-1.269218	-0.742812	3.254681	1
H	0.255312	-0.860862	2.358871	1
H	-1.091888	-1.968492	1.992331	1
H	-1.046958	0.952148	1.580341	1
H	-1.296658	-0.901102	-0.582799	1
H	0.090162	-0.580982	-2.351669	1
H	2.183062	1.639498	-1.916209	1
H	1.934592	0.609378	-3.441139	1
Es	2.004781	1.376340	-2.099501	99
Es	0.771360	1.422985	0.215138	99
Es	-1.154580	0.556553	1.462923	99
Es	1.016750	1.584844	0.058341	99
Es	0.891841	0.725878	-2.211465	99
Es	1.837624	0.690497	-3.110137	99
Es	-0.391765	0.122445	-0.186302	99
Es	-1.733327	-0.016189	1.279799	99
Es	1.635531	0.852344	-2.427347	99
Es	0.626071	1.425060	0.484244	99
Es	-1.012977	-1.642466	2.073180	99
Es	0.626111	0.201153	-1.831892	99
Es	0.734693	0.972267	0.083176	99
Es	-0.833319	-0.941808	2.271220	99
Es	1.299959	0.294503	-1.984611	99
Es	-0.821051	-0.236531	0.020029	99
Es	0.442339	1.291563	-0.069997	99
Es	0.251780	-0.336152	-2.172586	99
Es	0.226320	0.542102	-0.442196	99
Es	-1.132287	-0.797608	2.935572	99
Es	0.416151	0.358416	-1.143846	99
Es	-1.097579	-0.639658	-0.335850	99
Es	-1.103834	-0.396859	1.704256	99
Es	-1.363071	0.012865	1.300410	99
Es	-0.085154	-0.889053	2.330034	99
Es	-0.662360	-0.204622	-0.038527	99
Es	-1.058483	-0.123856	0.649229	99
42
Properties=species:S:1:pos:R:3:Z:I:1 energy=-339.96630017871985 field_type=dipole dipole="0.000000 0.000000 0.000000" charge=0
C	-0.833258	-0.941892	2.271301	6
N	-1.363828	0.012818	1.300441	7
N	-0.820938	-0.236662	0.019981	7
C	0.226452	0.542228	-0.442209	6
O	0.771492	1.423218	0.215341	8
C	0.626202	0.201198	-1.831979	6
C	1.635472	0.852318	-2.427289	6
H	-1.269218	-0.742812	3.254681	1
H	0.255312	-0.860862	2.358871	1
H	-1.091888	-1.968492	1.992331	1
H	-1.046958	0.952148	1.580341	1
H	-1.296658	-0.901102	-0.582799	1
H	0.090162	-0.580982	-2.351669	1
H	2.183062	1.639498	-1.916209	1
H	1.934592	0.609378	-3.441139	1
Es	0.251724	-0.336267	-2.172546	99
Es	-1.735156	-0.017713	1.280590	99
Es	1.299342	0.294273	-1.984504	99
Es	-0.390459	0.121465	-0.185739	99
Es	-1.102960	-0.395175	1.702996	99
Es	-1.097015	-0.640080	-0.335444	99
Es	2.004885	1.376594	-2.099583	99
Es	-0.084985	-0.888915	2.330047	99
Es	-0.833320	-0.941808	2.271216	99
Es	0.226320	0.542098	-0.442193	99
Es	0.626109	0.201158	-1.831894	99
Es	0.446321	1.291378	-0.067453	99
Es	-1.013302	-1.642571	2.073201	99
Es	0.892598	0.725966	-2.211695	99
Es	-1.154045	0.556176	1.463291	99
Es	-1.132251	-0.797432	2.935277	99
Es	-1.057342	-0.124867	0.649905	99
Es	1.635531	0.852345	-2.427348	99
Es	1.017661	1.585052	0.056819	99
Es	1.837180	0.690719	-3.110049	99
Es	0.771359	1.423010	0.215194	99
Es	-0.664767	-0.202218	-0.039607	99
Es	-0.821080	-0.236491	0.020006	99
Es	-1.363149	0.012822	1.300385	99
Es	0.624242	1.426055	0.482810	99
Es	0.731625	0.971023	0.083360	99
Es	0.416454	0.358413	-1.143747	99
42
Properties=species:S:1:pos:R:3:Z:I:1 energy=-339.96630017871985 field_type=dipole dipole="0.000000 0.000000 0.000000" charge=0
C	-0.833258	-0.941892	2.271301	6
N	-1.363828	0.012818	1.300441	7
N	-0.820938	-0.236662	0.019981	7
C	0.226452	0.542228	-0.442209	6
O	0.771492	1.423218	0.215341	8
C	0.626202	0.201198	-1.831979	6
C	1.635472	0.852318	-2.427289	6
H	-1.269218	-0.742812	3.254681	1
H	0.255312	-0.860862	2.358871	1
H	-1.091888	-1.968492	1.992331	1
H	-1.046958	0.952148	1.580341	1
H	-1.296658	-0.901102	-0.582799	1
H	0.090162	-0.580982	-2.351669	1
H	2.183062	1.639498	-1.916209	1
H	1.934592	0.609378	-3.441139	1
Es	0.251726	-0.336572	-2.172379	99
Es	-0.084805	-0.888610	2.329849	99
Es	-1.153064	0.555689	1.463770	99
Es	0.626117	0.201147	-1.831888	99
Es	-1.132311	-0.797339	2.935178	99
Es	0.771329	1.422971	0.215169	99
Es	-1.095812	-0.641388	-0.334427	99
Es	1.836963	0.690763	-3.109906	99
Es	1.635531	0.852345	-2.427348	99
Es	-0.833319	-0.941809	2.271215	99
Es	0.892622	0.726172	-2.211762	99
Es	0.729658	0.971897	0.079926	99
Es	0.448374	1.292113	-0.064997	99
Es	-1.013454	-1.642586	2.073113	99
Es	-0.669187	-0.197809	-0.041740	99
Es	-1.736273	-0.018017	1.280543	99
Es	-1.363109	0.012842	1.300390	99
Es	-0.388291	0.119651	-0.184969	99
Es	2.004927	1.376817	-2.099706	99
Es	1.017951	1.586688	0.057149	99
Es	0.623807	1.422707	0.483319	99
Es	1.299093	0.294440	-1.984574	99
Es	-1.103330	-0.394842	1.702425	99
Es	0.226316	0.542103	-0.442197	99
Es	0.416942	0.358281	-1.143750	99
Es	-0.820803	-0.236791	0.020159	99
Es	-1.056080	-0.125850	0.650731	99
42
Properties=species:S:1:pos:R:3:Z:I:1 energy=-339.96630017871985 field_type=dipole dipole="0.000000 0.000000 0.000000" charge=0
C	-0.833258	-0.941892	2.271301	6
N	-1.363828	0.012818	1.300441	7
N	-0.820938	-0.236662	0.019981	7
C	0.226452	0.542228	-0.442209	6
O	0.771492	1.423218	0.215341	8
C	0.626202	0.201198	-1.831979	6
C	1.635472	0.852318	-2.427289	6
H	-1.269218	-0.742812	3.254681	1
H	0.255312	-0.860862	2.358871	1
H	-1.091888	-1.968492	1.992331	1
H	-1.046958	0.952148	1.580341	1
H	-1.296658	-0.901102	-0.582799	1
H	0.090162	-0.580982	-2.351669	1
H	2.183062	1.639498	-1.916209	1
H	1.934592	0.609378	-3.441139	1
Es	-0.821023	-0.236566	0.020047	99
Es	0.626112	0.201152	-1.831890	99
Es	0.226313	0.542107	-0.442198	99
Es	0.251601	-0.336570	-2.172375	99
Es	1.836707	0.690854	-3.109903	99
Es	-1.152056	0.555316	1.464057	99
Es	-1.132290	-0.797283	2.935082	99
Es	0.417324	0.358131	-1.143579	99
Es	-1.013585	-1.642579	2.073168	99
Es	-0.671737	-0.195357	-0.042793	99
Es	-1.095791	-0.641321	-0.334369	99
Es	-1.363109	0.012871	1.300411	99
Es	-0.386295	0.118046	-0.184048	99
Es	2.005030	1.376892	-2.099763	99
Es	0.721166	0.968200	0.076113	99
Es	-1.103683	-0.394697	1.701923	99
Es	-0.084659	-0.888423	2.329678	99
Es	0.454294	1.297050	-0.059496	99
Es	0.892533	0.726253	-2.211410	99
Es	-1.736935	-0.018030	1.280678	99
Es	-0.833320	-0.941808	2.271215	99
Es	1.299207	0.294522	-1.984940	99
Es	1.635531	0.852345	-2.427348	99
Es	1.019821	1.584557	0.055559	99
Es	0.771348	1.422990	0.215167	99
Es	0.624393	1.423445	0.483074	99
Es	-1.055377	-0.127086	0.651236	99
42
Properties=species:S:1:pos:R:3:Z:I:1 energy=-339.96630017871985 field_type=dipole dipole="0.000000 0.000000 0.000000" charge=0
C	-0.833258	-0.941892	2.271301	6
N	-1.363828	0.012818	1.300441	7
N	-0.820938	-0.236662	0.019981	7
C	0.226452	0.542228	-0.442209	6
O	0.771492	1.423218	0.215341	8
C	0.626202	0.201198	-1.831979	6
C	1.635472	0.852318	-2.427289	6
H	-1.269218	-0.742812	3.254681	1
H	0.255312	-0.860862	2.358871	1
H	-1.091888	-1.968492	1.992331	1
H	-1.046958	0.952148	1.580341	1
H	-1.296658	-0.901102	-0.582799	1
H	0.090162	-0.580982	-2.351669	1
H	2.183062	1.639498	-1.916209	1
H	1.934592	0.609378	-3.441139	1
Es	1.635531	0.852345	-2.427348	99
Es	-1.738527	-0.020250	1.281831	99
Es	1.019092	1.586729	0.055544	99
Es	-0.084519	-0.888333	2.329595	99
Es	0.893171	0.726435	-2.211718	99
Es	-1.132190	-0.797135	2.934854	99
Es	-1.054508	-0.127702	0.651697	99
Es	-1.013871	-1.642642	2.073279	99
Es	0.455539	1.295874	-0.058219	99
Es	-0.671727	-0.195272	-0.042670	99
Es	-1.102760	-0.392573	1.700296	99
Es	2.005087	1.377116	-2.100000	99
Es	0.623431	1.420839	0.483418	99
Es	-1.363086	0.012861	1.300404	99
Es	0.417548	0.358085	-1.143486	99
Es	0.626111	0.201152	-1.831892	99
Es	0.721580	0.969615	0.074290	99
Es	-0.833319	-0.941808	2.271215	99
Es	1.298521	0.294619	-1.984586	99
Es	0.771361	1.423004	0.215199	99
Es	0.226315	0.542104	-0.442199	99
Es	-1.095526	-0.641516	-0.334129	99
Es	0.251699	-0.336795	-2.172266	99
Es	1.836410	0.690808	-3.109849	99
Es	-1.151789	0.555168	1.464452	99
Es	-0.821211	-0.236267	0.019878	99
Es	-0.386841	0.118549	-0.184297	99
42
Properties=species:S:1:pos:R:3:Z:I:1 energy=-339.96630017871985 field_type=dipole dipole="0.000000 0.000000 0.000000" charge=0
C	-0.833258	-0.941892	2.271301	6
N	-1.363828	0.012818	1.300441	7
N	-0.820938	-0.236662	0.019981	7
C	0.226452	0.542228	-0.442209	6
O	0.771492	1.423218	0.215341	8
C	0.626202	0.201198	-1.831979	6
C	1.635472	0.852318	-2.427289	6
H	-1.269218	-0.742812	3.254681	1
H	0.255312	-0.860862	2.358871	1
H	-1.091888	-1.968492	1.992331	1
H	-1.046958	0.952148	1.580341	1
H	-1.296658	-0.901102	-0.582799	1
H	0.090162	-0.580982	-2.351669	1
H	2.183062	1.639498	-1.916209	1
H	1.934592	0.609378	-3.441139	1
Es	-1.132362	-0.797136	2.934776	99
Es	0.771337	1.422977	0.215166	99
Es	1.298186	0.294438	-1.984559	99
Es	-1.363096	0.012883	1.300412	99
Es	0.417793	0.358089	-1.143509	99
Es	0.458050	1.296439	-0.056238	99
Es	-0.833320	-0.941808	2.271216	99
Es	0.626115	0.201149	-1.831889	99
Es	-0.820964	-0.236636	0.020081	99
Es	0.893476	0.726572	-2.211925	99
Es	0.226315	0.542103	-0.442196	99
Es	-0.673191	-0.193537	-0.043421	99
Es	-0.386779	0.118498	-0.184367	99
Es	-1.053795	-0.128409	0.652050	99
Es	0.251685	-0.336868	-2.172138	99
Es	-1.151580	0.554918	1.464462	99
Es	-1.013886	-1.642562	2.073223	99
Es	-1.739990	-0.022257	1.283235	99
Es	-0.084435	-0.888265	2.329662	99
Es	1.836311	0.691066	-3.109870	99
Es	0.718872	0.968800	0.073639	99
Es	1.019688	1.586775	0.055216	99
Es	-1.101472	-0.390635	1.698833	99
Es	0.623018	1.420935	0.482409	99
Es	2.005017	1.377134	-2.099943	99
Es	-1.095002	-0.641998	-0.333681	99
Es	1.635531	0.852345	-2.427348	99
42
Properties=species:S:1:pos:R:3:Z:I:1 energy=-339.96630017871985 field_type=dipole dipole="0.000000 0.000000 0.000000" charge=0
C	-0.833258	-0.941892	2.271301	6
N	-1.363828	0.012818	1.300441	7
N	-0.820938	-0.236662	0.019981	7
C	0.226452	0.542228	-0.442209	6
O	0.771492	1.423218	0.215341	8
C	0.626202	0.201198	-1.831979	6
C	1.635472	0.852318	-2.427289	6
H	-1.269218	-0.742812	3.254681	1
H	0.255312	-0.860862	2.358871	1
H	-1.091888	-1.968492	1.992331	1
H	-1.046958	0.952148	1.580341	1
H	-1.296658	-0.901102	-0.582799	1
H	0.090162	-0.580982	-2.351669	1
H	2.183062	1.639498	-1.916209	1
H	1.934592	0.609378	-3.441139	1
Es	-0.084268	-0.888039	2.329642	99
Es	0.464219	1.300151	-0.050664	99
Es	-1.740475	-0.022255	1.283300	99
Es	0.710904	0.966306	0.069014	99
Es	-0.833319	-0.941809	2.271216	99
Es	-1.101507	-0.390625	1.698737	99
Es	0.623874	1.421168	0.482971	99
Es	-1.053237	-0.129012	0.652367	99
Es	0.251453	-0.336721	-2.172136	99
Es	1.298200	0.294218	-1.984575	99
Es	1.020587	1.585151	0.053558	99
Es	1.836062	0.691125	-3.109736	99
Es	-0.673703	-0.193048	-0.043489	99
Es	0.626111	0.201154	-1.831890	99
Es	-1.095422	-0.641472	-0.333831	99
Es	-0.386230	0.118007	-0.184211	99
Es	0.893602	0.726825	-2.211839	99
Es	2.005208	1.377177	-2.100082	99
Es	0.226313	0.542105	-0.442199	99
Es	-0.821051	-0.236533	0.020035	99
Es	1.635531	0.852346	-2.427348	99
Es	-1.363064	0.012849	1.300403	99
Es	0.771364	1.423006	0.215183	99
Es	-1.151199	0.554631	1.464531	99
Es	-1.014064	-1.642631	2.073313	99
Es	0.417993	0.357974	-1.143477	99
Es	-1.132359	-0.797037	2.934501	99
42
Properties=species:S:1:pos:R:3:Z:I:1 energy=-339.96630017871985 field_type=dipole dipole="0.000000 0.000000 0.000000" charge=0
C	-0.833258	-0.941892	2.271301	6
N	-1.363828	0.012818	1.300441	7
N	-0.820938	-0.236662	0.019981	7
C	0.226452	0.542228	-0.442209	6
O	0.771492	1.423218	0.215341	8
C	0.626202	0.201198	-1.831979	6
C	1.635472	0.852318	-2.427289	6
H	-1.269218	-0.742812	3.254681	1
H	0.255312	-0.860862	2.358871	1
H	-1.091888	-1.968492	1.992331	1
H	-1.046958	0.952148	1.580341	1
H	-1.296658	-0.901102	-0.582799	1
H	0.090162	-0.580982	-2.351669	1
H	2.183062	1.639498	-1.916209	1
H	1.934592	0.609378	-3.441139	1
Es	2.005306	1.377192	-2.100295	99
Es	0.418176	0.357889	-1.143548	99
Es	-1.150877	0.554347	1.464393	99
Es	-1.363083	0.012855	1.300398	99
Es	0.771333	1.422973	0.215158	99
Es	1.298185	0.294045	-1.984460	99
Es	0.471184	1.304082	-0.044973	99
Es	-0.820866	-0.236733	0.020129	99
Es	-0.385873	0.117765	-0.184063	99
Es	-0.833320	-0.941807	2.271215	99
Es	-1.132253	-0.797132	2.934486	99
Es	-1.095494	-0.641067	-0.333949	99
Es	0.251485	-0.336764	-2.171929	99
Es	0.624537	1.419836	0.483066	99
Es	1.835884	0.691213	-3.109615	99
Es	-1.052787	-0.129818	0.652815	99
Es	-1.100682	-0.388620	1.697202	99
Es	0.702039	0.964317	0.062570	99
Es	-0.084242	-0.888291	2.329724	99
Es	0.893531	0.727162	-2.212023	99
Es	1.635531	0.852345	-2.427348	99
Es	1.021796	1.584423	0.054172	99
Es	-1.014065	-1.642542	2.073538	99
Es	-0.674563	-0.192129	-0.043747	99
Es	0.626114	0.201150	-1.831889	99
Es	-1.741787	-0.023785	1.284465	99
Es	0.226312	0.542105	-0.442199	99
