46
Properties=species:S:1:pos:R:3:Z:I:1 energy=-325.1114453157055 field_type=dipole dipole="0.000000 0.000000 0.000000" charge=0
C	-1.207580	-2.674438	-0.986077	6
O	-1.355980	-1.371318	-0.441217	8
C	-0.096050	-0.715958	-0.197527	6
C	0.239930	0.421772	-1.122007	6
C	-0.215340	0.706832	0.286173	6
C	0.733320	1.216392	1.318263	6
N	0.650480	2.667652	1.336283	7
H	-2.202020	-3.080348	-1.189367	1
H	-0.701940	-3.326548	-0.267597	1
H	-0.642880	-2.635538	-1.922257	1
H	0.723570	-1.306288	0.201873	1
H	-0.450790	0.644272	-1.927237	1
H	1.281720	0.575232	-1.375327	1
H	-1.221820	1.084492	0.435033	1
H	1.763450	0.906472	1.109653	1
H	0.455640	0.820832	2.300743	1
H	0.929890	3.032222	0.427583	1
H	1.316400	3.034262	2.013003	1
Es	-0.215250	0.706707	0.286029	99
Es	0.544659	0.946467	1.991713	99
Es	-0.890381	0.956259	0.375777	99
Es	0.038939	0.755804	-0.455002	99
Es	0.651022	2.667476	1.336154	99
Es	0.458901	-1.127773	0.070886	99
Es	-0.854042	-1.154992	-0.360207	99
Es	0.239898	0.421732	-1.121850	99
Es	0.323660	2.774310	1.414150	99
Es	-0.852310	-3.125971	-0.495428	99
Es	1.071738	2.878813	1.737618	99
Es	0.130022	-0.269520	-0.808982	99
Es	0.952097	0.529961	-1.285672	99
Es	-1.261506	-1.862261	-0.651724	99
Es	0.272565	0.948714	0.787518	99
Es	-0.226185	0.566987	-1.662870	99
Es	-1.481901	-1.414245	-0.165468	99
Es	-0.096250	-0.715892	-0.197616	99
Es	0.733305	1.216527	1.318242	99
Es	-1.355695	-1.371452	-0.441304	99
Es	-0.813874	-2.652690	-1.629036	99
Es	-1.489775	-1.199566	-0.656518	99
Es	1.447018	0.988723	1.167368	99
Es	0.713917	2.039856	1.323564	99
Es	-0.203418	-0.069799	0.212734	99
Es	-1.207597	-2.674225	-0.985986	99
Es	0.839967	2.873905	0.786729	99
Es	-1.883897	-2.951063	-1.124507	99
46
Properties=species:S:1:pos:R:3:Z:I:1 energy=-325.1114453157055 field_type=dipole dipole="0.000000 0.000000 0.000000" charge=0
C	-1.207580	-2.674438	-0.986077	6
O	-1.355980	-1.371318	-0.441217	8
C	-0.096050	-0.715958	-0.197527	6
C	0.239930	0.421772	-1.122007	6
C	-0.215340	0.706832	0.286173	6
C	0.733320	1.216392	1.318263	6
N	0.650480	2.667652	1.336283	7
H	-2.202020	-3.080348	-1.189367	1
H	-0.701940	-3.326548	-0.267597	1
H	-0.642880	-2.635538	-1.922257	1
H	0.723570	-1.306288	0.201873	1
H	-0.450790	0.644272	-1.927237	1
H	1.281720	0.575232	-1.375327	1
H	-1.221820	1.084492	0.435033	1
H	1.763450	0.906472	1.109653	1
H	0.455640	0.820832	2.300743	1
H	0.929890	3.032222	0.427583	1
H	1.316400	3.034262	2.013003	1
Es	-1.261427	-1.863081	-0.652854	99
Es	-0.889662	0.956104	0.375891	99
Es	0.713204	2.038859	1.324219	99
Es	1.446348	0.988877	1.167118	99
Es	0.951315	0.530184	-1.285939	99
Es	-1.207598	-2.674230	-0.985990	99
Es	0.651026	2.667471	1.336153	99
Es	0.239898	0.421729	-1.121849	99
Es	0.733305	1.216527	1.318243	99
Es	0.544682	0.945862	1.992070	99
Es	0.327120	2.773056	1.412910	99
Es	0.458540	-1.127615	0.070532	99
Es	1.069532	2.880048	1.738857	99
Es	-1.355659	-1.371489	-0.441225	99
Es	-1.883312	-2.950868	-1.124138	99
Es	-0.215254	0.706700	0.286034	99
Es	-0.225559	0.566781	-1.662459	99
Es	0.130432	-0.270986	-0.809419	99
Es	0.272643	0.948886	0.787406	99
Es	-0.855051	-1.154050	-0.362515	99
Es	-0.096246	-0.715898	-0.197630	99
Es	-0.813832	-2.652944	-1.629592	99
Es	0.038749	0.757809	-0.454885	99
Es	-0.852782	-3.126106	-0.495398	99
Es	0.839490	2.875322	0.785940	99
Es	-1.486629	-1.201722	-0.655180	99
Es	-1.484056	-1.412073	-0.163278	99
Es	-0.203590	-0.070361	0.213292	99
46
Properties=species:S:1:pos:R:3:Z:I:1 energy=-325.1114453157055 field_type=dipole dipole="0.000000 0.000000 0.000000" charge=0
C	-1.207580	-2.674438	-0.986077	6
O	-1.355980	-1.371318	-0.441217	8
C	-0.096050	-0.715958	-0.197527	6
C	0.239930	0.421772	-1.122007	6
C	-0.215340	0.706832	0.286173	6
C	0.733320	1.216392	1.318263	6
N	0.650480	2.667652	1.336283	7
H	-2.202020	-3.080348	-1.189367	1
H	-0.701940	-3.326548	-0.267597	1
H	-0.642880	-2.635538	-1.922257	1
H	0.723570	-1.306288	0.201873	1
H	-0.450790	0.644272	-1.927237	1
H	1.281720	0.575232	-1.375327	1
H	-1.221820	1.084492	0.435033	1
H	1.763450	0.906472	1.109653	1
H	0.455640	0.820832	2.300743	1
H	0.929890	3.032222	0.427583	1
H	1.316400	3.034262	2.013003	1
Es	0.272712	0.949041	0.787198	99
Es	-0.096251	-0.715903	-0.197620	99
Es	0.458235	-1.127478	0.070196	99
Es	-1.261463	-1.863823	-0.652498	99
Es	0.733305	1.216525	1.318242	99
Es	-0.889086	0.956093	0.375972	99
Es	-0.853193	-3.126207	-0.495378	99
Es	0.329221	2.772450	1.412439	99
Es	0.950891	0.530179	-1.285907	99
Es	-0.203829	-0.070904	0.214226	99
Es	-1.355665	-1.371485	-0.441269	99
Es	0.838800	2.876041	0.785590	99
Es	-0.813842	-2.653209	-1.630081	99
Es	-0.215252	0.706707	0.286039	99
Es	0.544743	0.945533	1.992217	99
Es	1.068796	2.880680	1.739366	99
Es	0.130594	-0.271520	-0.809851	99
Es	0.239896	0.421724	-1.121848	99
Es	-1.485821	-1.409997	-0.162462	99
Es	-1.882846	-2.950658	-1.123768	99
Es	-1.484255	-1.203120	-0.655275	99
Es	0.650993	2.667483	1.336159	99
Es	1.445947	0.988968	1.167003	99
Es	-0.224873	0.566566	-1.662306	99
Es	-0.855509	-1.153922	-0.363493	99
Es	0.038393	0.758907	-0.455046	99
Es	0.712581	2.038356	1.324460	99
Es	-1.207597	-2.674233	-0.985990	99
46
Properties=species:S:1:pos:R:3:Z:I:1 energy=-325.1114453157055 field_type=dipole dipole="0.000000 0.000000 0.000000" charge=0
C	-1.207580	-2.674438	-0.986077	6
O	-1.355980	-1.371318	-0.441217	8
C	-0.096050	-0.715958	-0.197527	6
C	0.239930	0.421772	-1.122007	6
C	-0.215340	0.706832	0.286173	6
C	0.733320	1.216392	1.318263	6
N	0.650480	2.667652	1.336283	7
H	-2.202020	-3.080348	-1.189367	1
H	-0.701940	-3.326548	-0.267597	1
H	-0.642880	-2.635538	-1.922257	1
H	0.723570	-1.306288	0.201873	1
H	-0.450790	0.644272	-1.927237	1
H	1.281720	0.575232	-1.375327	1
H	-1.221820	1.084492	0.435033	1
H	1.763450	0.906472	1.109653	1
H	0.455640	0.820832	2.300743	1
H	0.929890	3.032222	0.427583	1
H	1.316400	3.034262	2.013003	1
Es	-0.813932	-2.653306	-1.630348	99
Es	-0.215254	0.706698	0.286043	99
Es	-0.888839	0.955991	0.375989	99
Es	-1.485847	-1.409838	-0.161406	99
Es	0.330756	2.772373	1.411472	99
Es	-0.096252	-0.715903	-0.197620	99
Es	-1.882481	-2.950477	-1.123627	99
Es	0.839357	2.876495	0.785389	99
Es	-0.203879	-0.070863	0.214352	99
Es	0.038474	0.759671	-0.454705	99
Es	0.711745	2.037891	1.324888	99
Es	-0.853360	-3.126367	-0.495279	99
Es	0.457972	-1.127320	0.070220	99
Es	0.130997	-0.272609	-0.810482	99
Es	1.067548	2.880936	1.740032	99
Es	-0.855633	-1.153576	-0.364722	99
Es	-1.483814	-1.203721	-0.654061	99
Es	0.544632	0.945306	1.992311	99
Es	0.272660	0.949139	0.787163	99
Es	1.445716	0.988967	1.166956	99
Es	0.239892	0.421725	-1.121842	99
Es	0.733305	1.216526	1.318243	99
Es	0.950412	0.530333	-1.286063	99
Es	-1.207597	-2.674234	-0.985989	99
Es	-1.261701	-1.863724	-0.653487	99
Es	-0.224631	0.566678	-1.661975	99
Es	-1.355658	-1.371465	-0.441292	99
Es	0.651039	2.667466	1.336155	99
46
Properties=species:S:1:pos:R:3:Z:I:1 energy=-325.1114453157055 field_type=dipole dipole="0.000000 0.000000 0.000000" charge=0
C	-1.207580	-2.674438	-0.986077	6
O	-1.355980	-1.371318	-0.441217	8
C	-0.096050	-0.715958	-0.197527	6
C	0.239930	0.421772	-1.122007	6
C	-0.215340	0.706832	0.286173	6
C	0.733320	1.216392	1.318263	6
N	0.650480	2.667652	1.336283	7
H	-2.202020	-3.080348	-1.189367	1
H	-0.701940	-3.326548	-0.267597	1
H	-0.642880	-2.635538	-1.922257	1
H	0.723570	-1.306288	0.201873	1
H	-0.450790	0.644272	-1.927237	1
H	1.281720	0.575232	-1.375327	1
H	-1.221820	1.084492	0.435033	1
H	1.763450	0.906472	1.109653	1
H	0.455640	0.820832	2.300743	1
H	0.929890	3.032222	0.427583	1
H	1.316400	3.034262	2.013003	1
Es	-1.482775	-1.205002	-0.653794	99
Es	0.733305	1.216527	1.318242	99
Es	-0.203943	-0.071093	0.214516	99
Es	0.457880	-1.127298	0.070136	99
Es	-0.853465	-3.126235	-0.495382	99
Es	-1.207597	-2.674235	-0.985990	99
Es	-0.215252	0.706706	0.286037	99
Es	-0.888574	0.955940	0.375886	99
Es	-0.813844	-2.653390	-1.630462	99
Es	0.130950	-0.272932	-0.810578	99
Es	-0.856308	-1.152830	-0.365623	99
Es	-1.486588	-1.408465	-0.161020	99
Es	0.272703	0.949335	0.787217	99
Es	-1.882405	-2.950577	-1.123471	99
Es	0.651053	2.667471	1.336143	99
Es	0.950197	0.530117	-1.286181	99
Es	0.544630	0.945049	1.992504	99
Es	0.711596	2.037750	1.324902	99
Es	0.038477	0.760448	-0.454562	99
Es	-1.355636	-1.371462	-0.441377	99
Es	-0.224354	0.566578	-1.661847	99
Es	-1.261323	-1.864511	-0.653086	99
Es	0.239897	0.421719	-1.121851	99
Es	1.445419	0.989014	1.166799	99
Es	-0.096251	-0.715904	-0.197622	99
Es	0.838971	2.876931	0.785161	99
Es	1.066912	2.881463	1.740601	99
Es	0.331953	2.771682	1.411015	99
46
Properties=species:S:1:pos:R:3:Z:I:1 energy=-325.1114453157055 field_type=dipole dipole="0.000000 0.000000 0.000000" charge=0
C	-1.207580	-2.674438	-0.986077	6
O	-1.355980	-1.371318	-0.441217	8
C	-0.096050	-0.715958	-0.197527	6
C	0.239930	0.421772	-1.122007	6
C	-0.215340	0.706832	0.286173	6
C	0.733320	1.216392	1.318263	6
N	0.650480	2.667652	1.336283	7
H	-2.202020	-3.080348	-1.189367	1
H	-0.701940	-3.326548	-0.267597	1
H	-0.642880	-2.635538	-1.922257	1
H	0.723570	-1.306288	0.201873	1
H	-0.450790	0.644272	-1.927237	1
H	1.281720	0.575232	-1.375327	1
H	-1.221820	1.084492	0.435033	1
H	1.763450	0.906472	1.109653	1
H	0.455640	0.820832	2.300743	1
H	0.929890	3.032222	0.427583	1
H	1.316400	3.034262	2.013003	1
Es	0.272829	0.949592	0.787195	99
Es	1.066471	2.881526	1.740663	99
Es	0.130921	-0.273048	-0.810587	99
Es	-0.204068	-0.071482	0.215001	99
Es	-0.888224	0.955902	0.375814	99
Es	0.239894	0.421723	-1.121849	99
Es	-0.224101	0.566415	-1.661676	99
Es	1.445243	0.989096	1.166686	99
Es	-1.355685	-1.371475	-0.441276	99
Es	0.838976	2.877296	0.785194	99
Es	0.332534	2.771593	1.410854	99
Es	-1.207596	-2.674234	-0.985990	99
Es	-1.487381	-1.407561	-0.160450	99
Es	-0.853667	-3.126518	-0.495222	99
Es	-1.882029	-2.950284	-1.123454	99
Es	-1.481375	-1.204722	-0.654227	99
Es	0.651008	2.667485	1.336156	99
Es	-0.215255	0.706710	0.286043	99
Es	0.544721	0.944831	1.992520	99
Es	0.038244	0.760866	-0.454772	99
Es	-0.096254	-0.715900	-0.197615	99
Es	-0.813955	-2.653472	-1.630657	99
Es	0.733306	1.216525	1.318241	99
Es	-1.261620	-1.864647	-0.653262	99
Es	0.711470	2.037506	1.325039	99
Es	0.457775	-1.127265	0.069863	99
Es	0.950043	0.530148	-1.286260	99
Es	-0.856600	-1.153813	-0.365657	99
46
Properties=species:S:1:pos:R:3:Z:I:1 energy=-325.1114453157055 field_type=dipole dipole="0.000000 0.000000 0.000000" charge=0
C	-1.207580	-2.674438	-0.986077	6
O	-1.355980	-1.371318	-0.441217	8
C	-0.096050	-0.715958	-0.197527	6
C	0.239930	0.421772	-1.122007	6
C	-0.215340	0.706832	0.286173	6
C	0.733320	1.216392	1.318263	6
N	0.650480	2.667652	1.336283	7
H	-2.202020	-3.080348	-1.189367	1
H	-0.701940	-3.326548	-0.267597	1
H	-0.642880	-2.635538	-1.922257	1
H	0.723570	-1.306288	0.201873	1
H	-0.450790	0.644272	-1.927237	1
H	1.281720	0.575232	-1.375327	1
H	-1.221820	1.084492	0.435033	1
H	1.763450	0.906472	1.109653	1
H	0.455640	0.820832	2.300743	1
H	0.929890	3.032222	0.427583	1
H	1.316400	3.034262	2.013003	1
Es	1.445111	0.989127	1.166765	99
Es	0.839018	2.877418	0.785089	99
Es	-1.881860	-2.950199	-1.123283	99
Es	-0.096252	-0.715905	-0.197619	99
Es	0.544713	0.944787	1.992549	99
Es	0.130954	-0.273447	-0.810697	99
Es	0.239898	0.421725	-1.121849	99
Es	0.333414	2.771350	1.410275	99
Es	0.711151	2.037306	1.325258	99
Es	0.949918	0.530248	-1.286202	99
Es	-0.888142	0.955993	0.375890	99
Es	-0.223918	0.566473	-1.661588	99
Es	-0.204144	-0.071419	0.215221	99
Es	0.457740	-1.127181	0.069762	99
Es	0.038285	0.761093	-0.454858	99
Es	-0.813997	-2.653560	-1.630866	99
Es	-1.481322	-1.205799	-0.653536	99
Es	-0.215250	0.706708	0.286032	99
Es	-0.853790	-3.126542	-0.495225	99
Es	1.065867	2.881941	1.741064	99
Es	-1.355660	-1.371480	-0.441333	99
Es	-0.856821	-1.152845	-0.366370	99
Es	-1.487532	-1.407330	-0.160293	99
Es	-1.207597	-2.674234	-0.985990	99
Es	0.733305	1.216527	1.318242	99
Es	0.272778	0.949390	0.787034	99
Es	0.651029	2.667470	1.336151	99
Es	-1.261268	-1.864824	-0.653305	99
46
Properties=species:S:1:pos:R:3:Z:I:1 energy=-325.1114453157055 field_type=dipole dipole="0.000000 0.000000 0.000000" charge=0
C	-1.207580	-2.674438	-0.986077	6
O	-1.355980	-1.371318	-0.441217	8
C	-0.096050	-0.715958	-0.197527	6
C	0.239930	0.421772	-1.122007	6
C	-0.215340	0.706832	0.286173	6
C	0.733320	1.216392	1.318263	6
N	0.650480	2.667652	1.336283	7
H	-2.202020	-3.080348	-1.189367	1
H	-0.701940	-3.326548	-0.267597	1
H	-0.642880	-2.635538	-1.922257	1
H	0.723570	-1.306288	0.201873	1
H	-0.450790	0.644272	-1.927237	1
H	1.281720	0.575232	-1.375327	1
H	-1.221820	1.084492	0.435033	1
H	1.763450	0.906472	1.109653	1
H	0.455640	0.820832	2.300743	1
H	0.929890	3.032222	0.427583	1
H	1.316400	3.034262	2.013003	1
Es	1.444979	0.989131	1.166752	99
Es	-1.207597	-2.674234	-0.985991	99
Es	0.038176	0.761496	-0.454576	99
Es	-1.261273	-1.865124	-0.652541	99
Es	0.949718	0.530163	-1.286242	99
Es	-0.223725	0.566384	-1.661512	99
Es	0.457643	-1.127145	0.069794	99
Es	-1.481257	-1.206234	-0.653960	99
Es	0.239896	0.421728	-1.121846	99
Es	-0.204236	-0.071465	0.215311	99
Es	0.131108	-0.273697	-0.811089	99
Es	0.333400	2.770882	1.409665	99
Es	-0.096254	-0.715905	-0.197618	99
Es	0.839375	2.877505	0.785188	99
Es	-1.487428	-1.406665	-0.159960	99
Es	-0.215252	0.706703	0.286035	99
Es	-0.853838	-3.126534	-0.495208	99
Es	0.272793	0.949447	0.787025	99
Es	-1.355690	-1.371470	-0.441259	99
Es	0.544690	0.944709	1.992618	99
Es	1.065098	2.882328	1.741590	99
Es	-0.856921	-1.152728	-0.367133	99
Es	-1.881769	-2.950189	-1.123226	99
Es	0.733304	1.216529	1.318242	99
Es	0.711602	2.037377	1.325161	99
Es	-0.814006	-2.653625	-1.630920	99
Es	-0.887946	0.955961	0.375872	99
Es	0.651037	2.667465	1.336142	99
46
Properties=species:S:1:pos:R:3:Z:I:1 energy=-325.1114453157055 field_type=dipole dipole="0.000000 0.000000 0.000000" charge=0
C	-1.207580	-2.674438	-0.986077	6
O	-1.355980	-1.371318	-0.441217	8
C	-0.096050	-0.715958	-0.197527	6
C	0.239930	0.421772	-1.122007	6
C	-0.215340	0.706832	0.286173	6
C	0.733320	1.216392	1.318263	6
N	0.650480	2.667652	1.336283	7
H	-2.202020	-3.080348	-1.189367	1
H	-0.701940	-3.326548	-0.267597	1
H	-0.642880	-2.635538	-1.922257	1
H	0.723570	-1.306288	0.201873	1
H	-0.450790	0.644272	-1.927237	1
H	1.281720	0.575232	-1.375327	1
H	-1.221820	1.084492	0.435033	1
H	1.763450	0.906472	1.109653	1
H	0.455640	0.820832	2.300743	1
H	0.929890	3.032222	0.427583	1
H	1.316400	3.034262	2.013003	1
Es	1.065199	2.882155	1.741385	99
Es	0.651029	2.667472	1.336150	99
Es	0.272758	0.949605	0.787232	99
Es	0.544678	0.944648	1.992617	99
Es	0.949612	0.530236	-1.286240	99
Es	0.038320	0.761482	-0.454806	99
Es	-0.857181	-1.151511	-0.368560	99
Es	0.838918	2.877906	0.784981	99
Es	-1.261204	-1.865000	-0.653716	99
Es	-0.813934	-2.653719	-1.631101	99
Es	-0.223664	0.566493	-1.661423	99
Es	-0.215251	0.706709	0.286036	99
Es	-1.355638	-1.371456	-0.441365	99
Es	-1.485472	-1.407807	-0.159431	99
Es	1.444932	0.989082	1.166667	99
Es	-1.483051	-1.206435	-0.651743	99
Es	-0.096250	-0.715904	-0.197626	99
Es	0.131103	-0.273905	-0.811044	99
Es	-1.881590	-2.950093	-1.123115	99
Es	0.239897	0.421728	-1.121850	99
Es	0.457553	-1.127117	0.069663	99
Es	-0.854067	-3.126557	-0.495212	99
Es	-0.204234	-0.071463	0.215587	99
Es	-0.887925	0.955875	0.375739	99
Es	0.711401	2.037260	1.325186	99
Es	0.333981	2.770812	1.410048	99
Es	-1.207597	-2.674231	-0.985989	99
Es	0.733306	1.216527	1.318242	99
46
Properties=species:S:1:pos:R:3:Z:I:1 energy=-325.1114453157055 field_type=dipole dipole="0.000000 0.000000 0.000000" charge=0
C	-1.207580	-2.674438	-0.986077	6
O	-1.355980	-1.371318	-0.441217	8
C	-0.096050	-0.715958	-0.197527	6
C	0.239930	0.421772	-1.122007	6
C	-0.215340	0.706832	0.286173	6
C	0.733320	1.216392	1.318263	6
N	0.650480	2.667652	1.336283	7
H	-2.202020	-3.080348	-1.189367	1
H	-0.701940	-3.326548	-0.267597	1
H	-0.642880	-2.635538	-1.922257	1
H	0.723570	-1.306288	0.201873	1
H	-0.450790	0.644272	-1.927237	1
H	1.281720	0.575232	-1.375327	1
H	-1.221820	1.084492	0.435033	1
H	1.763450	0.906472	1.109653	1
H	0.455640	0.820832	2.300743	1
H	0.929890	3.032222	0.427583	1
H	1.316400	3.034262	2.013003	1
Es	-1.355699	-1.371466	-0.441278	99
Es	0.239897	0.421727	-1.121849	99
Es	-0.854062	-3.126631	-0.495178	99
Es	-0.096252	-0.715902	-0.197620	99
Es	-1.261236	-1.865086	-0.653603	99
Es	0.334572	2.770741	1.409550	99
Es	0.733306	1.216524	1.318243	99
Es	0.839038	2.877845	0.784966	99
Es	-1.207597	-2.674233	-0.985989	99
Es	-1.480809	-1.206545	-0.652843	99
Es	0.131037	-0.274069	-0.811065	99
Es	-1.487487	-1.406667	-0.159396	99
Es	-0.223548	0.566445	-1.661323	99
Es	0.457606	-1.127141	0.069610	99
Es	1.444875	0.989117	1.166735	99
Es	-0.204251	-0.071531	0.215592	99
Es	0.544647	0.944624	1.992631	99
Es	0.038298	0.761916	-0.454769	99
Es	0.272781	0.949481	0.786944	99
Es	-0.887867	0.955923	0.375940	99
Es	-0.215252	0.706706	0.286039	99
Es	0.711075	2.037076	1.325426	99
Es	0.651035	2.667488	1.336149	99
Es	-1.881488	-2.950053	-1.123140	99
Es	-0.857306	-1.152422	-0.367682	99
Es	-0.813996	-2.653719	-1.631105	99
Es	1.064827	2.882477	1.741641	99
Es	0.949484	0.530168	-1.286313	99
46
Properties=species:S:1:pos:R:3:Z:I:1 energy=-325.1114453157055 field_type=dipole dipole="0.000000 0.000000 0.000000" charge=0
C	-1.207580	-2.674438	-0.986077	6
O	-1.355980	-1.371318	-0.441217	8
C	-0.096050	-0.715958	-0.197527	6
C	0.239930	0.421772	-1.122007	6
C	-0.215340	0.706832	0.286173	6
C	0.733320	1.216392	1.318263	6
N	0.650480	2.667652	1.336283	7
H	-2.202020	-3.080348	-1.189367	1
H	-0.701940	-3.326548	-0.267597	1
H	-0.642880	-2.635538	-1.922257	1
H	0.723570	-1.306288	0.201873	1
H	-0.450790	0.644272	-1.927237	1
H	1.281720	0.575232	-1.375327	1
H	-1.221820	1.084492	0.435033	1
H	1.763450	0.906472	1.109653	1
H	0.455640	0.820832	2.300743	1
H	0.929890	3.032222	0.427583	1
H	1.316400	3.034262	2.013003	1
Es	0.457548	-1.127126	0.069613	99
Es	-0.887777	0.955995	0.375860	99
Es	-0.215254	0.706706	0.286039	99
Es	0.733305	1.216528	1.318242	99
Es	-0.814024	-2.653709	-1.631202	99
Es	0.838982	2.877859	0.784925	99
Es	-0.096253	-0.715904	-0.197620	99
Es	0.651041	2.667466	1.336147	99
Es	1.064779	2.882552	1.741715	99
Es	0.334835	2.770744	1.409460	99
Es	-0.204315	-0.071642	0.215636	99
Es	0.038335	0.762055	-0.454708	99
Es	0.544676	0.944540	1.992684	99
Es	-1.261357	-1.865686	-0.653092	99
Es	0.272838	0.949491	0.786915	99
Es	-1.207598	-2.674233	-0.985990	99
Es	-0.857547	-1.152619	-0.368065	99
Es	-1.479537	-1.207170	-0.653185	99
Es	-0.223510	0.566413	-1.661363	99
Es	0.949405	0.530108	-1.286294	99
Es	-1.881434	-2.950017	-1.123069	99
Es	-0.854057	-3.126645	-0.495133	99
Es	-1.355719	-1.371469	-0.441275	99
Es	0.710898	2.037045	1.325453	99
Es	0.131096	-0.274127	-0.811025	99
Es	0.239897	0.421727	-1.121849	99
Es	1.444768	0.989184	1.166732	99
Es	-1.488395	-1.405273	-0.159234	99
