38
Properties=species:S:1:pos:R:3:Z:I:1 energy=-358.603855999804 field_type=dipole dipole="0.000000 0.000000 0.000000" charge=0
C	-0.010653	-2.143522	0.296027	6
O	-0.877163	-1.049752	0.016777	8
C	-0.298963	0.147458	-0.064433	6
C	-0.799163	1.399567	-0.311843	6
C	0.330057	2.234278	-0.261673	6
N	1.449737	1.554328	-0.002593	7
O	1.049237	0.230188	0.122357	8
H	-0.616092	-3.053482	0.333377	1
H	0.476057	-2.019252	1.269647	1
H	0.735748	-2.264512	-0.496723	1
H	-1.829023	1.661008	-0.499603	1
H	0.390217	3.303698	-0.401313	1
Es	-0.977706	-1.064190	-0.251460	99
Es	-0.010831	-2.143304	0.295972	99
Es	-1.486057	1.579512	-0.437688	99
Es	-0.876781	-1.049630	0.016869	99
Es	0.330091	2.234285	-0.261668	99
Es	0.524360	0.217678	0.113634	99
Es	0.318907	-2.053859	0.953177	99
Es	0.359367	2.949828	-0.356766	99
Es	0.494372	-2.219559	-0.240298	99
Es	-0.606084	-0.598759	-0.008297	99
Es	-0.525908	-1.419301	0.119779	99
Es	1.449122	1.554131	-0.002656	99
Es	-1.046153	-0.992918	0.241805	99
Es	0.945147	1.858121	0.169865	99
Es	-0.271389	1.859445	-0.296647	99
Es	1.814445	1.619233	0.042468	99
Es	1.175447	0.781340	0.077855	99
Es	-0.606000	0.963861	0.089474	99
Es	1.166849	0.065635	0.341799	99
Es	-0.427596	-2.754120	0.319513	99
Es	1.048833	0.230516	0.122363	99
Es	-0.799153	1.399531	-0.311817	99
Es	-0.515556	0.885890	-0.513020	99
Es	1.011772	0.176796	-0.134601	99
Es	1.026219	1.780457	-0.386180	99
Es	-0.298761	0.147112	-0.064348	99
38
Properties=species:S:1:pos:R:3:Z:I:1 energy=-358.603855999804 field_type=dipole dipole="0.000000 0.000000 0.000000" charge=0
C	-0.010653	-2.143522	0.296027	6
O	-0.877163	-1.049752	0.016777	8
C	-0.298963	0.147458	-0.064433	6
C	-0.799163	1.399567	-0.311843	6
C	0.330057	2.234278	-0.261673	6
N	1.449737	1.554328	-0.002593	7
O	1.049237	0.230188	0.122357	8
H	-0.616092	-3.053482	0.333377	1
H	0.476057	-2.019252	1.269647	1
H	0.735748	-2.264512	-0.496723	1
H	-1.829023	1.661008	-0.499603	1
H	0.390217	3.303698	-0.401313	1
Es	-0.298761	0.147105	-0.064358	99
Es	-0.609470	-0.587897	-0.008039	99
Es	-0.515928	0.881305	-0.507202	99
Es	0.942267	1.859323	0.163901	99
Es	0.330093	2.234284	-0.261670	99
Es	-0.267296	1.860011	-0.297950	99
Es	-0.427907	-2.758040	0.319908	99
Es	0.926437	0.283707	0.128533	99
Es	1.815413	1.621948	0.042000	99
Es	1.249266	-0.020911	0.171594	99
Es	1.449110	1.554117	-0.002662	99
Es	1.022572	1.783816	-0.380771	99
Es	-0.010834	-2.143305	0.295970	99
Es	-1.043405	-0.997262	0.225532	99
Es	0.319439	-2.052859	0.949868	99
Es	1.048977	0.230470	0.122183	99
Es	0.359963	2.951857	-0.356962	99
Es	-0.529311	-1.428585	0.120658	99
Es	1.182055	0.782556	0.062382	99
Es	0.519009	0.193358	0.035606	99
Es	-1.486118	1.578467	-0.437965	99
Es	-0.799156	1.399536	-0.311840	99
Es	0.493778	-2.217683	-0.237257	99
Es	-0.603290	0.963082	0.087226	99
Es	-0.876693	-1.049646	0.016807	99
Es	-0.973252	-1.061024	-0.236364	99
38
Properties=species:S:1:pos:R:3:Z:I:1 energy=-358.603855999804 field_type=dipole dipole="0.000000 0.000000 0.000000" charge=0
C	-0.010653	-2.143522	0.296027	6
O	-0.877163	-1.049752	0.016777	8
C	-0.298963	0.147458	-0.064433	6
C	-0.799163	1.399567	-0.311843	6
C	0.330057	2.234278	-0.261673	6
N	1.449737	1.554328	-0.002593	7
O	1.049237	0.230188	0.122357	8
H	-0.616092	-3.053482	0.333377	1
H	0.476057	-2.019252	1.269647	1
H	0.735748	-2.264512	-0.496723	1
H	-1.829023	1.661008	-0.499603	1
H	0.390217	3.303698	-0.401313	1
Es	-0.298760	0.147104	-0.064349	99
Es	-0.876710	-1.049583	0.017105	99
Es	-0.620215	-0.578525	0.016502	99
Es	0.930013	0.278016	0.099319	99
Es	-0.265680	1.860173	-0.299174	99
Es	1.245892	-0.019675	0.193850	99
Es	1.449116	1.554138	-0.002658	99
Es	1.180685	0.783260	0.065753	99
Es	0.330092	2.234285	-0.261665	99
Es	0.320077	-2.052588	0.948690	99
Es	-0.516600	0.868049	-0.503616	99
Es	-0.847830	-1.018752	-0.170975	99
Es	0.940210	1.859883	0.161180	99
Es	-0.427615	-2.759593	0.319509	99
Es	-0.534253	-1.432980	0.129689	99
Es	0.492623	-2.216947	-0.235549	99
Es	-0.599148	0.974184	0.085930	99
Es	-0.799164	1.399544	-0.311830	99
Es	0.360050	2.952631	-0.357306	99
Es	-1.485415	1.578107	-0.439157	99
Es	-1.152603	-1.044350	0.126143	99
Es	0.519346	0.194423	0.039596	99
Es	1.048752	0.230594	0.122460	99
Es	1.814284	1.622888	0.045242	99
Es	-0.010834	-2.143298	0.295965	99
Es	1.020642	1.786744	-0.381530	99
38
Properties=species:S:1:pos:R:3:Z:I:1 energy=-358.603855999804 field_type=dipole dipole="0.000000 0.000000 0.000000" charge=0
C	-0.010653	-2.143522	0.296027	6
O	-0.877163	-1.049752	0.016777	8
C	-0.298963	0.147458	-0.064433	6
C	-0.799163	1.399567	-0.311843	6
C	0.330057	2.234278	-0.261673	6
N	1.449737	1.554328	-0.002593	7
O	1.049237	0.230188	0.122357	8
H	-0.616092	-3.053482	0.333377	1
H	0.476057	-2.019252	1.269647	1
H	0.735748	-2.264512	-0.496723	1
H	-1.829023	1.661008	-0.499603	1
H	0.390217	3.303698	-0.401313	1
Es	-0.799154	1.399536	-0.311852	99
Es	0.928306	0.277342	0.104423	99
Es	1.245914	-0.021534	0.190228	99
Es	0.319957	-2.052519	0.947904	99
Es	-0.513709	0.871574	-0.505311	99
Es	-0.876665	-1.049492	0.017197	99
Es	-0.622620	-0.574754	-0.000400	99
Es	-0.427559	-2.759941	0.320005	99
Es	0.520459	0.195091	0.039447	99
Es	-0.265369	1.860700	-0.298546	99
Es	0.937972	1.863002	0.161833	99
Es	1.449115	1.554124	-0.002654	99
Es	-0.816708	-0.995531	-0.052850	99
Es	-0.598142	0.968521	0.087834	99
Es	1.812559	1.622136	0.044602	99
Es	1.180632	0.783239	0.064560	99
Es	-0.010836	-2.143302	0.295971	99
Es	1.020217	1.787696	-0.383215	99
Es	0.330090	2.234285	-0.261669	99
Es	0.359734	2.953040	-0.357266	99
Es	-1.484725	1.578165	-0.438399	99
Es	0.492633	-2.216888	-0.235315	99
Es	-1.180062	-1.067493	0.030039	99
Es	-0.535221	-1.436891	0.124616	99
Es	-0.298760	0.147105	-0.064350	99
Es	1.048897	0.230517	0.122295	99
38
Properties=species:S:1:pos:R:3:Z:I:1 energy=-358.603855999804 field_type=dipole dipole="0.000000 0.000000 0.000000" charge=0
C	-0.010653	-2.143522	0.296027	6
O	-0.877163	-1.049752	0.016777	8
C	-0.298963	0.147458	-0.064433	6
C	-0.799163	1.399567	-0.311843	6
C	0.330057	2.234278	-0.261673	6
N	1.449737	1.554328	-0.002593	7
O	1.049237	0.230188	0.122357	8
H	-0.616092	-3.053482	0.333377	1
H	0.476057	-2.019252	1.269647	1
H	0.735748	-2.264512	-0.496723	1
H	-1.829023	1.661008	-0.499603	1
H	0.390217	3.303698	-0.401313	1
Es	-1.174347	-1.077329	-0.034082	99
Es	-0.598500	0.960113	0.087811	99
Es	-0.427420	-2.760723	0.320636	99
Es	0.359783	2.953309	-0.357192	99
Es	-0.511113	0.878984	-0.505863	99
Es	0.928369	0.276106	0.102549	99
Es	-0.799158	1.399541	-0.311833	99
Es	1.246586	-0.023866	0.180738	99
Es	-0.535788	-1.438430	0.121398	99
Es	-0.298761	0.147103	-0.064350	99
Es	1.048889	0.230540	0.122342	99
Es	0.519491	0.197371	0.051164	99
Es	0.319167	-2.052481	0.946463	99
Es	0.330091	2.234287	-0.261671	99
Es	0.493094	-2.216502	-0.234512	99
Es	1.449118	1.554096	-0.002645	99
Es	1.017559	1.788406	-0.381447	99
Es	-0.010837	-2.143300	0.295969	99
Es	-0.821856	-0.984055	0.025622	99
Es	-0.264726	1.860951	-0.297848	99
Es	1.180432	0.783378	0.064253	99
Es	-0.622493	-0.574906	-0.011850	99
Es	-1.484871	1.578127	-0.437499	99
Es	0.937647	1.864094	0.162205	99
Es	1.813101	1.622100	0.041114	99
Es	-0.876503	-1.049184	0.017654	99
38
Properties=species:S:1:pos:R:3:Z:I:1 energy=-358.603855999804 field_type=dipole dipole="0.000000 0.000000 0.000000" charge=0
C	-0.010653	-2.143522	0.296027	6
O	-0.877163	-1.049752	0.016777	8
C	-0.298963	0.147458	-0.064433	6
C	-0.799163	1.399567	-0.311843	6
C	0.330057	2.234278	-0.261673	6
N	1.449737	1.554328	-0.002593	7
O	1.049237	0.230188	0.122357	8
H	-0.616092	-3.053482	0.333377	1
H	0.476057	-2.019252	1.269647	1
H	0.735748	-2.264512	-0.496723	1
H	-1.829023	1.661008	-0.499603	1
H	0.390217	3.303698	-0.401313	1
Es	0.359884	2.953373	-0.357978	99
Es	0.519945	0.197968	0.051716	99
Es	-0.010837	-2.143297	0.295968	99
Es	-0.876696	-1.049640	0.016879	99
Es	-0.536732	-1.438457	0.124349	99
Es	0.929952	0.273064	0.089469	99
Es	-0.427297	-2.761251	0.321247	99
Es	0.937896	1.863218	0.161730	99
Es	-0.586193	1.006478	0.078775	99
Es	1.449116	1.554104	-0.002657	99
Es	-0.263116	1.859703	-0.305056	99
Es	1.812989	1.622577	0.041868	99
Es	1.048603	0.230592	0.121804	99
Es	-1.177032	-1.072253	-0.001297	99
Es	1.243938	-0.022056	0.196575	99
Es	-1.484843	1.577729	-0.439036	99
Es	0.330092	2.234286	-0.261669	99
Es	0.493122	-2.216296	-0.234060	99
Es	1.016158	1.789729	-0.380912	99
Es	1.180669	0.783036	0.062060	99
Es	-0.298761	0.147103	-0.064345	99
Es	-0.799156	1.399540	-0.311846	99
Es	0.318915	-2.052324	0.945403	99
Es	-0.622716	-0.575013	-0.015339	99
Es	-0.817648	-0.988427	-0.005654	99
Es	-0.523295	0.834247	-0.488867	99
38
Properties=species:S:1:pos:R:3:Z:I:1 energy=-358.603855999804 field_type=dipole dipole="0.000000 0.000000 0.000000" charge=0
C	-0.010653	-2.143522	0.296027	6
O	-0.877163	-1.049752	0.016777	8
C	-0.298963	0.147458	-0.064433	6
C	-0.799163	1.399567	-0.311843	6
C	0.330057	2.234278	-0.261673	6
N	1.449737	1.554328	-0.002593	7
O	1.049237	0.230188	0.122357	8
H	-0.616092	-3.053482	0.333377	1
H	0.476057	-2.019252	1.269647	1
H	0.735748	-2.264512	-0.496723	1
H	-1.829023	1.661008	-0.499603	1
H	0.390217	3.303698	-0.401313	1
Es	0.943305	1.856982	0.163695	99
Es	-0.881641	-1.034197	-0.190379	99
Es	-0.298762	0.147100	-0.064354	99
Es	-1.120118	-1.026933	0.165355	99
Es	1.238630	-0.015494	0.223070	99
Es	1.812547	1.622452	0.045249	99
Es	-1.485306	1.576871	-0.442470	99
Es	-0.259904	1.857224	-0.316235	99
Es	1.180790	0.783162	0.063033	99
Es	0.493067	-2.216988	-0.235240	99
Es	-0.569453	0.737969	-0.351279	99
Es	-0.548576	1.116367	-0.048750	99
Es	-0.617622	-0.578593	-0.002060	99
Es	-0.876704	-1.049554	0.016997	99
Es	1.048861	0.230511	0.121949	99
Es	-0.799146	1.399530	-0.311894	99
Es	-0.427648	-2.760050	0.320722	99
Es	0.518708	0.200349	0.063527	99
Es	0.330093	2.234285	-0.261678	99
Es	1.449110	1.554115	-0.002656	99
Es	0.319496	-2.052397	0.947299	99
Es	0.932887	0.262423	0.050730	99
Es	0.360118	2.952885	-0.358842	99
Es	1.020375	1.787824	-0.381509	99
Es	-0.535316	-1.434815	0.128875	99
Es	-0.010837	-2.143298	0.295968	99
38
Properties=species:S:1:pos:R:3:Z:I:1 energy=-358.603855999804 field_type=dipole dipole="0.000000 0.000000 0.000000" charge=0
C	-0.010653	-2.143522	0.296027	6
O	-0.877163	-1.049752	0.016777	8
C	-0.298963	0.147458	-0.064433	6
C	-0.799163	1.399567	-0.311843	6
C	0.330057	2.234278	-0.261673	6
N	1.449737	1.554328	-0.002593	7
O	1.049237	0.230188	0.122357	8
H	-0.616092	-3.053482	0.333377	1
H	0.476057	-2.019252	1.269647	1
H	0.735748	-2.264512	-0.496723	1
H	-1.829023	1.661008	-0.499603	1
H	0.390217	3.303698	-0.401313	1
Es	0.928434	0.265650	0.066742	99
Es	0.360035	2.952894	-0.358437	99
Es	-0.010836	-2.143301	0.295968	99
Es	-0.614076	-0.581654	-0.011105	99
Es	1.449111	1.554118	-0.002655	99
Es	0.493694	-2.216971	-0.235485	99
Es	1.181194	0.782990	0.062022	99
Es	-0.941119	-1.053444	-0.218220	99
Es	0.318982	-2.052564	0.947297	99
Es	1.242244	-0.018652	0.207978	99
Es	1.020797	1.786446	-0.380231	99
Es	-0.876727	-1.049634	0.016881	99
Es	1.813005	1.621744	0.041780	99
Es	0.944741	1.857114	0.165513	99
Es	-1.065508	-1.005016	0.205571	99
Es	-0.298762	0.147102	-0.064354	99
Es	-0.799137	1.399521	-0.311918	99
Es	-0.537618	1.128868	-0.108369	99
Es	0.330093	2.234285	-0.261671	99
Es	-0.427767	-2.759867	0.320812	99
Es	-0.534101	-1.434367	0.125790	99
Es	-0.259437	1.857722	-0.313715	99
Es	0.518498	0.199897	0.062523	99
Es	-1.485912	1.576937	-0.440839	99
Es	1.048818	0.230567	0.122466	99
Es	-0.581692	0.727345	-0.295218	99
38
Properties=species:S:1:pos:R:3:Z:I:1 energy=-358.603855999804 field_type=dipole dipole="0.000000 0.000000 0.000000" charge=0
C	-0.010653	-2.143522	0.296027	6
O	-0.877163	-1.049752	0.016777	8
C	-0.298963	0.147458	-0.064433	6
C	-0.799163	1.399567	-0.311843	6
C	0.330057	2.234278	-0.261673	6
N	1.449737	1.554328	-0.002593	7
O	1.049237	0.230188	0.122357	8
H	-0.616092	-3.053482	0.333377	1
H	0.476057	-2.019252	1.269647	1
H	0.735748	-2.264512	-0.496723	1
H	-1.829023	1.661008	-0.499603	1
H	0.390217	3.303698	-0.401313	1
Es	0.941947	1.860923	0.163248	99
Es	0.330093	2.234285	-0.261673	99
Es	-0.799155	1.399538	-0.311862	99
Es	0.914221	0.275619	0.152333	99
Es	0.525865	0.194888	0.022946	99
Es	-0.504609	1.103401	-0.329087	99
Es	0.492877	-2.216742	-0.235200	99
Es	1.449109	1.554110	-0.002646	99
Es	1.024565	1.781928	-0.380726	99
Es	-1.486786	1.577919	-0.434815	99
Es	-0.298763	0.147100	-0.064354	99
Es	-0.263314	1.862077	-0.284324	99
Es	1.249320	-0.024901	0.156446	99
Es	1.048909	0.230505	0.122112	99
Es	-0.010835	-2.143300	0.295973	99
Es	-0.614233	-0.581393	-0.008960	99
Es	0.319680	-2.052612	0.947698	99
Es	-0.992471	-1.063044	-0.223152	99
Es	-0.610311	0.748889	-0.106154	99
Es	-0.427623	-2.760069	0.319971	99
Es	0.359593	2.953244	-0.356148	99
Es	-1.014861	-0.994543	0.215978	99
Es	1.180570	0.783575	0.066091	99
Es	-0.876801	-1.049590	0.016855	99
Es	1.813066	1.621537	0.040775	99
Es	-0.533098	-1.435612	0.117802	99
38
Properties=species:S:1:pos:R:3:Z:I:1 energy=-358.603855999804 field_type=dipole dipole="0.000000 0.000000 0.000000" charge=0
C	-0.010653	-2.143522	0.296027	6
O	-0.877163	-1.049752	0.016777	8
C	-0.298963	0.147458	-0.064433	6
C	-0.799163	1.399567	-0.311843	6
C	0.330057	2.234278	-0.261673	6
N	1.449737	1.554328	-0.002593	7
O	1.049237	0.230188	0.122357	8
H	-0.616092	-3.053482	0.333377	1
H	0.476057	-2.019252	1.269647	1
H	0.735748	-2.264512	-0.496723	1
H	-1.829023	1.661008	-0.499603	1
H	0.390217	3.303698	-0.401313	1
Es	0.359858	2.953018	-0.358314	99
Es	-0.298762	0.147103	-0.064354	99
Es	-1.485618	1.577005	-0.441370	99
Es	1.811965	1.621798	0.044202	99
Es	0.493047	-2.216955	-0.235223	99
Es	-0.876519	-1.049258	0.016988	99
Es	1.449110	1.554113	-0.002668	99
Es	0.319502	-2.052516	0.947566	99
Es	1.021699	1.786821	-0.381960	99
Es	-0.259544	1.858499	-0.310597	99
Es	0.518861	0.201559	0.068377	99
Es	1.180668	0.783406	0.064528	99
Es	-0.427640	-2.759973	0.320398	99
Es	-0.535271	1.128812	-0.117181	99
Es	-0.535308	-1.434800	0.128194	99
Es	0.330092	2.234286	-0.261673	99
Es	0.943838	1.857439	0.164794	99
Es	-0.582659	0.726562	-0.289070	99
Es	-0.799152	1.399535	-0.311874	99
Es	1.239352	-0.016692	0.219337	99
Es	-0.616571	-0.579444	-0.002734	99
Es	0.931003	0.260798	0.047076	99
Es	-0.010838	-2.143301	0.295970	99
Es	-1.094258	-1.017175	0.185176	99
Es	-0.908716	-1.043485	-0.208938	99
Es	1.048814	0.230574	0.122473	99
38
Properties=species:S:1:pos:R:3:Z:I:1 energy=-358.603855999804 field_type=dipole dipole="0.000000 0.000000 0.000000" charge=0
C	-0.010653	-2.143522	0.296027	6
O	-0.877163	-1.049752	0.016777	8
C	-0.298963	0.147458	-0.064433	6
C	-0.799163	1.399567	-0.311843	6
C	0.330057	2.234278	-0.261673	6
N	1.449737	1.554328	-0.002593	7
O	1.049237	0.230188	0.122357	8
H	-0.616092	-3.053482	0.333377	1
H	0.476057	-2.019252	1.269647	1
H	0.735748	-2.264512	-0.496723	1
H	-1.829023	1.661008	-0.499603	1
H	0.390217	3.303698	-0.401313	1
Es	1.812512	1.621305	0.040931	99
Es	0.522511	0.196423	0.036668	99
Es	-0.608432	0.743327	-0.123325	99
Es	-0.533474	-1.435723	0.118912	99
Es	-0.505973	1.108999	-0.310427	99
Es	-0.799161	1.399544	-0.311766	99
Es	0.942177	1.860907	0.163791	99
Es	1.248274	-0.024754	0.167601	99
Es	-0.876477	-1.049564	0.016340	99
Es	1.024174	1.782687	-0.381359	99
Es	1.449110	1.554125	-0.002657	99
Es	-0.298761	0.147103	-0.064353	99
Es	1.180318	0.783714	0.066781	99
Es	-0.010833	-2.143304	0.295969	99
Es	0.330093	2.234284	-0.261671	99
Es	-1.020262	-0.996392	0.214064	99
Es	-0.614592	-0.581016	-0.007031	99
Es	0.918490	0.273318	0.126969	99
Es	0.319612	-2.052662	0.947794	99
Es	0.492903	-2.216692	-0.235093	99
Es	1.048897	0.230493	0.122125	99
Es	-1.486607	1.577693	-0.435617	99
Es	-0.262980	1.862227	-0.285303	99
Es	-0.986608	-1.061532	-0.223791	99
Es	0.359608	2.953302	-0.356223	99
Es	-0.427563	-2.760083	0.319798	99
38
Properties=species:S:1:pos:R:3:Z:I:1 energy=-358.603855999804 field_type=dipole dipole="0.000000 0.000000 0.000000" charge=0
C	-0.010653	-2.143522	0.296027	6
O	-0.877163	-1.049752	0.016777	8
C	-0.298963	0.147458	-0.064433	6
C	-0.799163	1.399567	-0.311843	6
C	0.330057	2.234278	-0.261673	6
N	1.449737	1.554328	-0.002593	7
O	1.049237	0.230188	0.122357	8
H	-0.616092	-3.053482	0.333377	1
H	0.476057	-2.019252	1.269647	1
H	0.735748	-2.264512	-0.496723	1
H	-1.829023	1.661008	-0.499603	1
H	0.390217	3.303698	-0.401313	1
Es	1.244029	-0.021022	0.197256	99
Es	-0.427713	-2.759564	0.320082	99
Es	1.180330	0.783893	0.067586	99
Es	0.330092	2.234286	-0.261668	99
Es	-1.034012	-0.997877	0.214925	99
Es	-0.799163	1.399544	-0.311821	99
Es	0.359566	2.953159	-0.356939	99
Es	1.811435	1.620670	0.041551	99
Es	-0.599612	0.728914	-0.189826	99
Es	0.518959	0.199827	0.062126	99
Es	1.024454	1.783666	-0.382765	99
Es	1.048914	0.230499	0.122227	99
Es	-0.010834	-2.143308	0.295971	99
Es	-0.516550	1.125214	-0.233417	99
Es	-0.533346	-1.435091	0.120543	99
Es	-0.973742	-1.059611	-0.224479	99
Es	0.943195	1.860304	0.165786	99
Es	-0.876812	-1.049614	0.016847	99
Es	0.319337	-2.052757	0.948100	99
Es	-0.613606	-0.582121	-0.009117	99
Es	-0.298762	0.147102	-0.064353	99
Es	-1.486441	1.577438	-0.437382	99
Es	-0.260931	1.861384	-0.295315	99
Es	1.449123	1.554101	-0.002656	99
Es	0.493375	-2.216997	-0.235676	99
Es	0.925674	0.265691	0.071540	99
