38
Properties=species:S:1:pos:R:3:Z:I:1 energy=-358.5966855983616 field_type=dipole dipole="0.000000 0.000000 0.000000" charge=0
C	-0.607677	-1.902232	0.291227	6
O	-1.333787	-0.718122	0.001917	8
C	-0.562457	0.382688	-0.125533	6
N	-1.210837	1.515338	-0.397533	7
O	-0.223767	2.486938	-0.480103	8
C	0.986364	1.914808	-0.256503	6
C	0.828173	0.572948	-0.024753	6
H	-1.324027	-2.725472	0.372927	1
H	-0.081537	-1.820892	1.248787	1
H	0.091123	-2.146322	-0.516523	1
H	1.832623	2.584528	-0.297213	1
H	1.605803	-0.144212	0.183307	1
Es	-0.607795	-1.902013	0.291175	99
Es	1.340182	0.086627	0.114729	99
Es	-0.266407	2.734217	-0.653239	99
Es	-0.889815	1.027275	-0.565685	99
Es	-1.210187	1.515211	-0.397443	99
Es	-0.121190	2.457542	-0.215602	99
Es	0.828146	0.572927	-0.024744	99
Es	-1.559475	1.620897	-0.451829	99
Es	0.986172	1.914985	-0.256556	99
Es	-0.943365	1.130094	-0.009071	99
Es	-1.333386	-0.718129	0.001969	99
Es	0.837774	1.189221	0.178571	99
Es	-0.122617	-2.060363	-0.257221	99
Es	-1.026752	-1.140095	0.109693	99
Es	-0.239925	-1.839596	0.940756	99
Es	-1.489342	-0.644194	0.234875	99
Es	0.142870	0.400961	-0.062068	99
Es	1.553708	2.354866	-0.282931	99
Es	-0.990400	-0.313375	-0.040146	99
Es	-0.608446	2.057820	-0.451983	99
Es	0.225518	2.241970	-0.503891	99
Es	-0.223588	2.486452	-0.480110	99
Es	-1.092361	-2.456226	0.345874	99
Es	-0.562618	0.382471	-0.125509	99
Es	0.902001	1.082779	-0.424930	99
Es	-1.442129	-0.737268	-0.265887	99
38
Properties=species:S:1:pos:R:3:Z:I:1 energy=-358.5966855983616 field_type=dipole dipole="0.000000 0.000000 0.000000" charge=0
C	-0.607677	-1.902232	0.291227	6
O	-1.333787	-0.718122	0.001917	8
C	-0.562457	0.382688	-0.125533	6
N	-1.210837	1.515338	-0.397533	7
O	-0.223767	2.486938	-0.480103	8
C	0.986364	1.914808	-0.256503	6
C	0.828173	0.572948	-0.024753	6
H	-1.324027	-2.725472	0.372927	1
H	-0.081537	-1.820892	1.248787	1
H	0.091123	-2.146322	-0.516523	1
H	1.832623	2.584528	-0.297213	1
H	1.605803	-0.144212	0.183307	1
Es	-1.093405	-2.460278	0.346670	99
Es	1.340763	0.086895	0.115138	99
Es	-1.030758	-1.146351	0.112592	99
Es	0.828147	0.572912	-0.024759	99
Es	-0.612442	2.057910	-0.438226	99
Es	-0.887742	1.025549	-0.561636	99
Es	0.250486	2.258769	-0.376840	99
Es	-1.561838	1.619056	-0.450687	99
Es	-0.607795	-1.902009	0.291176	99
Es	-0.122787	-2.058206	-0.254285	99
Es	-1.500135	-0.649866	0.217769	99
Es	-0.239410	-1.838546	0.937112	99
Es	-0.223645	2.486460	-0.480067	99
Es	0.986171	1.914988	-0.256555	99
Es	-0.941161	1.124480	-0.013794	99
Es	-0.562619	0.382462	-0.125505	99
Es	-0.284421	2.801744	-0.531936	99
Es	-1.210182	1.515222	-0.397442	99
Es	-0.123298	2.375683	-0.477501	99
Es	0.897834	1.082629	-0.423101	99
Es	0.841022	1.193890	0.172625	99
Es	-0.991661	-0.303235	-0.038880	99
Es	0.140013	0.402403	-0.059973	99
Es	-1.425762	-0.735254	-0.252885	99
Es	1.554668	2.355809	-0.282128	99
Es	-1.333469	-0.718060	0.001913	99
38
Properties=species:S:1:pos:R:3:Z:I:1 energy=-358.5966855983616 field_type=dipole dipole="0.000000 0.000000 0.000000" charge=0
C	-0.607677	-1.902232	0.291227	6
O	-1.333787	-0.718122	0.001917	8
C	-0.562457	0.382688	-0.125533	6
N	-1.210837	1.515338	-0.397533	7
O	-0.223767	2.486938	-0.480103	8
C	0.986364	1.914808	-0.256503	6
C	0.828173	0.572948	-0.024753	6
H	-1.324027	-2.725472	0.372927	1
H	-0.081537	-1.820892	1.248787	1
H	0.091123	-2.146322	-0.516523	1
H	1.832623	2.584528	-0.297213	1
H	1.605803	-0.144212	0.183307	1
Es	-0.887783	1.022698	-0.560363	99
Es	-1.562403	1.618322	-0.447522	99
Es	0.828149	0.572911	-0.024760	99
Es	-1.551857	-0.734198	-0.198598	99
Es	0.835895	1.189851	0.171874	99
Es	-0.223555	2.486373	-0.480226	99
Es	-0.240193	-1.838219	0.934590	99
Es	-1.033727	-1.152850	0.103278	99
Es	0.252204	2.252075	-0.414399	99
Es	0.139327	0.402597	-0.061001	99
Es	-0.993122	-0.301742	-0.059991	99
Es	0.899886	1.088612	-0.422025	99
Es	-0.611890	2.057752	-0.437823	99
Es	-0.282365	2.800067	-0.548104	99
Es	-0.562619	0.382464	-0.125518	99
Es	-1.369456	-0.645691	0.194283	99
Es	-0.939217	1.123633	-0.015726	99
Es	-1.093508	-2.461990	0.347718	99
Es	-1.210171	1.515225	-0.397449	99
Es	0.986173	1.914986	-0.256556	99
Es	1.340962	0.086818	0.114335	99
Es	-1.333265	-0.718085	0.001758	99
Es	-0.122247	-2.057312	-0.252948	99
Es	-0.607793	-1.902020	0.291175	99
Es	1.555041	2.355865	-0.282874	99
Es	-0.125893	2.386914	-0.424331	99
38
Properties=species:S:1:pos:R:3:Z:I:1 energy=-358.5966855983616 field_type=dipole dipole="0.000000 0.000000 0.000000" charge=0
C	-0.607677	-1.902232	0.291227	6
O	-1.333787	-0.718122	0.001917	8
C	-0.562457	0.382688	-0.125533	6
N	-1.210837	1.515338	-0.397533	7
O	-0.223767	2.486938	-0.480103	8
C	0.986364	1.914808	-0.256503	6
C	0.828173	0.572948	-0.024753	6
H	-1.324027	-2.725472	0.372927	1
H	-0.081537	-1.820892	1.248787	1
H	0.091123	-2.146322	-0.516523	1
H	1.832623	2.584528	-0.297213	1
H	1.605803	-0.144212	0.183307	1
Es	-0.940937	1.122426	-0.010728	99
Es	-0.611648	2.057543	-0.437539	99
Es	0.894558	1.083765	-0.424309	99
Es	0.986175	1.914982	-0.256554	99
Es	-1.637518	-0.706571	-0.024594	99
Es	0.838787	1.196594	0.172766	99
Es	-1.210186	1.515208	-0.397448	99
Es	0.828147	0.572913	-0.024749	99
Es	-1.273450	-0.681647	-0.008635	99
Es	-0.122763	2.382481	-0.458330	99
Es	-1.333309	-0.718111	0.001939	99
Es	1.554546	2.356366	-0.282363	99
Es	-1.558796	1.617898	-0.450505	99
Es	1.339892	0.086535	0.114920	99
Es	-0.886958	1.020434	-0.562703	99
Es	-0.123276	-2.057179	-0.252487	99
Es	-0.239349	-1.838294	0.935036	99
Es	-1.037554	-1.154838	0.113051	99
Es	-0.999082	-0.291595	-0.041126	99
Es	0.139376	0.402655	-0.060200	99
Es	-1.093468	-2.462179	0.346959	99
Es	0.248874	2.256097	-0.386834	99
Es	-0.281427	2.802625	-0.542459	99
Es	-0.607797	-1.902010	0.291177	99
Es	-0.223641	2.486493	-0.479976	99
Es	-0.562620	0.382464	-0.125513	99
38
Properties=species:S:1:pos:R:3:Z:I:1 energy=-358.5966855983616 field_type=dipole dipole="0.000000 0.000000 0.000000" charge=0
C	-0.607677	-1.902232	0.291227	6
O	-1.333787	-0.718122	0.001917	8
C	-0.562457	0.382688	-0.125533	6
N	-1.210837	1.515338	-0.397533	7
O	-0.223767	2.486938	-0.480103	8
C	0.986364	1.914808	-0.256503	6
C	0.828173	0.572948	-0.024753	6
H	-1.324027	-2.725472	0.372927	1
H	-0.081537	-1.820892	1.248787	1
H	0.091123	-2.146322	-0.516523	1
H	1.832623	2.584528	-0.297213	1
H	1.605803	-0.144212	0.183307	1
Es	-0.607797	-1.902011	0.291175	99
Es	-0.122079	2.383663	-0.456912	99
Es	-1.272821	-0.683873	-0.020896	99
Es	0.247547	2.256267	-0.385210	99
Es	-1.093298	-2.463348	0.347059	99
Es	-0.940114	1.121428	-0.011794	99
Es	1.554654	2.356531	-0.282182	99
Es	-0.223542	2.486403	-0.479591	99
Es	-0.280377	2.802725	-0.545258	99
Es	0.138899	0.403093	-0.061029	99
Es	0.986173	1.914986	-0.256556	99
Es	-0.239190	-1.838058	0.933815	99
Es	-1.333307	-0.718106	0.001972	99
Es	0.837638	1.196463	0.171803	99
Es	-1.559664	1.617051	-0.451112	99
Es	-0.123829	-2.056523	-0.251259	99
Es	-1.038266	-1.155695	0.111913	99
Es	-0.562621	0.382463	-0.125507	99
Es	-0.999792	-0.290969	-0.040508	99
Es	0.828144	0.572914	-0.024753	99
Es	-1.210175	1.515221	-0.397451	99
Es	-1.636491	-0.703985	-0.011966	99
Es	1.340056	0.086356	0.114976	99
Es	-0.886089	1.020013	-0.560586	99
Es	0.894255	1.084856	-0.423038	99
Es	-0.611340	2.057193	-0.438308	99
38
Properties=species:S:1:pos:R:3:Z:I:1 energy=-358.5966855983616 field_type=dipole dipole="0.000000 0.000000 0.000000" charge=0
C	-0.607677	-1.902232	0.291227	6
O	-1.333787	-0.718122	0.001917	8
C	-0.562457	0.382688	-0.125533	6
N	-1.210837	1.515338	-0.397533	7
O	-0.223767	2.486938	-0.480103	8
C	0.986364	1.914808	-0.256503	6
C	0.828173	0.572948	-0.024753	6
H	-1.324027	-2.725472	0.372927	1
H	-0.081537	-1.820892	1.248787	1
H	0.091123	-2.146322	-0.516523	1
H	1.832623	2.584528	-0.297213	1
H	1.605803	-0.144212	0.183307	1
Es	-0.562621	0.382463	-0.125506	99
Es	0.248014	2.254491	-0.395053	99
Es	0.986172	1.914987	-0.256551	99
Es	-1.560239	1.616677	-0.450352	99
Es	-0.124050	-2.056037	-0.250224	99
Es	-0.122200	2.385835	-0.447718	99
Es	-0.280361	2.803388	-0.543329	99
Es	1.554837	2.356532	-0.282284	99
Es	0.138633	0.403392	-0.060854	99
Es	-0.939205	1.119675	-0.012904	99
Es	1.340399	0.086325	0.115078	99
Es	-0.223612	2.486488	-0.480059	99
Es	-0.885812	1.020327	-0.559923	99
Es	-0.999842	-0.291293	-0.044727	99
Es	-1.333044	-0.718092	0.001327	99
Es	-0.610884	2.056831	-0.439250	99
Es	-1.210172	1.515238	-0.397453	99
Es	-0.607799	-1.902002	0.291177	99
Es	0.828146	0.572913	-0.024751	99
Es	-1.274560	-0.679815	0.002075	99
Es	-0.239460	-1.838009	0.932554	99
Es	-1.634090	-0.707076	-0.029881	99
Es	0.894132	1.086318	-0.422500	99
Es	-1.093087	-2.464238	0.347294	99
Es	-1.038845	-1.156080	0.111774	99
Es	0.836122	1.195817	0.170834	99
38
Properties=species:S:1:pos:R:3:Z:I:1 energy=-358.5966855983616 field_type=dipole dipole="0.000000 0.000000 0.000000" charge=0
C	-0.607677	-1.902232	0.291227	6
O	-1.333787	-0.718122	0.001917	8
C	-0.562457	0.382688	-0.125533	6
N	-1.210837	1.515338	-0.397533	7
O	-0.223767	2.486938	-0.480103	8
C	0.986364	1.914808	-0.256503	6
C	0.828173	0.572948	-0.024753	6
H	-1.324027	-2.725472	0.372927	1
H	-0.081537	-1.820892	1.248787	1
H	0.091123	-2.146322	-0.516523	1
H	1.832623	2.584528	-0.297213	1
H	1.605803	-0.144212	0.183307	1
Es	-0.121485	2.386206	-0.448996	99
Es	0.828147	0.572911	-0.024748	99
Es	-1.632539	-0.707448	-0.034462	99
Es	0.835058	1.195014	0.169942	99
Es	0.894142	1.087579	-0.421769	99
Es	-0.562622	0.382462	-0.125507	99
Es	-0.999845	-0.291192	-0.044792	99
Es	-1.277928	-0.680072	0.009797	99
Es	-0.610828	2.056994	-0.438653	99
Es	-1.210179	1.515206	-0.397444	99
Es	-0.885346	1.019459	-0.558276	99
Es	-1.330263	-0.716832	-0.000919	99
Es	-0.124270	-2.055604	-0.249302	99
Es	-1.039588	-1.156641	0.110912	99
Es	-0.279873	2.803873	-0.542933	99
Es	1.554949	2.356558	-0.282393	99
Es	1.340624	0.086196	0.114970	99
Es	0.247247	2.254210	-0.394627	99
Es	-0.239725	-1.837878	0.931339	99
Es	-1.560869	1.616199	-0.450677	99
Es	0.138384	0.403813	-0.060815	99
Es	0.986171	1.914987	-0.256557	99
Es	-0.607796	-1.902008	0.291172	99
Es	-0.223466	2.486290	-0.480217	99
Es	-0.938689	1.119800	-0.013892	99
Es	-1.092835	-2.465026	0.347645	99
38
Properties=species:S:1:pos:R:3:Z:I:1 energy=-358.5966855983616 field_type=dipole dipole="0.000000 0.000000 0.000000" charge=0
C	-0.607677	-1.902232	0.291227	6
O	-1.333787	-0.718122	0.001917	8
C	-0.562457	0.382688	-0.125533	6
N	-1.210837	1.515338	-0.397533	7
O	-0.223767	2.486938	-0.480103	8
C	0.986364	1.914808	-0.256503	6
C	0.828173	0.572948	-0.024753	6
H	-1.324027	-2.725472	0.372927	1
H	-0.081537	-1.820892	1.248787	1
H	0.091123	-2.146322	-0.516523	1
H	1.832623	2.584528	-0.297213	1
H	1.605803	-0.144212	0.183307	1
Es	0.897196	1.091817	-0.420834	99
Es	-1.000785	-0.290446	-0.043538	99
Es	0.138207	0.404077	-0.061838	99
Es	-0.279614	2.804015	-0.542834	99
Es	1.340763	0.085999	0.114785	99
Es	0.246697	2.254643	-0.393484	99
Es	-0.223654	2.486475	-0.480040	99
Es	-1.333301	-0.718119	0.001921	99
Es	1.555019	2.356615	-0.282344	99
Es	-1.631197	-0.707795	-0.035935	99
Es	-1.092487	-2.465795	0.347717	99
Es	-1.561379	1.615653	-0.451017	99
Es	-0.884890	1.018739	-0.556750	99
Es	-0.124816	-2.055113	-0.248397	99
Es	-1.210163	1.515215	-0.397447	99
Es	0.828147	0.572910	-0.024767	99
Es	-1.039773	-1.156900	0.111138	99
Es	-0.562622	0.382460	-0.125494	99
Es	-1.274873	-0.678797	0.006991	99
Es	-0.607802	-1.902008	0.291174	99
Es	-0.239711	-1.837809	0.930289	99
Es	-0.610754	2.056774	-0.438756	99
Es	-0.938202	1.120054	-0.014625	99
Es	0.986173	1.914986	-0.256555	99
Es	0.831295	1.191269	0.169733	99
Es	-0.120899	2.386137	-0.450296	99
38
Properties=species:S:1:pos:R:3:Z:I:1 energy=-358.5966855983616 field_type=dipole dipole="0.000000 0.000000 0.000000" charge=0
C	-0.607677	-1.902232	0.291227	6
O	-1.333787	-0.718122	0.001917	8
C	-0.562457	0.382688	-0.125533	6
N	-1.210837	1.515338	-0.397533	7
O	-0.223767	2.486938	-0.480103	8
C	0.986364	1.914808	-0.256503	6
C	0.828173	0.572948	-0.024753	6
H	-1.324027	-2.725472	0.372927	1
H	-0.081537	-1.820892	1.248787	1
H	0.091123	-2.146322	-0.516523	1
H	1.832623	2.584528	-0.297213	1
H	1.605803	-0.144212	0.183307	1
Es	0.828148	0.572911	-0.024758	99
Es	1.340987	0.085965	0.115009	99
Es	0.834359	1.195104	0.168641	99
Es	-0.120386	2.386300	-0.451171	99
Es	-0.610409	2.056492	-0.439331	99
Es	-0.239875	-1.837760	0.929315	99
Es	0.245779	2.255163	-0.390201	99
Es	0.893207	1.088138	-0.420456	99
Es	-0.884679	1.019626	-0.556179	99
Es	-1.092169	-2.466398	0.347876	99
Es	-0.279085	2.803963	-0.544695	99
Es	-1.273641	-0.681038	-0.005206	99
Es	-0.937583	1.118665	-0.015797	99
Es	-1.333287	-0.718057	0.002163	99
Es	-1.631920	-0.705693	-0.024507	99
Es	1.555126	2.356655	-0.282255	99
Es	0.986171	1.914987	-0.256555	99
Es	-1.039861	-1.156831	0.111286	99
Es	-1.562041	1.615375	-0.450423	99
Es	-0.223596	2.486416	-0.480156	99
Es	-0.562623	0.382463	-0.125509	99
Es	-0.125239	-2.054771	-0.247518	99
Es	0.138084	0.404453	-0.061309	99
Es	-1.000929	-0.290278	-0.043191	99
Es	-1.210166	1.515216	-0.397448	99
Es	-0.607798	-1.902010	0.291172	99
38
Properties=species:S:1:pos:R:3:Z:I:1 energy=-358.5966855983616 field_type=dipole dipole="0.000000 0.000000 0.000000" charge=0
C	-0.607677	-1.902232	0.291227	6
O	-1.333787	-0.718122	0.001917	8
C	-0.562457	0.382688	-0.125533	6
N	-1.210837	1.515338	-0.397533	7
O	-0.223767	2.486938	-0.480103	8
C	0.986364	1.914808	-0.256503	6
C	0.828173	0.572948	-0.024753	6
H	-1.324027	-2.725472	0.372927	1
H	-0.081537	-1.820892	1.248787	1
H	0.091123	-2.146322	-0.516523	1
H	1.832623	2.584528	-0.297213	1
H	1.605803	-0.144212	0.183307	1
Es	-0.937236	1.116889	-0.016223	99
Es	-0.119877	2.386555	-0.450880	99
Es	0.828147	0.572912	-0.024745	99
Es	-1.040694	-1.157050	0.112243	99
Es	-0.124453	-2.054497	-0.247081	99
Es	0.880817	1.075437	-0.417823	99
Es	-0.562623	0.382461	-0.125506	99
Es	-1.333310	-0.718080	0.002054	99
Es	1.555207	2.356577	-0.282620	99
Es	0.846305	1.207527	0.164105	99
Es	0.137723	0.405209	-0.059070	99
Es	-1.631088	-0.704996	-0.022344	99
Es	-0.241010	-1.837821	0.928300	99
Es	-0.610609	2.056937	-0.437742	99
Es	1.341094	0.085912	0.115258	99
Es	-0.607799	-1.902006	0.291178	99
Es	-1.000702	-0.290802	-0.046996	99
Es	-1.091945	-2.466735	0.348411	99
Es	-1.273712	-0.680876	-0.004271	99
Es	0.245696	2.254597	-0.392434	99
Es	-0.884478	1.021161	-0.555527	99
Es	-0.223638	2.486487	-0.480026	99
Es	-1.562275	1.614936	-0.450823	99
Es	-0.278922	2.804138	-0.544642	99
Es	0.986172	1.914987	-0.256553	99
Es	-1.210217	1.515192	-0.397446	99
38
Properties=species:S:1:pos:R:3:Z:I:1 energy=-358.5966855983616 field_type=dipole dipole="0.000000 0.000000 0.000000" charge=0
C	-0.607677	-1.902232	0.291227	6
O	-1.333787	-0.718122	0.001917	8
C	-0.562457	0.382688	-0.125533	6
N	-1.210837	1.515338	-0.397533	7
O	-0.223767	2.486938	-0.480103	8
C	0.986364	1.914808	-0.256503	6
C	0.828173	0.572948	-0.024753	6
H	-1.324027	-2.725472	0.372927	1
H	-0.081537	-1.820892	1.248787	1
H	0.091123	-2.146322	-0.516523	1
H	1.832623	2.584528	-0.297213	1
H	1.605803	-0.144212	0.183307	1
Es	0.137456	0.405522	-0.056916	99
Es	0.986172	1.914987	-0.256553	99
Es	0.828146	0.572914	-0.024740	99
Es	-1.210169	1.515233	-0.397442	99
Es	-0.242583	-1.837969	0.927794	99
Es	-1.273513	-0.681595	-0.007940	99
Es	-1.041009	-1.157199	0.112617	99
Es	0.864728	1.059834	-0.409005	99
Es	-1.333260	-0.718128	0.001775	99
Es	-1.091998	-2.466617	0.348948	99
Es	-0.936669	1.110573	-0.016383	99
Es	1.555204	2.356556	-0.282999	99
Es	-0.610638	2.057109	-0.435858	99
Es	-0.278568	2.803838	-0.546944	99
Es	0.245416	2.254521	-0.393362	99
Es	-0.562624	0.382462	-0.125506	99
Es	-0.884857	1.027357	-0.556805	99
Es	-0.119530	2.386983	-0.449712	99
Es	-1.630685	-0.704142	-0.017005	99
Es	-0.607797	-1.902002	0.291173	99
Es	-1.562168	1.615100	-0.449671	99
Es	-0.122803	-2.054454	-0.247097	99
Es	-1.001075	-0.290727	-0.048630	99
Es	1.340996	0.085996	0.115805	99
Es	-0.223648	2.486501	-0.479841	99
Es	0.862053	1.222404	0.153094	99
38
Properties=species:S:1:pos:R:3:Z:I:1 energy=-358.5966855983616 field_type=dipole dipole="0.000000 0.000000 0.000000" charge=0
C	-0.607677	-1.902232	0.291227	6
O	-1.333787	-0.718122	0.001917	8
C	-0.562457	0.382688	-0.125533	6
N	-1.210837	1.515338	-0.397533	7
O	-0.223767	2.486938	-0.480103	8
C	0.986364	1.914808	-0.256503	6
C	0.828173	0.572948	-0.024753	6
H	-1.324027	-2.725472	0.372927	1
H	-0.081537	-1.820892	1.248787	1
H	0.091123	-2.146322	-0.516523	1
H	1.832623	2.584528	-0.297213	1
H	1.605803	-0.144212	0.183307	1
Es	-1.092171	-2.466320	0.349523	99
Es	-0.610696	2.057248	-0.434688	99
Es	1.555189	2.356529	-0.283424	99
Es	-0.562623	0.382461	-0.125506	99
Es	1.340704	0.085971	0.116346	99
Es	-1.561275	1.615291	-0.450176	99
Es	0.986171	1.914987	-0.256557	99
Es	-0.223640	2.486500	-0.479980	99
Es	0.245564	2.253381	-0.399674	99
Es	-0.607795	-1.901999	0.291179	99
Es	-0.242452	-1.837936	0.927699	99
Es	0.137138	0.406079	-0.054597	99
Es	-0.937329	1.113166	-0.014881	99
Es	0.875041	1.232628	0.139456	99
Es	-0.119841	2.388854	-0.440492	99
Es	-1.041573	-1.157516	0.113088	99
Es	-1.630052	-0.703571	-0.015685	99
Es	-0.278015	2.803054	-0.551085	99
Es	0.851821	1.048627	-0.397517	99
Es	-0.884947	1.024993	-0.557982	99
Es	0.828146	0.572911	-0.024755	99
Es	-1.273774	-0.681486	-0.006868	99
Es	-1.333156	-0.717900	0.002323	99
Es	-1.210167	1.515218	-0.397444	99
Es	-1.000929	-0.291331	-0.051897	99
Es	-0.122766	-2.054782	-0.247608	99
38
Properties=species:S:1:pos:R:3:Z:I:1 energy=-358.5966855983616 field_type=dipole dipole="0.000000 0.000000 0.000000" charge=0
C	-0.607677	-1.902232	0.291227	6
O	-1.333787	-0.718122	0.001917	8
C	-0.562457	0.382688	-0.125533	6
N	-1.210837	1.515338	-0.397533	7
O	-0.223767	2.486938	-0.480103	8
C	0.986364	1.914808	-0.256503	6
C	0.828173	0.572948	-0.024753	6
H	-1.324027	-2.725472	0.372927	1
H	-0.081537	-1.820892	1.248787	1
H	0.091123	-2.146322	-0.516523	1
H	1.832623	2.584528	-0.297213	1
H	1.605803	-0.144212	0.183307	1
Es	-0.562623	0.382460	-0.125510	99
Es	0.243663	2.256590	-0.382940	99
Es	-0.128398	-2.054152	-0.245792	99
Es	-1.040884	-1.157910	0.109502	99
Es	-1.561505	1.615029	-0.450380	99
Es	0.138349	0.403879	-0.067573	99
Es	0.928179	1.134667	-0.398256	99
Es	-0.117161	2.384908	-0.462769	99
Es	-1.002359	-0.288641	-0.037576	99
Es	0.796890	1.148918	0.151755	99
Es	-0.237503	-1.837636	0.929395	99
Es	-0.609744	2.055669	-0.442356	99
Es	0.828148	0.572912	-0.024759	99
Es	-1.091623	-2.467292	0.346170	99
Es	-1.310819	-0.704640	-0.002543	99
Es	-0.223644	2.486480	-0.480050	99
Es	-1.297569	-0.692002	0.013006	99
Es	-0.937736	1.126318	-0.017647	99
Es	1.554995	2.356955	-0.281279	99
Es	1.341091	0.085505	0.113899	99
Es	-0.607799	-1.902007	0.291172	99
Es	-1.210163	1.515222	-0.397444	99
Es	-0.884405	1.011795	-0.553532	99
Es	0.986170	1.914988	-0.256552	99
Es	-0.279325	2.805758	-0.536919	99
Es	-1.627653	-0.708717	-0.042224	99
38
Properties=species:S:1:pos:R:3:Z:I:1 energy=-358.5966855983616 field_type=dipole dipole="0.000000 0.000000 0.000000" charge=0
C	-0.607677	-1.902232	0.291227	6
O	-1.333787	-0.718122	0.001917	8
C	-0.562457	0.382688	-0.125533	6
N	-1.210837	1.515338	-0.397533	7
O	-0.223767	2.486938	-0.480103	8
C	0.986364	1.914808	-0.256503	6
C	0.828173	0.572948	-0.024753	6
H	-1.324027	-2.725472	0.372927	1
H	-0.081537	-1.820892	1.248787	1
H	0.091123	-2.146322	-0.516523	1
H	1.832623	2.584528	-0.297213	1
H	1.605803	-0.144212	0.183307	1
Es	1.554979	2.357006	-0.281124	99
Es	0.828148	0.572911	-0.024758	99
Es	-1.002667	-0.288300	-0.036261	99
Es	-0.223285	2.486194	-0.479366	99
Es	-0.117872	2.386099	-0.458994	99
Es	-0.562622	0.382464	-0.125506	99
Es	-0.937648	1.126221	-0.017343	99
Es	-1.626717	-0.708771	-0.043886	99
Es	-1.041477	-1.158258	0.109554	99
Es	-0.129145	-2.054190	-0.245665	99
Es	-1.561367	1.615079	-0.450086	99
Es	0.138488	0.403630	-0.068477	99
Es	-1.303793	-0.695948	0.013198	99
Es	0.931831	1.140506	-0.392697	99
Es	-1.210164	1.515226	-0.397450	99
Es	-0.236749	-1.837583	0.929505	99
Es	0.243830	2.255828	-0.386117	99
Es	-0.884402	1.011901	-0.554057	99
Es	0.792735	1.143118	0.147033	99
Es	1.341070	0.085475	0.113818	99
Es	-1.091606	-2.467291	0.345974	99
Es	-0.279000	2.805788	-0.537638	99
Es	-0.607798	-1.902008	0.291173	99
Es	0.986172	1.914987	-0.256554	99
Es	-1.304675	-0.700639	-0.002514	99
Es	-0.609691	2.055610	-0.442966	99
38
Properties=species:S:1:pos:R:3:Z:I:1 energy=-358.5966855983616 field_type=dipole dipole="0.000000 0.000000 0.000000" charge=0
C	-0.607677	-1.902232	0.291227	6
O	-1.333787	-0.718122	0.001917	8
C	-0.562457	0.382688	-0.125533	6
N	-1.210837	1.515338	-0.397533	7
O	-0.223767	2.486938	-0.480103	8
C	0.986364	1.914808	-0.256503	6
C	0.828173	0.572948	-0.024753	6
H	-1.324027	-2.725472	0.372927	1
H	-0.081537	-1.820892	1.248787	1
H	0.091123	-2.146322	-0.516523	1
H	1.832623	2.584528	-0.297213	1
H	1.605803	-0.144212	0.183307	1
Es	0.243678	2.255574	-0.386275	99
Es	1.554941	2.357050	-0.281176	99
Es	-1.041330	-1.158310	0.109386	99
Es	-0.237191	-1.837638	0.929579	99
Es	0.986172	1.914987	-0.256553	99
Es	0.138534	0.403659	-0.069347	99
Es	0.934922	1.145322	-0.387572	99
Es	-0.117283	2.385617	-0.460330	99
Es	-0.562623	0.382460	-0.125509	99
Es	-1.625082	-0.710308	-0.051200	99
Es	-0.128710	-2.054174	-0.245709	99
Es	-0.607798	-1.902008	0.291173	99
Es	-1.210164	1.515223	-0.397442	99
Es	-0.279007	2.806148	-0.536088	99
Es	-1.276866	-0.677730	0.015558	99
Es	-1.332899	-0.717472	0.003342	99
Es	-0.937868	1.127053	-0.017024	99
Es	-1.560905	1.615190	-0.450082	99
Es	0.789628	1.138066	0.142705	99
Es	-1.091608	-2.467269	0.345962	99
Es	-0.223643	2.486500	-0.479880	99
Es	-0.609798	2.055797	-0.442467	99
Es	-1.003042	-0.288133	-0.037021	99
Es	-0.884528	1.011210	-0.554211	99
Es	1.340898	0.085329	0.113719	99
Es	0.828147	0.572911	-0.024744	99
