46
Properties=species:S:1:pos:R:3:Z:I:1 energy=-325.0981524929998 field_type=dipole dipole="0.000000 0.000000 0.000000" charge=0
C	-1.111041	-2.325208	-1.141275	6
O	-0.849181	-1.737898	0.125065	8
C	0.019919	-0.580578	0.110785	6
C	-0.575351	0.755312	-0.391695	6
N	0.005679	1.458202	0.772255	7
C	1.297199	2.052162	0.426715	6
C	0.196029	0.158632	1.456145	6
H	-1.760471	-3.191748	-0.995045	1
H	-0.176541	-2.655738	-1.602785	1
H	-1.617611	-1.608428	-1.793005	1
H	0.984509	-0.825848	-0.355015	1
H	-1.671701	0.775672	-0.397765	1
H	-0.229681	1.079872	-1.379255	1
H	1.793629	2.415431	1.333505	1
H	1.144489	2.918772	-0.225815	1
H	1.982739	1.363512	-0.081065	1
H	1.160709	0.006602	1.952435	1
H	-0.593321	-0.058718	2.185815	1
Es	-0.466636	-2.548901	-1.466211	99
Es	-1.110995	-2.325108	-1.141083	99
Es	-0.306440	0.046266	-0.228859	99
Es	-0.242780	1.194627	0.230269	99
Es	1.192309	2.639122	-0.024746	99
Es	1.638440	2.292953	1.046932	99
Es	-0.694900	-1.950356	0.282382	99
Es	-1.455289	-1.830999	-1.596433	99
Es	-0.330625	0.986565	-1.067608	99
Es	0.006086	1.457739	0.771943	99
Es	0.683205	-0.746085	-0.215928	99
Es	0.196018	0.158722	1.456046	99
Es	1.766985	1.566601	0.074071	99
Es	-0.517785	-1.308377	0.073621	99
Es	0.582687	1.684858	0.604965	99
Es	-1.552148	-2.913407	-1.042507	99
Es	0.123147	0.911884	1.106669	99
Es	-0.343860	0.010967	1.943980	99
Es	1.297094	2.052105	0.426739	99
Es	-0.206002	1.698617	0.937743	99
Es	0.863367	0.064011	1.791953	99
Es	-0.575280	0.755351	-0.391599	99
Es	-0.849030	-1.737736	0.124739	99
Es	0.127194	-0.299194	0.822765	99
Es	-0.923486	-1.930716	-0.376743	99
Es	-1.119260	-1.630760	0.224533	99
Es	-1.320957	0.761954	-0.390744	99
Es	0.019769	-0.580732	0.110796	99
46
Properties=species:S:1:pos:R:3:Z:I:1 energy=-325.0981524929998 field_type=dipole dipole="0.000000 0.000000 0.000000" charge=0
C	-1.111041	-2.325208	-1.141275	6
O	-0.849181	-1.737898	0.125065	8
C	0.019919	-0.580578	0.110785	6
C	-0.575351	0.755312	-0.391695	6
N	0.005679	1.458202	0.772255	7
C	1.297199	2.052162	0.426715	6
C	0.196029	0.158632	1.456145	6
H	-1.760471	-3.191748	-0.995045	1
H	-0.176541	-2.655738	-1.602785	1
H	-1.617611	-1.608428	-1.793005	1
H	0.984509	-0.825848	-0.355015	1
H	-1.671701	0.775672	-0.397765	1
H	-0.229681	1.079872	-1.379255	1
H	1.793629	2.415431	1.333505	1
H	1.144489	2.918772	-0.225815	1
H	1.982739	1.363512	-0.081065	1
H	1.160709	0.006602	1.952435	1
H	-0.593321	-0.058718	2.185815	1
Es	-0.330481	0.986365	-1.067917	99
Es	-1.552368	-2.913872	-1.042667	99
Es	0.122078	0.912111	1.108106	99
Es	-0.306421	0.046695	-0.228995	99
Es	0.019772	-0.580725	0.110798	99
Es	-1.320990	0.761608	-0.390667	99
Es	-0.924129	-1.930862	-0.376950	99
Es	-1.454924	-1.830997	-1.596385	99
Es	0.682788	-0.746016	-0.215937	99
Es	-0.244898	1.195158	0.230167	99
Es	1.639101	2.293114	1.047402	99
Es	-1.116945	-1.629050	0.221356	99
Es	0.863687	0.063992	1.792104	99
Es	1.192487	2.638644	-0.025187	99
Es	0.006109	1.457736	0.771924	99
Es	-0.575280	0.755350	-0.391600	99
Es	-0.849059	-1.737753	0.124739	99
Es	-0.466961	-2.548502	-1.466142	99
Es	-0.343983	0.011115	1.943834	99
Es	0.127314	-0.298954	0.822978	99
Es	0.196026	0.158722	1.456044	99
Es	1.766318	1.567155	0.074299	99
Es	-1.110995	-2.325106	-1.141078	99
Es	-0.516119	-1.308929	0.074298	99
Es	0.583142	1.686250	0.605144	99
Es	1.297098	2.052106	0.426738	99
Es	-0.203366	1.695991	0.936208	99
Es	-0.698173	-1.951376	0.285071	99
46
Properties=species:S:1:pos:R:3:Z:I:1 energy=-325.0981524929998 field_type=dipole dipole="0.000000 0.000000 0.000000" charge=0
C	-1.111041	-2.325208	-1.141275	6
O	-0.849181	-1.737898	0.125065	8
C	0.019919	-0.580578	0.110785	6
C	-0.575351	0.755312	-0.391695	6
N	0.005679	1.458202	0.772255	7
C	1.297199	2.052162	0.426715	6
C	0.196029	0.158632	1.456145	6
H	-1.760471	-3.191748	-0.995045	1
H	-0.176541	-2.655738	-1.602785	1
H	-1.617611	-1.608428	-1.793005	1
H	0.984509	-0.825848	-0.355015	1
H	-1.671701	0.775672	-0.397765	1
H	-0.229681	1.079872	-1.379255	1
H	1.793629	2.415431	1.333505	1
H	1.144489	2.918772	-0.225815	1
H	1.982739	1.363512	-0.081065	1
H	1.160709	0.006602	1.952435	1
H	-0.593321	-0.058718	2.185815	1
Es	-0.515524	-1.308557	0.074599	99
Es	-0.246378	1.195653	0.229888	99
Es	-1.110994	-2.325109	-1.141083	99
Es	-0.306394	0.047052	-0.229091	99
Es	1.297097	2.052105	0.426739	99
Es	0.006088	1.457762	0.771950	99
Es	0.127409	-0.298922	0.823126	99
Es	-0.575283	0.755352	-0.391595	99
Es	0.019768	-0.580732	0.110795	99
Es	-0.925939	-1.930284	-0.377159	99
Es	-0.697790	-1.950741	0.282251	99
Es	-0.330380	0.986250	-1.068060	99
Es	-0.201359	1.693521	0.934899	99
Es	1.639570	2.293132	1.047665	99
Es	0.121391	0.912225	1.109099	99
Es	-1.454765	-1.831011	-1.596348	99
Es	0.583228	1.687823	0.605699	99
Es	0.196024	0.158723	1.456045	99
Es	1.192658	2.638386	-0.025538	99
Es	0.863852	0.064043	1.792183	99
Es	-1.116239	-1.630595	0.224028	99
Es	-1.552448	-2.914094	-1.042757	99
Es	-0.343995	0.011199	1.943775	99
Es	-0.467118	-2.548289	-1.466122	99
Es	0.682545	-0.745978	-0.215963	99
Es	-1.321065	0.761345	-0.390643	99
Es	1.765801	1.567497	0.074521	99
Es	-0.848930	-1.737788	0.124781	99
46
Properties=species:S:1:pos:R:3:Z:I:1 energy=-325.0981524929998 field_type=dipole dipole="0.000000 0.000000 0.000000" charge=0
C	-1.111041	-2.325208	-1.141275	6
O	-0.849181	-1.737898	0.125065	8
C	0.019919	-0.580578	0.110785	6
C	-0.575351	0.755312	-0.391695	6
N	0.005679	1.458202	0.772255	7
C	1.297199	2.052162	0.426715	6
C	0.196029	0.158632	1.456145	6
H	-1.760471	-3.191748	-0.995045	1
H	-0.176541	-2.655738	-1.602785	1
H	-1.617611	-1.608428	-1.793005	1
H	0.984509	-0.825848	-0.355015	1
H	-1.671701	0.775672	-0.397765	1
H	-0.229681	1.079872	-1.379255	1
H	1.793629	2.415431	1.333505	1
H	1.144489	2.918772	-0.225815	1
H	1.982739	1.363512	-0.081065	1
H	1.160709	0.006602	1.952435	1
H	-0.593321	-0.058718	2.185815	1
Es	-0.247136	1.195645	0.229753	99
Es	-0.514629	-1.308978	0.074740	99
Es	-0.927739	-1.929711	-0.377363	99
Es	-1.114353	-1.629894	0.223622	99
Es	-1.454511	-1.831027	-1.596228	99
Es	-0.330222	0.986066	-1.068229	99
Es	-1.321189	0.761264	-0.390548	99
Es	0.127563	-0.298760	0.823256	99
Es	0.583382	1.688510	0.605945	99
Es	0.006091	1.457746	0.771934	99
Es	-0.575280	0.755349	-0.391599	99
Es	1.192673	2.638256	-0.025640	99
Es	0.196025	0.158723	1.456045	99
Es	-1.552691	-2.914236	-1.042861	99
Es	-0.698663	-1.951595	0.282764	99
Es	0.682339	-0.745935	-0.215993	99
Es	-0.306468	0.047320	-0.229072	99
Es	-0.200350	1.692212	0.934266	99
Es	-0.344131	0.011207	1.943673	99
Es	0.019768	-0.580736	0.110798	99
Es	1.765560	1.567809	0.074562	99
Es	0.121030	0.912480	1.109569	99
Es	0.864021	0.064061	1.792275	99
Es	-1.110995	-2.325112	-1.141085	99
Es	-0.848991	-1.737799	0.124733	99
Es	1.639849	2.293140	1.047776	99
Es	-0.467219	-2.548136	-1.466148	99
Es	1.297097	2.052105	0.426740	99
46
Properties=species:S:1:pos:R:3:Z:I:1 energy=-325.0981524929998 field_type=dipole dipole="0.000000 0.000000 0.000000" charge=0
C	-1.111041	-2.325208	-1.141275	6
O	-0.849181	-1.737898	0.125065	8
C	0.019919	-0.580578	0.110785	6
C	-0.575351	0.755312	-0.391695	6
N	0.005679	1.458202	0.772255	7
C	1.297199	2.052162	0.426715	6
C	0.196029	0.158632	1.456145	6
H	-1.760471	-3.191748	-0.995045	1
H	-0.176541	-2.655738	-1.602785	1
H	-1.617611	-1.608428	-1.793005	1
H	0.984509	-0.825848	-0.355015	1
H	-1.671701	0.775672	-0.397765	1
H	-0.229681	1.079872	-1.379255	1
H	1.793629	2.415431	1.333505	1
H	1.144489	2.918772	-0.225815	1
H	1.982739	1.363512	-0.081065	1
H	1.160709	0.006602	1.952435	1
H	-0.593321	-0.058718	2.185815	1
Es	-0.330044	0.985985	-1.068312	99
Es	-1.552627	-2.914305	-1.042847	99
Es	0.583654	1.688965	0.606113	99
Es	-0.467257	-2.548083	-1.466116	99
Es	-0.344209	0.011310	1.943704	99
Es	1.192838	2.638087	-0.025842	99
Es	0.006086	1.457746	0.771933	99
Es	0.682282	-0.745898	-0.216146	99
Es	1.765327	1.567932	0.074753	99
Es	-0.306451	0.047554	-0.228963	99
Es	1.640024	2.293180	1.047907	99
Es	-0.700896	-1.951903	0.285052	99
Es	-1.321332	0.761072	-0.390554	99
Es	0.019770	-0.580727	0.110797	99
Es	-0.514098	-1.308972	0.075416	99
Es	-0.199368	1.691264	0.933564	99
Es	0.127542	-0.298683	0.823328	99
Es	-0.927094	-1.930243	-0.377621	99
Es	1.297095	2.052105	0.426740	99
Es	-1.110994	-2.325105	-1.141078	99
Es	0.864152	0.064097	1.792268	99
Es	-1.454545	-1.831010	-1.596268	99
Es	0.196026	0.158723	1.456045	99
Es	-0.575281	0.755350	-0.391602	99
Es	0.120412	0.912624	1.110067	99
Es	-0.849021	-1.737794	0.124752	99
Es	-0.247846	1.195748	0.229756	99
Es	-1.113315	-1.629050	0.220840	99
46
Properties=species:S:1:pos:R:3:Z:I:1 energy=-325.0981524929998 field_type=dipole dipole="0.000000 0.000000 0.000000" charge=0
C	-1.111041	-2.325208	-1.141275	6
O	-0.849181	-1.737898	0.125065	8
C	0.019919	-0.580578	0.110785	6
C	-0.575351	0.755312	-0.391695	6
N	0.005679	1.458202	0.772255	7
C	1.297199	2.052162	0.426715	6
C	0.196029	0.158632	1.456145	6
H	-1.760471	-3.191748	-0.995045	1
H	-0.176541	-2.655738	-1.602785	1
H	-1.617611	-1.608428	-1.793005	1
H	0.984509	-0.825848	-0.355015	1
H	-1.671701	0.775672	-0.397765	1
H	-0.229681	1.079872	-1.379255	1
H	1.793629	2.415431	1.333505	1
H	1.144489	2.918772	-0.225815	1
H	1.982739	1.363512	-0.081065	1
H	1.160709	0.006602	1.952435	1
H	-0.593321	-0.058718	2.185815	1
Es	-0.467282	-2.548020	-1.466145	99
Es	-0.330156	0.985966	-1.068338	99
Es	-0.198443	1.690529	0.933021	99
Es	0.583610	1.689276	0.606389	99
Es	1.640228	2.293313	1.047970	99
Es	-1.552807	-2.914341	-1.042955	99
Es	-0.575279	0.755352	-0.391599	99
Es	-0.248327	1.196236	0.229631	99
Es	-1.112690	-1.629615	0.223124	99
Es	-1.454359	-1.831026	-1.596169	99
Es	-0.849051	-1.737792	0.124735	99
Es	1.297095	2.052108	0.426737	99
Es	1.192877	2.637859	-0.025909	99
Es	1.765162	1.568056	0.074766	99
Es	-0.344218	0.011308	1.943699	99
Es	-1.110994	-2.325106	-1.141079	99
Es	-1.321313	0.760953	-0.390497	99
Es	0.196026	0.158723	1.456045	99
Es	-0.513537	-1.309272	0.075290	99
Es	0.864126	0.064102	1.792287	99
Es	-0.929105	-1.929169	-0.377658	99
Es	0.682212	-0.745876	-0.216078	99
Es	0.019768	-0.580733	0.110796	99
Es	0.120050	0.912569	1.110545	99
Es	-0.306386	0.047666	-0.229104	99
Es	0.006074	1.457745	0.771938	99
Es	-0.700059	-1.952152	0.282969	99
Es	0.127609	-0.298688	0.823276	99
46
Properties=species:S:1:pos:R:3:Z:I:1 energy=-325.0981524929998 field_type=dipole dipole="0.000000 0.000000 0.000000" charge=0
C	-1.111041	-2.325208	-1.141275	6
O	-0.849181	-1.737898	0.125065	8
C	0.019919	-0.580578	0.110785	6
C	-0.575351	0.755312	-0.391695	6
N	0.005679	1.458202	0.772255	7
C	1.297199	2.052162	0.426715	6
C	0.196029	0.158632	1.456145	6
H	-1.760471	-3.191748	-0.995045	1
H	-0.176541	-2.655738	-1.602785	1
H	-1.617611	-1.608428	-1.793005	1
H	0.984509	-0.825848	-0.355015	1
H	-1.671701	0.775672	-0.397765	1
H	-0.229681	1.079872	-1.379255	1
H	1.793629	2.415431	1.333505	1
H	1.144489	2.918772	-0.225815	1
H	1.982739	1.363512	-0.081065	1
H	1.160709	0.006602	1.952435	1
H	-0.593321	-0.058718	2.185815	1
Es	0.682111	-0.745872	-0.216130	99
Es	-0.306405	0.047962	-0.229109	99
Es	-0.575279	0.755351	-0.391599	99
Es	-0.510188	-1.311657	0.076212	99
Es	0.196025	0.158723	1.456044	99
Es	1.640511	2.293193	1.048004	99
Es	-1.321428	0.760769	-0.390376	99
Es	1.192906	2.637840	-0.025896	99
Es	-0.467351	-2.547965	-1.466134	99
Es	0.864276	0.064096	1.792300	99
Es	-1.110995	-2.325107	-1.141080	99
Es	0.006048	1.457783	0.771964	99
Es	0.120107	0.912593	1.110305	99
Es	-0.927380	-1.930473	-0.377587	99
Es	-0.344367	0.011352	1.943678	99
Es	-0.849092	-1.737817	0.124878	99
Es	1.297094	2.052103	0.426738	99
Es	0.127656	-0.298529	0.823450	99
Es	1.764910	1.568267	0.074701	99
Es	0.019768	-0.580732	0.110796	99
Es	-0.248438	1.195991	0.229919	99
Es	-1.110948	-1.624668	0.215675	99
Es	-0.330025	0.985873	-1.068512	99
Es	-0.198489	1.690535	0.933157	99
Es	-1.552844	-2.914426	-1.042929	99
Es	-1.454305	-1.831076	-1.596173	99
Es	0.583758	1.689156	0.606151	99
Es	-0.706806	-1.953295	0.289237	99
46
Properties=species:S:1:pos:R:3:Z:I:1 energy=-325.0981524929998 field_type=dipole dipole="0.000000 0.000000 0.000000" charge=0
C	-1.111041	-2.325208	-1.141275	6
O	-0.849181	-1.737898	0.125065	8
C	0.019919	-0.580578	0.110785	6
C	-0.575351	0.755312	-0.391695	6
N	0.005679	1.458202	0.772255	7
C	1.297199	2.052162	0.426715	6
C	0.196029	0.158632	1.456145	6
H	-1.760471	-3.191748	-0.995045	1
H	-0.176541	-2.655738	-1.602785	1
H	-1.617611	-1.608428	-1.793005	1
H	0.984509	-0.825848	-0.355015	1
H	-1.671701	0.775672	-0.397765	1
H	-0.229681	1.079872	-1.379255	1
H	1.793629	2.415431	1.333505	1
H	1.144489	2.918772	-0.225815	1
H	1.982739	1.363512	-0.081065	1
H	1.160709	0.006602	1.952435	1
H	-0.593321	-0.058718	2.185815	1
Es	0.682052	-0.745903	-0.216129	99
Es	-0.575278	0.755351	-0.391598	99
Es	1.640604	2.293261	1.048078	99
Es	-1.552877	-2.914498	-1.042987	99
Es	-1.321411	0.760766	-0.390437	99
Es	-0.329986	0.985895	-1.068488	99
Es	-0.344383	0.011338	1.943588	99
Es	0.019768	-0.580731	0.110798	99
Es	-0.306380	0.047948	-0.229137	99
Es	0.127750	-0.298526	0.823463	99
Es	-0.248741	1.196140	0.229691	99
Es	-1.454223	-1.831069	-1.596174	99
Es	1.764766	1.568362	0.074918	99
Es	0.583668	1.689882	0.606568	99
Es	0.006091	1.457743	0.771931	99
Es	-1.110994	-2.325106	-1.141078	99
Es	0.196025	0.158723	1.456046	99
Es	-0.512352	-1.310124	0.076129	99
Es	1.297096	2.052106	0.426738	99
Es	-1.111966	-1.628972	0.222682	99
Es	-0.701606	-1.952364	0.283085	99
Es	1.192998	2.637713	-0.026126	99
Es	-0.197871	1.689562	0.932373	99
Es	-0.849095	-1.737682	0.124721	99
Es	-0.467387	-2.547894	-1.466099	99
Es	0.119723	0.912681	1.110887	99
Es	0.864274	0.064123	1.792397	99
Es	-0.929435	-1.928752	-0.378154	99
46
Properties=species:S:1:pos:R:3:Z:I:1 energy=-325.0981524929998 field_type=dipole dipole="0.000000 0.000000 0.000000" charge=0
C	-1.111041	-2.325208	-1.141275	6
O	-0.849181	-1.737898	0.125065	8
C	0.019919	-0.580578	0.110785	6
C	-0.575351	0.755312	-0.391695	6
N	0.005679	1.458202	0.772255	7
C	1.297199	2.052162	0.426715	6
C	0.196029	0.158632	1.456145	6
H	-1.760471	-3.191748	-0.995045	1
H	-0.176541	-2.655738	-1.602785	1
H	-1.617611	-1.608428	-1.793005	1
H	0.984509	-0.825848	-0.355015	1
H	-1.671701	0.775672	-0.397765	1
H	-0.229681	1.079872	-1.379255	1
H	1.793629	2.415431	1.333505	1
H	1.144489	2.918772	-0.225815	1
H	1.982739	1.363512	-0.081065	1
H	1.160709	0.006602	1.952435	1
H	-0.593321	-0.058718	2.185815	1
Es	0.583854	1.689980	0.606648	99
Es	-0.848997	-1.737793	0.124797	99
Es	-0.329858	0.985698	-1.068585	99
Es	0.681967	-0.745846	-0.216170	99
Es	-0.344436	0.011327	1.943568	99
Es	-0.575278	0.755350	-0.391596	99
Es	1.764638	1.568461	0.074891	99
Es	-1.454218	-1.831070	-1.596128	99
Es	0.006087	1.457749	0.771939	99
Es	0.019769	-0.580731	0.110798	99
Es	0.119424	0.912764	1.111099	99
Es	1.640726	2.293137	1.048102	99
Es	0.196025	0.158723	1.456045	99
Es	1.297097	2.052104	0.426738	99
Es	-0.467396	-2.547835	-1.466129	99
Es	-0.513913	-1.309199	0.075119	99
Es	-0.197224	1.689088	0.932109	99
Es	-1.110994	-2.325106	-1.141078	99
Es	-0.930490	-1.929194	-0.378038	99
Es	0.864375	0.064109	1.792385	99
Es	-1.321556	0.760685	-0.390378	99
Es	-0.699464	-1.951646	0.282345	99
Es	0.127796	-0.298429	0.823507	99
Es	-0.306439	0.048208	-0.229027	99
Es	-1.111595	-1.630123	0.224224	99
Es	1.193009	2.637767	-0.026119	99
Es	-0.249194	1.196323	0.229647	99
Es	-1.552886	-2.914531	-1.043026	99
46
Properties=species:S:1:pos:R:3:Z:I:1 energy=-325.0981524929998 field_type=dipole dipole="0.000000 0.000000 0.000000" charge=0
C	-1.111041	-2.325208	-1.141275	6
O	-0.849181	-1.737898	0.125065	8
C	0.019919	-0.580578	0.110785	6
C	-0.575351	0.755312	-0.391695	6
N	0.005679	1.458202	0.772255	7
C	1.297199	2.052162	0.426715	6
C	0.196029	0.158632	1.456145	6
H	-1.760471	-3.191748	-0.995045	1
H	-0.176541	-2.655738	-1.602785	1
H	-1.617611	-1.608428	-1.793005	1
H	0.984509	-0.825848	-0.355015	1
H	-1.671701	0.775672	-0.397765	1
H	-0.229681	1.079872	-1.379255	1
H	1.793629	2.415431	1.333505	1
H	1.144489	2.918772	-0.225815	1
H	1.982739	1.363512	-0.081065	1
H	1.160709	0.006602	1.952435	1
H	-0.593321	-0.058718	2.185815	1
Es	0.127716	-0.298434	0.823467	99
Es	0.006045	1.457775	0.771964	99
Es	0.019767	-0.580733	0.110796	99
Es	0.119428	0.912701	1.111281	99
Es	-0.344467	0.011416	1.943569	99
Es	-1.552961	-2.914508	-1.043040	99
Es	-0.703922	-1.952802	0.285497	99
Es	-0.929297	-1.929375	-0.377959	99
Es	0.583844	1.690065	0.606595	99
Es	-0.329831	0.985737	-1.068650	99
Es	-0.467358	-2.547827	-1.466178	99
Es	-0.511215	-1.310757	0.076205	99
Es	1.297096	2.052105	0.426739	99
Es	-0.849027	-1.737800	0.124827	99
Es	-0.575279	0.755351	-0.391599	99
Es	0.682034	-0.745853	-0.216201	99
Es	-1.110994	-2.325106	-1.141079	99
Es	0.196025	0.158723	1.456045	99
Es	1.192988	2.637649	-0.026188	99
Es	0.864355	0.064155	1.792438	99
Es	-0.306455	0.048238	-0.229055	99
Es	-1.111005	-1.627183	0.219875	99
Es	1.640729	2.293267	1.048137	99
Es	-0.249346	1.196298	0.229748	99
Es	-1.454178	-1.831109	-1.596057	99
Es	-0.196959	1.688874	0.931901	99
Es	1.764642	1.568499	0.074954	99
Es	-1.321543	0.760606	-0.390345	99
46
Properties=species:S:1:pos:R:3:Z:I:1 energy=-325.0981524929998 field_type=dipole dipole="0.000000 0.000000 0.000000" charge=0
C	-1.111041	-2.325208	-1.141275	6
O	-0.849181	-1.737898	0.125065	8
C	0.019919	-0.580578	0.110785	6
C	-0.575351	0.755312	-0.391695	6
N	0.005679	1.458202	0.772255	7
C	1.297199	2.052162	0.426715	6
C	0.196029	0.158632	1.456145	6
H	-1.760471	-3.191748	-0.995045	1
H	-0.176541	-2.655738	-1.602785	1
H	-1.617611	-1.608428	-1.793005	1
H	0.984509	-0.825848	-0.355015	1
H	-1.671701	0.775672	-0.397765	1
H	-0.229681	1.079872	-1.379255	1
H	1.793629	2.415431	1.333505	1
H	1.144489	2.918772	-0.225815	1
H	1.982739	1.363512	-0.081065	1
H	1.160709	0.006602	1.952435	1
H	-0.593321	-0.058718	2.185815	1
Es	0.583791	1.690352	0.606792	99
Es	1.297092	2.052105	0.426741	99
Es	-1.110994	-2.325105	-1.141077	99
Es	-1.552845	-2.914543	-1.043021	99
Es	-0.196466	1.688436	0.931403	99
Es	0.196025	0.158724	1.456045	99
Es	1.193026	2.637652	-0.026154	99
Es	0.681965	-0.745869	-0.216229	99
Es	0.864432	0.064108	1.792381	99
Es	-1.111433	-1.628858	0.222302	99
Es	0.119078	0.912803	1.111730	99
Es	-0.344434	0.011340	1.943575	99
Es	-0.929815	-1.929423	-0.377972	99
Es	0.127737	-0.298402	0.823566	99
Es	1.764552	1.568493	0.074895	99
Es	-1.454291	-1.831110	-1.596075	99
Es	-0.575278	0.755350	-0.391599	99
Es	-0.306453	0.048309	-0.229092	99
Es	-0.467394	-2.547782	-1.466199	99
Es	1.640828	2.293204	1.048142	99
Es	-0.848998	-1.737787	0.124746	99
Es	-1.321535	0.760553	-0.390319	99
Es	-0.511813	-1.309953	0.076085	99
Es	-0.702392	-1.951861	0.283272	99
Es	-0.329849	0.985763	-1.068679	99
Es	0.006073	1.457774	0.771945	99
Es	-0.249545	1.196429	0.229686	99
Es	0.019768	-0.580732	0.110796	99
