46
Properties=species:S:1:pos:R:3:Z:I:1 energy=-325.1033028381376 field_type=dipole dipole="0.000000 0.000000 0.000000" charge=0
C	-2.749790	-0.412808	0.999054	6
O	-1.334070	-0.542468	1.000554	8
C	-0.772130	-0.198549	-0.265726	6
C	0.731360	-0.351358	-0.171756	6
C	1.543911	0.154412	-1.380186	6
N	2.549790	0.689492	-0.433886	7
C	1.496000	0.735042	0.609984	6
H	-3.124310	-0.713118	1.981424	1
H	-3.194810	-1.064828	0.240994	1
H	-3.037490	0.627261	0.818004	1
H	-1.052000	0.829272	-0.525036	1
H	-1.169420	-0.874228	-1.031836	1
H	1.023650	-1.369598	0.124514	1
H	1.057020	0.934312	-1.977826	1
H	1.917390	-0.620668	-2.055736	1
H	3.288950	0.019762	-0.216026	1
H	1.831481	0.449892	1.611414	1
H	0.994461	1.708182	0.672074	1
Es	-1.229990	-0.330695	1.196140	99
Es	-1.156456	-0.404356	0.508539	99
Es	1.730883	0.542082	1.297842	99
Es	-3.007185	-0.616520	1.667195	99
Es	2.133030	0.723156	0.060176	99
Es	1.068607	-0.146656	-0.838823	99
Es	1.202954	0.691754	-1.778984	99
Es	1.543990	0.154447	-1.380081	99
Es	-0.031745	-0.279007	-0.218193	99
Es	-3.057951	-0.857013	0.471272	99
Es	-1.275980	-0.842601	1.037532	99
Es	-0.772222	-0.198609	-0.265529	99
Es	-2.749575	-0.412824	0.999047	99
Es	1.043479	0.181834	0.292426	99
Es	0.934451	-1.042373	0.027663	99
Es	2.153245	0.444654	-0.887980	99
Es	-1.334311	-0.542274	1.000262	99
Es	1.802222	-0.378208	-1.848180	99
Es	2.549503	0.688948	-0.433727	99
Es	0.731351	-0.351319	-0.171780	99
Es	-2.950700	0.303228	0.866319	99
Es	1.146535	1.398206	0.638990	99
Es	-0.963125	0.514233	-0.448424	99
Es	-1.875005	-0.481945	0.967757	99
Es	2.705690	1.006053	-0.524114	99
Es	-1.050140	-0.663244	-0.801480	99
Es	1.496094	0.735017	0.609872	99
Es	2.963998	0.254887	-0.295896	99
46
Properties=species:S:1:pos:R:3:Z:I:1 energy=-325.1033028381376 field_type=dipole dipole="0.000000 0.000000 0.000000" charge=0
C	-2.749790	-0.412808	0.999054	6
O	-1.334070	-0.542468	1.000554	8
C	-0.772130	-0.198549	-0.265726	6
C	0.731360	-0.351358	-0.171756	6
C	1.543911	0.154412	-1.380186	6
N	2.549790	0.689492	-0.433886	7
C	1.496000	0.735042	0.609984	6
H	-3.124310	-0.713118	1.981424	1
H	-3.194810	-1.064828	0.240994	1
H	-3.037490	0.627261	0.818004	1
H	-1.052000	0.829272	-0.525036	1
H	-1.169420	-0.874228	-1.031836	1
H	1.023650	-1.369598	0.124514	1
H	1.057020	0.934312	-1.977826	1
H	1.917390	-0.620668	-2.055736	1
H	3.288950	0.019762	-0.216026	1
H	1.831481	0.449892	1.611414	1
H	0.994461	1.708182	0.672074	1
Es	0.731351	-0.351320	-0.171781	99
Es	2.703550	1.002115	-0.522746	99
Es	0.934443	-1.042391	0.027928	99
Es	-1.157055	-0.405825	0.507762	99
Es	-2.749574	-0.412825	0.999047	99
Es	1.043910	0.182340	0.292198	99
Es	2.132539	0.724882	0.060371	99
Es	-3.007427	-0.616694	1.667331	99
Es	2.966424	0.255199	-0.295969	99
Es	-0.031602	-0.279061	-0.218174	99
Es	-2.950593	0.303195	0.866245	99
Es	-0.963225	0.514266	-0.448581	99
Es	1.730840	0.541530	1.298358	99
Es	1.146172	1.398236	0.638678	99
Es	1.543990	0.154448	-1.380079	99
Es	-0.772222	-0.198609	-0.265528	99
Es	2.153068	0.446247	-0.889632	99
Es	-1.050131	-0.663141	-0.801261	99
Es	-1.226377	-0.332193	1.198389	99
Es	-1.279326	-0.841683	1.034864	99
Es	1.802314	-0.378556	-1.848127	99
Es	2.549497	0.688889	-0.433712	99
Es	1.202686	0.692091	-1.779009	99
Es	-3.057797	-0.856694	0.471210	99
Es	-1.874701	-0.479996	0.969044	99
Es	1.069089	-0.146363	-0.839121	99
Es	-1.334287	-0.542254	1.000259	99
Es	1.496093	0.735019	0.609874	99
46
Properties=species:S:1:pos:R:3:Z:I:1 energy=-325.1033028381376 field_type=dipole dipole="0.000000 0.000000 0.000000" charge=0
C	-2.749790	-0.412808	0.999054	6
O	-1.334070	-0.542468	1.000554	8
C	-0.772130	-0.198549	-0.265726	6
C	0.731360	-0.351358	-0.171756	6
C	1.543911	0.154412	-1.380186	6
N	2.549790	0.689492	-0.433886	7
C	1.496000	0.735042	0.609984	6
H	-3.124310	-0.713118	1.981424	1
H	-3.194810	-1.064828	0.240994	1
H	-3.037490	0.627261	0.818004	1
H	-1.052000	0.829272	-0.525036	1
H	-1.169420	-0.874228	-1.031836	1
H	1.023650	-1.369598	0.124514	1
H	1.057020	0.934312	-1.977826	1
H	1.917390	-0.620668	-2.055736	1
H	3.288950	0.019762	-0.216026	1
H	1.831481	0.449892	1.611414	1
H	0.994461	1.708182	0.672074	1
Es	-1.334215	-0.542376	1.000352	99
Es	2.152822	0.447647	-0.890851	99
Es	-1.229645	-0.329315	1.192817	99
Es	-3.007517	-0.616644	1.667535	99
Es	1.069488	-0.146262	-0.839389	99
Es	-2.950448	0.303052	0.866192	99
Es	1.044230	0.182586	0.292295	99
Es	-1.050125	-0.663135	-0.801198	99
Es	2.968065	0.255567	-0.296458	99
Es	-0.772221	-0.198609	-0.265531	99
Es	-1.276584	-0.842334	1.041289	99
Es	1.802390	-0.378774	-1.847999	99
Es	-0.963276	0.514280	-0.448631	99
Es	0.731351	-0.351319	-0.171781	99
Es	2.702022	0.998751	-0.521578	99
Es	2.549527	0.688996	-0.433749	99
Es	0.934380	-1.042258	0.027990	99
Es	-0.031597	-0.279119	-0.218237	99
Es	2.132213	0.726153	0.060949	99
Es	-3.057790	-0.856580	0.471108	99
Es	-1.874688	-0.479865	0.969003	99
Es	1.496095	0.735017	0.609869	99
Es	1.145924	1.398193	0.638300	99
Es	-2.749579	-0.412825	0.999047	99
Es	1.730985	0.541356	1.298809	99
Es	-1.156621	-0.408074	0.506874	99
Es	1.202473	0.692296	-1.779106	99
Es	1.543990	0.154447	-1.380081	99
46
Properties=species:S:1:pos:R:3:Z:I:1 energy=-325.1033028381376 field_type=dipole dipole="0.000000 0.000000 0.000000" charge=0
C	-2.749790	-0.412808	0.999054	6
O	-1.334070	-0.542468	1.000554	8
C	-0.772130	-0.198549	-0.265726	6
C	0.731360	-0.351358	-0.171756	6
C	1.543911	0.154412	-1.380186	6
N	2.549790	0.689492	-0.433886	7
C	1.496000	0.735042	0.609984	6
H	-3.124310	-0.713118	1.981424	1
H	-3.194810	-1.064828	0.240994	1
H	-3.037490	0.627261	0.818004	1
H	-1.052000	0.829272	-0.525036	1
H	-1.169420	-0.874228	-1.031836	1
H	1.023650	-1.369598	0.124514	1
H	1.057020	0.934312	-1.977826	1
H	1.917390	-0.620668	-2.055736	1
H	3.288950	0.019762	-0.216026	1
H	1.831481	0.449892	1.611414	1
H	0.994461	1.708182	0.672074	1
Es	1.202365	0.692458	-1.779005	99
Es	0.731351	-0.351319	-0.171779	99
Es	-0.772222	-0.198609	-0.265528	99
Es	-0.031502	-0.279096	-0.218245	99
Es	-1.874727	-0.482265	0.968588	99
Es	1.069717	-0.145917	-0.839484	99
Es	-0.963292	0.514273	-0.448711	99
Es	1.802462	-0.379105	-1.848073	99
Es	-2.950330	0.303007	0.866247	99
Es	-3.007621	-0.616683	1.667581	99
Es	2.969069	0.256001	-0.296289	99
Es	-1.050104	-0.663149	-0.801149	99
Es	1.145795	1.398156	0.638194	99
Es	-2.749577	-0.412825	0.999047	99
Es	1.730976	0.541046	1.299061	99
Es	2.131984	0.727587	0.061098	99
Es	1.044456	0.182863	0.292321	99
Es	2.549520	0.688935	-0.433732	99
Es	2.152724	0.448446	-0.892064	99
Es	1.543990	0.154448	-1.380080	99
Es	-1.233789	-0.325372	1.187416	99
Es	-1.334353	-0.542652	1.000087	99
Es	-1.157065	-0.409631	0.506179	99
Es	-3.057785	-0.856433	0.470979	99
Es	2.701058	0.996037	-0.520736	99
Es	1.496094	0.735016	0.609871	99
Es	0.934307	-1.042327	0.027924	99
Es	-1.271854	-0.842041	1.048125	99
46
Properties=species:S:1:pos:R:3:Z:I:1 energy=-325.1033028381376 field_type=dipole dipole="0.000000 0.000000 0.000000" charge=0
C	-2.749790	-0.412808	0.999054	6
O	-1.334070	-0.542468	1.000554	8
C	-0.772130	-0.198549	-0.265726	6
C	0.731360	-0.351358	-0.171756	6
C	1.543911	0.154412	-1.380186	6
N	2.549790	0.689492	-0.433886	7
C	1.496000	0.735042	0.609984	6
H	-3.124310	-0.713118	1.981424	1
H	-3.194810	-1.064828	0.240994	1
H	-3.037490	0.627261	0.818004	1
H	-1.052000	0.829272	-0.525036	1
H	-1.169420	-0.874228	-1.031836	1
H	1.023650	-1.369598	0.124514	1
H	1.057020	0.934312	-1.977826	1
H	1.917390	-0.620668	-2.055736	1
H	3.288950	0.019762	-0.216026	1
H	1.831481	0.449892	1.611414	1
H	0.994461	1.708182	0.672074	1
Es	2.152684	0.449166	-0.892687	99
Es	-2.950231	0.302950	0.866081	99
Es	2.969850	0.256105	-0.296357	99
Es	-3.007715	-0.616642	1.667755	99
Es	1.496095	0.735017	0.609870	99
Es	1.543989	0.154448	-1.380080	99
Es	-1.156879	-0.410152	0.505908	99
Es	2.549537	0.689026	-0.433761	99
Es	1.145582	1.398080	0.638000	99
Es	-0.031386	-0.279118	-0.218203	99
Es	-1.334258	-0.542361	1.000307	99
Es	2.131963	0.728274	0.061131	99
Es	2.700270	0.994344	-0.520097	99
Es	-2.749574	-0.412826	0.999049	99
Es	1.802437	-0.379130	-1.848023	99
Es	0.731351	-0.351319	-0.171781	99
Es	1.044658	0.183008	0.292207	99
Es	-0.963380	0.514344	-0.448776	99
Es	-0.772222	-0.198610	-0.265531	99
Es	1.202191	0.692583	-1.779021	99
Es	-1.230022	-0.328224	1.190030	99
Es	-3.057706	-0.856376	0.470984	99
Es	-1.276216	-0.842565	1.044437	99
Es	-1.874420	-0.478690	0.969708	99
Es	1.069948	-0.145946	-0.839713	99
Es	-1.050126	-0.663132	-0.801025	99
Es	1.730955	0.540937	1.299277	99
Es	0.934274	-1.042339	0.028151	99
46
Properties=species:S:1:pos:R:3:Z:I:1 energy=-325.1033028381376 field_type=dipole dipole="0.000000 0.000000 0.000000" charge=0
C	-2.749790	-0.412808	0.999054	6
O	-1.334070	-0.542468	1.000554	8
C	-0.772130	-0.198549	-0.265726	6
C	0.731360	-0.351358	-0.171756	6
C	1.543911	0.154412	-1.380186	6
N	2.549790	0.689492	-0.433886	7
C	1.496000	0.735042	0.609984	6
H	-3.124310	-0.713118	1.981424	1
H	-3.194810	-1.064828	0.240994	1
H	-3.037490	0.627261	0.818004	1
H	-1.052000	0.829272	-0.525036	1
H	-1.169420	-0.874228	-1.031836	1
H	1.023650	-1.369598	0.124514	1
H	1.057020	0.934312	-1.977826	1
H	1.917390	-0.620668	-2.055736	1
H	3.288950	0.019762	-0.216026	1
H	1.831481	0.449892	1.611414	1
H	0.994461	1.708182	0.672074	1
Es	1.731015	0.540657	1.299411	99
Es	1.802612	-0.379221	-1.847990	99
Es	-0.031428	-0.279042	-0.218122	99
Es	-1.334303	-0.542495	1.000178	99
Es	1.496094	0.735016	0.609870	99
Es	-3.007713	-0.616752	1.667782	99
Es	-1.276308	-0.842422	1.044150	99
Es	2.699596	0.992147	-0.519275	99
Es	2.131743	0.729266	0.061383	99
Es	-1.049986	-0.663207	-0.801027	99
Es	-2.749572	-0.412829	0.999048	99
Es	-1.874418	-0.478615	0.969842	99
Es	1.202035	0.692693	-1.779033	99
Es	1.145500	1.398167	0.637932	99
Es	0.934299	-1.042397	0.028191	99
Es	2.152551	0.450249	-0.893637	99
Es	1.044803	0.183221	0.292075	99
Es	0.731352	-0.351319	-0.171781	99
Es	1.070072	-0.145876	-0.839850	99
Es	-0.963399	0.514378	-0.448852	99
Es	2.970530	0.256252	-0.296447	99
Es	1.543991	0.154448	-1.380081	99
Es	-3.057642	-0.856324	0.470979	99
Es	2.549511	0.688941	-0.433733	99
Es	-1.229811	-0.328466	1.190337	99
Es	-2.950261	0.302971	0.866100	99
Es	-0.772222	-0.198609	-0.265529	99
Es	-1.156992	-0.409979	0.505920	99
46
Properties=species:S:1:pos:R:3:Z:I:1 energy=-325.1033028381376 field_type=dipole dipole="0.000000 0.000000 0.000000" charge=0
C	-2.749790	-0.412808	0.999054	6
O	-1.334070	-0.542468	1.000554	8
C	-0.772130	-0.198549	-0.265726	6
C	0.731360	-0.351358	-0.171756	6
C	1.543911	0.154412	-1.380186	6
N	2.549790	0.689492	-0.433886	7
C	1.496000	0.735042	0.609984	6
H	-3.124310	-0.713118	1.981424	1
H	-3.194810	-1.064828	0.240994	1
H	-3.037490	0.627261	0.818004	1
H	-1.052000	0.829272	-0.525036	1
H	-1.169420	-0.874228	-1.031836	1
H	1.023650	-1.369598	0.124514	1
H	1.057020	0.934312	-1.977826	1
H	1.917390	-0.620668	-2.055736	1
H	3.288950	0.019762	-0.216026	1
H	1.831481	0.449892	1.611414	1
H	0.994461	1.708182	0.672074	1
Es	-2.950214	0.302911	0.865982	99
Es	0.731351	-0.351319	-0.171780	99
Es	-1.050045	-0.663151	-0.800893	99
Es	2.699229	0.991054	-0.518683	99
Es	-1.334262	-0.542364	1.000316	99
Es	1.802613	-0.379274	-1.847956	99
Es	-1.156955	-0.409496	0.506069	99
Es	-0.963434	0.514437	-0.448904	99
Es	1.202013	0.692796	-1.779056	99
Es	-1.280007	-0.843588	1.040699	99
Es	1.145432	1.398147	0.637782	99
Es	1.496094	0.735017	0.609871	99
Es	1.044921	0.183420	0.292112	99
Es	2.152454	0.450932	-0.894201	99
Es	2.131787	0.729536	0.061299	99
Es	2.549518	0.688927	-0.433728	99
Es	2.970868	0.256190	-0.296488	99
Es	-3.057589	-0.856294	0.470978	99
Es	-1.873758	-0.475156	0.970784	99
Es	-2.749576	-0.412825	0.999047	99
Es	1.543991	0.154449	-1.380080	99
Es	-3.007781	-0.616715	1.667896	99
Es	-0.031367	-0.279143	-0.218184	99
Es	1.070165	-0.145830	-0.839915	99
Es	-1.226830	-0.331359	1.192564	99
Es	1.730973	0.540558	1.299576	99
Es	-0.772221	-0.198609	-0.265529	99
Es	0.934279	-1.042398	0.028263	99
46
Properties=species:S:1:pos:R:3:Z:I:1 energy=-325.1033028381376 field_type=dipole dipole="0.000000 0.000000 0.000000" charge=0
C	-2.749790	-0.412808	0.999054	6
O	-1.334070	-0.542468	1.000554	8
C	-0.772130	-0.198549	-0.265726	6
C	0.731360	-0.351358	-0.171756	6
C	1.543911	0.154412	-1.380186	6
N	2.549790	0.689492	-0.433886	7
C	1.496000	0.735042	0.609984	6
H	-3.124310	-0.713118	1.981424	1
H	-3.194810	-1.064828	0.240994	1
H	-3.037490	0.627261	0.818004	1
H	-1.052000	0.829272	-0.525036	1
H	-1.169420	-0.874228	-1.031836	1
H	1.023650	-1.369598	0.124514	1
H	1.057020	0.934312	-1.977826	1
H	1.917390	-0.620668	-2.055736	1
H	3.288950	0.019762	-0.216026	1
H	1.831481	0.449892	1.611414	1
H	0.994461	1.708182	0.672074	1
Es	1.802614	-0.379425	-1.847952	99
Es	-0.963406	0.514416	-0.448934	99
Es	2.971636	0.256481	-0.296699	99
Es	-1.157331	-0.410860	0.505504	99
Es	-2.749578	-0.412825	0.999047	99
Es	2.152470	0.451460	-0.894508	99
Es	-1.278370	-0.843334	1.043627	99
Es	-0.772222	-0.198609	-0.265529	99
Es	-1.873786	-0.475918	0.970922	99
Es	-3.007836	-0.616705	1.667957	99
Es	-1.228080	-0.329471	1.190187	99
Es	2.131623	0.729265	0.061249	99
Es	0.731352	-0.351318	-0.171778	99
Es	-1.334253	-0.542380	1.000285	99
Es	1.543991	0.154448	-1.380083	99
Es	1.731023	0.540377	1.299712	99
Es	2.698437	0.990414	-0.518100	99
Es	1.145396	1.398157	0.637709	99
Es	-0.031337	-0.279169	-0.218316	99
Es	-1.050040	-0.663164	-0.800897	99
Es	0.934157	-1.042343	0.028234	99
Es	-3.057591	-0.856225	0.470887	99
Es	1.070395	-0.145741	-0.840076	99
Es	1.201900	0.692839	-1.779030	99
Es	-2.950126	0.302857	0.865999	99
Es	1.045001	0.183675	0.292286	99
Es	2.549518	0.688936	-0.433731	99
Es	1.496094	0.735017	0.609870	99
46
Properties=species:S:1:pos:R:3:Z:I:1 energy=-325.1033028381376 field_type=dipole dipole="0.000000 0.000000 0.000000" charge=0
C	-2.749790	-0.412808	0.999054	6
O	-1.334070	-0.542468	1.000554	8
C	-0.772130	-0.198549	-0.265726	6
C	0.731360	-0.351358	-0.171756	6
C	1.543911	0.154412	-1.380186	6
N	2.549790	0.689492	-0.433886	7
C	1.496000	0.735042	0.609984	6
H	-3.124310	-0.713118	1.981424	1
H	-3.194810	-1.064828	0.240994	1
H	-3.037490	0.627261	0.818004	1
H	-1.052000	0.829272	-0.525036	1
H	-1.169420	-0.874228	-1.031836	1
H	1.023650	-1.369598	0.124514	1
H	1.057020	0.934312	-1.977826	1
H	1.917390	-0.620668	-2.055736	1
H	3.288950	0.019762	-0.216026	1
H	1.831481	0.449892	1.611414	1
H	0.994461	1.708182	0.672074	1
Es	2.971417	0.256341	-0.296441	99
Es	0.731352	-0.351318	-0.171781	99
Es	-2.749574	-0.412825	0.999047	99
Es	-1.049990	-0.663155	-0.800924	99
Es	0.934227	-1.042350	0.028282	99
Es	1.496094	0.735017	0.609871	99
Es	-3.057612	-0.856239	0.470886	99
Es	-1.873793	-0.477436	0.970353	99
Es	-0.963419	0.514412	-0.448935	99
Es	-2.950121	0.302871	0.866018	99
Es	1.731042	0.540347	1.299825	99
Es	2.698566	0.988291	-0.517701	99
Es	-1.157404	-0.410935	0.505451	99
Es	1.802626	-0.379453	-1.847886	99
Es	1.201873	0.692873	-1.779084	99
Es	-1.334226	-0.542407	1.000404	99
Es	1.145330	1.398074	0.637633	99
Es	-0.772222	-0.198609	-0.265529	99
Es	-1.229820	-0.327952	1.188906	99
Es	1.070386	-0.145699	-0.840082	99
Es	2.152520	0.452166	-0.895413	99
Es	1.543989	0.154447	-1.380083	99
Es	2.549516	0.688927	-0.433728	99
Es	-1.276599	-0.843283	1.045432	99
Es	-0.031370	-0.279142	-0.218220	99
Es	1.045080	0.183693	0.292138	99
Es	-3.007815	-0.616692	1.667944	99
Es	2.131593	0.730889	0.061458	99
46
Properties=species:S:1:pos:R:3:Z:I:1 energy=-325.1033028381376 field_type=dipole dipole="0.000000 0.000000 0.000000" charge=0
C	-2.749790	-0.412808	0.999054	6
O	-1.334070	-0.542468	1.000554	8
C	-0.772130	-0.198549	-0.265726	6
C	0.731360	-0.351358	-0.171756	6
C	1.543911	0.154412	-1.380186	6
N	2.549790	0.689492	-0.433886	7
C	1.496000	0.735042	0.609984	6
H	-3.124310	-0.713118	1.981424	1
H	-3.194810	-1.064828	0.240994	1
H	-3.037490	0.627261	0.818004	1
H	-1.052000	0.829272	-0.525036	1
H	-1.169420	-0.874228	-1.031836	1
H	1.023650	-1.369598	0.124514	1
H	1.057020	0.934312	-1.977826	1
H	1.917390	-0.620668	-2.055736	1
H	3.288950	0.019762	-0.216026	1
H	1.831481	0.449892	1.611414	1
H	0.994461	1.708182	0.672074	1
Es	1.145264	1.398076	0.637529	99
Es	1.045125	0.183780	0.292114	99
Es	-1.157231	-0.410493	0.505517	99
Es	-0.772222	-0.198609	-0.265529	99
Es	1.802717	-0.379457	-1.847873	99
Es	-1.334268	-0.542212	1.000264	99
Es	2.131561	0.731066	0.061450	99
Es	0.934201	-1.042432	0.028389	99
Es	1.496094	0.735016	0.609870	99
Es	-2.950124	0.302826	0.865918	99
Es	1.070521	-0.145695	-0.840168	99
Es	-3.057540	-0.856189	0.470921	99
Es	1.543991	0.154449	-1.380080	99
Es	-1.873567	-0.476576	0.970449	99
Es	-0.963461	0.514444	-0.448963	99
Es	2.152360	0.452551	-0.895529	99
Es	-1.049986	-0.663163	-0.800873	99
Es	0.731352	-0.351319	-0.171781	99
Es	1.201758	0.692923	-1.779085	99
Es	-1.278209	-0.843343	1.043580	99
Es	-3.007883	-0.616698	1.668021	99
Es	2.549501	0.688959	-0.433729	99
Es	-1.228546	-0.329379	1.190708	99
Es	2.971546	0.256234	-0.296539	99
Es	1.731100	0.540278	1.299934	99
Es	-0.031278	-0.279098	-0.218211	99
Es	2.698444	0.987737	-0.517511	99
Es	-2.749571	-0.412825	0.999047	99
46
Properties=species:S:1:pos:R:3:Z:I:1 energy=-325.1033028381376 field_type=dipole dipole="0.000000 0.000000 0.000000" charge=0
C	-2.749790	-0.412808	0.999054	6
O	-1.334070	-0.542468	1.000554	8
C	-0.772130	-0.198549	-0.265726	6
C	0.731360	-0.351358	-0.171756	6
C	1.543911	0.154412	-1.380186	6
N	2.549790	0.689492	-0.433886	7
C	1.496000	0.735042	0.609984	6
H	-3.124310	-0.713118	1.981424	1
H	-3.194810	-1.064828	0.240994	1
H	-3.037490	0.627261	0.818004	1
H	-1.052000	0.829272	-0.525036	1
H	-1.169420	-0.874228	-1.031836	1
H	1.023650	-1.369598	0.124514	1
H	1.057020	0.934312	-1.977826	1
H	1.917390	-0.620668	-2.055736	1
H	3.288950	0.019762	-0.216026	1
H	1.831481	0.449892	1.611414	1
H	0.994461	1.708182	0.672074	1
Es	-0.963424	0.514430	-0.448884	99
Es	-1.157042	-0.411324	0.505141	99
Es	1.070449	-0.145585	-0.840395	99
Es	-2.949954	0.302693	0.865975	99
Es	-3.057624	-0.856215	0.470722	99
Es	-0.031278	-0.279192	-0.218076	99
Es	2.971947	0.256573	-0.296457	99
Es	0.934257	-1.042336	0.028349	99
Es	1.045308	0.184073	0.292180	99
Es	-1.276300	-0.843411	1.046909	99
Es	2.131459	0.731270	0.061393	99
Es	-0.772222	-0.198609	-0.265529	99
Es	-1.230659	-0.327529	1.188098	99
Es	1.496095	0.735016	0.609870	99
Es	1.201785	0.693033	-1.779068	99
Es	0.731353	-0.351318	-0.171780	99
Es	-3.007910	-0.616547	1.668102	99
Es	-2.749574	-0.412825	0.999047	99
Es	2.549529	0.688919	-0.433725	99
Es	-1.873561	-0.477359	0.970128	99
Es	2.697973	0.987198	-0.517411	99
Es	1.731056	0.540136	1.299986	99
Es	-1.050035	-0.663180	-0.800961	99
Es	1.145188	1.398082	0.637506	99
Es	1.543991	0.154449	-1.380081	99
Es	-1.334297	-0.542371	1.000276	99
Es	1.802672	-0.379628	-1.847871	99
Es	2.152467	0.452409	-0.895603	99
46
Properties=species:S:1:pos:R:3:Z:I:1 energy=-325.1033028381376 field_type=dipole dipole="0.000000 0.000000 0.000000" charge=0
C	-2.749790	-0.412808	0.999054	6
O	-1.334070	-0.542468	1.000554	8
C	-0.772130	-0.198549	-0.265726	6
C	0.731360	-0.351358	-0.171756	6
C	1.543911	0.154412	-1.380186	6
N	2.549790	0.689492	-0.433886	7
C	1.496000	0.735042	0.609984	6
H	-3.124310	-0.713118	1.981424	1
H	-3.194810	-1.064828	0.240994	1
H	-3.037490	0.627261	0.818004	1
H	-1.052000	0.829272	-0.525036	1
H	-1.169420	-0.874228	-1.031836	1
H	1.023650	-1.369598	0.124514	1
H	1.057020	0.934312	-1.977826	1
H	1.917390	-0.620668	-2.055736	1
H	3.288950	0.019762	-0.216026	1
H	1.831481	0.449892	1.611414	1
H	0.994461	1.708182	0.672074	1
Es	2.549512	0.688935	-0.433729	99
Es	-0.772223	-0.198609	-0.265527	99
Es	-1.276873	-0.843380	1.046989	99
Es	-0.031240	-0.279076	-0.218199	99
Es	2.152527	0.452992	-0.896306	99
Es	1.070651	-0.145529	-0.840295	99
Es	2.697415	0.986061	-0.516878	99
Es	1.496092	0.735018	0.609872	99
Es	1.543991	0.154449	-1.380081	99
Es	-1.334235	-0.542441	1.000247	99
Es	1.145144	1.397995	0.637382	99
Es	2.972446	0.256830	-0.296400	99
Es	-1.873279	-0.476785	0.970469	99
Es	-1.050003	-0.663227	-0.800906	99
Es	2.131411	0.731671	0.061415	99
Es	0.934136	-1.042396	0.028427	99
Es	-1.230035	-0.327340	1.187981	99
Es	0.731352	-0.351319	-0.171781	99
Es	-3.057548	-0.856153	0.470842	99
Es	-1.157405	-0.412068	0.504840	99
Es	1.045247	0.183860	0.292228	99
Es	1.802689	-0.379677	-1.847765	99
Es	-3.007924	-0.616658	1.668118	99
Es	1.731120	0.540306	1.300062	99
Es	-0.963472	0.514455	-0.448947	99
Es	-2.950002	0.302774	0.865898	99
Es	1.201726	0.692990	-1.779164	99
Es	-2.749575	-0.412825	0.999047	99
