49
Properties=species:S:1:pos:R:3:Z:I:1 energy=-326.31925027177226 field_type=dipole dipole="0.000000 0.000000 0.000000" charge=0
C	-2.608536	-1.232334	1.047104	6
O	-1.413206	-0.462814	1.029834	8
C	-0.516676	-0.905904	0.011334	6
C	0.749114	-0.035774	0.026024	6
C	1.762884	-0.589944	-0.979396	6
C	0.393284	1.434356	-0.261376	6
N	1.566604	2.305616	-0.219236	7
H	-3.251526	-0.852264	1.845704	1
H	-2.384866	-2.284484	1.248994	1
H	-3.139766	-1.135424	0.095224	1
H	-1.011896	-0.843434	-0.965286	1
H	-0.251986	-1.952484	0.202674	1
H	1.188564	-0.088764	1.031644	1
H	1.378174	-0.529454	-2.002936	1
H	1.986475	-1.640284	-0.764206	1
H	2.708884	-0.041074	-0.938196	1
H	-0.332436	1.800086	0.474254	1
H	-0.072876	1.522296	-1.249366	1
H	1.982394	2.260056	0.712094	1
H	1.267394	3.272026	-0.344886	1
Es	-0.108654	1.679527	0.243491	99
Es	0.393428	1.434408	-0.261378	99
Es	-2.455541	-1.960339	1.179129	99
Es	1.492183	-0.548683	-1.676863	99
Es	1.253208	-0.313174	-0.483699	99
Es	-3.048161	-0.974958	1.590405	99
Es	-1.498504	-0.180087	0.948869	99
Es	1.762848	-0.589949	-0.979375	99
Es	-2.608351	-1.232220	1.047097	99
Es	1.798530	2.279837	0.355504	99
Es	-2.972901	-1.172829	0.388046	99
Es	0.749090	-0.035787	0.025979	99
Es	-1.413278	-0.463080	1.029602	99
Es	1.566190	2.305768	-0.218809	99
Es	-0.334209	-1.633035	0.139320	99
Es	1.369408	2.888367	-0.280391	99
Es	-1.098718	-0.654445	0.634181	99
Es	1.050759	-0.071552	0.714910	99
Es	0.574873	0.697953	-0.123464	99
Es	-0.858848	-0.863632	-0.667459	99
Es	-1.270684	-0.520512	1.295561	99
Es	-1.858417	-0.776804	1.010306	99
Es	0.107798	-0.468685	0.017785	99
Es	1.809765	2.219818	-0.463856	99
Es	0.074115	1.490420	-0.944408	99
Es	2.399565	-0.222443	-0.948630	99
Es	1.908042	-1.311153	-0.828511	99
Es	-0.516806	-0.905817	0.011497	99
Es	1.054551	1.936859	-0.220839	99
49
Properties=species:S:1:pos:R:3:Z:I:1 energy=-326.31925027177226 field_type=dipole dipole="0.000000 0.000000 0.000000" charge=0
C	-2.608536	-1.232334	1.047104	6
O	-1.413206	-0.462814	1.029834	8
C	-0.516676	-0.905904	0.011334	6
C	0.749114	-0.035774	0.026024	6
C	1.762884	-0.589944	-0.979396	6
C	0.393284	1.434356	-0.261376	6
N	1.566604	2.305616	-0.219236	7
H	-3.251526	-0.852264	1.845704	1
H	-2.384866	-2.284484	1.248994	1
H	-3.139766	-1.135424	0.095224	1
H	-1.011896	-0.843434	-0.965286	1
H	-0.251986	-1.952484	0.202674	1
H	1.188564	-0.088764	1.031644	1
H	1.378174	-0.529454	-2.002936	1
H	1.986475	-1.640284	-0.764206	1
H	2.708884	-0.041074	-0.938196	1
H	-0.332436	1.800086	0.474254	1
H	-0.072876	1.522296	-1.249366	1
H	1.982394	2.260056	0.712094	1
H	1.267394	3.272026	-0.344886	1
Es	0.749089	-0.035785	0.025981	99
Es	1.762848	-0.589948	-0.979375	99
Es	-0.516805	-0.905817	0.011494	99
Es	1.368475	2.887718	-0.279919	99
Es	1.050945	-0.071691	0.715222	99
Es	-3.047837	-0.975205	1.590550	99
Es	0.107695	-0.468558	0.017560	99
Es	1.908126	-1.310941	-0.828339	99
Es	-2.455509	-1.960213	1.179095	99
Es	-1.098903	-0.654290	0.634263	99
Es	-2.973218	-1.172643	0.387824	99
Es	-1.858122	-0.775902	1.008748	99
Es	2.399375	-0.222716	-0.948502	99
Es	1.055228	1.936398	-0.221621	99
Es	1.566233	2.305777	-0.218822	99
Es	-0.108395	1.679432	0.243548	99
Es	0.574838	0.697981	-0.123380	99
Es	1.809971	2.220855	-0.464163	99
Es	1.798468	2.279789	0.356260	99
Es	-0.859025	-0.863778	-0.667690	99
Es	1.253176	-0.313030	-0.483643	99
Es	0.073902	1.490516	-0.944704	99
Es	0.393428	1.434407	-0.261377	99
Es	-1.498847	-0.181498	0.947711	99
Es	-0.333916	-1.632869	0.139508	99
Es	-1.413261	-0.463046	1.029619	99
Es	1.492076	-0.548672	-1.677312	99
Es	-2.608352	-1.232220	1.047097	99
Es	-1.270405	-0.520275	1.298365	99
49
Properties=species:S:1:pos:R:3:Z:I:1 energy=-326.31925027177226 field_type=dipole dipole="0.000000 0.000000 0.000000" charge=0
C	-2.608536	-1.232334	1.047104	6
O	-1.413206	-0.462814	1.029834	8
C	-0.516676	-0.905904	0.011334	6
C	0.749114	-0.035774	0.026024	6
C	1.762884	-0.589944	-0.979396	6
C	0.393284	1.434356	-0.261376	6
N	1.566604	2.305616	-0.219236	7
H	-3.251526	-0.852264	1.845704	1
H	-2.384866	-2.284484	1.248994	1
H	-3.139766	-1.135424	0.095224	1
H	-1.011896	-0.843434	-0.965286	1
H	-0.251986	-1.952484	0.202674	1
H	1.188564	-0.088764	1.031644	1
H	1.378174	-0.529454	-2.002936	1
H	1.986475	-1.640284	-0.764206	1
H	2.708884	-0.041074	-0.938196	1
H	-0.332436	1.800086	0.474254	1
H	-0.072876	1.522296	-1.249366	1
H	1.982394	2.260056	0.712094	1
H	1.267394	3.272026	-0.344886	1
Es	0.749089	-0.035786	0.025981	99
Es	-1.413319	-0.463040	1.029511	99
Es	1.762848	-0.589949	-0.979375	99
Es	-2.973297	-1.172627	0.387707	99
Es	1.799132	2.279205	0.356434	99
Es	1.492034	-0.548694	-1.677607	99
Es	-3.047736	-0.975206	1.590601	99
Es	1.055506	1.935917	-0.222391	99
Es	0.107849	-0.468614	0.017555	99
Es	2.399174	-0.222777	-0.948390	99
Es	1.566175	2.305774	-0.218791	99
Es	-1.497033	-0.180932	0.950251	99
Es	-0.859111	-0.863763	-0.667859	99
Es	0.073877	1.490453	-0.944888	99
Es	1.908287	-1.310821	-0.828197	99
Es	1.051107	-0.071660	0.715529	99
Es	-2.608353	-1.232221	1.047097	99
Es	-1.270153	-0.523618	1.298694	99
Es	1.809303	2.221833	-0.463867	99
Es	-0.333967	-1.632764	0.139538	99
Es	0.393429	1.434408	-0.261379	99
Es	1.368238	2.887735	-0.279590	99
Es	-1.859207	-0.773999	1.006993	99
Es	1.253088	-0.312989	-0.483714	99
Es	-0.108356	1.679432	0.243577	99
Es	-1.099798	-0.653454	0.633301	99
Es	-0.516807	-0.905816	0.011497	99
Es	0.574740	0.697918	-0.123373	99
Es	-2.455459	-1.960168	1.179153	99
49
Properties=species:S:1:pos:R:3:Z:I:1 energy=-326.31925027177226 field_type=dipole dipole="0.000000 0.000000 0.000000" charge=0
C	-2.608536	-1.232334	1.047104	6
O	-1.413206	-0.462814	1.029834	8
C	-0.516676	-0.905904	0.011334	6
C	0.749114	-0.035774	0.026024	6
C	1.762884	-0.589944	-0.979396	6
C	0.393284	1.434356	-0.261376	6
N	1.566604	2.305616	-0.219236	7
H	-3.251526	-0.852264	1.845704	1
H	-2.384866	-2.284484	1.248994	1
H	-3.139766	-1.135424	0.095224	1
H	-1.011896	-0.843434	-0.965286	1
H	-0.251986	-1.952484	0.202674	1
H	1.188564	-0.088764	1.031644	1
H	1.378174	-0.529454	-2.002936	1
H	1.986475	-1.640284	-0.764206	1
H	2.708884	-0.041074	-0.938196	1
H	-0.332436	1.800086	0.474254	1
H	-0.072876	1.522296	-1.249366	1
H	1.982394	2.260056	0.712094	1
H	1.267394	3.272026	-0.344886	1
Es	-0.333847	-1.632673	0.139658	99
Es	-1.099067	-0.655149	0.634661	99
Es	-1.499586	-0.183683	0.944831	99
Es	1.799480	2.279290	0.356737	99
Es	1.492024	-0.548666	-1.677766	99
Es	0.107819	-0.468546	0.017491	99
Es	-1.413259	-0.463148	1.029626	99
Es	1.051123	-0.071760	0.715666	99
Es	0.574757	0.697924	-0.123431	99
Es	-0.516806	-0.905817	0.011497	99
Es	1.808880	2.222222	-0.463567	99
Es	1.055597	1.935614	-0.222698	99
Es	1.566233	2.305757	-0.218854	99
Es	-1.269835	-0.517531	1.301007	99
Es	-3.047791	-0.975184	1.590605	99
Es	-2.455473	-1.960078	1.179185	99
Es	-2.608353	-1.232220	1.047095	99
Es	-0.108221	1.679367	0.243700	99
Es	1.253140	-0.312847	-0.483766	99
Es	0.749089	-0.035785	0.025982	99
Es	0.073747	1.490562	-0.944945	99
Es	-1.857731	-0.775582	1.008711	99
Es	2.399260	-0.223010	-0.948315	99
Es	1.762848	-0.589949	-0.979375	99
Es	-0.859166	-0.863830	-0.668020	99
Es	-2.973224	-1.172675	0.387585	99
Es	0.393429	1.434408	-0.261380	99
Es	1.368124	2.887518	-0.279816	99
Es	1.908089	-1.310752	-0.828108	99
49
Properties=species:S:1:pos:R:3:Z:I:1 energy=-326.31925027177226 field_type=dipole dipole="0.000000 0.000000 0.000000" charge=0
C	-2.608536	-1.232334	1.047104	6
O	-1.413206	-0.462814	1.029834	8
C	-0.516676	-0.905904	0.011334	6
C	0.749114	-0.035774	0.026024	6
C	1.762884	-0.589944	-0.979396	6
C	0.393284	1.434356	-0.261376	6
N	1.566604	2.305616	-0.219236	7
H	-3.251526	-0.852264	1.845704	1
H	-2.384866	-2.284484	1.248994	1
H	-3.139766	-1.135424	0.095224	1
H	-1.011896	-0.843434	-0.965286	1
H	-0.251986	-1.952484	0.202674	1
H	1.188564	-0.088764	1.031644	1
H	1.378174	-0.529454	-2.002936	1
H	1.986475	-1.640284	-0.764206	1
H	2.708884	-0.041074	-0.938196	1
H	-0.332436	1.800086	0.474254	1
H	-0.072876	1.522296	-1.249366	1
H	1.982394	2.260056	0.712094	1
H	1.267394	3.272026	-0.344886	1
Es	-0.859114	-0.863800	-0.668121	99
Es	1.908271	-1.310626	-0.828116	99
Es	-1.499252	-0.182572	0.946135	99
Es	1.566232	2.305751	-0.218853	99
Es	-1.268515	-0.519999	1.300764	99
Es	-3.047801	-0.975291	1.590737	99
Es	1.367970	2.887549	-0.279446	99
Es	1.253069	-0.312941	-0.483653	99
Es	-2.608352	-1.232221	1.047096	99
Es	-1.857774	-0.775040	1.008599	99
Es	-1.413225	-0.463027	1.029646	99
Es	0.574674	0.697900	-0.123475	99
Es	-0.108303	1.679337	0.243602	99
Es	1.809123	2.222651	-0.463460	99
Es	-1.100793	-0.654374	0.633680	99
Es	1.055707	1.935313	-0.222931	99
Es	1.762845	-0.589950	-0.979375	99
Es	0.749089	-0.035785	0.025982	99
Es	-0.333939	-1.632648	0.139691	99
Es	1.799296	2.279140	0.356648	99
Es	1.491984	-0.548753	-1.677850	99
Es	0.393431	1.434408	-0.261380	99
Es	-2.973246	-1.172681	0.387516	99
Es	-2.455373	-1.959992	1.179079	99
Es	2.399134	-0.223045	-0.948398	99
Es	-0.516804	-0.905819	0.011495	99
Es	1.051167	-0.071666	0.715757	99
Es	0.107927	-0.468575	0.017676	99
Es	0.073853	1.490529	-0.945047	99
49
Properties=species:S:1:pos:R:3:Z:I:1 energy=-326.31925027177226 field_type=dipole dipole="0.000000 0.000000 0.000000" charge=0
C	-2.608536	-1.232334	1.047104	6
O	-1.413206	-0.462814	1.029834	8
C	-0.516676	-0.905904	0.011334	6
C	0.749114	-0.035774	0.026024	6
C	1.762884	-0.589944	-0.979396	6
C	0.393284	1.434356	-0.261376	6
N	1.566604	2.305616	-0.219236	7
H	-3.251526	-0.852264	1.845704	1
H	-2.384866	-2.284484	1.248994	1
H	-3.139766	-1.135424	0.095224	1
H	-1.011896	-0.843434	-0.965286	1
H	-0.251986	-1.952484	0.202674	1
H	1.188564	-0.088764	1.031644	1
H	1.378174	-0.529454	-2.002936	1
H	1.986475	-1.640284	-0.764206	1
H	2.708884	-0.041074	-0.938196	1
H	-0.332436	1.800086	0.474254	1
H	-0.072876	1.522296	-1.249366	1
H	1.982394	2.260056	0.712094	1
H	1.267394	3.272026	-0.344886	1
Es	1.491928	-0.548786	-1.677970	99
Es	-1.270209	-0.519113	1.302002	99
Es	-1.498396	-0.183384	0.945114	99
Es	1.809242	2.222913	-0.462957	99
Es	-0.859179	-0.863836	-0.668169	99
Es	1.253114	-0.312976	-0.483666	99
Es	-0.108287	1.679376	0.243622	99
Es	1.367925	2.887599	-0.279600	99
Es	1.799087	2.279207	0.356729	99
Es	1.908259	-1.310568	-0.828008	99
Es	-2.608351	-1.232219	1.047096	99
Es	0.574723	0.697899	-0.123498	99
Es	-1.099267	-0.655364	0.635002	99
Es	1.051144	-0.071710	0.715869	99
Es	1.762850	-0.589950	-0.979376	99
Es	-1.858434	-0.774076	1.007113	99
Es	1.055832	1.934884	-0.223447	99
Es	0.749089	-0.035786	0.025981	99
Es	-1.413247	-0.463104	1.029653	99
Es	-2.455358	-1.960007	1.179116	99
Es	2.399106	-0.223098	-0.948366	99
Es	-0.333890	-1.632596	0.139719	99
Es	0.107969	-0.468499	0.017593	99
Es	0.073850	1.490527	-0.945069	99
Es	-0.516804	-0.905818	0.011494	99
Es	1.566177	2.305779	-0.218795	99
Es	-2.973221	-1.172681	0.387472	99
Es	-3.047801	-0.975245	1.590723	99
Es	0.393429	1.434410	-0.261380	99
49
Properties=species:S:1:pos:R:3:Z:I:1 energy=-326.31925027177226 field_type=dipole dipole="0.000000 0.000000 0.000000" charge=0
C	-2.608536	-1.232334	1.047104	6
O	-1.413206	-0.462814	1.029834	8
C	-0.516676	-0.905904	0.011334	6
C	0.749114	-0.035774	0.026024	6
C	1.762884	-0.589944	-0.979396	6
C	0.393284	1.434356	-0.261376	6
N	1.566604	2.305616	-0.219236	7
H	-3.251526	-0.852264	1.845704	1
H	-2.384866	-2.284484	1.248994	1
H	-3.139766	-1.135424	0.095224	1
H	-1.011896	-0.843434	-0.965286	1
H	-0.251986	-1.952484	0.202674	1
H	1.188564	-0.088764	1.031644	1
H	1.378174	-0.529454	-2.002936	1
H	1.986475	-1.640284	-0.764206	1
H	2.708884	-0.041074	-0.938196	1
H	-0.332436	1.800086	0.474254	1
H	-0.072876	1.522296	-1.249366	1
H	1.982394	2.260056	0.712094	1
H	1.267394	3.272026	-0.344886	1
Es	-0.516806	-0.905817	0.011498	99
Es	0.749089	-0.035785	0.025981	99
Es	-1.270116	-0.511230	1.304213	99
Es	0.574733	0.697871	-0.123401	99
Es	1.808930	2.223036	-0.463667	99
Es	-2.455364	-1.960022	1.179143	99
Es	-2.973215	-1.172669	0.387447	99
Es	1.762848	-0.589949	-0.979376	99
Es	1.799608	2.278985	0.356721	99
Es	0.107959	-0.468553	0.017638	99
Es	-2.608354	-1.232221	1.047097	99
Es	-0.859186	-0.863776	-0.668185	99
Es	1.367740	2.887374	-0.279142	99
Es	1.908311	-1.310589	-0.827997	99
Es	1.051210	-0.071731	0.715854	99
Es	-1.857395	-0.775755	1.009350	99
Es	0.393429	1.434409	-0.261379	99
Es	-3.047779	-0.975202	1.590722	99
Es	1.566223	2.305777	-0.218839	99
Es	-1.098404	-0.658509	0.637923	99
Es	1.055723	1.935244	-0.223074	99
Es	0.073849	1.490543	-0.945111	99
Es	-1.500345	-0.186480	0.937794	99
Es	1.491957	-0.548768	-1.678010	99
Es	-0.333905	-1.632616	0.139691	99
Es	-1.413280	-0.463095	1.029612	99
Es	-0.108266	1.679347	0.243543	99
Es	2.399030	-0.223132	-0.948367	99
Es	1.253060	-0.312913	-0.483683	99
49
Properties=species:S:1:pos:R:3:Z:I:1 energy=-326.31925027177226 field_type=dipole dipole="0.000000 0.000000 0.000000" charge=0
C	-2.608536	-1.232334	1.047104	6
O	-1.413206	-0.462814	1.029834	8
C	-0.516676	-0.905904	0.011334	6
C	0.749114	-0.035774	0.026024	6
C	1.762884	-0.589944	-0.979396	6
C	0.393284	1.434356	-0.261376	6
N	1.566604	2.305616	-0.219236	7
H	-3.251526	-0.852264	1.845704	1
H	-2.384866	-2.284484	1.248994	1
H	-3.139766	-1.135424	0.095224	1
H	-1.011896	-0.843434	-0.965286	1
H	-0.251986	-1.952484	0.202674	1
H	1.188564	-0.088764	1.031644	1
H	1.378174	-0.529454	-2.002936	1
H	1.986475	-1.640284	-0.764206	1
H	2.708884	-0.041074	-0.938196	1
H	-0.332436	1.800086	0.474254	1
H	-0.072876	1.522296	-1.249366	1
H	1.982394	2.260056	0.712094	1
H	1.267394	3.272026	-0.344886	1
Es	-0.859243	-0.863892	-0.668290	99
Es	-1.498801	-0.183017	0.943521	99
Es	1.056134	1.934685	-0.223653	99
Es	-0.333933	-1.632496	0.139774	99
Es	0.393429	1.434407	-0.261377	99
Es	2.399080	-0.223111	-0.948383	99
Es	-3.047780	-0.975228	1.590755	99
Es	1.367409	2.887421	-0.279033	99
Es	-2.608354	-1.232221	1.047094	99
Es	0.749089	-0.035786	0.025982	99
Es	1.051191	-0.071682	0.715923	99
Es	1.566183	2.305784	-0.218798	99
Es	-0.516806	-0.905817	0.011496	99
Es	-0.108347	1.679341	0.243616	99
Es	-1.413312	-0.463074	1.029575	99
Es	1.762847	-0.589949	-0.979376	99
Es	1.799668	2.278850	0.356765	99
Es	1.808855	2.223645	-0.463276	99
Es	1.253099	-0.313014	-0.483689	99
Es	1.908344	-1.310447	-0.828040	99
Es	-2.455304	-1.959931	1.179180	99
Es	1.491869	-0.548840	-1.678043	99
Es	-1.099415	-0.656315	0.635924	99
Es	-1.857915	-0.774345	1.007349	99
Es	0.073909	1.490489	-0.945130	99
Es	0.107994	-0.468505	0.017659	99
Es	-2.973213	-1.172725	0.387332	99
Es	-1.270132	-0.518293	1.302559	99
Es	0.574734	0.697840	-0.123422	99
49
Properties=species:S:1:pos:R:3:Z:I:1 energy=-326.31925027177226 field_type=dipole dipole="0.000000 0.000000 0.000000" charge=0
C	-2.608536	-1.232334	1.047104	6
O	-1.413206	-0.462814	1.029834	8
C	-0.516676	-0.905904	0.011334	6
C	0.749114	-0.035774	0.026024	6
C	1.762884	-0.589944	-0.979396	6
C	0.393284	1.434356	-0.261376	6
N	1.566604	2.305616	-0.219236	7
H	-3.251526	-0.852264	1.845704	1
H	-2.384866	-2.284484	1.248994	1
H	-3.139766	-1.135424	0.095224	1
H	-1.011896	-0.843434	-0.965286	1
H	-0.251986	-1.952484	0.202674	1
H	1.188564	-0.088764	1.031644	1
H	1.378174	-0.529454	-2.002936	1
H	1.986475	-1.640284	-0.764206	1
H	2.708884	-0.041074	-0.938196	1
H	-0.332436	1.800086	0.474254	1
H	-0.072876	1.522296	-1.249366	1
H	1.982394	2.260056	0.712094	1
H	1.267394	3.272026	-0.344886	1
Es	-2.608351	-1.232220	1.047096	99
Es	-1.270224	-0.517239	1.303701	99
Es	-0.333895	-1.632553	0.139780	99
Es	1.762847	-0.589949	-0.979374	99
Es	1.491955	-0.548845	-1.677987	99
Es	-2.973124	-1.172768	0.387371	99
Es	1.808728	2.224358	-0.462898	99
Es	-0.516805	-0.905818	0.011495	99
Es	-0.108305	1.679353	0.243600	99
Es	1.566214	2.305760	-0.218826	99
Es	1.056071	1.934172	-0.224207	99
Es	2.399018	-0.223114	-0.948436	99
Es	0.749089	-0.035786	0.025981	99
Es	-1.498819	-0.184292	0.942651	99
Es	1.908394	-1.310513	-0.828050	99
Es	0.574647	0.697988	-0.123401	99
Es	0.108084	-0.468558	0.017533	99
Es	-2.455360	-1.959943	1.179195	99
Es	1.252980	-0.312930	-0.483610	99
Es	1.367437	2.887348	-0.278768	99
Es	0.073885	1.490484	-0.945186	99
Es	-3.047878	-0.975193	1.590664	99
Es	-1.099191	-0.656411	0.636049	99
Es	-1.413310	-0.463118	1.029627	99
Es	1.799787	2.278726	0.356727	99
Es	-1.857957	-0.773918	1.006951	99
Es	0.393430	1.434408	-0.261379	99
Es	-0.859220	-0.863837	-0.668304	99
Es	1.051154	-0.071819	0.716001	99
49
Properties=species:S:1:pos:R:3:Z:I:1 energy=-326.31925027177226 field_type=dipole dipole="0.000000 0.000000 0.000000" charge=0
C	-2.608536	-1.232334	1.047104	6
O	-1.413206	-0.462814	1.029834	8
C	-0.516676	-0.905904	0.011334	6
C	0.749114	-0.035774	0.026024	6
C	1.762884	-0.589944	-0.979396	6
C	0.393284	1.434356	-0.261376	6
N	1.566604	2.305616	-0.219236	7
H	-3.251526	-0.852264	1.845704	1
H	-2.384866	-2.284484	1.248994	1
H	-3.139766	-1.135424	0.095224	1
H	-1.011896	-0.843434	-0.965286	1
H	-0.251986	-1.952484	0.202674	1
H	1.188564	-0.088764	1.031644	1
H	1.378174	-0.529454	-2.002936	1
H	1.986475	-1.640284	-0.764206	1
H	2.708884	-0.041074	-0.938196	1
H	-0.332436	1.800086	0.474254	1
H	-0.072876	1.522296	-1.249366	1
H	1.982394	2.260056	0.712094	1
H	1.267394	3.272026	-0.344886	1
Es	1.056329	1.933887	-0.224647	99
Es	1.808880	2.224488	-0.462396	99
Es	-3.047905	-0.975250	1.590879	99
Es	-1.499196	-0.183939	0.942357	99
Es	-2.608351	-1.232219	1.047096	99
Es	1.253062	-0.312876	-0.483677	99
Es	-1.099734	-0.656491	0.636006	99
Es	-0.333966	-1.632476	0.139781	99
Es	-0.108347	1.679297	0.243710	99
Es	-0.516806	-0.905817	0.011497	99
Es	-0.859256	-0.863926	-0.668294	99
Es	0.749089	-0.035785	0.025981	99
Es	1.051195	-0.071714	0.715965	99
Es	1.367356	2.887531	-0.278919	99
Es	2.399092	-0.223211	-0.948473	99
Es	1.908319	-1.310374	-0.827961	99
Es	1.566213	2.305763	-0.218831	99
Es	1.762848	-0.589949	-0.979376	99
Es	1.799462	2.278698	0.356805	99
Es	-1.857530	-0.774049	1.007060	99
Es	-2.973117	-1.172691	0.387398	99
Es	-1.413298	-0.463066	1.029582	99
Es	0.574713	0.697885	-0.123510	99
Es	0.073894	1.490520	-0.945125	99
Es	0.393429	1.434407	-0.261379	99
Es	-2.455297	-1.959915	1.178965	99
Es	-1.269784	-0.517480	1.303947	99
Es	0.108094	-0.468512	0.017626	99
Es	1.491893	-0.548961	-1.678071	99
49
Properties=species:S:1:pos:R:3:Z:I:1 energy=-326.31925027177226 field_type=dipole dipole="0.000000 0.000000 0.000000" charge=0
C	-2.608536	-1.232334	1.047104	6
O	-1.413206	-0.462814	1.029834	8
C	-0.516676	-0.905904	0.011334	6
C	0.749114	-0.035774	0.026024	6
C	1.762884	-0.589944	-0.979396	6
C	0.393284	1.434356	-0.261376	6
N	1.566604	2.305616	-0.219236	7
H	-3.251526	-0.852264	1.845704	1
H	-2.384866	-2.284484	1.248994	1
H	-3.139766	-1.135424	0.095224	1
H	-1.011896	-0.843434	-0.965286	1
H	-0.251986	-1.952484	0.202674	1
H	1.188564	-0.088764	1.031644	1
H	1.378174	-0.529454	-2.002936	1
H	1.986475	-1.640284	-0.764206	1
H	2.708884	-0.041074	-0.938196	1
H	-0.332436	1.800086	0.474254	1
H	-0.072876	1.522296	-1.249366	1
H	1.982394	2.260056	0.712094	1
H	1.267394	3.272026	-0.344886	1
Es	-2.608347	-1.232219	1.047096	99
Es	2.399063	-0.223239	-0.948384	99
Es	-0.859270	-0.863916	-0.668396	99
Es	1.491877	-0.548874	-1.678143	99
Es	0.749089	-0.035786	0.025981	99
Es	-2.973120	-1.172612	0.387425	99
Es	1.367090	2.887142	-0.278690	99
Es	-0.333966	-1.632466	0.139858	99
Es	0.108165	-0.468554	0.017621	99
Es	-1.413244	-0.463140	1.029607	99
Es	1.566207	2.305775	-0.218826	99
Es	-0.108296	1.679330	0.243716	99
Es	0.574632	0.697867	-0.123552	99
Es	1.809055	2.224892	-0.462584	99
Es	-2.455264	-1.959978	1.178914	99
Es	1.762848	-0.589949	-0.979376	99
Es	0.393429	1.434408	-0.261379	99
Es	1.799430	2.278803	0.357032	99
Es	1.908321	-1.310374	-0.827992	99
Es	0.073881	1.490573	-0.945184	99
Es	1.051211	-0.071730	0.716073	99
Es	1.253049	-0.312940	-0.483650	99
Es	-1.270663	-0.520369	1.302868	99
Es	-1.858283	-0.773535	1.005628	99
Es	-1.498048	-0.182551	0.945139	99
Es	-3.047881	-0.975238	1.590902	99
Es	1.056442	1.933683	-0.224889	99
Es	-0.516808	-0.905816	0.011497	99
Es	-1.099315	-0.655414	0.635684	99
49
Properties=species:S:1:pos:R:3:Z:I:1 energy=-326.31925027177226 field_type=dipole dipole="0.000000 0.000000 0.000000" charge=0
C	-2.608536	-1.232334	1.047104	6
O	-1.413206	-0.462814	1.029834	8
C	-0.516676	-0.905904	0.011334	6
C	0.749114	-0.035774	0.026024	6
C	1.762884	-0.589944	-0.979396	6
C	0.393284	1.434356	-0.261376	6
N	1.566604	2.305616	-0.219236	7
H	-3.251526	-0.852264	1.845704	1
H	-2.384866	-2.284484	1.248994	1
H	-3.139766	-1.135424	0.095224	1
H	-1.011896	-0.843434	-0.965286	1
H	-0.251986	-1.952484	0.202674	1
H	1.188564	-0.088764	1.031644	1
H	1.378174	-0.529454	-2.002936	1
H	1.986475	-1.640284	-0.764206	1
H	2.708884	-0.041074	-0.938196	1
H	-0.332436	1.800086	0.474254	1
H	-0.072876	1.522296	-1.249366	1
H	1.982394	2.260056	0.712094	1
H	1.267394	3.272026	-0.344886	1
Es	0.073959	1.490589	-0.945084	99
Es	1.799856	2.278545	0.356822	99
Es	1.366880	2.887275	-0.278416	99
Es	1.908153	-1.310453	-0.828141	99
Es	-2.973057	-1.172714	0.387319	99
Es	1.566228	2.305763	-0.218849	99
Es	-2.608351	-1.232220	1.047096	99
Es	-1.857615	-0.773775	1.007089	99
Es	-2.455258	-1.959937	1.179055	99
Es	-1.270865	-0.514349	1.305338	99
Es	-1.499320	-0.185585	0.939479	99
Es	-1.098493	-0.658188	0.637450	99
Es	1.252913	-0.313020	-0.483774	99
Es	-0.516806	-0.905817	0.011496	99
Es	0.749089	-0.035785	0.025981	99
Es	-1.413252	-0.463118	1.029638	99
Es	-0.108364	1.679346	0.243594	99
Es	1.762848	-0.589949	-0.979376	99
Es	2.399222	-0.223246	-0.948329	99
Es	-0.333908	-1.632517	0.139831	99
Es	1.808728	2.224970	-0.462863	99
Es	1.051291	-0.071781	0.716054	99
Es	1.491924	-0.548755	-1.678021	99
Es	-0.859320	-0.863931	-0.668298	99
Es	-3.047934	-0.975220	1.590792	99
Es	0.108135	-0.468356	0.017623	99
Es	1.056532	1.933823	-0.224625	99
Es	0.393428	1.434407	-0.261379	99
Es	0.574638	0.697773	-0.123505	99
49
Properties=species:S:1:pos:R:3:Z:I:1 energy=-326.31925027177226 field_type=dipole dipole="0.000000 0.000000 0.000000" charge=0
C	-2.608536	-1.232334	1.047104	6
O	-1.413206	-0.462814	1.029834	8
C	-0.516676	-0.905904	0.011334	6
C	0.749114	-0.035774	0.026024	6
C	1.762884	-0.589944	-0.979396	6
C	0.393284	1.434356	-0.261376	6
N	1.566604	2.305616	-0.219236	7
H	-3.251526	-0.852264	1.845704	1
H	-2.384866	-2.284484	1.248994	1
H	-3.139766	-1.135424	0.095224	1
H	-1.011896	-0.843434	-0.965286	1
H	-0.251986	-1.952484	0.202674	1
H	1.188564	-0.088764	1.031644	1
H	1.378174	-0.529454	-2.002936	1
H	1.986475	-1.640284	-0.764206	1
H	2.708884	-0.041074	-0.938196	1
H	-0.332436	1.800086	0.474254	1
H	-0.072876	1.522296	-1.249366	1
H	1.982394	2.260056	0.712094	1
H	1.267394	3.272026	-0.344886	1
Es	-2.608351	-1.232219	1.047096	99
Es	0.574696	0.698135	-0.123635	99
Es	-0.859263	-0.863947	-0.668417	99
Es	1.051296	-0.071834	0.715992	99
Es	-2.455209	-1.959801	1.178847	99
Es	-2.972947	-1.172781	0.387328	99
Es	1.566231	2.305788	-0.218829	99
Es	-1.099079	-0.657209	0.636565	99
Es	1.908345	-1.310381	-0.827970	99
Es	-1.271044	-0.518639	1.303761	99
Es	-0.516806	-0.905817	0.011496	99
Es	-1.858285	-0.772851	1.006098	99
Es	-1.497860	-0.183277	0.942987	99
Es	-3.048081	-0.975217	1.591029	99
Es	1.056591	1.933086	-0.225377	99
Es	-0.108368	1.679258	0.243761	99
Es	0.749089	-0.035785	0.025980	99
Es	0.073943	1.490562	-0.945257	99
Es	1.799798	2.278656	0.356986	99
Es	1.366881	2.887046	-0.278413	99
Es	0.393429	1.434408	-0.261379	99
Es	1.808691	2.225710	-0.462232	99
Es	-1.413318	-0.463015	1.029569	99
Es	1.762848	-0.589948	-0.979375	99
Es	1.491913	-0.548857	-1.678199	99
Es	0.108189	-0.468659	0.017624	99
Es	1.252901	-0.312971	-0.483585	99
Es	-0.333967	-1.632430	0.139868	99
Es	2.399016	-0.223236	-0.948323	99
49
Properties=species:S:1:pos:R:3:Z:I:1 energy=-326.31925027177226 field_type=dipole dipole="0.000000 0.000000 0.000000" charge=0
C	-2.608536	-1.232334	1.047104	6
O	-1.413206	-0.462814	1.029834	8
C	-0.516676	-0.905904	0.011334	6
C	0.749114	-0.035774	0.026024	6
C	1.762884	-0.589944	-0.979396	6
C	0.393284	1.434356	-0.261376	6
N	1.566604	2.305616	-0.219236	7
H	-3.251526	-0.852264	1.845704	1
H	-2.384866	-2.284484	1.248994	1
H	-3.139766	-1.135424	0.095224	1
H	-1.011896	-0.843434	-0.965286	1
H	-0.251986	-1.952484	0.202674	1
H	1.188564	-0.088764	1.031644	1
H	1.378174	-0.529454	-2.002936	1
H	1.986475	-1.640284	-0.764206	1
H	2.708884	-0.041074	-0.938196	1
H	-0.332436	1.800086	0.474254	1
H	-0.072876	1.522296	-1.249366	1
H	1.982394	2.260056	0.712094	1
H	1.267394	3.272026	-0.344886	1
Es	-0.108360	1.679243	0.243709	99
Es	-1.498688	-0.184751	0.940971	99
Es	-2.608352	-1.232221	1.047096	99
Es	0.108063	-0.468521	0.017726	99
Es	-1.413279	-0.463069	1.029630	99
Es	1.808679	2.225860	-0.462420	99
Es	1.762848	-0.589949	-0.979376	99
Es	-1.270954	-0.516384	1.305086	99
Es	1.366565	2.887062	-0.278183	99
Es	1.799926	2.278584	0.356891	99
Es	-1.098751	-0.657709	0.636915	99
Es	0.073922	1.490575	-0.945156	99
Es	0.393429	1.434409	-0.261378	99
Es	1.908389	-1.310323	-0.827976	99
Es	1.491890	-0.548929	-1.678186	99
Es	-0.516806	-0.905816	0.011494	99
Es	-3.048068	-0.975126	1.590858	99
Es	0.574638	0.697964	-0.123621	99
Es	1.252967	-0.312982	-0.483625	99
Es	-0.333905	-1.632506	0.139893	99
Es	0.749089	-0.035786	0.025980	99
Es	-1.857945	-0.773092	1.006320	99
Es	1.566216	2.305804	-0.218813	99
Es	-2.972918	-1.172712	0.387401	99
Es	1.056891	1.933031	-0.225347	99
Es	-2.455183	-1.960010	1.178932	99
Es	-0.859298	-0.863902	-0.668403	99
Es	1.051264	-0.071727	0.715974	99
Es	2.399012	-0.223241	-0.948397	99
49
Properties=species:S:1:pos:R:3:Z:I:1 energy=-326.31925027177226 field_type=dipole dipole="0.000000 0.000000 0.000000" charge=0
C	-2.608536	-1.232334	1.047104	6
O	-1.413206	-0.462814	1.029834	8
C	-0.516676	-0.905904	0.011334	6
C	0.749114	-0.035774	0.026024	6
C	1.762884	-0.589944	-0.979396	6
C	0.393284	1.434356	-0.261376	6
N	1.566604	2.305616	-0.219236	7
H	-3.251526	-0.852264	1.845704	1
H	-2.384866	-2.284484	1.248994	1
H	-3.139766	-1.135424	0.095224	1
H	-1.011896	-0.843434	-0.965286	1
H	-0.251986	-1.952484	0.202674	1
H	1.188564	-0.088764	1.031644	1
H	1.378174	-0.529454	-2.002936	1
H	1.986475	-1.640284	-0.764206	1
H	2.708884	-0.041074	-0.938196	1
H	-0.332436	1.800086	0.474254	1
H	-0.072876	1.522296	-1.249366	1
H	1.982394	2.260056	0.712094	1
H	1.267394	3.272026	-0.344886	1
Es	-0.108396	1.679271	0.243741	99
Es	1.051266	-0.071774	0.716041	99
Es	1.566207	2.305778	-0.218819	99
Es	1.762848	-0.589949	-0.979376	99
Es	1.056898	1.932787	-0.225868	99
Es	1.908304	-1.310466	-0.827962	99
Es	1.252956	-0.312872	-0.483637	99
Es	-0.859314	-0.863979	-0.668351	99
Es	0.108227	-0.468511	0.017608	99
Es	1.809073	2.226138	-0.462099	99
Es	2.399027	-0.223309	-0.948480	99
Es	-0.333968	-1.632480	0.139871	99
Es	-0.516806	-0.905817	0.011496	99
Es	1.799480	2.278572	0.356936	99
Es	-2.608352	-1.232220	1.047096	99
Es	-1.857705	-0.773389	1.006467	99
Es	0.749089	-0.035786	0.025981	99
Es	0.393429	1.434408	-0.261378	99
Es	-3.048048	-0.975098	1.590822	99
Es	-1.098536	-0.658386	0.637866	99
Es	-1.413288	-0.463125	1.029641	99
Es	1.366598	2.887078	-0.278080	99
Es	1.491915	-0.548869	-1.678085	99
Es	-1.270935	-0.514010	1.306293	99
Es	-2.455233	-1.960038	1.178942	99
Es	0.574637	0.697998	-0.123691	99
Es	-2.972908	-1.172652	0.387401	99
Es	-1.499124	-0.186069	0.938735	99
Es	0.073941	1.490545	-0.945112	99
49
Properties=species:S:1:pos:R:3:Z:I:1 energy=-326.31925027177226 field_type=dipole dipole="0.000000 0.000000 0.000000" charge=0
C	-2.608536	-1.232334	1.047104	6
O	-1.413206	-0.462814	1.029834	8
C	-0.516676	-0.905904	0.011334	6
C	0.749114	-0.035774	0.026024	6
C	1.762884	-0.589944	-0.979396	6
C	0.393284	1.434356	-0.261376	6
N	1.566604	2.305616	-0.219236	7
H	-3.251526	-0.852264	1.845704	1
H	-2.384866	-2.284484	1.248994	1
H	-3.139766	-1.135424	0.095224	1
H	-1.011896	-0.843434	-0.965286	1
H	-0.251986	-1.952484	0.202674	1
H	1.188564	-0.088764	1.031644	1
H	1.378174	-0.529454	-2.002936	1
H	1.986475	-1.640284	-0.764206	1
H	2.708884	-0.041074	-0.938196	1
H	-0.332436	1.800086	0.474254	1
H	-0.072876	1.522296	-1.249366	1
H	1.982394	2.260056	0.712094	1
H	1.267394	3.272026	-0.344886	1
Es	1.051273	-0.071756	0.716052	99
Es	-1.858619	-0.772250	1.006495	99
Es	-0.859315	-0.863958	-0.668383	99
Es	-0.516807	-0.905817	0.011497	99
Es	-3.048178	-0.975074	1.590922	99
Es	1.057080	1.932230	-0.226378	99
Es	-2.608356	-1.232223	1.047096	99
Es	1.808322	2.227058	-0.461799	99
Es	1.252972	-0.312863	-0.483731	99
Es	-2.455199	-1.959914	1.178902	99
Es	0.749089	-0.035786	0.025981	99
Es	-1.497762	-0.185060	0.940671	99
Es	-1.270843	-0.516248	1.305149	99
Es	0.073992	1.490613	-0.945097	99
Es	1.908385	-1.310391	-0.827912	99
Es	1.566207	2.305768	-0.218827	99
Es	2.398930	-0.223361	-0.948460	99
Es	0.393428	1.434408	-0.261379	99
Es	-2.972808	-1.172793	0.387367	99
Es	1.491934	-0.548910	-1.678200	99
Es	0.574672	0.697807	-0.123601	99
Es	-1.413251	-0.463009	1.029623	99
Es	1.366309	2.887075	-0.277754	99
Es	-1.099114	-0.658448	0.637044	99
Es	-0.333972	-1.632454	0.139852	99
Es	1.800268	2.278199	0.356837	99
Es	1.762848	-0.589949	-0.979376	99
Es	0.108203	-0.468442	0.017690	99
Es	-0.108408	1.679325	0.243712	99
49
Properties=species:S:1:pos:R:3:Z:I:1 energy=-326.31925027177226 field_type=dipole dipole="0.000000 0.000000 0.000000" charge=0
C	-2.608536	-1.232334	1.047104	6
O	-1.413206	-0.462814	1.029834	8
C	-0.516676	-0.905904	0.011334	6
C	0.749114	-0.035774	0.026024	6
C	1.762884	-0.589944	-0.979396	6
C	0.393284	1.434356	-0.261376	6
N	1.566604	2.305616	-0.219236	7
H	-3.251526	-0.852264	1.845704	1
H	-2.384866	-2.284484	1.248994	1
H	-3.139766	-1.135424	0.095224	1
H	-1.011896	-0.843434	-0.965286	1
H	-0.251986	-1.952484	0.202674	1
H	1.188564	-0.088764	1.031644	1
H	1.378174	-0.529454	-2.002936	1
H	1.986475	-1.640284	-0.764206	1
H	2.708884	-0.041074	-0.938196	1
H	-0.332436	1.800086	0.474254	1
H	-0.072876	1.522296	-1.249366	1
H	1.982394	2.260056	0.712094	1
H	1.267394	3.272026	-0.344886	1
Es	0.393429	1.434408	-0.261379	99
Es	1.253018	-0.312882	-0.483666	99
Es	0.574601	0.697891	-0.123578	99
Es	1.799149	2.278651	0.356966	99
Es	2.398764	-0.223235	-0.948612	99
Es	1.051196	-0.071804	0.716006	99
Es	-0.108372	1.679329	0.243702	99
Es	-2.455180	-1.960163	1.178938	99
Es	-1.097830	-0.659587	0.638590	99
Es	0.108187	-0.468414	0.017611	99
Es	1.566211	2.305776	-0.218830	99
Es	1.762848	-0.589949	-0.979376	99
Es	1.491890	-0.548967	-1.678113	99
Es	-3.048076	-0.975073	1.590753	99
Es	-2.608352	-1.232221	1.047095	99
Es	1.057094	1.932100	-0.226625	99
Es	1.908600	-1.310479	-0.827878	99
Es	-2.972853	-1.172602	0.387442	99
Es	-1.858078	-0.772953	1.006756	99
Es	0.749089	-0.035786	0.025981	99
Es	0.073947	1.490611	-0.945063	99
Es	1.366629	2.887262	-0.278334	99
Es	-1.413277	-0.463097	1.029627	99
Es	-1.271341	-0.510650	1.307773	99
Es	-0.859323	-0.863984	-0.668345	99
Es	1.809144	2.226549	-0.461125	99
Es	-0.516807	-0.905817	0.011497	99
Es	-0.333915	-1.632535	0.139931	99
Es	-1.499112	-0.188607	0.936255	99
49
Properties=species:S:1:pos:R:3:Z:I:1 energy=-326.31925027177226 field_type=dipole dipole="0.000000 0.000000 0.000000" charge=0
C	-2.608536	-1.232334	1.047104	6
O	-1.413206	-0.462814	1.029834	8
C	-0.516676	-0.905904	0.011334	6
C	0.749114	-0.035774	0.026024	6
C	1.762884	-0.589944	-0.979396	6
C	0.393284	1.434356	-0.261376	6
N	1.566604	2.305616	-0.219236	7
H	-3.251526	-0.852264	1.845704	1
H	-2.384866	-2.284484	1.248994	1
H	-3.139766	-1.135424	0.095224	1
H	-1.011896	-0.843434	-0.965286	1
H	-0.251986	-1.952484	0.202674	1
H	1.188564	-0.088764	1.031644	1
H	1.378174	-0.529454	-2.002936	1
H	1.986475	-1.640284	-0.764206	1
H	2.708884	-0.041074	-0.938196	1
H	-0.332436	1.800086	0.474254	1
H	-0.072876	1.522296	-1.249366	1
H	1.982394	2.260056	0.712094	1
H	1.267394	3.272026	-0.344886	1
Es	-0.108412	1.679268	0.243753	99
Es	-3.048119	-0.975149	1.590990	99
Es	-1.413306	-0.463075	1.029620	99
Es	1.762848	-0.589949	-0.979376	99
Es	1.057200	1.931888	-0.227031	99
Es	1.908267	-1.310125	-0.827873	99
Es	0.393429	1.434408	-0.261379	99
Es	1.491853	-0.549111	-1.678285	99
Es	-2.608354	-1.232221	1.047096	99
Es	1.366117	2.886766	-0.277091	99
Es	-0.516807	-0.905817	0.011498	99
Es	1.051205	-0.071693	0.716172	99
Es	0.073977	1.490551	-0.945170	99
Es	-1.270841	-0.521941	1.303232	99
Es	2.399100	-0.223508	-0.948539	99
Es	1.800320	2.277945	0.356908	99
Es	-2.455157	-1.959884	1.178828	99
Es	-0.859358	-0.864100	-0.668496	99
Es	-0.334005	-1.632304	0.139940	99
Es	0.108309	-0.468482	0.017632	99
Es	1.253075	-0.312762	-0.483654	99
Es	0.749089	-0.035785	0.025980	99
Es	-1.858290	-0.772191	1.005187	99
Es	-1.099800	-0.656252	0.635721	99
Es	1.566197	2.305764	-0.218825	99
Es	-2.972867	-1.172722	0.387323	99
Es	-1.497378	-0.181513	0.945275	99
Es	1.808389	2.227955	-0.461833	99
Es	0.574600	0.697814	-0.123606	99
49
Properties=species:S:1:pos:R:3:Z:I:1 energy=-326.31925027177226 field_type=dipole dipole="0.000000 0.000000 0.000000" charge=0
C	-2.608536	-1.232334	1.047104	6
O	-1.413206	-0.462814	1.029834	8
C	-0.516676	-0.905904	0.011334	6
C	0.749114	-0.035774	0.026024	6
C	1.762884	-0.589944	-0.979396	6
C	0.393284	1.434356	-0.261376	6
N	1.566604	2.305616	-0.219236	7
H	-3.251526	-0.852264	1.845704	1
H	-2.384866	-2.284484	1.248994	1
H	-3.139766	-1.135424	0.095224	1
H	-1.011896	-0.843434	-0.965286	1
H	-0.251986	-1.952484	0.202674	1
H	1.188564	-0.088764	1.031644	1
H	1.378174	-0.529454	-2.002936	1
H	1.986475	-1.640284	-0.764206	1
H	2.708884	-0.041074	-0.938196	1
H	-0.332436	1.800086	0.474254	1
H	-0.072876	1.522296	-1.249366	1
H	1.982394	2.260056	0.712094	1
H	1.267394	3.272026	-0.344886	1
Es	1.366344	2.886988	-0.277900	99
Es	0.074097	1.490534	-0.945047	99
Es	2.398970	-0.223526	-0.948793	99
Es	1.057208	1.931802	-0.227029	99
Es	-2.455133	-1.959982	1.178822	99
Es	1.051157	-0.071772	0.716081	99
Es	1.566209	2.305779	-0.218820	99
Es	-0.108546	1.679310	0.243718	99
Es	-2.972763	-1.172711	0.387366	99
Es	-0.859354	-0.863978	-0.668409	99
Es	-0.516806	-0.905817	0.011497	99
Es	-1.413229	-0.463046	1.029642	99
Es	-0.334013	-1.632450	0.139901	99
Es	0.393429	1.434408	-0.261378	99
Es	-1.857539	-0.773385	1.006948	99
Es	0.108252	-0.468514	0.017583	99
Es	1.491807	-0.549102	-1.678130	99
Es	1.762848	-0.589949	-0.979376	99
Es	1.908368	-1.310302	-0.827834	99
Es	0.574685	0.697844	-0.123612	99
Es	-1.098023	-0.659664	0.638792	99
Es	-3.048199	-0.975079	1.590951	99
Es	-1.499427	-0.186776	0.936759	99
Es	1.253181	-0.312569	-0.483523	99
Es	0.749089	-0.035786	0.025981	99
Es	1.808387	2.227482	-0.461173	99
Es	1.800041	2.278330	0.357009	99
Es	-1.271405	-0.512075	1.306876	99
Es	-2.608351	-1.232220	1.047096	99
49
Properties=species:S:1:pos:R:3:Z:I:1 energy=-326.31925027177226 field_type=dipole dipole="0.000000 0.000000 0.000000" charge=0
C	-2.608536	-1.232334	1.047104	6
O	-1.413206	-0.462814	1.029834	8
C	-0.516676	-0.905904	0.011334	6
C	0.749114	-0.035774	0.026024	6
C	1.762884	-0.589944	-0.979396	6
C	0.393284	1.434356	-0.261376	6
N	1.566604	2.305616	-0.219236	7
H	-3.251526	-0.852264	1.845704	1
H	-2.384866	-2.284484	1.248994	1
H	-3.139766	-1.135424	0.095224	1
H	-1.011896	-0.843434	-0.965286	1
H	-0.251986	-1.952484	0.202674	1
H	1.188564	-0.088764	1.031644	1
H	1.378174	-0.529454	-2.002936	1
H	1.986475	-1.640284	-0.764206	1
H	2.708884	-0.041074	-0.938196	1
H	-0.332436	1.800086	0.474254	1
H	-0.072876	1.522296	-1.249366	1
H	1.982394	2.260056	0.712094	1
H	1.267394	3.272026	-0.344886	1
Es	1.051265	-0.071734	0.716109	99
Es	0.574620	0.697934	-0.123634	99
Es	-2.972821	-1.172805	0.387319	99
Es	2.398835	-0.223477	-0.948470	99
Es	-1.859420	-0.770596	1.004263	99
Es	-2.608352	-1.232222	1.047096	99
Es	1.491818	-0.548895	-1.678365	99
Es	-1.413354	-0.463001	1.029446	99
Es	1.799901	2.278287	0.357016	99
Es	1.808777	2.228098	-0.461524	99
Es	-2.455075	-1.959859	1.178817	99
Es	-0.859388	-0.864102	-0.668317	99
Es	1.908441	-1.310312	-0.827853	99
Es	1.762847	-0.589949	-0.979376	99
Es	1.566191	2.305780	-0.218811	99
Es	-1.495905	-0.183608	0.941606	99
Es	-1.098299	-0.659204	0.638358	99
Es	-0.516806	-0.905817	0.011497	99
Es	0.393429	1.434408	-0.261379	99
Es	-3.048179	-0.975123	1.591041	99
Es	0.108354	-0.468388	0.017567	99
Es	1.253092	-0.312911	-0.483626	99
Es	0.073892	1.490538	-0.945153	99
Es	-0.334020	-1.632392	0.139860	99
Es	-1.272683	-0.518525	1.305370	99
Es	1.365907	2.886662	-0.277254	99
Es	0.749089	-0.035786	0.025981	99
Es	1.057463	1.931529	-0.227329	99
Es	-0.108337	1.679245	0.243738	99
