40
Properties=species:S:1:pos:R:3:Z:I:1 energy=-322.74366703877877 field_type=dipole dipole="0.000000 0.000000 0.000000" charge=0
C	-0.664932	-2.098608	0.546522	6
O	-0.713032	-1.355058	-0.666498	8
N	-0.159222	-0.097218	-0.436928	7
C	-0.869652	1.009022	-0.074538	6
C	0.018698	2.060652	0.013392	6
C	1.300458	1.561792	-0.340018	6
C	1.152588	0.221542	-0.632318	6
H	-1.103902	-3.082338	0.358262	1
H	-1.250052	-1.607208	1.330952	1
H	0.369118	-2.242818	0.876892	1
H	-1.936252	0.954402	0.088602	1
H	-0.229572	3.078882	0.285832	1
H	2.224858	2.122722	-0.390798	1
H	1.860898	-0.525768	-0.959358	1
Es	-0.712934	-1.354961	-0.666191	99
Es	-1.585838	0.964460	0.036779	99
Es	-0.679643	-1.605571	-0.194101	99
Es	-0.869638	1.008792	-0.074583	99
Es	-1.060702	-1.759685	1.081494	99
Es	-0.034867	0.040466	-0.180658	99
Es	1.300473	1.561800	-0.340024	99
Es	0.682199	1.863390	-0.155071	99
Es	-0.436123	1.613812	-0.326580	99
Es	1.150401	0.995909	-0.764213	99
Es	-1.012067	-1.298568	-0.726537	99
Es	0.362331	0.017196	-0.635266	99
Es	-0.146692	2.749424	0.197628	99
Es	1.152414	0.221394	-0.632309	99
Es	-0.503765	0.354567	-0.396455	99
Es	-0.516649	-1.491996	-0.864769	99
Es	1.624167	-0.286380	-0.849009	99
Es	-0.323635	1.479975	0.267073	99
Es	-0.454451	-0.779918	-0.542203	99
Es	-0.159318	-0.097133	-0.437406	99
Es	-0.664946	-2.098478	0.546316	99
Es	0.018694	2.060670	0.013401	99
Es	1.261386	0.862728	-0.169923	99
Es	-0.963372	-2.762016	0.410992	99
Es	1.924093	1.942998	-0.373487	99
Es	0.040782	-2.192028	0.772701	99
40
Properties=species:S:1:pos:R:3:Z:I:1 energy=-322.74366703877877 field_type=dipole dipole="0.000000 0.000000 0.000000" charge=0
C	-0.664932	-2.098608	0.546522	6
O	-0.713032	-1.355058	-0.666498	8
N	-0.159222	-0.097218	-0.436928	7
C	-0.869652	1.009022	-0.074538	6
C	0.018698	2.060652	0.013392	6
C	1.300458	1.561792	-0.340018	6
C	1.152588	0.221542	-0.632318	6
H	-1.103902	-3.082338	0.358262	1
H	-1.250052	-1.607208	1.330952	1
H	0.369118	-2.242818	0.876892	1
H	-1.936252	0.954402	0.088602	1
H	-0.229572	3.078882	0.285832	1
H	2.224858	2.122722	-0.390798	1
H	1.860898	-0.525768	-0.959358	1
Es	1.300478	1.561805	-0.340016	99
Es	0.039704	-2.189982	0.772499	99
Es	-0.147665	2.751482	0.197565	99
Es	1.145504	1.002154	-0.759915	99
Es	-0.326291	1.482224	0.260332	99
Es	1.926034	1.943854	-0.374122	99
Es	1.625279	-0.286781	-0.848104	99
Es	-0.679380	-1.600994	-0.198039	99
Es	-1.586476	0.964713	0.037912	99
Es	-1.014492	-1.301912	-0.724826	99
Es	-0.426699	1.614359	-0.326286	99
Es	-0.869635	1.008795	-0.074579	99
Es	-0.515673	-1.496350	-0.861959	99
Es	-0.159337	-0.097325	-0.437199	99
Es	-0.712887	-1.354913	-0.666109	99
Es	-0.964646	-2.764967	0.410453	99
Es	-1.058880	-1.758748	1.080476	99
Es	1.260975	0.864100	-0.177326	99
Es	0.408628	-0.004978	-0.550021	99
Es	-0.452620	-0.779361	-0.537047	99
Es	0.681066	1.859744	-0.153823	99
Es	0.018694	2.060674	0.013395	99
Es	-0.664942	-2.098485	0.546316	99
Es	1.152415	0.221393	-0.632307	99
Es	-0.078387	0.058323	-0.363940	99
Es	-0.508466	0.352024	-0.295732	99
40
Properties=species:S:1:pos:R:3:Z:I:1 energy=-322.74366703877877 field_type=dipole dipole="0.000000 0.000000 0.000000" charge=0
C	-0.664932	-2.098608	0.546522	6
O	-0.713032	-1.355058	-0.666498	8
N	-0.159222	-0.097218	-0.436928	7
C	-0.869652	1.009022	-0.074538	6
C	0.018698	2.060652	0.013392	6
C	1.300458	1.561792	-0.340018	6
C	1.152588	0.221542	-0.632318	6
H	-1.103902	-3.082338	0.358262	1
H	-1.250052	-1.607208	1.330952	1
H	0.369118	-2.242818	0.876892	1
H	-1.936252	0.954402	0.088602	1
H	-0.229572	3.078882	0.285832	1
H	2.224858	2.122722	-0.390798	1
H	1.860898	-0.525768	-0.959358	1
Es	-1.021139	-1.305660	-0.716712	99
Es	-0.675869	-1.592168	-0.206582	99
Es	-0.869636	1.008796	-0.074584	99
Es	1.926907	1.944475	-0.374886	99
Es	-0.085928	0.061679	-0.395332	99
Es	-0.712890	-1.354955	-0.666197	99
Es	-1.057622	-1.758077	1.079657	99
Es	-0.422548	1.614756	-0.323400	99
Es	-0.451657	-0.778467	-0.535729	99
Es	0.018695	2.060675	0.013396	99
Es	-0.159283	-0.097422	-0.436866	99
Es	0.039035	-2.188624	0.772139	99
Es	-0.965429	-2.766523	0.410152	99
Es	-0.506028	0.348827	-0.281013	99
Es	1.152413	0.221388	-0.632308	99
Es	-1.586534	0.965108	0.038948	99
Es	-0.513207	-1.503228	-0.860300	99
Es	1.143681	1.004878	-0.755421	99
Es	1.625993	-0.286671	-0.847578	99
Es	0.412041	-0.008821	-0.533868	99
Es	-0.148219	2.752587	0.197175	99
Es	1.300474	1.561805	-0.340027	99
Es	0.679739	1.857782	-0.156171	99
Es	1.259943	0.864663	-0.180301	99
Es	-0.325686	1.482534	0.257091	99
Es	-0.664943	-2.098489	0.546316	99
40
Properties=species:S:1:pos:R:3:Z:I:1 energy=-322.74366703877877 field_type=dipole dipole="0.000000 0.000000 0.000000" charge=0
C	-0.664932	-2.098608	0.546522	6
O	-0.713032	-1.355058	-0.666498	8
N	-0.159222	-0.097218	-0.436928	7
C	-0.869652	1.009022	-0.074538	6
C	0.018698	2.060652	0.013392	6
C	1.300458	1.561792	-0.340018	6
C	1.152588	0.221542	-0.632318	6
H	-1.103902	-3.082338	0.358262	1
H	-1.250052	-1.607208	1.330952	1
H	0.369118	-2.242818	0.876892	1
H	-1.936252	0.954402	0.088602	1
H	-0.229572	3.078882	0.285832	1
H	2.224858	2.122722	-0.390798	1
H	1.860898	-0.525768	-0.959358	1
Es	-0.664942	-2.098489	0.546318	99
Es	-1.586472	0.965346	0.039469	99
Es	-0.503305	-1.516565	-0.848870	99
Es	1.300476	1.561807	-0.340025	99
Es	-0.505105	0.347792	-0.277360	99
Es	0.018693	2.060678	0.013386	99
Es	-0.869634	1.008792	-0.074567	99
Es	0.038463	-2.187564	0.771940	99
Es	-0.148233	2.753435	0.196501	99
Es	-0.451841	-0.777726	-0.535196	99
Es	0.412031	-0.009229	-0.532118	99
Es	1.626397	-0.286562	-0.846788	99
Es	-0.965748	-2.767509	0.410086	99
Es	0.678572	1.856487	-0.158276	99
Es	-1.056801	-1.757760	1.078961	99
Es	-0.330350	1.482310	0.255662	99
Es	1.152416	0.221386	-0.632298	99
Es	-0.677295	-1.573690	-0.224974	99
Es	-0.414346	1.615058	-0.321816	99
Es	-0.159292	-0.097417	-0.436900	99
Es	-0.087903	0.060472	-0.401101	99
Es	1.927139	1.945170	-0.375601	99
Es	1.140645	1.008986	-0.751176	99
Es	1.260949	0.862822	-0.182741	99
Es	-0.712915	-1.354911	-0.666121	99
Es	-1.029297	-1.312269	-0.708797	99
40
Properties=species:S:1:pos:R:3:Z:I:1 energy=-322.74366703877877 field_type=dipole dipole="0.000000 0.000000 0.000000" charge=0
C	-0.664932	-2.098608	0.546522	6
O	-0.713032	-1.355058	-0.666498	8
N	-0.159222	-0.097218	-0.436928	7
C	-0.869652	1.009022	-0.074538	6
C	0.018698	2.060652	0.013392	6
C	1.300458	1.561792	-0.340018	6
C	1.152588	0.221542	-0.632318	6
H	-1.103902	-3.082338	0.358262	1
H	-1.250052	-1.607208	1.330952	1
H	0.369118	-2.242818	0.876892	1
H	-1.936252	0.954402	0.088602	1
H	-0.229572	3.078882	0.285832	1
H	2.224858	2.122722	-0.390798	1
H	1.860898	-0.525768	-0.959358	1
Es	-0.405165	1.614873	-0.320418	99
Es	-0.505159	0.347850	-0.278346	99
Es	-0.965875	-2.768155	0.410291	99
Es	-0.451734	-0.777349	-0.536001	99
Es	1.152414	0.221386	-0.632300	99
Es	-1.586112	0.965212	0.040020	99
Es	0.677961	1.855719	-0.159407	99
Es	-0.147793	2.753956	0.196048	99
Es	-0.869633	1.008791	-0.074570	99
Es	1.926992	1.945927	-0.376036	99
Es	-0.088157	0.058145	-0.399635	99
Es	0.037655	-2.187106	0.771957	99
Es	1.267056	0.856781	-0.189834	99
Es	-0.496443	-1.531574	-0.836443	99
Es	1.300477	1.561806	-0.340023	99
Es	-1.035995	-1.318886	-0.689789	99
Es	-0.712843	-1.354903	-0.666007	99
Es	1.626327	-0.286497	-0.846406	99
Es	-0.677390	-1.552450	-0.255322	99
Es	0.018696	2.060675	0.013404	99
Es	1.132915	1.017276	-0.742898	99
Es	-0.664943	-2.098493	0.546323	99
Es	-0.337198	1.481996	0.254196	99
Es	0.411603	-0.008949	-0.533001	99
Es	-1.056082	-1.757752	1.078608	99
Es	-0.159274	-0.097429	-0.436810	99
40
Properties=species:S:1:pos:R:3:Z:I:1 energy=-322.74366703877877 field_type=dipole dipole="0.000000 0.000000 0.000000" charge=0
C	-0.664932	-2.098608	0.546522	6
O	-0.713032	-1.355058	-0.666498	8
N	-0.159222	-0.097218	-0.436928	7
C	-0.869652	1.009022	-0.074538	6
C	0.018698	2.060652	0.013392	6
C	1.300458	1.561792	-0.340018	6
C	1.152588	0.221542	-0.632318	6
H	-1.103902	-3.082338	0.358262	1
H	-1.250052	-1.607208	1.330952	1
H	0.369118	-2.242818	0.876892	1
H	-1.936252	0.954402	0.088602	1
H	-0.229572	3.078882	0.285832	1
H	2.224858	2.122722	-0.390798	1
H	1.860898	-0.525768	-0.959358	1
Es	1.926820	1.946444	-0.376080	99
Es	0.677631	1.855153	-0.159664	99
Es	-0.712900	-1.354918	-0.666144	99
Es	-0.147379	2.754244	0.195885	99
Es	1.273481	0.850996	-0.202399	99
Es	-0.491439	-1.538688	-0.824238	99
Es	-1.055546	-1.757794	1.078332	99
Es	-0.395776	1.614029	-0.317432	99
Es	1.125309	1.024582	-0.729626	99
Es	1.152414	0.221385	-0.632301	99
Es	0.037113	-2.186770	0.771952	99
Es	-0.664943	-2.098492	0.546319	99
Es	-0.505143	0.347568	-0.278035	99
Es	0.410492	-0.007729	-0.537587	99
Es	-0.344846	1.482599	0.251127	99
Es	-0.087494	0.055727	-0.395596	99
Es	1.626068	-0.286419	-0.846383	99
Es	-0.679336	-1.541074	-0.273577	99
Es	-1.585851	0.965166	0.040124	99
Es	-0.869633	1.008790	-0.074570	99
Es	-1.038739	-1.323404	-0.683044	99
Es	-0.451913	-0.777027	-0.536403	99
Es	0.018694	2.060676	0.013396	99
Es	-0.159297	-0.097419	-0.436915	99
Es	1.300477	1.561808	-0.340026	99
Es	-0.965963	-2.768585	0.410484	99
40
Properties=species:S:1:pos:R:3:Z:I:1 energy=-322.74366703877877 field_type=dipole dipole="0.000000 0.000000 0.000000" charge=0
C	-0.664932	-2.098608	0.546522	6
O	-0.713032	-1.355058	-0.666498	8
N	-0.159222	-0.097218	-0.436928	7
C	-0.869652	1.009022	-0.074538	6
C	0.018698	2.060652	0.013392	6
C	1.300458	1.561792	-0.340018	6
C	1.152588	0.221542	-0.632318	6
H	-1.103902	-3.082338	0.358262	1
H	-1.250052	-1.607208	1.330952	1
H	0.369118	-2.242818	0.876892	1
H	-1.936252	0.954402	0.088602	1
H	-0.229572	3.078882	0.285832	1
H	2.224858	2.122722	-0.390798	1
H	1.860898	-0.525768	-0.959358	1
Es	-0.712856	-1.354930	-0.666127	99
Es	-1.585603	0.965155	0.039998	99
Es	0.018695	2.060677	0.013396	99
Es	-0.382645	1.612285	-0.310576	99
Es	-0.356387	1.484623	0.243878	99
Es	0.411615	-0.009295	-0.532146	99
Es	1.625895	-0.286306	-0.846256	99
Es	0.036644	-2.186678	0.771936	99
Es	-0.505251	0.347825	-0.279471	99
Es	-0.089090	0.055903	-0.399634	99
Es	1.926559	1.947058	-0.376052	99
Es	1.300477	1.561807	-0.340022	99
Es	-0.159284	-0.097421	-0.436855	99
Es	-0.146968	2.754472	0.195689	99
Es	0.677520	1.854527	-0.159490	99
Es	1.276095	0.848541	-0.209952	99
Es	1.121656	1.027609	-0.721737	99
Es	1.152413	0.221387	-0.632307	99
Es	-0.677170	-1.535670	-0.286133	99
Es	-0.491990	-1.540509	-0.823835	99
Es	-0.869634	1.008790	-0.074574	99
Es	-0.452022	-0.776799	-0.536933	99
Es	-1.055048	-1.757818	1.078142	99
Es	-0.966149	-2.768831	0.410684	99
Es	-0.664937	-2.098498	0.546330	99
Es	-1.040234	-1.327057	-0.670352	99
40
Properties=species:S:1:pos:R:3:Z:I:1 energy=-322.74366703877877 field_type=dipole dipole="0.000000 0.000000 0.000000" charge=0
C	-0.664932	-2.098608	0.546522	6
O	-0.713032	-1.355058	-0.666498	8
N	-0.159222	-0.097218	-0.436928	7
C	-0.869652	1.009022	-0.074538	6
C	0.018698	2.060652	0.013392	6
C	1.300458	1.561792	-0.340018	6
C	1.152588	0.221542	-0.632318	6
H	-1.103902	-3.082338	0.358262	1
H	-1.250052	-1.607208	1.330952	1
H	0.369118	-2.242818	0.876892	1
H	-1.936252	0.954402	0.088602	1
H	-0.229572	3.078882	0.285832	1
H	2.224858	2.122722	-0.390798	1
H	1.860898	-0.525768	-0.959358	1
Es	-0.869634	1.008791	-0.074572	99
Es	-0.366076	1.486911	0.235224	99
Es	-0.451833	-0.776813	-0.536862	99
Es	1.278283	0.846517	-0.218325	99
Es	1.300478	1.561806	-0.340018	99
Es	0.018695	2.060674	0.013401	99
Es	0.677361	1.854250	-0.159750	99
Es	-0.664943	-2.098490	0.546320	99
Es	-0.966115	-2.769064	0.410800	99
Es	-0.678891	-1.533693	-0.288290	99
Es	-1.054768	-1.758139	1.077955	99
Es	-0.371576	1.610275	-0.302128	99
Es	0.036438	-2.186385	0.771996	99
Es	-0.159292	-0.097438	-0.436814	99
Es	-0.146557	2.754643	0.195681	99
Es	1.926454	1.947354	-0.375878	99
Es	-0.089906	0.055699	-0.401634	99
Es	-0.504969	0.347331	-0.277621	99
Es	1.118504	1.029947	-0.712959	99
Es	1.625726	-0.286226	-0.846181	99
Es	-1.040200	-1.327049	-0.672488	99
Es	0.411601	-0.009327	-0.532055	99
Es	1.152415	0.221384	-0.632294	99
Es	-0.490534	-1.542264	-0.819650	99
Es	-1.585463	0.965080	0.039882	99
Es	-0.712895	-1.354925	-0.666139	99
40
Properties=species:S:1:pos:R:3:Z:I:1 energy=-322.74366703877877 field_type=dipole dipole="0.000000 0.000000 0.000000" charge=0
C	-0.664932	-2.098608	0.546522	6
O	-0.713032	-1.355058	-0.666498	8
N	-0.159222	-0.097218	-0.436928	7
C	-0.869652	1.009022	-0.074538	6
C	0.018698	2.060652	0.013392	6
C	1.300458	1.561792	-0.340018	6
C	1.152588	0.221542	-0.632318	6
H	-1.103902	-3.082338	0.358262	1
H	-1.250052	-1.607208	1.330952	1
H	0.369118	-2.242818	0.876892	1
H	-1.936252	0.954402	0.088602	1
H	-0.229572	3.078882	0.285832	1
H	2.224858	2.122722	-0.390798	1
H	1.860898	-0.525768	-0.959358	1
Es	-1.054447	-1.758482	1.077786	99
Es	-1.585247	0.965019	0.039960	99
Es	-0.146251	2.754811	0.195497	99
Es	-0.966112	-2.769254	0.410958	99
Es	0.018694	2.060676	0.013394	99
Es	0.411434	-0.009302	-0.532545	99
Es	1.300476	1.561807	-0.340026	99
Es	0.677147	1.854093	-0.160203	99
Es	-1.041071	-1.330390	-0.661403	99
Es	1.152415	0.221385	-0.632298	99
Es	1.926275	1.947716	-0.375916	99
Es	-0.869634	1.008791	-0.074571	99
Es	-0.089943	0.055202	-0.402828	99
Es	-0.373448	1.610667	-0.304503	99
Es	-0.664944	-2.098491	0.546320	99
Es	-0.504831	0.347010	-0.276377	99
Es	1.279571	0.845541	-0.224193	99
Es	1.116617	1.032024	-0.706554	99
Es	0.036072	-2.186279	0.772087	99
Es	-0.159203	-0.097448	-0.436522	99
Es	-0.363607	1.485887	0.237595	99
Es	-0.679184	-1.525788	-0.304131	99
Es	-0.451707	-0.776685	-0.537358	99
Es	-0.712866	-1.354953	-0.666201	99
Es	-0.489464	-1.546558	-0.814293	99
Es	1.625557	-0.286151	-0.846074	99
40
Properties=species:S:1:pos:R:3:Z:I:1 energy=-322.74366703877877 field_type=dipole dipole="0.000000 0.000000 0.000000" charge=0
C	-0.664932	-2.098608	0.546522	6
O	-0.713032	-1.355058	-0.666498	8
N	-0.159222	-0.097218	-0.436928	7
C	-0.869652	1.009022	-0.074538	6
C	0.018698	2.060652	0.013392	6
C	1.300458	1.561792	-0.340018	6
C	1.152588	0.221542	-0.632318	6
H	-1.103902	-3.082338	0.358262	1
H	-1.250052	-1.607208	1.330952	1
H	0.369118	-2.242818	0.876892	1
H	-1.936252	0.954402	0.088602	1
H	-0.229572	3.078882	0.285832	1
H	2.224858	2.122722	-0.390798	1
H	1.860898	-0.525768	-0.959358	1
Es	1.278436	0.845805	-0.220476	99
Es	0.018694	2.060676	0.013396	99
Es	0.677193	1.853686	-0.159920	99
Es	1.116914	1.030723	-0.710545	99
Es	-1.585148	0.964933	0.039829	99
Es	-0.869634	1.008789	-0.074572	99
Es	-0.679984	-1.524679	-0.305459	99
Es	1.152415	0.221386	-0.632299	99
Es	-0.145913	2.754949	0.195373	99
Es	-0.488892	-1.547863	-0.811950	99
Es	1.625440	-0.286075	-0.845927	99
Es	1.926207	1.947969	-0.375725	99
Es	-1.040927	-1.330065	-0.662556	99
Es	-0.712912	-1.354890	-0.666052	99
Es	-0.966195	-2.769367	0.411081	99
Es	-0.376173	1.489949	0.223691	99
Es	0.411630	-0.009640	-0.531615	99
Es	-0.090607	0.054421	-0.398945	99
Es	0.035813	-2.186230	0.772110	99
Es	-0.359175	1.607848	-0.290820	99
Es	-0.505414	0.347935	-0.280608	99
Es	-0.664941	-2.098496	0.546329	99
Es	1.300477	1.561807	-0.340021	99
Es	-0.159280	-0.097431	-0.436843	99
Es	-0.451564	-0.776697	-0.537556	99
Es	-1.054159	-1.758594	1.077681	99
40
Properties=species:S:1:pos:R:3:Z:I:1 energy=-322.74366703877877 field_type=dipole dipole="0.000000 0.000000 0.000000" charge=0
C	-0.664932	-2.098608	0.546522	6
O	-0.713032	-1.355058	-0.666498	8
N	-0.159222	-0.097218	-0.436928	7
C	-0.869652	1.009022	-0.074538	6
C	0.018698	2.060652	0.013392	6
C	1.300458	1.561792	-0.340018	6
C	1.152588	0.221542	-0.632318	6
H	-1.103902	-3.082338	0.358262	1
H	-1.250052	-1.607208	1.330952	1
H	0.369118	-2.242818	0.876892	1
H	-1.936252	0.954402	0.088602	1
H	-0.229572	3.078882	0.285832	1
H	2.224858	2.122722	-0.390798	1
H	1.860898	-0.525768	-0.959358	1
Es	-0.368636	1.609428	-0.300914	99
Es	-0.664943	-2.098496	0.546327	99
Es	0.018695	2.060673	0.013401	99
Es	0.676900	1.853668	-0.160358	99
Es	-0.869638	1.008794	-0.074571	99
Es	-0.145664	2.755053	0.195379	99
Es	-0.159289	-0.097427	-0.436874	99
Es	-0.679778	-1.519766	-0.316819	99
Es	1.925973	1.948293	-0.375854	99
Es	0.035408	-2.186257	0.772149	99
Es	-1.054066	-1.758513	1.077643	99
Es	-0.089268	0.053455	-0.399119	99
Es	1.152414	0.221385	-0.632298	99
Es	-0.505202	0.347488	-0.278707	99
Es	-0.488167	-1.549817	-0.808896	99
Es	1.281520	0.844235	-0.234940	99
Es	0.411040	-0.009126	-0.533943	99
Es	1.113650	1.034727	-0.695251	99
Es	1.625314	-0.286009	-0.845976	99
Es	-1.041462	-1.333127	-0.653947	99
Es	-1.584919	0.964876	0.039970	99
Es	-0.451701	-0.776567	-0.537671	99
Es	-0.966146	-2.769492	0.411150	99
Es	-0.367352	1.486476	0.233843	99
Es	-0.712861	-1.354915	-0.666107	99
Es	1.300478	1.561807	-0.340017	99
40
Properties=species:S:1:pos:R:3:Z:I:1 energy=-322.74366703877877 field_type=dipole dipole="0.000000 0.000000 0.000000" charge=0
C	-0.664932	-2.098608	0.546522	6
O	-0.713032	-1.355058	-0.666498	8
N	-0.159222	-0.097218	-0.436928	7
C	-0.869652	1.009022	-0.074538	6
C	0.018698	2.060652	0.013392	6
C	1.300458	1.561792	-0.340018	6
C	1.152588	0.221542	-0.632318	6
H	-1.103902	-3.082338	0.358262	1
H	-1.250052	-1.607208	1.330952	1
H	0.369118	-2.242818	0.876892	1
H	-1.936252	0.954402	0.088602	1
H	-0.229572	3.078882	0.285832	1
H	2.224858	2.122722	-0.390798	1
H	1.860898	-0.525768	-0.959358	1
Es	-1.040863	-1.331094	-0.660586	99
Es	1.300477	1.561807	-0.340021	99
Es	-0.869634	1.008788	-0.074571	99
Es	-0.451816	-0.776519	-0.537513	99
Es	-1.053947	-1.758516	1.077542	99
Es	1.282963	0.843398	-0.244955	99
Es	-0.712859	-1.354996	-0.665966	99
Es	-0.505266	0.347389	-0.278856	99
Es	-0.089559	0.053255	-0.399588	99
Es	-0.664944	-2.098490	0.546316	99
Es	-0.145423	2.755126	0.195324	99
Es	-0.360096	1.607011	-0.292230	99
Es	-1.584817	0.964883	0.039800	99
Es	0.018694	2.060677	0.013395	99
Es	0.035402	-2.186107	0.772101	99
Es	-0.489608	-1.546314	-0.814042	99
Es	-0.375303	1.489020	0.225039	99
Es	0.411176	-0.009259	-0.533304	99
Es	1.152415	0.221386	-0.632296	99
Es	1.111681	1.035817	-0.685189	99
Es	0.676861	1.853356	-0.159991	99
Es	-0.678920	-1.525332	-0.305397	99
Es	-0.159297	-0.097420	-0.436913	99
Es	1.625243	-0.285931	-0.846067	99
Es	-0.966166	-2.769581	0.411245	99
Es	1.925906	1.948496	-0.375677	99
40
Properties=species:S:1:pos:R:3:Z:I:1 energy=-322.74366703877877 field_type=dipole dipole="0.000000 0.000000 0.000000" charge=0
C	-0.664932	-2.098608	0.546522	6
O	-0.713032	-1.355058	-0.666498	8
N	-0.159222	-0.097218	-0.436928	7
C	-0.869652	1.009022	-0.074538	6
C	0.018698	2.060652	0.013392	6
C	1.300458	1.561792	-0.340018	6
C	1.152588	0.221542	-0.632318	6
H	-1.103902	-3.082338	0.358262	1
H	-1.250052	-1.607208	1.330952	1
H	0.369118	-2.242818	0.876892	1
H	-1.936252	0.954402	0.088602	1
H	-0.229572	3.078882	0.285832	1
H	2.224858	2.122722	-0.390798	1
H	1.860898	-0.525768	-0.959358	1
Es	0.018694	2.060677	0.013393	99
Es	0.676949	1.853027	-0.159620	99
Es	-0.677754	-1.525664	-0.305410	99
Es	-0.159286	-0.097431	-0.436858	99
Es	-0.712882	-1.354953	-0.666200	99
Es	1.111721	1.034630	-0.689253	99
Es	-0.664942	-2.098491	0.546319	99
Es	-1.053797	-1.758540	1.077416	99
Es	-1.584740	0.964904	0.039697	99
Es	1.300477	1.561807	-0.340023	99
Es	-0.490350	-1.544732	-0.815799	99
Es	1.925816	1.948661	-0.375608	99
Es	-0.451850	-0.776441	-0.537713	99
Es	-0.383119	1.492110	0.214580	99
Es	1.282289	0.843326	-0.241336	99
Es	-0.869634	1.008791	-0.074572	99
Es	1.625137	-0.285903	-0.845822	99
Es	0.035256	-2.186069	0.772140	99
Es	-0.350953	1.605265	-0.281996	99
Es	0.411450	-0.009691	-0.531994	99
Es	-0.505631	0.347957	-0.281602	99
Es	-1.041223	-1.332404	-0.658497	99
Es	-0.090320	0.053049	-0.397958	99
Es	-0.145172	2.755223	0.195278	99
Es	-0.966248	-2.769644	0.411336	99
Es	1.152414	0.221386	-0.632297	99
40
Properties=species:S:1:pos:R:3:Z:I:1 energy=-322.74366703877877 field_type=dipole dipole="0.000000 0.000000 0.000000" charge=0
C	-0.664932	-2.098608	0.546522	6
O	-0.713032	-1.355058	-0.666498	8
N	-0.159222	-0.097218	-0.436928	7
C	-0.869652	1.009022	-0.074538	6
C	0.018698	2.060652	0.013392	6
C	1.300458	1.561792	-0.340018	6
C	1.152588	0.221542	-0.632318	6
H	-1.103902	-3.082338	0.358262	1
H	-1.250052	-1.607208	1.330952	1
H	0.369118	-2.242818	0.876892	1
H	-1.936252	0.954402	0.088602	1
H	-0.229572	3.078882	0.285832	1
H	2.224858	2.122722	-0.390798	1
H	1.860898	-0.525768	-0.959358	1
Es	0.035120	-2.186027	0.772177	99
Es	1.281984	0.843392	-0.239828	99
Es	1.111924	1.034997	-0.690118	99
Es	-0.505418	0.347487	-0.279747	99
Es	-0.145026	2.755268	0.195316	99
Es	-1.584676	0.964844	0.039694	99
Es	-0.159235	-0.097452	-0.436683	99
Es	0.411318	-0.009472	-0.532589	99
Es	-0.090672	0.053166	-0.399527	99
Es	-1.040633	-1.331589	-0.658370	99
Es	1.152415	0.221385	-0.632296	99
Es	1.925739	1.948823	-0.375592	99
Es	-0.966263	-2.769693	0.411333	99
Es	-0.869633	1.008791	-0.074570	99
Es	-0.712878	-1.354926	-0.666103	99
Es	-0.664943	-2.098492	0.546322	99
Es	-1.053617	-1.758820	1.077330	99
Es	-0.488790	-1.549731	-0.809075	99
Es	1.625036	-0.285855	-0.845881	99
Es	0.676746	1.853131	-0.160406	99
Es	-0.350063	1.604805	-0.281065	99
Es	-0.451559	-0.776494	-0.537798	99
Es	-0.680180	-1.521218	-0.312047	99
Es	-0.383566	1.492046	0.213753	99
Es	0.018692	2.060678	0.013388	99
Es	1.300481	1.561805	-0.340017	99
40
Properties=species:S:1:pos:R:3:Z:I:1 energy=-322.74366703877877 field_type=dipole dipole="0.000000 0.000000 0.000000" charge=0
C	-0.664932	-2.098608	0.546522	6
O	-0.713032	-1.355058	-0.666498	8
N	-0.159222	-0.097218	-0.436928	7
C	-0.869652	1.009022	-0.074538	6
C	0.018698	2.060652	0.013392	6
C	1.300458	1.561792	-0.340018	6
C	1.152588	0.221542	-0.632318	6
H	-1.103902	-3.082338	0.358262	1
H	-1.250052	-1.607208	1.330952	1
H	0.369118	-2.242818	0.876892	1
H	-1.936252	0.954402	0.088602	1
H	-0.229572	3.078882	0.285832	1
H	2.224858	2.122722	-0.390798	1
H	1.860898	-0.525768	-0.959358	1
Es	-1.040779	-1.332945	-0.652999	99
Es	0.411336	-0.009655	-0.532266	99
Es	0.676710	1.852938	-0.160452	99
Es	-0.090384	0.052805	-0.399412	99
Es	1.624959	-0.285799	-0.845802	99
Es	-0.159356	-0.097315	-0.437233	99
Es	-1.584562	0.964862	0.039696	99
Es	-0.869633	1.008791	-0.074568	99
Es	1.300477	1.561807	-0.340023	99
Es	-0.451615	-0.776458	-0.537919	99
Es	1.110976	1.036113	-0.684305	99
Es	1.152415	0.221386	-0.632301	99
Es	1.282746	0.843058	-0.245263	99
Es	0.018694	2.060676	0.013392	99
Es	-0.488851	-1.550307	-0.808906	99
Es	-0.352595	1.605384	-0.284624	99
Es	1.925602	1.949056	-0.375716	99
Es	-0.966230	-2.769798	0.411435	99
Es	-1.053524	-1.758842	1.077224	99
Es	-0.664943	-2.098495	0.546327	99
Es	-0.679931	-1.519111	-0.318076	99
Es	-0.712780	-1.355080	-0.665614	99
Es	-0.381053	1.490935	0.217301	99
Es	-0.144871	2.755360	0.195127	99
Es	0.034897	-2.185957	0.772231	99
Es	-0.505403	0.347445	-0.279653	99
40
Properties=species:S:1:pos:R:3:Z:I:1 energy=-322.74366703877877 field_type=dipole dipole="0.000000 0.000000 0.000000" charge=0
C	-0.664932	-2.098608	0.546522	6
O	-0.713032	-1.355058	-0.666498	8
N	-0.159222	-0.097218	-0.436928	7
C	-0.869652	1.009022	-0.074538	6
C	0.018698	2.060652	0.013392	6
C	1.300458	1.561792	-0.340018	6
C	1.152588	0.221542	-0.632318	6
H	-1.103902	-3.082338	0.358262	1
H	-1.250052	-1.607208	1.330952	1
H	0.369118	-2.242818	0.876892	1
H	-1.936252	0.954402	0.088602	1
H	-0.229572	3.078882	0.285832	1
H	2.224858	2.122722	-0.390798	1
H	1.860898	-0.525768	-0.959358	1
Es	1.152415	0.221386	-0.632298	99
Es	-0.966228	-2.769836	0.411511	99
Es	-0.351185	1.604807	-0.283086	99
Es	-0.144623	2.755403	0.195212	99
Es	-0.712920	-1.354907	-0.666078	99
Es	-0.451605	-0.776460	-0.537864	99
Es	-1.584464	0.964819	0.039747	99
Es	0.018694	2.060676	0.013396	99
Es	-0.664943	-2.098490	0.546318	99
Es	0.676610	1.852807	-0.160169	99
Es	1.925538	1.949178	-0.375527	99
Es	-0.382441	1.491325	0.215465	99
Es	1.109555	1.036993	-0.675783	99
Es	-0.090648	0.053179	-0.402190	99
Es	-0.678983	-1.520494	-0.314367	99
Es	-0.869634	1.008792	-0.074572	99
Es	1.300475	1.561808	-0.340030	99
Es	0.034578	-2.186086	0.772222	99
Es	0.411559	-0.009970	-0.531173	99
Es	-1.041010	-1.333284	-0.654622	99
Es	-0.489259	-1.548554	-0.810588	99
Es	-0.505232	0.347178	-0.278592	99
Es	1.624883	-0.285743	-0.845802	99
Es	1.283836	0.842660	-0.253977	99
Es	-0.159282	-0.097435	-0.436825	99
Es	-1.053383	-1.758900	1.077276	99
40
Properties=species:S:1:pos:R:3:Z:I:1 energy=-322.74366703877877 field_type=dipole dipole="0.000000 0.000000 0.000000" charge=0
C	-0.664932	-2.098608	0.546522	6
O	-0.713032	-1.355058	-0.666498	8
N	-0.159222	-0.097218	-0.436928	7
C	-0.869652	1.009022	-0.074538	6
C	0.018698	2.060652	0.013392	6
C	1.300458	1.561792	-0.340018	6
C	1.152588	0.221542	-0.632318	6
H	-1.103902	-3.082338	0.358262	1
H	-1.250052	-1.607208	1.330952	1
H	0.369118	-2.242818	0.876892	1
H	-1.936252	0.954402	0.088602	1
H	-0.229572	3.078882	0.285832	1
H	2.224858	2.122722	-0.390798	1
H	1.860898	-0.525768	-0.959358	1
Es	-0.451759	-0.776407	-0.537758	99
Es	-0.966155	-2.769955	0.411532	99
Es	-0.144609	2.755431	0.195254	99
Es	-0.089172	0.051855	-0.399210	99
Es	1.285313	0.842682	-0.269738	99
Es	1.108040	1.038517	-0.659398	99
Es	-0.159252	-0.097455	-0.436708	99
Es	-0.664943	-2.098493	0.546323	99
Es	-0.678182	-1.524079	-0.307604	99
Es	1.624800	-0.285711	-0.845981	99
Es	-0.490247	-1.546165	-0.814268	99
Es	1.925469	1.949258	-0.375466	99
Es	0.034545	-2.185897	0.772157	99
Es	-1.584371	0.964813	0.039635	99
Es	0.410981	-0.009378	-0.533585	99
Es	-0.712873	-1.354920	-0.666127	99
Es	-1.040774	-1.332311	-0.657730	99
Es	-1.053356	-1.758792	1.077221	99
Es	-0.380462	1.490292	0.218246	99
Es	0.018694	2.060676	0.013395	99
Es	-0.353752	1.604748	-0.285905	99
Es	1.152414	0.221384	-0.632298	99
Es	-0.505406	0.347376	-0.279503	99
Es	1.300476	1.561808	-0.340028	99
Es	-0.869635	1.008792	-0.074575	99
Es	0.676516	1.852777	-0.160277	99
40
Properties=species:S:1:pos:R:3:Z:I:1 energy=-322.74366703877877 field_type=dipole dipole="0.000000 0.000000 0.000000" charge=0
C	-0.664932	-2.098608	0.546522	6
O	-0.713032	-1.355058	-0.666498	8
N	-0.159222	-0.097218	-0.436928	7
C	-0.869652	1.009022	-0.074538	6
C	0.018698	2.060652	0.013392	6
C	1.300458	1.561792	-0.340018	6
C	1.152588	0.221542	-0.632318	6
H	-1.103902	-3.082338	0.358262	1
H	-1.250052	-1.607208	1.330952	1
H	0.369118	-2.242818	0.876892	1
H	-1.936252	0.954402	0.088602	1
H	-0.229572	3.078882	0.285832	1
H	2.224858	2.122722	-0.390798	1
H	1.860898	-0.525768	-0.959358	1
Es	0.034357	-2.186014	0.772122	99
Es	1.925411	1.949423	-0.375584	99
Es	-0.712937	-1.354877	-0.666076	99
Es	-1.584316	0.964723	0.039829	99
Es	-0.384235	1.491777	0.212812	99
Es	-1.053144	-1.758967	1.077232	99
Es	1.283773	0.842749	-0.253290	99
Es	-0.144388	2.755474	0.195181	99
Es	-0.869634	1.008791	-0.074571	99
Es	1.624727	-0.285712	-0.845908	99
Es	-0.505436	0.347381	-0.279833	99
Es	-0.348862	1.603831	-0.280378	99
Es	-0.966239	-2.769945	0.411578	99
Es	-0.159291	-0.097424	-0.436876	99
Es	-0.681666	-1.516657	-0.320473	99
Es	0.676517	1.852665	-0.160410	99
Es	0.018694	2.060677	0.013394	99
Es	-0.487359	-1.553717	-0.802826	99
Es	1.109468	1.037493	-0.676090	99
Es	1.300477	1.561807	-0.340022	99
Es	1.152416	0.221386	-0.632299	99
Es	-0.664941	-2.098495	0.546327	99
Es	-1.040221	-1.331961	-0.656063	99
Es	-0.451639	-0.776385	-0.538060	99
Es	0.410850	-0.009126	-0.534359	99
Es	-0.090081	0.051953	-0.397755	99
40
Properties=species:S:1:pos:R:3:Z:I:1 energy=-322.74366703877877 field_type=dipole dipole="0.000000 0.000000 0.000000" charge=0
C	-0.664932	-2.098608	0.546522	6
O	-0.713032	-1.355058	-0.666498	8
N	-0.159222	-0.097218	-0.436928	7
C	-0.869652	1.009022	-0.074538	6
C	0.018698	2.060652	0.013392	6
C	1.300458	1.561792	-0.340018	6
C	1.152588	0.221542	-0.632318	6
H	-1.103902	-3.082338	0.358262	1
H	-1.250052	-1.607208	1.330952	1
H	0.369118	-2.242818	0.876892	1
H	-1.936252	0.954402	0.088602	1
H	-0.229572	3.078882	0.285832	1
H	2.224858	2.122722	-0.390798	1
H	1.860898	-0.525768	-0.959358	1
Es	1.300477	1.561807	-0.340023	99
Es	-0.159258	-0.097442	-0.436715	99
Es	-1.041676	-1.335294	-0.653404	99
Es	0.676538	1.852550	-0.160314	99
Es	-0.090637	0.051704	-0.395656	99
Es	-0.869634	1.008791	-0.074572	99
Es	0.034614	-2.185880	0.772181	99
Es	-0.339005	1.602035	-0.267314	99
Es	1.925427	1.949428	-0.375400	99
Es	1.624713	-0.285714	-0.845687	99
Es	1.152415	0.221386	-0.632301	99
Es	-0.966350	-2.769927	0.411617	99
Es	-1.584299	0.964849	0.039510	99
Es	-0.392540	1.495754	0.199967	99
Es	1.109628	1.035414	-0.682488	99
Es	-1.053061	-1.759148	1.077025	99
Es	-0.505898	0.347949	-0.282704	99
Es	1.282668	0.842545	-0.247335	99
Es	-0.144223	2.755543	0.195053	99
Es	-0.678746	-1.520122	-0.315734	99
Es	0.411023	-0.009404	-0.533522	99
Es	-0.712942	-1.354903	-0.666137	99
Es	-0.488829	-1.546948	-0.810227	99
Es	-0.664942	-2.098495	0.546328	99
Es	-0.451855	-0.776303	-0.537946	99
Es	0.018695	2.060676	0.013397	99
40
Properties=species:S:1:pos:R:3:Z:I:1 energy=-322.74366703877877 field_type=dipole dipole="0.000000 0.000000 0.000000" charge=0
C	-0.664932	-2.098608	0.546522	6
O	-0.713032	-1.355058	-0.666498	8
N	-0.159222	-0.097218	-0.436928	7
C	-0.869652	1.009022	-0.074538	6
C	0.018698	2.060652	0.013392	6
C	1.300458	1.561792	-0.340018	6
C	1.152588	0.221542	-0.632318	6
H	-1.103902	-3.082338	0.358262	1
H	-1.250052	-1.607208	1.330952	1
H	0.369118	-2.242818	0.876892	1
H	-1.936252	0.954402	0.088602	1
H	-0.229572	3.078882	0.285832	1
H	2.224858	2.122722	-0.390798	1
H	1.860898	-0.525768	-0.959358	1
Es	-0.869634	1.008791	-0.074573	99
Es	1.108394	1.038706	-0.667453	99
Es	-0.712868	-1.354922	-0.666122	99
Es	1.624685	-0.285619	-0.845808	99
Es	0.410877	-0.009320	-0.534109	99
Es	-1.052957	-1.759064	1.077219	99
Es	0.034025	-2.186036	0.772084	99
Es	1.925258	1.949643	-0.375600	99
Es	-0.486774	-1.553416	-0.801607	99
Es	-0.144223	2.755571	0.195135	99
Es	-0.354756	1.605545	-0.288134	99
Es	-1.041331	-1.336018	-0.646856	99
Es	0.676301	1.852666	-0.160849	99
Es	0.018694	2.060677	0.013394	99
Es	1.300476	1.561810	-0.340029	99
Es	-0.089373	0.051421	-0.397992	99
Es	-0.505573	0.347398	-0.280274	99
Es	1.152420	0.221385	-0.632302	99
Es	-0.664944	-2.098494	0.546325	99
Es	-0.159279	-0.097438	-0.436818	99
Es	-0.966204	-2.770033	0.411639	99
Es	-0.378438	1.489309	0.220652	99
Es	-0.451677	-0.776371	-0.538013	99
Es	1.284374	0.842587	-0.261345	99
Es	-0.681040	-1.512699	-0.330785	99
Es	-1.584133	0.964771	0.039820	99
40
Properties=species:S:1:pos:R:3:Z:I:1 energy=-322.74366703877877 field_type=dipole dipole="0.000000 0.000000 0.000000" charge=0
C	-0.664932	-2.098608	0.546522	6
O	-0.713032	-1.355058	-0.666498	8
N	-0.159222	-0.097218	-0.436928	7
C	-0.869652	1.009022	-0.074538	6
C	0.018698	2.060652	0.013392	6
C	1.300458	1.561792	-0.340018	6
C	1.152588	0.221542	-0.632318	6
H	-1.103902	-3.082338	0.358262	1
H	-1.250052	-1.607208	1.330952	1
H	0.369118	-2.242818	0.876892	1
H	-1.936252	0.954402	0.088602	1
H	-0.229572	3.078882	0.285832	1
H	2.224858	2.122722	-0.390798	1
H	1.860898	-0.525768	-0.959358	1
Es	0.676462	1.852370	-0.160940	99
Es	-0.966408	-2.769984	0.411740	99
Es	1.925279	1.949705	-0.375293	99
Es	-0.869634	1.008791	-0.074576	99
Es	-0.091568	0.052098	-0.397182	99
Es	0.034402	-2.185878	0.772251	99
Es	-1.052942	-1.759162	1.076919	99
Es	1.300477	1.561807	-0.340022	99
Es	-0.712928	-1.354935	-0.666206	99
Es	-1.584221	0.964811	0.039613	99
Es	1.624653	-0.285563	-0.845713	99
Es	-0.159255	-0.097450	-0.436716	99
Es	-1.041456	-1.334573	-0.656822	99
Es	1.282369	0.842457	-0.245899	99
Es	-0.679632	-1.519921	-0.314936	99
Es	-0.488048	-1.547846	-0.807469	99
Es	-0.664943	-2.098494	0.546324	99
Es	-0.333266	1.600490	-0.259039	99
Es	1.109579	1.034871	-0.683716	99
Es	-0.397237	1.497845	0.191771	99
Es	1.152415	0.221385	-0.632297	99
Es	0.411094	-0.009632	-0.533192	99
Es	-0.451856	-0.776227	-0.538178	99
Es	-0.505676	0.347640	-0.281342	99
Es	0.018694	2.060676	0.013395	99
Es	-0.144052	2.755568	0.195126	99
40
Properties=species:S:1:pos:R:3:Z:I:1 energy=-322.74366703877877 field_type=dipole dipole="0.000000 0.000000 0.000000" charge=0
C	-0.664932	-2.098608	0.546522	6
O	-0.713032	-1.355058	-0.666498	8
N	-0.159222	-0.097218	-0.436928	7
C	-0.869652	1.009022	-0.074538	6
C	0.018698	2.060652	0.013392	6
C	1.300458	1.561792	-0.340018	6
C	1.152588	0.221542	-0.632318	6
H	-1.103902	-3.082338	0.358262	1
H	-1.250052	-1.607208	1.330952	1
H	0.369118	-2.242818	0.876892	1
H	-1.936252	0.954402	0.088602	1
H	-0.229572	3.078882	0.285832	1
H	2.224858	2.122722	-0.390798	1
H	1.860898	-0.525768	-0.959358	1
Es	0.033930	-2.185875	0.772146	99
Es	1.285082	0.842632	-0.271597	99
Es	1.624608	-0.285531	-0.845862	99
Es	1.107581	1.039555	-0.656609	99
Es	0.018694	2.060677	0.013394	99
Es	-0.159292	-0.097424	-0.436912	99
Es	0.410442	-0.008996	-0.535792	99
Es	-0.487354	-1.554090	-0.801672	99
Es	0.676196	1.852571	-0.161267	99
Es	-1.052977	-1.759006	1.077100	99
Es	-0.681523	-1.514922	-0.324595	99
Es	-1.584119	0.964721	0.039742	99
Es	-0.088989	0.051027	-0.397835	99
Es	-0.143967	2.755619	0.195104	99
Es	-0.664943	-2.098493	0.546324	99
Es	-0.966124	-2.770147	0.411719	99
Es	-0.712765	-1.354955	-0.666116	99
Es	1.925194	1.949766	-0.375425	99
Es	-0.505314	0.347107	-0.278627	99
Es	1.152414	0.221386	-0.632300	99
Es	-0.451580	-0.776342	-0.538320	99
Es	-0.379820	1.489611	0.218911	99
Es	1.300477	1.561807	-0.340021	99
Es	-0.869634	1.008792	-0.074571	99
Es	-1.040453	-1.333216	-0.652812	99
Es	-0.353461	1.604576	-0.286505	99
