39
Properties=species:S:1:pos:R:3:Z:I:1 energy=-338.73650187505035 field_type=dipole dipole="0.000000 0.000000 0.000000" charge=0
C	-0.394259	-2.141734	0.469732	6
O	-0.736219	-1.311594	-0.632258	8
N	-0.153579	-0.067124	-0.437478	7
C	-0.818759	1.072196	-0.110888	6
C	0.134711	2.063676	-0.090718	6
C	1.333261	1.406996	-0.441108	6
N	1.154591	0.100766	-0.660708	7
H	-0.926909	-3.090534	0.356992	1
H	-0.703859	-1.688064	1.417522	1
H	0.679621	-2.355264	0.482602	1
H	-1.882999	1.072616	0.067032	1
H	-0.011319	3.110936	0.129642	1
H	2.325721	1.827126	-0.550368	1
Es	-0.265732	1.669001	-0.397669	99
Es	0.466439	-0.000823	-0.550540	99
Es	-0.736003	-1.311491	-0.631946	99
Es	1.236622	0.611210	-0.293311	99
Es	-0.759676	-2.779670	0.385568	99
Es	0.331802	-2.282511	0.482559	99
Es	-0.394334	-2.141592	0.469545	99
Es	1.367776	-0.189177	-0.753741	99
Es	0.756772	1.789111	-0.257076	99
Es	-0.595307	-1.423576	-0.880892	99
Es	1.999951	1.699802	-0.511386	99
Es	-0.252483	0.218930	-0.072196	99
Es	-0.153634	-0.067182	-0.437562	99
Es	1.154135	0.101172	-0.660533	99
Es	-0.818743	1.071972	-0.110925	99
Es	-0.167509	1.561283	0.173466	99
Es	-1.041288	-1.252318	-0.613728	99
Es	-1.527744	1.068689	0.009617	99
Es	0.038600	2.768661	0.058170	99
Es	1.333273	1.406918	-0.441113	99
Es	0.134703	2.063672	-0.090675	99
Es	-0.384154	0.349462	-0.590896	99
Es	1.136107	0.713629	-0.818758	99
Es	-0.604406	-1.826233	1.115059	99
Es	-0.455081	-0.741881	-0.521119	99
Es	-0.591611	-1.592941	-0.204619	99
39
Properties=species:S:1:pos:R:3:Z:I:1 energy=-338.73650187505035 field_type=dipole dipole="0.000000 0.000000 0.000000" charge=0
C	-0.394259	-2.141734	0.469732	6
O	-0.736219	-1.311594	-0.632258	8
N	-0.153579	-0.067124	-0.437478	7
C	-0.818759	1.072196	-0.110888	6
C	0.134711	2.063676	-0.090718	6
C	1.333261	1.406996	-0.441108	6
N	1.154591	0.100766	-0.660708	7
H	-0.926909	-3.090534	0.356992	1
H	-0.703859	-1.688064	1.417522	1
H	0.679621	-2.355264	0.482602	1
H	-1.882999	1.072616	0.067032	1
H	-0.011319	3.110936	0.129642	1
H	2.325721	1.827126	-0.550368	1
Es	0.134700	2.063690	-0.090716	99
Es	-0.818745	1.071970	-0.110925	99
Es	-1.529264	1.067663	0.010819	99
Es	0.332630	-2.280121	0.483560	99
Es	-0.394335	-2.141592	0.469545	99
Es	-0.130960	0.135968	-0.266639	99
Es	-0.183062	1.554853	0.172760	99
Es	-0.592862	-1.422321	-0.868626	99
Es	2.001542	1.700570	-0.512190	99
Es	-0.153604	-0.067283	-0.437630	99
Es	-0.264856	1.665602	-0.392899	99
Es	-0.487220	0.407314	-0.391043	99
Es	-0.453131	-0.740832	-0.522029	99
Es	0.757004	1.785331	-0.260822	99
Es	-0.602799	-1.825995	1.111451	99
Es	-0.585601	-1.589391	-0.212986	99
Es	0.038018	2.770185	0.058323	99
Es	0.464863	0.004083	-0.563956	99
Es	1.154132	0.101181	-0.660537	99
Es	1.233054	0.628238	-0.295522	99
Es	-0.736057	-1.311489	-0.631963	99
Es	-1.053632	-1.259234	-0.615080	99
Es	1.135599	0.728109	-0.808142	99
Es	1.372576	-0.187157	-0.754459	99
Es	-0.762786	-2.782145	0.386127	99
Es	1.333274	1.406924	-0.441121	99
39
Properties=species:S:1:pos:R:3:Z:I:1 energy=-338.73650187505035 field_type=dipole dipole="0.000000 0.000000 0.000000" charge=0
C	-0.394259	-2.141734	0.469732	6
O	-0.736219	-1.311594	-0.632258	8
N	-0.153579	-0.067124	-0.437478	7
C	-0.818759	1.072196	-0.110888	6
C	0.134711	2.063676	-0.090718	6
C	1.333261	1.406996	-0.441108	6
N	1.154591	0.100766	-0.660708	7
H	-0.926909	-3.090534	0.356992	1
H	-0.703859	-1.688064	1.417522	1
H	0.679621	-2.355264	0.482602	1
H	-1.882999	1.072616	0.067032	1
H	-0.011319	3.110936	0.129642	1
H	2.325721	1.827126	-0.550368	1
Es	0.469300	-0.000916	-0.544915	99
Es	-0.271780	1.556333	0.137424	99
Es	-0.601778	-1.826432	1.108721	99
Es	0.758759	1.780614	-0.250062	99
Es	0.134705	2.063689	-0.090693	99
Es	-1.529715	1.067800	0.009925	99
Es	-0.164648	1.671937	-0.369683	99
Es	1.154123	0.101168	-0.660537	99
Es	-0.394335	-2.141595	0.469545	99
Es	-0.451702	-0.740387	-0.521344	99
Es	-0.593917	-1.415174	-0.856489	99
Es	1.374030	-0.186109	-0.752783	99
Es	-0.736012	-1.311426	-0.631834	99
Es	-0.145627	0.142755	-0.352401	99
Es	-0.153587	-0.067313	-0.437531	99
Es	-0.578132	-1.590226	-0.220280	99
Es	1.333274	1.406925	-0.441122	99
Es	0.333154	-2.278741	0.484384	99
Es	1.131437	0.726813	-0.808110	99
Es	-1.061458	-1.266502	-0.618608	99
Es	-0.764561	-2.783010	0.386965	99
Es	1.230509	0.627808	-0.299315	99
Es	0.038123	2.770971	0.058855	99
Es	-0.818746	1.071968	-0.110920	99
Es	-0.485046	0.402304	-0.322652	99
Es	2.002105	1.700864	-0.511240	99
39
Properties=species:S:1:pos:R:3:Z:I:1 energy=-338.73650187505035 field_type=dipole dipole="0.000000 0.000000 0.000000" charge=0
C	-0.394259	-2.141734	0.469732	6
O	-0.736219	-1.311594	-0.632258	8
N	-0.153579	-0.067124	-0.437478	7
C	-0.818759	1.072196	-0.110888	6
C	0.134711	2.063676	-0.090718	6
C	1.333261	1.406996	-0.441108	6
N	1.154591	0.100766	-0.660708	7
H	-0.926909	-3.090534	0.356992	1
H	-0.703859	-1.688064	1.417522	1
H	0.679621	-2.355264	0.482602	1
H	-1.882999	1.072616	0.067032	1
H	-0.011319	3.110936	0.129642	1
H	2.325721	1.827126	-0.550368	1
Es	1.154124	0.101179	-0.660530	99
Es	-0.051242	1.667103	-0.248434	99
Es	-0.818748	1.071970	-0.110938	99
Es	2.002034	1.701300	-0.511430	99
Es	-0.451612	-0.740187	-0.521580	99
Es	-1.059913	-1.265550	-0.622323	99
Es	-0.735980	-1.311446	-0.631875	99
Es	0.038309	2.771328	0.058692	99
Es	-0.153592	-0.067309	-0.437556	99
Es	1.372680	-0.184998	-0.752654	99
Es	1.333274	1.406923	-0.441118	99
Es	0.134704	2.063689	-0.090694	99
Es	-1.529815	1.067850	0.010356	99
Es	-0.593037	-1.415620	-0.855172	99
Es	1.226895	0.618471	-0.299086	99
Es	-0.485030	0.403254	-0.331655	99
Es	-0.764522	-2.783345	0.387008	99
Es	0.759229	1.778749	-0.252029	99
Es	-0.601603	-1.826342	1.108646	99
Es	0.468548	-0.000981	-0.548862	99
Es	-0.359571	1.574581	0.015706	99
Es	1.127151	0.717541	-0.810078	99
Es	-0.394335	-2.141591	0.469544	99
Es	-0.580749	-1.590969	-0.217564	99
Es	0.332878	-2.278468	0.484411	99
Es	-0.161602	0.146986	-0.335485	99
39
Properties=species:S:1:pos:R:3:Z:I:1 energy=-338.73650187505035 field_type=dipole dipole="0.000000 0.000000 0.000000" charge=0
C	-0.394259	-2.141734	0.469732	6
O	-0.736219	-1.311594	-0.632258	8
N	-0.153579	-0.067124	-0.437478	7
C	-0.818759	1.072196	-0.110888	6
C	0.134711	2.063676	-0.090718	6
C	1.333261	1.406996	-0.441108	6
N	1.154591	0.100766	-0.660708	7
H	-0.926909	-3.090534	0.356992	1
H	-0.703859	-1.688064	1.417522	1
H	0.679621	-2.355264	0.482602	1
H	-1.882999	1.072616	0.067032	1
H	-0.011319	3.110936	0.129642	1
H	2.325721	1.827126	-0.550368	1
Es	-0.581700	-1.586515	-0.219035	99
Es	0.757754	1.779352	-0.259530	99
Es	-0.735988	-1.311418	-0.631835	99
Es	1.333274	1.406925	-0.441122	99
Es	0.468572	-0.001469	-0.548383	99
Es	-0.153594	-0.067306	-0.437563	99
Es	-0.764911	-2.783681	0.387262	99
Es	-0.591454	-1.418363	-0.854659	99
Es	-1.061557	-1.267173	-0.620176	99
Es	1.126639	0.716692	-0.809549	99
Es	1.373182	-0.184568	-0.751439	99
Es	-0.450457	-0.740441	-0.521778	99
Es	2.001982	1.701712	-0.512060	99
Es	0.134704	2.063691	-0.090696	99
Es	1.223716	0.616077	-0.299458	99
Es	-0.378241	1.583615	-0.036654	99
Es	-0.483004	0.400296	-0.311397	99
Es	-0.024836	1.660123	-0.190201	99
Es	0.038648	2.771739	0.057692	99
Es	-0.601264	-1.826579	1.107816	99
Es	-0.394334	-2.141591	0.469544	99
Es	-0.818749	1.071969	-0.110923	99
Es	1.154121	0.101179	-0.660525	99
Es	-1.529659	1.067608	0.010772	99
Es	-0.167221	0.150191	-0.355515	99
Es	0.332854	-2.277944	0.484712	99
39
Properties=species:S:1:pos:R:3:Z:I:1 energy=-338.73650187505035 field_type=dipole dipole="0.000000 0.000000 0.000000" charge=0
C	-0.394259	-2.141734	0.469732	6
O	-0.736219	-1.311594	-0.632258	8
N	-0.153579	-0.067124	-0.437478	7
C	-0.818759	1.072196	-0.110888	6
C	0.134711	2.063676	-0.090718	6
C	1.333261	1.406996	-0.441108	6
N	1.154591	0.100766	-0.660708	7
H	-0.926909	-3.090534	0.356992	1
H	-0.703859	-1.688064	1.417522	1
H	0.679621	-2.355264	0.482602	1
H	-1.882999	1.072616	0.067032	1
H	-0.011319	3.110936	0.129642	1
H	2.325721	1.827126	-0.550368	1
Es	-0.600821	-1.826863	1.106870	99
Es	0.039000	2.771905	0.057284	99
Es	-0.016976	1.658302	-0.173098	99
Es	-0.170695	0.152461	-0.368089	99
Es	2.002060	1.701947	-0.512393	99
Es	-0.594129	-1.415616	-0.853250	99
Es	-0.818746	1.071967	-0.110925	99
Es	-0.736041	-1.311440	-0.631871	99
Es	0.756658	1.779656	-0.262920	99
Es	1.222525	0.615252	-0.300405	99
Es	-1.529544	1.067423	0.011131	99
Es	-0.481388	0.398390	-0.300027	99
Es	-1.063740	-1.270179	-0.615999	99
Es	-0.765478	-2.783919	0.387499	99
Es	1.333274	1.406925	-0.441124	99
Es	1.125483	0.716199	-0.807908	99
Es	0.134700	2.063696	-0.090717	99
Es	-0.153598	-0.067302	-0.437580	99
Es	-0.577152	-1.586498	-0.223935	99
Es	-0.394336	-2.141593	0.469544	99
Es	0.468710	-0.002340	-0.546735	99
Es	0.332938	-2.277383	0.484842	99
Es	1.154117	0.101169	-0.660525	99
Es	-0.382227	1.586192	-0.051238	99
Es	1.373929	-0.183912	-0.751736	99
Es	-0.450045	-0.740324	-0.521396	99
39
Properties=species:S:1:pos:R:3:Z:I:1 energy=-338.73650187505035 field_type=dipole dipole="0.000000 0.000000 0.000000" charge=0
C	-0.394259	-2.141734	0.469732	6
O	-0.736219	-1.311594	-0.632258	8
N	-0.153579	-0.067124	-0.437478	7
C	-0.818759	1.072196	-0.110888	6
C	0.134711	2.063676	-0.090718	6
C	1.333261	1.406996	-0.441108	6
N	1.154591	0.100766	-0.660708	7
H	-0.926909	-3.090534	0.356992	1
H	-0.703859	-1.688064	1.417522	1
H	0.679621	-2.355264	0.482602	1
H	-1.882999	1.072616	0.067032	1
H	-0.011319	3.110936	0.129642	1
H	2.325721	1.827126	-0.550368	1
Es	-0.394335	-2.141594	0.469546	99
Es	1.218229	0.614243	-0.301219	99
Es	1.374899	-0.183631	-0.750896	99
Es	-0.766001	-2.784023	0.387766	99
Es	-0.013657	1.658591	-0.168741	99
Es	1.154116	0.101183	-0.660526	99
Es	0.468584	-0.002709	-0.547139	99
Es	-0.383033	1.586748	-0.054770	99
Es	0.134703	2.063692	-0.090703	99
Es	-0.736067	-1.311466	-0.631932	99
Es	-0.575085	-1.582686	-0.229026	99
Es	-0.593463	-1.414958	-0.850340	99
Es	2.002118	1.702059	-0.512478	99
Es	0.039080	2.772077	0.056833	99
Es	-0.480893	0.397742	-0.296607	99
Es	-0.449812	-0.740104	-0.521574	99
Es	1.127314	0.716657	-0.807191	99
Es	0.333131	-2.276886	0.485088	99
Es	0.756095	1.779800	-0.263937	99
Es	-0.153579	-0.067324	-0.437492	99
Es	-1.066649	-1.274935	-0.613026	99
Es	-0.600530	-1.827203	1.105868	99
Es	1.333275	1.406925	-0.441119	99
Es	-1.529443	1.067299	0.011048	99
Es	-0.818745	1.071967	-0.110920	99
Es	-0.171775	0.152657	-0.371214	99
39
Properties=species:S:1:pos:R:3:Z:I:1 energy=-338.73650187505035 field_type=dipole dipole="0.000000 0.000000 0.000000" charge=0
C	-0.394259	-2.141734	0.469732	6
O	-0.736219	-1.311594	-0.632258	8
N	-0.153579	-0.067124	-0.437478	7
C	-0.818759	1.072196	-0.110888	6
C	0.134711	2.063676	-0.090718	6
C	1.333261	1.406996	-0.441108	6
N	1.154591	0.100766	-0.660708	7
H	-0.926909	-3.090534	0.356992	1
H	-0.703859	-1.688064	1.417522	1
H	0.679621	-2.355264	0.482602	1
H	-1.882999	1.072616	0.067032	1
H	-0.011319	3.110936	0.129642	1
H	2.325721	1.827126	-0.550368	1
Es	-0.573758	-1.580992	-0.232427	99
Es	-1.529380	1.067210	0.011078	99
Es	0.134705	2.063690	-0.090691	99
Es	0.468635	-0.003024	-0.546310	99
Es	-0.600198	-1.827432	1.105132	99
Es	-0.153587	-0.067317	-0.437540	99
Es	1.375685	-0.183490	-0.750403	99
Es	-0.173357	0.153599	-0.376974	99
Es	-0.385162	1.588420	-0.063830	99
Es	-0.766454	-2.784057	0.388040	99
Es	-0.818746	1.071967	-0.110922	99
Es	1.131212	0.717536	-0.805582	99
Es	0.333276	-2.276516	0.485075	99
Es	1.154120	0.101183	-0.660521	99
Es	1.333274	1.406926	-0.441125	99
Es	1.212236	0.612626	-0.302655	99
Es	-0.480094	0.396737	-0.291418	99
Es	-0.009298	1.657731	-0.158798	99
Es	-1.067985	-1.277492	-0.610441	99
Es	0.755497	1.779894	-0.265549	99
Es	-0.736053	-1.311449	-0.631889	99
Es	-0.594205	-1.414121	-0.848830	99
Es	2.002191	1.702171	-0.512652	99
Es	0.039340	2.772158	0.056770	99
Es	-0.449081	-0.740250	-0.521777	99
Es	-0.394335	-2.141590	0.469541	99
39
Properties=species:S:1:pos:R:3:Z:I:1 energy=-338.73650187505035 field_type=dipole dipole="0.000000 0.000000 0.000000" charge=0
C	-0.394259	-2.141734	0.469732	6
O	-0.736219	-1.311594	-0.632258	8
N	-0.153579	-0.067124	-0.437478	7
C	-0.818759	1.072196	-0.110888	6
C	0.134711	2.063676	-0.090718	6
C	1.333261	1.406996	-0.441108	6
N	1.154591	0.100766	-0.660708	7
H	-0.926909	-3.090534	0.356992	1
H	-0.703859	-1.688064	1.417522	1
H	0.679621	-2.355264	0.482602	1
H	-1.882999	1.072616	0.067032	1
H	-0.011319	3.110936	0.129642	1
H	2.325721	1.827126	-0.550368	1
Es	0.039450	2.772282	0.056460	99
Es	-0.449334	-0.740016	-0.521576	99
Es	-0.385877	1.589015	-0.066982	99
Es	1.376030	-0.183316	-0.749890	99
Es	1.135023	0.718088	-0.803733	99
Es	0.755278	1.779787	-0.265565	99
Es	2.002229	1.702224	-0.512648	99
Es	-0.591267	-1.416551	-0.848213	99
Es	-0.394336	-2.141590	0.469544	99
Es	-0.575132	-1.573744	-0.237090	99
Es	-0.766728	-2.784141	0.388171	99
Es	0.333317	-2.276179	0.485307	99
Es	-1.529343	1.067169	0.010983	99
Es	-0.006743	1.658162	-0.155739	99
Es	0.468672	-0.003332	-0.545907	99
Es	-0.480563	0.397281	-0.294492	99
Es	1.154117	0.101186	-0.660531	99
Es	1.333273	1.406926	-0.441127	99
Es	-0.173473	0.153051	-0.374522	99
Es	1.206811	0.611208	-0.304609	99
Es	-0.735946	-1.311464	-0.631904	99
Es	-0.599780	-1.828276	1.104296	99
Es	-1.069584	-1.281987	-0.605832	99
Es	-0.153574	-0.067323	-0.437473	99
Es	0.134702	2.063693	-0.090707	99
Es	-0.818746	1.071967	-0.110922	99
39
Properties=species:S:1:pos:R:3:Z:I:1 energy=-338.73650187505035 field_type=dipole dipole="0.000000 0.000000 0.000000" charge=0
C	-0.394259	-2.141734	0.469732	6
O	-0.736219	-1.311594	-0.632258	8
N	-0.153579	-0.067124	-0.437478	7
C	-0.818759	1.072196	-0.110888	6
C	0.134711	2.063676	-0.090718	6
C	1.333261	1.406996	-0.441108	6
N	1.154591	0.100766	-0.660708	7
H	-0.926909	-3.090534	0.356992	1
H	-0.703859	-1.688064	1.417522	1
H	0.679621	-2.355264	0.482602	1
H	-1.882999	1.072616	0.067032	1
H	-0.011319	3.110936	0.129642	1
H	2.325721	1.827126	-0.550368	1
Es	-0.394334	-2.141594	0.469543	99
Es	0.134699	2.063696	-0.090721	99
Es	-0.480790	0.397347	-0.295360	99
Es	-0.004534	1.658674	-0.153707	99
Es	1.140096	0.718508	-0.800218	99
Es	-0.766960	-2.784133	0.388313	99
Es	-0.153572	-0.067325	-0.437447	99
Es	-0.818746	1.071967	-0.110922	99
Es	-0.386357	1.589391	-0.069173	99
Es	-0.573871	-1.573319	-0.240019	99
Es	0.333473	-2.275894	0.485376	99
Es	0.039673	2.772307	0.056454	99
Es	-0.173922	0.152993	-0.373635	99
Es	2.002253	1.702273	-0.512667	99
Es	-1.529292	1.067146	0.010953	99
Es	-0.448869	-0.740170	-0.521719	99
Es	0.755016	1.779755	-0.265593	99
Es	-0.736037	-1.311462	-0.631849	99
Es	-0.592009	-1.415084	-0.846510	99
Es	1.154116	0.101188	-0.660523	99
Es	1.376337	-0.183171	-0.749641	99
Es	-1.070415	-1.284060	-0.604343	99
Es	1.200420	0.609782	-0.308077	99
Es	0.468623	-0.003398	-0.545914	99
Es	1.333274	1.406926	-0.441129	99
Es	-0.599793	-1.828227	1.103828	99
39
Properties=species:S:1:pos:R:3:Z:I:1 energy=-338.73650187505035 field_type=dipole dipole="0.000000 0.000000 0.000000" charge=0
C	-0.394259	-2.141734	0.469732	6
O	-0.736219	-1.311594	-0.632258	8
N	-0.153579	-0.067124	-0.437478	7
C	-0.818759	1.072196	-0.110888	6
C	0.134711	2.063676	-0.090718	6
C	1.333261	1.406996	-0.441108	6
N	1.154591	0.100766	-0.660708	7
H	-0.926909	-3.090534	0.356992	1
H	-0.703859	-1.688064	1.417522	1
H	0.679621	-2.355264	0.482602	1
H	-1.882999	1.072616	0.067032	1
H	-0.011319	3.110936	0.129642	1
H	2.325721	1.827126	-0.550368	1
Es	-0.736016	-1.311448	-0.631872	99
Es	0.754856	1.779772	-0.266233	99
Es	-0.818747	1.071968	-0.110925	99
Es	-0.599749	-1.828493	1.103495	99
Es	-0.767057	-2.784130	0.388347	99
Es	-0.153574	-0.067329	-0.437453	99
Es	-0.449063	-0.740025	-0.521928	99
Es	-1.529332	1.067083	0.010751	99
Es	1.154117	0.101181	-0.660527	99
Es	-0.174455	0.152960	-0.371428	99
Es	0.333586	-2.275696	0.485515	99
Es	1.149928	0.718852	-0.791751	99
Es	0.134709	2.063679	-0.090662	99
Es	-0.387138	1.590096	-0.072919	99
Es	1.189843	0.608242	-0.316421	99
Es	1.333274	1.406926	-0.441125	99
Es	-1.070726	-1.285318	-0.603903	99
Es	-0.394334	-2.141599	0.469555	99
Es	-0.574353	-1.571692	-0.240827	99
Es	-0.481107	0.397908	-0.297659	99
Es	2.002290	1.702338	-0.512413	99
Es	-0.001784	1.658798	-0.149918	99
Es	0.468693	-0.003732	-0.545625	99
Es	0.039761	2.772285	0.056606	99
Es	-0.591186	-1.415509	-0.845943	99
Es	1.376041	-0.183000	-0.749438	99
39
Properties=species:S:1:pos:R:3:Z:I:1 energy=-338.73650187505035 field_type=dipole dipole="0.000000 0.000000 0.000000" charge=0
C	-0.394259	-2.141734	0.469732	6
O	-0.736219	-1.311594	-0.632258	8
N	-0.153579	-0.067124	-0.437478	7
C	-0.818759	1.072196	-0.110888	6
C	0.134711	2.063676	-0.090718	6
C	1.333261	1.406996	-0.441108	6
N	1.154591	0.100766	-0.660708	7
H	-0.926909	-3.090534	0.356992	1
H	-0.703859	-1.688064	1.417522	1
H	0.679621	-2.355264	0.482602	1
H	-1.882999	1.072616	0.067032	1
H	-0.011319	3.110936	0.129642	1
H	2.325721	1.827126	-0.550368	1
Es	1.333274	1.406927	-0.441129	99
Es	1.376315	-0.182867	-0.747680	99
Es	2.002236	1.702473	-0.512521	99
Es	-0.767296	-2.784142	0.388788	99
Es	-0.481841	0.398765	-0.302397	99
Es	-0.736092	-1.311496	-0.631976	99
Es	0.039737	2.772516	0.055785	99
Es	0.134700	2.063696	-0.090716	99
Es	-0.153588	-0.067315	-0.437529	99
Es	-0.173805	0.151911	-0.367784	99
Es	1.154127	0.101184	-0.660526	99
Es	-0.387288	1.590267	-0.073981	99
Es	1.191804	0.608183	-0.313862	99
Es	-0.818747	1.071968	-0.110927	99
Es	1.146710	0.718920	-0.795447	99
Es	-0.000730	1.659194	-0.148761	99
Es	0.754756	1.779615	-0.266058	99
Es	-0.590704	-1.553401	-0.242228	99
Es	-0.573769	-1.430469	-0.839844	99
Es	0.468915	-0.004421	-0.544501	99
Es	-1.071586	-1.287641	-0.607878	99
Es	-0.394334	-2.141599	0.469554	99
Es	-0.599065	-1.829875	1.102174	99
Es	-0.449568	-0.739755	-0.521532	99
Es	0.333612	-2.275621	0.485830	99
Es	-1.529295	1.067104	0.010445	99
39
Properties=species:S:1:pos:R:3:Z:I:1 energy=-338.73650187505035 field_type=dipole dipole="0.000000 0.000000 0.000000" charge=0
C	-0.394259	-2.141734	0.469732	6
O	-0.736219	-1.311594	-0.632258	8
N	-0.153579	-0.067124	-0.437478	7
C	-0.818759	1.072196	-0.110888	6
C	0.134711	2.063676	-0.090718	6
C	1.333261	1.406996	-0.441108	6
N	1.154591	0.100766	-0.660708	7
H	-0.926909	-3.090534	0.356992	1
H	-0.703859	-1.688064	1.417522	1
H	0.679621	-2.355264	0.482602	1
H	-1.882999	1.072616	0.067032	1
H	-0.011319	3.110936	0.129642	1
H	2.325721	1.827126	-0.550368	1
Es	-0.767184	-2.784188	0.388581	99
Es	-1.529310	1.067025	0.010477	99
Es	1.158197	0.718257	-0.781849	99
Es	0.134696	2.063697	-0.090737	99
Es	1.333274	1.406927	-0.441129	99
Es	-0.387551	1.590477	-0.075039	99
Es	-0.818748	1.071970	-0.110925	99
Es	1.375891	-0.182480	-0.748534	99
Es	-0.583072	-1.560744	-0.242188	99
Es	-0.449081	-0.739957	-0.521979	99
Es	0.039933	2.772406	0.056346	99
Es	-0.736009	-1.311457	-0.631899	99
Es	0.333576	-2.275567	0.485707	99
Es	-0.394334	-2.141598	0.469550	99
Es	-0.174242	0.151877	-0.364145	99
Es	0.000985	1.659732	-0.148502	99
Es	-1.071360	-1.287405	-0.604054	99
Es	0.468789	-0.004364	-0.545119	99
Es	-0.599269	-1.829506	1.102621	99
Es	-0.582145	-1.423523	-0.843751	99
Es	-0.153575	-0.067326	-0.437466	99
Es	1.180122	0.607449	-0.326694	99
Es	2.002281	1.702464	-0.512311	99
Es	1.154117	0.101184	-0.660531	99
Es	0.754817	1.779534	-0.265652	99
Es	-0.482322	0.399234	-0.305480	99
39
Properties=species:S:1:pos:R:3:Z:I:1 energy=-338.73650187505035 field_type=dipole dipole="0.000000 0.000000 0.000000" charge=0
C	-0.394259	-2.141734	0.469732	6
O	-0.736219	-1.311594	-0.632258	8
N	-0.153579	-0.067124	-0.437478	7
C	-0.818759	1.072196	-0.110888	6
C	0.134711	2.063676	-0.090718	6
C	1.333261	1.406996	-0.441108	6
N	1.154591	0.100766	-0.660708	7
H	-0.926909	-3.090534	0.356992	1
H	-0.703859	-1.688064	1.417522	1
H	0.679621	-2.355264	0.482602	1
H	-1.882999	1.072616	0.067032	1
H	-0.011319	3.110936	0.129642	1
H	2.325721	1.827126	-0.550368	1
Es	1.333274	1.406926	-0.441125	99
Es	-0.767136	-2.784180	0.388274	99
Es	-0.448420	-0.740270	-0.522804	99
Es	-1.071077	-1.287066	-0.598970	99
Es	-0.386902	1.589847	-0.071633	99
Es	-1.529295	1.066889	0.010855	99
Es	0.040129	2.772191	0.057272	99
Es	1.164205	0.717725	-0.773180	99
Es	-0.176615	0.154099	-0.374734	99
Es	-0.600104	-1.827487	1.103608	99
Es	0.754678	1.779599	-0.266160	99
Es	1.174804	0.607651	-0.334639	99
Es	0.468239	-0.003819	-0.547587	99
Es	1.154110	0.101183	-0.660523	99
Es	-0.607093	-1.401661	-0.840914	99
Es	0.001128	1.660062	-0.151715	99
Es	-0.153614	-0.067272	-0.437672	99
Es	-0.394334	-2.141596	0.469550	99
Es	-0.818745	1.071966	-0.110923	99
Es	0.134701	2.063695	-0.090712	99
Es	0.333601	-2.275429	0.485410	99
Es	-0.480199	0.396857	-0.292114	99
Es	1.375302	-0.182131	-0.749937	99
Es	2.002320	1.702486	-0.512225	99
Es	-0.558427	-1.584632	-0.250194	99
Es	-0.736053	-1.311516	-0.631908	99
39
Properties=species:S:1:pos:R:3:Z:I:1 energy=-338.73650187505035 field_type=dipole dipole="0.000000 0.000000 0.000000" charge=0
C	-0.394259	-2.141734	0.469732	6
O	-0.736219	-1.311594	-0.632258	8
N	-0.153579	-0.067124	-0.437478	7
C	-0.818759	1.072196	-0.110888	6
C	0.134711	2.063676	-0.090718	6
C	1.333261	1.406996	-0.441108	6
N	1.154591	0.100766	-0.660708	7
H	-0.926909	-3.090534	0.356992	1
H	-0.703859	-1.688064	1.417522	1
H	0.679621	-2.355264	0.482602	1
H	-1.882999	1.072616	0.067032	1
H	-0.011319	3.110936	0.129642	1
H	2.325721	1.827126	-0.550368	1
Es	-0.153577	-0.067326	-0.437474	99
Es	-0.598866	-1.830297	1.101498	99
Es	-1.072045	-1.289983	-0.605294	99
Es	1.333274	1.406926	-0.441126	99
Es	-1.529291	1.067027	0.010254	99
Es	-0.482387	0.399338	-0.305862	99
Es	1.157060	0.718468	-0.783921	99
Es	-0.449360	-0.739788	-0.521686	99
Es	1.154116	0.101185	-0.660527	99
Es	0.134700	2.063696	-0.090720	99
Es	0.333606	-2.275341	0.486077	99
Es	0.003254	1.660272	-0.146948	99
Es	-0.570607	-1.433441	-0.837247	99
Es	0.040002	2.772572	0.055560	99
Es	-0.818746	1.071968	-0.110924	99
Es	-0.767439	-2.784233	0.388948	99
Es	-0.593733	-1.547844	-0.247021	99
Es	1.179591	0.606671	-0.325927	99
Es	-0.387808	1.590699	-0.076391	99
Es	2.002247	1.702616	-0.512337	99
Es	-0.175198	0.152264	-0.365818	99
Es	-0.736050	-1.311491	-0.631876	99
Es	0.754635	1.779412	-0.265798	99
Es	0.469244	-0.005174	-0.542893	99
Es	-0.394336	-2.141591	0.469544	99
Es	1.376194	-0.182486	-0.746792	99
39
Properties=species:S:1:pos:R:3:Z:I:1 energy=-338.73650187505035 field_type=dipole dipole="0.000000 0.000000 0.000000" charge=0
C	-0.394259	-2.141734	0.469732	6
O	-0.736219	-1.311594	-0.632258	8
N	-0.153579	-0.067124	-0.437478	7
C	-0.818759	1.072196	-0.110888	6
C	0.134711	2.063676	-0.090718	6
C	1.333261	1.406996	-0.441108	6
N	1.154591	0.100766	-0.660708	7
H	-0.926909	-3.090534	0.356992	1
H	-0.703859	-1.688064	1.417522	1
H	0.679621	-2.355264	0.482602	1
H	-1.882999	1.072616	0.067032	1
H	-0.011319	3.110936	0.129642	1
H	2.325721	1.827126	-0.550368	1
Es	0.134701	2.063695	-0.090715	99
Es	-1.072004	-1.289060	-0.605519	99
Es	1.375870	-0.182267	-0.746958	99
Es	-0.591008	-1.551593	-0.245381	99
Es	0.754606	1.779407	-0.265754	99
Es	-0.448941	-0.740031	-0.521883	99
Es	2.002276	1.702637	-0.512274	99
Es	0.333622	-2.275295	0.486073	99
Es	-0.153568	-0.067335	-0.437416	99
Es	1.154118	0.101184	-0.660528	99
Es	-0.573740	-1.430680	-0.838945	99
Es	1.164107	0.717696	-0.774002	99
Es	-1.529330	1.066979	0.010188	99
Es	-0.394335	-2.141598	0.469555	99
Es	0.004903	1.660597	-0.145789	99
Es	-0.482553	0.399649	-0.307400	99
Es	-0.388096	1.590942	-0.077883	99
Es	0.469034	-0.005101	-0.543757	99
Es	-0.175621	0.152338	-0.363257	99
Es	1.333275	1.406926	-0.441124	99
Es	0.040075	2.772499	0.055953	99
Es	-0.767388	-2.784253	0.388918	99
Es	-0.599035	-1.830007	1.101759	99
Es	1.172305	0.606292	-0.335866	99
Es	-0.736049	-1.311471	-0.631768	99
Es	-0.818748	1.071968	-0.110924	99
39
Properties=species:S:1:pos:R:3:Z:I:1 energy=-338.73650187505035 field_type=dipole dipole="0.000000 0.000000 0.000000" charge=0
C	-0.394259	-2.141734	0.469732	6
O	-0.736219	-1.311594	-0.632258	8
N	-0.153579	-0.067124	-0.437478	7
C	-0.818759	1.072196	-0.110888	6
C	0.134711	2.063676	-0.090718	6
C	1.333261	1.406996	-0.441108	6
N	1.154591	0.100766	-0.660708	7
H	-0.926909	-3.090534	0.356992	1
H	-0.703859	-1.688064	1.417522	1
H	0.679621	-2.355264	0.482602	1
H	-1.882999	1.072616	0.067032	1
H	-0.011319	3.110936	0.129642	1
H	2.325721	1.827126	-0.550368	1
Es	-0.394334	-2.141597	0.469548	99
Es	-0.543465	-1.594057	-0.265980	99
Es	-0.735936	-1.311474	-0.631760	99
Es	-0.600023	-1.827475	1.103624	99
Es	1.154115	0.101176	-0.660529	99
Es	0.754686	1.779513	-0.265915	99
Es	-0.153638	-0.067227	-0.437794	99
Es	-0.767162	-2.784254	0.388189	99
Es	1.167315	0.717366	-0.768464	99
Es	-1.529280	1.066721	0.011119	99
Es	1.374500	-0.181571	-0.750818	99
Es	-0.447373	-0.740728	-0.523477	99
Es	-0.178847	0.155589	-0.381741	99
Es	-0.478680	0.395197	-0.283493	99
Es	-1.070773	-1.288009	-0.591765	99
Es	-0.385921	1.588900	-0.067250	99
Es	0.134702	2.063694	-0.090709	99
Es	0.001833	1.660956	-0.156378	99
Es	1.333274	1.406925	-0.441122	99
Es	-0.818746	1.071968	-0.110922	99
Es	2.002321	1.702626	-0.512146	99
Es	0.467933	-0.003721	-0.549174	99
Es	0.333455	-2.275382	0.485444	99
Es	0.040426	2.772122	0.057535	99
Es	1.171599	0.607694	-0.338862	99
Es	-0.623506	-1.390833	-0.831859	99
39
Properties=species:S:1:pos:R:3:Z:I:1 energy=-338.73650187505035 field_type=dipole dipole="0.000000 0.000000 0.000000" charge=0
C	-0.394259	-2.141734	0.469732	6
O	-0.736219	-1.311594	-0.632258	8
N	-0.153579	-0.067124	-0.437478	7
C	-0.818759	1.072196	-0.110888	6
C	0.134711	2.063676	-0.090718	6
C	1.333261	1.406996	-0.441108	6
N	1.154591	0.100766	-0.660708	7
H	-0.926909	-3.090534	0.356992	1
H	-0.703859	-1.688064	1.417522	1
H	0.679621	-2.355264	0.482602	1
H	-1.882999	1.072616	0.067032	1
H	-0.011319	3.110936	0.129642	1
H	2.325721	1.827126	-0.550368	1
Es	1.175404	0.715681	-0.754482	99
Es	-0.598543	-1.408571	-0.842940	99
Es	1.333274	1.406926	-0.441124	99
Es	-0.767409	-2.784197	0.388579	99
Es	-0.153573	-0.067330	-0.437449	99
Es	1.375004	-0.181938	-0.748872	99
Es	-0.387597	1.590452	-0.075012	99
Es	-0.394335	-2.141592	0.469540	99
Es	2.002352	1.702590	-0.512049	99
Es	0.134701	2.063695	-0.090712	99
Es	0.333671	-2.275183	0.485635	99
Es	-0.448100	-0.740376	-0.522610	99
Es	-0.177363	0.154026	-0.371437	99
Es	-1.071569	-1.288284	-0.600307	99
Es	0.754588	1.779326	-0.265326	99
Es	-0.736050	-1.311482	-0.631942	99
Es	1.154107	0.101184	-0.660526	99
Es	-0.599553	-1.828693	1.102673	99
Es	0.040314	2.772281	0.056902	99
Es	-0.818746	1.071967	-0.110921	99
Es	0.468464	-0.004332	-0.546384	99
Es	1.161867	0.607681	-0.354389	99
Es	-1.529285	1.066844	0.010653	99
Es	-0.567163	-1.575483	-0.246371	99
Es	-0.480970	0.397694	-0.296598	99
Es	0.004986	1.661231	-0.149232	99
39
Properties=species:S:1:pos:R:3:Z:I:1 energy=-338.73650187505035 field_type=dipole dipole="0.000000 0.000000 0.000000" charge=0
C	-0.394259	-2.141734	0.469732	6
O	-0.736219	-1.311594	-0.632258	8
N	-0.153579	-0.067124	-0.437478	7
C	-0.818759	1.072196	-0.110888	6
C	0.134711	2.063676	-0.090718	6
C	1.333261	1.406996	-0.441108	6
N	1.154591	0.100766	-0.660708	7
H	-0.926909	-3.090534	0.356992	1
H	-0.703859	-1.688064	1.417522	1
H	0.679621	-2.355264	0.482602	1
H	-1.882999	1.072616	0.067032	1
H	-0.011319	3.110936	0.129642	1
H	2.325721	1.827126	-0.550368	1
Es	-0.598256	-1.830756	1.100602	99
Es	-0.175894	0.152338	-0.374673	99
Es	0.333260	-2.275379	0.486266	99
Es	-0.767623	-2.784392	0.389607	99
Es	0.468444	-0.004411	-0.545950	99
Es	1.090255	0.690264	-0.751020	99
Es	-0.818745	1.071967	-0.110920	99
Es	-1.071267	-1.289943	-0.597691	99
Es	-0.382067	1.585787	-0.051505	99
Es	-0.586878	-1.552155	-0.247302	99
Es	-1.528893	1.066603	0.011994	99
Es	1.333273	1.406927	-0.441130	99
Es	1.246420	0.636228	-0.358684	99
Es	1.375676	-0.181926	-0.747374	99
Es	-0.448339	-0.740092	-0.522064	99
Es	-0.153563	-0.067340	-0.437357	99
Es	0.753209	1.780152	-0.270385	99
Es	-0.394334	-2.141597	0.469551	99
Es	2.001778	1.703132	-0.514354	99
Es	-0.736069	-1.311476	-0.631916	99
Es	0.134698	2.063697	-0.090724	99
Es	-0.001154	1.663772	-0.166442	99
Es	-0.579005	-1.428449	-0.842552	99
Es	-0.480536	0.397111	-0.293867	99
Es	1.154118	0.101182	-0.660526	99
Es	0.039969	2.772875	0.053716	99
