41
Properties=species:S:1:pos:R:3:Z:I:1 energy=-359.71559471914475 field_type=dipole dipole="0.000000 0.000000 0.000000" charge=0
C	-1.569903	-2.414318	-0.362537	6
O	-0.268143	-1.840148	-0.381577	8
N	-0.397163	-0.444638	-0.315467	7
C	0.782217	0.077802	-0.344857	6
C	0.881896	1.542642	-0.291817	6
C	0.842297	2.259302	1.031093	6
O	2.077256	2.027852	0.342773	8
H	-1.469053	-3.501198	-0.421037	1
H	-2.149893	-2.066998	-1.223057	1
H	-2.083833	-2.156858	0.568553	1
H	1.711806	-0.512828	-0.412617	1
H	0.534457	2.073412	-1.169077	1
H	0.647216	1.683792	1.927663	1
H	0.460846	3.272182	1.051963	1
Es	-0.772965	-2.032803	-0.372929	99
Es	-1.569684	-2.414235	-0.362541	99
Es	0.882162	1.542700	-0.291656	99
Es	0.782212	0.077852	-0.344870	99
Es	-0.745760	-0.297031	-0.293515	99
Es	-0.124012	-1.911061	-0.118441	99
Es	2.076931	2.027817	0.342752	99
Es	0.720327	1.871440	1.641247	99
Es	0.656140	1.893059	-0.888569	99
Es	0.836055	0.803922	-0.319055	99
Es	0.622640	1.855385	0.366631	99
Es	1.665062	2.166596	0.688335	99
Es	-1.925204	-2.238461	0.272789	99
Es	-1.969993	-2.177316	-0.949218	99
Es	-1.495143	-3.152572	-0.402327	99
Es	-0.268476	-1.839979	-0.381510	99
Es	1.399659	-0.309729	-0.389908	99
Es	0.591816	2.949991	1.046933	99
Es	2.171398	2.288979	0.208430	99
Es	0.842544	2.259231	1.030905	99
Es	-0.335747	-1.225801	-0.353198	99
Es	-0.141182	-1.889355	-0.659021	99
Es	1.680128	1.811155	0.013770	99
Es	2.215661	1.782594	0.470692	99
Es	-0.396603	-0.444939	-0.315514	99
Es	0.136919	-0.226197	-0.037880	99
Es	0.111765	-0.198547	-0.619181	99
41
Properties=species:S:1:pos:R:3:Z:I:1 energy=-359.71559471914475 field_type=dipole dipole="0.000000 0.000000 0.000000" charge=0
C	-1.569903	-2.414318	-0.362537	6
O	-0.268143	-1.840148	-0.381577	8
N	-0.397163	-0.444638	-0.315467	7
C	0.782217	0.077802	-0.344857	6
C	0.881896	1.542642	-0.291817	6
C	0.842297	2.259302	1.031093	6
O	2.077256	2.027852	0.342773	8
H	-1.469053	-3.501198	-0.421037	1
H	-2.149893	-2.066998	-1.223057	1
H	-2.083833	-2.156858	0.568553	1
H	1.711806	-0.512828	-0.412617	1
H	0.534457	2.073412	-1.169077	1
H	0.647216	1.683792	1.927663	1
H	0.460846	3.272182	1.051963	1
Es	0.842557	2.259233	1.030904	99
Es	0.619565	1.855281	0.364466	99
Es	-1.569681	-2.414236	-0.362541	99
Es	1.399173	-0.309492	-0.389833	99
Es	-1.969032	-2.177846	-0.948007	99
Es	0.592507	2.949440	1.048364	99
Es	0.782217	0.077853	-0.344855	99
Es	1.669207	2.165959	0.690422	99
Es	0.835552	0.803410	-0.317786	99
Es	0.657085	1.892087	-0.886867	99
Es	0.720839	1.872491	1.639724	99
Es	-0.129316	-1.891811	-0.654711	99
Es	-0.775383	-2.035849	-0.376121	99
Es	2.076886	2.027784	0.342796	99
Es	-1.495793	-3.152817	-0.403177	99
Es	-0.745628	-0.295972	-0.295646	99
Es	2.186301	2.289596	0.208695	99
Es	-0.135581	-1.905192	-0.124504	99
Es	0.112511	-0.199255	-0.618335	99
Es	0.882159	1.542698	-0.291656	99
Es	-0.396607	-0.444913	-0.315510	99
Es	0.137411	-0.226911	-0.037655	99
Es	-0.334497	-1.225637	-0.349183	99
Es	-0.268505	-1.839959	-0.381448	99
Es	1.679426	1.806084	0.013182	99
Es	-1.926147	-2.238130	0.272527	99
Es	2.199427	1.788796	0.469905	99
41
Properties=species:S:1:pos:R:3:Z:I:1 energy=-359.71559471914475 field_type=dipole dipole="0.000000 0.000000 0.000000" charge=0
C	-1.569903	-2.414318	-0.362537	6
O	-0.268143	-1.840148	-0.381577	8
N	-0.397163	-0.444638	-0.315467	7
C	0.782217	0.077802	-0.344857	6
C	0.881896	1.542642	-0.291817	6
C	0.842297	2.259302	1.031093	6
O	2.077256	2.027852	0.342773	8
H	-1.469053	-3.501198	-0.421037	1
H	-2.149893	-2.066998	-1.223057	1
H	-2.083833	-2.156858	0.568553	1
H	1.711806	-0.512828	-0.412617	1
H	0.534457	2.073412	-1.169077	1
H	0.647216	1.683792	1.927663	1
H	0.460846	3.272182	1.051963	1
Es	0.834913	0.802920	-0.317293	99
Es	-0.144887	-1.900852	-0.128509	99
Es	2.076878	2.027873	0.342750	99
Es	2.184023	1.793937	0.468301	99
Es	0.657708	1.891527	-0.885262	99
Es	-0.333483	-1.225432	-0.346975	99
Es	0.617498	1.854716	0.363040	99
Es	-1.968232	-2.178073	-0.947038	99
Es	-1.569681	-2.414235	-0.362541	99
Es	1.672240	2.165518	0.691138	99
Es	1.398929	-0.309331	-0.389557	99
Es	0.592834	2.948924	1.049149	99
Es	-0.120815	-1.894792	-0.650678	99
Es	1.678630	1.803503	0.012761	99
Es	0.137777	-0.227313	-0.037546	99
Es	-0.268487	-1.839964	-0.381532	99
Es	2.200783	2.288246	0.210806	99
Es	-0.776459	-2.037099	-0.378693	99
Es	0.882156	1.542697	-0.291653	99
Es	-0.745271	-0.295143	-0.297103	99
Es	0.782217	0.077854	-0.344851	99
Es	-1.496282	-3.153005	-0.403970	99
Es	-1.926806	-2.237910	0.272345	99
Es	0.842560	2.259231	1.030905	99
Es	-0.396644	-0.444950	-0.315513	99
Es	0.112963	-0.199852	-0.617834	99
Es	0.721591	1.873699	1.638502	99
41
Properties=species:S:1:pos:R:3:Z:I:1 energy=-359.71559471914475 field_type=dipole dipole="0.000000 0.000000 0.000000" charge=0
C	-1.569903	-2.414318	-0.362537	6
O	-0.268143	-1.840148	-0.381577	8
N	-0.397163	-0.444638	-0.315467	7
C	0.782217	0.077802	-0.344857	6
C	0.881896	1.542642	-0.291817	6
C	0.842297	2.259302	1.031093	6
O	2.077256	2.027852	0.342773	8
H	-1.469053	-3.501198	-0.421037	1
H	-2.149893	-2.066998	-1.223057	1
H	-2.083833	-2.156858	0.568553	1
H	1.711806	-0.512828	-0.412617	1
H	0.534457	2.073412	-1.169077	1
H	0.647216	1.683792	1.927663	1
H	0.460846	3.272182	1.051963	1
Es	-1.927182	-2.237742	0.272141	99
Es	0.113747	-0.200814	-0.616619	99
Es	0.137690	-0.227288	-0.037412	99
Es	2.214462	2.284670	0.214073	99
Es	0.616034	1.854400	0.362389	99
Es	-0.332364	-1.225613	-0.342328	99
Es	2.169751	1.799163	0.466596	99
Es	-0.396618	-0.444872	-0.315510	99
Es	-0.121372	-1.892887	-0.650579	99
Es	0.722096	1.874394	1.637327	99
Es	2.076878	2.027858	0.342759	99
Es	0.592951	2.948685	1.049864	99
Es	-1.496636	-3.153128	-0.404415	99
Es	-0.776897	-2.037890	-0.378857	99
Es	-0.268354	-1.840059	-0.381580	99
Es	1.678688	1.801997	0.011989	99
Es	1.673577	2.165890	0.690801	99
Es	0.782219	0.077854	-0.344849	99
Es	-1.569680	-2.414231	-0.362542	99
Es	0.658253	1.891083	-0.884054	99
Es	0.882165	1.542700	-0.291657	99
Es	-1.967734	-2.178220	-0.946396	99
Es	-0.745392	-0.294409	-0.299185	99
Es	0.842557	2.259233	1.030900	99
Es	1.398836	-0.309260	-0.389258	99
Es	0.834544	0.802646	-0.317233	99
Es	-0.145569	-1.901463	-0.133216	99
41
Properties=species:S:1:pos:R:3:Z:I:1 energy=-359.71559471914475 field_type=dipole dipole="0.000000 0.000000 0.000000" charge=0
C	-1.569903	-2.414318	-0.362537	6
O	-0.268143	-1.840148	-0.381577	8
N	-0.397163	-0.444638	-0.315467	7
C	0.782217	0.077802	-0.344857	6
C	0.881896	1.542642	-0.291817	6
C	0.842297	2.259302	1.031093	6
O	2.077256	2.027852	0.342773	8
H	-1.469053	-3.501198	-0.421037	1
H	-2.149893	-2.066998	-1.223057	1
H	-2.083833	-2.156858	0.568553	1
H	1.711806	-0.512828	-0.412617	1
H	0.534457	2.073412	-1.169077	1
H	0.647216	1.683792	1.927663	1
H	0.460846	3.272182	1.051963	1
Es	2.158629	1.804126	0.464704	99
Es	-0.155492	-1.896729	-0.135772	99
Es	0.137863	-0.227379	-0.037525	99
Es	0.113857	-0.201101	-0.616351	99
Es	-0.745544	-0.294038	-0.299936	99
Es	0.782219	0.077853	-0.344845	99
Es	-0.396604	-0.444915	-0.315510	99
Es	-0.331309	-1.225148	-0.341571	99
Es	-0.268506	-1.839967	-0.381593	99
Es	0.722494	1.874984	1.636543	99
Es	1.398802	-0.309234	-0.388889	99
Es	-0.112193	-1.897249	-0.645496	99
Es	-1.569681	-2.414232	-0.362542	99
Es	0.882154	1.542697	-0.291660	99
Es	0.615119	1.853978	0.361752	99
Es	-1.496813	-3.153200	-0.404616	99
Es	0.658469	1.890918	-0.883255	99
Es	2.076911	2.027892	0.342739	99
Es	-1.927230	-2.237789	0.271978	99
Es	0.593152	2.948359	1.050306	99
Es	0.834217	0.802391	-0.317101	99
Es	-0.777177	-2.038578	-0.382277	99
Es	2.225215	2.280778	0.216397	99
Es	0.842558	2.259229	1.030901	99
Es	1.675745	2.166568	0.690216	99
Es	1.677416	1.800664	0.012646	99
Es	-1.967618	-2.178182	-0.946095	99
41
Properties=species:S:1:pos:R:3:Z:I:1 energy=-359.71559471914475 field_type=dipole dipole="0.000000 0.000000 0.000000" charge=0
C	-1.569903	-2.414318	-0.362537	6
O	-0.268143	-1.840148	-0.381577	8
N	-0.397163	-0.444638	-0.315467	7
C	0.782217	0.077802	-0.344857	6
C	0.881896	1.542642	-0.291817	6
C	0.842297	2.259302	1.031093	6
O	2.077256	2.027852	0.342773	8
H	-1.469053	-3.501198	-0.421037	1
H	-2.149893	-2.066998	-1.223057	1
H	-2.083833	-2.156858	0.568553	1
H	1.711806	-0.512828	-0.412617	1
H	0.534457	2.073412	-1.169077	1
H	0.647216	1.683792	1.927663	1
H	0.460846	3.272182	1.051963	1
Es	-0.112387	-1.896252	-0.644619	99
Es	0.722789	1.875437	1.635816	99
Es	-0.777311	-2.039103	-0.383325	99
Es	0.614439	1.853694	0.361352	99
Es	1.676718	2.166986	0.689670	99
Es	2.150101	1.808737	0.462878	99
Es	1.398703	-0.309340	-0.388674	99
Es	-1.967332	-2.178282	-0.945820	99
Es	-1.927435	-2.237622	0.271827	99
Es	-0.396603	-0.444918	-0.315509	99
Es	1.677158	1.799608	0.012989	99
Es	-0.155942	-1.896918	-0.137504	99
Es	0.113776	-0.201175	-0.616193	99
Es	0.593204	2.948193	1.050649	99
Es	0.882167	1.542701	-0.291655	99
Es	2.076890	2.027817	0.342781	99
Es	0.658684	1.890710	-0.882604	99
Es	-0.330779	-1.225299	-0.339721	99
Es	0.782220	0.077854	-0.344853	99
Es	0.138170	-0.227507	-0.037916	99
Es	-0.268463	-1.839999	-0.381604	99
Es	-1.496981	-3.153291	-0.404768	99
Es	-0.745570	-0.293726	-0.300150	99
Es	0.842559	2.259227	1.030902	99
Es	2.233469	2.277196	0.218751	99
Es	0.834089	0.802200	-0.317009	99
Es	-1.569681	-2.414234	-0.362542	99
41
Properties=species:S:1:pos:R:3:Z:I:1 energy=-359.71559471914475 field_type=dipole dipole="0.000000 0.000000 0.000000" charge=0
C	-1.569903	-2.414318	-0.362537	6
O	-0.268143	-1.840148	-0.381577	8
N	-0.397163	-0.444638	-0.315467	7
C	0.782217	0.077802	-0.344857	6
C	0.881896	1.542642	-0.291817	6
C	0.842297	2.259302	1.031093	6
O	2.077256	2.027852	0.342773	8
H	-1.469053	-3.501198	-0.421037	1
H	-2.149893	-2.066998	-1.223057	1
H	-2.083833	-2.156858	0.568553	1
H	1.711806	-0.512828	-0.412617	1
H	0.534457	2.073412	-1.169077	1
H	0.647216	1.683792	1.927663	1
H	0.460846	3.272182	1.051963	1
Es	1.676989	1.799127	0.012607	99
Es	1.398624	-0.309312	-0.388548	99
Es	-0.159064	-1.895201	-0.138513	99
Es	1.677178	2.167957	0.688318	99
Es	2.076989	2.027848	0.342763	99
Es	-0.268464	-1.840002	-0.381600	99
Es	-1.927378	-2.237611	0.271627	99
Es	0.842549	2.259229	1.030902	99
Es	-1.569680	-2.414238	-0.362540	99
Es	0.833836	0.802184	-0.316931	99
Es	-1.967329	-2.178239	-0.945709	99
Es	-0.777351	-2.039213	-0.383798	99
Es	-0.330295	-1.224993	-0.340055	99
Es	0.614332	1.853373	0.361101	99
Es	0.723031	1.875740	1.635217	99
Es	0.114276	-0.201682	-0.615551	99
Es	-0.745581	-0.293524	-0.301240	99
Es	0.658696	1.890692	-0.882256	99
Es	0.137856	-0.227368	-0.037590	99
Es	2.139454	1.814052	0.460844	99
Es	-0.396599	-0.444937	-0.315514	99
Es	0.593129	2.948087	1.050896	99
Es	0.782221	0.077854	-0.344846	99
Es	-1.497107	-3.153382	-0.404729	99
Es	0.882141	1.542696	-0.291664	99
Es	2.243960	2.271616	0.222827	99
Es	-0.109760	-1.898058	-0.642868	99
41
Properties=species:S:1:pos:R:3:Z:I:1 energy=-359.71559471914475 field_type=dipole dipole="0.000000 0.000000 0.000000" charge=0
C	-1.569903	-2.414318	-0.362537	6
O	-0.268143	-1.840148	-0.381577	8
N	-0.397163	-0.444638	-0.315467	7
C	0.782217	0.077802	-0.344857	6
C	0.881896	1.542642	-0.291817	6
C	0.842297	2.259302	1.031093	6
O	2.077256	2.027852	0.342773	8
H	-1.469053	-3.501198	-0.421037	1
H	-2.149893	-2.066998	-1.223057	1
H	-2.083833	-2.156858	0.568553	1
H	1.711806	-0.512828	-0.412617	1
H	0.534457	2.073412	-1.169077	1
H	0.647216	1.683792	1.927663	1
H	0.460846	3.272182	1.051963	1
Es	0.593227	2.947839	1.051028	99
Es	-1.497213	-3.153437	-0.404948	99
Es	0.658713	1.890699	-0.881969	99
Es	-1.569680	-2.414232	-0.362543	99
Es	2.245644	2.271733	0.224001	99
Es	0.882167	1.542704	-0.291658	99
Es	-0.777497	-2.039226	-0.385575	99
Es	-1.927455	-2.237618	0.271567	99
Es	0.137994	-0.227404	-0.037691	99
Es	0.833572	0.802025	-0.316918	99
Es	0.782220	0.077854	-0.344842	99
Es	0.613947	1.853036	0.360855	99
Es	-0.104557	-1.900627	-0.640035	99
Es	-1.967192	-2.178215	-0.945470	99
Es	0.114299	-0.201831	-0.615601	99
Es	2.137556	1.816356	0.458893	99
Es	-0.745424	-0.293317	-0.301493	99
Es	0.842555	2.259230	1.030899	99
Es	0.723237	1.876090	1.634827	99
Es	2.076888	2.027695	0.342837	99
Es	-0.164933	-1.892480	-0.140626	99
Es	-0.268491	-1.839984	-0.381594	99
Es	-0.396627	-0.444956	-0.315513	99
Es	1.675863	1.798753	0.013257	99
Es	1.678856	2.166312	0.688736	99
Es	-0.329733	-1.225068	-0.338987	99
Es	1.398719	-0.309237	-0.388289	99
41
Properties=species:S:1:pos:R:3:Z:I:1 energy=-359.71559471914475 field_type=dipole dipole="0.000000 0.000000 0.000000" charge=0
C	-1.569903	-2.414318	-0.362537	6
O	-0.268143	-1.840148	-0.381577	8
N	-0.397163	-0.444638	-0.315467	7
C	0.782217	0.077802	-0.344857	6
C	0.881896	1.542642	-0.291817	6
C	0.842297	2.259302	1.031093	6
O	2.077256	2.027852	0.342773	8
H	-1.469053	-3.501198	-0.421037	1
H	-2.149893	-2.066998	-1.223057	1
H	-2.083833	-2.156858	0.568553	1
H	1.711806	-0.512828	-0.412617	1
H	0.534457	2.073412	-1.169077	1
H	0.647216	1.683792	1.927663	1
H	0.460846	3.272182	1.051963	1
Es	-0.104598	-1.900205	-0.639200	99
Es	0.613702	1.853004	0.360566	99
Es	2.076881	2.027906	0.342734	99
Es	-0.329396	-1.225115	-0.338115	99
Es	-1.497258	-3.153510	-0.404963	99
Es	0.782220	0.077854	-0.344843	99
Es	2.132837	1.819474	0.457564	99
Es	-1.569686	-2.414233	-0.362541	99
Es	-1.967185	-2.178191	-0.945367	99
Es	0.882157	1.542698	-0.291655	99
Es	-1.927424	-2.237612	0.271472	99
Es	-0.745477	-0.293200	-0.301855	99
Es	-0.165321	-1.892265	-0.141813	99
Es	0.114227	-0.201999	-0.615378	99
Es	0.842560	2.259224	1.030896	99
Es	0.138169	-0.227387	-0.037846	99
Es	1.679140	2.166910	0.688551	99
Es	0.723350	1.876302	1.634557	99
Es	0.658841	1.890549	-0.881651	99
Es	-0.396600	-0.444920	-0.315512	99
Es	-0.777512	-2.039751	-0.386061	99
Es	0.593301	2.947773	1.051130	99
Es	0.833319	0.802002	-0.316820	99
Es	2.250148	2.268621	0.225564	99
Es	1.676027	1.798024	0.013409	99
Es	1.398688	-0.309256	-0.388045	99
Es	-0.268459	-1.840001	-0.381626	99
41
Properties=species:S:1:pos:R:3:Z:I:1 energy=-359.71559471914475 field_type=dipole dipole="0.000000 0.000000 0.000000" charge=0
C	-1.569903	-2.414318	-0.362537	6
O	-0.268143	-1.840148	-0.381577	8
N	-0.397163	-0.444638	-0.315467	7
C	0.782217	0.077802	-0.344857	6
C	0.881896	1.542642	-0.291817	6
C	0.842297	2.259302	1.031093	6
O	2.077256	2.027852	0.342773	8
H	-1.469053	-3.501198	-0.421037	1
H	-2.149893	-2.066998	-1.223057	1
H	-2.083833	-2.156858	0.568553	1
H	1.711806	-0.512828	-0.412617	1
H	0.534457	2.073412	-1.169077	1
H	0.647216	1.683792	1.927663	1
H	0.460846	3.272182	1.051963	1
Es	0.842555	2.259232	1.030898	99
Es	0.659088	1.890411	-0.881241	99
Es	0.882163	1.542700	-0.291655	99
Es	2.255054	2.265491	0.227334	99
Es	2.127931	1.822830	0.456304	99
Es	-0.745520	-0.292959	-0.301731	99
Es	0.138257	-0.227519	-0.038200	99
Es	-1.497485	-3.153731	-0.405210	99
Es	0.833257	0.801909	-0.316908	99
Es	2.076851	2.027950	0.342710	99
Es	-1.569679	-2.414233	-0.362542	99
Es	-0.396602	-0.444935	-0.315511	99
Es	-0.109010	-1.897595	-0.640939	99
Es	-0.777540	-2.039903	-0.385147	99
Es	1.679249	2.167449	0.687763	99
Es	0.782220	0.077854	-0.344842	99
Es	-0.161112	-1.894551	-0.141803	99
Es	1.676085	1.797341	0.013836	99
Es	1.398631	-0.309284	-0.388066	99
Es	0.613370	1.852966	0.360540	99
Es	0.593229	2.947710	1.051317	99
Es	0.723502	1.876489	1.634121	99
Es	-0.268434	-1.840023	-0.381591	99
Es	-1.966957	-2.178096	-0.944995	99
Es	-0.329246	-1.225269	-0.337347	99
Es	0.114272	-0.202035	-0.615231	99
Es	-1.927477	-2.237500	0.271285	99
41
Properties=species:S:1:pos:R:3:Z:I:1 energy=-359.71559471914475 field_type=dipole dipole="0.000000 0.000000 0.000000" charge=0
C	-1.569903	-2.414318	-0.362537	6
O	-0.268143	-1.840148	-0.381577	8
N	-0.397163	-0.444638	-0.315467	7
C	0.782217	0.077802	-0.344857	6
C	0.881896	1.542642	-0.291817	6
C	0.842297	2.259302	1.031093	6
O	2.077256	2.027852	0.342773	8
H	-1.469053	-3.501198	-0.421037	1
H	-2.149893	-2.066998	-1.223057	1
H	-2.083833	-2.156858	0.568553	1
H	1.711806	-0.512828	-0.412617	1
H	0.534457	2.073412	-1.169077	1
H	0.647216	1.683792	1.927663	1
H	0.460846	3.272182	1.051963	1
Es	0.138122	-0.227460	-0.037936	99
Es	0.593332	2.947692	1.051368	99
Es	-0.745377	-0.292844	-0.302306	99
Es	0.659034	1.890412	-0.881090	99
Es	-0.396605	-0.444907	-0.315510	99
Es	0.842563	2.259222	1.030903	99
Es	1.398498	-0.309279	-0.387958	99
Es	-0.163169	-1.893213	-0.141475	99
Es	-1.497458	-3.153772	-0.405016	99
Es	2.260025	2.261788	0.229666	99
Es	-0.268500	-1.839970	-0.381589	99
Es	0.723612	1.876699	1.633942	99
Es	1.676052	1.796657	0.014057	99
Es	-0.106787	-1.899103	-0.639470	99
Es	2.076871	2.027928	0.342722	99
Es	2.122771	1.826630	0.454974	99
Es	0.833284	0.801951	-0.316974	99
Es	0.882167	1.542700	-0.291654	99
Es	0.114542	-0.202369	-0.614979	99
Es	0.782220	0.077854	-0.344839	99
Es	-1.569676	-2.414232	-0.362542	99
Es	-1.927484	-2.237421	0.271159	99
Es	-1.966968	-2.178192	-0.945075	99
Es	-0.329607	-1.224999	-0.338621	99
Es	0.613187	1.852729	0.360388	99
Es	1.679521	2.168171	0.686653	99
Es	-0.777519	-2.039978	-0.385649	99
41
Properties=species:S:1:pos:R:3:Z:I:1 energy=-359.71559471914475 field_type=dipole dipole="0.000000 0.000000 0.000000" charge=0
C	-1.569903	-2.414318	-0.362537	6
O	-0.268143	-1.840148	-0.381577	8
N	-0.397163	-0.444638	-0.315467	7
C	0.782217	0.077802	-0.344857	6
C	0.881896	1.542642	-0.291817	6
C	0.842297	2.259302	1.031093	6
O	2.077256	2.027852	0.342773	8
H	-1.469053	-3.501198	-0.421037	1
H	-2.149893	-2.066998	-1.223057	1
H	-2.083833	-2.156858	0.568553	1
H	1.711806	-0.512828	-0.412617	1
H	0.534457	2.073412	-1.169077	1
H	0.647216	1.683792	1.927663	1
H	0.460846	3.272182	1.051963	1
Es	0.832991	0.801798	-0.317092	99
Es	-1.569677	-2.414229	-0.362546	99
Es	0.613107	1.852779	0.360287	99
Es	2.076840	2.027975	0.342703	99
Es	-1.927495	-2.237389	0.271104	99
Es	-0.396598	-0.444923	-0.315510	99
Es	-0.745465	-0.292758	-0.302457	99
Es	0.782220	0.077854	-0.344841	99
Es	-0.777617	-2.040037	-0.385419	99
Es	-0.328817	-1.225333	-0.336259	99
Es	0.723724	1.876777	1.633621	99
Es	-1.966922	-2.178203	-0.944967	99
Es	-0.161679	-1.894406	-0.143194	99
Es	1.680070	2.167492	0.686655	99
Es	0.593255	2.947567	1.051533	99
Es	0.882164	1.542701	-0.291654	99
Es	-1.497536	-3.153794	-0.405050	99
Es	1.675788	1.796296	0.014251	99
Es	0.842560	2.259229	1.030900	99
Es	0.138098	-0.227434	-0.037969	99
Es	-0.108969	-1.897464	-0.640433	99
Es	0.114612	-0.202418	-0.614752	99
Es	0.659167	1.890340	-0.880734	99
Es	-0.268475	-1.839980	-0.381484	99
Es	1.398621	-0.309293	-0.388054	99
Es	2.260592	2.261987	0.230205	99
Es	2.122091	1.827559	0.454306	99
41
Properties=species:S:1:pos:R:3:Z:I:1 energy=-359.71559471914475 field_type=dipole dipole="0.000000 0.000000 0.000000" charge=0
C	-1.569903	-2.414318	-0.362537	6
O	-0.268143	-1.840148	-0.381577	8
N	-0.397163	-0.444638	-0.315467	7
C	0.782217	0.077802	-0.344857	6
C	0.881896	1.542642	-0.291817	6
C	0.842297	2.259302	1.031093	6
O	2.077256	2.027852	0.342773	8
H	-1.469053	-3.501198	-0.421037	1
H	-2.149893	-2.066998	-1.223057	1
H	-2.083833	-2.156858	0.568553	1
H	1.711806	-0.512828	-0.412617	1
H	0.534457	2.073412	-1.169077	1
H	0.647216	1.683792	1.927663	1
H	0.460846	3.272182	1.051963	1
Es	-0.268502	-1.839970	-0.381616	99
Es	0.114496	-0.202414	-0.614879	99
Es	-0.745513	-0.292778	-0.302490	99
Es	-1.569680	-2.414233	-0.362542	99
Es	-0.328428	-1.225461	-0.335715	99
Es	-0.396602	-0.444908	-0.315510	99
Es	-0.777679	-2.040055	-0.385959	99
Es	0.782221	0.077854	-0.344841	99
Es	-0.105668	-1.899200	-0.639063	99
Es	1.681095	2.166779	0.686803	99
Es	-1.927430	-2.237494	0.271113	99
Es	0.138238	-0.227476	-0.038090	99
Es	0.593291	2.947491	1.051510	99
Es	2.076853	2.027959	0.342711	99
Es	0.659118	1.890329	-0.880696	99
Es	1.674886	1.796417	0.014787	99
Es	0.882163	1.542700	-0.291654	99
Es	-0.165215	-1.892519	-0.144436	99
Es	-1.966990	-2.178131	-0.944978	99
Es	1.398511	-0.309270	-0.387872	99
Es	0.613017	1.852491	0.360151	99
Es	2.261146	2.262070	0.230505	99
Es	-1.497550	-3.153752	-0.405084	99
Es	0.832990	0.801828	-0.316892	99
Es	0.723821	1.876998	1.633446	99
Es	2.121503	1.828212	0.453541	99
Es	0.842560	2.259228	1.030898	99
41
Properties=species:S:1:pos:R:3:Z:I:1 energy=-359.71559471914475 field_type=dipole dipole="0.000000 0.000000 0.000000" charge=0
C	-1.569903	-2.414318	-0.362537	6
O	-0.268143	-1.840148	-0.381577	8
N	-0.397163	-0.444638	-0.315467	7
C	0.782217	0.077802	-0.344857	6
C	0.881896	1.542642	-0.291817	6
C	0.842297	2.259302	1.031093	6
O	2.077256	2.027852	0.342773	8
H	-1.469053	-3.501198	-0.421037	1
H	-2.149893	-2.066998	-1.223057	1
H	-2.083833	-2.156858	0.568553	1
H	1.711806	-0.512828	-0.412617	1
H	0.534457	2.073412	-1.169077	1
H	0.647216	1.683792	1.927663	1
H	0.460846	3.272182	1.051963	1
Es	-0.268435	-1.840018	-0.381584	99
Es	-0.167242	-1.891194	-0.144701	99
Es	-0.396603	-0.444942	-0.315509	99
Es	2.118871	1.830089	0.452533	99
Es	-0.328533	-1.225133	-0.336619	99
Es	0.138115	-0.227380	-0.037889	99
Es	0.833029	0.801798	-0.316918	99
Es	0.593336	2.947381	1.051676	99
Es	0.613003	1.852485	0.360080	99
Es	-1.927434	-2.237496	0.271082	99
Es	0.114585	-0.202463	-0.614863	99
Es	-1.497555	-3.153747	-0.405062	99
Es	-0.745363	-0.292742	-0.302688	99
Es	0.882162	1.542699	-0.291654	99
Es	1.398363	-0.309371	-0.387826	99
Es	-1.966990	-2.178130	-0.945005	99
Es	2.076885	2.027817	0.342776	99
Es	-0.103846	-1.900453	-0.637494	99
Es	0.842551	2.259228	1.030901	99
Es	-0.777601	-2.040387	-0.386383	99
Es	1.674432	1.796505	0.014789	99
Es	0.782220	0.077854	-0.344841	99
Es	0.723940	1.877067	1.633255	99
Es	0.659115	1.890397	-0.880633	99
Es	-1.569679	-2.414232	-0.362543	99
Es	1.681531	2.167132	0.686457	99
Es	2.263797	2.259929	0.231811	99
41
Properties=species:S:1:pos:R:3:Z:I:1 energy=-359.71559471914475 field_type=dipole dipole="0.000000 0.000000 0.000000" charge=0
C	-1.569903	-2.414318	-0.362537	6
O	-0.268143	-1.840148	-0.381577	8
N	-0.397163	-0.444638	-0.315467	7
C	0.782217	0.077802	-0.344857	6
C	0.881896	1.542642	-0.291817	6
C	0.842297	2.259302	1.031093	6
O	2.077256	2.027852	0.342773	8
H	-1.469053	-3.501198	-0.421037	1
H	-2.149893	-2.066998	-1.223057	1
H	-2.083833	-2.156858	0.568553	1
H	1.711806	-0.512828	-0.412617	1
H	0.534457	2.073412	-1.169077	1
H	0.647216	1.683792	1.927663	1
H	0.460846	3.272182	1.051963	1
Es	0.723954	1.877136	1.633105	99
Es	0.882163	1.542700	-0.291653	99
Es	-1.569681	-2.414238	-0.362540	99
Es	0.842558	2.259228	1.030898	99
Es	0.593384	2.947312	1.051747	99
Es	2.264715	2.259526	0.232410	99
Es	0.138038	-0.227347	-0.037949	99
Es	-0.396603	-0.444934	-0.315510	99
Es	-0.328148	-1.225252	-0.335598	99
Es	-0.105369	-1.899495	-0.637839	99
Es	1.675010	1.796113	0.014779	99
Es	1.681163	2.166869	0.686328	99
Es	1.398537	-0.309282	-0.387738	99
Es	0.832762	0.801780	-0.316888	99
Es	-1.927387	-2.237534	0.271015	99
Es	-0.166087	-1.891977	-0.145327	99
Es	2.117953	1.830968	0.452159	99
Es	-1.497687	-3.153853	-0.405266	99
Es	0.659185	1.890284	-0.880482	99
Es	2.076800	2.028022	0.342682	99
Es	0.612808	1.852537	0.360025	99
Es	-0.777638	-2.040419	-0.386373	99
Es	-0.745355	-0.292603	-0.302976	99
Es	0.114772	-0.202689	-0.614663	99
Es	-0.268482	-1.839984	-0.381636	99
Es	0.782219	0.077854	-0.344848	99
Es	-1.966932	-2.178028	-0.944715	99
41
Properties=species:S:1:pos:R:3:Z:I:1 energy=-359.71559471914475 field_type=dipole dipole="0.000000 0.000000 0.000000" charge=0
C	-1.569903	-2.414318	-0.362537	6
O	-0.268143	-1.840148	-0.381577	8
N	-0.397163	-0.444638	-0.315467	7
C	0.782217	0.077802	-0.344857	6
C	0.881896	1.542642	-0.291817	6
C	0.842297	2.259302	1.031093	6
O	2.077256	2.027852	0.342773	8
H	-1.469053	-3.501198	-0.421037	1
H	-2.149893	-2.066998	-1.223057	1
H	-2.083833	-2.156858	0.568553	1
H	1.711806	-0.512828	-0.412617	1
H	0.534457	2.073412	-1.169077	1
H	0.647216	1.683792	1.927663	1
H	0.460846	3.272182	1.051963	1
Es	-0.745086	-0.292760	-0.302916	99
Es	-0.268458	-1.840000	-0.381625	99
Es	0.832809	0.801760	-0.316823	99
Es	1.398478	-0.309319	-0.387672	99
Es	0.659037	1.890380	-0.880501	99
Es	0.842554	2.259228	1.030900	99
Es	-1.966962	-2.178058	-0.944739	99
Es	2.114222	1.834180	0.450762	99
Es	-1.927353	-2.237481	0.270931	99
Es	-0.103798	-1.900546	-0.636847	99
Es	1.681655	2.167345	0.685737	99
Es	-0.777590	-2.040418	-0.386814	99
Es	2.268252	2.256616	0.234190	99
Es	-0.396603	-0.444920	-0.315509	99
Es	0.138122	-0.227305	-0.037867	99
Es	0.782220	0.077853	-0.344842	99
Es	-1.569678	-2.414231	-0.362541	99
Es	-0.328543	-1.225089	-0.336689	99
Es	0.593301	2.947339	1.051632	99
Es	-1.497660	-3.153935	-0.405150	99
Es	0.613068	1.852330	0.359960	99
Es	0.114568	-0.202519	-0.614884	99
Es	2.076863	2.027850	0.342763	99
Es	-0.167506	-1.891093	-0.144809	99
Es	0.723926	1.877171	1.633088	99
Es	1.674652	1.795616	0.015071	99
Es	0.882160	1.542702	-0.291657	99
