45
Properties=species:S:1:pos:R:3:Z:I:1 energy=-341.1252657936041 field_type=dipole dipole="0.000000 0.000000 0.000000" charge=0
N	-2.109351	-0.485509	0.559162	7
C	-0.658271	-0.590909	0.778472	6
C	0.165299	-1.349609	-0.217898	6
C	0.280549	0.156361	-0.156978	6
N	-0.346151	0.935721	-1.268318	7
C	1.538299	0.764531	0.433732	6
O	2.312109	1.337420	-0.617418	8
H	-2.478861	0.325021	1.057782	1
H	-2.586931	-1.296429	0.953372	1
H	-0.358921	-0.672649	1.820952	1
H	-0.337461	-1.800109	-1.065718	1
H	0.990309	-1.945879	0.154752	1
H	-1.360551	0.803541	-1.173668	1
H	-0.121761	0.480611	-2.154928	1
H	2.154229	0.026471	0.956672	1
H	1.277328	1.561901	1.137122	1
H	1.640139	1.749521	-1.197088	1
Es	-0.938129	0.854167	-1.212134	99
Es	2.311805	1.337448	-0.617372	99
Es	-0.445761	-0.642402	1.491581	99
Es	1.948870	0.250869	0.793438	99
Es	1.538382	0.764594	0.433534	99
Es	2.486766	1.557370	-0.492913	99
Es	1.951401	1.554517	-0.912137	99
Es	-0.658329	-0.590909	0.778303	99
Es	-0.346258	0.935216	-1.268304	99
Es	2.427206	1.099717	-0.775295	99
Es	-2.318186	-0.002796	0.878600	99
Es	-0.230946	1.283851	-1.259488	99
Es	1.347759	1.308872	0.925428	99
Es	-0.179679	-1.645969	-0.791591	99
Es	0.357004	-0.616824	-0.326187	99
Es	0.898946	0.448040	0.141794	99
Es	0.280403	0.156283	-0.157033	99
Es	-2.109214	-0.485542	0.559721	99
Es	-2.177407	-0.453560	0.213395	99
Es	-0.077893	0.574768	-0.791378	99
Es	2.002776	1.122438	-0.220588	99
Es	0.165245	-1.349478	-0.217811	99
Es	-0.208759	0.648092	-1.792998	99
Es	0.725966	-1.749164	0.042263	99
Es	-0.321467	-1.134128	0.341408	99
Es	-2.381353	-0.971490	0.813220	99
Es	-1.480770	-0.531808	0.675597	99
Es	-0.248980	-0.047185	0.395939	99
45
Properties=species:S:1:pos:R:3:Z:I:1 energy=-341.1252657936041 field_type=dipole dipole="0.000000 0.000000 0.000000" charge=0
N	-2.109351	-0.485509	0.559162	7
C	-0.658271	-0.590909	0.778472	6
C	0.165299	-1.349609	-0.217898	6
C	0.280549	0.156361	-0.156978	6
N	-0.346151	0.935721	-1.268318	7
C	1.538299	0.764531	0.433732	6
O	2.312109	1.337420	-0.617418	8
H	-2.478861	0.325021	1.057782	1
H	-2.586931	-1.296429	0.953372	1
H	-0.358921	-0.672649	1.820952	1
H	-0.337461	-1.800109	-1.065718	1
H	0.990309	-1.945879	0.154752	1
H	-1.360551	0.803541	-1.173668	1
H	-0.121761	0.480611	-2.154928	1
H	2.154229	0.026471	0.956672	1
H	1.277328	1.561901	1.137122	1
H	1.640139	1.749521	-1.197088	1
Es	-0.346260	0.935206	-1.268301	99
Es	-2.317672	-0.002517	0.878497	99
Es	-0.938051	0.854707	-1.212010	99
Es	2.311762	1.337415	-0.617377	99
Es	-0.249421	-0.046997	0.397020	99
Es	0.725403	-1.749260	0.041602	99
Es	-0.323060	-1.134548	0.342402	99
Es	2.001805	1.120943	-0.219884	99
Es	-0.178783	-1.645548	-0.790721	99
Es	1.538378	0.764592	0.433542	99
Es	0.165245	-1.349479	-0.217813	99
Es	0.358735	-0.615775	-0.327589	99
Es	-0.231195	1.282809	-1.257607	99
Es	-0.207921	0.649303	-1.794511	99
Es	-2.109222	-0.485533	0.559700	99
Es	-0.658319	-0.590896	0.778298	99
Es	-0.446005	-0.643101	1.491421	99
Es	-1.481010	-0.531255	0.674439	99
Es	0.280399	0.156288	-0.157029	99
Es	-2.381479	-0.972766	0.813705	99
Es	-0.078094	0.574107	-0.792070	99
Es	2.480589	1.556053	-0.492910	99
Es	1.948451	0.250587	0.793356	99
Es	1.347405	1.308892	0.925578	99
Es	-2.177247	-0.453201	0.214354	99
Es	0.898967	0.447807	0.141434	99
Es	1.953093	1.556075	-0.911243	99
Es	2.432906	1.101082	-0.777290	99
45
Properties=species:S:1:pos:R:3:Z:I:1 energy=-341.1252657936041 field_type=dipole dipole="0.000000 0.000000 0.000000" charge=0
N	-2.109351	-0.485509	0.559162	7
C	-0.658271	-0.590909	0.778472	6
C	0.165299	-1.349609	-0.217898	6
C	0.280549	0.156361	-0.156978	6
N	-0.346151	0.935721	-1.268318	7
C	1.538299	0.764531	0.433732	6
O	2.312109	1.337420	-0.617418	8
H	-2.478861	0.325021	1.057782	1
H	-2.586931	-1.296429	0.953372	1
H	-0.358921	-0.672649	1.820952	1
H	-0.337461	-1.800109	-1.065718	1
H	0.990309	-1.945879	0.154752	1
H	-1.360551	0.803541	-1.173668	1
H	-0.121761	0.480611	-2.154928	1
H	2.154229	0.026471	0.956672	1
H	1.277328	1.561901	1.137122	1
H	1.640139	1.749521	-1.197088	1
Es	-1.481166	-0.531226	0.673222	99
Es	1.347228	1.308890	0.925723	99
Es	2.436774	1.101744	-0.779089	99
Es	-0.658325	-0.590885	0.778305	99
Es	0.280401	0.156292	-0.157033	99
Es	2.476146	1.554724	-0.493749	99
Es	-2.109217	-0.485543	0.559725	99
Es	-0.231193	1.283693	-1.256106	99
Es	-0.937774	0.853856	-1.212278	99
Es	-0.207083	0.649687	-1.794935	99
Es	0.165249	-1.349473	-0.217818	99
Es	-0.249004	-0.046887	0.396805	99
Es	0.899110	0.447606	0.141122	99
Es	0.359187	-0.615090	-0.328089	99
Es	-0.324300	-1.135133	0.343591	99
Es	-0.078990	0.573793	-0.793028	99
Es	-0.446074	-0.643101	1.491359	99
Es	1.953912	1.557200	-0.909988	99
Es	2.001641	1.120517	-0.218752	99
Es	-0.346268	0.935189	-1.268301	99
Es	-2.317114	-0.002034	0.878241	99
Es	2.311754	1.337439	-0.617369	99
Es	-2.381048	-0.972767	0.815070	99
Es	0.725196	-1.749105	0.041321	99
Es	1.538380	0.764591	0.433537	99
Es	-2.177970	-0.453857	0.214527	99
Es	1.948185	0.250341	0.793234	99
Es	-0.178236	-1.645474	-0.790254	99
45
Properties=species:S:1:pos:R:3:Z:I:1 energy=-341.1252657936041 field_type=dipole dipole="0.000000 0.000000 0.000000" charge=0
N	-2.109351	-0.485509	0.559162	7
C	-0.658271	-0.590909	0.778472	6
C	0.165299	-1.349609	-0.217898	6
C	0.280549	0.156361	-0.156978	6
N	-0.346151	0.935721	-1.268318	7
C	1.538299	0.764531	0.433732	6
O	2.312109	1.337420	-0.617418	8
H	-2.478861	0.325021	1.057782	1
H	-2.586931	-1.296429	0.953372	1
H	-0.358921	-0.672649	1.820952	1
H	-0.337461	-1.800109	-1.065718	1
H	0.990309	-1.945879	0.154752	1
H	-1.360551	0.803541	-1.173668	1
H	-0.121761	0.480611	-2.154928	1
H	2.154229	0.026471	0.956672	1
H	1.277328	1.561901	1.137122	1
H	1.640139	1.749521	-1.197088	1
Es	-1.481178	-0.530965	0.672702	99
Es	-2.177947	-0.454210	0.215053	99
Es	1.954895	1.559813	-0.908024	99
Es	1.538381	0.764592	0.433538	99
Es	-0.177784	-1.645073	-0.789716	99
Es	2.433172	1.100233	-0.780893	99
Es	0.724969	-1.749256	0.040925	99
Es	-2.381109	-0.973092	0.815784	99
Es	-0.249239	-0.046614	0.397328	99
Es	-0.206730	0.650286	-1.795249	99
Es	0.359854	-0.614664	-0.328638	99
Es	-2.109219	-0.485542	0.559726	99
Es	-2.316901	-0.001661	0.877619	99
Es	-0.346260	0.935178	-1.268293	99
Es	2.478775	1.551805	-0.496013	99
Es	-0.230997	1.284145	-1.254939	99
Es	1.948058	0.250232	0.793211	99
Es	0.280408	0.156289	-0.157042	99
Es	1.346854	1.308894	0.925775	99
Es	-0.446124	-0.643479	1.491344	99
Es	2.001690	1.122464	-0.216775	99
Es	0.165243	-1.349478	-0.217809	99
Es	-0.658330	-0.590888	0.778307	99
Es	-0.079537	0.572938	-0.793668	99
Es	-0.937482	0.853649	-1.212619	99
Es	-0.325071	-1.135366	0.343896	99
Es	2.311739	1.337417	-0.617379	99
Es	0.899270	0.447342	0.140842	99
45
Properties=species:S:1:pos:R:3:Z:I:1 energy=-341.1252657936041 field_type=dipole dipole="0.000000 0.000000 0.000000" charge=0
N	-2.109351	-0.485509	0.559162	7
C	-0.658271	-0.590909	0.778472	6
C	0.165299	-1.349609	-0.217898	6
C	0.280549	0.156361	-0.156978	6
N	-0.346151	0.935721	-1.268318	7
C	1.538299	0.764531	0.433732	6
O	2.312109	1.337420	-0.617418	8
H	-2.478861	0.325021	1.057782	1
H	-2.586931	-1.296429	0.953372	1
H	-0.358921	-0.672649	1.820952	1
H	-0.337461	-1.800109	-1.065718	1
H	0.990309	-1.945879	0.154752	1
H	-1.360551	0.803541	-1.173668	1
H	-0.121761	0.480611	-2.154928	1
H	2.154229	0.026471	0.956672	1
H	1.277328	1.561901	1.137122	1
H	1.640139	1.749521	-1.197088	1
Es	-2.316575	-0.001746	0.877977	99
Es	-0.325720	-1.135475	0.344413	99
Es	2.474724	1.551795	-0.495143	99
Es	-2.380871	-0.973352	0.816031	99
Es	0.280402	0.156298	-0.157035	99
Es	-0.658330	-0.590892	0.778305	99
Es	2.437243	1.101746	-0.780673	99
Es	1.346768	1.308869	0.925840	99
Es	0.360601	-0.614215	-0.329364	99
Es	-0.446220	-0.643627	1.491311	99
Es	0.724606	-1.749275	0.040747	99
Es	-0.937196	0.853715	-1.212650	99
Es	-0.206671	0.650006	-1.795397	99
Es	1.947898	0.250100	0.793147	99
Es	-0.230994	1.284303	-1.254820	99
Es	-2.178289	-0.453995	0.215090	99
Es	1.955536	1.559699	-0.908708	99
Es	2.001032	1.121122	-0.217317	99
Es	-0.177491	-1.644969	-0.789264	99
Es	-1.481242	-0.530949	0.672097	99
Es	1.538379	0.764593	0.433539	99
Es	-0.346262	0.935186	-1.268297	99
Es	-0.079739	0.573033	-0.793566	99
Es	0.899323	0.447350	0.140828	99
Es	-2.109213	-0.485544	0.559738	99
Es	-0.249323	-0.046716	0.397361	99
Es	0.165243	-1.349477	-0.217811	99
Es	2.311782	1.337407	-0.617386	99
45
Properties=species:S:1:pos:R:3:Z:I:1 energy=-341.1252657936041 field_type=dipole dipole="0.000000 0.000000 0.000000" charge=0
N	-2.109351	-0.485509	0.559162	7
C	-0.658271	-0.590909	0.778472	6
C	0.165299	-1.349609	-0.217898	6
C	0.280549	0.156361	-0.156978	6
N	-0.346151	0.935721	-1.268318	7
C	1.538299	0.764531	0.433732	6
O	2.312109	1.337420	-0.617418	8
H	-2.478861	0.325021	1.057782	1
H	-2.586931	-1.296429	0.953372	1
H	-0.358921	-0.672649	1.820952	1
H	-0.337461	-1.800109	-1.065718	1
H	0.990309	-1.945879	0.154752	1
H	-1.360551	0.803541	-1.173668	1
H	-0.121761	0.480611	-2.154928	1
H	2.154229	0.026471	0.956672	1
H	1.277328	1.561901	1.137122	1
H	1.640139	1.749521	-1.197088	1
Es	-0.231471	1.284452	-1.254074	99
Es	-2.316421	-0.001667	0.877703	99
Es	2.475841	1.550174	-0.496010	99
Es	-2.381095	-0.973719	0.816143	99
Es	-0.249163	-0.046618	0.397285	99
Es	1.947763	0.249957	0.793080	99
Es	0.360912	-0.614068	-0.329739	99
Es	1.538378	0.764595	0.433538	99
Es	-0.079744	0.572940	-0.793844	99
Es	1.955960	1.561314	-0.907367	99
Es	1.346571	1.308896	0.925912	99
Es	-2.109211	-0.485544	0.559748	99
Es	-0.177122	-1.644780	-0.788947	99
Es	-2.178215	-0.453883	0.215673	99
Es	2.311726	1.337425	-0.617387	99
Es	-0.658326	-0.590896	0.778303	99
Es	-0.326426	-1.135706	0.344854	99
Es	-0.206298	0.650528	-1.795857	99
Es	0.724496	-1.749246	0.040547	99
Es	-1.481167	-0.530792	0.671695	99
Es	0.899407	0.447298	0.140748	99
Es	2.435628	1.101534	-0.781962	99
Es	2.001192	1.121338	-0.216597	99
Es	0.165244	-1.349477	-0.217807	99
Es	-0.346267	0.935214	-1.268300	99
Es	-0.446232	-0.643735	1.491345	99
Es	-0.936957	0.853165	-1.212662	99
Es	0.280399	0.156290	-0.157028	99
45
Properties=species:S:1:pos:R:3:Z:I:1 energy=-341.1252657936041 field_type=dipole dipole="0.000000 0.000000 0.000000" charge=0
N	-2.109351	-0.485509	0.559162	7
C	-0.658271	-0.590909	0.778472	6
C	0.165299	-1.349609	-0.217898	6
C	0.280549	0.156361	-0.156978	6
N	-0.346151	0.935721	-1.268318	7
C	1.538299	0.764531	0.433732	6
O	2.312109	1.337420	-0.617418	8
H	-2.478861	0.325021	1.057782	1
H	-2.586931	-1.296429	0.953372	1
H	-0.358921	-0.672649	1.820952	1
H	-0.337461	-1.800109	-1.065718	1
H	0.990309	-1.945879	0.154752	1
H	-1.360551	0.803541	-1.173668	1
H	-0.121761	0.480611	-2.154928	1
H	2.154229	0.026471	0.956672	1
H	1.277328	1.561901	1.137122	1
H	1.640139	1.749521	-1.197088	1
Es	2.000715	1.119578	-0.217559	99
Es	-1.481440	-0.530756	0.671209	99
Es	-2.316135	-0.001687	0.878084	99
Es	0.165245	-1.349476	-0.217812	99
Es	2.470759	1.550719	-0.494674	99
Es	0.361301	-0.613654	-0.329838	99
Es	-0.231308	1.284482	-1.253569	99
Es	-0.249180	-0.046687	0.397422	99
Es	1.346518	1.308868	0.925948	99
Es	-0.936790	0.853323	-1.212714	99
Es	1.947687	0.249952	0.793045	99
Es	0.724234	-1.749160	0.040373	99
Es	-2.109218	-0.485558	0.559688	99
Es	-0.446292	-0.643804	1.491265	99
Es	-2.380837	-0.973991	0.816322	99
Es	1.538377	0.764594	0.433543	99
Es	-0.658328	-0.590896	0.778306	99
Es	-0.326738	-1.135958	0.345242	99
Es	1.956248	1.560807	-0.907908	99
Es	-2.178437	-0.453669	0.215688	99
Es	-0.176951	-1.644702	-0.788893	99
Es	0.899444	0.447191	0.140624	99
Es	0.280402	0.156302	-0.157036	99
Es	2.311781	1.337418	-0.617373	99
Es	-0.346265	0.935200	-1.268294	99
Es	-0.080038	0.572536	-0.794110	99
Es	2.440874	1.103297	-0.781879	99
Es	-0.206228	0.650718	-1.796104	99
45
Properties=species:S:1:pos:R:3:Z:I:1 energy=-341.1252657936041 field_type=dipole dipole="0.000000 0.000000 0.000000" charge=0
N	-2.109351	-0.485509	0.559162	7
C	-0.658271	-0.590909	0.778472	6
C	0.165299	-1.349609	-0.217898	6
C	0.280549	0.156361	-0.156978	6
N	-0.346151	0.935721	-1.268318	7
C	1.538299	0.764531	0.433732	6
O	2.312109	1.337420	-0.617418	8
H	-2.478861	0.325021	1.057782	1
H	-2.586931	-1.296429	0.953372	1
H	-0.358921	-0.672649	1.820952	1
H	-0.337461	-1.800109	-1.065718	1
H	0.990309	-1.945879	0.154752	1
H	-1.360551	0.803541	-1.173668	1
H	-0.121761	0.480611	-2.154928	1
H	2.154229	0.026471	0.956672	1
H	1.277328	1.561901	1.137122	1
H	1.640139	1.749521	-1.197088	1
Es	0.724175	-1.749269	0.040179	99
Es	1.956094	1.559275	-0.908381	99
Es	-0.080308	0.572243	-0.794362	99
Es	0.280402	0.156293	-0.157035	99
Es	2.001013	1.120376	-0.216508	99
Es	-0.176858	-1.644534	-0.788523	99
Es	-2.315954	-0.001428	0.877556	99
Es	-0.206124	0.650934	-1.796234	99
Es	-0.446278	-0.643942	1.491242	99
Es	-0.249228	-0.046543	0.397536	99
Es	0.165243	-1.349477	-0.217811	99
Es	-1.481294	-0.530642	0.670765	99
Es	2.441778	1.103323	-0.781392	99
Es	-0.231231	1.284684	-1.253108	99
Es	-0.936648	0.853249	-1.212827	99
Es	-0.326940	-1.136125	0.345258	99
Es	-0.658329	-0.590896	0.778306	99
Es	-2.178571	-0.454020	0.216166	99
Es	-2.109223	-0.485550	0.559717	99
Es	1.538381	0.764591	0.433539	99
Es	2.311717	1.337506	-0.617308	99
Es	1.346278	1.308870	0.925908	99
Es	0.361454	-0.613493	-0.330095	99
Es	2.469815	1.551386	-0.495864	99
Es	1.947608	0.249878	0.793087	99
Es	-2.380944	-0.974031	0.816882	99
Es	0.899629	0.447151	0.140590	99
Es	-0.346256	0.935181	-1.268288	99
45
Properties=species:S:1:pos:R:3:Z:I:1 energy=-341.1252657936041 field_type=dipole dipole="0.000000 0.000000 0.000000" charge=0
N	-2.109351	-0.485509	0.559162	7
C	-0.658271	-0.590909	0.778472	6
C	0.165299	-1.349609	-0.217898	6
C	0.280549	0.156361	-0.156978	6
N	-0.346151	0.935721	-1.268318	7
C	1.538299	0.764531	0.433732	6
O	2.312109	1.337420	-0.617418	8
H	-2.478861	0.325021	1.057782	1
H	-2.586931	-1.296429	0.953372	1
H	-0.358921	-0.672649	1.820952	1
H	-0.337461	-1.800109	-1.065718	1
H	0.990309	-1.945879	0.154752	1
H	-1.360551	0.803541	-1.173668	1
H	-0.121761	0.480611	-2.154928	1
H	2.154229	0.026471	0.956672	1
H	1.277328	1.561901	1.137122	1
H	1.640139	1.749521	-1.197088	1
Es	-0.658332	-0.590897	0.778307	99
Es	-2.109220	-0.485544	0.559688	99
Es	0.280403	0.156293	-0.157035	99
Es	1.346446	1.308853	0.925986	99
Es	0.899451	0.447156	0.140580	99
Es	-0.346257	0.935192	-1.268284	99
Es	0.165242	-1.349477	-0.217809	99
Es	-0.446362	-0.644053	1.491259	99
Es	-0.231053	1.284577	-1.252713	99
Es	-0.176731	-1.644574	-0.788298	99
Es	-0.249199	-0.046491	0.397575	99
Es	0.724090	-1.749210	0.040176	99
Es	2.311777	1.337417	-0.617398	99
Es	1.947545	0.249783	0.792998	99
Es	-0.080491	0.572014	-0.794637	99
Es	2.001035	1.120800	-0.216133	99
Es	-2.178439	-0.454205	0.216320	99
Es	1.538378	0.764592	0.433541	99
Es	2.442113	1.103036	-0.781859	99
Es	0.361650	-0.613283	-0.330359	99
Es	-1.481422	-0.530466	0.670585	99
Es	1.956171	1.559156	-0.907895	99
Es	2.469285	1.551435	-0.496259	99
Es	-2.380851	-0.974273	0.817201	99
Es	-0.936664	0.853390	-1.212861	99
Es	-2.315956	-0.001258	0.877254	99
Es	-0.206006	0.651143	-1.796396	99
Es	-0.327203	-1.136117	0.345462	99
45
Properties=species:S:1:pos:R:3:Z:I:1 energy=-341.1252657936041 field_type=dipole dipole="0.000000 0.000000 0.000000" charge=0
N	-2.109351	-0.485509	0.559162	7
C	-0.658271	-0.590909	0.778472	6
C	0.165299	-1.349609	-0.217898	6
C	0.280549	0.156361	-0.156978	6
N	-0.346151	0.935721	-1.268318	7
C	1.538299	0.764531	0.433732	6
O	2.312109	1.337420	-0.617418	8
H	-2.478861	0.325021	1.057782	1
H	-2.586931	-1.296429	0.953372	1
H	-0.358921	-0.672649	1.820952	1
H	-0.337461	-1.800109	-1.065718	1
H	0.990309	-1.945879	0.154752	1
H	-1.360551	0.803541	-1.173668	1
H	-0.121761	0.480611	-2.154928	1
H	2.154229	0.026471	0.956672	1
H	1.277328	1.561901	1.137122	1
H	1.640139	1.749521	-1.197088	1
Es	-0.080264	0.572249	-0.794563	99
Es	1.346325	1.308906	0.925989	99
Es	-0.658328	-0.590896	0.778305	99
Es	-0.206024	0.650984	-1.796441	99
Es	0.899581	0.447049	0.140393	99
Es	-0.231568	1.285057	-1.252789	99
Es	-2.315702	-0.001641	0.877848	99
Es	0.361763	-0.613105	-0.330398	99
Es	0.165245	-1.349471	-0.217810	99
Es	-1.481512	-0.530723	0.670937	99
Es	-0.936316	0.852768	-1.212767	99
Es	2.000439	1.118923	-0.217318	99
Es	1.947438	0.249826	0.793013	99
Es	-0.249146	-0.046405	0.397485	99
Es	2.467173	1.550073	-0.494918	99
Es	-2.178467	-0.453619	0.215835	99
Es	-2.380980	-0.974251	0.816807	99
Es	-0.176564	-1.644423	-0.788211	99
Es	0.280404	0.156290	-0.157036	99
Es	2.444270	1.104438	-0.782307	99
Es	0.723957	-1.749176	0.039964	99
Es	1.538379	0.764592	0.433538	99
Es	1.956861	1.560875	-0.907697	99
Es	-2.109218	-0.485542	0.559746	99
Es	2.311737	1.337489	-0.617325	99
Es	-0.346250	0.935184	-1.268291	99
Es	-0.327533	-1.136533	0.345825	99
Es	-0.446300	-0.643928	1.491179	99
45
Properties=species:S:1:pos:R:3:Z:I:1 energy=-341.1252657936041 field_type=dipole dipole="0.000000 0.000000 0.000000" charge=0
N	-2.109351	-0.485509	0.559162	7
C	-0.658271	-0.590909	0.778472	6
C	0.165299	-1.349609	-0.217898	6
C	0.280549	0.156361	-0.156978	6
N	-0.346151	0.935721	-1.268318	7
C	1.538299	0.764531	0.433732	6
O	2.312109	1.337420	-0.617418	8
H	-2.478861	0.325021	1.057782	1
H	-2.586931	-1.296429	0.953372	1
H	-0.358921	-0.672649	1.820952	1
H	-0.337461	-1.800109	-1.065718	1
H	0.990309	-1.945879	0.154752	1
H	-1.360551	0.803541	-1.173668	1
H	-0.121761	0.480611	-2.154928	1
H	2.154229	0.026471	0.956672	1
H	1.277328	1.561901	1.137122	1
H	1.640139	1.749521	-1.197088	1
Es	1.346338	1.308874	0.926045	99
Es	2.470636	1.548880	-0.496312	99
Es	0.280404	0.156294	-0.157037	99
Es	0.165244	-1.349476	-0.217811	99
Es	-0.080287	0.572135	-0.794725	99
Es	-0.176465	-1.644304	-0.788040	99
Es	-0.446356	-0.644204	1.491300	99
Es	0.723841	-1.749249	0.039903	99
Es	-2.315796	-0.001030	0.877204	99
Es	-0.231286	1.284764	-1.252593	99
Es	-2.380742	-0.974238	0.817496	99
Es	2.440256	1.103067	-0.783127	99
Es	-0.327705	-1.136437	0.345698	99
Es	0.899473	0.447001	0.140408	99
Es	2.311739	1.337439	-0.617397	99
Es	1.957114	1.562044	-0.906647	99
Es	1.947430	0.249763	0.792949	99
Es	2.000689	1.120412	-0.216121	99
Es	-0.249258	-0.046449	0.397728	99
Es	-1.481421	-0.530457	0.670152	99
Es	0.362042	-0.612951	-0.330597	99
Es	1.538380	0.764593	0.433538	99
Es	-2.109234	-0.485543	0.559728	99
Es	-2.178597	-0.454432	0.216522	99
Es	-0.346262	0.935182	-1.268294	99
Es	-0.658329	-0.590894	0.778306	99
Es	-0.936552	0.853055	-1.212811	99
Es	-0.205894	0.651149	-1.796472	99
45
Properties=species:S:1:pos:R:3:Z:I:1 energy=-341.1252657936041 field_type=dipole dipole="0.000000 0.000000 0.000000" charge=0
N	-2.109351	-0.485509	0.559162	7
C	-0.658271	-0.590909	0.778472	6
C	0.165299	-1.349609	-0.217898	6
C	0.280549	0.156361	-0.156978	6
N	-0.346151	0.935721	-1.268318	7
C	1.538299	0.764531	0.433732	6
O	2.312109	1.337420	-0.617418	8
H	-2.478861	0.325021	1.057782	1
H	-2.586931	-1.296429	0.953372	1
H	-0.358921	-0.672649	1.820952	1
H	-0.337461	-1.800109	-1.065718	1
H	0.990309	-1.945879	0.154752	1
H	-1.360551	0.803541	-1.173668	1
H	-0.121761	0.480611	-2.154928	1
H	2.154229	0.026471	0.956672	1
H	1.277328	1.561901	1.137122	1
H	1.640139	1.749521	-1.197088	1
Es	-0.231709	1.285076	-1.251823	99
Es	1.538379	0.764593	0.433540	99
Es	-0.080529	0.571944	-0.795052	99
Es	0.165247	-1.349474	-0.217816	99
Es	0.280401	0.156295	-0.157034	99
Es	0.899581	0.446980	0.140454	99
Es	2.000545	1.119204	-0.216784	99
Es	-0.936258	0.852442	-1.212894	99
Es	1.947432	0.249791	0.792974	99
Es	-0.176446	-1.644353	-0.788003	99
Es	2.466361	1.549900	-0.495438	99
Es	-0.205540	0.651632	-1.796842	99
Es	-0.446391	-0.644217	1.491230	99
Es	0.723803	-1.749142	0.039822	99
Es	0.362221	-0.612720	-0.330713	99
Es	1.956902	1.560759	-0.907523	99
Es	-2.178039	-0.454306	0.216330	99
Es	-1.481713	-0.530556	0.670725	99
Es	-2.109213	-0.485551	0.559727	99
Es	1.346188	1.308924	0.926022	99
Es	-2.380991	-0.974443	0.817354	99
Es	-0.346270	0.935191	-1.268296	99
Es	-0.327754	-1.136467	0.345960	99
Es	-0.658326	-0.590894	0.778305	99
Es	-0.249270	-0.046622	0.397681	99
Es	2.444851	1.104529	-0.782484	99
Es	2.311772	1.337440	-0.617407	99
Es	-2.315832	-0.000965	0.876981	99
45
Properties=species:S:1:pos:R:3:Z:I:1 energy=-341.1252657936041 field_type=dipole dipole="0.000000 0.000000 0.000000" charge=0
N	-2.109351	-0.485509	0.559162	7
C	-0.658271	-0.590909	0.778472	6
C	0.165299	-1.349609	-0.217898	6
C	0.280549	0.156361	-0.156978	6
N	-0.346151	0.935721	-1.268318	7
C	1.538299	0.764531	0.433732	6
O	2.312109	1.337420	-0.617418	8
H	-2.478861	0.325021	1.057782	1
H	-2.586931	-1.296429	0.953372	1
H	-0.358921	-0.672649	1.820952	1
H	-0.337461	-1.800109	-1.065718	1
H	0.990309	-1.945879	0.154752	1
H	-1.360551	0.803541	-1.173668	1
H	-0.121761	0.480611	-2.154928	1
H	2.154229	0.026471	0.956672	1
H	1.277328	1.561901	1.137122	1
H	1.640139	1.749521	-1.197088	1
Es	-0.346255	0.935212	-1.268294	99
Es	-0.080554	0.572229	-0.794960	99
Es	-1.481688	-0.530497	0.670431	99
Es	-0.231325	1.285207	-1.252265	99
Es	1.538378	0.764595	0.433541	99
Es	-0.249218	-0.046502	0.397650	99
Es	2.444967	1.104760	-0.782878	99
Es	1.346194	1.308865	0.926093	99
Es	-2.315288	-0.001808	0.877944	99
Es	2.311725	1.337444	-0.617349	99
Es	-0.205767	0.651026	-1.796543	99
Es	-2.381155	-0.974846	0.816863	99
Es	-0.936343	0.852667	-1.212790	99
Es	0.723729	-1.749104	0.039767	99
Es	0.362196	-0.612818	-0.330818	99
Es	1.947309	0.249754	0.792899	99
Es	-0.658333	-0.590908	0.778308	99
Es	0.165243	-1.349475	-0.217810	99
Es	-2.178402	-0.453074	0.216244	99
Es	-0.176413	-1.644358	-0.787942	99
Es	1.957455	1.562502	-0.907237	99
Es	2.465919	1.548181	-0.495417	99
Es	2.000442	1.118984	-0.216775	99
Es	-2.109231	-0.485550	0.559678	99
Es	-0.446394	-0.644158	1.491201	99
Es	0.280403	0.156295	-0.157037	99
Es	0.899648	0.446937	0.140398	99
Es	-0.327841	-1.136571	0.346094	99
45
Properties=species:S:1:pos:R:3:Z:I:1 energy=-341.1252657936041 field_type=dipole dipole="0.000000 0.000000 0.000000" charge=0
N	-2.109351	-0.485509	0.559162	7
C	-0.658271	-0.590909	0.778472	6
C	0.165299	-1.349609	-0.217898	6
C	0.280549	0.156361	-0.156978	6
N	-0.346151	0.935721	-1.268318	7
C	1.538299	0.764531	0.433732	6
O	2.312109	1.337420	-0.617418	8
H	-2.478861	0.325021	1.057782	1
H	-2.586931	-1.296429	0.953372	1
H	-0.358921	-0.672649	1.820952	1
H	-0.337461	-1.800109	-1.065718	1
H	0.990309	-1.945879	0.154752	1
H	-1.360551	0.803541	-1.173668	1
H	-0.121761	0.480611	-2.154928	1
H	2.154229	0.026471	0.956672	1
H	1.277328	1.561901	1.137122	1
H	1.640139	1.749521	-1.197088	1
Es	-2.380871	-0.974684	0.817403	99
Es	-0.205634	0.651473	-1.796789	99
Es	-0.249213	-0.046382	0.397673	99
Es	-2.315430	-0.001315	0.877508	99
Es	0.165244	-1.349481	-0.217811	99
Es	-1.481544	-0.530549	0.669850	99
Es	-2.109221	-0.485544	0.559711	99
Es	0.899565	0.446950	0.140310	99
Es	0.362353	-0.612644	-0.330818	99
Es	-0.658322	-0.590894	0.778302	99
Es	2.000673	1.120284	-0.215912	99
Es	1.947284	0.249617	0.792852	99
Es	2.311841	1.337434	-0.617395	99
Es	-0.936335	0.852667	-1.212815	99
Es	-0.328087	-1.136596	0.346162	99
Es	-0.346260	0.935184	-1.268293	99
Es	-0.176266	-1.644184	-0.787796	99
Es	-2.178688	-0.453824	0.216689	99
Es	0.280402	0.156295	-0.157035	99
Es	1.957487	1.562811	-0.906159	99
Es	1.538380	0.764593	0.433539	99
Es	1.346120	1.308893	0.926134	99
Es	-0.080408	0.572045	-0.795090	99
Es	-0.446348	-0.644314	1.491254	99
Es	2.441158	1.103315	-0.783741	99
Es	-0.231522	1.284967	-1.251966	99
Es	0.723718	-1.749166	0.039668	99
Es	2.469326	1.548039	-0.496446	99
45
Properties=species:S:1:pos:R:3:Z:I:1 energy=-341.1252657936041 field_type=dipole dipole="0.000000 0.000000 0.000000" charge=0
N	-2.109351	-0.485509	0.559162	7
C	-0.658271	-0.590909	0.778472	6
C	0.165299	-1.349609	-0.217898	6
C	0.280549	0.156361	-0.156978	6
N	-0.346151	0.935721	-1.268318	7
C	1.538299	0.764531	0.433732	6
O	2.312109	1.337420	-0.617418	8
H	-2.478861	0.325021	1.057782	1
H	-2.586931	-1.296429	0.953372	1
H	-0.358921	-0.672649	1.820952	1
H	-0.337461	-1.800109	-1.065718	1
H	0.990309	-1.945879	0.154752	1
H	-1.360551	0.803541	-1.173668	1
H	-0.121761	0.480611	-2.154928	1
H	2.154229	0.026471	0.956672	1
H	1.277328	1.561901	1.137122	1
H	1.640139	1.749521	-1.197088	1
Es	-2.315353	-0.001216	0.877323	99
Es	0.362283	-0.612746	-0.330997	99
Es	2.000939	1.119165	-0.216094	99
Es	-0.080469	0.572145	-0.794943	99
Es	2.468279	1.549058	-0.496230	99
Es	-2.109224	-0.485549	0.559739	99
Es	-0.936261	0.852627	-1.212935	99
Es	0.899804	0.446750	0.140190	99
Es	1.345948	1.308894	0.926052	99
Es	0.165243	-1.349478	-0.217810	99
Es	1.957225	1.561839	-0.906171	99
Es	2.442265	1.104449	-0.783812	99
Es	-2.179178	-0.454216	0.216848	99
Es	-0.346259	0.935182	-1.268287	99
Es	2.311791	1.337390	-0.617388	99
Es	-2.380555	-0.974538	0.818010	99
Es	-1.481348	-0.530267	0.669223	99
Es	-0.176197	-1.644209	-0.787689	99
Es	-0.446440	-0.644324	1.491244	99
Es	-0.249153	-0.046219	0.397857	99
Es	-0.658331	-0.590895	0.778307	99
Es	0.280406	0.156293	-0.157033	99
Es	-0.328220	-1.136661	0.346163	99
Es	1.947276	0.249632	0.792933	99
Es	0.723669	-1.749144	0.039696	99
Es	-0.231608	1.285015	-1.251958	99
Es	1.538379	0.764592	0.433541	99
Es	-0.205511	0.651421	-1.796787	99
