43
Properties=species:S:1:pos:R:3:Z:I:1 energy=-323.96276343169217 field_type=dipole dipole="0.000000 0.000000 0.000000" charge=0
N	-1.796681	0.489437	-0.636108	7
C	-0.343261	0.466747	-0.582998	6
C	0.263619	1.545897	0.312733	6
O	1.590179	1.084978	0.609513	8
C	1.492719	-0.341403	0.765752	6
C	0.248079	-0.758103	0.040383	6
C	-0.248241	-2.004703	0.043862	6
H	-2.111061	-0.207622	-1.308228	1
H	-2.107181	1.389167	-0.998028	1
H	0.068379	0.571217	-1.594827	1
H	-0.280691	1.667297	1.257822	1
H	0.317649	2.518988	-0.185618	1
H	2.392169	-0.795642	0.341112	1
H	1.429389	-0.565933	1.835472	1
H	-1.174311	-2.249292	-0.465218	1
H	0.259239	-2.811032	0.564372	1
Es	1.589819	1.084752	0.609536	99
Es	-0.248265	-2.004777	0.043852	99
Es	0.094736	-2.552983	0.395538	99
Es	-1.936327	0.432674	-0.319685	99
Es	-1.796431	0.489556	-0.636692	99
Es	2.097615	-0.657689	0.477323	99
Es	-0.343384	0.466724	-0.582960	99
Es	-1.971385	0.076143	-1.056026	99
Es	-0.120829	1.621237	0.955981	99
Es	0.872542	-0.568236	0.398866	99
Es	-0.050107	0.531699	-1.269201	99
Es	0.263823	1.545805	0.312747	99
Es	0.164151	-1.469958	-0.238835	99
Es	1.743874	1.122648	0.346865	99
Es	0.298046	2.211664	-0.030798	99
Es	-1.964965	1.032422	-0.873770	99
Es	1.528728	0.544502	0.671693	99
Es	1.492691	-0.341196	0.765700	99
Es	-0.874304	-2.174482	-0.303958	99
Es	0.248148	-0.757982	0.040377	99
Es	1.440144	-0.507470	1.491630	99
Es	-1.160941	0.481619	-0.633282	99
Es	1.076644	1.241458	0.503268	99
Es	-0.069941	-0.169339	-0.280945	99
Es	1.680323	1.208895	0.876470	99
Es	-0.067495	1.017190	-0.141858	99
Es	-0.179044	-1.333657	0.308894	99
43
Properties=species:S:1:pos:R:3:Z:I:1 energy=-323.96276343169217 field_type=dipole dipole="0.000000 0.000000 0.000000" charge=0
N	-1.796681	0.489437	-0.636108	7
C	-0.343261	0.466747	-0.582998	6
C	0.263619	1.545897	0.312733	6
O	1.590179	1.084978	0.609513	8
C	1.492719	-0.341403	0.765752	6
C	0.248079	-0.758103	0.040383	6
C	-0.248241	-2.004703	0.043862	6
H	-2.111061	-0.207622	-1.308228	1
H	-2.107181	1.389167	-0.998028	1
H	0.068379	0.571217	-1.594827	1
H	-0.280691	1.667297	1.257822	1
H	0.317649	2.518988	-0.185618	1
H	2.392169	-0.795642	0.341112	1
H	1.429389	-0.565933	1.835472	1
H	-1.174311	-2.249292	-0.465218	1
H	0.259239	-2.811032	0.564372	1
Es	2.096879	-0.657532	0.478074	99
Es	0.248146	-0.757984	0.040379	99
Es	1.530184	0.540700	0.670413	99
Es	-0.069326	-0.170560	-0.281439	99
Es	1.078157	1.242787	0.502388	99
Es	0.263824	1.545806	0.312746	99
Es	-1.974324	0.070973	-1.052557	99
Es	1.440494	-0.507587	1.490912	99
Es	-1.930301	0.435509	-0.324282	99
Es	-0.873817	-2.174072	-0.303492	99
Es	-0.067892	1.017839	-0.141517	99
Es	-0.179223	-1.333836	0.309212	99
Es	0.164233	-1.470184	-0.239186	99
Es	0.297766	2.213846	-0.030522	99
Es	-0.248266	-2.004779	0.043852	99
Es	-0.051468	0.531657	-1.267666	99
Es	1.680483	1.210693	0.874457	99
Es	0.094788	-2.553643	0.395726	99
Es	1.589849	1.084768	0.609516	99
Es	-1.966450	1.035481	-0.873201	99
Es	1.492692	-0.341188	0.765700	99
Es	0.871789	-0.569165	0.398280	99
Es	1.740383	1.124136	0.351275	99
Es	-0.343380	0.466725	-0.582959	99
Es	-1.796424	0.489551	-0.636650	99
Es	-0.119234	1.620220	0.954570	99
Es	-1.161696	0.481058	-0.633296	99
43
Properties=species:S:1:pos:R:3:Z:I:1 energy=-323.96276343169217 field_type=dipole dipole="0.000000 0.000000 0.000000" charge=0
N	-1.796681	0.489437	-0.636108	7
C	-0.343261	0.466747	-0.582998	6
C	0.263619	1.545897	0.312733	6
O	1.590179	1.084978	0.609513	8
C	1.492719	-0.341403	0.765752	6
C	0.248079	-0.758103	0.040383	6
C	-0.248241	-2.004703	0.043862	6
H	-2.111061	-0.207622	-1.308228	1
H	-2.107181	1.389167	-0.998028	1
H	0.068379	0.571217	-1.594827	1
H	-0.280691	1.667297	1.257822	1
H	0.317649	2.518988	-0.185618	1
H	2.392169	-0.795642	0.341112	1
H	1.429389	-0.565933	1.835472	1
H	-1.174311	-2.249292	-0.465218	1
H	0.259239	-2.811032	0.564372	1
Es	-0.068147	1.018424	-0.141299	99
Es	2.096337	-0.657416	0.478520	99
Es	-1.924894	0.438627	-0.329041	99
Es	1.079580	1.243126	0.501951	99
Es	1.679054	1.211372	0.872947	99
Es	-0.873553	-2.173701	-0.303054	99
Es	0.871439	-0.569756	0.397743	99
Es	-0.179434	-1.334062	0.309490	99
Es	-0.068824	-0.171254	-0.281892	99
Es	0.297584	2.215380	-0.030102	99
Es	1.740524	1.124789	0.352119	99
Es	1.529758	0.539412	0.671662	99
Es	0.263823	1.545802	0.312751	99
Es	-0.052439	0.531411	-1.266635	99
Es	0.248146	-0.757979	0.040379	99
Es	0.164388	-1.470256	-0.239485	99
Es	-0.248266	-2.004781	0.043853	99
Es	-1.796418	0.489552	-0.636671	99
Es	-1.967257	1.037483	-0.872232	99
Es	1.589875	1.084761	0.609447	99
Es	-0.343385	0.466725	-0.582959	99
Es	1.492691	-0.341186	0.765699	99
Es	-0.117991	1.619478	0.953364	99
Es	-1.162326	0.480688	-0.633182	99
Es	0.094567	-2.554054	0.395964	99
Es	-1.977612	0.066277	-1.049063	99
Es	1.440643	-0.507645	1.490457	99
43
Properties=species:S:1:pos:R:3:Z:I:1 energy=-323.96276343169217 field_type=dipole dipole="0.000000 0.000000 0.000000" charge=0
N	-1.796681	0.489437	-0.636108	7
C	-0.343261	0.466747	-0.582998	6
C	0.263619	1.545897	0.312733	6
O	1.590179	1.084978	0.609513	8
C	1.492719	-0.341403	0.765752	6
C	0.248079	-0.758103	0.040383	6
C	-0.248241	-2.004703	0.043862	6
H	-2.111061	-0.207622	-1.308228	1
H	-2.107181	1.389167	-0.998028	1
H	0.068379	0.571217	-1.594827	1
H	-0.280691	1.667297	1.257822	1
H	0.317649	2.518988	-0.185618	1
H	2.392169	-0.795642	0.341112	1
H	1.429389	-0.565933	1.835472	1
H	-1.174311	-2.249292	-0.465218	1
H	0.259239	-2.811032	0.564372	1
Es	2.095961	-0.657357	0.478915	99
Es	1.529394	0.538518	0.673151	99
Es	0.248148	-0.757978	0.040377	99
Es	1.680102	1.213749	0.871242	99
Es	-0.053149	0.531211	-1.265617	99
Es	-0.343380	0.466724	-0.582961	99
Es	0.870920	-0.570309	0.397256	99
Es	-1.796431	0.489552	-0.636661	99
Es	1.492692	-0.341184	0.765700	99
Es	-0.068235	1.018732	-0.141120	99
Es	-1.162910	0.480315	-0.634138	99
Es	0.164676	-1.470411	-0.239933	99
Es	-1.967654	1.038783	-0.871849	99
Es	1.440818	-0.507551	1.489995	99
Es	0.297477	2.216280	-0.029886	99
Es	1.738421	1.123460	0.352936	99
Es	-0.179715	-1.334154	0.309929	99
Es	-1.921250	0.440423	-0.331616	99
Es	0.094241	-2.554338	0.396225	99
Es	1.080884	1.243342	0.501171	99
Es	-0.873334	-2.173393	-0.302564	99
Es	-0.068254	-0.171765	-0.282382	99
Es	0.263821	1.545807	0.312746	99
Es	-0.248265	-2.004781	0.043853	99
Es	-1.979765	0.063626	-1.046201	99
Es	1.589771	1.084799	0.609670	99
Es	-0.117120	1.619119	0.952496	99
43
Properties=species:S:1:pos:R:3:Z:I:1 energy=-323.96276343169217 field_type=dipole dipole="0.000000 0.000000 0.000000" charge=0
N	-1.796681	0.489437	-0.636108	7
C	-0.343261	0.466747	-0.582998	6
C	0.263619	1.545897	0.312733	6
O	1.590179	1.084978	0.609513	8
C	1.492719	-0.341403	0.765752	6
C	0.248079	-0.758103	0.040383	6
C	-0.248241	-2.004703	0.043862	6
H	-2.111061	-0.207622	-1.308228	1
H	-2.107181	1.389167	-0.998028	1
H	0.068379	0.571217	-1.594827	1
H	-0.280691	1.667297	1.257822	1
H	0.317649	2.518988	-0.185618	1
H	2.392169	-0.795642	0.341112	1
H	1.429389	-0.565933	1.835472	1
H	-1.174311	-2.249292	-0.465218	1
H	0.259239	-2.811032	0.564372	1
Es	1.081521	1.243280	0.504290	99
Es	-0.068412	1.019051	-0.141056	99
Es	1.676461	1.210546	0.870363	99
Es	1.529467	0.537652	0.672365	99
Es	1.492691	-0.341185	0.765699	99
Es	0.164854	-1.470374	-0.240048	99
Es	-1.982287	0.060359	-1.042816	99
Es	-0.248270	-2.004770	0.043863	99
Es	-0.343385	0.466724	-0.582959	99
Es	1.589827	1.084764	0.609553	99
Es	1.441047	-0.507595	1.489836	99
Es	0.263822	1.545807	0.312745	99
Es	0.870698	-0.570801	0.396666	99
Es	-1.918247	0.443327	-0.335440	99
Es	-0.053799	0.530929	-1.264905	99
Es	-1.967133	1.039666	-0.872080	99
Es	-1.163372	0.479890	-0.633532	99
Es	-0.068061	-0.172224	-0.282642	99
Es	1.741136	1.127830	0.351623	99
Es	0.094003	-2.554548	0.396407	99
Es	0.297411	2.216986	-0.029553	99
Es	-0.873151	-2.173168	-0.302427	99
Es	2.095482	-0.657047	0.479299	99
Es	-0.116291	1.618898	0.951630	99
Es	0.248149	-0.757977	0.040376	99
Es	-0.179885	-1.334363	0.310158	99
Es	-1.796413	0.489559	-0.636684	99
43
Properties=species:S:1:pos:R:3:Z:I:1 energy=-323.96276343169217 field_type=dipole dipole="0.000000 0.000000 0.000000" charge=0
N	-1.796681	0.489437	-0.636108	7
C	-0.343261	0.466747	-0.582998	6
C	0.263619	1.545897	0.312733	6
O	1.590179	1.084978	0.609513	8
C	1.492719	-0.341403	0.765752	6
C	0.248079	-0.758103	0.040383	6
C	-0.248241	-2.004703	0.043862	6
H	-2.111061	-0.207622	-1.308228	1
H	-2.107181	1.389167	-0.998028	1
H	0.068379	0.571217	-1.594827	1
H	-0.280691	1.667297	1.257822	1
H	0.317649	2.518988	-0.185618	1
H	2.392169	-0.795642	0.341112	1
H	1.429389	-0.565933	1.835472	1
H	-1.174311	-2.249292	-0.465218	1
H	0.259239	-2.811032	0.564372	1
Es	1.673998	1.210815	0.870490	99
Es	-0.873097	-2.172960	-0.301913	99
Es	-0.343382	0.466724	-0.582959	99
Es	-1.967308	1.040244	-0.871893	99
Es	-0.067764	-0.172452	-0.282818	99
Es	1.528999	0.537500	0.673284	99
Es	0.093799	-2.554699	0.396509	99
Es	0.248148	-0.757979	0.040377	99
Es	-1.983835	0.058410	-1.040407	99
Es	2.095148	-0.656898	0.479612	99
Es	0.164968	-1.470660	-0.240562	99
Es	-0.248265	-2.004787	0.043849	99
Es	-0.115780	1.618678	0.951048	99
Es	1.492692	-0.341184	0.765699	99
Es	-1.163674	0.479784	-0.633994	99
Es	1.742840	1.128342	0.352385	99
Es	0.263821	1.545806	0.312746	99
Es	1.441269	-0.507525	1.489516	99
Es	-0.179895	-1.334249	0.310337	99
Es	-1.796418	0.489559	-0.636673	99
Es	0.870324	-0.571237	0.396460	99
Es	-0.068447	1.019362	-0.141027	99
Es	1.082484	1.242891	0.502513	99
Es	-0.054223	0.530687	-1.264271	99
Es	0.297417	2.217504	-0.029358	99
Es	1.589872	1.084770	0.609516	99
Es	-1.915827	0.444770	-0.337733	99
43
Properties=species:S:1:pos:R:3:Z:I:1 energy=-323.96276343169217 field_type=dipole dipole="0.000000 0.000000 0.000000" charge=0
N	-1.796681	0.489437	-0.636108	7
C	-0.343261	0.466747	-0.582998	6
C	0.263619	1.545897	0.312733	6
O	1.590179	1.084978	0.609513	8
C	1.492719	-0.341403	0.765752	6
C	0.248079	-0.758103	0.040383	6
C	-0.248241	-2.004703	0.043862	6
H	-2.111061	-0.207622	-1.308228	1
H	-2.107181	1.389167	-0.998028	1
H	0.068379	0.571217	-1.594827	1
H	-0.280691	1.667297	1.257822	1
H	0.317649	2.518988	-0.185618	1
H	2.392169	-0.795642	0.341112	1
H	1.429389	-0.565933	1.835472	1
H	-1.174311	-2.249292	-0.465218	1
H	0.259239	-2.811032	0.564372	1
Es	-0.115261	1.618515	0.950546	99
Es	1.492693	-0.341182	0.765698	99
Es	1.441086	-0.507493	1.489351	99
Es	1.589911	1.084805	0.609475	99
Es	-0.180043	-1.334462	0.310580	99
Es	0.248148	-0.757977	0.040378	99
Es	-1.985511	0.056593	-1.037913	99
Es	-1.966723	1.040649	-0.872256	99
Es	0.870309	-0.571517	0.396021	99
Es	0.263822	1.545806	0.312746	99
Es	1.678470	1.213376	0.868631	99
Es	-1.913815	0.446479	-0.339478	99
Es	0.165153	-1.470565	-0.240774	99
Es	2.095044	-0.656910	0.479838	99
Es	-0.248265	-2.004782	0.043851	99
Es	1.083108	1.243029	0.504971	99
Es	0.297375	2.217915	-0.029127	99
Es	-0.068533	1.019527	-0.141026	99
Es	-0.873027	-2.172716	-0.301597	99
Es	-1.164295	0.479560	-0.634514	99
Es	-1.796420	0.489555	-0.636656	99
Es	1.528442	0.537255	0.674588	99
Es	-0.067479	-0.172612	-0.283039	99
Es	-0.343380	0.466724	-0.582960	99
Es	0.093491	-2.554848	0.396687	99
Es	1.738127	1.126006	0.350442	99
Es	-0.054564	0.530487	-1.263731	99
43
Properties=species:S:1:pos:R:3:Z:I:1 energy=-323.96276343169217 field_type=dipole dipole="0.000000 0.000000 0.000000" charge=0
N	-1.796681	0.489437	-0.636108	7
C	-0.343261	0.466747	-0.582998	6
C	0.263619	1.545897	0.312733	6
O	1.590179	1.084978	0.609513	8
C	1.492719	-0.341403	0.765752	6
C	0.248079	-0.758103	0.040383	6
C	-0.248241	-2.004703	0.043862	6
H	-2.111061	-0.207622	-1.308228	1
H	-2.107181	1.389167	-0.998028	1
H	0.068379	0.571217	-1.594827	1
H	-0.280691	1.667297	1.257822	1
H	0.317649	2.518988	-0.185618	1
H	2.392169	-0.795642	0.341112	1
H	1.429389	-0.565933	1.835472	1
H	-1.174311	-2.249292	-0.465218	1
H	0.259239	-2.811032	0.564372	1
Es	-0.343383	0.466724	-0.582959	99
Es	-0.068624	1.019498	-0.140930	99
Es	1.492692	-0.341184	0.765698	99
Es	-0.054769	0.530507	-1.263506	99
Es	-1.966586	1.040953	-0.872576	99
Es	1.589996	1.084795	0.609510	99
Es	0.263821	1.545807	0.312746	99
Es	1.682565	1.216471	0.867707	99
Es	-0.114888	1.618391	0.950174	99
Es	1.083403	1.242521	0.506230	99
Es	0.870027	-0.571759	0.395742	99
Es	-0.248267	-2.004782	0.043853	99
Es	1.441164	-0.507477	1.489286	99
Es	0.093209	-2.555027	0.396847	99
Es	2.094851	-0.656892	0.479828	99
Es	0.297473	2.218248	-0.028971	99
Es	-1.164800	0.479467	-0.635253	99
Es	0.248150	-0.757978	0.040376	99
Es	-0.067143	-0.172656	-0.283224	99
Es	-0.872973	-2.172434	-0.301183	99
Es	1.733509	1.123524	0.349167	99
Es	-1.796406	0.489557	-0.636677	99
Es	0.165354	-1.470620	-0.241082	99
Es	-1.911498	0.448127	-0.341401	99
Es	-1.987279	0.054791	-1.034876	99
Es	1.528327	0.537221	0.675385	99
Es	-0.180061	-1.334576	0.310822	99
43
Properties=species:S:1:pos:R:3:Z:I:1 energy=-323.96276343169217 field_type=dipole dipole="0.000000 0.000000 0.000000" charge=0
N	-1.796681	0.489437	-0.636108	7
C	-0.343261	0.466747	-0.582998	6
C	0.263619	1.545897	0.312733	6
O	1.590179	1.084978	0.609513	8
C	1.492719	-0.341403	0.765752	6
C	0.248079	-0.758103	0.040383	6
C	-0.248241	-2.004703	0.043862	6
H	-2.111061	-0.207622	-1.308228	1
H	-2.107181	1.389167	-0.998028	1
H	0.068379	0.571217	-1.594827	1
H	-0.280691	1.667297	1.257822	1
H	0.317649	2.518988	-0.185618	1
H	2.392169	-0.795642	0.341112	1
H	1.429389	-0.565933	1.835472	1
H	-1.174311	-2.249292	-0.465218	1
H	0.259239	-2.811032	0.564372	1
Es	1.743921	1.131015	0.351205	99
Es	-1.165114	0.479201	-0.634491	99
Es	-0.114390	1.618377	0.949624	99
Es	2.094448	-0.656567	0.480141	99
Es	0.093222	-2.554988	0.396827	99
Es	1.084154	1.242173	0.504367	99
Es	-1.987953	0.053706	-1.033670	99
Es	-0.343384	0.466725	-0.582960	99
Es	0.165372	-1.470775	-0.240995	99
Es	-0.248266	-2.004781	0.043853	99
Es	-0.872908	-2.172522	-0.301391	99
Es	1.671409	1.209912	0.869091	99
Es	-0.067308	-0.172970	-0.283315	99
Es	1.492697	-0.341183	0.765696	99
Es	0.297463	2.218516	-0.028727	99
Es	1.441443	-0.507524	1.489202	99
Es	-0.055137	0.530133	-1.262937	99
Es	0.869916	-0.571966	0.395613	99
Es	-1.910506	0.448832	-0.343826	99
Es	0.263824	1.545805	0.312747	99
Es	1.528342	0.536784	0.673884	99
Es	-1.966216	1.041599	-0.872267	99
Es	-0.068700	1.019779	-0.140947	99
Es	-1.796413	0.489566	-0.636663	99
Es	1.589942	1.084791	0.609506	99
Es	0.248149	-0.757978	0.040376	99
Es	-0.180141	-1.334442	0.310788	99
43
Properties=species:S:1:pos:R:3:Z:I:1 energy=-323.96276343169217 field_type=dipole dipole="0.000000 0.000000 0.000000" charge=0
N	-1.796681	0.489437	-0.636108	7
C	-0.343261	0.466747	-0.582998	6
C	0.263619	1.545897	0.312733	6
O	1.590179	1.084978	0.609513	8
C	1.492719	-0.341403	0.765752	6
C	0.248079	-0.758103	0.040383	6
C	-0.248241	-2.004703	0.043862	6
H	-2.111061	-0.207622	-1.308228	1
H	-2.107181	1.389167	-0.998028	1
H	0.068379	0.571217	-1.594827	1
H	-0.280691	1.667297	1.257822	1
H	0.317649	2.518988	-0.185618	1
H	2.392169	-0.795642	0.341112	1
H	1.429389	-0.565933	1.835472	1
H	-1.174311	-2.249292	-0.465218	1
H	0.259239	-2.811032	0.564372	1
Es	1.084486	1.242036	0.504220	99
Es	-0.068721	1.019853	-0.140954	99
Es	1.492691	-0.341186	0.765700	99
Es	-1.796415	0.489560	-0.636667	99
Es	-0.055351	0.530038	-1.262592	99
Es	-0.872875	-2.172340	-0.301183	99
Es	1.743615	1.130903	0.351168	99
Es	0.165550	-1.470760	-0.241180	99
Es	0.297516	2.218695	-0.028645	99
Es	-0.180187	-1.334576	0.310880	99
Es	1.589833	1.084766	0.609574	99
Es	1.528181	0.536631	0.673877	99
Es	2.094222	-0.656486	0.480162	99
Es	0.263825	1.545802	0.312749	99
Es	1.671508	1.210449	0.869150	99
Es	0.869666	-0.572274	0.395462	99
Es	-0.067110	-0.173034	-0.283430	99
Es	1.441649	-0.507503	1.489111	99
Es	0.248147	-0.757978	0.040378	99
Es	-1.965966	1.041957	-0.872120	99
Es	-1.988973	0.052713	-1.032073	99
Es	-0.114130	1.618341	0.949354	99
Es	-0.343381	0.466725	-0.582960	99
Es	-1.909186	0.449640	-0.345443	99
Es	0.092958	-2.555069	0.397008	99
Es	-0.248268	-2.004781	0.043856	99
Es	-1.165416	0.479096	-0.634670	99
43
Properties=species:S:1:pos:R:3:Z:I:1 energy=-323.96276343169217 field_type=dipole dipole="0.000000 0.000000 0.000000" charge=0
N	-1.796681	0.489437	-0.636108	7
C	-0.343261	0.466747	-0.582998	6
C	0.263619	1.545897	0.312733	6
O	1.590179	1.084978	0.609513	8
C	1.492719	-0.341403	0.765752	6
C	0.248079	-0.758103	0.040383	6
C	-0.248241	-2.004703	0.043862	6
H	-2.111061	-0.207622	-1.308228	1
H	-2.107181	1.389167	-0.998028	1
H	0.068379	0.571217	-1.594827	1
H	-0.280691	1.667297	1.257822	1
H	0.317649	2.518988	-0.185618	1
H	2.392169	-0.795642	0.341112	1
H	1.429389	-0.565933	1.835472	1
H	-1.174311	-2.249292	-0.465218	1
H	0.259239	-2.811032	0.564372	1
Es	-0.068824	1.020049	-0.141015	99
Es	1.663769	1.205295	0.870125	99
Es	-0.248266	-2.004783	0.043854	99
Es	-1.989689	0.051817	-1.030677	99
Es	-1.965727	1.042206	-0.872124	99
Es	1.750654	1.137036	0.352621	99
Es	-1.796499	0.489577	-0.636554	99
Es	2.093867	-0.656125	0.480491	99
Es	-0.872757	-2.172305	-0.301390	99
Es	0.869651	-0.572484	0.395318	99
Es	0.165507	-1.470719	-0.240955	99
Es	-0.055642	0.529755	-1.262240	99
Es	1.085149	1.241419	0.504045	99
Es	-1.907993	0.450307	-0.346882	99
Es	1.492690	-0.341185	0.765700	99
Es	0.248149	-0.757978	0.040376	99
Es	0.297476	2.218934	-0.028369	99
Es	-0.343384	0.466724	-0.582960	99
Es	1.589822	1.084789	0.609418	99
Es	1.528218	0.536307	0.671879	99
Es	-0.067206	-0.173235	-0.283507	99
Es	-1.165811	0.479054	-0.634755	99
Es	0.263821	1.545807	0.312745	99
Es	-0.113717	1.618301	0.948782	99
Es	0.093044	-2.555192	0.396943	99
Es	1.441864	-0.507566	1.489101	99
Es	-0.180305	-1.334589	0.310763	99
43
Properties=species:S:1:pos:R:3:Z:I:1 energy=-323.96276343169217 field_type=dipole dipole="0.000000 0.000000 0.000000" charge=0
N	-1.796681	0.489437	-0.636108	7
C	-0.343261	0.466747	-0.582998	6
C	0.263619	1.545897	0.312733	6
O	1.590179	1.084978	0.609513	8
C	1.492719	-0.341403	0.765752	6
C	0.248079	-0.758103	0.040383	6
C	-0.248241	-2.004703	0.043862	6
H	-2.111061	-0.207622	-1.308228	1
H	-2.107181	1.389167	-0.998028	1
H	0.068379	0.571217	-1.594827	1
H	-0.280691	1.667297	1.257822	1
H	0.317649	2.518988	-0.185618	1
H	2.392169	-0.795642	0.341112	1
H	1.429389	-0.565933	1.835472	1
H	-1.174311	-2.249292	-0.465218	1
H	0.259239	-2.811032	0.564372	1
Es	-1.990177	0.051128	-1.029890	99
Es	-0.180353	-1.334567	0.310814	99
Es	-1.165946	0.478892	-0.634071	99
Es	-1.796436	0.489540	-0.636623	99
Es	1.527754	0.536249	0.671543	99
Es	1.589825	1.084825	0.609537	99
Es	1.659633	1.202672	0.869958	99
Es	-1.965261	1.042495	-0.872030	99
Es	0.165536	-1.470757	-0.240861	99
Es	1.085551	1.241622	0.503128	99
Es	-0.068828	1.020180	-0.141124	99
Es	1.441956	-0.507645	1.489136	99
Es	2.093596	-0.655924	0.480647	99
Es	1.754747	1.139590	0.353886	99
Es	-0.113491	1.618256	0.948559	99
Es	-0.343382	0.466724	-0.582959	99
Es	-0.248266	-2.004783	0.043853	99
Es	-0.872731	-2.172370	-0.301514	99
Es	0.297524	2.219070	-0.028192	99
Es	-0.055843	0.529607	-1.261931	99
Es	0.263821	1.545807	0.312745	99
Es	-1.907654	0.450935	-0.348436	99
Es	0.093073	-2.555154	0.396950	99
Es	1.492692	-0.341187	0.765698	99
Es	-0.067216	-0.173303	-0.283563	99
Es	0.248149	-0.757979	0.040376	99
Es	0.869590	-0.572705	0.395093	99
43
Properties=species:S:1:pos:R:3:Z:I:1 energy=-323.96276343169217 field_type=dipole dipole="0.000000 0.000000 0.000000" charge=0
N	-1.796681	0.489437	-0.636108	7
C	-0.343261	0.466747	-0.582998	6
C	0.263619	1.545897	0.312733	6
O	1.590179	1.084978	0.609513	8
C	1.492719	-0.341403	0.765752	6
C	0.248079	-0.758103	0.040383	6
C	-0.248241	-2.004703	0.043862	6
H	-2.111061	-0.207622	-1.308228	1
H	-2.107181	1.389167	-0.998028	1
H	0.068379	0.571217	-1.594827	1
H	-0.280691	1.667297	1.257822	1
H	0.317649	2.518988	-0.185618	1
H	2.392169	-0.795642	0.341112	1
H	1.429389	-0.565933	1.835472	1
H	-1.174311	-2.249292	-0.465218	1
H	0.259239	-2.811032	0.564372	1
Es	1.086353	1.240984	0.502990	99
Es	-0.872596	-2.172188	-0.301250	99
Es	1.661743	1.205434	0.869768	99
Es	-0.113276	1.618253	0.948376	99
Es	-0.067126	-0.173331	-0.283587	99
Es	2.093687	-0.656096	0.480617	99
Es	-0.068780	1.020283	-0.141162	99
Es	-0.248265	-2.004782	0.043852	99
Es	0.263820	1.545809	0.312746	99
Es	-1.166140	0.478676	-0.634221	99
Es	0.092824	-2.555289	0.397036	99
Es	1.752225	1.137473	0.352494	99
Es	-1.907026	0.451451	-0.349298	99
Es	1.492691	-0.341184	0.765699	99
Es	-0.343383	0.466725	-0.582959	99
Es	1.527304	0.536338	0.673140	99
Es	0.248149	-0.757977	0.040375	99
Es	0.297503	2.219169	-0.028188	99
Es	1.589845	1.084769	0.609592	99
Es	1.441960	-0.507491	1.488896	99
Es	-1.796423	0.489573	-0.636652	99
Es	-1.964935	1.042664	-0.872251	99
Es	-0.180381	-1.334591	0.310913	99
Es	-1.990881	0.050673	-1.028669	99
Es	0.165698	-1.470831	-0.241175	99
Es	0.869289	-0.572745	0.395226	99
Es	-0.056015	0.529447	-1.261576	99
43
Properties=species:S:1:pos:R:3:Z:I:1 energy=-323.96276343169217 field_type=dipole dipole="0.000000 0.000000 0.000000" charge=0
N	-1.796681	0.489437	-0.636108	7
C	-0.343261	0.466747	-0.582998	6
C	0.263619	1.545897	0.312733	6
O	1.590179	1.084978	0.609513	8
C	1.492719	-0.341403	0.765752	6
C	0.248079	-0.758103	0.040383	6
C	-0.248241	-2.004703	0.043862	6
H	-2.111061	-0.207622	-1.308228	1
H	-2.107181	1.389167	-0.998028	1
H	0.068379	0.571217	-1.594827	1
H	-0.280691	1.667297	1.257822	1
H	0.317649	2.518988	-0.185618	1
H	2.392169	-0.795642	0.341112	1
H	1.429389	-0.565933	1.835472	1
H	-1.174311	-2.249292	-0.465218	1
H	0.259239	-2.811032	0.564372	1
Es	-1.906583	0.451697	-0.350361	99
Es	-0.872548	-2.172330	-0.301792	99
Es	-0.248267	-2.004783	0.043853	99
Es	2.093086	-0.655503	0.480851	99
Es	-1.166258	0.478815	-0.633887	99
Es	0.297580	2.219293	-0.027963	99
Es	-0.180472	-1.334526	0.310823	99
Es	-0.343382	0.466724	-0.582959	99
Es	1.764020	1.147083	0.358124	99
Es	-1.990912	0.050091	-1.028167	99
Es	1.528131	0.535789	0.669862	99
Es	1.648003	1.197568	0.870850	99
Es	0.093104	-2.555298	0.396821	99
Es	0.263821	1.545808	0.312745	99
Es	1.589994	1.084830	0.609488	99
Es	-0.113006	1.618263	0.948052	99
Es	1.492693	-0.341183	0.765698	99
Es	-0.056122	0.529411	-1.261412	99
Es	0.869380	-0.573031	0.395037	99
Es	-1.796433	0.489579	-0.636666	99
Es	0.165541	-1.470808	-0.240758	99
Es	1.442422	-0.507739	1.489104	99
Es	0.248148	-0.757978	0.040377	99
Es	1.087241	1.239718	0.499715	99
Es	-0.069049	1.020389	-0.141023	99
Es	-1.964924	1.042851	-0.872087	99
Es	-0.067344	-0.173513	-0.283591	99
43
Properties=species:S:1:pos:R:3:Z:I:1 energy=-323.96276343169217 field_type=dipole dipole="0.000000 0.000000 0.000000" charge=0
N	-1.796681	0.489437	-0.636108	7
C	-0.343261	0.466747	-0.582998	6
C	0.263619	1.545897	0.312733	6
O	1.590179	1.084978	0.609513	8
C	1.492719	-0.341403	0.765752	6
C	0.248079	-0.758103	0.040383	6
C	-0.248241	-2.004703	0.043862	6
H	-2.111061	-0.207622	-1.308228	1
H	-2.107181	1.389167	-0.998028	1
H	0.068379	0.571217	-1.594827	1
H	-0.280691	1.667297	1.257822	1
H	0.317649	2.518988	-0.185618	1
H	2.392169	-0.795642	0.341112	1
H	1.429389	-0.565933	1.835472	1
H	-1.174311	-2.249292	-0.465218	1
H	0.259239	-2.811032	0.564372	1
Es	-1.796410	0.489550	-0.636668	99
Es	1.650194	1.197801	0.870271	99
Es	1.528071	0.535711	0.669774	99
Es	2.092873	-0.655419	0.480823	99
Es	-0.056250	0.529467	-1.261328	99
Es	-0.069070	1.020298	-0.140921	99
Es	1.492691	-0.341185	0.765699	99
Es	-0.872584	-2.172293	-0.301665	99
Es	-1.905630	0.452035	-0.351348	99
Es	-1.166534	0.478803	-0.634175	99
Es	0.248149	-0.757978	0.040376	99
Es	1.087039	1.239951	0.502012	99
Es	0.263820	1.545808	0.312745	99
Es	0.165601	-1.470875	-0.240782	99
Es	-1.964847	1.043125	-0.871780	99
Es	-0.112826	1.618213	0.947818	99
Es	0.297545	2.219411	-0.027828	99
Es	-0.343383	0.466724	-0.582959	99
Es	0.092988	-2.555265	0.396973	99
Es	-1.991526	0.049560	-1.027171	99
Es	-0.180472	-1.334503	0.310756	99
Es	1.762219	1.146862	0.356519	99
Es	1.589849	1.084737	0.609425	99
Es	-0.248262	-2.004782	0.043850	99
Es	0.869278	-0.573152	0.395035	99
Es	-0.067281	-0.173616	-0.283842	99
Es	1.442622	-0.507769	1.489123	99
43
Properties=species:S:1:pos:R:3:Z:I:1 energy=-323.96276343169217 field_type=dipole dipole="0.000000 0.000000 0.000000" charge=0
N	-1.796681	0.489437	-0.636108	7
C	-0.343261	0.466747	-0.582998	6
C	0.263619	1.545897	0.312733	6
O	1.590179	1.084978	0.609513	8
C	1.492719	-0.341403	0.765752	6
C	0.248079	-0.758103	0.040383	6
C	-0.248241	-2.004703	0.043862	6
H	-2.111061	-0.207622	-1.308228	1
H	-2.107181	1.389167	-0.998028	1
H	0.068379	0.571217	-1.594827	1
H	-0.280691	1.667297	1.257822	1
H	0.317649	2.518988	-0.185618	1
H	2.392169	-0.795642	0.341112	1
H	1.429389	-0.565933	1.835472	1
H	-1.174311	-2.249292	-0.465218	1
H	0.259239	-2.811032	0.564372	1
Es	-0.248262	-2.004783	0.043847	99
Es	1.527423	0.535936	0.671038	99
Es	-0.872444	-2.172211	-0.301414	99
Es	-0.343382	0.466724	-0.582958	99
Es	-0.069033	1.020337	-0.141000	99
Es	-0.112744	1.618170	0.947719	99
Es	0.263820	1.545808	0.312745	99
Es	-1.992326	0.049003	-1.025609	99
Es	0.165575	-1.470766	-0.241076	99
Es	-0.056353	0.529443	-1.261119	99
Es	0.869447	-0.573236	0.394706	99
Es	2.093053	-0.655528	0.480979	99
Es	0.092829	-2.555336	0.397069	99
Es	-0.067092	-0.173687	-0.283760	99
Es	1.442295	-0.507683	1.488989	99
Es	-1.964532	1.043068	-0.872292	99
Es	1.758191	1.143335	0.354534	99
Es	-1.904966	0.452775	-0.352080	99
Es	1.654670	1.200964	0.870260	99
Es	0.248151	-0.757979	0.040375	99
Es	0.297540	2.219487	-0.027835	99
Es	1.492691	-0.341181	0.765699	99
Es	-1.796405	0.489567	-0.636688	99
Es	1.589839	1.084755	0.609480	99
Es	-1.166660	0.478651	-0.634484	99
Es	-0.180589	-1.334591	0.310934	99
Es	1.087129	1.240175	0.502675	99
43
Properties=species:S:1:pos:R:3:Z:I:1 energy=-323.96276343169217 field_type=dipole dipole="0.000000 0.000000 0.000000" charge=0
N	-1.796681	0.489437	-0.636108	7
C	-0.343261	0.466747	-0.582998	6
C	0.263619	1.545897	0.312733	6
O	1.590179	1.084978	0.609513	8
C	1.492719	-0.341403	0.765752	6
C	0.248079	-0.758103	0.040383	6
C	-0.248241	-2.004703	0.043862	6
H	-2.111061	-0.207622	-1.308228	1
H	-2.107181	1.389167	-0.998028	1
H	0.068379	0.571217	-1.594827	1
H	-0.280691	1.667297	1.257822	1
H	0.317649	2.518988	-0.185618	1
H	2.392169	-0.795642	0.341112	1
H	1.429389	-0.565933	1.835472	1
H	-1.174311	-2.249292	-0.465218	1
H	0.259239	-2.811032	0.564372	1
Es	0.263820	1.545808	0.312744	99
Es	-0.067208	-0.173618	-0.283666	99
Es	-0.872476	-2.172109	-0.301445	99
Es	-1.796410	0.489558	-0.636671	99
Es	-0.248267	-2.004782	0.043854	99
Es	0.248149	-0.757978	0.040376	99
Es	0.297555	2.219502	-0.027835	99
Es	-1.904358	0.452624	-0.353061	99
Es	0.165760	-1.470897	-0.241075	99
Es	1.087975	1.239592	0.501577	99
Es	2.092859	-0.655370	0.481058	99
Es	-0.180516	-1.334578	0.311003	99
Es	-1.166819	0.478751	-0.634486	99
Es	1.760544	1.144937	0.355498	99
Es	1.442355	-0.507758	1.489074	99
Es	1.589719	1.084768	0.609877	99
Es	-0.056422	0.529142	-1.260908	99
Es	-0.343384	0.466726	-0.582959	99
Es	-1.992524	0.048794	-1.025439	99
Es	1.651802	1.200037	0.869767	99
Es	0.092730	-2.555395	0.397016	99
Es	0.869355	-0.573301	0.394565	99
Es	1.527246	0.535825	0.671260	99
Es	-1.964715	1.043429	-0.871551	99
Es	-0.112615	1.618226	0.947604	99
Es	-0.068981	1.020473	-0.141145	99
Es	1.492690	-0.341185	0.765700	99
43
Properties=species:S:1:pos:R:3:Z:I:1 energy=-323.96276343169217 field_type=dipole dipole="0.000000 0.000000 0.000000" charge=0
N	-1.796681	0.489437	-0.636108	7
C	-0.343261	0.466747	-0.582998	6
C	0.263619	1.545897	0.312733	6
O	1.590179	1.084978	0.609513	8
C	1.492719	-0.341403	0.765752	6
C	0.248079	-0.758103	0.040383	6
C	-0.248241	-2.004703	0.043862	6
H	-2.111061	-0.207622	-1.308228	1
H	-2.107181	1.389167	-0.998028	1
H	0.068379	0.571217	-1.594827	1
H	-0.280691	1.667297	1.257822	1
H	0.317649	2.518988	-0.185618	1
H	2.392169	-0.795642	0.341112	1
H	1.429389	-0.565933	1.835472	1
H	-1.174311	-2.249292	-0.465218	1
H	0.259239	-2.811032	0.564372	1
Es	0.297657	2.219615	-0.027618	99
Es	-1.166970	0.478660	-0.634187	99
Es	-0.056541	0.529153	-1.260828	99
Es	-1.992571	0.048416	-1.024825	99
Es	-0.872323	-2.172137	-0.301655	99
Es	-1.964380	1.043429	-0.872027	99
Es	1.589836	1.084747	0.609573	99
Es	2.092713	-0.655278	0.481096	99
Es	1.442579	-0.507745	1.489018	99
Es	0.263820	1.545808	0.312745	99
Es	1.088461	1.239208	0.499065	99
Es	-0.069049	1.020554	-0.141112	99
Es	1.492690	-0.341184	0.765699	99
Es	-0.343382	0.466723	-0.582958	99
Es	-1.904306	0.453045	-0.353481	99
Es	0.869221	-0.573372	0.394741	99
Es	-1.796416	0.489564	-0.636679	99
Es	1.527444	0.535604	0.669678	99
Es	1.645187	1.196606	0.870656	99
Es	-0.112486	1.618162	0.947433	99
Es	-0.180679	-1.334548	0.311043	99
Es	0.092810	-2.555475	0.396865	99
Es	1.766239	1.148988	0.359002	99
Es	-0.067280	-0.173727	-0.283805	99
Es	0.248150	-0.757979	0.040374	99
Es	0.165707	-1.470833	-0.240932	99
Es	-0.248266	-2.004785	0.043852	99
43
Properties=species:S:1:pos:R:3:Z:I:1 energy=-323.96276343169217 field_type=dipole dipole="0.000000 0.000000 0.000000" charge=0
N	-1.796681	0.489437	-0.636108	7
C	-0.343261	0.466747	-0.582998	6
C	0.263619	1.545897	0.312733	6
O	1.590179	1.084978	0.609513	8
C	1.492719	-0.341403	0.765752	6
C	0.248079	-0.758103	0.040383	6
C	-0.248241	-2.004703	0.043862	6
H	-2.111061	-0.207622	-1.308228	1
H	-2.107181	1.389167	-0.998028	1
H	0.068379	0.571217	-1.594827	1
H	-0.280691	1.667297	1.257822	1
H	0.317649	2.518988	-0.185618	1
H	2.392169	-0.795642	0.341112	1
H	1.429389	-0.565933	1.835472	1
H	-1.174311	-2.249292	-0.465218	1
H	0.259239	-2.811032	0.564372	1
Es	1.527631	0.535421	0.668573	99
Es	2.092368	-0.655016	0.481213	99
Es	-1.992572	0.048308	-1.024885	99
Es	0.869150	-0.573592	0.394743	99
Es	-1.963853	1.043495	-0.872154	99
Es	0.263821	1.545807	0.312745	99
Es	1.492689	-0.341184	0.765699	99
Es	-1.167019	0.478477	-0.633468	99
Es	1.088340	1.239244	0.500325	99
Es	-0.056572	0.529104	-1.260794	99
Es	1.768389	1.151932	0.359862	99
Es	-0.112307	1.618185	0.947246	99
Es	1.642888	1.193911	0.869955	99
Es	0.297689	2.219680	-0.027559	99
Es	-0.180625	-1.334529	0.310809	99
Es	1.589874	1.084688	0.609213	99
Es	1.442833	-0.507821	1.489089	99
Es	-0.248267	-2.004783	0.043853	99
Es	-1.904606	0.453238	-0.354089	99
Es	-1.796438	0.489579	-0.636634	99
Es	0.165711	-1.470887	-0.240802	99
Es	-0.343382	0.466724	-0.582959	99
Es	0.092899	-2.555422	0.396920	99
Es	0.248149	-0.757977	0.040375	99
Es	-0.069169	1.020533	-0.140947	99
Es	-0.872316	-2.172226	-0.301798	99
Es	-0.067439	-0.173671	-0.283798	99
43
Properties=species:S:1:pos:R:3:Z:I:1 energy=-323.96276343169217 field_type=dipole dipole="0.000000 0.000000 0.000000" charge=0
N	-1.796681	0.489437	-0.636108	7
C	-0.343261	0.466747	-0.582998	6
C	0.263619	1.545897	0.312733	6
O	1.590179	1.084978	0.609513	8
C	1.492719	-0.341403	0.765752	6
C	0.248079	-0.758103	0.040383	6
C	-0.248241	-2.004703	0.043862	6
H	-2.111061	-0.207622	-1.308228	1
H	-2.107181	1.389167	-0.998028	1
H	0.068379	0.571217	-1.594827	1
H	-0.280691	1.667297	1.257822	1
H	0.317649	2.518988	-0.185618	1
H	2.392169	-0.795642	0.341112	1
H	1.429389	-0.565933	1.835472	1
H	-1.174311	-2.249292	-0.465218	1
H	0.259239	-2.811032	0.564372	1
Es	1.442684	-0.507838	1.489101	99
Es	0.248151	-0.757979	0.040374	99
Es	0.092781	-2.555461	0.396959	99
Es	0.263821	1.545807	0.312745	99
Es	1.527385	0.535496	0.669321	99
Es	0.869220	-0.573492	0.394625	99
Es	-0.069153	1.020631	-0.141084	99
Es	-0.112222	1.618135	0.947106	99
Es	-0.067297	-0.173835	-0.283870	99
Es	1.492691	-0.341184	0.765699	99
Es	-1.796429	0.489580	-0.636651	99
Es	0.165776	-1.470937	-0.240817	99
Es	-1.903853	0.453225	-0.354458	99
Es	1.589785	1.084777	0.609713	99
Es	0.297649	2.219753	-0.027502	99
Es	1.088543	1.239134	0.500181	99
Es	-0.872307	-2.172146	-0.301765	99
Es	-0.056698	0.529044	-1.260550	99
Es	2.092401	-0.655046	0.481244	99
Es	-0.248266	-2.004783	0.043851	99
Es	-1.167290	0.478499	-0.634030	99
Es	1.767818	1.151064	0.359100	99
Es	-1.992915	0.048074	-1.024362	99
Es	-0.180684	-1.334498	0.310871	99
Es	1.643591	1.194754	0.869659	99
Es	-1.963932	1.043718	-0.871772	99
Es	-0.343383	0.466725	-0.582959	99
43
Properties=species:S:1:pos:R:3:Z:I:1 energy=-323.96276343169217 field_type=dipole dipole="0.000000 0.000000 0.000000" charge=0
N	-1.796681	0.489437	-0.636108	7
C	-0.343261	0.466747	-0.582998	6
C	0.263619	1.545897	0.312733	6
O	1.590179	1.084978	0.609513	8
C	1.492719	-0.341403	0.765752	6
C	0.248079	-0.758103	0.040383	6
C	-0.248241	-2.004703	0.043862	6
H	-2.111061	-0.207622	-1.308228	1
H	-2.107181	1.389167	-0.998028	1
H	0.068379	0.571217	-1.594827	1
H	-0.280691	1.667297	1.257822	1
H	0.317649	2.518988	-0.185618	1
H	2.392169	-0.795642	0.341112	1
H	1.429389	-0.565933	1.835472	1
H	-1.174311	-2.249292	-0.465218	1
H	0.259239	-2.811032	0.564372	1
Es	1.089059	1.239021	0.498310	99
Es	-1.796415	0.489569	-0.636692	99
Es	0.869157	-0.573686	0.394446	99
Es	-1.904217	0.453092	-0.354648	99
Es	0.263817	1.545811	0.312747	99
Es	0.165849	-1.471044	-0.240750	99
Es	-1.167318	0.478516	-0.633464	99
Es	-0.067563	-0.173828	-0.283741	99
Es	-0.343382	0.466725	-0.582958	99
Es	-0.180699	-1.334416	0.310918	99
Es	-0.872203	-2.172225	-0.302021	99
Es	-1.992486	0.048075	-1.024864	99
Es	-0.248268	-2.004782	0.043854	99
Es	0.248153	-0.757978	0.040378	99
Es	-0.069238	1.020593	-0.140992	99
Es	0.297666	2.219741	-0.027453	99
Es	-1.963819	1.043855	-0.871672	99
Es	1.492690	-0.341185	0.765700	99
Es	0.092868	-2.555474	0.396814	99
Es	1.774103	1.155891	0.363304	99
Es	1.527483	0.535307	0.667811	99
Es	1.636598	1.190323	0.869270	99
Es	-0.056674	0.528985	-1.260537	99
Es	-0.112143	1.618206	0.946966	99
Es	1.442986	-0.507968	1.489218	99
Es	1.589877	1.084749	0.609328	99
Es	2.091983	-0.654654	0.481462	99
43
Properties=species:S:1:pos:R:3:Z:I:1 energy=-323.96276343169217 field_type=dipole dipole="0.000000 0.000000 0.000000" charge=0
N	-1.796681	0.489437	-0.636108	7
C	-0.343261	0.466747	-0.582998	6
C	0.263619	1.545897	0.312733	6
O	1.590179	1.084978	0.609513	8
C	1.492719	-0.341403	0.765752	6
C	0.248079	-0.758103	0.040383	6
C	-0.248241	-2.004703	0.043862	6
H	-2.111061	-0.207622	-1.308228	1
H	-2.107181	1.389167	-0.998028	1
H	0.068379	0.571217	-1.594827	1
H	-0.280691	1.667297	1.257822	1
H	0.317649	2.518988	-0.185618	1
H	2.392169	-0.795642	0.341112	1
H	1.429389	-0.565933	1.835472	1
H	-1.174311	-2.249292	-0.465218	1
H	0.259239	-2.811032	0.564372	1
Es	-1.963679	1.043912	-0.871891	99
Es	-0.112009	1.618116	0.946819	99
Es	1.589924	1.084758	0.609452	99
Es	-0.343382	0.466724	-0.582958	99
Es	-0.056784	0.528987	-1.260443	99
Es	0.297590	2.219859	-0.027367	99
Es	0.248149	-0.757977	0.040374	99
Es	1.492691	-0.341189	0.765702	99
Es	1.442699	-0.507795	1.489041	99
Es	-0.872325	-2.172199	-0.301714	99
Es	1.527388	0.535450	0.669753	99
Es	-0.180734	-1.334641	0.310993	99
Es	0.869204	-0.573654	0.394425	99
Es	-0.067335	-0.173856	-0.283895	99
Es	-1.993600	0.047404	-1.022826	99
Es	0.165830	-1.470814	-0.240889	99
Es	1.766208	1.150622	0.357728	99
Es	2.092337	-0.655002	0.481367	99
Es	-1.902912	0.453805	-0.355575	99
Es	1.088804	1.238840	0.501378	99
Es	-1.796416	0.489558	-0.636666	99
Es	-1.167661	0.478457	-0.634303	99
Es	-0.069213	1.020604	-0.141005	99
Es	0.263824	1.545806	0.312745	99
Es	0.092750	-2.555387	0.397022	99
Es	1.644781	1.195615	0.869613	99
Es	-0.248266	-2.004784	0.043852	99
