42
Properties=species:S:1:pos:R:3:Z:I:1 energy=-286.9238161024564 field_type=dipole dipole="0.000000 0.000000 0.000000" charge=0
C	-2.257806	-0.090453	0.253479	6
C	-0.816856	0.067397	-0.048931	6
C	-0.068146	1.178158	0.003779	6
C	1.313594	0.916887	-0.367971	6
C	2.131944	-0.055623	0.438249	6
N	1.408194	-0.523322	-0.743771	7
C	0.055414	-1.083693	-0.461101	6
H	-2.430576	-0.995872	0.841349	1
H	-2.834946	-0.164913	-0.670881	1
H	-2.642226	0.756598	0.830629	1
H	-0.427356	2.160928	0.272259	1
H	1.806243	1.602237	-1.046821	1
H	3.209414	-0.008413	0.340479	1
H	1.780804	-0.367772	1.413419	1
H	0.105934	-1.848012	0.320279	1
H	-0.333626	-1.544132	-1.374451	1
Es	2.131800	-0.055638	0.438053	99
Es	-0.215958	-1.395679	-1.079633	99
Es	1.742910	-0.463265	-0.187220	99
Es	1.313635	0.916642	-0.367982	99
Es	-0.816929	0.067273	-0.048917	99
Es	0.826397	-0.764142	-0.585522	99
Es	1.766289	0.611204	0.181810	99
Es	-0.515519	0.709564	-0.331296	99
Es	0.085545	-1.596226	0.077961	99
Es	0.055522	-1.083613	-0.461110	99
Es	-2.365378	-0.705462	0.648572	99
Es	1.407912	-0.523094	-0.743267	99
Es	-0.409658	-0.524383	-0.252383	99
Es	-2.634379	-0.142435	-0.373231	99
Es	1.649632	1.390970	-0.820328	99
Es	-1.535832	-0.014752	0.105590	99
Es	-2.513853	0.485645	0.640806	99
Es	-0.068068	1.178250	0.003778	99
Es	1.886802	-0.269708	1.100977	99
Es	-0.304273	1.849890	0.185601	99
Es	-0.375359	0.586358	0.296438	99
Es	1.595268	-0.630258	-1.032765	99
Es	1.294448	0.124043	-0.682819	99
Es	-2.257760	-0.090455	0.253470	99
Es	2.864409	-0.027846	0.372008	99
Es	0.636362	1.082690	-0.161720	99
42
Properties=species:S:1:pos:R:3:Z:I:1 energy=-286.9238161024564 field_type=dipole dipole="0.000000 0.000000 0.000000" charge=0
C	-2.257806	-0.090453	0.253479	6
C	-0.816856	0.067397	-0.048931	6
C	-0.068146	1.178158	0.003779	6
C	1.313594	0.916887	-0.367971	6
C	2.131944	-0.055623	0.438249	6
N	1.408194	-0.523322	-0.743771	7
C	0.055414	-1.083693	-0.461101	6
H	-2.430576	-0.995872	0.841349	1
H	-2.834946	-0.164913	-0.670881	1
H	-2.642226	0.756598	0.830629	1
H	-0.427356	2.160928	0.272259	1
H	1.806243	1.602237	-1.046821	1
H	3.209414	-0.008413	0.340479	1
H	1.780804	-0.367772	1.413419	1
H	0.105934	-1.848012	0.320279	1
H	-0.333626	-1.544132	-1.374451	1
Es	-1.536341	-0.014607	0.103658	99
Es	-0.303495	1.850927	0.185624	99
Es	-0.816935	0.067272	-0.048926	99
Es	-0.375243	0.586610	0.297988	99
Es	1.407903	-0.523069	-0.743220	99
Es	0.825042	-0.770664	-0.590834	99
Es	2.131800	-0.055636	0.438052	99
Es	-2.365737	-0.706726	0.649382	99
Es	-0.068068	1.178256	0.003773	99
Es	-0.409679	-0.524964	-0.252578	99
Es	1.296126	0.127662	-0.688940	99
Es	1.763579	0.613846	0.183993	99
Es	1.887889	-0.269450	1.098329	99
Es	0.636964	1.081095	-0.159873	99
Es	0.085165	-1.596120	0.078019	99
Es	-0.216237	-1.395726	-1.079824	99
Es	-2.513185	0.485436	0.640014	99
Es	1.746256	-0.468986	-0.189850	99
Es	1.313638	0.916642	-0.367978	99
Es	-2.257761	-0.090456	0.253469	99
Es	0.055523	-1.083613	-0.461110	99
Es	-0.514678	0.708624	-0.333418	99
Es	1.591018	-0.624344	-1.019293	99
Es	2.864302	-0.027540	0.373131	99
Es	-2.633942	-0.141522	-0.373266	99
Es	1.650062	1.392627	-0.819449	99
42
Properties=species:S:1:pos:R:3:Z:I:1 energy=-286.9238161024564 field_type=dipole dipole="0.000000 0.000000 0.000000" charge=0
C	-2.257806	-0.090453	0.253479	6
C	-0.816856	0.067397	-0.048931	6
C	-0.068146	1.178158	0.003779	6
C	1.313594	0.916887	-0.367971	6
C	2.131944	-0.055623	0.438249	6
N	1.408194	-0.523322	-0.743771	7
C	0.055414	-1.083693	-0.461101	6
H	-2.430576	-0.995872	0.841349	1
H	-2.834946	-0.164913	-0.670881	1
H	-2.642226	0.756598	0.830629	1
H	-0.427356	2.160928	0.272259	1
H	1.806243	1.602237	-1.046821	1
H	3.209414	-0.008413	0.340479	1
H	1.780804	-0.367772	1.413419	1
H	0.105934	-1.848012	0.320279	1
H	-0.333626	-1.544132	-1.374451	1
Es	-0.514189	0.707892	-0.334093	99
Es	2.131788	-0.055642	0.438052	99
Es	1.407887	-0.523070	-0.743200	99
Es	-2.366014	-0.707530	0.649664	99
Es	-0.302888	1.851779	0.185769	99
Es	1.297682	0.129691	-0.692590	99
Es	-1.536536	-0.014428	0.102331	99
Es	0.055520	-1.083615	-0.461110	99
Es	1.650387	1.393822	-0.818802	99
Es	1.313635	0.916647	-0.367978	99
Es	-0.068066	1.178254	0.003779	99
Es	2.864393	-0.027584	0.374194	99
Es	0.085138	-1.595878	0.077995	99
Es	0.825137	-0.776477	-0.596825	99
Es	-2.633696	-0.140810	-0.373191	99
Es	0.637559	1.079574	-0.159012	99
Es	1.748485	-0.473600	-0.192271	99
Es	1.888591	-0.268722	1.095702	99
Es	-0.816932	0.067272	-0.048918	99
Es	1.586419	-0.617928	-1.007375	99
Es	-0.216725	-1.395863	-1.080000	99
Es	-0.375273	0.586874	0.298434	99
Es	1.761519	0.615786	0.185689	99
Es	-2.257762	-0.090457	0.253469	99
Es	-2.512767	0.485182	0.639669	99
Es	-0.409327	-0.525597	-0.252513	99
42
Properties=species:S:1:pos:R:3:Z:I:1 energy=-286.9238161024564 field_type=dipole dipole="0.000000 0.000000 0.000000" charge=0
C	-2.257806	-0.090453	0.253479	6
C	-0.816856	0.067397	-0.048931	6
C	-0.068146	1.178158	0.003779	6
C	1.313594	0.916887	-0.367971	6
C	2.131944	-0.055623	0.438249	6
N	1.408194	-0.523322	-0.743771	7
C	0.055414	-1.083693	-0.461101	6
H	-2.430576	-0.995872	0.841349	1
H	-2.834946	-0.164913	-0.670881	1
H	-2.642226	0.756598	0.830629	1
H	-0.427356	2.160928	0.272259	1
H	1.806243	1.602237	-1.046821	1
H	3.209414	-0.008413	0.340479	1
H	1.780804	-0.367772	1.413419	1
H	0.105934	-1.848012	0.320279	1
H	-0.333626	-1.544132	-1.374451	1
Es	-1.536702	-0.014446	0.101546	99
Es	-2.366400	-0.708155	0.649682	99
Es	-0.375275	0.586957	0.298614	99
Es	-2.633152	-0.140416	-0.372901	99
Es	1.759588	0.616959	0.186690	99
Es	-0.217011	-1.396025	-1.080085	99
Es	1.313635	0.916651	-0.367977	99
Es	0.055524	-1.083614	-0.461111	99
Es	-0.068064	1.178258	0.003779	99
Es	1.650825	1.394871	-0.818080	99
Es	1.750552	-0.477469	-0.193938	99
Es	0.085066	-1.595609	0.077806	99
Es	1.581266	-0.612070	-0.996905	99
Es	-0.302243	1.852385	0.185953	99
Es	-2.257761	-0.090456	0.253469	99
Es	1.407915	-0.523076	-0.743238	99
Es	-2.512766	0.485232	0.639379	99
Es	-0.513725	0.707392	-0.334653	99
Es	-0.409161	-0.525921	-0.252399	99
Es	1.298755	0.130742	-0.695459	99
Es	0.826376	-0.781170	-0.602403	99
Es	-0.816930	0.067271	-0.048911	99
Es	1.889266	-0.267863	1.093174	99
Es	2.864553	-0.027645	0.374992	99
Es	2.131798	-0.055633	0.438050	99
Es	0.638034	1.078425	-0.158202	99
42
Properties=species:S:1:pos:R:3:Z:I:1 energy=-286.9238161024564 field_type=dipole dipole="0.000000 0.000000 0.000000" charge=0
C	-2.257806	-0.090453	0.253479	6
C	-0.816856	0.067397	-0.048931	6
C	-0.068146	1.178158	0.003779	6
C	1.313594	0.916887	-0.367971	6
C	2.131944	-0.055623	0.438249	6
N	1.408194	-0.523322	-0.743771	7
C	0.055414	-1.083693	-0.461101	6
H	-2.430576	-0.995872	0.841349	1
H	-2.834946	-0.164913	-0.670881	1
H	-2.642226	0.756598	0.830629	1
H	-0.427356	2.160928	0.272259	1
H	1.806243	1.602237	-1.046821	1
H	3.209414	-0.008413	0.340479	1
H	1.780804	-0.367772	1.413419	1
H	0.105934	-1.848012	0.320279	1
H	-0.333626	-1.544132	-1.374451	1
Es	1.407942	-0.523089	-0.743279	99
Es	2.131794	-0.055637	0.438059	99
Es	0.828165	-0.784953	-0.607870	99
Es	-0.409086	-0.526048	-0.252543	99
Es	1.300194	0.131748	-0.696491	99
Es	-0.374982	0.587014	0.298629	99
Es	-1.536839	-0.014492	0.101034	99
Es	-0.217218	-1.396511	-1.080074	99
Es	1.576529	-0.607081	-0.987942	99
Es	-2.366753	-0.708716	0.649619	99
Es	2.864717	-0.027559	0.375653	99
Es	0.085016	-1.595059	0.077771	99
Es	-2.512708	0.485155	0.639199	99
Es	1.751548	-0.481098	-0.195885	99
Es	0.055519	-1.083615	-0.461110	99
Es	0.638583	1.077480	-0.158000	99
Es	1.651105	1.395634	-0.817613	99
Es	-0.068066	1.178254	0.003783	99
Es	1.757989	0.617883	0.187606	99
Es	-2.632755	-0.139951	-0.372643	99
Es	1.313636	0.916648	-0.367974	99
Es	-2.257761	-0.090456	0.253469	99
Es	1.889789	-0.267005	1.091030	99
Es	-0.816931	0.067273	-0.048921	99
Es	-0.301839	1.852821	0.185996	99
Es	-0.513623	0.706937	-0.334630	99
42
Properties=species:S:1:pos:R:3:Z:I:1 energy=-286.9238161024564 field_type=dipole dipole="0.000000 0.000000 0.000000" charge=0
C	-2.257806	-0.090453	0.253479	6
C	-0.816856	0.067397	-0.048931	6
C	-0.068146	1.178158	0.003779	6
C	1.313594	0.916887	-0.367971	6
C	2.131944	-0.055623	0.438249	6
N	1.408194	-0.523322	-0.743771	7
C	0.055414	-1.083693	-0.461101	6
H	-2.430576	-0.995872	0.841349	1
H	-2.834946	-0.164913	-0.670881	1
H	-2.642226	0.756598	0.830629	1
H	-0.427356	2.160928	0.272259	1
H	1.806243	1.602237	-1.046821	1
H	3.209414	-0.008413	0.340479	1
H	1.780804	-0.367772	1.413419	1
H	0.105934	-1.848012	0.320279	1
H	-0.333626	-1.544132	-1.374451	1
Es	1.313635	0.916654	-0.367972	99
Es	0.638815	1.076692	-0.157502	99
Es	-0.217417	-1.396923	-1.080113	99
Es	0.829718	-0.787434	-0.611395	99
Es	-0.375102	0.587084	0.298611	99
Es	-0.408929	-0.526366	-0.252583	99
Es	1.752875	-0.483624	-0.197037	99
Es	-1.536896	-0.014508	0.100633	99
Es	-0.816930	0.067271	-0.048918	99
Es	-2.257761	-0.090456	0.253468	99
Es	2.864966	-0.027470	0.376162	99
Es	-2.512692	0.485186	0.639121	99
Es	1.301050	0.132099	-0.697960	99
Es	1.651431	1.396260	-0.817166	99
Es	-0.513358	0.706699	-0.334907	99
Es	-2.367093	-0.709213	0.649445	99
Es	0.055519	-1.083616	-0.461108	99
Es	2.131802	-0.055636	0.438052	99
Es	1.890237	-0.266244	1.089084	99
Es	1.572334	-0.603490	-0.981107	99
Es	-2.632355	-0.139565	-0.372321	99
Es	1.756582	0.618376	0.187976	99
Es	-0.301273	1.853174	0.186137	99
Es	1.407900	-0.523066	-0.743199	99
Es	0.084972	-1.594565	0.077689	99
Es	-0.068064	1.178253	0.003781	99
42
Properties=species:S:1:pos:R:3:Z:I:1 energy=-286.9238161024564 field_type=dipole dipole="0.000000 0.000000 0.000000" charge=0
C	-2.257806	-0.090453	0.253479	6
C	-0.816856	0.067397	-0.048931	6
C	-0.068146	1.178158	0.003779	6
C	1.313594	0.916887	-0.367971	6
C	2.131944	-0.055623	0.438249	6
N	1.408194	-0.523322	-0.743771	7
C	0.055414	-1.083693	-0.461101	6
H	-2.430576	-0.995872	0.841349	1
H	-2.834946	-0.164913	-0.670881	1
H	-2.642226	0.756598	0.830629	1
H	-0.427356	2.160928	0.272259	1
H	1.806243	1.602237	-1.046821	1
H	3.209414	-0.008413	0.340479	1
H	1.780804	-0.367772	1.413419	1
H	0.105934	-1.848012	0.320279	1
H	-0.333626	-1.544132	-1.374451	1
Es	1.890163	-0.266398	1.090272	99
Es	-0.217551	-1.397964	-1.080134	99
Es	-2.367287	-0.709162	0.648829	99
Es	-2.513208	0.486037	0.639475	99
Es	1.755997	0.618236	0.186375	99
Es	2.864737	-0.026937	0.375662	99
Es	0.085154	-1.593500	0.077138	99
Es	-0.513984	0.706998	-0.334217	99
Es	-0.068066	1.178257	0.003785	99
Es	-0.374480	0.586617	0.298329	99
Es	1.302440	0.132102	-0.696178	99
Es	-0.816932	0.067272	-0.048917	99
Es	-2.631811	-0.139962	-0.371662	99
Es	-0.301214	1.852968	0.186997	99
Es	1.652274	1.396262	-0.816649	99
Es	1.492140	-0.563498	-0.865187	99
Es	0.638431	1.077380	-0.157606	99
Es	2.131794	-0.055637	0.438047	99
Es	1.753039	-0.484874	-0.199680	99
Es	-0.409292	-0.526033	-0.252829	99
Es	0.055521	-1.083614	-0.461112	99
Es	1.485676	-0.560351	-0.855827	99
Es	1.313634	0.916659	-0.367974	99
Es	-2.257761	-0.090456	0.253469	99
Es	0.831313	-0.789810	-0.614207	99
Es	-1.536766	-0.015017	0.100672	99
42
Properties=species:S:1:pos:R:3:Z:I:1 energy=-286.9238161024564 field_type=dipole dipole="0.000000 0.000000 0.000000" charge=0
C	-2.257806	-0.090453	0.253479	6
C	-0.816856	0.067397	-0.048931	6
C	-0.068146	1.178158	0.003779	6
C	1.313594	0.916887	-0.367971	6
C	2.131944	-0.055623	0.438249	6
N	1.408194	-0.523322	-0.743771	7
C	0.055414	-1.083693	-0.461101	6
H	-2.430576	-0.995872	0.841349	1
H	-2.834946	-0.164913	-0.670881	1
H	-2.642226	0.756598	0.830629	1
H	-0.427356	2.160928	0.272259	1
H	1.806243	1.602237	-1.046821	1
H	3.209414	-0.008413	0.340479	1
H	1.780804	-0.367772	1.413419	1
H	0.105934	-1.848012	0.320279	1
H	-0.333626	-1.544132	-1.374451	1
Es	-0.300357	1.853719	0.186144	99
Es	0.084768	-1.594108	0.077568	99
Es	1.565528	-0.597641	-0.970300	99
Es	0.639315	1.075452	-0.157210	99
Es	-0.513369	0.706227	-0.334770	99
Es	1.302276	0.132785	-0.698615	99
Es	1.890883	-0.264767	1.085709	99
Es	-1.536745	-0.014269	0.100304	99
Es	-0.217724	-1.397172	-1.080153	99
Es	-2.367673	-0.709838	0.649237	99
Es	0.055521	-1.083615	-0.461113	99
Es	1.753995	-0.487694	-0.198923	99
Es	-0.816933	0.067273	-0.048921	99
Es	1.652069	1.397317	-0.816350	99
Es	1.313636	0.916650	-0.367975	99
Es	-0.408700	-0.526706	-0.252723	99
Es	2.131799	-0.055634	0.438050	99
Es	1.754443	0.619034	0.188478	99
Es	1.407871	-0.523059	-0.743170	99
Es	0.833367	-0.791534	-0.618312	99
Es	-2.631722	-0.139080	-0.371864	99
Es	-2.257760	-0.090456	0.253469	99
Es	-0.068060	1.178249	0.003785	99
Es	-0.374734	0.587087	0.298642	99
Es	2.865257	-0.027490	0.377133	99
Es	-2.512985	0.484841	0.638751	99
42
Properties=species:S:1:pos:R:3:Z:I:1 energy=-286.9238161024564 field_type=dipole dipole="0.000000 0.000000 0.000000" charge=0
C	-2.257806	-0.090453	0.253479	6
C	-0.816856	0.067397	-0.048931	6
C	-0.068146	1.178158	0.003779	6
C	1.313594	0.916887	-0.367971	6
C	2.131944	-0.055623	0.438249	6
N	1.408194	-0.523322	-0.743771	7
C	0.055414	-1.083693	-0.461101	6
H	-2.430576	-0.995872	0.841349	1
H	-2.834946	-0.164913	-0.670881	1
H	-2.642226	0.756598	0.830629	1
H	-0.427356	2.160928	0.272259	1
H	1.806243	1.602237	-1.046821	1
H	3.209414	-0.008413	0.340479	1
H	1.780804	-0.367772	1.413419	1
H	0.105934	-1.848012	0.320279	1
H	-0.333626	-1.544132	-1.374451	1
Es	-2.257759	-0.090456	0.253468	99
Es	2.131788	-0.055637	0.438042	99
Es	1.302822	0.132907	-0.698681	99
Es	-0.374860	0.587066	0.298721	99
Es	-0.513074	0.706100	-0.335050	99
Es	-0.300135	1.853818	0.186230	99
Es	-0.816940	0.067274	-0.048922	99
Es	-0.068065	1.178255	0.003781	99
Es	-0.217791	-1.397531	-1.080187	99
Es	1.407978	-0.523115	-0.743311	99
Es	1.313636	0.916645	-0.367973	99
Es	-0.408606	-0.526705	-0.252647	99
Es	-2.368167	-0.710230	0.649033	99
Es	0.834559	-0.792664	-0.620458	99
Es	0.639691	1.075020	-0.156997	99
Es	-2.512907	0.484697	0.638646	99
Es	1.562521	-0.595368	-0.966269	99
Es	-1.536762	-0.014472	0.100155	99
Es	0.055516	-1.083616	-0.461114	99
Es	-2.631385	-0.138603	-0.371606	99
Es	1.652211	1.397721	-0.816059	99
Es	1.754741	-0.489590	-0.199816	99
Es	1.891171	-0.264117	1.084349	99
Es	2.865313	-0.027526	0.377463	99
Es	0.084819	-1.593730	0.077423	99
Es	1.753649	0.619430	0.188651	99
42
Properties=species:S:1:pos:R:3:Z:I:1 energy=-286.9238161024564 field_type=dipole dipole="0.000000 0.000000 0.000000" charge=0
C	-2.257806	-0.090453	0.253479	6
C	-0.816856	0.067397	-0.048931	6
C	-0.068146	1.178158	0.003779	6
C	1.313594	0.916887	-0.367971	6
C	2.131944	-0.055623	0.438249	6
N	1.408194	-0.523322	-0.743771	7
C	0.055414	-1.083693	-0.461101	6
H	-2.430576	-0.995872	0.841349	1
H	-2.834946	-0.164913	-0.670881	1
H	-2.642226	0.756598	0.830629	1
H	-0.427356	2.160928	0.272259	1
H	1.806243	1.602237	-1.046821	1
H	3.209414	-0.008413	0.340479	1
H	1.780804	-0.367772	1.413419	1
H	0.105934	-1.848012	0.320279	1
H	-0.333626	-1.544132	-1.374451	1
Es	1.652532	1.397944	-0.815724	99
Es	1.313636	0.916647	-0.367973	99
Es	0.835946	-0.793809	-0.622653	99
Es	2.131779	-0.055631	0.438044	99
Es	0.055519	-1.083615	-0.461111	99
Es	-0.217987	-1.397739	-1.080233	99
Es	-0.374552	0.587016	0.298708	99
Es	-0.068064	1.178253	0.003785	99
Es	-0.816933	0.067273	-0.048924	99
Es	-2.257760	-0.090457	0.253468	99
Es	0.084818	-1.593438	0.077442	99
Es	0.639761	1.074771	-0.157160	99
Es	-0.408455	-0.526843	-0.252666	99
Es	-1.536753	-0.014461	0.099858	99
Es	1.891430	-0.263645	1.083179	99
Es	-0.299933	1.854003	0.186221	99
Es	1.755100	-0.490840	-0.200425	99
Es	1.407874	-0.523062	-0.743175	99
Es	-0.513183	0.705916	-0.334784	99
Es	1.560137	-0.593621	-0.962732	99
Es	-2.631226	-0.138490	-0.371316	99
Es	-2.368260	-0.710458	0.648909	99
Es	-2.513001	0.484673	0.638620	99
Es	2.865482	-0.027378	0.377702	99
Es	1.303116	0.133200	-0.699088	99
Es	1.752941	0.619366	0.188901	99
42
Properties=species:S:1:pos:R:3:Z:I:1 energy=-286.9238161024564 field_type=dipole dipole="0.000000 0.000000 0.000000" charge=0
C	-2.257806	-0.090453	0.253479	6
C	-0.816856	0.067397	-0.048931	6
C	-0.068146	1.178158	0.003779	6
C	1.313594	0.916887	-0.367971	6
C	2.131944	-0.055623	0.438249	6
N	1.408194	-0.523322	-0.743771	7
C	0.055414	-1.083693	-0.461101	6
H	-2.430576	-0.995872	0.841349	1
H	-2.834946	-0.164913	-0.670881	1
H	-2.642226	0.756598	0.830629	1
H	-0.427356	2.160928	0.272259	1
H	1.806243	1.602237	-1.046821	1
H	3.209414	-0.008413	0.340479	1
H	1.780804	-0.367772	1.413419	1
H	0.105934	-1.848012	0.320279	1
H	-0.333626	-1.544132	-1.374451	1
Es	1.558468	-0.592553	-0.959988	99
Es	0.055521	-1.083615	-0.461113	99
Es	1.652602	1.398271	-0.815530	99
Es	-2.257761	-0.090456	0.253468	99
Es	-0.299578	1.854143	0.186255	99
Es	2.131798	-0.055635	0.438049	99
Es	1.752309	0.619698	0.189004	99
Es	-0.816928	0.067273	-0.048924	99
Es	-0.218001	-1.398019	-1.080193	99
Es	0.084740	-1.593124	0.077419	99
Es	-2.368371	-0.710719	0.648865	99
Es	-0.513073	0.705737	-0.334819	99
Es	0.836748	-0.794356	-0.624393	99
Es	-1.536700	-0.014110	0.099717	99
Es	-2.631106	-0.138284	-0.371103	99
Es	-0.068065	1.178255	0.003785	99
Es	1.313632	0.916642	-0.367974	99
Es	-2.513104	0.484365	0.638465	99
Es	-0.408425	-0.526943	-0.252762	99
Es	1.303681	0.133362	-0.699379	99
Es	1.891645	-0.263061	1.081868	99
Es	1.755088	-0.492088	-0.200345	99
Es	-0.374619	0.587045	0.298691	99
Es	0.640057	1.074299	-0.157058	99
Es	1.407866	-0.523057	-0.743165	99
Es	2.865539	-0.027494	0.378034	99
42
Properties=species:S:1:pos:R:3:Z:I:1 energy=-286.9238161024564 field_type=dipole dipole="0.000000 0.000000 0.000000" charge=0
C	-2.257806	-0.090453	0.253479	6
C	-0.816856	0.067397	-0.048931	6
C	-0.068146	1.178158	0.003779	6
C	1.313594	0.916887	-0.367971	6
C	2.131944	-0.055623	0.438249	6
N	1.408194	-0.523322	-0.743771	7
C	0.055414	-1.083693	-0.461101	6
H	-2.430576	-0.995872	0.841349	1
H	-2.834946	-0.164913	-0.670881	1
H	-2.642226	0.756598	0.830629	1
H	-0.427356	2.160928	0.272259	1
H	1.806243	1.602237	-1.046821	1
H	3.209414	-0.008413	0.340479	1
H	1.780804	-0.367772	1.413419	1
H	0.105934	-1.848012	0.320279	1
H	-0.333626	-1.544132	-1.374451	1
Es	-0.374237	0.587106	0.298456	99
Es	2.131796	-0.055632	0.438051	99
Es	1.755441	-0.493144	-0.201032	99
Es	1.891798	-0.262708	1.081041	99
Es	-1.536637	-0.014311	0.099790	99
Es	1.313635	0.916651	-0.367975	99
Es	1.408153	-0.523179	-0.743568	99
Es	-2.368688	-0.710869	0.648705	99
Es	1.652783	1.398521	-0.815259	99
Es	-0.513368	0.705558	-0.334547	99
Es	-2.513145	0.484275	0.638395	99
Es	-0.068055	1.178248	0.003780	99
Es	-2.257760	-0.090456	0.253468	99
Es	-0.218061	-1.398146	-1.080218	99
Es	0.640238	1.074044	-0.157016	99
Es	0.055521	-1.083616	-0.461112	99
Es	-0.816932	0.067274	-0.048922	99
Es	-2.630867	-0.138069	-0.371016	99
Es	1.751716	0.619637	0.189058	99
Es	1.556376	-0.591126	-0.957217	99
Es	0.084787	-1.592985	0.077312	99
Es	1.303837	0.133607	-0.699300	99
Es	-0.408311	-0.526948	-0.252707	99
Es	-0.299368	1.854248	0.186214	99
Es	2.865635	-0.027354	0.378226	99
Es	0.837678	-0.795052	-0.625737	99
42
Properties=species:S:1:pos:R:3:Z:I:1 energy=-286.9238161024564 field_type=dipole dipole="0.000000 0.000000 0.000000" charge=0
C	-2.257806	-0.090453	0.253479	6
C	-0.816856	0.067397	-0.048931	6
C	-0.068146	1.178158	0.003779	6
C	1.313594	0.916887	-0.367971	6
C	2.131944	-0.055623	0.438249	6
N	1.408194	-0.523322	-0.743771	7
C	0.055414	-1.083693	-0.461101	6
H	-2.430576	-0.995872	0.841349	1
H	-2.834946	-0.164913	-0.670881	1
H	-2.642226	0.756598	0.830629	1
H	-0.427356	2.160928	0.272259	1
H	1.806243	1.602237	-1.046821	1
H	3.209414	-0.008413	0.340479	1
H	1.780804	-0.367772	1.413419	1
H	0.105934	-1.848012	0.320279	1
H	-0.333626	-1.544132	-1.374451	1
Es	2.865705	-0.027271	0.378461	99
Es	1.313634	0.916649	-0.367978	99
Es	0.838383	-0.795475	-0.626719	99
Es	-0.218238	-1.398148	-1.080281	99
Es	-2.257761	-0.090456	0.253468	99
Es	1.304125	0.133659	-0.699118	99
Es	-1.536698	-0.014482	0.099619	99
Es	1.751315	0.619779	0.189250	99
Es	-0.299129	1.854368	0.186317	99
Es	1.891960	-0.262233	1.080059	99
Es	-2.630707	-0.137827	-0.370800	99
Es	1.755669	-0.494100	-0.201362	99
Es	-0.408120	-0.527063	-0.252606	99
Es	0.055519	-1.083615	-0.461113	99
Es	-0.816934	0.067274	-0.048922	99
Es	-0.068065	1.178256	0.003779	99
Es	1.554206	-0.589888	-0.954169	99
Es	-2.368886	-0.711107	0.648526	99
Es	-0.513180	0.705553	-0.334731	99
Es	1.408978	-0.523493	-0.744808	99
Es	1.652833	1.398636	-0.815172	99
Es	2.131802	-0.055641	0.438058	99
Es	0.084739	-1.592871	0.077277	99
Es	-2.513085	0.484278	0.638435	99
Es	-0.374330	0.587030	0.298566	99
Es	0.640230	1.073760	-0.157166	99
42
Properties=species:S:1:pos:R:3:Z:I:1 energy=-286.9238161024564 field_type=dipole dipole="0.000000 0.000000 0.000000" charge=0
C	-2.257806	-0.090453	0.253479	6
C	-0.816856	0.067397	-0.048931	6
C	-0.068146	1.178158	0.003779	6
C	1.313594	0.916887	-0.367971	6
C	2.131944	-0.055623	0.438249	6
N	1.408194	-0.523322	-0.743771	7
C	0.055414	-1.083693	-0.461101	6
H	-2.430576	-0.995872	0.841349	1
H	-2.834946	-0.164913	-0.670881	1
H	-2.642226	0.756598	0.830629	1
H	-0.427356	2.160928	0.272259	1
H	1.806243	1.602237	-1.046821	1
H	3.209414	-0.008413	0.340479	1
H	1.780804	-0.367772	1.413419	1
H	0.105934	-1.848012	0.320279	1
H	-0.333626	-1.544132	-1.374451	1
Es	0.640273	1.073642	-0.157068	99
Es	1.553444	-0.589087	-0.953366	99
Es	1.756089	-0.495166	-0.201912	99
Es	-0.298916	1.854457	0.186213	99
Es	-2.368801	-0.711265	0.648501	99
Es	1.408006	-0.523112	-0.743365	99
Es	1.304459	0.133853	-0.699305	99
Es	-2.630647	-0.137770	-0.370737	99
Es	2.865767	-0.027159	0.378603	99
Es	0.055520	-1.083615	-0.461112	99
Es	-1.536775	-0.014282	0.099562	99
Es	0.084695	-1.592620	0.077315	99
Es	-0.408048	-0.527061	-0.252722	99
Es	1.653019	1.398826	-0.814835	99
Es	-0.218277	-1.398366	-1.080267	99
Es	-2.257761	-0.090456	0.253468	99
Es	1.750776	0.619753	0.189222	99
Es	0.839139	-0.796025	-0.627954	99
Es	1.313638	0.916653	-0.367971	99
Es	1.892143	-0.261985	1.079314	99
Es	-0.513346	0.705349	-0.334504	99
Es	2.131776	-0.055641	0.438057	99
Es	-0.374012	0.587029	0.298493	99
Es	-0.068062	1.178251	0.003779	99
Es	-2.513203	0.484099	0.638384	99
Es	-0.816931	0.067274	-0.048921	99
42
Properties=species:S:1:pos:R:3:Z:I:1 energy=-286.9238161024564 field_type=dipole dipole="0.000000 0.000000 0.000000" charge=0
C	-2.257806	-0.090453	0.253479	6
C	-0.816856	0.067397	-0.048931	6
C	-0.068146	1.178158	0.003779	6
C	1.313594	0.916887	-0.367971	6
C	2.131944	-0.055623	0.438249	6
N	1.408194	-0.523322	-0.743771	7
C	0.055414	-1.083693	-0.461101	6
H	-2.430576	-0.995872	0.841349	1
H	-2.834946	-0.164913	-0.670881	1
H	-2.642226	0.756598	0.830629	1
H	-0.427356	2.160928	0.272259	1
H	1.806243	1.602237	-1.046821	1
H	3.209414	-0.008413	0.340479	1
H	1.780804	-0.367772	1.413419	1
H	0.105934	-1.848012	0.320279	1
H	-0.333626	-1.544132	-1.374451	1
Es	-0.816932	0.067275	-0.048924	99
Es	1.313633	0.916651	-0.367978	99
Es	-1.536567	-0.014335	0.099716	99
Es	1.756089	-0.495511	-0.201917	99
Es	1.407878	-0.523068	-0.743183	99
Es	-0.513128	0.705393	-0.334949	99
Es	-2.369130	-0.711283	0.648428	99
Es	1.653259	1.398925	-0.814714	99
Es	-0.374269	0.587025	0.298562	99
Es	0.840088	-0.796658	-0.629118	99
Es	2.865797	-0.027326	0.378799	99
Es	-2.513331	0.484128	0.638211	99
Es	-2.257762	-0.090456	0.253469	99
Es	1.750499	0.619876	0.189313	99
Es	0.640425	1.073459	-0.156890	99
Es	-0.407940	-0.527257	-0.252608	99
Es	0.084684	-1.592372	0.077267	99
Es	-0.068066	1.178256	0.003787	99
Es	0.055519	-1.083615	-0.461111	99
Es	-2.630384	-0.137756	-0.370578	99
Es	1.892258	-0.261661	1.078440	99
Es	1.552256	-0.588329	-0.951484	99
Es	1.304424	0.133907	-0.699686	99
Es	2.131796	-0.055644	0.438082	99
Es	-0.218421	-1.398533	-1.080313	99
Es	-0.298711	1.854485	0.186252	99
42
Properties=species:S:1:pos:R:3:Z:I:1 energy=-286.9238161024564 field_type=dipole dipole="0.000000 0.000000 0.000000" charge=0
C	-2.257806	-0.090453	0.253479	6
C	-0.816856	0.067397	-0.048931	6
C	-0.068146	1.178158	0.003779	6
C	1.313594	0.916887	-0.367971	6
C	2.131944	-0.055623	0.438249	6
N	1.408194	-0.523322	-0.743771	7
C	0.055414	-1.083693	-0.461101	6
H	-2.430576	-0.995872	0.841349	1
H	-2.834946	-0.164913	-0.670881	1
H	-2.642226	0.756598	0.830629	1
H	-0.427356	2.160928	0.272259	1
H	1.806243	1.602237	-1.046821	1
H	3.209414	-0.008413	0.340479	1
H	1.780804	-0.367772	1.413419	1
H	0.105934	-1.848012	0.320279	1
H	-0.333626	-1.544132	-1.374451	1
Es	-0.068066	1.178255	0.003780	99
Es	-2.513398	0.483881	0.638128	99
Es	-2.369312	-0.711468	0.648304	99
Es	-0.513218	0.705221	-0.334575	99
Es	0.055519	-1.083615	-0.461113	99
Es	1.313633	0.916643	-0.367973	99
Es	-2.630213	-0.137538	-0.370536	99
Es	2.865864	-0.027203	0.378993	99
Es	1.407923	-0.523094	-0.743229	99
Es	-0.816932	0.067274	-0.048921	99
Es	-0.407912	-0.527235	-0.252670	99
Es	2.131797	-0.055640	0.438057	99
Es	1.756201	-0.496392	-0.201957	99
Es	-1.536530	-0.014206	0.099696	99
Es	0.084694	-1.592329	0.077255	99
Es	1.653102	1.399180	-0.814628	99
Es	0.640716	1.072989	-0.156989	99
Es	-0.374108	0.587114	0.298425	99
Es	-0.298544	1.854634	0.186204	99
Es	1.750107	0.620003	0.189290	99
Es	1.551454	-0.587815	-0.950439	99
Es	-0.218426	-1.398574	-1.080328	99
Es	-2.257761	-0.090456	0.253468	99
Es	1.304753	0.133887	-0.699581	99
Es	1.892343	-0.261223	1.077765	99
Es	0.840279	-0.796719	-0.629554	99
42
Properties=species:S:1:pos:R:3:Z:I:1 energy=-286.9238161024564 field_type=dipole dipole="0.000000 0.000000 0.000000" charge=0
C	-2.257806	-0.090453	0.253479	6
C	-0.816856	0.067397	-0.048931	6
C	-0.068146	1.178158	0.003779	6
C	1.313594	0.916887	-0.367971	6
C	2.131944	-0.055623	0.438249	6
N	1.408194	-0.523322	-0.743771	7
C	0.055414	-1.083693	-0.461101	6
H	-2.430576	-0.995872	0.841349	1
H	-2.834946	-0.164913	-0.670881	1
H	-2.642226	0.756598	0.830629	1
H	-0.427356	2.160928	0.272259	1
H	1.806243	1.602237	-1.046821	1
H	3.209414	-0.008413	0.340479	1
H	1.780804	-0.367772	1.413419	1
H	0.105934	-1.848012	0.320279	1
H	-0.333626	-1.544132	-1.374451	1
Es	1.749846	0.619942	0.189290	99
Es	-0.218397	-1.398813	-1.080250	99
Es	0.840640	-0.796866	-0.630097	99
Es	-0.374197	0.587006	0.298587	99
Es	-0.513106	0.705294	-0.334804	99
Es	1.548110	-0.586210	-0.945608	99
Es	-2.257760	-0.090457	0.253468	99
Es	2.865880	-0.027195	0.378993	99
Es	-0.407933	-0.527219	-0.252795	99
Es	1.653445	1.399174	-0.814411	99
Es	-1.536565	-0.014378	0.099693	99
Es	1.410726	-0.524328	-0.747323	99
Es	-0.298453	1.854634	0.186290	99
Es	-2.513429	0.483987	0.638120	99
Es	0.640707	1.073064	-0.156962	99
Es	1.313636	0.916643	-0.367977	99
Es	-2.630078	-0.137518	-0.370432	99
Es	-0.068064	1.178254	0.003784	99
Es	-0.816930	0.067274	-0.048921	99
Es	1.756094	-0.496733	-0.202101	99
Es	0.084678	-1.592107	0.077240	99
Es	1.304743	0.134026	-0.699512	99
Es	1.892462	-0.261095	1.077411	99
Es	0.055520	-1.083615	-0.461113	99
Es	2.131776	-0.055640	0.438057	99
Es	-2.369385	-0.711550	0.648244	99
