48
Properties=species:S:1:pos:R:3:Z:I:1 energy=-289.29198518380446 field_type=dipole dipole="0.000000 0.000000 0.000000" charge=0
C	-2.245450	-0.456472	0.063220	6
C	-0.756830	-0.442432	0.305080	6
C	-0.378740	-0.525503	1.761871	6
C	0.132241	-1.139863	-0.703040	6
C	0.094450	0.368208	-0.664009	6
C	1.290980	1.152358	-0.233049	6
N	2.118761	1.376477	-1.410179	7
H	-2.488950	-0.398542	-1.003209	1
H	-2.718930	0.395238	0.562810	1
H	-2.687600	-1.377582	0.457140	1
H	0.689920	-0.707902	1.908900	1
H	-0.916189	-1.346102	2.248620	1
H	-0.640740	0.406078	2.273690	1
H	-0.328630	-1.630352	-1.554039	1
H	1.024160	-1.645562	-0.348720	1
H	-0.431190	0.879318	-1.466760	1
H	1.881270	0.632448	0.527231	1
H	0.973140	2.114177	0.180750	1
H	2.424040	0.474387	-1.774059	1
H	2.964280	1.871627	-1.132249	1
Es	0.351235	-0.647246	1.856092	99
Es	-2.405289	-0.416520	-0.665843	99
Es	-1.501363	-0.450227	0.174494	99
Es	1.779124	1.269815	-0.888520	99
Es	2.119054	1.376178	-1.409771	99
Es	2.636915	1.663301	-1.226181	99
Es	-0.748657	-1.084875	2.088714	99
Es	-0.756728	-0.442423	0.304972	99
Es	-0.269791	0.707044	-1.207607	99
Es	-0.185873	-1.473255	-1.280632	99
Es	1.691119	0.786124	0.299993	99
Es	-0.388508	0.130693	-0.094264	99
Es	2.310575	0.823912	-1.608050	99
Es	1.074862	1.813095	0.051274	99
Es	-2.245435	-0.456470	0.063223	99
Es	-0.559701	0.110957	2.110024	99
Es	-0.364335	-0.969940	-0.144098	99
Es	1.291042	1.152366	-0.233170	99
Es	0.743596	-1.477418	-0.456219	99
Es	-2.565569	0.125079	0.407111	99
Es	0.242805	-0.386913	-0.826252	99
Es	-2.545010	-1.085866	0.335278	99
Es	-0.553598	-0.480906	1.031478	99
Es	0.132195	-1.139741	-0.702985	99
Es	-0.378745	-0.525499	1.761849	99
Es	1.944270	1.557233	-1.661373	99
Es	0.691735	0.743022	-0.427984	99
Es	0.094427	0.368043	-0.663933	99
48
Properties=species:S:1:pos:R:3:Z:I:1 energy=-289.29198518380446 field_type=dipole dipole="0.000000 0.000000 0.000000" charge=0
C	-2.245450	-0.456472	0.063220	6
C	-0.756830	-0.442432	0.305080	6
C	-0.378740	-0.525503	1.761871	6
C	0.132241	-1.139863	-0.703040	6
C	0.094450	0.368208	-0.664009	6
C	1.290980	1.152358	-0.233049	6
N	2.118761	1.376477	-1.410179	7
H	-2.488950	-0.398542	-1.003209	1
H	-2.718930	0.395238	0.562810	1
H	-2.687600	-1.377582	0.457140	1
H	0.689920	-0.707902	1.908900	1
H	-0.916189	-1.346102	2.248620	1
H	-0.640740	0.406078	2.273690	1
H	-0.328630	-1.630352	-1.554039	1
H	1.024160	-1.645562	-0.348720	1
H	-0.431190	0.879318	-1.466760	1
H	1.881270	0.632448	0.527231	1
H	0.973140	2.114177	0.180750	1
H	2.424040	0.474387	-1.774059	1
H	2.964280	1.871627	-1.132249	1
Es	1.946954	1.554908	-1.657392	99
Es	2.635367	1.665449	-1.228172	99
Es	-2.544918	-1.087063	0.334972	99
Es	0.691956	0.742572	-0.428221	99
Es	-2.565707	0.126575	0.407307	99
Es	-0.559522	0.112319	2.110086	99
Es	-0.378744	-0.525498	1.761852	99
Es	-0.748814	-1.086123	2.088577	99
Es	0.742825	-1.477480	-0.456755	99
Es	-0.268968	0.706976	-1.206783	99
Es	-1.501615	-0.450394	0.174198	99
Es	-0.185085	-1.473101	-1.279691	99
Es	-0.553270	-0.481157	1.031658	99
Es	-0.756728	-0.442434	0.304971	99
Es	-2.404195	-0.416660	-0.664838	99
Es	-2.245433	-0.456470	0.063224	99
Es	0.350187	-0.647140	1.855255	99
Es	2.311280	0.822786	-1.610903	99
Es	-0.364984	-0.971681	-0.143636	99
Es	2.119058	1.376179	-1.409765	99
Es	1.291043	1.152366	-0.233171	99
Es	0.244372	-0.387369	-0.828303	99
Es	-0.389512	0.133004	-0.093117	99
Es	1.690415	0.786071	0.299000	99
Es	1.074132	1.813696	0.052274	99
Es	1.777627	1.270898	-0.888085	99
Es	0.094431	0.368056	-0.663932	99
Es	0.132201	-1.139724	-0.702988	99
48
Properties=species:S:1:pos:R:3:Z:I:1 energy=-289.29198518380446 field_type=dipole dipole="0.000000 0.000000 0.000000" charge=0
C	-2.245450	-0.456472	0.063220	6
C	-0.756830	-0.442432	0.305080	6
C	-0.378740	-0.525503	1.761871	6
C	0.132241	-1.139863	-0.703040	6
C	0.094450	0.368208	-0.664009	6
C	1.290980	1.152358	-0.233049	6
N	2.118761	1.376477	-1.410179	7
H	-2.488950	-0.398542	-1.003209	1
H	-2.718930	0.395238	0.562810	1
H	-2.687600	-1.377582	0.457140	1
H	0.689920	-0.707902	1.908900	1
H	-0.916189	-1.346102	2.248620	1
H	-0.640740	0.406078	2.273690	1
H	-0.328630	-1.630352	-1.554039	1
H	1.024160	-1.645562	-0.348720	1
H	-0.431190	0.879318	-1.466760	1
H	1.881270	0.632448	0.527231	1
H	0.973140	2.114177	0.180750	1
H	2.424040	0.474387	-1.774059	1
H	2.964280	1.871627	-1.132249	1
Es	0.132197	-1.139720	-0.702983	99
Es	0.692208	0.742461	-0.428525	99
Es	-2.565832	0.127449	0.407345	99
Es	-0.553245	-0.481256	1.031692	99
Es	-0.748748	-1.086957	2.088589	99
Es	0.245290	-0.387370	-0.829560	99
Es	0.094422	0.368038	-0.663928	99
Es	-2.403397	-0.416633	-0.664032	99
Es	-1.501770	-0.450197	0.174034	99
Es	2.119053	1.376176	-1.409759	99
Es	-0.365490	-0.972985	-0.143320	99
Es	-0.268429	0.706863	-1.206313	99
Es	-0.559343	0.113030	2.110158	99
Es	1.073779	1.814062	0.052815	99
Es	0.742309	-1.477597	-0.457168	99
Es	0.349458	-0.646930	1.854649	99
Es	-2.245433	-0.456470	0.063224	99
Es	2.634277	1.666767	-1.229417	99
Es	-0.756726	-0.442436	0.304969	99
Es	-0.390114	0.134413	-0.092250	99
Es	-0.378745	-0.525500	1.761850	99
Es	1.776035	1.271668	-0.887992	99
Es	-2.544830	-1.088035	0.334690	99
Es	-0.184629	-1.472859	-1.279000	99
Es	1.689867	0.785904	0.298483	99
Es	2.312205	0.822473	-1.611418	99
Es	1.291044	1.152365	-0.233171	99
Es	1.948942	1.552837	-1.656040	99
48
Properties=species:S:1:pos:R:3:Z:I:1 energy=-289.29198518380446 field_type=dipole dipole="0.000000 0.000000 0.000000" charge=0
C	-2.245450	-0.456472	0.063220	6
C	-0.756830	-0.442432	0.305080	6
C	-0.378740	-0.525503	1.761871	6
C	0.132241	-1.139863	-0.703040	6
C	0.094450	0.368208	-0.664009	6
C	1.290980	1.152358	-0.233049	6
N	2.118761	1.376477	-1.410179	7
H	-2.488950	-0.398542	-1.003209	1
H	-2.718930	0.395238	0.562810	1
H	-2.687600	-1.377582	0.457140	1
H	0.689920	-0.707902	1.908900	1
H	-0.916189	-1.346102	2.248620	1
H	-0.640740	0.406078	2.273690	1
H	-0.328630	-1.630352	-1.554039	1
H	1.024160	-1.645562	-0.348720	1
H	-0.431190	0.879318	-1.466760	1
H	1.881270	0.632448	0.527231	1
H	0.973140	2.114177	0.180750	1
H	2.424040	0.474387	-1.774059	1
H	2.964280	1.871627	-1.132249	1
Es	0.245863	-0.387221	-0.830055	99
Es	1.776059	1.271797	-0.887536	99
Es	0.742168	-1.477691	-0.457506	99
Es	1.291043	1.152366	-0.233171	99
Es	-0.390385	0.135296	-0.091820	99
Es	2.119055	1.376170	-1.409760	99
Es	0.094428	0.368030	-0.663934	99
Es	-2.245431	-0.456470	0.063224	99
Es	-0.559298	0.113546	2.110115	99
Es	-0.553177	-0.481412	1.031824	99
Es	-0.756728	-0.442436	0.304971	99
Es	1.689533	0.785792	0.298166	99
Es	-0.268051	0.706852	-1.206133	99
Es	0.349012	-0.646788	1.854276	99
Es	-0.366205	-0.974213	-0.143013	99
Es	-2.544844	-1.088477	0.334778	99
Es	-0.378745	-0.525499	1.761851	99
Es	-1.501759	-0.450170	0.173843	99
Es	0.132201	-1.139717	-0.702986	99
Es	-0.184022	-1.472328	-1.278652	99
Es	-2.403083	-0.416758	-0.663552	99
Es	-0.748720	-1.087492	2.088560	99
Es	-2.565739	0.127996	0.407191	99
Es	2.633428	1.667370	-1.230457	99
Es	0.692241	0.742333	-0.428661	99
Es	1.073420	1.814262	0.053156	99
Es	2.312459	0.822205	-1.612955	99
Es	1.949632	1.552216	-1.654142	99
48
Properties=species:S:1:pos:R:3:Z:I:1 energy=-289.29198518380446 field_type=dipole dipole="0.000000 0.000000 0.000000" charge=0
C	-2.245450	-0.456472	0.063220	6
C	-0.756830	-0.442432	0.305080	6
C	-0.378740	-0.525503	1.761871	6
C	0.132241	-1.139863	-0.703040	6
C	0.094450	0.368208	-0.664009	6
C	1.290980	1.152358	-0.233049	6
N	2.118761	1.376477	-1.410179	7
H	-2.488950	-0.398542	-1.003209	1
H	-2.718930	0.395238	0.562810	1
H	-2.687600	-1.377582	0.457140	1
H	0.689920	-0.707902	1.908900	1
H	-0.916189	-1.346102	2.248620	1
H	-0.640740	0.406078	2.273690	1
H	-0.328630	-1.630352	-1.554039	1
H	1.024160	-1.645562	-0.348720	1
H	-0.431190	0.879318	-1.466760	1
H	1.881270	0.632448	0.527231	1
H	0.973140	2.114177	0.180750	1
H	2.424040	0.474387	-1.774059	1
H	2.964280	1.871627	-1.132249	1
Es	-0.390600	0.135907	-0.091376	99
Es	1.073086	1.814371	0.053414	99
Es	-2.544743	-1.088817	0.334745	99
Es	-0.183799	-1.472212	-1.278019	99
Es	0.094425	0.368039	-0.663930	99
Es	-0.366465	-0.974833	-0.142838	99
Es	-0.378745	-0.525499	1.761851	99
Es	-0.559172	0.113820	2.110065	99
Es	-1.501834	-0.450134	0.173911	99
Es	-0.553151	-0.481429	1.031752	99
Es	0.132200	-1.139714	-0.702987	99
Es	-0.748782	-1.087845	2.088574	99
Es	0.246505	-0.387129	-0.831070	99
Es	-2.402762	-0.416801	-0.663329	99
Es	-0.756729	-0.442439	0.304969	99
Es	2.313017	0.821967	-1.613192	99
Es	1.291043	1.152366	-0.233171	99
Es	0.348698	-0.646708	1.854050	99
Es	0.741936	-1.477793	-0.457707	99
Es	2.119077	1.376151	-1.409731	99
Es	1.689230	0.785760	0.297924	99
Es	1.950307	1.550563	-1.653037	99
Es	-0.267891	0.706934	-1.205830	99
Es	2.632701	1.668654	-1.231711	99
Es	1.775683	1.272308	-0.887360	99
Es	-2.565758	0.128329	0.407172	99
Es	0.692310	0.742216	-0.428744	99
Es	-2.245434	-0.456470	0.063224	99
48
Properties=species:S:1:pos:R:3:Z:I:1 energy=-289.29198518380446 field_type=dipole dipole="0.000000 0.000000 0.000000" charge=0
C	-2.245450	-0.456472	0.063220	6
C	-0.756830	-0.442432	0.305080	6
C	-0.378740	-0.525503	1.761871	6
C	0.132241	-1.139863	-0.703040	6
C	0.094450	0.368208	-0.664009	6
C	1.290980	1.152358	-0.233049	6
N	2.118761	1.376477	-1.410179	7
H	-2.488950	-0.398542	-1.003209	1
H	-2.718930	0.395238	0.562810	1
H	-2.687600	-1.377582	0.457140	1
H	0.689920	-0.707902	1.908900	1
H	-0.916189	-1.346102	2.248620	1
H	-0.640740	0.406078	2.273690	1
H	-0.328630	-1.630352	-1.554039	1
H	1.024160	-1.645562	-0.348720	1
H	-0.431190	0.879318	-1.466760	1
H	1.881270	0.632448	0.527231	1
H	0.973140	2.114177	0.180750	1
H	2.424040	0.474387	-1.774059	1
H	2.964280	1.871627	-1.132249	1
Es	2.313164	0.821886	-1.613577	99
Es	-0.553035	-0.481385	1.031844	99
Es	1.291043	1.152366	-0.233172	99
Es	-0.366683	-0.975149	-0.142569	99
Es	-1.502006	-0.450114	0.173835	99
Es	-0.183670	-1.472033	-1.277498	99
Es	-2.402385	-0.416757	-0.662965	99
Es	1.951275	1.550280	-1.652559	99
Es	0.692327	0.742137	-0.428770	99
Es	0.132205	-1.139722	-0.702986	99
Es	-2.544683	-1.089247	0.334581	99
Es	2.119051	1.376175	-1.409770	99
Es	-0.378744	-0.525501	1.761853	99
Es	1.072942	1.814452	0.053645	99
Es	-0.559068	0.114117	2.110108	99
Es	0.247102	-0.386865	-0.832065	99
Es	-0.748717	-1.088341	2.088550	99
Es	-0.756730	-0.442435	0.304971	99
Es	0.741742	-1.477924	-0.457951	99
Es	1.688995	0.785677	0.297709	99
Es	2.632420	1.668570	-1.231700	99
Es	-0.267753	0.707070	-1.205564	99
Es	-2.245435	-0.456470	0.063224	99
Es	0.094427	0.368040	-0.663932	99
Es	0.348255	-0.646535	1.853753	99
Es	1.774968	1.272640	-0.887552	99
Es	-0.390847	0.135958	-0.090995	99
Es	-2.565806	0.128668	0.407173	99
48
Properties=species:S:1:pos:R:3:Z:I:1 energy=-289.29198518380446 field_type=dipole dipole="0.000000 0.000000 0.000000" charge=0
C	-2.245450	-0.456472	0.063220	6
C	-0.756830	-0.442432	0.305080	6
C	-0.378740	-0.525503	1.761871	6
C	0.132241	-1.139863	-0.703040	6
C	0.094450	0.368208	-0.664009	6
C	1.290980	1.152358	-0.233049	6
N	2.118761	1.376477	-1.410179	7
H	-2.488950	-0.398542	-1.003209	1
H	-2.718930	0.395238	0.562810	1
H	-2.687600	-1.377582	0.457140	1
H	0.689920	-0.707902	1.908900	1
H	-0.916189	-1.346102	2.248620	1
H	-0.640740	0.406078	2.273690	1
H	-0.328630	-1.630352	-1.554039	1
H	1.024160	-1.645562	-0.348720	1
H	-0.431190	0.879318	-1.466760	1
H	1.881270	0.632448	0.527231	1
H	0.973140	2.114177	0.180750	1
H	2.424040	0.474387	-1.774059	1
H	2.964280	1.871627	-1.132249	1
Es	0.247393	-0.386842	-0.832368	99
Es	2.631802	1.669112	-1.232259	99
Es	2.313725	0.821855	-1.613637	99
Es	0.348080	-0.646505	1.853590	99
Es	1.072724	1.814547	0.053792	99
Es	1.291043	1.152366	-0.233172	99
Es	2.119058	1.376164	-1.409775	99
Es	0.094426	0.368037	-0.663931	99
Es	-2.544651	-1.089429	0.334813	99
Es	-0.748769	-1.088505	2.088631	99
Es	0.692396	0.741941	-0.428961	99
Es	1.688915	0.785605	0.297564	99
Es	1.951741	1.549503	-1.652102	99
Es	-0.267522	0.707072	-1.205486	99
Es	0.132199	-1.139715	-0.702982	99
Es	-1.502076	-0.449987	0.173767	99
Es	-0.553044	-0.481603	1.031946	99
Es	-2.245434	-0.456468	0.063223	99
Es	1.774533	1.272867	-0.887457	99
Es	-0.378745	-0.525498	1.761850	99
Es	-2.402180	-0.416982	-0.662790	99
Es	-0.558990	0.114391	2.109939	99
Es	-0.390884	0.136584	-0.090736	99
Es	0.741603	-1.478063	-0.458044	99
Es	-0.183320	-1.471709	-1.277191	99
Es	-2.565748	0.129010	0.406923	99
Es	-0.756728	-0.442436	0.304969	99
Es	-0.367192	-0.975752	-0.142495	99
48
Properties=species:S:1:pos:R:3:Z:I:1 energy=-289.29198518380446 field_type=dipole dipole="0.000000 0.000000 0.000000" charge=0
C	-2.245450	-0.456472	0.063220	6
C	-0.756830	-0.442432	0.305080	6
C	-0.378740	-0.525503	1.761871	6
C	0.132241	-1.139863	-0.703040	6
C	0.094450	0.368208	-0.664009	6
C	1.290980	1.152358	-0.233049	6
N	2.118761	1.376477	-1.410179	7
H	-2.488950	-0.398542	-1.003209	1
H	-2.718930	0.395238	0.562810	1
H	-2.687600	-1.377582	0.457140	1
H	0.689920	-0.707902	1.908900	1
H	-0.916189	-1.346102	2.248620	1
H	-0.640740	0.406078	2.273690	1
H	-0.328630	-1.630352	-1.554039	1
H	1.024160	-1.645562	-0.348720	1
H	-0.431190	0.879318	-1.466760	1
H	1.881270	0.632448	0.527231	1
H	0.973140	2.114177	0.180750	1
H	2.424040	0.474387	-1.774059	1
H	2.964280	1.871627	-1.132249	1
Es	-0.367448	-0.975893	-0.142233	99
Es	-2.565764	0.129209	0.406927	99
Es	-2.544690	-1.089697	0.334621	99
Es	-0.267390	0.707100	-1.205471	99
Es	2.119077	1.376150	-1.409735	99
Es	-0.183268	-1.471544	-1.276841	99
Es	-0.552922	-0.481783	1.032007	99
Es	-0.559080	0.114531	2.109826	99
Es	-0.748762	-1.088670	2.088621	99
Es	1.951919	1.548614	-1.651566	99
Es	1.774544	1.273171	-0.887331	99
Es	0.247726	-0.386947	-0.832776	99
Es	0.741613	-1.478113	-0.458315	99
Es	-0.756723	-0.442439	0.304964	99
Es	-0.390932	0.136888	-0.090629	99
Es	0.348034	-0.646401	1.853502	99
Es	0.132196	-1.139722	-0.702982	99
Es	1.072564	1.814517	0.053920	99
Es	-0.378745	-0.525500	1.761851	99
Es	2.313961	0.821734	-1.613688	99
Es	1.688733	0.785502	0.297493	99
Es	0.094426	0.368040	-0.663931	99
Es	1.291043	1.152365	-0.233172	99
Es	-1.502294	-0.450005	0.173946	99
Es	0.692314	0.741983	-0.428976	99
Es	2.631464	1.669828	-1.233016	99
Es	-2.401806	-0.416884	-0.662621	99
Es	-2.245434	-0.456471	0.063224	99
48
Properties=species:S:1:pos:R:3:Z:I:1 energy=-289.29198518380446 field_type=dipole dipole="0.000000 0.000000 0.000000" charge=0
C	-2.245450	-0.456472	0.063220	6
C	-0.756830	-0.442432	0.305080	6
C	-0.378740	-0.525503	1.761871	6
C	0.132241	-1.139863	-0.703040	6
C	0.094450	0.368208	-0.664009	6
C	1.290980	1.152358	-0.233049	6
N	2.118761	1.376477	-1.410179	7
H	-2.488950	-0.398542	-1.003209	1
H	-2.718930	0.395238	0.562810	1
H	-2.687600	-1.377582	0.457140	1
H	0.689920	-0.707902	1.908900	1
H	-0.916189	-1.346102	2.248620	1
H	-0.640740	0.406078	2.273690	1
H	-0.328630	-1.630352	-1.554039	1
H	1.024160	-1.645562	-0.348720	1
H	-0.431190	0.879318	-1.466760	1
H	1.881270	0.632448	0.527231	1
H	0.973140	2.114177	0.180750	1
H	2.424040	0.474387	-1.774059	1
H	2.964280	1.871627	-1.132249	1
Es	2.119074	1.376155	-1.409739	99
Es	-1.502144	-0.449930	0.173698	99
Es	-2.401908	-0.416929	-0.662382	99
Es	-0.559001	0.114658	2.109783	99
Es	1.688630	0.785479	0.297374	99
Es	-0.756729	-0.442436	0.304973	99
Es	1.952228	1.548103	-1.651040	99
Es	1.774422	1.273353	-0.887140	99
Es	0.741564	-1.478207	-0.458390	99
Es	-0.748744	-1.088875	2.088679	99
Es	-2.544591	-1.089818	0.334655	99
Es	-0.183038	-1.471306	-1.276637	99
Es	1.072419	1.814592	0.054027	99
Es	-2.245435	-0.456470	0.063224	99
Es	-0.552972	-0.481729	1.032043	99
Es	0.692448	0.741865	-0.429020	99
Es	0.132193	-1.139718	-0.702981	99
Es	0.347846	-0.646309	1.853352	99
Es	0.094427	0.368038	-0.663932	99
Es	-2.565738	0.129335	0.406945	99
Es	-0.390987	0.137080	-0.090522	99
Es	1.291043	1.152366	-0.233172	99
Es	0.247842	-0.386760	-0.833008	99
Es	-0.367766	-0.976398	-0.142118	99
Es	2.630946	1.670138	-1.233560	99
Es	-0.267232	0.707122	-1.205405	99
Es	2.314302	0.821661	-1.613939	99
Es	-0.378745	-0.525499	1.761851	99
48
Properties=species:S:1:pos:R:3:Z:I:1 energy=-289.29198518380446 field_type=dipole dipole="0.000000 0.000000 0.000000" charge=0
C	-2.245450	-0.456472	0.063220	6
C	-0.756830	-0.442432	0.305080	6
C	-0.378740	-0.525503	1.761871	6
C	0.132241	-1.139863	-0.703040	6
C	0.094450	0.368208	-0.664009	6
C	1.290980	1.152358	-0.233049	6
N	2.118761	1.376477	-1.410179	7
H	-2.488950	-0.398542	-1.003209	1
H	-2.718930	0.395238	0.562810	1
H	-2.687600	-1.377582	0.457140	1
H	0.689920	-0.707902	1.908900	1
H	-0.916189	-1.346102	2.248620	1
H	-0.640740	0.406078	2.273690	1
H	-0.328630	-1.630352	-1.554039	1
H	1.024160	-1.645562	-0.348720	1
H	-0.431190	0.879318	-1.466760	1
H	1.881270	0.632448	0.527231	1
H	0.973140	2.114177	0.180750	1
H	2.424040	0.474387	-1.774059	1
H	2.964280	1.871627	-1.132249	1
Es	-2.401773	-0.416939	-0.662314	99
Es	-0.552983	-0.481807	1.032076	99
Es	0.347671	-0.646278	1.853258	99
Es	-0.558925	0.114789	2.109752	99
Es	-2.544560	-1.089944	0.334668	99
Es	-0.182949	-1.471224	-1.276415	99
Es	1.291043	1.152366	-0.233172	99
Es	-0.367882	-0.976471	-0.142118	99
Es	1.688491	0.785274	0.297348	99
Es	-0.378745	-0.525500	1.761851	99
Es	-0.267104	0.707222	-1.205359	99
Es	2.119065	1.376170	-1.409775	99
Es	1.774162	1.273555	-0.887325	99
Es	-1.502184	-0.449931	0.173670	99
Es	1.072288	1.814606	0.054120	99
Es	0.094426	0.368041	-0.663931	99
Es	2.630766	1.671328	-1.234182	99
Es	1.952348	1.546755	-1.650626	99
Es	-2.245435	-0.456470	0.063224	99
Es	0.132195	-1.139720	-0.702986	99
Es	-0.756728	-0.442434	0.304969	99
Es	0.248085	-0.386745	-0.833383	99
Es	0.741531	-1.478268	-0.458424	99
Es	2.314677	0.821583	-1.613563	99
Es	-2.565711	0.129460	0.406927	99
Es	-0.748744	-1.089014	2.088700	99
Es	0.692463	0.741836	-0.429190	99
Es	-0.391137	0.137322	-0.090178	99
48
Properties=species:S:1:pos:R:3:Z:I:1 energy=-289.29198518380446 field_type=dipole dipole="0.000000 0.000000 0.000000" charge=0
C	-2.245450	-0.456472	0.063220	6
C	-0.756830	-0.442432	0.305080	6
C	-0.378740	-0.525503	1.761871	6
C	0.132241	-1.139863	-0.703040	6
C	0.094450	0.368208	-0.664009	6
C	1.290980	1.152358	-0.233049	6
N	2.118761	1.376477	-1.410179	7
H	-2.488950	-0.398542	-1.003209	1
H	-2.718930	0.395238	0.562810	1
H	-2.687600	-1.377582	0.457140	1
H	0.689920	-0.707902	1.908900	1
H	-0.916189	-1.346102	2.248620	1
H	-0.640740	0.406078	2.273690	1
H	-0.328630	-1.630352	-1.554039	1
H	1.024160	-1.645562	-0.348720	1
H	-0.431190	0.879318	-1.466760	1
H	1.881270	0.632448	0.527231	1
H	0.973140	2.114177	0.180750	1
H	2.424040	0.474387	-1.774059	1
H	2.964280	1.871627	-1.132249	1
Es	2.119078	1.376143	-1.409733	99
Es	0.741511	-1.478427	-0.458680	99
Es	1.688475	0.785335	0.297330	99
Es	1.774201	1.273390	-0.887209	99
Es	1.291043	1.152366	-0.233170	99
Es	-2.544556	-1.090043	0.334646	99
Es	-2.401626	-0.416972	-0.662217	99
Es	-2.565718	0.129592	0.406875	99
Es	0.248295	-0.386638	-0.833701	99
Es	-0.367912	-0.976769	-0.142005	99
Es	-0.558987	0.114874	2.109796	99
Es	-0.552889	-0.481772	1.032084	99
Es	2.630510	1.671430	-1.234418	99
Es	1.952395	1.546686	-1.650376	99
Es	-0.391230	0.137435	-0.090109	99
Es	-1.502270	-0.449917	0.173698	99
Es	-0.378745	-0.525499	1.761851	99
Es	-0.756727	-0.442435	0.304972	99
Es	-2.245435	-0.456470	0.063223	99
Es	0.094426	0.368041	-0.663931	99
Es	-0.267023	0.707172	-1.205282	99
Es	-0.748685	-1.089171	2.088611	99
Es	1.072129	1.814611	0.054115	99
Es	-0.182942	-1.471001	-1.276028	99
Es	0.132201	-1.139716	-0.702983	99
Es	0.347541	-0.646209	1.853223	99
Es	2.314818	0.821695	-1.613839	99
Es	0.692477	0.741831	-0.429123	99
48
Properties=species:S:1:pos:R:3:Z:I:1 energy=-289.29198518380446 field_type=dipole dipole="0.000000 0.000000 0.000000" charge=0
C	-2.245450	-0.456472	0.063220	6
C	-0.756830	-0.442432	0.305080	6
C	-0.378740	-0.525503	1.761871	6
C	0.132241	-1.139863	-0.703040	6
C	0.094450	0.368208	-0.664009	6
C	1.290980	1.152358	-0.233049	6
N	2.118761	1.376477	-1.410179	7
H	-2.488950	-0.398542	-1.003209	1
H	-2.718930	0.395238	0.562810	1
H	-2.687600	-1.377582	0.457140	1
H	0.689920	-0.707902	1.908900	1
H	-0.916189	-1.346102	2.248620	1
H	-0.640740	0.406078	2.273690	1
H	-0.328630	-1.630352	-1.554039	1
H	1.024160	-1.645562	-0.348720	1
H	-0.431190	0.879318	-1.466760	1
H	1.881270	0.632448	0.527231	1
H	0.973140	2.114177	0.180750	1
H	2.424040	0.474387	-1.774059	1
H	2.964280	1.871627	-1.132249	1
Es	-0.558880	0.114991	2.109589	99
Es	-2.565817	0.129623	0.406950	99
Es	-0.378745	-0.525500	1.761851	99
Es	-0.182862	-1.470780	-1.275797	99
Es	1.773852	1.273762	-0.887203	99
Es	-0.391286	0.137676	-0.089988	99
Es	0.347504	-0.646205	1.853138	99
Es	-0.266951	0.707240	-1.205351	99
Es	-2.544405	-1.090146	0.334574	99
Es	0.692487	0.741673	-0.429161	99
Es	0.248447	-0.386663	-0.833828	99
Es	-1.502270	-0.449857	0.173717	99
Es	0.094429	0.368043	-0.663930	99
Es	2.314902	0.821610	-1.613947	99
Es	-0.748804	-1.089212	2.088749	99
Es	1.952922	1.546237	-1.649923	99
Es	0.741459	-1.478576	-0.458808	99
Es	-0.756727	-0.442432	0.304969	99
Es	-0.552952	-0.481864	1.032173	99
Es	-2.245432	-0.456470	0.063224	99
Es	2.630311	1.671565	-1.234685	99
Es	1.291043	1.152366	-0.233171	99
Es	1.072011	1.814616	0.054143	99
Es	-0.368045	-0.976959	-0.141952	99
Es	0.132195	-1.139726	-0.702986	99
Es	-2.401520	-0.416966	-0.662213	99
Es	2.119041	1.376176	-1.409818	99
Es	1.688449	0.785341	0.297304	99
48
Properties=species:S:1:pos:R:3:Z:I:1 energy=-289.29198518380446 field_type=dipole dipole="0.000000 0.000000 0.000000" charge=0
C	-2.245450	-0.456472	0.063220	6
C	-0.756830	-0.442432	0.305080	6
C	-0.378740	-0.525503	1.761871	6
C	0.132241	-1.139863	-0.703040	6
C	0.094450	0.368208	-0.664009	6
C	1.290980	1.152358	-0.233049	6
N	2.118761	1.376477	-1.410179	7
H	-2.488950	-0.398542	-1.003209	1
H	-2.718930	0.395238	0.562810	1
H	-2.687600	-1.377582	0.457140	1
H	0.689920	-0.707902	1.908900	1
H	-0.916189	-1.346102	2.248620	1
H	-0.640740	0.406078	2.273690	1
H	-0.328630	-1.630352	-1.554039	1
H	1.024160	-1.645562	-0.348720	1
H	-0.431190	0.879318	-1.466760	1
H	1.881270	0.632448	0.527231	1
H	0.973140	2.114177	0.180750	1
H	2.424040	0.474387	-1.774059	1
H	2.964280	1.871627	-1.132249	1
Es	1.953232	1.546554	-1.649949	99
Es	-2.401520	-0.416994	-0.661911	99
Es	1.071995	1.814653	0.054286	99
Es	-1.502183	-0.449963	0.173413	99
Es	-0.378745	-0.525500	1.761851	99
Es	-0.182720	-1.470667	-1.275675	99
Es	-0.553082	-0.481821	1.032218	99
Es	-0.756726	-0.442433	0.304970	99
Es	0.094426	0.368039	-0.663930	99
Es	-2.565639	0.129838	0.406815	99
Es	0.741333	-1.478621	-0.458838	99
Es	2.314802	0.821602	-1.614164	99
Es	1.291043	1.152365	-0.233172	99
Es	1.688293	0.785197	0.297193	99
Es	-0.266855	0.707261	-1.205283	99
Es	-0.748727	-1.089387	2.088815	99
Es	-0.391269	0.137784	-0.089981	99
Es	1.773656	1.273834	-0.887302	99
Es	2.119053	1.376172	-1.409788	99
Es	0.248715	-0.386664	-0.834032	99
Es	-0.368209	-0.977128	-0.141807	99
Es	0.132199	-1.139719	-0.702985	99
Es	0.347333	-0.646104	1.852998	99
Es	0.692461	0.741795	-0.429141	99
Es	-0.558802	0.115037	2.109618	99
Es	-2.245436	-0.456470	0.063223	99
Es	2.630321	1.671127	-1.234441	99
Es	-2.544594	-1.090225	0.334620	99
48
Properties=species:S:1:pos:R:3:Z:I:1 energy=-289.29198518380446 field_type=dipole dipole="0.000000 0.000000 0.000000" charge=0
C	-2.245450	-0.456472	0.063220	6
C	-0.756830	-0.442432	0.305080	6
C	-0.378740	-0.525503	1.761871	6
C	0.132241	-1.139863	-0.703040	6
C	0.094450	0.368208	-0.664009	6
C	1.290980	1.152358	-0.233049	6
N	2.118761	1.376477	-1.410179	7
H	-2.488950	-0.398542	-1.003209	1
H	-2.718930	0.395238	0.562810	1
H	-2.687600	-1.377582	0.457140	1
H	0.689920	-0.707902	1.908900	1
H	-0.916189	-1.346102	2.248620	1
H	-0.640740	0.406078	2.273690	1
H	-0.328630	-1.630352	-1.554039	1
H	1.024160	-1.645562	-0.348720	1
H	-0.431190	0.879318	-1.466760	1
H	1.881270	0.632448	0.527231	1
H	0.973140	2.114177	0.180750	1
H	2.424040	0.474387	-1.774059	1
H	2.964280	1.871627	-1.132249	1
Es	-0.182668	-1.470604	-1.275501	99
Es	0.248752	-0.386575	-0.834327	99
Es	1.688241	0.785123	0.297155	99
Es	1.291043	1.152366	-0.233172	99
Es	-0.378747	-0.525500	1.761850	99
Es	0.692498	0.741629	-0.429214	99
Es	-0.368344	-0.977213	-0.141799	99
Es	2.630040	1.671942	-1.234930	99
Es	0.347400	-0.646065	1.852985	99
Es	-0.748749	-1.089450	2.088725	99
Es	-0.756730	-0.442434	0.304970	99
Es	-0.558902	0.115054	2.109576	99
Es	0.094429	0.368033	-0.663930	99
Es	-1.502218	-0.449882	0.173482	99
Es	1.071907	1.814697	0.054334	99
Es	-0.391363	0.137870	-0.089807	99
Es	-0.266775	0.707417	-1.205247	99
Es	1.773729	1.273742	-0.887213	99
Es	2.119065	1.376156	-1.409759	99
Es	2.315182	0.821617	-1.614047	99
Es	1.953056	1.545817	-1.649684	99
Es	-0.553032	-0.481896	1.032333	99
Es	0.741357	-1.478616	-0.458936	99
Es	-2.401425	-0.417035	-0.661919	99
Es	-2.245435	-0.456470	0.063224	99
Es	-2.565726	0.129884	0.406837	99
Es	-2.544434	-1.090325	0.334626	99
Es	0.132202	-1.139720	-0.702987	99
48
Properties=species:S:1:pos:R:3:Z:I:1 energy=-289.29198518380446 field_type=dipole dipole="0.000000 0.000000 0.000000" charge=0
C	-2.245450	-0.456472	0.063220	6
C	-0.756830	-0.442432	0.305080	6
C	-0.378740	-0.525503	1.761871	6
C	0.132241	-1.139863	-0.703040	6
C	0.094450	0.368208	-0.664009	6
C	1.290980	1.152358	-0.233049	6
N	2.118761	1.376477	-1.410179	7
H	-2.488950	-0.398542	-1.003209	1
H	-2.718930	0.395238	0.562810	1
H	-2.687600	-1.377582	0.457140	1
H	0.689920	-0.707902	1.908900	1
H	-0.916189	-1.346102	2.248620	1
H	-0.640740	0.406078	2.273690	1
H	-0.328630	-1.630352	-1.554039	1
H	1.024160	-1.645562	-0.348720	1
H	-0.431190	0.879318	-1.466760	1
H	1.881270	0.632448	0.527231	1
H	0.973140	2.114177	0.180750	1
H	2.424040	0.474387	-1.774059	1
H	2.964280	1.871627	-1.132249	1
Es	-2.245435	-0.456470	0.063224	99
Es	1.071748	1.814570	0.054238	99
Es	-0.558928	0.115163	2.109560	99
Es	0.094426	0.368041	-0.663931	99
Es	-1.502232	-0.449839	0.173510	99
Es	2.315540	0.821605	-1.613817	99
Es	1.291043	1.152366	-0.233170	99
Es	2.629668	1.672814	-1.235785	99
Es	-0.552909	-0.481960	1.032309	99
Es	-0.391366	0.137978	-0.089738	99
Es	-0.266812	0.707337	-1.205230	99
Es	-0.182561	-1.470487	-1.275419	99
Es	2.119066	1.376157	-1.409750	99
Es	0.692547	0.741711	-0.429132	99
Es	-2.565704	0.129904	0.406818	99
Es	0.347281	-0.646041	1.852969	99
Es	1.773865	1.273887	-0.887115	99
Es	1.688247	0.785227	0.297261	99
Es	0.248827	-0.386643	-0.834348	99
Es	-0.378743	-0.525501	1.761853	99
Es	-2.401400	-0.416986	-0.661823	99
Es	0.741390	-1.478703	-0.458891	99
Es	1.952956	1.544814	-1.649332	99
Es	0.132199	-1.139719	-0.702985	99
Es	-0.748709	-1.089517	2.088715	99
Es	-2.544460	-1.090406	0.334589	99
Es	-0.368470	-0.977302	-0.141923	99
Es	-0.756722	-0.442437	0.304965	99
48
Properties=species:S:1:pos:R:3:Z:I:1 energy=-289.29198518380446 field_type=dipole dipole="0.000000 0.000000 0.000000" charge=0
C	-2.245450	-0.456472	0.063220	6
C	-0.756830	-0.442432	0.305080	6
C	-0.378740	-0.525503	1.761871	6
C	0.132241	-1.139863	-0.703040	6
C	0.094450	0.368208	-0.664009	6
C	1.290980	1.152358	-0.233049	6
N	2.118761	1.376477	-1.410179	7
H	-2.488950	-0.398542	-1.003209	1
H	-2.718930	0.395238	0.562810	1
H	-2.687600	-1.377582	0.457140	1
H	0.689920	-0.707902	1.908900	1
H	-0.916189	-1.346102	2.248620	1
H	-0.640740	0.406078	2.273690	1
H	-0.328630	-1.630352	-1.554039	1
H	1.024160	-1.645562	-0.348720	1
H	-0.431190	0.879318	-1.466760	1
H	1.881270	0.632448	0.527231	1
H	0.973140	2.114177	0.180750	1
H	2.424040	0.474387	-1.774059	1
H	2.964280	1.871627	-1.132249	1
Es	-0.182552	-1.470327	-1.275215	99
Es	1.773838	1.273939	-0.887040	99
Es	2.629723	1.671935	-1.235288	99
Es	0.132199	-1.139718	-0.702985	99
Es	-0.558781	0.115184	2.109514	99
Es	0.741345	-1.478788	-0.459087	99
Es	1.688032	0.785142	0.297115	99
Es	-2.401284	-0.417004	-0.661776	99
Es	-2.245435	-0.456470	0.063224	99
Es	1.291044	1.152365	-0.233172	99
Es	-2.544443	-1.090471	0.334563	99
Es	0.347187	-0.646034	1.852904	99
Es	-0.748765	-1.089563	2.088819	99
Es	-2.565698	0.130009	0.406820	99
Es	-0.378745	-0.525499	1.761851	99
Es	0.094426	0.368040	-0.663931	99
Es	-0.391351	0.138066	-0.089716	99
Es	-0.552934	-0.481912	1.032202	99
Es	1.953247	1.545580	-1.649498	99
Es	-0.266720	0.707362	-1.205110	99
Es	-1.502349	-0.449880	0.173555	99
Es	-0.756727	-0.442434	0.304970	99
Es	2.119072	1.376168	-1.409762	99
Es	1.071844	1.814674	0.054376	99
Es	-0.368524	-0.977614	-0.141717	99
Es	0.692429	0.741680	-0.429310	99
Es	0.248925	-0.386446	-0.834580	99
Es	2.315354	0.821575	-1.614107	99
48
Properties=species:S:1:pos:R:3:Z:I:1 energy=-289.29198518380446 field_type=dipole dipole="0.000000 0.000000 0.000000" charge=0
C	-2.245450	-0.456472	0.063220	6
C	-0.756830	-0.442432	0.305080	6
C	-0.378740	-0.525503	1.761871	6
C	0.132241	-1.139863	-0.703040	6
C	0.094450	0.368208	-0.664009	6
C	1.290980	1.152358	-0.233049	6
N	2.118761	1.376477	-1.410179	7
H	-2.488950	-0.398542	-1.003209	1
H	-2.718930	0.395238	0.562810	1
H	-2.687600	-1.377582	0.457140	1
H	0.689920	-0.707902	1.908900	1
H	-0.916189	-1.346102	2.248620	1
H	-0.640740	0.406078	2.273690	1
H	-0.328630	-1.630352	-1.554039	1
H	1.024160	-1.645562	-0.348720	1
H	-0.431190	0.879318	-1.466760	1
H	1.881270	0.632448	0.527231	1
H	0.973140	2.114177	0.180750	1
H	2.424040	0.474387	-1.774059	1
H	2.964280	1.871627	-1.132249	1
Es	-0.266756	0.707287	-1.205156	99
Es	-1.502417	-0.449870	0.173518	99
Es	0.132199	-1.139718	-0.702985	99
Es	2.315489	0.821545	-1.614174	99
Es	-2.565674	0.130062	0.406757	99
Es	-0.748825	-1.089613	2.088831	99
Es	0.094427	0.368040	-0.663931	99
Es	-0.558715	0.115243	2.109470	99
Es	-0.378744	-0.525499	1.761854	99
Es	-2.401229	-0.417025	-0.661742	99
Es	2.629529	1.672255	-1.235558	99
Es	-0.391404	0.138195	-0.089536	99
Es	0.347120	-0.646052	1.852867	99
Es	1.291043	1.152366	-0.233172	99
Es	0.692593	0.741651	-0.429271	99
Es	0.249002	-0.386546	-0.834762	99
Es	1.688168	0.785210	0.297156	99
Es	-2.245435	-0.456470	0.063224	99
Es	1.071620	1.814615	0.054333	99
Es	1.953574	1.545105	-1.649142	99
Es	-0.552915	-0.481962	1.032241	99
Es	2.119030	1.376194	-1.409787	99
Es	1.773507	1.274157	-0.887140	99
Es	-0.756728	-0.442432	0.304969	99
Es	-0.368525	-0.977499	-0.141794	99
Es	-0.182477	-1.470374	-1.275044	99
Es	-2.544426	-1.090536	0.334617	99
Es	0.741322	-1.478766	-0.459022	99
48
Properties=species:S:1:pos:R:3:Z:I:1 energy=-289.29198518380446 field_type=dipole dipole="0.000000 0.000000 0.000000" charge=0
C	-2.245450	-0.456472	0.063220	6
C	-0.756830	-0.442432	0.305080	6
C	-0.378740	-0.525503	1.761871	6
C	0.132241	-1.139863	-0.703040	6
C	0.094450	0.368208	-0.664009	6
C	1.290980	1.152358	-0.233049	6
N	2.118761	1.376477	-1.410179	7
H	-2.488950	-0.398542	-1.003209	1
H	-2.718930	0.395238	0.562810	1
H	-2.687600	-1.377582	0.457140	1
H	0.689920	-0.707902	1.908900	1
H	-0.916189	-1.346102	2.248620	1
H	-0.640740	0.406078	2.273690	1
H	-0.328630	-1.630352	-1.554039	1
H	1.024160	-1.645562	-0.348720	1
H	-0.431190	0.879318	-1.466760	1
H	1.881270	0.632448	0.527231	1
H	0.973140	2.114177	0.180750	1
H	2.424040	0.474387	-1.774059	1
H	2.964280	1.871627	-1.132249	1
Es	1.688078	0.785110	0.297080	99
Es	-2.245435	-0.456470	0.063223	99
Es	0.692648	0.741610	-0.429337	99
Es	1.953471	1.544867	-1.649098	99
Es	0.347118	-0.646007	1.852879	99
Es	-0.378743	-0.525500	1.761853	99
Es	0.094428	0.368046	-0.663933	99
Es	-0.182428	-1.470242	-1.274917	99
Es	-2.401183	-0.417000	-0.661699	99
Es	-0.368631	-0.977533	-0.141827	99
Es	-2.565652	0.130090	0.406744	99
Es	0.132200	-1.139714	-0.702988	99
Es	1.291043	1.152366	-0.233171	99
Es	-2.544441	-1.090602	0.334608	99
Es	2.629516	1.672539	-1.235707	99
Es	-1.502349	-0.449906	0.173534	99
Es	-0.266660	0.707343	-1.205118	99
Es	0.249076	-0.386625	-0.834891	99
Es	2.119051	1.376167	-1.409771	99
Es	-0.391532	0.138418	-0.089431	99
Es	2.315572	0.821604	-1.614108	99
Es	-0.756730	-0.442434	0.304970	99
Es	-0.558799	0.115296	2.109421	99
Es	-0.552860	-0.482075	1.032332	99
Es	0.741294	-1.478833	-0.459122	99
Es	1.773535	1.274037	-0.887119	99
Es	-0.748807	-1.089655	2.088794	99
Es	1.071574	1.814667	0.054420	99
48
Properties=species:S:1:pos:R:3:Z:I:1 energy=-289.29198518380446 field_type=dipole dipole="0.000000 0.000000 0.000000" charge=0
C	-2.245450	-0.456472	0.063220	6
C	-0.756830	-0.442432	0.305080	6
C	-0.378740	-0.525503	1.761871	6
C	0.132241	-1.139863	-0.703040	6
C	0.094450	0.368208	-0.664009	6
C	1.290980	1.152358	-0.233049	6
N	2.118761	1.376477	-1.410179	7
H	-2.488950	-0.398542	-1.003209	1
H	-2.718930	0.395238	0.562810	1
H	-2.687600	-1.377582	0.457140	1
H	0.689920	-0.707902	1.908900	1
H	-0.916189	-1.346102	2.248620	1
H	-0.640740	0.406078	2.273690	1
H	-0.328630	-1.630352	-1.554039	1
H	1.024160	-1.645562	-0.348720	1
H	-0.431190	0.879318	-1.466760	1
H	1.881270	0.632448	0.527231	1
H	0.973140	2.114177	0.180750	1
H	2.424040	0.474387	-1.774059	1
H	2.964280	1.871627	-1.132249	1
Es	-0.748649	-1.089743	2.088770	99
Es	-2.544492	-1.090534	0.334605	99
Es	0.692593	0.741649	-0.429299	99
Es	0.249096	-0.386450	-0.834821	99
Es	0.094426	0.368041	-0.663930	99
Es	-0.756728	-0.442434	0.304970	99
Es	1.773496	1.274322	-0.887037	99
Es	1.953690	1.543960	-1.648487	99
Es	2.629238	1.673235	-1.236454	99
Es	-0.266623	0.707481	-1.205195	99
Es	-0.558926	0.115298	2.109469	99
Es	0.741352	-1.478905	-0.459255	99
Es	-0.391410	0.138274	-0.089624	99
Es	-2.245435	-0.456470	0.063224	99
Es	2.119045	1.376180	-1.409833	99
Es	2.315692	0.821534	-1.614011	99
Es	-0.378745	-0.525500	1.761851	99
Es	1.071546	1.814639	0.054422	99
Es	-0.552823	-0.481987	1.032265	99
Es	1.688027	0.784971	0.297132	99
Es	-0.368739	-0.977822	-0.141617	99
Es	1.291043	1.152366	-0.233172	99
Es	-1.502408	-0.449958	0.173598	99
Es	0.132199	-1.139717	-0.702985	99
Es	-2.565574	0.130128	0.406788	99
Es	-2.401189	-0.417001	-0.661745	99
Es	0.347089	-0.645895	1.852863	99
Es	-0.182439	-1.470098	-1.274871	99
48
Properties=species:S:1:pos:R:3:Z:I:1 energy=-289.29198518380446 field_type=dipole dipole="0.000000 0.000000 0.000000" charge=0
C	-2.245450	-0.456472	0.063220	6
C	-0.756830	-0.442432	0.305080	6
C	-0.378740	-0.525503	1.761871	6
C	0.132241	-1.139863	-0.703040	6
C	0.094450	0.368208	-0.664009	6
C	1.290980	1.152358	-0.233049	6
N	2.118761	1.376477	-1.410179	7
H	-2.488950	-0.398542	-1.003209	1
H	-2.718930	0.395238	0.562810	1
H	-2.687600	-1.377582	0.457140	1
H	0.689920	-0.707902	1.908900	1
H	-0.916189	-1.346102	2.248620	1
H	-0.640740	0.406078	2.273690	1
H	-0.328630	-1.630352	-1.554039	1
H	1.024160	-1.645562	-0.348720	1
H	-0.431190	0.879318	-1.466760	1
H	1.881270	0.632448	0.527231	1
H	0.973140	2.114177	0.180750	1
H	2.424040	0.474387	-1.774059	1
H	2.964280	1.871627	-1.132249	1
Es	-0.266508	0.707531	-1.205182	99
Es	1.953528	1.543673	-1.648725	99
Es	-0.182446	-1.469966	-1.274825	99
Es	-2.245434	-0.456470	0.063224	99
Es	-0.368729	-0.977691	-0.141639	99
Es	0.132197	-1.139720	-0.702982	99
Es	-2.544391	-1.090637	0.334604	99
Es	-2.565631	0.130170	0.406781	99
Es	0.347036	-0.645939	1.852785	99
Es	1.773497	1.274198	-0.887067	99
Es	-0.748720	-1.089794	2.088749	99
Es	-0.552843	-0.482015	1.032362	99
Es	-0.391565	0.138354	-0.089431	99
Es	0.249297	-0.386508	-0.834934	99
Es	2.118993	1.376232	-1.409830	99
Es	1.687933	0.784856	0.297077	99
Es	2.315897	0.821571	-1.613750	99
Es	-1.502477	-0.449911	0.173528	99
Es	-0.378745	-0.525500	1.761851	99
Es	2.629261	1.673511	-1.236469	99
Es	-0.558835	0.115366	2.109457	99
Es	-2.401129	-0.417022	-0.661695	99
Es	-0.756727	-0.442440	0.304969	99
Es	0.094426	0.368039	-0.663931	99
Es	0.741273	-1.479032	-0.459320	99
Es	1.071609	1.814671	0.054498	99
Es	0.692546	0.741668	-0.429313	99
Es	1.291043	1.152366	-0.233172	99
