45
Properties=species:S:1:pos:R:3:Z:I:1 energy=-341.12057476085266 field_type=dipole dipole="0.000000 0.000000 0.000000" charge=0
N	-0.903154	-1.723887	-1.060408	7
C	-0.616134	-1.134407	0.254472	6
C	0.200546	0.139532	0.119992	6
N	1.424586	-0.007707	-0.710358	7
C	-0.521464	1.449012	-0.265558	6
O	0.191376	2.177123	0.777432	8
C	0.554476	0.913803	1.406582	6
H	-1.450544	-2.574127	-0.925258	1
H	-0.014244	-2.037218	-1.455138	1
H	-0.073764	-1.871167	0.858232	1
H	-1.563314	-0.932717	0.766502	1
H	1.982986	0.849163	-0.735048	1
H	1.192026	-0.194268	-1.686968	1
H	-1.600954	1.473032	-0.081538	1
H	-0.317344	1.856043	-1.260598	1
H	1.601556	0.900393	1.724652	1
H	-0.086634	0.717402	2.273012	1
Es	0.886005	0.073785	-0.370166	99
Es	-0.216840	0.751208	-0.141590	99
Es	-0.521354	1.449127	-0.265381	99
Es	0.200665	0.139530	0.119920	99
Es	1.263078	-0.105333	-1.297383	99
Es	0.405041	0.443161	0.804980	99
Es	-0.379620	1.723393	-0.951045	99
Es	-1.222559	-2.241941	-0.963444	99
Es	0.108156	0.767791	1.996145	99
Es	0.450149	2.280355	0.645745	99
Es	-0.093445	1.929122	0.375476	99
Es	0.554400	0.913983	1.406471	99
Es	-1.068018	-1.491441	-1.278121	99
Es	1.424247	-0.007282	-0.710574	99
Es	0.335345	1.712378	1.044347	99
Es	1.270710	0.899475	1.622481	99
Es	1.623373	-0.276827	-0.584787	99
Es	-0.363662	-1.919793	-1.283994	99
Es	-1.265276	1.457285	-0.135564	99
Es	-0.236916	-1.632969	0.678895	99
Es	-0.002549	2.342767	0.955962	99
Es	1.733032	0.520487	-0.722669	99
Es	0.191350	2.176793	0.777343	99
Es	-0.202929	-0.501461	0.177782	99
Es	-0.902877	-1.724245	-1.060051	99
Es	-0.770237	-1.483986	-0.483940	99
Es	-1.261889	-0.987224	0.604514	99
Es	-0.616146	-1.134433	0.254327	99
45
Properties=species:S:1:pos:R:3:Z:I:1 energy=-341.12057476085266 field_type=dipole dipole="0.000000 0.000000 0.000000" charge=0
N	-0.903154	-1.723887	-1.060408	7
C	-0.616134	-1.134407	0.254472	6
C	0.200546	0.139532	0.119992	6
N	1.424586	-0.007707	-0.710358	7
C	-0.521464	1.449012	-0.265558	6
O	0.191376	2.177123	0.777432	8
C	0.554476	0.913803	1.406582	6
H	-1.450544	-2.574127	-0.925258	1
H	-0.014244	-2.037218	-1.455138	1
H	-0.073764	-1.871167	0.858232	1
H	-1.563314	-0.932717	0.766502	1
H	1.982986	0.849163	-0.735048	1
H	1.192026	-0.194268	-1.686968	1
H	-1.600954	1.473032	-0.081538	1
H	-0.317344	1.856043	-1.260598	1
H	1.601556	0.900393	1.724652	1
H	-0.086634	0.717402	2.273012	1
Es	-1.222160	-2.242455	-0.963512	99
Es	-0.769863	-1.485042	-0.484018	99
Es	1.623450	-0.276596	-0.585640	99
Es	0.886083	0.073391	-0.369359	99
Es	-1.265086	1.457020	-0.135266	99
Es	0.200664	0.139538	0.119928	99
Es	-0.902880	-1.724229	-1.060061	99
Es	-1.068435	-1.490247	-1.278531	99
Es	0.108076	0.767741	1.996353	99
Es	0.451028	2.284270	0.646845	99
Es	-0.094245	1.929233	0.375048	99
Es	-0.217036	0.751443	-0.141350	99
Es	1.424248	-0.007312	-0.710562	99
Es	-0.002134	2.338543	0.954149	99
Es	0.405235	0.443342	0.805286	99
Es	-1.261582	-0.987246	0.604389	99
Es	-0.364184	-1.919452	-1.283563	99
Es	-0.521357	1.449129	-0.265382	99
Es	1.270831	0.899514	1.622267	99
Es	0.334828	1.712279	1.045467	99
Es	0.554400	0.913983	1.406470	99
Es	1.733078	0.519785	-0.722029	99
Es	-0.203004	-0.501275	0.177723	99
Es	-0.379557	1.723449	-0.951651	99
Es	1.262600	-0.104443	-1.298105	99
Es	-0.616146	-1.134433	0.254324	99
Es	0.191312	2.176804	0.777376	99
Es	-0.236930	-1.633024	0.679082	99
45
Properties=species:S:1:pos:R:3:Z:I:1 energy=-341.12057476085266 field_type=dipole dipole="0.000000 0.000000 0.000000" charge=0
N	-0.903154	-1.723887	-1.060408	7
C	-0.616134	-1.134407	0.254472	6
C	0.200546	0.139532	0.119992	6
N	1.424586	-0.007707	-0.710358	7
C	-0.521464	1.449012	-0.265558	6
O	0.191376	2.177123	0.777432	8
C	0.554476	0.913803	1.406582	6
H	-1.450544	-2.574127	-0.925258	1
H	-0.014244	-2.037218	-1.455138	1
H	-0.073764	-1.871167	0.858232	1
H	-1.563314	-0.932717	0.766502	1
H	1.982986	0.849163	-0.735048	1
H	1.192026	-0.194268	-1.686968	1
H	-1.600954	1.473032	-0.081538	1
H	-0.317344	1.856043	-1.260598	1
H	1.601556	0.900393	1.724652	1
H	-0.086634	0.717402	2.273012	1
Es	-0.364887	-1.919819	-1.283310	99
Es	-1.069152	-1.489365	-1.279330	99
Es	0.554400	0.913984	1.406469	99
Es	0.886347	0.072599	-0.368491	99
Es	0.000495	2.339636	0.951736	99
Es	-0.202987	-0.501250	0.177672	99
Es	-0.095428	1.929565	0.375049	99
Es	1.262374	-0.104617	-1.298400	99
Es	1.732933	0.519846	-0.721941	99
Es	1.623514	-0.275670	-0.586348	99
Es	-1.221437	-2.242222	-0.963404	99
Es	-0.521357	1.449128	-0.265383	99
Es	0.451729	2.282612	0.646807	99
Es	1.270901	0.899465	1.622180	99
Es	1.424268	-0.007296	-0.710558	99
Es	-0.616148	-1.134434	0.254326	99
Es	-0.379502	1.723475	-0.952062	99
Es	0.405285	0.443422	0.805549	99
Es	0.332645	1.712378	1.047966	99
Es	-0.769167	-1.485657	-0.483636	99
Es	0.107929	0.767668	1.996433	99
Es	-0.236914	-1.633136	0.679148	99
Es	0.200666	0.139535	0.119925	99
Es	-0.217227	0.751805	-0.141235	99
Es	-1.264993	1.456713	-0.135059	99
Es	-0.902875	-1.724247	-1.060047	99
Es	-1.261561	-0.987198	0.604312	99
Es	0.191380	2.176788	0.777310	99
45
Properties=species:S:1:pos:R:3:Z:I:1 energy=-341.12057476085266 field_type=dipole dipole="0.000000 0.000000 0.000000" charge=0
N	-0.903154	-1.723887	-1.060408	7
C	-0.616134	-1.134407	0.254472	6
C	0.200546	0.139532	0.119992	6
N	1.424586	-0.007707	-0.710358	7
C	-0.521464	1.449012	-0.265558	6
O	0.191376	2.177123	0.777432	8
C	0.554476	0.913803	1.406582	6
H	-1.450544	-2.574127	-0.925258	1
H	-0.014244	-2.037218	-1.455138	1
H	-0.073764	-1.871167	0.858232	1
H	-1.563314	-0.932717	0.766502	1
H	1.982986	0.849163	-0.735048	1
H	1.192026	-0.194268	-1.686968	1
H	-1.600954	1.473032	-0.081538	1
H	-0.317344	1.856043	-1.260598	1
H	1.601556	0.900393	1.724652	1
H	-0.086634	0.717402	2.273012	1
Es	0.886521	0.072161	-0.367975	99
Es	-0.902881	-1.724233	-1.060053	99
Es	-0.217501	0.751864	-0.141261	99
Es	-1.069631	-1.488942	-1.279152	99
Es	0.333120	1.712492	1.048187	99
Es	-0.616142	-1.134435	0.254330	99
Es	-1.264880	1.456685	-0.134982	99
Es	1.623459	-0.275740	-0.587046	99
Es	0.405401	0.443565	0.805798	99
Es	-0.094616	1.929240	0.374221	99
Es	-0.202977	-0.501190	0.177600	99
Es	1.424247	-0.007284	-0.710572	99
Es	-0.521355	1.449127	-0.265382	99
Es	0.554401	0.913982	1.406473	99
Es	-0.236866	-1.633208	0.679319	99
Es	0.107772	0.767578	1.996501	99
Es	-0.379468	1.723452	-0.952291	99
Es	-1.261457	-0.987085	0.604199	99
Es	1.733078	0.519404	-0.721313	99
Es	1.270965	0.899476	1.622114	99
Es	0.200669	0.139533	0.119925	99
Es	0.452336	2.289559	0.648949	99
Es	-1.221110	-2.242192	-0.963481	99
Es	1.262051	-0.103735	-1.298833	99
Es	-0.001251	2.332729	0.950117	99
Es	0.191294	2.176814	0.777389	99
Es	-0.768982	-1.486251	-0.483533	99
Es	-0.364960	-1.919660	-1.283571	99
45
Properties=species:S:1:pos:R:3:Z:I:1 energy=-341.12057476085266 field_type=dipole dipole="0.000000 0.000000 0.000000" charge=0
N	-0.903154	-1.723887	-1.060408	7
C	-0.616134	-1.134407	0.254472	6
C	0.200546	0.139532	0.119992	6
N	1.424586	-0.007707	-0.710358	7
C	-0.521464	1.449012	-0.265558	6
O	0.191376	2.177123	0.777432	8
C	0.554476	0.913803	1.406582	6
H	-1.450544	-2.574127	-0.925258	1
H	-0.014244	-2.037218	-1.455138	1
H	-0.073764	-1.871167	0.858232	1
H	-1.563314	-0.932717	0.766502	1
H	1.982986	0.849163	-0.735048	1
H	1.192026	-0.194268	-1.686968	1
H	-1.600954	1.473032	-0.081538	1
H	-0.317344	1.856043	-1.260598	1
H	1.601556	0.900393	1.724652	1
H	-0.086634	0.717402	2.273012	1
Es	-0.379457	1.723501	-0.952549	99
Es	-0.217448	0.752127	-0.141139	99
Es	1.733344	0.518986	-0.720995	99
Es	1.424242	-0.007274	-0.710579	99
Es	-0.768607	-1.486824	-0.483386	99
Es	0.405604	0.443702	0.805800	99
Es	1.262208	-0.103781	-1.299250	99
Es	-0.000202	2.331616	0.949155	99
Es	-0.616145	-1.134433	0.254337	99
Es	-1.261423	-0.987209	0.604288	99
Es	-0.521355	1.449128	-0.265384	99
Es	0.191332	2.176812	0.777363	99
Es	-1.264853	1.456395	-0.134800	99
Es	1.623079	-0.275260	-0.587223	99
Es	1.270925	0.899447	1.622119	99
Es	-1.220870	-2.242108	-0.963624	99
Es	-0.095437	1.929678	0.374099	99
Es	0.332853	1.712317	1.048964	99
Es	0.452329	2.290346	0.649312	99
Es	0.554402	0.913984	1.406467	99
Es	-0.902875	-1.724240	-1.060045	99
Es	0.200664	0.139537	0.119927	99
Es	0.107567	0.767443	1.996528	99
Es	0.886452	0.072172	-0.367762	99
Es	-1.069866	-1.488281	-1.279461	99
Es	-0.236893	-1.633180	0.679190	99
Es	-0.365360	-1.919770	-1.283387	99
Es	-0.202978	-0.501124	0.177711	99
45
Properties=species:S:1:pos:R:3:Z:I:1 energy=-341.12057476085266 field_type=dipole dipole="0.000000 0.000000 0.000000" charge=0
N	-0.903154	-1.723887	-1.060408	7
C	-0.616134	-1.134407	0.254472	6
C	0.200546	0.139532	0.119992	6
N	1.424586	-0.007707	-0.710358	7
C	-0.521464	1.449012	-0.265558	6
O	0.191376	2.177123	0.777432	8
C	0.554476	0.913803	1.406582	6
H	-1.450544	-2.574127	-0.925258	1
H	-0.014244	-2.037218	-1.455138	1
H	-0.073764	-1.871167	0.858232	1
H	-1.563314	-0.932717	0.766502	1
H	1.982986	0.849163	-0.735048	1
H	1.192026	-0.194268	-1.686968	1
H	-1.600954	1.473032	-0.081538	1
H	-0.317344	1.856043	-1.260598	1
H	1.601556	0.900393	1.724652	1
H	-0.086634	0.717402	2.273012	1
Es	1.424260	-0.007301	-0.710563	99
Es	-0.902911	-1.724190	-1.060090	99
Es	0.107580	0.767505	1.996684	99
Es	-0.236820	-1.633192	0.679323	99
Es	0.452736	2.290142	0.649535	99
Es	-1.261415	-0.987047	0.604251	99
Es	1.732931	0.518827	-0.720914	99
Es	-1.264803	1.456285	-0.134737	99
Es	-0.217546	0.752284	-0.141104	99
Es	1.623432	-0.275080	-0.587302	99
Es	-1.220873	-2.242316	-0.963671	99
Es	0.886772	0.071903	-0.367426	99
Es	0.000505	2.331593	0.948276	99
Es	0.191335	2.176763	0.777346	99
Es	1.271005	0.899487	1.621962	99
Es	-0.365576	-1.919443	-1.283769	99
Es	-0.521355	1.449129	-0.265381	99
Es	0.200666	0.139535	0.119926	99
Es	-0.616145	-1.134434	0.254324	99
Es	-0.095606	1.929876	0.373976	99
Es	1.261895	-0.103587	-1.299606	99
Es	-1.070146	-1.487597	-1.278937	99
Es	0.554400	0.913984	1.406470	99
Es	0.331906	1.712249	1.049737	99
Es	0.405517	0.443726	0.806056	99
Es	-0.203032	-0.501102	0.177502	99
Es	-0.379375	1.723414	-0.952776	99
Es	-0.768102	-1.487704	-0.483416	99
45
Properties=species:S:1:pos:R:3:Z:I:1 energy=-341.12057476085266 field_type=dipole dipole="0.000000 0.000000 0.000000" charge=0
N	-0.903154	-1.723887	-1.060408	7
C	-0.616134	-1.134407	0.254472	6
C	0.200546	0.139532	0.119992	6
N	1.424586	-0.007707	-0.710358	7
C	-0.521464	1.449012	-0.265558	6
O	0.191376	2.177123	0.777432	8
C	0.554476	0.913803	1.406582	6
H	-1.450544	-2.574127	-0.925258	1
H	-0.014244	-2.037218	-1.455138	1
H	-0.073764	-1.871167	0.858232	1
H	-1.563314	-0.932717	0.766502	1
H	1.982986	0.849163	-0.735048	1
H	1.192026	-0.194268	-1.686968	1
H	-1.600954	1.473032	-0.081538	1
H	-0.317344	1.856043	-1.260598	1
H	1.601556	0.900393	1.724652	1
H	-0.086634	0.717402	2.273012	1
Es	0.405629	0.443806	0.806251	99
Es	0.554400	0.913983	1.406471	99
Es	-0.236799	-1.633235	0.679428	99
Es	0.886776	0.071108	-0.366806	99
Es	-1.070084	-1.487364	-1.279493	99
Es	-0.096404	1.929795	0.374488	99
Es	-0.379332	1.723436	-0.952951	99
Es	0.200666	0.139535	0.119926	99
Es	-1.264737	1.456229	-0.134655	99
Es	1.732750	0.518806	-0.720743	99
Es	-0.203010	-0.500956	0.177463	99
Es	-1.261336	-0.987046	0.604149	99
Es	0.330998	1.712471	1.050589	99
Es	1.424244	-0.007280	-0.710572	99
Es	0.001618	2.331867	0.947441	99
Es	0.191434	2.176710	0.777264	99
Es	-0.217743	0.752352	-0.141079	99
Es	-0.902875	-1.724238	-1.060053	99
Es	1.261818	-0.103298	-1.299725	99
Es	-1.220795	-2.242063	-0.963792	99
Es	0.107480	0.767408	1.996685	99
Es	-0.365533	-1.919811	-1.283250	99
Es	1.623641	-0.274599	-0.588036	99
Es	-0.521357	1.449128	-0.265383	99
Es	0.453232	2.289679	0.649097	99
Es	1.271030	0.899478	1.621947	99
Es	-0.616145	-1.134431	0.254335	99
Es	-0.768334	-1.487763	-0.483319	99
45
Properties=species:S:1:pos:R:3:Z:I:1 energy=-341.12057476085266 field_type=dipole dipole="0.000000 0.000000 0.000000" charge=0
N	-0.903154	-1.723887	-1.060408	7
C	-0.616134	-1.134407	0.254472	6
C	0.200546	0.139532	0.119992	6
N	1.424586	-0.007707	-0.710358	7
C	-0.521464	1.449012	-0.265558	6
O	0.191376	2.177123	0.777432	8
C	0.554476	0.913803	1.406582	6
H	-1.450544	-2.574127	-0.925258	1
H	-0.014244	-2.037218	-1.455138	1
H	-0.073764	-1.871167	0.858232	1
H	-1.563314	-0.932717	0.766502	1
H	1.982986	0.849163	-0.735048	1
H	1.192026	-0.194268	-1.686968	1
H	-1.600954	1.473032	-0.081538	1
H	-0.317344	1.856043	-1.260598	1
H	1.601556	0.900393	1.724652	1
H	-0.086634	0.717402	2.273012	1
Es	1.623807	-0.274613	-0.588318	99
Es	0.886923	0.070958	-0.366550	99
Es	0.452615	2.295147	0.651735	99
Es	1.424233	-0.007265	-0.710582	99
Es	-0.202832	-0.500942	0.177480	99
Es	-0.094860	1.929722	0.372924	99
Es	0.191361	2.176839	0.777350	99
Es	-0.902873	-1.724235	-1.060038	99
Es	-0.217841	0.752364	-0.141080	99
Es	1.732670	0.518758	-0.720720	99
Es	-1.220208	-2.241980	-0.963495	99
Es	-1.261333	-0.987023	0.604129	99
Es	0.200664	0.139537	0.119928	99
Es	-0.521356	1.449129	-0.265383	99
Es	0.554399	0.913985	1.406471	99
Es	-0.236889	-1.633270	0.679426	99
Es	-0.365550	-1.919794	-1.283389	99
Es	-0.768254	-1.487804	-0.483330	99
Es	0.332288	1.712299	1.050016	99
Es	0.107440	0.767419	1.996790	99
Es	1.261628	-0.103042	-1.299727	99
Es	-0.616145	-1.134434	0.254326	99
Es	-1.070723	-1.487385	-1.279693	99
Es	-1.264675	1.456146	-0.134522	99
Es	1.270973	0.899481	1.621886	99
Es	0.405617	0.443790	0.806300	99
Es	-0.379406	1.723490	-0.953079	99
Es	-0.000440	2.326428	0.946821	99
45
Properties=species:S:1:pos:R:3:Z:I:1 energy=-341.12057476085266 field_type=dipole dipole="0.000000 0.000000 0.000000" charge=0
N	-0.903154	-1.723887	-1.060408	7
C	-0.616134	-1.134407	0.254472	6
C	0.200546	0.139532	0.119992	6
N	1.424586	-0.007707	-0.710358	7
C	-0.521464	1.449012	-0.265558	6
O	0.191376	2.177123	0.777432	8
C	0.554476	0.913803	1.406582	6
H	-1.450544	-2.574127	-0.925258	1
H	-0.014244	-2.037218	-1.455138	1
H	-0.073764	-1.871167	0.858232	1
H	-1.563314	-0.932717	0.766502	1
H	1.982986	0.849163	-0.735048	1
H	1.192026	-0.194268	-1.686968	1
H	-1.600954	1.473032	-0.081538	1
H	-0.317344	1.856043	-1.260598	1
H	1.601556	0.900393	1.724652	1
H	-0.086634	0.717402	2.273012	1
Es	-0.095799	1.930557	0.373087	99
Es	-0.202959	-0.501029	0.177405	99
Es	0.886874	0.070849	-0.366291	99
Es	-0.236766	-1.633272	0.679488	99
Es	-1.070928	-1.487052	-1.279659	99
Es	1.424254	-0.007284	-0.710568	99
Es	-1.264743	1.456090	-0.134532	99
Es	0.453527	2.294041	0.651572	99
Es	-0.365807	-1.919641	-1.283455	99
Es	0.200668	0.139532	0.119925	99
Es	0.554398	0.913985	1.406470	99
Es	0.001033	2.327045	0.946478	99
Es	1.261647	-0.102714	-1.299988	99
Es	1.732638	0.518414	-0.720497	99
Es	-0.379337	1.723454	-0.953081	99
Es	1.271000	0.899512	1.621807	99
Es	1.623812	-0.274475	-0.588583	99
Es	0.107423	0.767391	1.996867	99
Es	-0.768059	-1.488199	-0.483198	99
Es	0.191289	2.176798	0.777381	99
Es	-0.521355	1.449128	-0.265383	99
Es	-1.220019	-2.242077	-0.963606	99
Es	-0.902884	-1.724230	-1.060053	99
Es	0.405640	0.443867	0.806345	99
Es	-0.616144	-1.134433	0.254330	99
Es	-1.261272	-0.986913	0.604159	99
Es	-0.217793	0.752421	-0.141073	99
Es	0.330898	1.711944	1.050331	99
45
Properties=species:S:1:pos:R:3:Z:I:1 energy=-341.12057476085266 field_type=dipole dipole="0.000000 0.000000 0.000000" charge=0
N	-0.903154	-1.723887	-1.060408	7
C	-0.616134	-1.134407	0.254472	6
C	0.200546	0.139532	0.119992	6
N	1.424586	-0.007707	-0.710358	7
C	-0.521464	1.449012	-0.265558	6
O	0.191376	2.177123	0.777432	8
C	0.554476	0.913803	1.406582	6
H	-1.450544	-2.574127	-0.925258	1
H	-0.014244	-2.037218	-1.455138	1
H	-0.073764	-1.871167	0.858232	1
H	-1.563314	-0.932717	0.766502	1
H	1.982986	0.849163	-0.735048	1
H	1.192026	-0.194268	-1.686968	1
H	-1.600954	1.473032	-0.081538	1
H	-0.317344	1.856043	-1.260598	1
H	1.601556	0.900393	1.724652	1
H	-0.086634	0.717402	2.273012	1
Es	-1.220057	-2.242048	-0.963581	99
Es	-0.902882	-1.724231	-1.060051	99
Es	-0.616145	-1.134434	0.254327	99
Es	0.554400	0.913985	1.406470	99
Es	1.732990	0.518272	-0.720281	99
Es	0.331234	1.712362	1.051444	99
Es	-0.365726	-1.919673	-1.283454	99
Es	0.200666	0.139534	0.119926	99
Es	1.424247	-0.007276	-0.710579	99
Es	-1.261249	-0.986853	0.604057	99
Es	-0.768039	-1.488287	-0.483306	99
Es	-0.217890	0.752530	-0.141074	99
Es	1.261661	-0.102892	-1.300209	99
Es	-0.202928	-0.501033	0.177488	99
Es	-0.521356	1.449128	-0.265383	99
Es	-0.236809	-1.633367	0.679574	99
Es	1.271114	0.899450	1.621791	99
Es	-0.095229	1.929901	0.372774	99
Es	0.191350	2.177007	0.777396	99
Es	-1.264729	1.456047	-0.134462	99
Es	0.452822	2.294652	0.651852	99
Es	0.405622	0.443996	0.806437	99
Es	1.623366	-0.273928	-0.588913	99
Es	-0.379291	1.723457	-0.953205	99
Es	-1.070966	-1.486890	-1.279608	99
Es	0.886964	0.070582	-0.365926	99
Es	0.107327	0.767345	1.996828	99
Es	0.000768	2.326370	0.945347	99
45
Properties=species:S:1:pos:R:3:Z:I:1 energy=-341.12057476085266 field_type=dipole dipole="0.000000 0.000000 0.000000" charge=0
N	-0.903154	-1.723887	-1.060408	7
C	-0.616134	-1.134407	0.254472	6
C	0.200546	0.139532	0.119992	6
N	1.424586	-0.007707	-0.710358	7
C	-0.521464	1.449012	-0.265558	6
O	0.191376	2.177123	0.777432	8
C	0.554476	0.913803	1.406582	6
H	-1.450544	-2.574127	-0.925258	1
H	-0.014244	-2.037218	-1.455138	1
H	-0.073764	-1.871167	0.858232	1
H	-1.563314	-0.932717	0.766502	1
H	1.982986	0.849163	-0.735048	1
H	1.192026	-0.194268	-1.686968	1
H	-1.600954	1.473032	-0.081538	1
H	-0.317344	1.856043	-1.260598	1
H	1.601556	0.900393	1.724652	1
H	-0.086634	0.717402	2.273012	1
Es	0.107344	0.767312	1.996911	99
Es	1.623583	-0.273764	-0.588047	99
Es	0.328762	1.712709	1.052905	99
Es	0.191355	2.176911	0.777411	99
Es	-1.261285	-0.986834	0.604130	99
Es	-1.070781	-1.486605	-1.279994	99
Es	1.424259	-0.007303	-0.710560	99
Es	-0.379256	1.723437	-0.953319	99
Es	0.200666	0.139535	0.119926	99
Es	-0.616144	-1.134434	0.254328	99
Es	1.271129	0.899461	1.621689	99
Es	0.886833	0.070945	-0.366507	99
Es	-0.768071	-1.488366	-0.483318	99
Es	-0.521356	1.449129	-0.265383	99
Es	1.732498	0.518356	-0.720403	99
Es	0.405613	0.443992	0.806627	99
Es	0.002475	2.328415	0.944201	99
Es	-0.236785	-1.633351	0.679515	99
Es	-1.264700	1.456004	-0.134402	99
Es	-0.365827	-1.919854	-1.283003	99
Es	-0.902880	-1.724238	-1.060047	99
Es	-0.202806	-0.501007	0.177389	99
Es	-0.096019	1.929966	0.373408	99
Es	1.262022	-0.103446	-1.300441	99
Es	-1.220117	-2.242041	-0.963653	99
Es	0.554401	0.913985	1.406470	99
Es	-0.218035	0.752575	-0.141040	99
Es	0.454356	2.292217	0.650886	99
45
Properties=species:S:1:pos:R:3:Z:I:1 energy=-341.12057476085266 field_type=dipole dipole="0.000000 0.000000 0.000000" charge=0
N	-0.903154	-1.723887	-1.060408	7
C	-0.616134	-1.134407	0.254472	6
C	0.200546	0.139532	0.119992	6
N	1.424586	-0.007707	-0.710358	7
C	-0.521464	1.449012	-0.265558	6
O	0.191376	2.177123	0.777432	8
C	0.554476	0.913803	1.406582	6
H	-1.450544	-2.574127	-0.925258	1
H	-0.014244	-2.037218	-1.455138	1
H	-0.073764	-1.871167	0.858232	1
H	-1.563314	-0.932717	0.766502	1
H	1.982986	0.849163	-0.735048	1
H	1.192026	-0.194268	-1.686968	1
H	-1.600954	1.473032	-0.081538	1
H	-0.317344	1.856043	-1.260598	1
H	1.601556	0.900393	1.724652	1
H	-0.086634	0.717402	2.273012	1
Es	1.424264	-0.007307	-0.710553	99
Es	0.191351	2.176888	0.777383	99
Es	0.330820	1.712311	1.051755	99
Es	-0.202854	-0.500988	0.177451	99
Es	1.271098	0.899490	1.621666	99
Es	0.405744	0.444006	0.806584	99
Es	0.453171	2.297657	0.653209	99
Es	0.107229	0.767296	1.996975	99
Es	1.261734	-0.102748	-1.300300	99
Es	-1.219673	-2.241766	-0.963631	99
Es	-0.365934	-1.919862	-1.283456	99
Es	-0.218071	0.752730	-0.141073	99
Es	0.200666	0.139535	0.119926	99
Es	-0.379275	1.723432	-0.953371	99
Es	-0.767830	-1.488538	-0.483040	99
Es	0.554399	0.913985	1.406470	99
Es	-0.616146	-1.134433	0.254327	99
Es	1.732952	0.518191	-0.720160	99
Es	-0.902883	-1.724240	-1.060052	99
Es	0.000403	2.323358	0.944202	99
Es	-1.264684	1.455879	-0.134381	99
Es	-1.071323	-1.486666	-1.279862	99
Es	1.623370	-0.273934	-0.588955	99
Es	-0.521354	1.449130	-0.265381	99
Es	-1.261287	-0.986836	0.604088	99
Es	-0.236729	-1.633365	0.679562	99
Es	0.886865	0.070536	-0.365976	99
Es	-0.094790	1.929968	0.372271	99
45
Properties=species:S:1:pos:R:3:Z:I:1 energy=-341.12057476085266 field_type=dipole dipole="0.000000 0.000000 0.000000" charge=0
N	-0.903154	-1.723887	-1.060408	7
C	-0.616134	-1.134407	0.254472	6
C	0.200546	0.139532	0.119992	6
N	1.424586	-0.007707	-0.710358	7
C	-0.521464	1.449012	-0.265558	6
O	0.191376	2.177123	0.777432	8
C	0.554476	0.913803	1.406582	6
H	-1.450544	-2.574127	-0.925258	1
H	-0.014244	-2.037218	-1.455138	1
H	-0.073764	-1.871167	0.858232	1
H	-1.563314	-0.932717	0.766502	1
H	1.982986	0.849163	-0.735048	1
H	1.192026	-0.194268	-1.686968	1
H	-1.600954	1.473032	-0.081538	1
H	-0.317344	1.856043	-1.260598	1
H	1.601556	0.900393	1.724652	1
H	-0.086634	0.717402	2.273012	1
Es	0.452642	2.298402	0.652576	99
Es	-0.521356	1.449128	-0.265383	99
Es	1.424244	-0.007276	-0.710581	99
Es	0.554398	0.913985	1.406469	99
Es	-0.767688	-1.488854	-0.482850	99
Es	0.200665	0.139535	0.119926	99
Es	-0.202986	-0.500918	0.177412	99
Es	1.732935	0.518056	-0.719874	99
Es	-0.095833	1.930262	0.373000	99
Es	0.332053	1.711950	1.050959	99
Es	1.623556	-0.273865	-0.589954	99
Es	0.405762	0.444063	0.806664	99
Es	-0.366019	-1.919871	-1.283711	99
Es	-1.219831	-2.241591	-0.963916	99
Es	-0.218084	0.752712	-0.141011	99
Es	-0.902882	-1.724236	-1.060057	99
Es	0.000730	2.322581	0.944895	99
Es	-0.616145	-1.134434	0.254327	99
Es	1.271072	0.899467	1.621636	99
Es	-1.264585	1.455874	-0.134327	99
Es	-0.379270	1.723446	-0.953500	99
Es	0.191364	2.176968	0.777413	99
Es	-0.236692	-1.633368	0.679649	99
Es	1.261361	-0.101934	-1.300331	99
Es	0.107230	0.767270	1.997001	99
Es	0.887053	0.069719	-0.365242	99
Es	-1.261217	-0.986833	0.604031	99
Es	-1.071242	-1.486530	-1.279545	99
45
Properties=species:S:1:pos:R:3:Z:I:1 energy=-341.12057476085266 field_type=dipole dipole="0.000000 0.000000 0.000000" charge=0
N	-0.903154	-1.723887	-1.060408	7
C	-0.616134	-1.134407	0.254472	6
C	0.200546	0.139532	0.119992	6
N	1.424586	-0.007707	-0.710358	7
C	-0.521464	1.449012	-0.265558	6
O	0.191376	2.177123	0.777432	8
C	0.554476	0.913803	1.406582	6
H	-1.450544	-2.574127	-0.925258	1
H	-0.014244	-2.037218	-1.455138	1
H	-0.073764	-1.871167	0.858232	1
H	-1.563314	-0.932717	0.766502	1
H	1.982986	0.849163	-0.735048	1
H	1.192026	-0.194268	-1.686968	1
H	-1.600954	1.473032	-0.081538	1
H	-0.317344	1.856043	-1.260598	1
H	1.601556	0.900393	1.724652	1
H	-0.086634	0.717402	2.273012	1
Es	1.424242	-0.007282	-0.710568	99
Es	0.191320	2.176888	0.777370	99
Es	-0.767710	-1.488986	-0.483098	99
Es	0.554400	0.913985	1.406470	99
Es	-0.096410	1.930203	0.372962	99
Es	-1.264635	1.455896	-0.134284	99
Es	1.623654	-0.273350	-0.589309	99
Es	-1.219704	-2.241751	-0.963726	99
Es	0.107188	0.767240	1.997025	99
Es	0.453256	2.295975	0.652214	99
Es	-1.261270	-0.986874	0.604118	99
Es	0.330562	1.712309	1.052086	99
Es	-0.366052	-1.919977	-1.283147	99
Es	-1.071290	-1.486104	-1.280061	99
Es	-0.203060	-0.500945	0.177375	99
Es	-0.379226	1.723467	-0.953520	99
Es	-0.521356	1.449129	-0.265382	99
Es	0.200665	0.139537	0.119928	99
Es	0.002267	2.324658	0.944187	99
Es	0.405771	0.444081	0.806691	99
Es	-0.236685	-1.633353	0.679541	99
Es	-0.902890	-1.724227	-1.060052	99
Es	1.271104	0.899477	1.621605	99
Es	0.886971	0.070070	-0.365456	99
Es	1.261676	-0.102719	-1.300543	99
Es	1.732618	0.518030	-0.720154	99
Es	-0.218023	0.752764	-0.140920	99
Es	-0.616148	-1.134433	0.254327	99
45
Properties=species:S:1:pos:R:3:Z:I:1 energy=-341.12057476085266 field_type=dipole dipole="0.000000 0.000000 0.000000" charge=0
N	-0.903154	-1.723887	-1.060408	7
C	-0.616134	-1.134407	0.254472	6
C	0.200546	0.139532	0.119992	6
N	1.424586	-0.007707	-0.710358	7
C	-0.521464	1.449012	-0.265558	6
O	0.191376	2.177123	0.777432	8
C	0.554476	0.913803	1.406582	6
H	-1.450544	-2.574127	-0.925258	1
H	-0.014244	-2.037218	-1.455138	1
H	-0.073764	-1.871167	0.858232	1
H	-1.563314	-0.932717	0.766502	1
H	1.982986	0.849163	-0.735048	1
H	1.192026	-0.194268	-1.686968	1
H	-1.600954	1.473032	-0.081538	1
H	-0.317344	1.856043	-1.260598	1
H	1.601556	0.900393	1.724652	1
H	-0.086634	0.717402	2.273012	1
Es	0.191305	2.176816	0.777363	99
Es	-0.096643	1.930018	0.373387	99
Es	1.623447	-0.273466	-0.589385	99
Es	0.330462	1.712409	1.052428	99
Es	0.405766	0.444187	0.806705	99
Es	0.002360	2.324566	0.943862	99
Es	-0.767618	-1.489165	-0.483071	99
Es	0.107118	0.767259	1.997032	99
Es	-1.264538	1.455786	-0.134270	99
Es	-0.379262	1.723489	-0.953602	99
Es	-0.902873	-1.724236	-1.060038	99
Es	1.271140	0.899486	1.621616	99
Es	1.732807	0.517697	-0.719903	99
Es	-1.219615	-2.241764	-0.963721	99
Es	-0.218108	0.752748	-0.140985	99
Es	1.261730	-0.102412	-1.300719	99
Es	0.886915	0.070251	-0.365406	99
Es	-0.521357	1.449127	-0.265384	99
Es	1.424255	-0.007288	-0.710582	99
Es	0.200666	0.139536	0.119927	99
Es	-0.236682	-1.633380	0.679629	99
Es	0.554402	0.913988	1.406468	99
Es	-0.366093	-1.919832	-1.283434	99
Es	-1.261194	-0.986806	0.604065	99
Es	-1.071503	-1.486064	-1.279825	99
Es	0.453461	2.296191	0.651795	99
Es	-0.616146	-1.134434	0.254328	99
Es	-0.202968	-0.501002	0.177397	99
45
Properties=species:S:1:pos:R:3:Z:I:1 energy=-341.12057476085266 field_type=dipole dipole="0.000000 0.000000 0.000000" charge=0
N	-0.903154	-1.723887	-1.060408	7
C	-0.616134	-1.134407	0.254472	6
C	0.200546	0.139532	0.119992	6
N	1.424586	-0.007707	-0.710358	7
C	-0.521464	1.449012	-0.265558	6
O	0.191376	2.177123	0.777432	8
C	0.554476	0.913803	1.406582	6
H	-1.450544	-2.574127	-0.925258	1
H	-0.014244	-2.037218	-1.455138	1
H	-0.073764	-1.871167	0.858232	1
H	-1.563314	-0.932717	0.766502	1
H	1.982986	0.849163	-0.735048	1
H	1.192026	-0.194268	-1.686968	1
H	-1.600954	1.473032	-0.081538	1
H	-0.317344	1.856043	-1.260598	1
H	1.601556	0.900393	1.724652	1
H	-0.086634	0.717402	2.273012	1
Es	-0.202910	-0.501058	0.177364	99
Es	-0.218118	0.752900	-0.141039	99
Es	-0.379231	1.723508	-0.953587	99
Es	-0.097080	1.930178	0.373499	99
Es	-1.219314	-2.241858	-0.963596	99
Es	1.424248	-0.007287	-0.710569	99
Es	0.003403	2.325528	0.943269	99
Es	-0.521355	1.449129	-0.265383	99
Es	0.554398	0.913984	1.406472	99
Es	1.271157	0.899484	1.621641	99
Es	-1.261284	-0.986684	0.604052	99
Es	-0.767623	-1.488656	-0.482999	99
Es	0.405803	0.444104	0.806793	99
Es	-0.236724	-1.633392	0.679652	99
Es	-0.616146	-1.134434	0.254327	99
Es	-1.264619	1.455738	-0.134241	99
Es	1.261648	-0.102218	-1.300594	99
Es	1.732685	0.517883	-0.719901	99
Es	0.454011	2.294840	0.651503	99
Es	-0.902881	-1.724236	-1.060048	99
Es	0.329330	1.712591	1.053189	99
Es	-1.071560	-1.486461	-1.280255	99
Es	1.623633	-0.273557	-0.589601	99
Es	0.107091	0.767225	1.996995	99
Es	-0.366239	-1.919821	-1.283220	99
Es	0.886934	0.069923	-0.365334	99
Es	0.191313	2.176818	0.777362	99
Es	0.200665	0.139535	0.119925	99
45
Properties=species:S:1:pos:R:3:Z:I:1 energy=-341.12057476085266 field_type=dipole dipole="0.000000 0.000000 0.000000" charge=0
N	-0.903154	-1.723887	-1.060408	7
C	-0.616134	-1.134407	0.254472	6
C	0.200546	0.139532	0.119992	6
N	1.424586	-0.007707	-0.710358	7
C	-0.521464	1.449012	-0.265558	6
O	0.191376	2.177123	0.777432	8
C	0.554476	0.913803	1.406582	6
H	-1.450544	-2.574127	-0.925258	1
H	-0.014244	-2.037218	-1.455138	1
H	-0.073764	-1.871167	0.858232	1
H	-1.563314	-0.932717	0.766502	1
H	1.982986	0.849163	-0.735048	1
H	1.192026	-0.194268	-1.686968	1
H	-1.600954	1.473032	-0.081538	1
H	-0.317344	1.856043	-1.260598	1
H	1.601556	0.900393	1.724652	1
H	-0.086634	0.717402	2.273012	1
Es	1.424225	-0.007269	-0.710584	99
Es	0.106992	0.767172	1.996946	99
Es	0.453210	2.296942	0.652471	99
Es	0.002556	2.323626	0.943203	99
Es	-0.616146	-1.134434	0.254328	99
Es	-0.096380	1.930368	0.372967	99
Es	-0.521355	1.449129	-0.265382	99
Es	0.200666	0.139538	0.119928	99
Es	-0.902881	-1.724228	-1.060038	99
Es	-0.236695	-1.633398	0.679654	99
Es	-0.202922	-0.500958	0.177392	99
Es	-1.264659	1.455655	-0.134171	99
Es	0.405818	0.444205	0.806861	99
Es	1.623492	-0.273397	-0.589638	99
Es	-0.767733	-1.488919	-0.483020	99
Es	-0.379218	1.723454	-0.953643	99
Es	-0.218144	0.752941	-0.141046	99
Es	1.732853	0.517727	-0.719918	99
Es	-1.071634	-1.486327	-1.280010	99
Es	0.554398	0.913983	1.406472	99
Es	0.330268	1.712182	1.052785	99
Es	1.261503	-0.102328	-1.300687	99
Es	0.887128	0.070026	-0.365211	99
Es	-1.219302	-2.241908	-0.963733	99
Es	-0.366100	-1.919634	-1.283346	99
Es	1.271155	0.899486	1.621702	99
Es	0.191367	2.176825	0.777350	99
Es	-1.261228	-0.986751	0.604046	99
45
Properties=species:S:1:pos:R:3:Z:I:1 energy=-341.12057476085266 field_type=dipole dipole="0.000000 0.000000 0.000000" charge=0
N	-0.903154	-1.723887	-1.060408	7
C	-0.616134	-1.134407	0.254472	6
C	0.200546	0.139532	0.119992	6
N	1.424586	-0.007707	-0.710358	7
C	-0.521464	1.449012	-0.265558	6
O	0.191376	2.177123	0.777432	8
C	0.554476	0.913803	1.406582	6
H	-1.450544	-2.574127	-0.925258	1
H	-0.014244	-2.037218	-1.455138	1
H	-0.073764	-1.871167	0.858232	1
H	-1.563314	-0.932717	0.766502	1
H	1.982986	0.849163	-0.735048	1
H	1.192026	-0.194268	-1.686968	1
H	-1.600954	1.473032	-0.081538	1
H	-0.317344	1.856043	-1.260598	1
H	1.601556	0.900393	1.724652	1
H	-0.086634	0.717402	2.273012	1
Es	-0.521354	1.449130	-0.265381	99
Es	-0.236601	-1.633367	0.679648	99
Es	-1.261237	-0.986808	0.604061	99
Es	-0.767442	-1.489217	-0.482904	99
Es	0.328745	1.712240	1.053326	99
Es	1.271190	0.899491	1.621635	99
Es	0.887342	0.069399	-0.364602	99
Es	1.623862	-0.273529	-0.590391	99
Es	1.732624	0.517715	-0.719793	99
Es	1.261077	-0.101580	-1.300647	99
Es	0.107093	0.767234	1.996992	99
Es	-0.379204	1.723408	-0.953703	99
Es	-0.616145	-1.134433	0.254330	99
Es	0.191336	2.176801	0.777354	99
Es	-0.366251	-1.919578	-1.283714	99
Es	-0.902906	-1.724223	-1.060041	99
Es	0.454193	2.294335	0.651590	99
Es	0.554399	0.913984	1.406471	99
Es	0.405750	0.444139	0.806942	99
Es	-0.218131	0.752981	-0.141008	99
Es	-1.264624	1.455667	-0.134167	99
Es	-1.219333	-2.241844	-0.963733	99
Es	0.200664	0.139536	0.119926	99
Es	-1.071738	-1.486185	-1.279693	99
Es	1.424249	-0.007286	-0.710570	99
Es	0.003974	2.325800	0.943084	99
Es	-0.097261	1.930772	0.373410	99
Es	-0.203038	-0.500878	0.177257	99
45
Properties=species:S:1:pos:R:3:Z:I:1 energy=-341.12057476085266 field_type=dipole dipole="0.000000 0.000000 0.000000" charge=0
N	-0.903154	-1.723887	-1.060408	7
C	-0.616134	-1.134407	0.254472	6
C	0.200546	0.139532	0.119992	6
N	1.424586	-0.007707	-0.710358	7
C	-0.521464	1.449012	-0.265558	6
O	0.191376	2.177123	0.777432	8
C	0.554476	0.913803	1.406582	6
H	-1.450544	-2.574127	-0.925258	1
H	-0.014244	-2.037218	-1.455138	1
H	-0.073764	-1.871167	0.858232	1
H	-1.563314	-0.932717	0.766502	1
H	1.982986	0.849163	-0.735048	1
H	1.192026	-0.194268	-1.686968	1
H	-1.600954	1.473032	-0.081538	1
H	-0.317344	1.856043	-1.260598	1
H	1.601556	0.900393	1.724652	1
H	-0.086634	0.717402	2.273012	1
Es	-1.219330	-2.241815	-0.963611	99
Es	0.107055	0.767252	1.997048	99
Es	-0.902881	-1.724237	-1.060045	99
Es	0.200666	0.139534	0.119926	99
Es	0.329039	1.712706	1.053675	99
Es	0.554399	0.913983	1.406471	99
Es	-1.071726	-1.486014	-1.280060	99
Es	-1.261267	-0.986694	0.604031	99
Es	-0.096395	1.930128	0.372824	99
Es	1.623507	-0.273655	-0.589760	99
Es	-0.767595	-1.489204	-0.483032	99
Es	1.261534	-0.101865	-1.300780	99
Es	0.191345	2.176846	0.777357	99
Es	-0.236679	-1.633377	0.679692	99
Es	0.003045	2.323751	0.942305	99
Es	0.454020	2.296528	0.652614	99
Es	1.732858	0.517530	-0.719686	99
Es	-1.264629	1.455643	-0.134179	99
Es	-0.616145	-1.134433	0.254328	99
Es	-0.218254	0.752999	-0.141035	99
Es	-0.379159	1.723388	-0.953729	99
Es	0.405721	0.444114	0.807025	99
Es	1.271151	0.899432	1.621592	99
Es	0.887013	0.069960	-0.365219	99
Es	1.424234	-0.007279	-0.710585	99
Es	-0.366123	-1.919806	-1.283299	99
Es	-0.521355	1.449129	-0.265383	99
Es	-0.202820	-0.500839	0.177195	99
45
Properties=species:S:1:pos:R:3:Z:I:1 energy=-341.12057476085266 field_type=dipole dipole="0.000000 0.000000 0.000000" charge=0
N	-0.903154	-1.723887	-1.060408	7
C	-0.616134	-1.134407	0.254472	6
C	0.200546	0.139532	0.119992	6
N	1.424586	-0.007707	-0.710358	7
C	-0.521464	1.449012	-0.265558	6
O	0.191376	2.177123	0.777432	8
C	0.554476	0.913803	1.406582	6
H	-1.450544	-2.574127	-0.925258	1
H	-0.014244	-2.037218	-1.455138	1
H	-0.073764	-1.871167	0.858232	1
H	-1.563314	-0.932717	0.766502	1
H	1.982986	0.849163	-0.735048	1
H	1.192026	-0.194268	-1.686968	1
H	-1.600954	1.473032	-0.081538	1
H	-0.317344	1.856043	-1.260598	1
H	1.601556	0.900393	1.724652	1
H	-0.086634	0.717402	2.273012	1
Es	-0.521356	1.449129	-0.265383	99
Es	0.002620	2.321624	0.942917	99
Es	-0.236657	-1.633388	0.679703	99
Es	0.554401	0.913985	1.406470	99
Es	1.624041	-0.273913	-0.590254	99
Es	0.453271	2.298839	0.653284	99
Es	1.271189	0.899456	1.621459	99
Es	-0.616146	-1.134434	0.254327	99
Es	-0.902880	-1.724227	-1.060041	99
Es	0.191293	2.176802	0.777369	99
Es	0.330419	1.712102	1.052535	99
Es	-0.218216	0.753081	-0.140913	99
Es	-0.366137	-1.919521	-1.283413	99
Es	1.732417	0.517209	-0.719594	99
Es	-1.219317	-2.241962	-0.963839	99
Es	0.887140	0.069774	-0.364829	99
Es	-0.202969	-0.500909	0.177301	99
Es	0.107076	0.767204	1.997143	99
Es	-0.767787	-1.488776	-0.482881	99
Es	1.424298	-0.007339	-0.710532	99
Es	0.405749	0.444224	0.806964	99
Es	0.200664	0.139537	0.119927	99
Es	-1.264596	1.455581	-0.134116	99
Es	-1.261222	-0.986721	0.604025	99
Es	-0.096611	1.930528	0.372689	99
Es	-0.379155	1.723381	-0.953822	99
Es	1.261241	-0.101004	-1.300873	99
Es	-1.071535	-1.486556	-1.279945	99
