46
Properties=species:S:1:pos:R:3:Z:I:1 energy=-325.1273077844109 field_type=dipole dipole="0.000000 0.000000 0.000000" charge=0
N	-2.690254	-1.274961	-0.269964	7
C	-1.239654	-1.161281	-0.351824	6
C	-0.723504	-0.128071	0.647016	6
C	0.794176	-0.039470	0.566406	6
C	1.403456	0.677520	-0.648124	6
C	2.099146	1.552739	0.388976	6
O	1.297256	0.995379	1.456366	8
H	-3.024594	-1.922421	-0.982354	1
H	-3.122024	-0.374210	-0.473624	1
H	-0.954774	-0.882390	-1.372074	1
H	-0.791744	-2.139631	-0.145934	1
H	-1.017354	-0.417630	1.663766	1
H	-1.175114	0.852179	0.448426	1
H	1.282396	-0.994321	0.800976	1
H	0.694056	1.214289	-1.284394	1
H	2.068506	0.067469	-1.263944	1
H	3.162396	1.346649	0.542626	1
H	1.937626	2.628159	0.277676	1
Es	0.794243	-0.039290	0.566510	99
Es	1.797091	1.150791	-0.204136	99
Es	1.856664	0.260688	-1.072775	99
Es	1.297386	0.995231	1.455977	99
Es	1.101788	0.589627	1.143874	99
Es	-1.030736	-0.962429	-1.058439	99
Es	0.914582	1.042677	-1.076989	99
Es	1.619265	1.225137	1.071639	99
Es	-2.880869	-1.656178	-0.718275	99
Es	1.125298	-0.703014	0.719560	99
Es	-0.723480	-0.128096	0.646971	99
Es	1.477130	0.875099	1.681022	99
Es	-1.239785	-1.161266	-0.351797	99
Es	2.099007	1.552634	0.389113	99
Es	1.060955	0.263114	-0.110568	99
Es	-0.930168	-1.832283	-0.210099	99
Es	-2.790810	-1.383353	0.049574	99
Es	-0.916461	-0.328419	1.333947	99
Es	1.993064	2.293592	0.310165	99
Es	1.403463	0.677523	-0.648089	99
Es	-2.935726	-0.726104	-0.414571	99
Es	2.832476	1.408906	0.487259	99
Es	-1.029226	0.541950	0.498708	99
Es	-2.690090	-1.274772	-0.270504	99
Es	0.031421	-0.087033	0.598279	99
Es	-2.063404	-1.216528	-0.331162	99
Es	-0.979522	-0.642386	0.145293	99
Es	1.062956	1.189431	1.498616	99
46
Properties=species:S:1:pos:R:3:Z:I:1 energy=-325.1273077844109 field_type=dipole dipole="0.000000 0.000000 0.000000" charge=0
N	-2.690254	-1.274961	-0.269964	7
C	-1.239654	-1.161281	-0.351824	6
C	-0.723504	-0.128071	0.647016	6
C	0.794176	-0.039470	0.566406	6
C	1.403456	0.677520	-0.648124	6
C	2.099146	1.552739	0.388976	6
O	1.297256	0.995379	1.456366	8
H	-3.024594	-1.922421	-0.982354	1
H	-3.122024	-0.374210	-0.473624	1
H	-0.954774	-0.882390	-1.372074	1
H	-0.791744	-2.139631	-0.145934	1
H	-1.017354	-0.417630	1.663766	1
H	-1.175114	0.852179	0.448426	1
H	1.282396	-0.994321	0.800976	1
H	0.694056	1.214289	-1.284394	1
H	2.068506	0.067469	-1.263944	1
H	3.162396	1.346649	0.542626	1
H	1.937626	2.628159	0.277676	1
Es	-0.930014	-1.832654	-0.210080	99
Es	-0.723481	-0.128098	0.646972	99
Es	1.125340	-0.703362	0.719596	99
Es	-1.029203	0.542277	0.498575	99
Es	1.856774	0.260701	-1.073080	99
Es	1.062241	1.190238	1.503469	99
Es	-0.916349	-0.328396	1.333910	99
Es	2.832022	1.408623	0.487236	99
Es	0.794241	-0.039287	0.566510	99
Es	-1.239786	-1.161266	-0.351796	99
Es	1.060525	0.263223	-0.110593	99
Es	-2.690085	-1.274772	-0.270507	99
Es	2.099009	1.552634	0.389112	99
Es	1.797217	1.150678	-0.203998	99
Es	1.478544	0.874705	1.676056	99
Es	1.297305	0.995304	1.456045	99
Es	1.101770	0.588761	1.144255	99
Es	-1.031031	-0.962348	-1.058375	99
Es	0.914742	1.042646	-1.076691	99
Es	-2.880719	-1.656480	-0.718160	99
Es	-2.063685	-1.216516	-0.331376	99
Es	1.403465	0.677523	-0.648089	99
Es	1.993204	2.294200	0.310151	99
Es	-2.936017	-0.725534	-0.414413	99
Es	-0.979560	-0.642315	0.145258	99
Es	-2.790101	-1.383568	0.049546	99
Es	0.031530	-0.087116	0.598398	99
Es	1.618615	1.225449	1.071174	99
46
Properties=species:S:1:pos:R:3:Z:I:1 energy=-325.1273077844109 field_type=dipole dipole="0.000000 0.000000 0.000000" charge=0
N	-2.690254	-1.274961	-0.269964	7
C	-1.239654	-1.161281	-0.351824	6
C	-0.723504	-0.128071	0.647016	6
C	0.794176	-0.039470	0.566406	6
C	1.403456	0.677520	-0.648124	6
C	2.099146	1.552739	0.388976	6
O	1.297256	0.995379	1.456366	8
H	-3.024594	-1.922421	-0.982354	1
H	-3.122024	-0.374210	-0.473624	1
H	-0.954774	-0.882390	-1.372074	1
H	-0.791744	-2.139631	-0.145934	1
H	-1.017354	-0.417630	1.663766	1
H	-1.175114	0.852179	0.448426	1
H	1.282396	-0.994321	0.800976	1
H	0.694056	1.214289	-1.284394	1
H	2.068506	0.067469	-1.263944	1
H	3.162396	1.346649	0.542626	1
H	1.937626	2.628159	0.277676	1
Es	1.619648	1.225431	1.071600	99
Es	1.060293	0.263279	-0.110528	99
Es	1.856838	0.260693	-1.073192	99
Es	1.993272	2.294408	0.310028	99
Es	0.794243	-0.039290	0.566509	99
Es	-2.880941	-1.656988	-0.717975	99
Es	1.103850	0.587592	1.144862	99
Es	-2.690088	-1.274791	-0.270463	99
Es	2.831782	1.408576	0.487188	99
Es	-0.929947	-1.832847	-0.210083	99
Es	-2.789270	-1.383436	0.048959	99
Es	-0.916170	-0.328508	1.333794	99
Es	-1.239784	-1.161266	-0.351796	99
Es	1.797216	1.150553	-0.203992	99
Es	2.099007	1.552634	0.389112	99
Es	-2.936291	-0.724981	-0.413975	99
Es	0.031356	-0.087112	0.598575	99
Es	1.477256	0.875869	1.675356	99
Es	1.297294	0.995338	1.456168	99
Es	-1.029248	0.542623	0.498611	99
Es	-0.979479	-0.642409	0.145145	99
Es	-1.031108	-0.962278	-1.058285	99
Es	1.403466	0.677522	-0.648089	99
Es	0.914884	1.042589	-1.076580	99
Es	1.060491	1.190286	1.503106	99
Es	1.125329	-0.703509	0.719594	99
Es	-0.723481	-0.128097	0.646972	99
Es	-2.063906	-1.216630	-0.331516	99
46
Properties=species:S:1:pos:R:3:Z:I:1 energy=-325.1273077844109 field_type=dipole dipole="0.000000 0.000000 0.000000" charge=0
N	-2.690254	-1.274961	-0.269964	7
C	-1.239654	-1.161281	-0.351824	6
C	-0.723504	-0.128071	0.647016	6
C	0.794176	-0.039470	0.566406	6
C	1.403456	0.677520	-0.648124	6
C	2.099146	1.552739	0.388976	6
O	1.297256	0.995379	1.456366	8
H	-3.024594	-1.922421	-0.982354	1
H	-3.122024	-0.374210	-0.473624	1
H	-0.954774	-0.882390	-1.372074	1
H	-0.791744	-2.139631	-0.145934	1
H	-1.017354	-0.417630	1.663766	1
H	-1.175114	0.852179	0.448426	1
H	1.282396	-0.994321	0.800976	1
H	0.694056	1.214289	-1.284394	1
H	2.068506	0.067469	-1.263944	1
H	3.162396	1.346649	0.542626	1
H	1.937626	2.628159	0.277676	1
Es	-2.936498	-0.724747	-0.414052	99
Es	-1.031194	-0.962281	-1.058234	99
Es	-0.916038	-0.328503	1.333801	99
Es	-0.929930	-1.833013	-0.210067	99
Es	1.403463	0.677522	-0.648090	99
Es	1.125387	-0.703627	0.719613	99
Es	1.297304	0.995328	1.456119	99
Es	1.856821	0.260593	-1.073228	99
Es	-0.979548	-0.642356	0.145208	99
Es	2.099008	1.552634	0.389111	99
Es	-2.064093	-1.216549	-0.331855	99
Es	2.831559	1.408432	0.487142	99
Es	0.031310	-0.087229	0.598534	99
Es	-2.690090	-1.274775	-0.270498	99
Es	-1.029227	0.542820	0.498567	99
Es	1.060031	0.263401	-0.110416	99
Es	1.479484	0.874539	1.670722	99
Es	1.797369	1.150590	-0.203986	99
Es	1.061156	1.190011	1.508679	99
Es	0.794242	-0.039291	0.566509	99
Es	-0.723479	-0.128095	0.646970	99
Es	-2.788713	-1.383306	0.049033	99
Es	1.617840	1.226961	1.071123	99
Es	-2.880970	-1.657397	-0.717640	99
Es	1.993372	2.294658	0.309972	99
Es	0.915038	1.042541	-1.076541	99
Es	-1.239785	-1.161265	-0.351797	99
Es	1.102692	0.587653	1.144407	99
46
Properties=species:S:1:pos:R:3:Z:I:1 energy=-325.1273077844109 field_type=dipole dipole="0.000000 0.000000 0.000000" charge=0
N	-2.690254	-1.274961	-0.269964	7
C	-1.239654	-1.161281	-0.351824	6
C	-0.723504	-0.128071	0.647016	6
C	0.794176	-0.039470	0.566406	6
C	1.403456	0.677520	-0.648124	6
C	2.099146	1.552739	0.388976	6
O	1.297256	0.995379	1.456366	8
H	-3.024594	-1.922421	-0.982354	1
H	-3.122024	-0.374210	-0.473624	1
H	-0.954774	-0.882390	-1.372074	1
H	-0.791744	-2.139631	-0.145934	1
H	-1.017354	-0.417630	1.663766	1
H	-1.175114	0.852179	0.448426	1
H	1.282396	-0.994321	0.800976	1
H	0.694056	1.214289	-1.284394	1
H	2.068506	0.067469	-1.263944	1
H	3.162396	1.346649	0.542626	1
H	1.937626	2.628159	0.277676	1
Es	-0.979409	-0.642404	0.145183	99
Es	-1.031260	-0.962139	-1.058100	99
Es	1.619338	1.225918	1.071627	99
Es	-2.881119	-1.657730	-0.717324	99
Es	1.060427	1.190228	1.505145	99
Es	0.794242	-0.039290	0.566509	99
Es	-1.239786	-1.161265	-0.351797	99
Es	1.856795	0.260659	-1.073454	99
Es	1.125354	-0.703719	0.719597	99
Es	1.993413	2.294899	0.309919	99
Es	0.915183	1.042474	-1.076319	99
Es	-2.064561	-1.216390	-0.332652	99
Es	1.477366	0.876602	1.673147	99
Es	1.297315	0.995297	1.456046	99
Es	-0.915984	-0.328638	1.333759	99
Es	2.099008	1.552633	0.389112	99
Es	2.831346	1.408352	0.487112	99
Es	-1.029319	0.542971	0.498563	99
Es	-2.936687	-0.724557	-0.413998	99
Es	1.403464	0.677523	-0.648089	99
Es	1.104081	0.586369	1.145088	99
Es	0.031254	-0.087161	0.598605	99
Es	1.059873	0.263361	-0.110356	99
Es	-0.723480	-0.128097	0.646972	99
Es	-0.929831	-1.833149	-0.210175	99
Es	1.797484	1.150575	-0.203962	99
Es	-2.787895	-1.383277	0.049390	99
Es	-2.690098	-1.274795	-0.270442	99
46
Properties=species:S:1:pos:R:3:Z:I:1 energy=-325.1273077844109 field_type=dipole dipole="0.000000 0.000000 0.000000" charge=0
N	-2.690254	-1.274961	-0.269964	7
C	-1.239654	-1.161281	-0.351824	6
C	-0.723504	-0.128071	0.647016	6
C	0.794176	-0.039470	0.566406	6
C	1.403456	0.677520	-0.648124	6
C	2.099146	1.552739	0.388976	6
O	1.297256	0.995379	1.456366	8
H	-3.024594	-1.922421	-0.982354	1
H	-3.122024	-0.374210	-0.473624	1
H	-0.954774	-0.882390	-1.372074	1
H	-0.791744	-2.139631	-0.145934	1
H	-1.017354	-0.417630	1.663766	1
H	-1.175114	0.852179	0.448426	1
H	1.282396	-0.994321	0.800976	1
H	0.694056	1.214289	-1.284394	1
H	2.068506	0.067469	-1.263944	1
H	3.162396	1.346649	0.542626	1
H	1.937626	2.628159	0.277676	1
Es	1.993470	2.294996	0.309919	99
Es	-1.239785	-1.161266	-0.351796	99
Es	1.619371	1.226397	1.071610	99
Es	1.477118	0.876570	1.671873	99
Es	0.915270	1.042512	-1.076338	99
Es	2.831246	1.408306	0.487116	99
Es	1.059779	0.263369	-0.110433	99
Es	-2.880952	-1.657905	-0.717218	99
Es	-0.915927	-0.328601	1.333710	99
Es	-1.029312	0.543117	0.498510	99
Es	-0.723481	-0.128099	0.646972	99
Es	1.403464	0.677523	-0.648089	99
Es	-0.979395	-0.642473	0.145070	99
Es	1.104220	0.586301	1.145071	99
Es	-2.788402	-1.382942	0.048908	99
Es	-2.064283	-1.216710	-0.331742	99
Es	1.060205	1.190060	1.506434	99
Es	0.031184	-0.087185	0.598694	99
Es	0.794242	-0.039291	0.566509	99
Es	2.099009	1.552634	0.389112	99
Es	1.125331	-0.703769	0.719649	99
Es	1.297565	0.995095	1.456048	99
Es	-0.929840	-1.833206	-0.210003	99
Es	1.797521	1.150504	-0.203909	99
Es	-2.690088	-1.274779	-0.270489	99
Es	1.856803	0.260655	-1.073436	99
Es	-2.936516	-0.724363	-0.414424	99
Es	-1.031304	-0.962198	-1.058225	99
46
Properties=species:S:1:pos:R:3:Z:I:1 energy=-325.1273077844109 field_type=dipole dipole="0.000000 0.000000 0.000000" charge=0
N	-2.690254	-1.274961	-0.269964	7
C	-1.239654	-1.161281	-0.351824	6
C	-0.723504	-0.128071	0.647016	6
C	0.794176	-0.039470	0.566406	6
C	1.403456	0.677520	-0.648124	6
C	2.099146	1.552739	0.388976	6
O	1.297256	0.995379	1.456366	8
H	-3.024594	-1.922421	-0.982354	1
H	-3.122024	-0.374210	-0.473624	1
H	-0.954774	-0.882390	-1.372074	1
H	-0.791744	-2.139631	-0.145934	1
H	-1.017354	-0.417630	1.663766	1
H	-1.175114	0.852179	0.448426	1
H	1.282396	-0.994321	0.800976	1
H	0.694056	1.214289	-1.284394	1
H	2.068506	0.067469	-1.263944	1
H	3.162396	1.346649	0.542626	1
H	1.937626	2.628159	0.277676	1
Es	0.031215	-0.087340	0.598643	99
Es	1.103465	0.585912	1.145472	99
Es	0.794243	-0.039290	0.566510	99
Es	1.060688	1.190966	1.507473	99
Es	1.993453	2.295174	0.309831	99
Es	-1.029212	0.543235	0.498451	99
Es	2.099006	1.552634	0.389115	99
Es	-2.064444	-1.216448	-0.332417	99
Es	1.297332	0.995323	1.456052	99
Es	-0.929790	-1.833359	-0.210079	99
Es	-2.880882	-1.657693	-0.717381	99
Es	0.915341	1.042504	-1.076280	99
Es	1.403464	0.677523	-0.648089	99
Es	-0.979583	-0.642374	0.145230	99
Es	-1.031388	-0.962124	-1.058118	99
Es	-2.690081	-1.274772	-0.270504	99
Es	-2.787737	-1.383603	0.048959	99
Es	2.831081	1.408284	0.487048	99
Es	1.477419	0.876632	1.670547	99
Es	1.059634	0.263261	-0.110434	99
Es	-0.723481	-0.128097	0.646972	99
Es	1.856782	0.260742	-1.073501	99
Es	1.619641	1.225581	1.071478	99
Es	1.125319	-0.703834	0.719709	99
Es	-0.915855	-0.328552	1.333754	99
Es	-2.936978	-0.724196	-0.413706	99
Es	-1.239785	-1.161266	-0.351797	99
Es	1.797646	1.150430	-0.203835	99
46
Properties=species:S:1:pos:R:3:Z:I:1 energy=-325.1273077844109 field_type=dipole dipole="0.000000 0.000000 0.000000" charge=0
N	-2.690254	-1.274961	-0.269964	7
C	-1.239654	-1.161281	-0.351824	6
C	-0.723504	-0.128071	0.647016	6
C	0.794176	-0.039470	0.566406	6
C	1.403456	0.677520	-0.648124	6
C	2.099146	1.552739	0.388976	6
O	1.297256	0.995379	1.456366	8
H	-3.024594	-1.922421	-0.982354	1
H	-3.122024	-0.374210	-0.473624	1
H	-0.954774	-0.882390	-1.372074	1
H	-0.791744	-2.139631	-0.145934	1
H	-1.017354	-0.417630	1.663766	1
H	-1.175114	0.852179	0.448426	1
H	1.282396	-0.994321	0.800976	1
H	0.694056	1.214289	-1.284394	1
H	2.068506	0.067469	-1.263944	1
H	3.162396	1.346649	0.542626	1
H	1.937626	2.628159	0.277676	1
Es	1.059559	0.263468	-0.110291	99
Es	1.059485	1.189386	1.503507	99
Es	2.830966	1.408234	0.487070	99
Es	1.105865	0.584767	1.145934	99
Es	2.099009	1.552635	0.389111	99
Es	-2.787884	-1.383774	0.048722	99
Es	-0.929728	-1.833414	-0.210034	99
Es	1.620031	1.226264	1.071740	99
Es	0.915376	1.042309	-1.076167	99
Es	-1.029393	0.543324	0.498640	99
Es	1.993525	2.295267	0.309845	99
Es	1.297359	0.995276	1.456035	99
Es	1.475759	0.878697	1.673788	99
Es	1.856723	0.260588	-1.073586	99
Es	-1.031436	-0.962150	-1.058081	99
Es	-1.239786	-1.161267	-0.351796	99
Es	-2.064403	-1.216402	-0.332093	99
Es	-2.937027	-0.724162	-0.413520	99
Es	0.794242	-0.039290	0.566510	99
Es	-0.723481	-0.128099	0.646973	99
Es	1.797750	1.150601	-0.203963	99
Es	1.125390	-0.703878	0.719638	99
Es	-0.979583	-0.642320	0.145115	99
Es	-2.880731	-1.657571	-0.717617	99
Es	-2.690077	-1.274770	-0.270517	99
Es	0.031184	-0.087281	0.598563	99
Es	1.403465	0.677523	-0.648091	99
Es	-0.915646	-0.328712	1.333670	99
46
Properties=species:S:1:pos:R:3:Z:I:1 energy=-325.1273077844109 field_type=dipole dipole="0.000000 0.000000 0.000000" charge=0
N	-2.690254	-1.274961	-0.269964	7
C	-1.239654	-1.161281	-0.351824	6
C	-0.723504	-0.128071	0.647016	6
C	0.794176	-0.039470	0.566406	6
C	1.403456	0.677520	-0.648124	6
C	2.099146	1.552739	0.388976	6
O	1.297256	0.995379	1.456366	8
H	-3.024594	-1.922421	-0.982354	1
H	-3.122024	-0.374210	-0.473624	1
H	-0.954774	-0.882390	-1.372074	1
H	-0.791744	-2.139631	-0.145934	1
H	-1.017354	-0.417630	1.663766	1
H	-1.175114	0.852179	0.448426	1
H	1.282396	-0.994321	0.800976	1
H	0.694056	1.214289	-1.284394	1
H	2.068506	0.067469	-1.263944	1
H	3.162396	1.346649	0.542626	1
H	1.937626	2.628159	0.277676	1
Es	2.830878	1.408200	0.487045	99
Es	1.476063	0.877805	1.671729	99
Es	1.856696	0.260665	-1.073602	99
Es	-2.937107	-0.724020	-0.413624	99
Es	0.794245	-0.039289	0.566512	99
Es	1.125359	-0.703992	0.719665	99
Es	-2.880847	-1.657843	-0.717319	99
Es	2.099006	1.552633	0.389115	99
Es	-0.929740	-1.833448	-0.210195	99
Es	-1.031461	-0.961997	-1.058060	99
Es	-0.915659	-0.328676	1.333632	99
Es	-2.690090	-1.274772	-0.270501	99
Es	1.797826	1.150490	-0.203877	99
Es	0.915492	1.042404	-1.076164	99
Es	1.993548	2.295358	0.309803	99
Es	-2.787320	-1.383694	0.049064	99
Es	1.403465	0.677523	-0.648089	99
Es	-1.029434	0.543315	0.498591	99
Es	-2.064733	-1.216369	-0.332634	99
Es	-1.239784	-1.161265	-0.351797	99
Es	1.105410	0.585185	1.145844	99
Es	0.031190	-0.087099	0.598619	99
Es	-0.723481	-0.128098	0.646972	99
Es	1.620252	1.226309	1.071699	99
Es	1.059451	1.189844	1.505717	99
Es	1.059409	0.263354	-0.110260	99
Es	-0.979445	-0.642552	0.145189	99
Es	1.297322	0.995281	1.456030	99
46
Properties=species:S:1:pos:R:3:Z:I:1 energy=-325.1273077844109 field_type=dipole dipole="0.000000 0.000000 0.000000" charge=0
N	-2.690254	-1.274961	-0.269964	7
C	-1.239654	-1.161281	-0.351824	6
C	-0.723504	-0.128071	0.647016	6
C	0.794176	-0.039470	0.566406	6
C	1.403456	0.677520	-0.648124	6
C	2.099146	1.552739	0.388976	6
O	1.297256	0.995379	1.456366	8
H	-3.024594	-1.922421	-0.982354	1
H	-3.122024	-0.374210	-0.473624	1
H	-0.954774	-0.882390	-1.372074	1
H	-0.791744	-2.139631	-0.145934	1
H	-1.017354	-0.417630	1.663766	1
H	-1.175114	0.852179	0.448426	1
H	1.282396	-0.994321	0.800976	1
H	0.694056	1.214289	-1.284394	1
H	2.068506	0.067469	-1.263944	1
H	3.162396	1.346649	0.542626	1
H	1.937626	2.628159	0.277676	1
Es	1.478640	0.875729	1.666740	99
Es	1.103918	0.585833	1.145231	99
Es	1.125238	-0.704040	0.719773	99
Es	-1.031494	-0.962154	-1.057995	99
Es	-2.065010	-1.216304	-0.332968	99
Es	-0.723481	-0.128097	0.646972	99
Es	-0.929766	-1.833519	-0.210128	99
Es	0.915474	1.042512	-1.076242	99
Es	0.794242	-0.039289	0.566511	99
Es	-2.787145	-1.383284	0.049576	99
Es	1.618356	1.227968	1.071051	99
Es	1.856753	0.260686	-1.073532	99
Es	-0.915668	-0.328686	1.333604	99
Es	-2.936730	-0.724098	-0.413931	99
Es	2.099008	1.552634	0.389114	99
Es	-2.881135	-1.658129	-0.717189	99
Es	1.060320	1.189525	1.511823	99
Es	-2.690097	-1.274770	-0.270514	99
Es	1.059497	0.263329	-0.110355	99
Es	-1.029398	0.543468	0.498507	99
Es	1.993533	2.295351	0.309815	99
Es	-0.979322	-0.642439	0.145137	99
Es	2.830928	1.408165	0.486997	99
Es	1.403464	0.677523	-0.648089	99
Es	-1.239785	-1.161266	-0.351797	99
Es	0.031155	-0.087141	0.598644	99
Es	1.297292	0.995330	1.456156	99
Es	1.797725	1.150414	-0.203809	99
46
Properties=species:S:1:pos:R:3:Z:I:1 energy=-325.1273077844109 field_type=dipole dipole="0.000000 0.000000 0.000000" charge=0
N	-2.690254	-1.274961	-0.269964	7
C	-1.239654	-1.161281	-0.351824	6
C	-0.723504	-0.128071	0.647016	6
C	0.794176	-0.039470	0.566406	6
C	1.403456	0.677520	-0.648124	6
C	2.099146	1.552739	0.388976	6
O	1.297256	0.995379	1.456366	8
H	-3.024594	-1.922421	-0.982354	1
H	-3.122024	-0.374210	-0.473624	1
H	-0.954774	-0.882390	-1.372074	1
H	-0.791744	-2.139631	-0.145934	1
H	-1.017354	-0.417630	1.663766	1
H	-1.175114	0.852179	0.448426	1
H	1.282396	-0.994321	0.800976	1
H	0.694056	1.214289	-1.284394	1
H	2.068506	0.067469	-1.263944	1
H	3.162396	1.346649	0.542626	1
H	1.937626	2.628159	0.277676	1
Es	1.618567	1.228006	1.071055	99
Es	0.915563	1.042407	-1.076190	99
Es	0.794242	-0.039291	0.566510	99
Es	2.830901	1.408081	0.486988	99
Es	-0.723481	-0.128097	0.646972	99
Es	-0.915653	-0.328633	1.333617	99
Es	-2.787036	-1.383370	0.049385	99
Es	-0.929694	-1.833540	-0.210071	99
Es	-2.936932	-0.723961	-0.413870	99
Es	-1.239786	-1.161265	-0.351797	99
Es	-1.029404	0.543406	0.498519	99
Es	0.031132	-0.087159	0.598705	99
Es	-1.031550	-0.962165	-1.058005	99
Es	-2.690084	-1.274777	-0.270492	99
Es	1.297280	0.995319	1.456034	99
Es	1.125417	-0.704037	0.719652	99
Es	-2.881055	-1.658158	-0.717080	99
Es	1.059716	1.188977	1.509601	99
Es	2.099009	1.552634	0.389113	99
Es	-0.979416	-0.642421	0.145053	99
Es	1.403465	0.677523	-0.648088	99
Es	-2.064944	-1.216368	-0.332969	99
Es	1.105208	0.584840	1.145807	99
Es	1.797710	1.150526	-0.203828	99
Es	1.856742	0.260733	-1.073577	99
Es	1.059283	0.263328	-0.110197	99
Es	1.477745	0.877298	1.668470	99
Es	1.993567	2.295415	0.309789	99
46
Properties=species:S:1:pos:R:3:Z:I:1 energy=-325.1273077844109 field_type=dipole dipole="0.000000 0.000000 0.000000" charge=0
N	-2.690254	-1.274961	-0.269964	7
C	-1.239654	-1.161281	-0.351824	6
C	-0.723504	-0.128071	0.647016	6
C	0.794176	-0.039470	0.566406	6
C	1.403456	0.677520	-0.648124	6
C	2.099146	1.552739	0.388976	6
O	1.297256	0.995379	1.456366	8
H	-3.024594	-1.922421	-0.982354	1
H	-3.122024	-0.374210	-0.473624	1
H	-0.954774	-0.882390	-1.372074	1
H	-0.791744	-2.139631	-0.145934	1
H	-1.017354	-0.417630	1.663766	1
H	-1.175114	0.852179	0.448426	1
H	1.282396	-0.994321	0.800976	1
H	0.694056	1.214289	-1.284394	1
H	2.068506	0.067469	-1.263944	1
H	3.162396	1.346649	0.542626	1
H	1.937626	2.628159	0.277676	1
Es	1.797784	1.150526	-0.203841	99
Es	1.856745	0.260784	-1.073561	99
Es	1.477217	0.877182	1.668010	99
Es	-0.915609	-0.328783	1.333605	99
Es	1.403464	0.677522	-0.648089	99
Es	2.099009	1.552634	0.389111	99
Es	-1.031516	-0.962052	-1.057949	99
Es	0.794242	-0.039290	0.566510	99
Es	-0.723481	-0.128097	0.646972	99
Es	1.297296	0.995300	1.456067	99
Es	0.031179	-0.087192	0.598676	99
Es	1.125311	-0.704060	0.719674	99
Es	1.993595	2.295480	0.309844	99
Es	1.059804	1.189256	1.509862	99
Es	-2.065031	-1.216246	-0.333447	99
Es	1.105051	0.584744	1.145554	99
Es	-2.881208	-1.658353	-0.716785	99
Es	1.619140	1.227820	1.071495	99
Es	-0.929715	-1.833627	-0.210131	99
Es	-1.029416	0.543512	0.498590	99
Es	-1.239785	-1.161266	-0.351797	99
Es	-2.690082	-1.274768	-0.270514	99
Es	0.915575	1.042406	-1.076215	99
Es	1.059284	0.263320	-0.110314	99
Es	-2.937186	-0.723874	-0.413726	99
Es	-0.979437	-0.642378	0.145108	99
Es	2.830808	1.408095	0.487006	99
Es	-2.786524	-1.383345	0.049390	99
