42
Properties=species:S:1:pos:R:3:Z:I:1 energy=-340.00768444898034 field_type=dipole dipole="0.000000 0.000000 0.000000" charge=0
N	-1.201398	-0.449887	0.699861	7
C	0.233662	-0.539077	0.345261	6
C	0.468842	-0.685467	-1.135319	6
C	-0.434528	-0.629457	-2.124830	6
C	0.996962	0.718043	0.852551	6
N	0.206712	1.705013	1.380341	7
O	2.216452	0.850203	0.797981	8
H	-1.261658	-0.470847	1.718391	1
H	-1.643498	-1.314427	0.387381	1
H	0.657892	-1.405717	0.865221	1
H	1.511872	-0.849927	-1.411049	1
H	-1.487988	-0.448997	-1.936819	1
H	-0.127698	-0.747627	-3.159920	1
H	-0.778138	1.675493	1.136231	1
H	0.642512	2.592673	1.584721	1
Es	0.206786	1.705061	1.379980	99
Es	0.598361	0.095074	0.595911	99
Es	2.361889	0.599123	0.679736	99
Es	-0.231515	-0.710429	-2.823920	99
Es	0.512980	1.363922	1.046902	99
Es	2.216138	0.850161	0.797992	99
Es	0.052626	-0.337389	-1.651669	99
Es	0.282684	1.469462	1.586399	99
Es	0.458929	2.232363	1.481680	99
Es	-1.453267	-0.976755	0.517605	99
Es	-1.358344	-0.153529	0.565373	99
Es	-0.434587	-0.629461	-2.124884	99
Es	-1.224783	-0.475288	1.313094	99
Es	-0.577444	-0.496832	0.552452	99
Es	-1.201120	-0.450328	0.700070	99
Es	-0.362776	1.703814	1.229000	99
Es	0.468889	-0.685477	-1.135174	99
Es	1.169711	-0.798860	-1.308777	99
Es	2.297375	1.129992	0.910062	99
Es	1.829765	0.701901	1.042459	99
Es	-0.042747	-0.985380	-1.597967	99
Es	-1.147126	-0.512513	-2.004007	99
Es	0.531641	-1.117447	0.689034	99
Es	0.335532	-0.599489	-0.389504	99
Es	0.996817	0.718081	0.852601	99
Es	0.233543	-0.538984	0.345271	99
Es	1.791109	0.895559	0.585277	99
42
Properties=species:S:1:pos:R:3:Z:I:1 energy=-340.00768444898034 field_type=dipole dipole="0.000000 0.000000 0.000000" charge=0
N	-1.201398	-0.449887	0.699861	7
C	0.233662	-0.539077	0.345261	6
C	0.468842	-0.685467	-1.135319	6
C	-0.434528	-0.629457	-2.124830	6
C	0.996962	0.718043	0.852551	6
N	0.206712	1.705013	1.380341	7
O	2.216452	0.850203	0.797981	8
H	-1.261658	-0.470847	1.718391	1
H	-1.643498	-1.314427	0.387381	1
H	0.657892	-1.405717	0.865221	1
H	1.511872	-0.849927	-1.411049	1
H	-1.487988	-0.448997	-1.936819	1
H	-0.127698	-0.747627	-3.159920	1
H	-0.778138	1.675493	1.136231	1
H	0.642512	2.592673	1.584721	1
Es	-0.365724	1.704534	1.228605	99
Es	2.361610	0.597468	0.685927	99
Es	-0.042445	-0.984192	-1.598348	99
Es	-0.231191	-0.710912	-2.822952	99
Es	0.531729	-1.116641	0.689085	99
Es	1.831223	0.704216	1.039101	99
Es	-0.576616	-0.497699	0.552185	99
Es	0.206763	1.705072	1.380022	99
Es	-1.201120	-0.450339	0.700083	99
Es	-0.434587	-0.629453	-2.124886	99
Es	-1.355965	-0.154060	0.568132	99
Es	0.052415	-0.338398	-1.651369	99
Es	-1.456327	-0.974369	0.515482	99
Es	0.233538	-0.538983	0.345272	99
Es	0.468888	-0.685474	-1.135176	99
Es	0.336065	-0.599332	-0.390187	99
Es	-1.148610	-0.513075	-2.003879	99
Es	0.996819	0.718083	0.852592	99
Es	2.298600	1.124701	0.915255	99
Es	1.170808	-0.798222	-1.309136	99
Es	0.285049	1.466030	1.582176	99
Es	0.459678	2.229913	1.486528	99
Es	0.512575	1.368396	1.046216	99
Es	-1.225715	-0.476247	1.312726	99
Es	0.598293	0.095168	0.594814	99
Es	2.216075	0.850197	0.798011	99
Es	1.789236	0.899966	0.578718	99
42
Properties=species:S:1:pos:R:3:Z:I:1 energy=-340.00768444898034 field_type=dipole dipole="0.000000 0.000000 0.000000" charge=0
N	-1.201398	-0.449887	0.699861	7
C	0.233662	-0.539077	0.345261	6
C	0.468842	-0.685467	-1.135319	6
C	-0.434528	-0.629457	-2.124830	6
C	0.996962	0.718043	0.852551	6
N	0.206712	1.705013	1.380341	7
O	2.216452	0.850203	0.797981	8
H	-1.261658	-0.470847	1.718391	1
H	-1.643498	-1.314427	0.387381	1
H	0.657892	-1.405717	0.865221	1
H	1.511872	-0.849927	-1.411049	1
H	-1.487988	-0.448997	-1.936819	1
H	-0.127698	-0.747627	-3.159920	1
H	-0.778138	1.675493	1.136231	1
H	0.642512	2.592673	1.584721	1
Es	0.996816	0.718086	0.852586	99
Es	0.512560	1.371663	1.046091	99
Es	0.206811	1.705044	1.379916	99
Es	1.835428	0.704860	1.036623	99
Es	-0.230917	-0.711165	-2.822088	99
Es	0.468891	-0.685465	-1.135174	99
Es	-1.149645	-0.513508	-2.003967	99
Es	0.459881	2.228028	1.490412	99
Es	0.598177	0.095168	0.593970	99
Es	0.052386	-0.338997	-1.651304	99
Es	-1.459159	-0.972424	0.513349	99
Es	-0.434590	-0.629481	-2.124883	99
Es	-1.201125	-0.450332	0.700083	99
Es	0.233549	-0.538983	0.345271	99
Es	2.216108	0.850156	0.797995	99
Es	0.531742	-1.115997	0.689241	99
Es	1.171532	-0.798249	-1.309401	99
Es	2.299517	1.122030	0.918626	99
Es	-0.366842	1.705299	1.226955	99
Es	-0.042347	-0.983085	-1.598447	99
Es	1.785387	0.901508	0.575585	99
Es	2.360552	0.597798	0.689277	99
Es	-1.226524	-0.476642	1.312542	99
Es	0.285813	1.463372	1.579920	99
Es	0.336517	-0.599125	-0.390780	99
Es	-0.576084	-0.498211	0.552051	99
Es	-1.353368	-0.154999	0.570546	99
42
Properties=species:S:1:pos:R:3:Z:I:1 energy=-340.00768444898034 field_type=dipole dipole="0.000000 0.000000 0.000000" charge=0
N	-1.201398	-0.449887	0.699861	7
C	0.233662	-0.539077	0.345261	6
C	0.468842	-0.685467	-1.135319	6
C	-0.434528	-0.629457	-2.124830	6
C	0.996962	0.718043	0.852551	6
N	0.206712	1.705013	1.380341	7
O	2.216452	0.850203	0.797981	8
H	-1.261658	-0.470847	1.718391	1
H	-1.643498	-1.314427	0.387381	1
H	0.657892	-1.405717	0.865221	1
H	1.511872	-0.849927	-1.411049	1
H	-1.487988	-0.448997	-1.936819	1
H	-0.127698	-0.747627	-3.159920	1
H	-0.778138	1.675493	1.136231	1
H	0.642512	2.592673	1.584721	1
Es	2.216092	0.850177	0.798005	99
Es	-1.201132	-0.450312	0.700067	99
Es	0.996818	0.718086	0.852587	99
Es	0.206799	1.705039	1.379963	99
Es	-0.434590	-0.629464	-2.124886	99
Es	-1.150242	-0.513743	-2.004054	99
Es	1.172054	-0.797944	-1.309448	99
Es	0.460263	2.226466	1.491734	99
Es	0.597968	0.095227	0.593392	99
Es	1.838562	0.705048	1.034479	99
Es	0.233541	-0.538981	0.345270	99
Es	2.364424	0.599593	0.692869	99
Es	-0.230712	-0.711204	-2.821565	99
Es	0.052232	-0.339497	-1.651080	99
Es	1.782943	0.900325	0.572880	99
Es	-1.350467	-0.156371	0.573176	99
Es	-1.462188	-0.970456	0.510999	99
Es	2.295116	1.121123	0.920611	99
Es	0.531794	-1.115663	0.689357	99
Es	-0.042181	-0.982568	-1.598695	99
Es	0.468892	-0.685464	-1.135173	99
Es	0.283879	1.464579	1.579058	99
Es	-1.227290	-0.476846	1.312333	99
Es	-0.575531	-0.498559	0.551882	99
Es	0.336742	-0.599012	-0.391171	99
Es	0.514269	1.370396	1.048641	99
Es	-0.366988	1.706375	1.223766	99
42
Properties=species:S:1:pos:R:3:Z:I:1 energy=-340.00768444898034 field_type=dipole dipole="0.000000 0.000000 0.000000" charge=0
N	-1.201398	-0.449887	0.699861	7
C	0.233662	-0.539077	0.345261	6
C	0.468842	-0.685467	-1.135319	6
C	-0.434528	-0.629457	-2.124830	6
C	0.996962	0.718043	0.852551	6
N	0.206712	1.705013	1.380341	7
O	2.216452	0.850203	0.797981	8
H	-1.261658	-0.470847	1.718391	1
H	-1.643498	-1.314427	0.387381	1
H	0.657892	-1.405717	0.865221	1
H	1.511872	-0.849927	-1.411049	1
H	-1.487988	-0.448997	-1.936819	1
H	-0.127698	-0.747627	-3.159920	1
H	-0.778138	1.675493	1.136231	1
H	0.642512	2.592673	1.584721	1
Es	0.052225	-0.339701	-1.651087	99
Es	1.172359	-0.797885	-1.309494	99
Es	-0.434590	-0.629461	-2.124886	99
Es	-1.227774	-0.477786	1.312209	99
Es	1.781033	0.899348	0.571611	99
Es	2.216148	0.850160	0.797989	99
Es	-0.368046	1.706047	1.224513	99
Es	0.459832	2.225347	1.494935	99
Es	0.468892	-0.685462	-1.135172	99
Es	0.597906	0.095275	0.592846	99
Es	1.840982	0.705929	1.031831	99
Es	-1.201129	-0.450305	0.700071	99
Es	-1.464729	-0.968194	0.508673	99
Es	0.233543	-0.538983	0.345270	99
Es	0.996817	0.718087	0.852585	99
Es	-0.230494	-0.711396	-2.820941	99
Es	0.531854	-1.115371	0.689439	99
Es	2.369246	0.600448	0.695747	99
Es	0.512191	1.376737	1.046313	99
Es	2.289814	1.120312	0.922273	99
Es	0.206828	1.705040	1.379848	99
Es	-1.150774	-0.513758	-2.004329	99
Es	0.287405	1.459303	1.577409	99
Es	-1.348118	-0.157347	0.575788	99
Es	-0.042229	-0.982202	-1.598661	99
Es	0.337002	-0.598990	-0.391447	99
Es	-0.575127	-0.498842	0.551665	99
42
Properties=species:S:1:pos:R:3:Z:I:1 energy=-340.00768444898034 field_type=dipole dipole="0.000000 0.000000 0.000000" charge=0
N	-1.201398	-0.449887	0.699861	7
C	0.233662	-0.539077	0.345261	6
C	0.468842	-0.685467	-1.135319	6
C	-0.434528	-0.629457	-2.124830	6
C	0.996962	0.718043	0.852551	6
N	0.206712	1.705013	1.380341	7
O	2.216452	0.850203	0.797981	8
H	-1.261658	-0.470847	1.718391	1
H	-1.643498	-1.314427	0.387381	1
H	0.657892	-1.405717	0.865221	1
H	1.511872	-0.849927	-1.411049	1
H	-1.487988	-0.448997	-1.936819	1
H	-0.127698	-0.747627	-3.159920	1
H	-0.778138	1.675493	1.136231	1
H	0.642512	2.592673	1.584721	1
Es	-0.368400	1.706916	1.224237	99
Es	-0.042114	-0.981939	-1.598818	99
Es	-1.201103	-0.450351	0.700093	99
Es	-0.230423	-0.711492	-2.820380	99
Es	0.531900	-1.115192	0.689471	99
Es	0.206868	1.704990	1.379803	99
Es	0.233543	-0.538981	0.345269	99
Es	1.778410	0.900816	0.572321	99
Es	-1.466581	-0.967081	0.507335	99
Es	-0.574854	-0.498838	0.551622	99
Es	0.459672	2.223728	1.497723	99
Es	0.597879	0.095193	0.592501	99
Es	2.216090	0.850168	0.798014	99
Es	0.996817	0.718088	0.852584	99
Es	0.052267	-0.339765	-1.651109	99
Es	0.337123	-0.598825	-0.391761	99
Es	-0.434590	-0.629464	-2.124887	99
Es	0.510070	1.382388	1.044223	99
Es	2.289154	1.118423	0.924431	99
Es	-1.151201	-0.513922	-2.004510	99
Es	0.468891	-0.685470	-1.135172	99
Es	2.369879	0.599986	0.695958	99
Es	0.289919	1.454077	1.576881	99
Es	-1.346289	-0.158703	0.577253	99
Es	-1.228342	-0.477447	1.311952	99
Es	1.843740	0.706792	1.029249	99
Es	1.172739	-0.797746	-1.309287	99
42
Properties=species:S:1:pos:R:3:Z:I:1 energy=-340.00768444898034 field_type=dipole dipole="0.000000 0.000000 0.000000" charge=0
N	-1.201398	-0.449887	0.699861	7
C	0.233662	-0.539077	0.345261	6
C	0.468842	-0.685467	-1.135319	6
C	-0.434528	-0.629457	-2.124830	6
C	0.996962	0.718043	0.852551	6
N	0.206712	1.705013	1.380341	7
O	2.216452	0.850203	0.797981	8
H	-1.261658	-0.470847	1.718391	1
H	-1.643498	-1.314427	0.387381	1
H	0.657892	-1.405717	0.865221	1
H	1.511872	-0.849927	-1.411049	1
H	-1.487988	-0.448997	-1.936819	1
H	-0.127698	-0.747627	-3.159920	1
H	-0.778138	1.675493	1.136231	1
H	0.642512	2.592673	1.584721	1
Es	-1.151486	-0.514065	-2.004639	99
Es	2.285049	1.117093	0.927673	99
Es	0.468890	-0.685470	-1.135174	99
Es	-0.042107	-0.981756	-1.598853	99
Es	0.337263	-0.598861	-0.391990	99
Es	0.233541	-0.538980	0.345269	99
Es	-1.343281	-0.159679	0.579958	99
Es	2.373462	0.602664	0.695359	99
Es	-0.230333	-0.711434	-2.820027	99
Es	1.172951	-0.797774	-1.309270	99
Es	0.290707	1.452902	1.577086	99
Es	0.052221	-0.339860	-1.651046	99
Es	-0.368641	1.706851	1.223653	99
Es	0.206930	1.704872	1.379769	99
Es	2.216093	0.850172	0.798001	99
Es	-1.228589	-0.478134	1.311518	99
Es	0.597642	0.095354	0.591776	99
Es	0.459428	2.223143	1.497946	99
Es	0.996816	0.718089	0.852580	99
Es	0.509721	1.384016	1.044346	99
Es	-0.434588	-0.629452	-2.124886	99
Es	1.846006	0.704748	1.026758	99
Es	-0.574582	-0.499547	0.551890	99
Es	0.532122	-1.114957	0.689858	99
Es	-1.469741	-0.964685	0.504738	99
Es	1.776679	0.901424	0.572622	99
Es	-1.201105	-0.450327	0.700083	99
42
Properties=species:S:1:pos:R:3:Z:I:1 energy=-340.00768444898034 field_type=dipole dipole="0.000000 0.000000 0.000000" charge=0
N	-1.201398	-0.449887	0.699861	7
C	0.233662	-0.539077	0.345261	6
C	0.468842	-0.685467	-1.135319	6
C	-0.434528	-0.629457	-2.124830	6
C	0.996962	0.718043	0.852551	6
N	0.206712	1.705013	1.380341	7
O	2.216452	0.850203	0.797981	8
H	-1.261658	-0.470847	1.718391	1
H	-1.643498	-1.314427	0.387381	1
H	0.657892	-1.405717	0.865221	1
H	1.511872	-0.849927	-1.411049	1
H	-1.487988	-0.448997	-1.936819	1
H	-0.127698	-0.747627	-3.159920	1
H	-0.778138	1.675493	1.136231	1
H	0.642512	2.592673	1.584721	1
Es	2.216081	0.850126	0.797990	99
Es	-0.574611	-0.499767	0.551829	99
Es	0.509609	1.384461	1.044951	99
Es	-1.151632	-0.514196	-2.004924	99
Es	-0.230346	-0.711362	-2.819633	99
Es	-1.339441	-0.161751	0.583481	99
Es	0.532134	-1.114906	0.689898	99
Es	0.233540	-0.538980	0.345269	99
Es	0.459709	2.222752	1.498934	99
Es	-1.228535	-0.478732	1.311363	99
Es	0.468893	-0.685450	-1.135170	99
Es	-0.368389	1.707237	1.222358	99
Es	2.385751	0.606308	0.701078	99
Es	-1.473681	-0.961796	0.501277	99
Es	1.173064	-0.797580	-1.309129	99
Es	0.290445	1.452014	1.576554	99
Es	-1.201117	-0.450340	0.700084	99
Es	2.272056	1.116563	0.925249	99
Es	0.337326	-0.598907	-0.392076	99
Es	1.776464	0.897027	0.570259	99
Es	0.996818	0.718089	0.852581	99
Es	1.846952	0.706174	1.026121	99
Es	0.206816	1.705038	1.379933	99
Es	-0.434590	-0.629463	-2.124888	99
Es	0.052211	-0.339639	-1.651012	99
Es	0.597603	0.095492	0.591540	99
Es	-0.042063	-0.982063	-1.598923	99
42
Properties=species:S:1:pos:R:3:Z:I:1 energy=-340.00768444898034 field_type=dipole dipole="0.000000 0.000000 0.000000" charge=0
N	-1.201398	-0.449887	0.699861	7
C	0.233662	-0.539077	0.345261	6
C	0.468842	-0.685467	-1.135319	6
C	-0.434528	-0.629457	-2.124830	6
C	0.996962	0.718043	0.852551	6
N	0.206712	1.705013	1.380341	7
O	2.216452	0.850203	0.797981	8
H	-1.261658	-0.470847	1.718391	1
H	-1.643498	-1.314427	0.387381	1
H	0.657892	-1.405717	0.865221	1
H	1.511872	-0.849927	-1.411049	1
H	-1.487988	-0.448997	-1.936819	1
H	-0.127698	-0.747627	-3.159920	1
H	-0.778138	1.675493	1.136231	1
H	0.642512	2.592673	1.584721	1
Es	0.052403	-0.338867	-1.651032	99
Es	1.778059	0.889775	0.566064	99
Es	-1.151654	-0.514784	-2.005187	99
Es	0.233542	-0.538981	0.345270	99
Es	-0.574780	-0.499116	0.551685	99
Es	0.598017	0.095905	0.591986	99
Es	-0.434590	-0.629463	-2.124887	99
Es	2.413513	0.620660	0.711748	99
Es	0.996818	0.718088	0.852585	99
Es	0.468892	-0.685449	-1.135171	99
Es	0.292330	1.447514	1.573710	99
Es	-1.339185	-0.162527	0.583655	99
Es	0.531673	-1.114958	0.689292	99
Es	-0.230542	-0.711852	-2.819284	99
Es	0.506843	1.388994	1.044356	99
Es	2.216001	0.850021	0.797943	99
Es	-1.201109	-0.450343	0.700096	99
Es	0.460498	2.223093	1.503054	99
Es	2.242404	1.110494	0.920573	99
Es	0.337451	-0.598857	-0.391935	99
Es	1.847294	0.705343	1.024655	99
Es	-1.473839	-0.962387	0.500946	99
Es	-0.368140	1.706805	1.221542	99
Es	0.206810	1.705043	1.379910	99
Es	-0.042151	-0.982564	-1.599003	99
Es	-1.228413	-0.478191	1.311496	99
Es	1.172922	-0.797045	-1.309070	99
42
Properties=species:S:1:pos:R:3:Z:I:1 energy=-340.00768444898034 field_type=dipole dipole="0.000000 0.000000 0.000000" charge=0
N	-1.201398	-0.449887	0.699861	7
C	0.233662	-0.539077	0.345261	6
C	0.468842	-0.685467	-1.135319	6
C	-0.434528	-0.629457	-2.124830	6
C	0.996962	0.718043	0.852551	6
N	0.206712	1.705013	1.380341	7
O	2.216452	0.850203	0.797981	8
H	-1.261658	-0.470847	1.718391	1
H	-1.643498	-1.314427	0.387381	1
H	0.657892	-1.405717	0.865221	1
H	1.511872	-0.849927	-1.411049	1
H	-1.487988	-0.448997	-1.936819	1
H	-0.127698	-0.747627	-3.159920	1
H	-0.778138	1.675493	1.136231	1
H	0.642512	2.592673	1.584721	1
Es	1.173172	-0.797317	-1.308951	99
Es	1.849000	0.706279	1.023414	99
Es	0.468892	-0.685463	-1.135172	99
Es	0.337396	-0.598914	-0.392130	99
Es	-0.574457	-0.499865	0.551957	99
Es	-1.151842	-0.514622	-2.005218	99
Es	-0.434590	-0.629464	-2.124887	99
Es	0.206810	1.705030	1.379935	99
Es	-1.228674	-0.478927	1.310986	99
Es	1.775723	0.892482	0.568263	99
Es	0.531867	-1.114875	0.689526	99
Es	0.460247	2.222407	1.503252	99
Es	0.996817	0.718091	0.852580	99
Es	0.505861	1.391478	1.043593	99
Es	-0.230456	-0.711681	-2.819093	99
Es	0.052368	-0.339091	-1.651134	99
Es	0.233540	-0.538980	0.345270	99
Es	-1.477025	-0.959168	0.498385	99
Es	2.406928	0.616087	0.708597	99
Es	-1.336195	-0.164163	0.586396	99
Es	2.216026	0.849943	0.797919	99
Es	0.293652	1.445188	1.574279	99
Es	-0.042095	-0.982201	-1.598937	99
Es	-0.368257	1.707167	1.221447	99
Es	0.597841	0.095837	0.591622	99
Es	2.249617	1.111459	0.922989	99
Es	-1.201099	-0.450366	0.700108	99
42
Properties=species:S:1:pos:R:3:Z:I:1 energy=-340.00768444898034 field_type=dipole dipole="0.000000 0.000000 0.000000" charge=0
N	-1.201398	-0.449887	0.699861	7
C	0.233662	-0.539077	0.345261	6
C	0.468842	-0.685467	-1.135319	6
C	-0.434528	-0.629457	-2.124830	6
C	0.996962	0.718043	0.852551	6
N	0.206712	1.705013	1.380341	7
O	2.216452	0.850203	0.797981	8
H	-1.261658	-0.470847	1.718391	1
H	-1.643498	-1.314427	0.387381	1
H	0.657892	-1.405717	0.865221	1
H	1.511872	-0.849927	-1.411049	1
H	-1.487988	-0.448997	-1.936819	1
H	-0.127698	-0.747627	-3.159920	1
H	-0.778138	1.675493	1.136231	1
H	0.642512	2.592673	1.584721	1
Es	2.432023	0.634277	0.719334	99
Es	-1.151633	-0.514962	-2.005402	99
Es	2.222305	1.101663	0.917307	99
Es	1.849067	0.704259	1.022298	99
Es	-0.230641	-0.712026	-2.819068	99
Es	0.598220	0.096133	0.592082	99
Es	1.172839	-0.796898	-1.308884	99
Es	0.468893	-0.685467	-1.135168	99
Es	0.531357	-1.114963	0.689039	99
Es	0.052516	-0.338329	-1.651128	99
Es	0.291327	1.447030	1.572031	99
Es	0.337519	-0.598939	-0.391974	99
Es	-1.336176	-0.164421	0.586052	99
Es	-0.434590	-0.629464	-2.124887	99
Es	2.216050	0.849929	0.797910	99
Es	0.461292	2.223063	1.505575	99
Es	0.206848	1.705017	1.379813	99
Es	-1.476838	-0.960351	0.498385	99
Es	-1.228227	-0.478236	1.311317	99
Es	-1.201113	-0.450326	0.700101	99
Es	0.996817	0.718091	0.852578	99
Es	0.233542	-0.538982	0.345269	99
Es	1.777763	0.886223	0.564555	99
Es	0.506433	1.389289	1.045748	99
Es	-0.574884	-0.499262	0.551861	99
Es	-0.367405	1.707006	1.219223	99
Es	-0.042238	-0.983005	-1.598970	99
42
Properties=species:S:1:pos:R:3:Z:I:1 energy=-340.00768444898034 field_type=dipole dipole="0.000000 0.000000 0.000000" charge=0
N	-1.201398	-0.449887	0.699861	7
C	0.233662	-0.539077	0.345261	6
C	0.468842	-0.685467	-1.135319	6
C	-0.434528	-0.629457	-2.124830	6
C	0.996962	0.718043	0.852551	6
N	0.206712	1.705013	1.380341	7
O	2.216452	0.850203	0.797981	8
H	-1.261658	-0.470847	1.718391	1
H	-1.643498	-1.314427	0.387381	1
H	0.657892	-1.405717	0.865221	1
H	1.511872	-0.849927	-1.411049	1
H	-1.487988	-0.448997	-1.936819	1
H	-0.127698	-0.747627	-3.159920	1
H	-0.778138	1.675493	1.136231	1
H	0.642512	2.592673	1.584721	1
Es	-0.434589	-0.629462	-2.124885	99
Es	-1.151691	-0.514964	-2.005425	99
Es	-0.367794	1.706914	1.220093	99
Es	0.461131	2.222709	1.506482	99
Es	0.531258	-1.114982	0.688817	99
Es	1.775453	0.886238	0.566061	99
Es	1.172878	-0.796833	-1.308847	99
Es	0.293941	1.443330	1.571687	99
Es	2.219804	1.100379	0.919733	99
Es	0.337554	-0.598767	-0.392040	99
Es	-0.574929	-0.499819	0.552016	99
Es	-0.230655	-0.712031	-2.818969	99
Es	0.206816	1.705028	1.379898	99
Es	0.598385	0.096185	0.592154	99
Es	-1.201094	-0.450368	0.700104	99
Es	0.996817	0.718093	0.852579	99
Es	0.504375	1.393336	1.044213	99
Es	1.851790	0.703356	1.019196	99
Es	2.434055	0.636239	0.718582	99
Es	0.468891	-0.685470	-1.135175	99
Es	-1.228193	-0.478575	1.311216	99
Es	0.233542	-0.538980	0.345269	99
Es	-1.335341	-0.164511	0.586692	99
Es	0.052546	-0.338355	-1.651161	99
Es	2.216102	0.850084	0.797965	99
Es	-0.042252	-0.983099	-1.598955	99
Es	-1.477733	-0.959326	0.497695	99
42
Properties=species:S:1:pos:R:3:Z:I:1 energy=-340.00768444898034 field_type=dipole dipole="0.000000 0.000000 0.000000" charge=0
N	-1.201398	-0.449887	0.699861	7
C	0.233662	-0.539077	0.345261	6
C	0.468842	-0.685467	-1.135319	6
C	-0.434528	-0.629457	-2.124830	6
C	0.996962	0.718043	0.852551	6
N	0.206712	1.705013	1.380341	7
O	2.216452	0.850203	0.797981	8
H	-1.261658	-0.470847	1.718391	1
H	-1.643498	-1.314427	0.387381	1
H	0.657892	-1.405717	0.865221	1
H	1.511872	-0.849927	-1.411049	1
H	-1.487988	-0.448997	-1.936819	1
H	-0.127698	-0.747627	-3.159920	1
H	-0.778138	1.675493	1.136231	1
H	0.642512	2.592673	1.584721	1
Es	0.519338	1.377212	1.046304	99
Es	-1.472438	-0.959285	0.502407	99
Es	-0.229493	-0.710729	-2.819151	99
Es	-0.369041	1.709691	1.222541	99
Es	-1.201106	-0.450342	0.700094	99
Es	-1.152314	-0.512277	-2.005008	99
Es	0.206838	1.705035	1.379815	99
Es	2.216075	0.850138	0.798012	99
Es	1.848034	0.714452	1.020787	99
Es	0.337438	-0.598474	-0.392826	99
Es	0.051937	-0.341837	-1.651319	99
Es	-1.230478	-0.479714	1.310999	99
Es	-1.339994	-0.160023	0.581963	99
Es	0.595525	0.093973	0.588264	99
Es	0.457031	2.216546	1.507674	99
Es	2.296338	0.596259	0.695287	99
Es	0.468891	-0.685469	-1.135170	99
Es	-0.434589	-0.629458	-2.124888	99
Es	0.534416	-1.114160	0.692762	99
Es	-0.573907	-0.502141	0.552680	99
Es	1.774548	0.917981	0.576561	99
Es	0.996818	0.718090	0.852581	99
Es	0.233542	-0.538980	0.345269	99
Es	2.362247	1.096293	0.930523	99
Es	-0.041966	-0.979733	-1.598489	99
Es	0.283593	1.462782	1.566493	99
Es	1.173784	-0.799479	-1.309170	99
42
Properties=species:S:1:pos:R:3:Z:I:1 energy=-340.00768444898034 field_type=dipole dipole="0.000000 0.000000 0.000000" charge=0
N	-1.201398	-0.449887	0.699861	7
C	0.233662	-0.539077	0.345261	6
C	0.468842	-0.685467	-1.135319	6
C	-0.434528	-0.629457	-2.124830	6
C	0.996962	0.718043	0.852551	6
N	0.206712	1.705013	1.380341	7
O	2.216452	0.850203	0.797981	8
H	-1.261658	-0.470847	1.718391	1
H	-1.643498	-1.314427	0.387381	1
H	0.657892	-1.405717	0.865221	1
H	1.511872	-0.849927	-1.411049	1
H	-1.487988	-0.448997	-1.936819	1
H	-0.127698	-0.747627	-3.159920	1
H	-0.778138	1.675493	1.136231	1
H	0.642512	2.592673	1.584721	1
Es	0.052790	-0.338061	-1.651372	99
Es	0.468892	-0.685464	-1.135172	99
Es	-0.042363	-0.983219	-1.598882	99
Es	-1.333926	-0.165548	0.587253	99
Es	0.996817	0.718090	0.852579	99
Es	0.295396	1.440666	1.570190	99
Es	0.337655	-0.598767	-0.391906	99
Es	-0.367746	1.706670	1.219874	99
Es	0.531203	-1.114897	0.688888	99
Es	0.460942	2.222359	1.508987	99
Es	-0.434590	-0.629464	-2.124886	99
Es	-1.228548	-0.478034	1.311029	99
Es	0.206858	1.704976	1.379845	99
Es	-1.201122	-0.450324	0.700075	99
Es	0.233542	-0.538980	0.345270	99
Es	2.210646	1.095570	0.914180	99
Es	-0.230728	-0.712369	-2.818633	99
Es	2.216076	0.850047	0.797975	99
Es	1.172781	-0.796812	-1.308830	99
Es	-0.574828	-0.500118	0.552427	99
Es	0.502966	1.396707	1.043382	99
Es	-1.478850	-0.958621	0.496787	99
Es	0.598533	0.096371	0.592016	99
Es	1.776833	0.882445	0.563746	99
Es	2.442501	0.641886	0.727098	99
Es	-1.151760	-0.515086	-2.005663	99
Es	1.851097	0.706327	1.018742	99
42
Properties=species:S:1:pos:R:3:Z:I:1 energy=-340.00768444898034 field_type=dipole dipole="0.000000 0.000000 0.000000" charge=0
N	-1.201398	-0.449887	0.699861	7
C	0.233662	-0.539077	0.345261	6
C	0.468842	-0.685467	-1.135319	6
C	-0.434528	-0.629457	-2.124830	6
C	0.996962	0.718043	0.852551	6
N	0.206712	1.705013	1.380341	7
O	2.216452	0.850203	0.797981	8
H	-1.261658	-0.470847	1.718391	1
H	-1.643498	-1.314427	0.387381	1
H	0.657892	-1.405717	0.865221	1
H	1.511872	-0.849927	-1.411049	1
H	-1.487988	-0.448997	-1.936819	1
H	-0.127698	-0.747627	-3.159920	1
H	-0.778138	1.675493	1.136231	1
H	0.642512	2.592673	1.584721	1
Es	-0.042039	-0.979588	-1.598288	99
Es	0.282924	1.463901	1.566376	99
Es	0.534856	-1.113861	0.693443	99
Es	0.233540	-0.538980	0.345269	99
Es	0.468891	-0.685467	-1.135171	99
Es	0.052051	-0.341947	-1.651531	99
Es	-1.152346	-0.512001	-2.005072	99
Es	0.206816	1.705037	1.379887	99
Es	-0.573961	-0.502761	0.552804	99
Es	1.850698	0.716365	1.019613	99
Es	0.520129	1.376150	1.046826	99
Es	1.771874	0.918532	0.578503	99
Es	-0.434590	-0.629464	-2.124887	99
Es	-0.229516	-0.710805	-2.819008	99
Es	-0.369022	1.709974	1.222343	99
Es	-1.230551	-0.479887	1.310892	99
Es	0.595065	0.093732	0.587447	99
Es	2.289818	0.596884	0.696109	99
Es	-1.337708	-0.161020	0.583617	99
Es	0.337599	-0.598334	-0.392931	99
Es	-1.201094	-0.450360	0.700097	99
Es	1.173816	-0.799754	-1.309190	99
Es	0.456887	2.216131	1.507411	99
Es	0.996818	0.718091	0.852579	99
Es	2.368668	1.092879	0.929159	99
Es	2.216120	0.850204	0.798008	99
Es	-1.474675	-0.957305	0.500692	99
42
Properties=species:S:1:pos:R:3:Z:I:1 energy=-340.00768444898034 field_type=dipole dipole="0.000000 0.000000 0.000000" charge=0
N	-1.201398	-0.449887	0.699861	7
C	0.233662	-0.539077	0.345261	6
C	0.468842	-0.685467	-1.135319	6
C	-0.434528	-0.629457	-2.124830	6
C	0.996962	0.718043	0.852551	6
N	0.206712	1.705013	1.380341	7
O	2.216452	0.850203	0.797981	8
H	-1.261658	-0.470847	1.718391	1
H	-1.643498	-1.314427	0.387381	1
H	0.657892	-1.405717	0.865221	1
H	1.511872	-0.849927	-1.411049	1
H	-1.487988	-0.448997	-1.936819	1
H	-0.127698	-0.747627	-3.159920	1
H	-0.778138	1.675493	1.136231	1
H	0.642512	2.592673	1.584721	1
Es	-0.230849	-0.712396	-2.818764	99
Es	0.233541	-0.538980	0.345269	99
Es	-1.479284	-0.958472	0.496251	99
Es	2.448978	0.648383	0.731872	99
Es	-0.434590	-0.629463	-2.124887	99
Es	1.776140	0.880158	0.563133	99
Es	-0.042354	-0.983387	-1.598914	99
Es	0.052806	-0.337931	-1.651373	99
Es	-1.228012	-0.478380	1.311118	99
Es	1.172794	-0.796704	-1.308715	99
Es	0.206797	1.705067	1.379907	99
Es	-1.151644	-0.515163	-2.005559	99
Es	2.203463	1.090278	0.910719	99
Es	2.216159	0.850171	0.797987	99
Es	1.852355	0.707271	1.018303	99
Es	0.468893	-0.685458	-1.135169	99
Es	-0.366967	1.707232	1.217848	99
Es	-1.201104	-0.450355	0.700099	99
Es	0.598460	0.096473	0.592016	99
Es	0.531096	-1.114954	0.688686	99
Es	0.504761	1.392878	1.045456	99
Es	0.292352	1.443766	1.569422	99
Es	-1.333765	-0.165947	0.588044	99
Es	0.337580	-0.598654	-0.391980	99
Es	0.461702	2.222358	1.509605	99
Es	-0.575060	-0.499531	0.552043	99
Es	0.996818	0.718090	0.852579	99
42
Properties=species:S:1:pos:R:3:Z:I:1 energy=-340.00768444898034 field_type=dipole dipole="0.000000 0.000000 0.000000" charge=0
N	-1.201398	-0.449887	0.699861	7
C	0.233662	-0.539077	0.345261	6
C	0.468842	-0.685467	-1.135319	6
C	-0.434528	-0.629457	-2.124830	6
C	0.996962	0.718043	0.852551	6
N	0.206712	1.705013	1.380341	7
O	2.216452	0.850203	0.797981	8
H	-1.261658	-0.470847	1.718391	1
H	-1.643498	-1.314427	0.387381	1
H	0.657892	-1.405717	0.865221	1
H	1.511872	-0.849927	-1.411049	1
H	-1.487988	-0.448997	-1.936819	1
H	-0.127698	-0.747627	-3.159920	1
H	-0.778138	1.675493	1.136231	1
H	0.642512	2.592673	1.584721	1
Es	-0.367071	1.707022	1.217821	99
Es	0.996818	0.718092	0.852575	99
Es	-1.151662	-0.515294	-2.005808	99
Es	-0.230749	-0.712580	-2.818619	99
Es	1.172743	-0.796665	-1.308626	99
Es	2.216120	0.850134	0.797984	99
Es	0.531148	-1.114981	0.688727	99
Es	-1.333605	-0.165635	0.587842	99
Es	0.292984	1.442929	1.567172	99
Es	2.201064	1.087872	0.906470	99
Es	-1.479296	-0.958525	0.496184	99
Es	0.337582	-0.598686	-0.391952	99
Es	1.851348	0.709454	1.019993	99
Es	-1.228019	-0.478355	1.311088	99
Es	0.206833	1.705036	1.379811	99
Es	0.052813	-0.337616	-1.651382	99
Es	-0.042428	-0.983428	-1.598852	99
Es	0.504206	1.394552	1.045088	99
Es	-1.201105	-0.450354	0.700097	99
Es	-0.575176	-0.499885	0.552295	99
Es	0.598440	0.096517	0.592032	99
Es	0.468892	-0.685462	-1.135172	99
Es	0.461683	2.221847	1.512266	99
Es	-0.434590	-0.629466	-2.124887	99
Es	0.233543	-0.538982	0.345269	99
Es	1.776963	0.878697	0.562223	99
Es	2.451587	0.650110	0.735357	99
42
Properties=species:S:1:pos:R:3:Z:I:1 energy=-340.00768444898034 field_type=dipole dipole="0.000000 0.000000 0.000000" charge=0
N	-1.201398	-0.449887	0.699861	7
C	0.233662	-0.539077	0.345261	6
C	0.468842	-0.685467	-1.135319	6
C	-0.434528	-0.629457	-2.124830	6
C	0.996962	0.718043	0.852551	6
N	0.206712	1.705013	1.380341	7
O	2.216452	0.850203	0.797981	8
H	-1.261658	-0.470847	1.718391	1
H	-1.643498	-1.314427	0.387381	1
H	0.657892	-1.405717	0.865221	1
H	1.511872	-0.849927	-1.411049	1
H	-1.487988	-0.448997	-1.936819	1
H	-0.127698	-0.747627	-3.159920	1
H	-0.778138	1.675493	1.136231	1
H	0.642512	2.592673	1.584721	1
Es	0.530801	-1.114916	0.688422	99
Es	-1.480104	-0.957653	0.495532	99
Es	-1.228008	-0.478438	1.311129	99
Es	-1.201110	-0.450335	0.700097	99
Es	0.337620	-0.598837	-0.391935	99
Es	-0.230795	-0.712503	-2.818615	99
Es	0.598795	0.096595	0.592419	99
Es	-1.332731	-0.166065	0.588371	99
Es	2.454903	0.654703	0.736551	99
Es	2.196669	1.086100	0.908792	99
Es	1.777120	0.878223	0.561850	99
Es	-0.575180	-0.500237	0.552362	99
Es	-1.151661	-0.515200	-2.005770	99
Es	2.216067	0.850044	0.797951	99
Es	0.291366	1.444782	1.568721	99
Es	1.172650	-0.796816	-1.308649	99
Es	0.233542	-0.538981	0.345270	99
Es	0.996817	0.718093	0.852573	99
Es	0.052875	-0.337577	-1.651467	99
Es	0.468891	-0.685466	-1.135170	99
Es	0.505121	1.391937	1.045996	99
Es	0.461953	2.222295	1.510383	99
Es	-0.434590	-0.629464	-2.124887	99
Es	1.852320	0.707158	1.016932	99
Es	0.206834	1.705016	1.379861	99
Es	-0.366699	1.707348	1.217157	99
Es	-0.042402	-0.983457	-1.598881	99
42
Properties=species:S:1:pos:R:3:Z:I:1 energy=-340.00768444898034 field_type=dipole dipole="0.000000 0.000000 0.000000" charge=0
N	-1.201398	-0.449887	0.699861	7
C	0.233662	-0.539077	0.345261	6
C	0.468842	-0.685467	-1.135319	6
C	-0.434528	-0.629457	-2.124830	6
C	0.996962	0.718043	0.852551	6
N	0.206712	1.705013	1.380341	7
O	2.216452	0.850203	0.797981	8
H	-1.261658	-0.470847	1.718391	1
H	-1.643498	-1.314427	0.387381	1
H	0.657892	-1.405717	0.865221	1
H	1.511872	-0.849927	-1.411049	1
H	-1.487988	-0.448997	-1.936819	1
H	-0.127698	-0.747627	-3.159920	1
H	-0.778138	1.675493	1.136231	1
H	0.642512	2.592673	1.584721	1
Es	0.461974	2.222006	1.511903	99
Es	-1.479815	-0.958110	0.495845	99
Es	-0.575034	-0.500001	0.552568	99
Es	1.172689	-0.796632	-1.308636	99
Es	-0.434590	-0.629464	-2.124886	99
Es	1.852730	0.706245	1.015870	99
Es	-1.201109	-0.450344	0.700088	99
Es	-1.333016	-0.166025	0.588098	99
Es	-1.151620	-0.515260	-2.005865	99
Es	0.337599	-0.598746	-0.391997	99
Es	0.052838	-0.337558	-1.651437	99
Es	0.504670	1.393208	1.045911	99
Es	2.194858	1.083961	0.909464	99
Es	0.468892	-0.685461	-1.135173	99
Es	0.206776	1.705034	1.380055	99
Es	0.598559	0.096501	0.591971	99
Es	-1.228173	-0.478176	1.310948	99
Es	2.215985	0.849898	0.797903	99
Es	0.531036	-1.114950	0.688719	99
Es	2.456548	0.657016	0.736957	99
Es	-0.230781	-0.712585	-2.818596	99
Es	-0.366718	1.707212	1.216949	99
Es	0.291931	1.443947	1.567365	99
Es	0.233541	-0.538979	0.345270	99
Es	-0.042443	-0.983584	-1.598805	99
Es	1.776923	0.879103	0.561935	99
Es	0.996817	0.718092	0.852575	99
42
Properties=species:S:1:pos:R:3:Z:I:1 energy=-340.00768444898034 field_type=dipole dipole="0.000000 0.000000 0.000000" charge=0
N	-1.201398	-0.449887	0.699861	7
C	0.233662	-0.539077	0.345261	6
C	0.468842	-0.685467	-1.135319	6
C	-0.434528	-0.629457	-2.124830	6
C	0.996962	0.718043	0.852551	6
N	0.206712	1.705013	1.380341	7
O	2.216452	0.850203	0.797981	8
H	-1.261658	-0.470847	1.718391	1
H	-1.643498	-1.314427	0.387381	1
H	0.657892	-1.405717	0.865221	1
H	1.511872	-0.849927	-1.411049	1
H	-1.487988	-0.448997	-1.936819	1
H	-0.127698	-0.747627	-3.159920	1
H	-0.778138	1.675493	1.136231	1
H	0.642512	2.592673	1.584721	1
Es	0.468891	-0.685464	-1.135171	99
Es	0.504590	1.393123	1.046020	99
Es	-1.151727	-0.515133	-2.005945	99
Es	0.531093	-1.114832	0.688888	99
Es	1.851443	0.706363	1.015522	99
Es	-0.042562	-0.983524	-1.598707	99
Es	0.292247	1.443900	1.567896	99
Es	0.462058	2.222037	1.510983	99
Es	0.233540	-0.538979	0.345270	99
Es	2.455415	0.655109	0.737794	99
Es	-1.201105	-0.450340	0.700093	99
Es	1.172767	-0.796854	-1.308593	99
Es	-0.434589	-0.629462	-2.124887	99
Es	1.778435	0.879643	0.560818	99
Es	2.195637	1.084946	0.910135	99
Es	0.996818	0.718092	0.852576	99
Es	0.337697	-0.598743	-0.392085	99
Es	0.206776	1.705048	1.380021	99
Es	0.052917	-0.337630	-1.651500	99
Es	-1.228324	-0.478107	1.311049	99
Es	0.598415	0.096660	0.591719	99
Es	-0.366952	1.707212	1.217252	99
Es	-0.230745	-0.712596	-2.818431	99
Es	-1.481030	-0.956756	0.494809	99
Es	-0.575081	-0.500303	0.552546	99
Es	2.216109	0.850099	0.797968	99
Es	-1.331667	-0.167162	0.588958	99
42
Properties=species:S:1:pos:R:3:Z:I:1 energy=-340.00768444898034 field_type=dipole dipole="0.000000 0.000000 0.000000" charge=0
N	-1.201398	-0.449887	0.699861	7
C	0.233662	-0.539077	0.345261	6
C	0.468842	-0.685467	-1.135319	6
C	-0.434528	-0.629457	-2.124830	6
C	0.996962	0.718043	0.852551	6
N	0.206712	1.705013	1.380341	7
O	2.216452	0.850203	0.797981	8
H	-1.261658	-0.470847	1.718391	1
H	-1.643498	-1.314427	0.387381	1
H	0.657892	-1.405717	0.865221	1
H	1.511872	-0.849927	-1.411049	1
H	-1.487988	-0.448997	-1.936819	1
H	-0.127698	-0.747627	-3.159920	1
H	-0.778138	1.675493	1.136231	1
H	0.642512	2.592673	1.584721	1
Es	0.595495	0.093723	0.587945	99
Es	-1.151718	-0.511001	-2.004489	99
Es	1.777719	0.927486	0.576153	99
Es	2.235837	0.620760	0.708495	99
Es	-0.229466	-0.711379	-2.820132	99
Es	0.337469	-0.598178	-0.392683	99
Es	-1.346745	-0.154932	0.574245	99
Es	2.216010	0.850317	0.798070	99
Es	-1.230393	-0.479213	1.311884	99
Es	-0.434589	-0.629460	-2.124888	99
Es	0.233541	-0.538980	0.345268	99
Es	-1.464799	-0.963233	0.508892	99
Es	0.206736	1.705034	1.380199	99
Es	-0.368089	1.711053	1.220754	99
Es	0.528215	1.360949	1.054563	99
Es	0.534419	-1.114104	0.693027	99
Es	0.273000	1.481278	1.546587	99
Es	-1.201096	-0.450359	0.700090	99
Es	1.173245	-0.800660	-1.309556	99
Es	0.468893	-0.685468	-1.135174	99
Es	1.846320	0.722279	1.020800	99
Es	-0.042479	-0.978962	-1.597743	99
Es	-0.574575	-0.503463	0.553419	99
Es	0.052332	-0.342456	-1.651976	99
Es	0.457912	2.213711	1.520875	99
Es	2.421054	1.053518	0.917794	99
Es	0.996818	0.718091	0.852577	99
42
Properties=species:S:1:pos:R:3:Z:I:1 energy=-340.00768444898034 field_type=dipole dipole="0.000000 0.000000 0.000000" charge=0
N	-1.201398	-0.449887	0.699861	7
C	0.233662	-0.539077	0.345261	6
C	0.468842	-0.685467	-1.135319	6
C	-0.434528	-0.629457	-2.124830	6
C	0.996962	0.718043	0.852551	6
N	0.206712	1.705013	1.380341	7
O	2.216452	0.850203	0.797981	8
H	-1.261658	-0.470847	1.718391	1
H	-1.643498	-1.314427	0.387381	1
H	0.657892	-1.405717	0.865221	1
H	1.511872	-0.849927	-1.411049	1
H	-1.487988	-0.448997	-1.936819	1
H	-0.127698	-0.747627	-3.159920	1
H	-0.778138	1.675493	1.136231	1
H	0.642512	2.592673	1.584721	1
Es	0.206999	1.704935	1.379549	99
Es	0.534205	-1.114269	0.692803	99
Es	0.996818	0.718092	0.852576	99
Es	2.215849	0.850348	0.798098	99
Es	0.272749	1.481600	1.547184	99
Es	-1.464889	-0.963157	0.509136	99
Es	-1.230405	-0.478846	1.311967	99
Es	-0.368052	1.711120	1.221027	99
Es	-0.434589	-0.629459	-2.124888	99
Es	0.458150	2.213922	1.520787	99
Es	-1.201097	-0.450352	0.700088	99
Es	2.231392	0.622938	0.710046	99
Es	0.527873	1.360585	1.054434	99
Es	-0.574634	-0.503932	0.553411	99
Es	0.468891	-0.685470	-1.135169	99
Es	0.337376	-0.598051	-0.392624	99
Es	0.595838	0.093909	0.588141	99
Es	0.052476	-0.342593	-1.652149	99
Es	-0.229503	-0.711473	-2.820146	99
Es	1.173216	-0.800800	-1.309536	99
Es	-1.151743	-0.510999	-2.004385	99
Es	0.233541	-0.538980	0.345269	99
Es	1.778812	0.928598	0.575835	99
Es	2.425234	1.048777	0.917145	99
Es	1.845598	0.723598	1.020218	99
Es	-0.042504	-0.978840	-1.597704	99
Es	-1.346533	-0.154851	0.573883	99
42
Properties=species:S:1:pos:R:3:Z:I:1 energy=-340.00768444898034 field_type=dipole dipole="0.000000 0.000000 0.000000" charge=0
N	-1.201398	-0.449887	0.699861	7
C	0.233662	-0.539077	0.345261	6
C	0.468842	-0.685467	-1.135319	6
C	-0.434528	-0.629457	-2.124830	6
C	0.996962	0.718043	0.852551	6
N	0.206712	1.705013	1.380341	7
O	2.216452	0.850203	0.797981	8
H	-1.261658	-0.470847	1.718391	1
H	-1.643498	-1.314427	0.387381	1
H	0.657892	-1.405717	0.865221	1
H	1.511872	-0.849927	-1.411049	1
H	-1.487988	-0.448997	-1.936819	1
H	-0.127698	-0.747627	-3.159920	1
H	-0.778138	1.675493	1.136231	1
H	0.642512	2.592673	1.584721	1
Es	2.181088	1.074137	0.903679	99
Es	-1.478220	-0.959827	0.496984	99
Es	-0.434590	-0.629464	-2.124887	99
Es	-0.042658	-0.983786	-1.598655	99
Es	0.505705	1.391586	1.046377	99
Es	0.053039	-0.337304	-1.651590	99
Es	2.216071	0.850038	0.797952	99
Es	1.778619	0.873731	0.559395	99
Es	-0.575282	-0.500345	0.553004	99
Es	0.598776	0.096760	0.592242	99
Es	-1.151438	-0.515172	-2.005795	99
Es	0.462224	2.221904	1.514191	99
Es	-1.228253	-0.477656	1.311244	99
Es	-1.334069	-0.164559	0.586230	99
Es	1.853229	0.706714	1.013311	99
Es	2.467956	0.671443	0.747903	99
Es	1.172428	-0.796732	-1.308695	99
Es	0.996817	0.718091	0.852577	99
Es	-0.366490	1.707074	1.216690	99
Es	0.290509	1.445989	1.565071	99
Es	0.337649	-0.598608	-0.391878	99
Es	0.206818	1.705056	1.379851	99
Es	-0.230909	-0.712899	-2.818754	99
Es	0.468892	-0.685465	-1.135173	99
Es	0.530732	-1.115049	0.688381	99
Es	0.233543	-0.538981	0.345269	99
Es	-1.201119	-0.450326	0.700072	99
42
Properties=species:S:1:pos:R:3:Z:I:1 energy=-340.00768444898034 field_type=dipole dipole="0.000000 0.000000 0.000000" charge=0
N	-1.201398	-0.449887	0.699861	7
C	0.233662	-0.539077	0.345261	6
C	0.468842	-0.685467	-1.135319	6
C	-0.434528	-0.629457	-2.124830	6
C	0.996962	0.718043	0.852551	6
N	0.206712	1.705013	1.380341	7
O	2.216452	0.850203	0.797981	8
H	-1.261658	-0.470847	1.718391	1
H	-1.643498	-1.314427	0.387381	1
H	0.657892	-1.405717	0.865221	1
H	1.511872	-0.849927	-1.411049	1
H	-1.487988	-0.448997	-1.936819	1
H	-0.127698	-0.747627	-3.159920	1
H	-0.778138	1.675493	1.136231	1
H	0.642512	2.592673	1.584721	1
Es	-1.227684	-0.478014	1.311144	99
Es	-1.151423	-0.515285	-2.005807	99
Es	1.779575	0.874021	0.558384	99
Es	1.172395	-0.796768	-1.308687	99
Es	0.507073	1.388805	1.047719	99
Es	0.468892	-0.685467	-1.135173	99
Es	-0.366025	1.707381	1.215464	99
Es	0.233541	-0.538980	0.345270	99
Es	0.530587	-1.115053	0.688249	99
Es	0.337719	-0.598599	-0.391857	99
Es	0.462466	2.221795	1.514405	99
Es	-0.434590	-0.629464	-2.124887	99
Es	2.468967	0.673022	0.749740	99
Es	2.180111	1.071800	0.901699	99
Es	-0.575421	-0.499997	0.552533	99
Es	0.053046	-0.337161	-1.651635	99
Es	0.288289	1.448773	1.564814	99
Es	0.598940	0.096630	0.592469	99
Es	-0.042659	-0.983774	-1.598625	99
Es	-1.478548	-0.959776	0.496883	99
Es	0.996819	0.718094	0.852572	99
Es	2.216095	0.850097	0.797971	99
Es	1.852180	0.707151	1.014515	99
Es	-0.230924	-0.712915	-2.818751	99
Es	-1.201121	-0.450341	0.700112	99
Es	-1.334163	-0.164564	0.586788	99
Es	0.206930	1.704938	1.379687	99
