42
Properties=species:S:1:pos:R:3:Z:I:1 energy=-339.9195405228792 field_type=dipole dipole="0.000000 0.000000 0.000000" charge=0
N	-2.040271	-1.317162	-0.093511	7
C	-0.607851	-1.023062	-0.012211	6
C	-0.280271	0.439658	0.103789	6
C	-1.150231	1.458748	0.203569	6
C	1.164629	0.795028	0.115369	6
N	2.111649	-0.083872	0.021429	7
O	3.347079	0.573238	0.066059	8
H	-2.161301	-2.328932	-0.091351	1
H	-2.382831	-1.000282	-0.999351	1
H	-0.123641	-1.441362	-0.902341	1
H	-0.203331	-1.547192	0.861319	1
H	-2.221051	1.278318	0.219989	1
H	-0.833821	2.493118	0.288469	1
H	1.401239	1.870558	0.210619	1
H	3.980009	-0.166802	0.008159	1
Es	0.455970	0.598295	0.106389	99
Es	1.164580	0.795004	0.115372	99
Es	1.319210	1.518058	0.179367	99
Es	-0.280126	0.439585	0.103774	99
Es	-0.334520	-1.365660	0.579105	99
Es	2.806167	0.286806	0.047236	99
Es	3.682277	0.173472	0.034469	99
Es	-0.607998	-1.022999	-0.012212	99
Es	-1.416417	-1.190437	-0.075423	99
Es	-2.225561	-1.168037	0.170437	99
Es	1.686449	0.273301	0.351751	99
Es	-1.150274	1.458811	0.203560	99
Es	-2.039967	-1.317402	-0.093942	99
Es	-2.232228	-1.133225	-0.651398	99
Es	3.353391	0.734971	-0.193102	99
Es	2.111737	-0.083265	0.021484	99
Es	-2.095496	-1.930352	-0.107572	99
Es	-0.682546	0.924558	0.470391	99
Es	2.114076	-0.462321	-0.012699	99
Es	3.357365	0.699638	0.347108	99
Es	3.347031	0.572878	0.066027	99
Es	-1.868857	1.347731	0.210370	99
Es	-0.931526	2.156983	0.259728	99
Es	-0.269368	-1.290888	-0.619421	99
Es	-0.694374	0.977028	-0.174363	99
Es	1.679378	0.326188	-0.227248	99
Es	-0.457175	-0.273442	0.044116	99
42
Properties=species:S:1:pos:R:3:Z:I:1 energy=-339.9195405228792 field_type=dipole dipole="0.000000 0.000000 0.000000" charge=0
N	-2.040271	-1.317162	-0.093511	7
C	-0.607851	-1.023062	-0.012211	6
C	-0.280271	0.439658	0.103789	6
C	-1.150231	1.458748	0.203569	6
C	1.164629	0.795028	0.115369	6
N	2.111649	-0.083872	0.021429	7
O	3.347079	0.573238	0.066059	8
H	-2.161301	-2.328932	-0.091351	1
H	-2.382831	-1.000282	-0.999351	1
H	-0.123641	-1.441362	-0.902341	1
H	-0.203331	-1.547192	0.861319	1
H	-2.221051	1.278318	0.219989	1
H	-0.833821	2.493118	0.288469	1
H	1.401239	1.870558	0.210619	1
H	3.980009	-0.166802	0.008159	1
Es	-0.931130	2.154281	0.258879	99
Es	-2.094416	-1.928449	-0.114445	99
Es	-1.415599	-1.191966	-0.080409	99
Es	3.353459	0.699391	0.331984	99
Es	1.164575	0.795007	0.115370	99
Es	-0.280122	0.439582	0.103774	99
Es	2.111158	-0.464665	-0.011667	99
Es	-0.682607	0.924458	0.470689	99
Es	3.350405	0.730827	-0.179653	99
Es	-0.268803	-1.291648	-0.618609	99
Es	2.111703	-0.083243	0.021487	99
Es	-0.334850	-1.364828	0.578212	99
Es	1.687882	0.276893	0.349103	99
Es	2.802871	0.290115	0.047267	99
Es	-2.234972	-1.130800	-0.646340	99
Es	-0.455838	-0.271996	0.044604	99
Es	-1.871115	1.349007	0.209730	99
Es	-2.039966	-1.317385	-0.093917	99
Es	1.680569	0.328782	-0.224457	99
Es	-0.607995	-1.022999	-0.012213	99
Es	1.319540	1.517152	0.178950	99
Es	-2.225664	-1.170535	0.177225	99
Es	3.693339	0.170925	0.035891	99
Es	-1.150277	1.458814	0.203569	99
Es	0.456729	0.598567	0.106387	99
Es	-0.694713	0.977124	-0.174138	99
Es	3.347034	0.572868	0.066031	99
42
Properties=species:S:1:pos:R:3:Z:I:1 energy=-339.9195405228792 field_type=dipole dipole="0.000000 0.000000 0.000000" charge=0
N	-2.040271	-1.317162	-0.093511	7
C	-0.607851	-1.023062	-0.012211	6
C	-0.280271	0.439658	0.103789	6
C	-1.150231	1.458748	0.203569	6
C	1.164629	0.795028	0.115369	6
N	2.111649	-0.083872	0.021429	7
O	3.347079	0.573238	0.066059	8
H	-2.161301	-2.328932	-0.091351	1
H	-2.382831	-1.000282	-0.999351	1
H	-0.123641	-1.441362	-0.902341	1
H	-0.203331	-1.547192	0.861319	1
H	-2.221051	1.278318	0.219989	1
H	-0.833821	2.493118	0.288469	1
H	1.401239	1.870558	0.210619	1
H	3.980009	-0.166802	0.008159	1
Es	3.351898	0.735559	-0.166260	99
Es	-0.682625	0.924342	0.470905	99
Es	2.111691	-0.083238	0.021491	99
Es	2.798939	0.295448	0.045998	99
Es	3.351490	0.686231	0.320900	99
Es	1.681667	0.330894	-0.222227	99
Es	-1.150278	1.458816	0.203566	99
Es	-2.094098	-1.926702	-0.119131	99
Es	-1.415346	-1.193083	-0.084304	99
Es	-0.335988	-1.363550	0.577212	99
Es	-2.039937	-1.317420	-0.093948	99
Es	3.697764	0.171296	0.034747	99
Es	0.457460	0.598110	0.106403	99
Es	-2.238051	-1.127751	-0.642242	99
Es	1.688888	0.278855	0.347478	99
Es	-0.930434	2.151822	0.258425	99
Es	-0.607996	-1.023000	-0.012213	99
Es	-0.695104	0.977099	-0.174280	99
Es	-0.267807	-1.293110	-0.617960	99
Es	2.109086	-0.466203	-0.011637	99
Es	1.164574	0.795008	0.115358	99
Es	3.347046	0.572884	0.066039	99
Es	-0.280123	0.439582	0.103773	99
Es	1.319774	1.516701	0.178736	99
Es	-1.872519	1.350942	0.209522	99
Es	-0.454992	-0.270740	0.045195	99
Es	-2.223780	-1.173513	0.181756	99
42
Properties=species:S:1:pos:R:3:Z:I:1 energy=-339.9195405228792 field_type=dipole dipole="0.000000 0.000000 0.000000" charge=0
N	-2.040271	-1.317162	-0.093511	7
C	-0.607851	-1.023062	-0.012211	6
C	-0.280271	0.439658	0.103789	6
C	-1.150231	1.458748	0.203569	6
C	1.164629	0.795028	0.115369	6
N	2.111649	-0.083872	0.021429	7
O	3.347079	0.573238	0.066059	8
H	-2.161301	-2.328932	-0.091351	1
H	-2.382831	-1.000282	-0.999351	1
H	-0.123641	-1.441362	-0.902341	1
H	-0.203331	-1.547192	0.861319	1
H	-2.221051	1.278318	0.219989	1
H	-0.833821	2.493118	0.288469	1
H	1.401239	1.870558	0.210619	1
H	3.980009	-0.166802	0.008159	1
Es	-0.280120	0.439581	0.103777	99
Es	-1.873801	1.356624	0.209901	99
Es	2.111698	-0.083226	0.021489	99
Es	1.319788	1.514809	0.178499	99
Es	-0.454948	-0.269575	0.045163	99
Es	-0.682657	0.924191	0.474962	99
Es	-2.240051	-1.126185	-0.643572	99
Es	-0.335649	-1.363089	0.578862	99
Es	3.338452	0.559498	0.059828	99
Es	-0.930774	2.144798	0.257827	99
Es	-2.092645	-1.920151	-0.121753	99
Es	3.378468	0.879814	0.084466	99
Es	-2.223434	-1.176035	0.188364	99
Es	3.701714	0.173614	0.036246	99
Es	2.797708	0.298557	0.044361	99
Es	-1.415397	-1.196271	-0.086997	99
Es	1.689434	0.280033	0.350289	99
Es	0.457938	0.596425	0.106406	99
Es	-0.694948	0.977548	-0.178440	99
Es	-2.039922	-1.317418	-0.093979	99
Es	-0.267337	-1.292725	-0.619086	99
Es	-1.150278	1.458816	0.203567	99
Es	-0.607993	-1.022999	-0.012210	99
Es	1.164575	0.795008	0.115364	99
Es	2.108739	-0.463843	-0.010709	99
Es	3.330815	0.545923	0.076257	99
Es	1.681823	0.331554	-0.225579	99
42
Properties=species:S:1:pos:R:3:Z:I:1 energy=-339.9195405228792 field_type=dipole dipole="0.000000 0.000000 0.000000" charge=0
N	-2.040271	-1.317162	-0.093511	7
C	-0.607851	-1.023062	-0.012211	6
C	-0.280271	0.439658	0.103789	6
C	-1.150231	1.458748	0.203569	6
C	1.164629	0.795028	0.115369	6
N	2.111649	-0.083872	0.021429	7
O	3.347079	0.573238	0.066059	8
H	-2.161301	-2.328932	-0.091351	1
H	-2.382831	-1.000282	-0.999351	1
H	-0.123641	-1.441362	-0.902341	1
H	-0.203331	-1.547192	0.861319	1
H	-2.221051	1.278318	0.219989	1
H	-0.833821	2.493118	0.288469	1
H	1.401239	1.870558	0.210619	1
H	3.980009	-0.166802	0.008159	1
Es	-1.150278	1.458815	0.203568	99
Es	-0.264867	-1.296382	-0.618061	99
Es	2.107801	-0.465121	-0.011217	99
Es	-0.280123	0.439582	0.103776	99
Es	1.690153	0.281303	0.349181	99
Es	0.458322	0.594832	0.106096	99
Es	-2.093326	-1.918947	-0.124574	99
Es	-2.039925	-1.317434	-0.093950	99
Es	-0.607995	-1.023004	-0.012211	99
Es	-2.207913	-1.189194	0.186146	99
Es	3.701467	0.173017	0.035971	99
Es	-0.930305	2.139365	0.257360	99
Es	-0.695495	0.977318	-0.178243	99
Es	-0.682355	0.924337	0.475021	99
Es	3.379794	0.874118	0.092081	99
Es	1.164573	0.795007	0.115361	99
Es	3.339850	0.562171	0.055966	99
Es	-1.415465	-1.196908	-0.090499	99
Es	-0.454766	-0.267990	0.045601	99
Es	-0.338470	-1.359859	0.577324	99
Es	-1.874317	1.362057	0.210624	99
Es	3.329008	0.543123	0.072585	99
Es	2.111705	-0.083231	0.021489	99
Es	1.320324	1.514263	0.178571	99
Es	2.796217	0.303573	0.044381	99
Es	1.682585	0.332603	-0.224150	99
Es	-2.255001	-1.112137	-0.634893	99
42
Properties=species:S:1:pos:R:3:Z:I:1 energy=-339.9195405228792 field_type=dipole dipole="0.000000 0.000000 0.000000" charge=0
N	-2.040271	-1.317162	-0.093511	7
C	-0.607851	-1.023062	-0.012211	6
C	-0.280271	0.439658	0.103789	6
C	-1.150231	1.458748	0.203569	6
C	1.164629	0.795028	0.115369	6
N	2.111649	-0.083872	0.021429	7
O	3.347079	0.573238	0.066059	8
H	-2.161301	-2.328932	-0.091351	1
H	-2.382831	-1.000282	-0.999351	1
H	-0.123641	-1.441362	-0.902341	1
H	-0.203331	-1.547192	0.861319	1
H	-2.221051	1.278318	0.219989	1
H	-0.833821	2.493118	0.288469	1
H	1.401239	1.870558	0.210619	1
H	3.980009	-0.166802	0.008159	1
Es	1.164574	0.795007	0.115364	99
Es	3.323491	0.535427	0.058051	99
Es	3.700888	0.172508	0.032261	99
Es	3.380796	0.868499	0.097772	99
Es	-0.683088	0.924072	0.475819	99
Es	-1.415767	-1.198063	-0.093714	99
Es	-0.341860	-1.355370	0.574929	99
Es	0.458823	0.591964	0.105717	99
Es	-1.150279	1.458815	0.203570	99
Es	-0.694970	0.977554	-0.179223	99
Es	-2.093467	-1.916799	-0.127475	99
Es	1.320224	1.514281	0.179119	99
Es	-0.607994	-1.023002	-0.012215	99
Es	2.111692	-0.083231	0.021488	99
Es	2.108865	-0.466595	-0.013295	99
Es	3.345117	0.569897	0.063798	99
Es	-0.454896	-0.266340	0.045713	99
Es	1.683304	0.333620	-0.223831	99
Es	-0.930914	2.132694	0.257454	99
Es	-2.039935	-1.317473	-0.094009	99
Es	1.690170	0.281319	0.349947	99
Es	2.794065	0.309937	0.049029	99
Es	-2.181427	-1.212272	0.164559	99
Es	-0.280124	0.439582	0.103776	99
Es	-0.261517	-1.300874	-0.616232	99
Es	-2.280894	-1.088570	-0.606927	99
Es	-1.873682	1.368691	0.211858	99
42
Properties=species:S:1:pos:R:3:Z:I:1 energy=-339.9195405228792 field_type=dipole dipole="0.000000 0.000000 0.000000" charge=0
N	-2.040271	-1.317162	-0.093511	7
C	-0.607851	-1.023062	-0.012211	6
C	-0.280271	0.439658	0.103789	6
C	-1.150231	1.458748	0.203569	6
C	1.164629	0.795028	0.115369	6
N	2.111649	-0.083872	0.021429	7
O	3.347079	0.573238	0.066059	8
H	-2.161301	-2.328932	-0.091351	1
H	-2.382831	-1.000282	-0.999351	1
H	-0.123641	-1.441362	-0.902341	1
H	-0.203331	-1.547192	0.861319	1
H	-2.221051	1.278318	0.219989	1
H	-0.833821	2.493118	0.288469	1
H	1.401239	1.870558	0.210619	1
H	3.980009	-0.166802	0.008159	1
Es	-0.932232	2.126213	0.257188	99
Es	0.459120	0.589642	0.105379	99
Es	3.700273	0.171895	0.030931	99
Es	-0.342724	-1.354297	0.574297	99
Es	1.690305	0.281334	0.350476	99
Es	-0.683306	0.924045	0.476482	99
Es	1.164573	0.795006	0.115365	99
Es	2.791780	0.319153	0.049948	99
Es	-1.416474	-1.198417	-0.095973	99
Es	3.333587	0.553448	0.044676	99
Es	-0.260746	-1.302019	-0.615777	99
Es	-2.164012	-1.226310	0.137752	99
Es	-1.872347	1.375125	0.212938	99
Es	-0.454956	-0.265001	0.045802	99
Es	3.381543	0.858781	0.114904	99
Es	-2.297253	-1.073745	-0.576138	99
Es	-0.280123	0.439583	0.103777	99
Es	-0.694869	0.977599	-0.179915	99
Es	-0.607994	-1.023002	-0.012215	99
Es	-1.150279	1.458815	0.203568	99
Es	1.320013	1.514520	0.179296	99
Es	1.683627	0.334202	-0.223858	99
Es	-2.093499	-1.916297	-0.129117	99
Es	2.111676	-0.083221	0.021490	99
Es	3.334799	0.553776	0.060267	99
Es	2.110646	-0.468119	-0.014290	99
Es	-2.039930	-1.317432	-0.093951	99
42
Properties=species:S:1:pos:R:3:Z:I:1 energy=-339.9195405228792 field_type=dipole dipole="0.000000 0.000000 0.000000" charge=0
N	-2.040271	-1.317162	-0.093511	7
C	-0.607851	-1.023062	-0.012211	6
C	-0.280271	0.439658	0.103789	6
C	-1.150231	1.458748	0.203569	6
C	1.164629	0.795028	0.115369	6
N	2.111649	-0.083872	0.021429	7
O	3.347079	0.573238	0.066059	8
H	-2.161301	-2.328932	-0.091351	1
H	-2.382831	-1.000282	-0.999351	1
H	-0.123641	-1.441362	-0.902341	1
H	-0.203331	-1.547192	0.861319	1
H	-2.221051	1.278318	0.219989	1
H	-0.833821	2.493118	0.288469	1
H	1.401239	1.870558	0.210619	1
H	3.980009	-0.166802	0.008159	1
Es	-0.683512	0.923972	0.476875	99
Es	-0.694748	0.977700	-0.180327	99
Es	3.322916	0.537866	0.034806	99
Es	-2.039914	-1.317448	-0.094014	99
Es	-2.092914	-1.916611	-0.130344	99
Es	0.459245	0.587372	0.105104	99
Es	-0.607995	-1.023003	-0.012213	99
Es	3.381006	0.850966	0.120512	99
Es	-0.454907	-0.263808	0.046030	99
Es	3.700116	0.171767	0.030213	99
Es	1.164573	0.795006	0.115369	99
Es	-2.307333	-1.065130	-0.550764	99
Es	-0.342872	-1.354334	0.574215	99
Es	-0.260667	-1.302013	-0.616009	99
Es	-2.153664	-1.234911	0.114709	99
Es	2.789811	0.327157	0.052627	99
Es	3.345420	0.570498	0.062737	99
Es	1.319893	1.514694	0.179476	99
Es	-1.417157	-1.197070	-0.096926	99
Es	1.690250	0.281261	0.350827	99
Es	-1.870820	1.380547	0.213682	99
Es	1.683791	0.334423	-0.223953	99
Es	-1.150279	1.458815	0.203570	99
Es	-0.280118	0.439588	0.103772	99
Es	2.113075	-0.469580	-0.015045	99
Es	2.111713	-0.083233	0.021488	99
Es	-0.933712	2.120788	0.256886	99
42
Properties=species:S:1:pos:R:3:Z:I:1 energy=-339.9195405228792 field_type=dipole dipole="0.000000 0.000000 0.000000" charge=0
N	-2.040271	-1.317162	-0.093511	7
C	-0.607851	-1.023062	-0.012211	6
C	-0.280271	0.439658	0.103789	6
C	-1.150231	1.458748	0.203569	6
C	1.164629	0.795028	0.115369	6
N	2.111649	-0.083872	0.021429	7
O	3.347079	0.573238	0.066059	8
H	-2.161301	-2.328932	-0.091351	1
H	-2.382831	-1.000282	-0.999351	1
H	-0.123641	-1.441362	-0.902341	1
H	-0.203331	-1.547192	0.861319	1
H	-2.221051	1.278318	0.219989	1
H	-0.833821	2.493118	0.288469	1
H	1.401239	1.870558	0.210619	1
H	3.980009	-0.166802	0.008159	1
Es	0.459571	0.585508	0.104934	99
Es	3.332691	0.552685	0.040825	99
Es	-1.870131	1.382641	0.213970	99
Es	-0.280125	0.439582	0.103764	99
Es	-0.454968	-0.262378	0.045978	99
Es	-0.260237	-1.302613	-0.615634	99
Es	-0.343277	-1.353690	0.573848	99
Es	1.319522	1.515158	0.179658	99
Es	1.683870	0.334537	-0.224102	99
Es	3.699898	0.171664	0.028987	99
Es	-0.934411	2.118664	0.256759	99
Es	-2.039916	-1.317449	-0.094001	99
Es	-0.683442	0.923962	0.477114	99
Es	-2.146839	-1.239791	0.096873	99
Es	2.115393	-0.470338	-0.015506	99
Es	-0.694810	0.977752	-0.180481	99
Es	-2.313789	-1.060016	-0.531669	99
Es	-2.092465	-1.917384	-0.130716	99
Es	3.335545	0.555369	0.058337	99
Es	-1.150279	1.458815	0.203570	99
Es	-0.607998	-1.023004	-0.012213	99
Es	2.789229	0.338800	0.052622	99
Es	-1.417835	-1.196580	-0.097803	99
Es	3.379511	0.840361	0.120338	99
Es	1.164574	0.795006	0.115370	99
Es	1.690246	0.281251	0.350991	99
Es	2.111668	-0.083232	0.021488	99
42
Properties=species:S:1:pos:R:3:Z:I:1 energy=-339.9195405228792 field_type=dipole dipole="0.000000 0.000000 0.000000" charge=0
N	-2.040271	-1.317162	-0.093511	7
C	-0.607851	-1.023062	-0.012211	6
C	-0.280271	0.439658	0.103789	6
C	-1.150231	1.458748	0.203569	6
C	1.164629	0.795028	0.115369	6
N	2.111649	-0.083872	0.021429	7
O	3.347079	0.573238	0.066059	8
H	-2.161301	-2.328932	-0.091351	1
H	-2.382831	-1.000282	-0.999351	1
H	-0.123641	-1.441362	-0.902341	1
H	-0.203331	-1.547192	0.861319	1
H	-2.221051	1.278318	0.219989	1
H	-0.833821	2.493118	0.288469	1
H	1.401239	1.870558	0.210619	1
H	3.980009	-0.166802	0.008159	1
Es	1.319297	1.515381	0.179796	99
Es	-2.093130	-1.916478	-0.130426	99
Es	1.164573	0.795006	0.115370	99
Es	-2.319010	-1.055718	-0.513687	99
Es	-0.280124	0.439584	0.103767	99
Es	-0.260396	-1.302335	-0.615946	99
Es	-1.868901	1.386131	0.214328	99
Es	-0.454863	-0.261472	0.046044	99
Es	3.699722	0.171414	0.029374	99
Es	-0.343146	-1.353974	0.574070	99
Es	1.690254	0.281446	0.351297	99
Es	3.340067	0.563143	0.052304	99
Es	0.459668	0.584181	0.104744	99
Es	-0.935631	2.115158	0.256574	99
Es	3.378582	0.835916	0.123943	99
Es	1.683924	0.334394	-0.224177	99
Es	2.787809	0.342956	0.054344	99
Es	2.117754	-0.470940	-0.015833	99
Es	-2.141412	-1.243878	0.078779	99
Es	2.111682	-0.083221	0.021490	99
Es	-0.694995	0.977768	-0.180822	99
Es	3.328227	0.545968	0.041103	99
Es	-1.417227	-1.197410	-0.097991	99
Es	-0.607990	-1.022998	-0.012214	99
Es	-1.150280	1.458815	0.203570	99
Es	-0.683333	0.923898	0.477479	99
Es	-2.039925	-1.317457	-0.093975	99
42
Properties=species:S:1:pos:R:3:Z:I:1 energy=-339.9195405228792 field_type=dipole dipole="0.000000 0.000000 0.000000" charge=0
N	-2.040271	-1.317162	-0.093511	7
C	-0.607851	-1.023062	-0.012211	6
C	-0.280271	0.439658	0.103789	6
C	-1.150231	1.458748	0.203569	6
C	1.164629	0.795028	0.115369	6
N	2.111649	-0.083872	0.021429	7
O	3.347079	0.573238	0.066059	8
H	-2.161301	-2.328932	-0.091351	1
H	-2.382831	-1.000282	-0.999351	1
H	-0.123641	-1.441362	-0.902341	1
H	-0.203331	-1.547192	0.861319	1
H	-2.221051	1.278318	0.219989	1
H	-0.833821	2.493118	0.288469	1
H	1.401239	1.870558	0.210619	1
H	3.980009	-0.166802	0.008159	1
Es	3.327094	0.547709	0.017799	99
Es	1.164573	0.795004	0.115370	99
Es	1.683960	0.334727	-0.224242	99
Es	-2.137601	-1.247205	0.064168	99
Es	-0.683431	0.923900	0.477478	99
Es	2.117955	-0.470951	-0.015543	99
Es	2.111711	-0.083187	0.021493	99
Es	1.319247	1.515509	0.179733	99
Es	0.459578	0.582220	0.104640	99
Es	-0.936416	2.112993	0.256366	99
Es	-2.091104	-1.919462	-0.131605	99
Es	-0.454635	-0.261086	0.046144	99
Es	-2.039913	-1.317450	-0.094016	99
Es	1.690237	0.281166	0.351229	99
Es	-0.280124	0.439584	0.103766	99
Es	-1.150279	1.458815	0.203570	99
Es	-1.419217	-1.192763	-0.097456	99
Es	3.341284	0.564191	0.062447	99
Es	-2.322910	-1.052604	-0.498339	99
Es	3.377592	0.830099	0.133054	99
Es	-0.607990	-1.023000	-0.012215	99
Es	2.788520	0.346075	0.057333	99
Es	-0.342850	-1.354387	0.574440	99
Es	-1.868110	1.388313	0.214468	99
Es	-0.694902	0.977802	-0.180853	99
Es	3.699620	0.171185	0.030336	99
Es	-0.260691	-1.301917	-0.616260	99
