38
Properties=species:S:1:pos:R:3:Z:I:1 energy=-358.6285886461672 field_type=dipole dipole="0.000000 0.000000 0.000000" charge=0
N	-1.867714	-1.493807	0.110763	7
C	-0.416114	-1.481817	0.058363	6
C	0.065906	-0.120647	0.058363	6
C	0.463186	1.001253	0.058363	6
C	0.984906	2.344723	0.051173	6
O	2.333196	2.402214	0.109013	8
O	0.256556	3.319523	-0.015037	8
H	-2.201374	-2.451847	0.028893	1
H	-2.238814	-0.991537	-0.694827	1
H	-0.079164	-2.007777	-0.841107	1
H	-0.022224	-2.027367	0.921873	1
H	2.721656	1.507083	0.154163	1
Es	0.178791	0.553190	0.383830	99
Es	-2.072883	-1.204906	-0.388865	99
Es	-0.031982	3.229199	-0.026389	99
Es	-0.164338	-0.769725	0.057320	99
Es	2.385743	2.524860	-0.140676	99
Es	0.725452	1.638687	0.055838	99
Es	0.065831	-0.120875	0.058365	99
Es	0.610433	0.316314	0.003320	99
Es	-1.867487	-1.494062	0.110249	99
Es	-2.048834	-2.076884	0.043057	99
Es	-0.170411	-1.815263	-0.551701	99
Es	2.332945	2.401882	0.109041	99
Es	2.511748	1.919739	0.130183	99
Es	0.500027	2.977280	0.260292	99
Es	-0.143338	-1.828928	0.636581	99
Es	-1.220158	-1.489913	0.064387	99
Es	0.524133	2.962213	-0.243267	99
Es	2.350006	2.526532	0.360560	99
Es	1.819938	2.343019	0.083710	99
Es	-0.416201	-1.481680	0.058361	99
Es	0.463276	1.001503	0.058365	99
Es	-1.979923	-1.350737	0.406525	99
Es	0.417298	3.578110	-0.015217	99
Es	0.256765	3.319248	-0.015022	99
Es	0.067217	0.552888	-0.217540	99
Es	0.985156	2.344589	0.051189	99
38
Properties=species:S:1:pos:R:3:Z:I:1 energy=-358.6285886461672 field_type=dipole dipole="0.000000 0.000000 0.000000" charge=0
N	-1.867714	-1.493807	0.110763	7
C	-0.416114	-1.481817	0.058363	6
C	0.065906	-0.120647	0.058363	6
C	0.463186	1.001253	0.058363	6
C	0.984906	2.344723	0.051173	6
O	2.333196	2.402214	0.109013	8
O	0.256556	3.319523	-0.015037	8
H	-2.201374	-2.451847	0.028893	1
H	-2.238814	-0.991537	-0.694827	1
H	-0.079164	-2.007777	-0.841107	1
H	-0.022224	-2.027367	0.921873	1
H	2.721656	1.507083	0.154163	1
Es	0.463275	1.001523	0.058355	99
Es	0.256761	3.319281	-0.015019	99
Es	-0.144740	-1.830437	0.634420	99
Es	-2.052788	-2.082599	0.045322	99
Es	2.235081	2.394237	0.280147	99
Es	0.071447	0.551438	-0.216776	99
Es	0.404458	3.603316	-0.015846	99
Es	-1.220213	-1.487733	0.065654	99
Es	-0.159875	-0.768758	0.057114	99
Es	0.496750	2.975667	0.253263	99
Es	-1.867490	-1.494065	0.110257	99
Es	2.487317	2.651031	0.001408	99
Es	0.722433	1.640998	0.056962	99
Es	-1.971607	-1.356737	0.396706	99
Es	-2.076143	-1.196567	-0.382752	99
Es	0.614940	0.314064	0.020716	99
Es	0.065833	-0.120886	0.058369	99
Es	2.332876	2.401831	0.108771	99
Es	0.170253	0.556188	0.364217	99
Es	-0.416205	-1.481677	0.058362	99
Es	1.825246	2.352715	0.034198	99
Es	-0.171882	-1.815801	-0.549371	99
Es	2.519238	1.915683	0.118523	99
Es	-0.011487	3.208888	-0.024201	99
Es	0.985153	2.344590	0.051197	99
Es	0.520571	2.960091	-0.237503	99
38
Properties=species:S:1:pos:R:3:Z:I:1 energy=-358.6285886461672 field_type=dipole dipole="0.000000 0.000000 0.000000" charge=0
N	-1.867714	-1.493807	0.110763	7
C	-0.416114	-1.481817	0.058363	6
C	0.065906	-0.120647	0.058363	6
C	0.463186	1.001253	0.058363	6
C	0.984906	2.344723	0.051173	6
O	2.333196	2.402214	0.109013	8
O	0.256556	3.319523	-0.015037	8
H	-2.201374	-2.451847	0.028893	1
H	-2.238814	-0.991537	-0.694827	1
H	-0.079164	-2.007777	-0.841107	1
H	-0.022224	-2.027367	0.921873	1
H	2.721656	1.507083	0.154163	1
Es	0.004206	3.200289	-0.023193	99
Es	-1.967576	-1.360301	0.391990	99
Es	2.239635	2.365266	0.097536	99
Es	0.256841	3.319274	-0.015016	99
Es	0.463276	1.001526	0.058344	99
Es	0.391996	3.614028	-0.017094	99
Es	0.615779	0.312275	0.050767	99
Es	-0.416204	-1.481679	0.058368	99
Es	-1.867490	-1.494071	0.110235	99
Es	-0.157917	-0.768418	0.056851	99
Es	-0.172768	-1.815890	-0.548351	99
Es	0.065836	-0.120884	0.058358	99
Es	0.720860	1.641727	0.057126	99
Es	0.519061	2.959422	-0.236598	99
Es	0.101790	0.549767	-0.231649	99
Es	2.493859	2.678180	0.116123	99
Es	2.519130	1.912811	0.132007	99
Es	-2.053529	-2.084545	0.046791	99
Es	-2.078140	-1.192291	-0.380265	99
Es	-0.145188	-1.831165	0.633945	99
Es	0.139085	0.559521	0.349152	99
Es	0.495426	2.974802	0.252375	99
Es	1.813743	2.357196	0.088406	99
Es	-1.220511	-1.486941	0.066347	99
Es	2.332848	2.401796	0.108749	99
Es	0.985157	2.344587	0.051191	99
38
Properties=species:S:1:pos:R:3:Z:I:1 energy=-358.6285886461672 field_type=dipole dipole="0.000000 0.000000 0.000000" charge=0
N	-1.867714	-1.493807	0.110763	7
C	-0.416114	-1.481817	0.058363	6
C	0.065906	-0.120647	0.058363	6
C	0.463186	1.001253	0.058363	6
C	0.984906	2.344723	0.051173	6
O	2.333196	2.402214	0.109013	8
O	0.256556	3.319523	-0.015037	8
H	-2.201374	-2.451847	0.028893	1
H	-2.238814	-0.991537	-0.694827	1
H	-0.079164	-2.007777	-0.841107	1
H	-0.022224	-2.027367	0.921873	1
H	2.721656	1.507083	0.154163	1
Es	0.463273	1.001532	0.058356	99
Es	-2.054172	-2.085929	0.047199	99
Es	2.517796	1.911545	0.130740	99
Es	-1.867477	-1.494089	0.110205	99
Es	1.816018	2.356962	0.091463	99
Es	0.065839	-0.120889	0.058361	99
Es	-0.156671	-0.768063	0.056869	99
Es	-2.082497	-1.184810	-0.374331	99
Es	2.239531	2.365062	0.094078	99
Es	-0.416204	-1.481677	0.058362	99
Es	0.719849	1.642196	0.057043	99
Es	0.493716	2.974519	0.250000	99
Es	0.515263	2.956370	-0.236683	99
Es	2.332923	2.401843	0.108828	99
Es	0.387672	3.619118	-0.017512	99
Es	2.492609	2.679718	0.117681	99
Es	0.014350	3.198843	-0.020195	99
Es	-0.173152	-1.816091	-0.547549	99
Es	0.256845	3.319267	-0.015016	99
Es	-1.961794	-1.367536	0.385236	99
Es	0.617197	0.312203	0.045454	99
Es	0.985155	2.344589	0.051191	99
Es	-1.220776	-1.486256	0.066773	99
Es	-0.145707	-1.831352	0.633171	99
Es	0.093846	0.549928	-0.223590	99
Es	0.145773	0.559277	0.346359	99
38
Properties=species:S:1:pos:R:3:Z:I:1 energy=-358.6285886461672 field_type=dipole dipole="0.000000 0.000000 0.000000" charge=0
N	-1.867714	-1.493807	0.110763	7
C	-0.416114	-1.481817	0.058363	6
C	0.065906	-0.120647	0.058363	6
C	0.463186	1.001253	0.058363	6
C	0.984906	2.344723	0.051173	6
O	2.333196	2.402214	0.109013	8
O	0.256556	3.319523	-0.015037	8
H	-2.201374	-2.451847	0.028893	1
H	-2.238814	-0.991537	-0.694827	1
H	-0.079164	-2.007777	-0.841107	1
H	-0.022224	-2.027367	0.921873	1
H	2.721656	1.507083	0.154163	1
Es	0.159665	0.558814	0.344314	99
Es	-2.054898	-2.086764	0.048040	99
Es	0.023890	3.195704	-0.021413	99
Es	2.239197	2.364947	0.097217	99
Es	-0.416203	-1.481678	0.058364	99
Es	0.617940	0.312389	0.038576	99
Es	0.490564	2.974528	0.249511	99
Es	-0.173469	-1.816089	-0.546974	99
Es	-2.085262	-1.180311	-0.369686	99
Es	2.516509	1.910678	0.129558	99
Es	0.065836	-0.120889	0.058365	99
Es	0.719141	1.642477	0.056793	99
Es	-0.155797	-0.767832	0.056963	99
Es	2.491784	2.681217	0.113582	99
Es	0.380378	3.623453	-0.016688	99
Es	0.079396	0.550115	-0.214549	99
Es	0.463270	1.001531	0.058350	99
Es	-1.957757	-1.371792	0.380054	99
Es	0.256764	3.319286	-0.015020	99
Es	1.818216	2.356347	0.093147	99
Es	0.985156	2.344588	0.051192	99
Es	0.516476	2.955354	-0.235552	99
Es	2.332926	2.401853	0.109179	99
Es	-1.867472	-1.494080	0.110223	99
Es	-1.221003	-1.486001	0.066476	99
Es	-0.146043	-1.831564	0.632473	99
38
Properties=species:S:1:pos:R:3:Z:I:1 energy=-358.6285886461672 field_type=dipole dipole="0.000000 0.000000 0.000000" charge=0
N	-1.867714	-1.493807	0.110763	7
C	-0.416114	-1.481817	0.058363	6
C	0.065906	-0.120647	0.058363	6
C	0.463186	1.001253	0.058363	6
C	0.984906	2.344723	0.051173	6
O	2.333196	2.402214	0.109013	8
O	0.256556	3.319523	-0.015037	8
H	-2.201374	-2.451847	0.028893	1
H	-2.238814	-0.991537	-0.694827	1
H	-0.079164	-2.007777	-0.841107	1
H	-0.022224	-2.027367	0.921873	1
H	2.721656	1.507083	0.154163	1
Es	2.515425	1.910174	0.127871	99
Es	0.027909	3.196310	-0.020872	99
Es	0.379744	3.624778	-0.016301	99
Es	0.718756	1.642633	0.056656	99
Es	0.463276	1.001531	0.058348	99
Es	0.060055	0.550384	-0.201855	99
Es	-2.087790	-1.175940	-0.364998	99
Es	0.065838	-0.120890	0.058362	99
Es	0.515596	2.953043	-0.235168	99
Es	0.256789	3.319283	-0.015019	99
Es	0.488257	2.975050	0.248273	99
Es	2.284484	2.382544	0.099905	99
Es	-0.173752	-1.816265	-0.546659	99
Es	-0.155303	-0.767572	0.057146	99
Es	-1.220997	-1.485997	0.066537	99
Es	2.287408	2.384238	0.109186	99
Es	0.617837	0.313157	0.026911	99
Es	-0.146351	-1.831597	0.631944	99
Es	0.985158	2.344588	0.051174	99
Es	2.491106	2.682519	0.109859	99
Es	-0.416203	-1.481678	0.058364	99
Es	0.179031	0.557781	0.343370	99
Es	-1.867476	-1.494092	0.110224	99
Es	1.820003	2.355509	0.095751	99
Es	-2.055378	-2.087292	0.048545	99
Es	-1.954216	-1.375915	0.374942	99
38
Properties=species:S:1:pos:R:3:Z:I:1 energy=-358.6285886461672 field_type=dipole dipole="0.000000 0.000000 0.000000" charge=0
N	-1.867714	-1.493807	0.110763	7
C	-0.416114	-1.481817	0.058363	6
C	0.065906	-0.120647	0.058363	6
C	0.463186	1.001253	0.058363	6
C	0.984906	2.344723	0.051173	6
O	2.333196	2.402214	0.109013	8
O	0.256556	3.319523	-0.015037	8
H	-2.201374	-2.451847	0.028893	1
H	-2.238814	-0.991537	-0.694827	1
H	-0.079164	-2.007777	-0.841107	1
H	-0.022224	-2.027367	0.921873	1
H	2.721656	1.507083	0.154163	1
Es	0.065835	-0.120890	0.058364	99
Es	2.514497	1.909444	0.127658	99
Es	-1.221572	-1.485916	0.066714	99
Es	0.187085	0.557305	0.342157	99
Es	2.489725	2.683718	0.109659	99
Es	-1.951360	-1.379696	0.370418	99
Es	-1.867474	-1.494079	0.110229	99
Es	0.256779	3.319288	-0.015020	99
Es	-0.154810	-0.767486	0.057269	99
Es	0.514021	2.951553	-0.235366	99
Es	0.617633	0.313599	0.021804	99
Es	-0.416203	-1.481678	0.058365	99
Es	-0.173841	-1.816532	-0.546469	99
Es	0.985157	2.344588	0.051186	99
Es	0.034692	3.196233	-0.020089	99
Es	2.239059	2.364848	0.099669	99
Es	2.332705	2.401790	0.109399	99
Es	0.052246	0.550382	-0.195310	99
Es	0.463273	1.001536	0.058356	99
Es	-2.089908	-1.171893	-0.360495	99
Es	1.822186	2.355033	0.096035	99
Es	0.486850	2.974870	0.247984	99
Es	0.718355	1.642754	0.056350	99
Es	-2.055271	-2.087786	0.048464	99
Es	-0.146636	-1.831446	0.631600	99
Es	0.376180	3.626744	-0.016433	99
38
Properties=species:S:1:pos:R:3:Z:I:1 energy=-358.6285886461672 field_type=dipole dipole="0.000000 0.000000 0.000000" charge=0
N	-1.867714	-1.493807	0.110763	7
C	-0.416114	-1.481817	0.058363	6
C	0.065906	-0.120647	0.058363	6
C	0.463186	1.001253	0.058363	6
C	0.984906	2.344723	0.051173	6
O	2.333196	2.402214	0.109013	8
O	0.256556	3.319523	-0.015037	8
H	-2.201374	-2.451847	0.028893	1
H	-2.238814	-0.991537	-0.694827	1
H	-0.079164	-2.007777	-0.841107	1
H	-0.022224	-2.027367	0.921873	1
H	2.721656	1.507083	0.154163	1
Es	-0.154549	-0.767377	0.057347	99
Es	0.256761	3.319295	-0.015021	99
Es	0.182430	0.557859	0.339682	99
Es	-2.092055	-1.167913	-0.355419	99
Es	-2.055505	-2.088135	0.048760	99
Es	0.376021	3.627291	-0.015886	99
Es	0.718192	1.642797	0.056515	99
Es	0.985156	2.344588	0.051195	99
Es	0.056499	0.550268	-0.197222	99
Es	2.239113	2.364808	0.099574	99
Es	1.823346	2.354937	0.096563	99
Es	-1.948575	-1.383606	0.364613	99
Es	-1.221678	-1.485705	0.067122	99
Es	0.463274	1.001537	0.058355	99
Es	0.484523	2.976356	0.246859	99
Es	2.332605	2.401754	0.109499	99
Es	-0.416203	-1.481678	0.058356	99
Es	0.514335	2.949007	-0.234854	99
Es	-0.146869	-1.831592	0.631359	99
Es	0.618012	0.313171	0.025987	99
Es	2.489312	2.684267	0.110527	99
Es	-0.173980	-1.816516	-0.546236	99
Es	-1.867467	-1.494104	0.110188	99
Es	2.513631	1.909017	0.126206	99
Es	0.065838	-0.120891	0.058360	99
Es	0.037035	3.196847	-0.019931	99
38
Properties=species:S:1:pos:R:3:Z:I:1 energy=-358.6285886461672 field_type=dipole dipole="0.000000 0.000000 0.000000" charge=0
N	-1.867714	-1.493807	0.110763	7
C	-0.416114	-1.481817	0.058363	6
C	0.065906	-0.120647	0.058363	6
C	0.463186	1.001253	0.058363	6
C	0.984906	2.344723	0.051173	6
O	2.333196	2.402214	0.109013	8
O	0.256556	3.319523	-0.015037	8
H	-2.201374	-2.451847	0.028893	1
H	-2.238814	-0.991537	-0.694827	1
H	-0.079164	-2.007777	-0.841107	1
H	-0.022224	-2.027367	0.921873	1
H	2.721656	1.507083	0.154163	1
Es	-0.147089	-1.831507	0.631319	99
Es	0.048451	0.550338	-0.191169	99
Es	1.824504	2.354861	0.097860	99
Es	-0.416203	-1.481679	0.058369	99
Es	0.256804	3.319292	-0.015020	99
Es	-2.055498	-2.088400	0.048869	99
Es	2.332721	2.401753	0.108481	99
Es	2.238876	2.364821	0.101639	99
Es	-1.867514	-1.493992	0.110390	99
Es	-1.946811	-1.386553	0.359908	99
Es	0.985157	2.344589	0.051184	99
Es	0.042086	3.198265	-0.019662	99
Es	0.065840	-0.120891	0.058362	99
Es	0.513934	2.945190	-0.234568	99
Es	0.718119	1.642836	0.056464	99
Es	-2.093611	-1.165289	-0.351556	99
Es	-0.173977	-1.816696	-0.546100	99
Es	0.374783	3.628084	-0.015912	99
Es	0.617769	0.313582	0.021035	99
Es	0.481206	2.978041	0.246403	99
Es	0.463271	1.001538	0.058358	99
Es	2.512817	1.908593	0.126724	99
Es	2.488950	2.684716	0.107628	99
Es	-0.154558	-0.767233	0.057337	99
Es	-1.221513	-1.485336	0.067575	99
Es	0.190690	0.557358	0.338579	99
38
Properties=species:S:1:pos:R:3:Z:I:1 energy=-358.6285886461672 field_type=dipole dipole="0.000000 0.000000 0.000000" charge=0
N	-1.867714	-1.493807	0.110763	7
C	-0.416114	-1.481817	0.058363	6
C	0.065906	-0.120647	0.058363	6
C	0.463186	1.001253	0.058363	6
C	0.984906	2.344723	0.051173	6
O	2.333196	2.402214	0.109013	8
O	0.256556	3.319523	-0.015037	8
H	-2.201374	-2.451847	0.028893	1
H	-2.238814	-0.991537	-0.694827	1
H	-0.079164	-2.007777	-0.841107	1
H	-0.022224	-2.027367	0.921873	1
H	2.721656	1.507083	0.154163	1
Es	0.045467	0.550355	-0.189251	99
Es	-1.867463	-1.494109	0.110184	99
Es	0.985157	2.344588	0.051191	99
Es	-0.416204	-1.481677	0.058365	99
Es	2.238380	2.364419	0.091619	99
Es	-2.055772	-2.088598	0.049192	99
Es	0.374026	3.628570	-0.016820	99
Es	0.718012	1.642865	0.056499	99
Es	0.463265	1.001541	0.058348	99
Es	0.617585	0.313661	0.020586	99
Es	2.512399	1.908379	0.125932	99
Es	2.488240	2.685329	0.110842	99
Es	-0.154511	-0.767095	0.057209	99
Es	-1.221435	-1.485216	0.068555	99
Es	0.512945	2.944416	-0.234234	99
Es	-0.174207	-1.816788	-0.545975	99
Es	0.065835	-0.120891	0.058362	99
Es	2.332962	2.401853	0.109034	99
Es	-1.945407	-1.388762	0.355739	99
Es	0.044306	3.198515	-0.019242	99
Es	0.256797	3.319288	-0.015019	99
Es	1.825715	2.354652	0.104899	99
Es	0.480923	2.978224	0.246508	99
Es	0.193875	0.557260	0.337175	99
Es	-0.147162	-1.831528	0.631144	99
Es	-2.094526	-1.162969	-0.348345	99
38
Properties=species:S:1:pos:R:3:Z:I:1 energy=-358.6285886461672 field_type=dipole dipole="0.000000 0.000000 0.000000" charge=0
N	-1.867714	-1.493807	0.110763	7
C	-0.416114	-1.481817	0.058363	6
C	0.065906	-0.120647	0.058363	6
C	0.463186	1.001253	0.058363	6
C	0.984906	2.344723	0.051173	6
O	2.333196	2.402214	0.109013	8
O	0.256556	3.319523	-0.015037	8
H	-2.201374	-2.451847	0.028893	1
H	-2.238814	-0.991537	-0.694827	1
H	-0.079164	-2.007777	-0.841107	1
H	-0.022224	-2.027367	0.921873	1
H	2.721656	1.507083	0.154163	1
Es	0.463268	1.001540	0.058354	99
Es	0.717947	1.642883	0.056262	99
Es	-2.055536	-2.088759	0.049165	99
Es	2.238731	2.364662	0.095880	99
Es	0.065836	-0.120890	0.058361	99
Es	-0.416202	-1.481680	0.058373	99
Es	-0.147274	-1.831610	0.631048	99
Es	0.209432	0.555991	0.335780	99
Es	0.256803	3.319284	-0.015020	99
Es	0.616775	0.314764	0.010251	99
Es	1.827673	2.354337	0.104161	99
Es	2.511267	1.907834	0.126543	99
Es	0.510829	2.943352	-0.234958	99
Es	-2.095237	-1.161462	-0.346242	99
Es	-0.154317	-0.767098	0.057437	99
Es	2.332557	2.401654	0.108363	99
Es	0.479468	2.977378	0.246847	99
Es	-1.944078	-1.389653	0.354561	99
Es	0.373788	3.628946	-0.016596	99
Es	0.985157	2.344589	0.051185	99
Es	-1.222104	-1.485595	0.067719	99
Es	-0.174319	-1.816822	-0.546008	99
Es	0.030692	0.550524	-0.177456	99
Es	0.048145	3.200080	-0.018968	99
Es	2.487375	2.686156	0.107292	99
Es	-1.867469	-1.494120	0.110159	99
38
Properties=species:S:1:pos:R:3:Z:I:1 energy=-358.6285886461672 field_type=dipole dipole="0.000000 0.000000 0.000000" charge=0
N	-1.867714	-1.493807	0.110763	7
C	-0.416114	-1.481817	0.058363	6
C	0.065906	-0.120647	0.058363	6
C	0.463186	1.001253	0.058363	6
C	0.984906	2.344723	0.051173	6
O	2.333196	2.402214	0.109013	8
O	0.256556	3.319523	-0.015037	8
H	-2.201374	-2.451847	0.028893	1
H	-2.238814	-0.991537	-0.694827	1
H	-0.079164	-2.007777	-0.841107	1
H	-0.022224	-2.027367	0.921873	1
H	2.721656	1.507083	0.154163	1
Es	0.256800	3.319290	-0.015019	99
Es	2.238421	2.364561	0.099699	99
Es	0.463263	1.001539	0.058368	99
Es	0.065839	-0.120892	0.058360	99
Es	0.051124	3.200562	-0.019326	99
Es	2.332840	2.401783	0.108695	99
Es	0.616658	0.314809	0.010026	99
Es	1.828107	2.354394	0.103312	99
Es	2.487547	2.686237	0.104884	99
Es	0.509632	2.944431	-0.236047	99
Es	2.510554	1.907615	0.125641	99
Es	-0.174076	-1.817233	-0.545962	99
Es	-0.154393	-0.766995	0.057540	99
Es	0.717909	1.642893	0.056339	99
Es	-1.942670	-1.391772	0.350547	99
Es	0.985157	2.344588	0.051191	99
Es	-0.416203	-1.481678	0.058366	99
Es	0.478901	2.975391	0.247126	99
Es	-2.055577	-2.088958	0.049350	99
Es	0.030241	0.550509	-0.176820	99
Es	-1.867464	-1.494115	0.110170	99
Es	-2.096586	-1.159603	-0.342558	99
Es	-1.221981	-1.485318	0.067838	99
Es	-0.147541	-1.831159	0.630909	99
Es	0.372698	3.629448	-0.015437	99
Es	0.210002	0.555956	0.335304	99
38
Properties=species:S:1:pos:R:3:Z:I:1 energy=-358.6285886461672 field_type=dipole dipole="0.000000 0.000000 0.000000" charge=0
N	-1.867714	-1.493807	0.110763	7
C	-0.416114	-1.481817	0.058363	6
C	0.065906	-0.120647	0.058363	6
C	0.463186	1.001253	0.058363	6
C	0.984906	2.344723	0.051173	6
O	2.333196	2.402214	0.109013	8
O	0.256556	3.319523	-0.015037	8
H	-2.201374	-2.451847	0.028893	1
H	-2.238814	-0.991537	-0.694827	1
H	-0.079164	-2.007777	-0.841107	1
H	-0.022224	-2.027367	0.921873	1
H	2.721656	1.507083	0.154163	1
Es	2.510451	1.907451	0.125963	99
Es	0.509960	2.940174	-0.234076	99
Es	-1.941103	-1.393943	0.346258	99
Es	1.828966	2.354275	0.105885	99
Es	-1.867464	-1.494082	0.110221	99
Es	-0.174129	-1.817426	-0.545801	99
Es	0.050167	3.201740	-0.018615	99
Es	0.065839	-0.120893	0.058362	99
Es	0.985157	2.344588	0.051184	99
Es	2.486855	2.686637	0.107718	99
Es	2.332959	2.401846	0.108971	99
Es	0.717905	1.642903	0.056299	99
Es	0.256735	3.319303	-0.015021	99
Es	-0.416202	-1.481678	0.058367	99
Es	0.037989	0.550402	-0.183808	99
Es	-0.154290	-0.766982	0.057289	99
Es	0.375337	3.628922	-0.016384	99
Es	0.201988	0.556816	0.334700	99
Es	-2.055717	-2.089020	0.049685	99
Es	0.463253	1.001545	0.058364	99
Es	-0.147669	-1.831029	0.630875	99
Es	0.616954	0.314044	0.017724	99
Es	0.477035	2.979026	0.245485	99
Es	-2.097849	-1.157367	-0.338776	99
Es	2.238158	2.364353	0.093657	99
Es	-1.222081	-1.485323	0.067968	99
38
Properties=species:S:1:pos:R:3:Z:I:1 energy=-358.6285886461672 field_type=dipole dipole="0.000000 0.000000 0.000000" charge=0
N	-1.867714	-1.493807	0.110763	7
C	-0.416114	-1.481817	0.058363	6
C	0.065906	-0.120647	0.058363	6
C	0.463186	1.001253	0.058363	6
C	0.984906	2.344723	0.051173	6
O	2.333196	2.402214	0.109013	8
O	0.256556	3.319523	-0.015037	8
H	-2.201374	-2.451847	0.028893	1
H	-2.238814	-0.991537	-0.694827	1
H	-0.079164	-2.007777	-0.841107	1
H	-0.022224	-2.027367	0.921873	1
H	2.721656	1.507083	0.154163	1
Es	2.332452	2.401608	0.108252	99
Es	1.829497	2.354524	0.103410	99
Es	0.030952	0.550444	-0.176721	99
Es	2.238770	2.364688	0.099128	99
Es	0.509706	2.939422	-0.234091	99
Es	0.463269	1.001540	0.058365	99
Es	0.065832	-0.120893	0.058360	99
Es	0.054039	3.202868	-0.019938	99
Es	-1.222027	-1.485217	0.068677	99
Es	-1.941031	-1.394418	0.345043	99
Es	-0.154209	-0.766921	0.057472	99
Es	0.256775	3.319301	-0.015021	99
Es	-0.174101	-1.817642	-0.545759	99
Es	0.474292	2.978270	0.246330	99
Es	-2.097674	-1.156897	-0.338324	99
Es	-0.416203	-1.481678	0.058361	99
Es	0.209060	0.556259	0.333608	99
Es	0.374448	3.629317	-0.015896	99
Es	0.717814	1.642926	0.056354	99
Es	-0.147888	-1.830901	0.630818	99
Es	-2.055785	-2.089106	0.049766	99
Es	-1.867461	-1.494109	0.110171	99
Es	0.616864	0.314577	0.011646	99
Es	2.509573	1.907111	0.125784	99
Es	0.985156	2.344588	0.051184	99
Es	2.487084	2.686621	0.105517	99
