43
Properties=species:S:1:pos:R:3:Z:I:1 energy=-323.94655823129426 field_type=dipole dipole="0.000000 0.000000 0.000000" charge=0
N	0.531170	-3.180593	0.320493	7
C	0.287630	-2.010113	1.147613	6
C	-0.426770	-0.971662	0.351793	6
C	0.024540	0.273347	0.161303	6
O	-0.683650	1.193938	-0.569017	8
C	-0.167950	2.452497	-0.742817	6
C	-0.827840	3.394757	-1.417847	6
H	1.036520	-3.875592	0.866743	1
H	1.148980	-2.920863	-0.447377	1
H	1.238020	-1.633632	1.541773	1
H	-0.334070	-2.295832	2.002593	1
H	-1.382100	-1.257903	-0.082217	1
H	0.961580	0.627007	0.567833	1
H	0.802609	2.628457	-0.301117	1
H	-1.801090	3.189948	-1.851377	1
H	-0.407580	4.386237	-1.548377	1
Es	0.448206	-2.665666	0.682839	99
Es	-0.827864	3.394804	-1.417877	99
Es	0.663506	0.525295	0.433900	99
Es	-0.167972	2.452157	-0.742712	99
Es	-0.348593	-0.266290	0.542120	99
Es	0.851105	-3.586260	0.659649	99
Es	-0.063936	-1.474165	0.744384	99
Es	0.919335	-3.012930	-0.128101	99
Es	0.531684	-3.180365	0.320706	99
Es	0.229336	-3.314018	0.195696	99
Es	-0.543621	4.060639	-1.504746	99
Es	-0.648103	3.051461	-0.813182	99
Es	-0.426766	-0.971721	0.351816	99
Es	-0.925031	1.230679	-0.428571	99
Es	-0.380659	0.880639	-0.283543	99
Es	-0.357183	2.853514	-1.372633	99
Es	-0.451574	1.660054	-0.602049	99
Es	-0.136708	-2.202564	1.727313	99
Es	-1.066636	-1.166897	0.062737	99
Es	0.287631	-2.010182	1.147497	99
Es	0.942889	-1.736019	1.420335	99
Es	-0.031294	-0.468442	-0.013631	99
Es	-1.480900	3.261570	-1.710261	99
Es	-0.683316	1.194083	-0.568788	99
Es	0.024456	0.273652	0.161144	99
Es	-0.676122	1.092244	-0.826685	99
Es	0.493935	2.558795	-0.436239	99
43
Properties=species:S:1:pos:R:3:Z:I:1 energy=-323.94655823129426 field_type=dipole dipole="0.000000 0.000000 0.000000" charge=0
N	0.531170	-3.180593	0.320493	7
C	0.287630	-2.010113	1.147613	6
C	-0.426770	-0.971662	0.351793	6
C	0.024540	0.273347	0.161303	6
O	-0.683650	1.193938	-0.569017	8
C	-0.167950	2.452497	-0.742817	6
C	-0.827840	3.394757	-1.417847	6
H	1.036520	-3.875592	0.866743	1
H	1.148980	-2.920863	-0.447377	1
H	1.238020	-1.633632	1.541773	1
H	-0.334070	-2.295832	2.002593	1
H	-1.382100	-1.257903	-0.082217	1
H	0.961580	0.627007	0.567833	1
H	0.802609	2.628457	-0.301117	1
H	-1.801090	3.189948	-1.851377	1
H	-0.407580	4.386237	-1.548377	1
Es	-0.906911	1.232681	-0.432055	99
Es	-0.134755	-2.202882	1.726958	99
Es	-0.648422	3.050333	-0.814717	99
Es	-0.451778	1.666045	-0.613787	99
Es	0.448173	-2.666061	0.682620	99
Es	0.531615	-3.180377	0.320687	99
Es	-0.827859	3.394802	-1.417887	99
Es	0.024448	0.273667	0.161144	99
Es	-0.692844	1.095212	-0.810825	99
Es	-0.358860	2.853462	-1.371540	99
Es	-0.032950	-0.467621	-0.013303	99
Es	0.493293	2.558944	-0.436586	99
Es	-1.479070	3.260423	-1.708949	99
Es	-0.542948	4.063453	-1.505573	99
Es	0.234835	-3.304046	0.193914	99
Es	-0.349113	-0.266597	0.541183	99
Es	-0.426771	-0.971718	0.351821	99
Es	0.918021	-3.012303	-0.126287	99
Es	-0.381933	0.869839	-0.283750	99
Es	0.663238	0.524673	0.433308	99
Es	-0.167975	2.452148	-0.742707	99
Es	0.941918	-1.737753	1.420496	99
Es	0.847072	-3.596688	0.661350	99
Es	0.287631	-2.010182	1.147498	99
Es	-0.682992	1.193942	-0.569134	99
Es	-1.064991	-1.165335	0.062936	99
Es	-0.064263	-1.473992	0.744300	99
43
Properties=species:S:1:pos:R:3:Z:I:1 energy=-323.94655823129426 field_type=dipole dipole="0.000000 0.000000 0.000000" charge=0
N	0.531170	-3.180593	0.320493	7
C	0.287630	-2.010113	1.147613	6
C	-0.426770	-0.971662	0.351793	6
C	0.024540	0.273347	0.161303	6
O	-0.683650	1.193938	-0.569017	8
C	-0.167950	2.452497	-0.742817	6
C	-0.827840	3.394757	-1.417847	6
H	1.036520	-3.875592	0.866743	1
H	1.148980	-2.920863	-0.447377	1
H	1.238020	-1.633632	1.541773	1
H	-0.334070	-2.295832	2.002593	1
H	-1.382100	-1.257903	-0.082217	1
H	0.961580	0.627007	0.567833	1
H	0.802609	2.628457	-0.301117	1
H	-1.801090	3.189948	-1.851377	1
H	-0.407580	4.386237	-1.548377	1
Es	0.843411	-3.603008	0.661281	99
Es	0.940817	-1.738949	1.420307	99
Es	-0.349989	-0.266244	0.540239	99
Es	-1.476586	3.259493	-1.709063	99
Es	-0.133531	-2.202643	1.726882	99
Es	-1.063212	-1.164428	0.062447	99
Es	0.531644	-3.180364	0.320697	99
Es	-0.064709	-1.473892	0.744413	99
Es	-0.426767	-0.971724	0.351817	99
Es	-0.543104	4.064918	-1.506502	99
Es	-0.392733	0.866036	-0.272642	99
Es	-0.649524	3.049466	-0.814960	99
Es	0.492132	2.559351	-0.435890	99
Es	0.287629	-2.010181	1.147499	99
Es	-0.359179	2.853747	-1.371204	99
Es	0.916140	-3.013168	-0.126262	99
Es	0.662430	0.524624	0.434028	99
Es	-0.683284	1.194127	-0.568644	99
Es	-0.167978	2.452148	-0.742703	99
Es	-0.827867	3.394811	-1.417877	99
Es	0.239818	-3.297824	0.194830	99
Es	0.024450	0.273668	0.161140	99
Es	-0.032979	-0.467875	-0.013065	99
Es	0.448693	-2.665617	0.682451	99
Es	-0.618749	1.126840	-0.753761	99
Es	-0.958332	1.196244	-0.507985	99
Es	-0.462831	1.674512	-0.606357	99
43
Properties=species:S:1:pos:R:3:Z:I:1 energy=-323.94655823129426 field_type=dipole dipole="0.000000 0.000000 0.000000" charge=0
N	0.531170	-3.180593	0.320493	7
C	0.287630	-2.010113	1.147613	6
C	-0.426770	-0.971662	0.351793	6
C	0.024540	0.273347	0.161303	6
O	-0.683650	1.193938	-0.569017	8
C	-0.167950	2.452497	-0.742817	6
C	-0.827840	3.394757	-1.417847	6
H	1.036520	-3.875592	0.866743	1
H	1.148980	-2.920863	-0.447377	1
H	1.238020	-1.633632	1.541773	1
H	-0.334070	-2.295832	2.002593	1
H	-1.382100	-1.257903	-0.082217	1
H	0.961580	0.627007	0.567833	1
H	0.802609	2.628457	-0.301117	1
H	-1.801090	3.189948	-1.851377	1
H	-0.407580	4.386237	-1.548377	1
Es	0.661450	0.524503	0.433660	99
Es	-0.426768	-0.971723	0.351819	99
Es	0.446883	-2.665216	0.682727	99
Es	-0.827866	3.394811	-1.417881	99
Es	0.287631	-2.010181	1.147499	99
Es	-0.358734	2.853071	-1.372664	99
Es	-0.132930	-2.202590	1.727815	99
Es	0.490955	2.558893	-0.436244	99
Es	0.248572	-3.292543	0.198791	99
Es	-0.467654	1.677568	-0.610398	99
Es	-0.032566	-0.468265	-0.014480	99
Es	-0.682565	1.194848	-0.567292	99
Es	0.531705	-3.180346	0.320707	99
Es	0.939185	-1.739933	1.419437	99
Es	0.914494	-3.013652	-0.129470	99
Es	-0.974244	1.151754	-0.611821	99
Es	-0.064636	-1.473902	0.744229	99
Es	0.024446	0.273669	0.161144	99
Es	-1.061128	-1.163687	0.063180	99
Es	0.838404	-3.608456	0.660356	99
Es	-0.351257	-0.265643	0.541238	99
Es	-1.474355	3.259581	-1.707631	99
Es	-0.397778	0.860159	-0.272590	99
Es	-0.544028	4.065970	-1.507427	99
Es	-0.592981	1.173575	-0.646997	99
Es	-0.650451	3.049661	-0.813880	99
Es	-0.167976	2.452146	-0.742708	99
43
Properties=species:S:1:pos:R:3:Z:I:1 energy=-323.94655823129426 field_type=dipole dipole="0.000000 0.000000 0.000000" charge=0
N	0.531170	-3.180593	0.320493	7
C	0.287630	-2.010113	1.147613	6
C	-0.426770	-0.971662	0.351793	6
C	0.024540	0.273347	0.161303	6
O	-0.683650	1.193938	-0.569017	8
C	-0.167950	2.452497	-0.742817	6
C	-0.827840	3.394757	-1.417847	6
H	1.036520	-3.875592	0.866743	1
H	1.148980	-2.920863	-0.447377	1
H	1.238020	-1.633632	1.541773	1
H	-0.334070	-2.295832	2.002593	1
H	-1.382100	-1.257903	-0.082217	1
H	0.961580	0.627007	0.567833	1
H	0.802609	2.628457	-0.301117	1
H	-1.801090	3.189948	-1.851377	1
H	-0.407580	4.386237	-1.548377	1
Es	0.444870	-2.665137	0.682613	99
Es	0.938315	-1.740648	1.419116	99
Es	-0.394744	0.853902	-0.282053	99
Es	-0.032871	-0.468407	-0.015341	99
Es	0.253977	-3.289699	0.199259	99
Es	-1.473420	3.259882	-1.706123	99
Es	0.661420	0.524027	0.432606	99
Es	0.490891	2.558466	-0.437205	99
Es	-0.650463	3.049962	-0.813481	99
Es	-0.351340	-0.265416	0.541900	99
Es	-0.957704	1.129870	-0.667460	99
Es	-0.064734	-1.473874	0.744025	99
Es	0.287630	-2.010180	1.147499	99
Es	-0.827866	3.394811	-1.417881	99
Es	-0.544517	4.066550	-1.507922	99
Es	-0.359181	2.852413	-1.373249	99
Es	0.531691	-3.180344	0.320719	99
Es	-1.060398	-1.162832	0.064348	99
Es	-0.679520	1.193988	-0.570179	99
Es	0.914693	-3.013239	-0.129274	99
Es	-0.132600	-2.202738	1.728124	99
Es	-0.464857	1.675538	-0.622914	99
Es	-0.426761	-0.971726	0.351808	99
Es	0.024450	0.273666	0.161136	99
Es	-0.167976	2.452146	-0.742706	99
Es	-0.618148	1.204771	-0.566289	99
Es	0.834974	-3.611682	0.660040	99
43
Properties=species:S:1:pos:R:3:Z:I:1 energy=-323.94655823129426 field_type=dipole dipole="0.000000 0.000000 0.000000" charge=0
N	0.531170	-3.180593	0.320493	7
C	0.287630	-2.010113	1.147613	6
C	-0.426770	-0.971662	0.351793	6
C	0.024540	0.273347	0.161303	6
O	-0.683650	1.193938	-0.569017	8
C	-0.167950	2.452497	-0.742817	6
C	-0.827840	3.394757	-1.417847	6
H	1.036520	-3.875592	0.866743	1
H	1.148980	-2.920863	-0.447377	1
H	1.238020	-1.633632	1.541773	1
H	-0.334070	-2.295832	2.002593	1
H	-1.382100	-1.257903	-0.082217	1
H	0.961580	0.627007	0.567833	1
H	0.802609	2.628457	-0.301117	1
H	-1.801090	3.189948	-1.851377	1
H	-0.407580	4.386237	-1.548377	1
Es	-0.620151	1.207825	-0.558745	99
Es	-0.426772	-0.971720	0.351827	99
Es	0.287630	-2.010181	1.147498	99
Es	0.490761	2.558533	-0.437342	99
Es	-0.952616	1.128666	-0.671743	99
Es	0.937832	-1.741198	1.418951	99
Es	-0.681440	1.194174	-0.569137	99
Es	-0.395288	0.852086	-0.284054	99
Es	0.661574	0.523706	0.432259	99
Es	0.832690	-3.614133	0.659459	99
Es	-0.359719	2.852738	-1.372898	99
Es	-1.472782	3.259534	-1.705606	99
Es	-1.059947	-1.162158	0.064579	99
Es	0.256176	-3.287444	0.198822	99
Es	0.914701	-3.013079	-0.127839	99
Es	-0.033578	-0.468013	-0.015122	99
Es	-0.131965	-2.202508	1.727985	99
Es	0.444815	-2.665314	0.682762	99
Es	-0.167975	2.452143	-0.742714	99
Es	-0.544688	4.067058	-1.508324	99
Es	0.024450	0.273665	0.161138	99
Es	0.531637	-3.180368	0.320669	99
Es	-0.650310	3.049501	-0.813934	99
Es	-0.064907	-1.473924	0.743931	99
Es	-0.827867	3.394810	-1.417877	99
Es	-0.465291	1.675406	-0.625099	99
Es	-0.351161	-0.265734	0.541673	99
43
Properties=species:S:1:pos:R:3:Z:I:1 energy=-323.94655823129426 field_type=dipole dipole="0.000000 0.000000 0.000000" charge=0
N	0.531170	-3.180593	0.320493	7
C	0.287630	-2.010113	1.147613	6
C	-0.426770	-0.971662	0.351793	6
C	0.024540	0.273347	0.161303	6
O	-0.683650	1.193938	-0.569017	8
C	-0.167950	2.452497	-0.742817	6
C	-0.827840	3.394757	-1.417847	6
H	1.036520	-3.875592	0.866743	1
H	1.148980	-2.920863	-0.447377	1
H	1.238020	-1.633632	1.541773	1
H	-0.334070	-2.295832	2.002593	1
H	-1.382100	-1.257903	-0.082217	1
H	0.961580	0.627007	0.567833	1
H	0.802609	2.628457	-0.301117	1
H	-1.801090	3.189948	-1.851377	1
H	-0.407580	4.386237	-1.548377	1
Es	-0.827868	3.394812	-1.417877	99
Es	-0.949206	1.129225	-0.672270	99
Es	-0.034036	-0.467735	-0.014869	99
Es	-0.360126	2.852749	-1.372513	99
Es	0.661715	0.523536	0.432171	99
Es	-1.059691	-1.161685	0.064721	99
Es	-0.396476	0.850268	-0.285558	99
Es	0.531686	-3.180346	0.320703	99
Es	-0.426768	-0.971725	0.351820	99
Es	0.830553	-3.616079	0.659174	99
Es	0.287630	-2.010183	1.147497	99
Es	0.445613	-2.665656	0.682660	99
Es	-1.472325	3.259290	-1.705176	99
Es	0.024451	0.273664	0.161137	99
Es	0.937589	-1.741690	1.419113	99
Es	-0.650165	3.049286	-0.814556	99
Es	-0.544872	4.067428	-1.508573	99
Es	-0.662100	1.201462	-0.559218	99
Es	-0.167978	2.452145	-0.742706	99
Es	-0.064978	-1.473824	0.743936	99
Es	-0.350940	-0.266031	0.541225	99
Es	0.914783	-3.013033	-0.126640	99
Es	-0.465841	1.675331	-0.626607	99
Es	-0.641137	1.201879	-0.565093	99
Es	-0.131613	-2.202297	1.727551	99
Es	0.490750	2.558679	-0.437367	99
Es	0.257159	-3.285400	0.198432	99
43
Properties=species:S:1:pos:R:3:Z:I:1 energy=-323.94655823129426 field_type=dipole dipole="0.000000 0.000000 0.000000" charge=0
N	0.531170	-3.180593	0.320493	7
C	0.287630	-2.010113	1.147613	6
C	-0.426770	-0.971662	0.351793	6
C	0.024540	0.273347	0.161303	6
O	-0.683650	1.193938	-0.569017	8
C	-0.167950	2.452497	-0.742817	6
C	-0.827840	3.394757	-1.417847	6
H	1.036520	-3.875592	0.866743	1
H	1.148980	-2.920863	-0.447377	1
H	1.238020	-1.633632	1.541773	1
H	-0.334070	-2.295832	2.002593	1
H	-1.382100	-1.257903	-0.082217	1
H	0.961580	0.627007	0.567833	1
H	0.802609	2.628457	-0.301117	1
H	-1.801090	3.189948	-1.851377	1
H	-0.407580	4.386237	-1.548377	1
Es	0.531654	-3.180344	0.320705	99
Es	0.257701	-3.283817	0.198823	99
Es	-0.167978	2.452146	-0.742707	99
Es	-0.426767	-0.971725	0.351819	99
Es	-0.650283	3.049558	-0.814881	99
Es	-0.466360	1.675328	-0.627691	99
Es	0.914010	-3.013597	-0.126137	99
Es	0.446805	-2.665791	0.682519	99
Es	-0.621331	1.208184	-0.557552	99
Es	-0.131073	-2.201852	1.727141	99
Es	-0.827866	3.394811	-1.417882	99
Es	-1.059348	-1.161262	0.064750	99
Es	-0.360497	2.852627	-1.371712	99
Es	-0.065074	-1.473733	0.743948	99
Es	0.937243	-1.742180	1.419101	99
Es	-0.680278	1.193797	-0.570368	99
Es	-1.471686	3.258888	-1.705151	99
Es	-0.948406	1.131492	-0.667630	99
Es	0.287631	-2.010179	1.147500	99
Es	-0.545054	4.067704	-1.508975	99
Es	-0.034322	-0.467704	-0.014541	99
Es	0.490683	2.558741	-0.437526	99
Es	0.024448	0.273666	0.161138	99
Es	0.829300	-3.617399	0.658898	99
Es	-0.398151	0.849416	-0.285424	99
Es	0.661705	0.523358	0.432109	99
Es	-0.350898	-0.266061	0.540841	99
