41
Properties=species:S:1:pos:R:3:Z:I:1 energy=-359.82181394010945 field_type=dipole dipole="0.000000 0.000000 0.000000" charge=0
N	-1.765816	-0.057987	0.309720	7
C	-0.402326	0.072513	0.052960	6
C	0.302274	-1.202887	-0.390770	6
O	-0.456076	-2.333447	0.042890	8
C	0.230734	1.246373	0.230600	6
C	1.666374	1.483363	-0.026090	6
O	2.173654	2.579273	0.183320	8
H	-2.283776	0.818503	0.274930	1
H	-2.200596	-0.778547	-0.272430	1
H	1.299364	-1.297897	0.045350	1
H	0.372424	-1.242707	-1.481890	1
H	-0.886866	-2.052947	0.873640	1
H	-0.302536	2.124423	0.580860	1
H	2.253165	0.641973	-0.423090	1
Es	-1.189828	0.017385	0.136042	99
Es	-2.014879	-0.469268	-0.048052	99
Es	-0.051151	0.814451	-0.163167	99
Es	-0.668208	-2.172451	0.487607	99
Es	0.980568	-1.243101	-0.096625	99
Es	1.934057	2.249804	-0.127316	99
Es	-1.765625	-0.057806	0.309219	99
Es	-1.687649	-0.161768	0.595366	99
Es	0.302080	-1.202979	-0.390669	99
Es	-0.455994	-2.333120	0.043094	99
Es	-0.687546	-2.357130	-0.158006	99
Es	-0.257352	-2.557699	0.099041	99
Es	2.173523	2.578970	0.183268	99
Es	-0.402510	0.072346	0.052970	99
Es	2.045961	2.111694	0.341471	99
Es	-0.140712	1.832863	0.461476	99
Es	-0.059854	-0.551340	-0.162977	99
Es	1.666332	1.483335	-0.026091	99
Es	2.059707	0.894250	-0.298661	99
Es	0.230777	1.246380	0.230586	99
Es	2.479971	2.590403	0.113657	99
Es	0.941041	1.337763	0.104318	99
Es	-2.062331	0.464699	0.276159	99
Es	1.964255	2.784342	0.293353	99
Es	0.063147	0.661487	0.447407	99
Es	-0.173497	-1.886064	-0.105508	99
Es	0.344889	-1.213047	-1.124981	99
41
Properties=species:S:1:pos:R:3:Z:I:1 energy=-359.82181394010945 field_type=dipole dipole="0.000000 0.000000 0.000000" charge=0
N	-1.765816	-0.057987	0.309720	7
C	-0.402326	0.072513	0.052960	6
C	0.302274	-1.202887	-0.390770	6
O	-0.456076	-2.333447	0.042890	8
C	0.230734	1.246373	0.230600	6
C	1.666374	1.483363	-0.026090	6
O	2.173654	2.579273	0.183320	8
H	-2.283776	0.818503	0.274930	1
H	-2.200596	-0.778547	-0.272430	1
H	1.299364	-1.297897	0.045350	1
H	0.372424	-1.242707	-1.481890	1
H	-0.886866	-2.052947	0.873640	1
H	-0.302536	2.124423	0.580860	1
H	2.253165	0.641973	-0.423090	1
Es	-1.183210	0.016336	0.141068	99
Es	1.666333	1.483331	-0.026091	99
Es	-0.402511	0.072342	0.052967	99
Es	-2.062482	0.462871	0.281474	99
Es	1.955965	2.754344	0.285782	99
Es	-0.140167	1.831233	0.461699	99
Es	2.059487	0.894983	-0.298465	99
Es	0.302081	-1.202978	-0.390666	99
Es	0.980406	-1.243098	-0.097707	99
Es	2.045078	2.111996	0.341772	99
Es	-1.681801	-0.141701	0.564501	99
Es	0.230783	1.246389	0.230586	99
Es	-1.765572	-0.057786	0.309158	99
Es	-0.263167	-2.527253	0.116568	99
Es	1.933051	2.250119	-0.124781	99
Es	-0.060057	-0.549536	-0.163226	99
Es	2.490542	2.619898	0.117987	99
Es	2.173537	2.578993	0.183262	99
Es	0.345203	-1.212399	-1.122511	99
Es	-0.168088	-1.883218	-0.106504	99
Es	0.060026	0.659150	0.447352	99
Es	-0.685982	-2.389567	-0.168608	99
Es	-0.049536	0.818595	-0.162327	99
Es	-2.026552	-0.488626	-0.027842	99
Es	0.942144	1.337982	0.103366	99
Es	-0.670264	-2.174904	0.481119	99
Es	-0.456077	-2.333094	0.043045	99
41
Properties=species:S:1:pos:R:3:Z:I:1 energy=-359.82181394010945 field_type=dipole dipole="0.000000 0.000000 0.000000" charge=0
N	-1.765816	-0.057987	0.309720	7
C	-0.402326	0.072513	0.052960	6
C	0.302274	-1.202887	-0.390770	6
O	-0.456076	-2.333447	0.042890	8
C	0.230734	1.246373	0.230600	6
C	1.666374	1.483363	-0.026090	6
O	2.173654	2.579273	0.183320	8
H	-2.283776	0.818503	0.274930	1
H	-2.200596	-0.778547	-0.272430	1
H	1.299364	-1.297897	0.045350	1
H	0.372424	-1.242707	-1.481890	1
H	-0.886866	-2.052947	0.873640	1
H	-0.302536	2.124423	0.580860	1
H	2.253165	0.641973	-0.423090	1
Es	-2.063495	0.462625	0.286916	99
Es	2.173582	2.578923	0.183232	99
Es	-0.402510	0.072343	0.052969	99
Es	-0.456111	-2.333115	0.043018	99
Es	-0.140332	1.831085	0.460982	99
Es	-0.675216	-2.173851	0.473092	99
Es	1.666332	1.483331	-0.026091	99
Es	2.059561	0.895257	-0.298151	99
Es	-2.030879	-0.497900	-0.012339	99
Es	-0.167335	-1.881302	-0.108656	99
Es	0.302080	-1.202980	-0.390666	99
Es	1.936929	2.249445	-0.124792	99
Es	2.047677	2.109905	0.341352	99
Es	-1.179384	0.015467	0.146010	99
Es	-0.662624	-2.458734	-0.177582	99
Es	0.942343	1.337951	0.102553	99
Es	-1.765390	-0.057767	0.309095	99
Es	-0.282638	-2.461876	0.134852	99
Es	-1.679936	-0.132048	0.538472	99
Es	0.345298	-1.212386	-1.119900	99
Es	0.980334	-1.243685	-0.099079	99
Es	0.230784	1.246387	0.230594	99
Es	0.058050	0.657755	0.447298	99
Es	-0.059978	-0.548111	-0.163210	99
Es	2.488336	2.659085	0.128642	99
Es	1.951576	2.718187	0.275149	99
Es	-0.047879	0.820407	-0.160778	99
41
Properties=species:S:1:pos:R:3:Z:I:1 energy=-359.82181394010945 field_type=dipole dipole="0.000000 0.000000 0.000000" charge=0
N	-1.765816	-0.057987	0.309720	7
C	-0.402326	0.072513	0.052960	6
C	0.302274	-1.202887	-0.390770	6
O	-0.456076	-2.333447	0.042890	8
C	0.230734	1.246373	0.230600	6
C	1.666374	1.483363	-0.026090	6
O	2.173654	2.579273	0.183320	8
H	-2.283776	0.818503	0.274930	1
H	-2.200596	-0.778547	-0.272430	1
H	1.299364	-1.297897	0.045350	1
H	0.372424	-1.242707	-1.481890	1
H	-0.886866	-2.052947	0.873640	1
H	-0.302536	2.124423	0.580860	1
H	2.253165	0.641973	-0.423090	1
Es	-0.456211	-2.332976	0.042995	99
Es	0.230784	1.246384	0.230601	99
Es	-2.064158	0.462536	0.290077	99
Es	-0.060306	-0.547583	-0.163782	99
Es	-0.164743	-1.881146	-0.107874	99
Es	2.173609	2.578903	0.183219	99
Es	1.666333	1.483331	-0.026095	99
Es	-0.140533	1.830923	0.460554	99
Es	2.059590	0.895332	-0.297866	99
Es	-1.765730	-0.057876	0.309407	99
Es	-1.680534	-0.126706	0.520388	99
Es	2.478401	2.693983	0.141235	99
Es	0.942780	1.337850	0.102873	99
Es	-0.630365	-2.509650	-0.171517	99
Es	2.049070	2.108882	0.341051	99
Es	-1.176157	0.014268	0.151233	99
Es	-0.402510	0.072343	0.052968	99
Es	-0.044549	0.823343	-0.159606	99
Es	0.981217	-1.243823	-0.099668	99
Es	1.938755	2.249341	-0.125880	99
Es	-2.032445	-0.502053	-0.003151	99
Es	0.054411	0.655170	0.445922	99
Es	-0.313666	-2.412523	0.134305	99
Es	1.958329	2.684453	0.263777	99
Es	0.302078	-1.202981	-0.390666	99
Es	0.344864	-1.212413	-1.117679	99
Es	-0.679142	-2.172910	0.466161	99
41
Properties=species:S:1:pos:R:3:Z:I:1 energy=-359.82181394010945 field_type=dipole dipole="0.000000 0.000000 0.000000" charge=0
N	-1.765816	-0.057987	0.309720	7
C	-0.402326	0.072513	0.052960	6
C	0.302274	-1.202887	-0.390770	6
O	-0.456076	-2.333447	0.042890	8
C	0.230734	1.246373	0.230600	6
C	1.666374	1.483363	-0.026090	6
O	2.173654	2.579273	0.183320	8
H	-2.283776	0.818503	0.274930	1
H	-2.200596	-0.778547	-0.272430	1
H	1.299364	-1.297897	0.045350	1
H	0.372424	-1.242707	-1.481890	1
H	-0.886866	-2.052947	0.873640	1
H	-0.302536	2.124423	0.580860	1
H	2.253165	0.641973	-0.423090	1
Es	-0.140661	1.830567	0.460059	99
Es	-2.033411	-0.504548	0.003272	99
Es	2.059632	0.895558	-0.297676	99
Es	-0.680538	-2.171483	0.459888	99
Es	2.470184	2.712694	0.147976	99
Es	-1.681223	-0.123199	0.507663	99
Es	-1.765751	-0.058054	0.309905	99
Es	-0.060404	-0.547114	-0.164026	99
Es	-0.402510	0.072345	0.052964	99
Es	1.937200	2.248890	-0.126072	99
Es	-0.045562	0.822278	-0.159512	99
Es	-2.064425	0.461862	0.292230	99
Es	0.230782	1.246385	0.230599	99
Es	-0.338178	-2.385060	0.128393	99
Es	0.981697	-1.243875	-0.100125	99
Es	1.666332	1.483331	-0.026091	99
Es	1.968170	2.665244	0.256307	99
Es	2.173634	2.578868	0.183203	99
Es	0.943050	1.337909	0.102884	99
Es	0.344509	-1.212246	-1.116306	99
Es	-0.608924	-2.537315	-0.162290	99
Es	0.302077	-1.202981	-0.390667	99
Es	0.055293	0.656349	0.446284	99
Es	-1.174242	0.013741	0.154707	99
Es	2.049022	2.109874	0.341835	99
Es	-0.161013	-1.882394	-0.105797	99
Es	-0.455568	-2.333225	0.043373	99
41
Properties=species:S:1:pos:R:3:Z:I:1 energy=-359.82181394010945 field_type=dipole dipole="0.000000 0.000000 0.000000" charge=0
N	-1.765816	-0.057987	0.309720	7
C	-0.402326	0.072513	0.052960	6
C	0.302274	-1.202887	-0.390770	6
O	-0.456076	-2.333447	0.042890	8
C	0.230734	1.246373	0.230600	6
C	1.666374	1.483363	-0.026090	6
O	2.173654	2.579273	0.183320	8
H	-2.283776	0.818503	0.274930	1
H	-2.200596	-0.778547	-0.272430	1
H	1.299364	-1.297897	0.045350	1
H	0.372424	-1.242707	-1.481890	1
H	-0.886866	-2.052947	0.873640	1
H	-0.302536	2.124423	0.580860	1
H	2.253165	0.641973	-0.423090	1
Es	-0.454846	-2.333419	0.043873	99
Es	2.464915	2.722614	0.153505	99
Es	-0.596037	-2.553296	-0.154012	99
Es	0.230784	1.246387	0.230595	99
Es	2.059562	0.895796	-0.297635	99
Es	-0.140609	1.830017	0.459931	99
Es	-0.679535	-2.170839	0.456082	99
Es	0.982254	-1.243954	-0.100559	99
Es	-1.765734	-0.057889	0.309436	99
Es	-0.356572	-2.368004	0.120745	99
Es	0.302077	-1.202981	-0.390663	99
Es	-2.034183	-0.506051	0.007849	99
Es	0.344096	-1.212119	-1.115033	99
Es	-0.044451	0.823510	-0.159289	99
Es	0.053882	0.655423	0.445811	99
Es	-0.157364	-1.884059	-0.103524	99
Es	1.975504	2.654446	0.251080	99
Es	-0.402511	0.072343	0.052971	99
Es	1.937564	2.251343	-0.126270	99
Es	-1.681815	-0.121121	0.499080	99
Es	2.173663	2.578830	0.183184	99
Es	-2.064418	0.461293	0.293884	99
Es	2.046703	2.108267	0.341853	99
Es	1.666333	1.483331	-0.026092	99
Es	-0.060590	-0.546755	-0.164395	99
Es	0.943373	1.338009	0.103225	99
Es	-1.172870	0.013278	0.157349	99
41
Properties=species:S:1:pos:R:3:Z:I:1 energy=-359.82181394010945 field_type=dipole dipole="0.000000 0.000000 0.000000" charge=0
N	-1.765816	-0.057987	0.309720	7
C	-0.402326	0.072513	0.052960	6
C	0.302274	-1.202887	-0.390770	6
O	-0.456076	-2.333447	0.042890	8
C	0.230734	1.246373	0.230600	6
C	1.666374	1.483363	-0.026090	6
O	2.173654	2.579273	0.183320	8
H	-2.283776	0.818503	0.274930	1
H	-2.200596	-0.778547	-0.272430	1
H	1.299364	-1.297897	0.045350	1
H	0.372424	-1.242707	-1.481890	1
H	-0.886866	-2.052947	0.873640	1
H	-0.302536	2.124423	0.580860	1
H	2.253165	0.641973	-0.423090	1
Es	1.984626	2.642592	0.245825	99
Es	-0.587538	-2.562489	-0.148441	99
Es	0.302074	-1.202985	-0.390671	99
Es	1.935418	2.250307	-0.126716	99
Es	-0.154780	-1.885182	-0.101236	99
Es	-0.677543	-2.171909	0.455779	99
Es	-0.402511	0.072342	0.052968	99
Es	-2.064721	0.460628	0.296209	99
Es	-1.171763	0.013004	0.159812	99
Es	0.343725	-1.212039	-1.113766	99
Es	-1.765544	-0.057770	0.309108	99
Es	-0.060716	-0.546261	-0.164555	99
Es	-0.041310	0.826556	-0.158372	99
Es	2.458221	2.733462	0.158144	99
Es	1.666332	1.483330	-0.026090	99
Es	2.046570	2.110177	0.342964	99
Es	2.173566	2.578921	0.183234	99
Es	0.230787	1.246384	0.230606	99
Es	2.059589	0.895996	-0.297603	99
Es	0.943624	1.338011	0.103514	99
Es	0.982742	-1.244126	-0.101097	99
Es	-0.140565	1.829533	0.460242	99
Es	-1.682432	-0.119518	0.491211	99
Es	-0.455547	-2.332653	0.043941	99
Es	-0.369038	-2.357502	0.112721	99
Es	0.050534	0.652659	0.444133	99
Es	-2.034628	-0.507068	0.011115	99
41
Properties=species:S:1:pos:R:3:Z:I:1 energy=-359.82181394010945 field_type=dipole dipole="0.000000 0.000000 0.000000" charge=0
N	-1.765816	-0.057987	0.309720	7
C	-0.402326	0.072513	0.052960	6
C	0.302274	-1.202887	-0.390770	6
O	-0.456076	-2.333447	0.042890	8
C	0.230734	1.246373	0.230600	6
C	1.666374	1.483363	-0.026090	6
O	2.173654	2.579273	0.183320	8
H	-2.283776	0.818503	0.274930	1
H	-2.200596	-0.778547	-0.272430	1
H	1.299364	-1.297897	0.045350	1
H	0.372424	-1.242707	-1.481890	1
H	-0.886866	-2.052947	0.873640	1
H	-0.302536	2.124423	0.580860	1
H	2.253165	0.641973	-0.423090	1
Es	0.045430	0.648503	0.441198	99
Es	-1.682323	-0.117857	0.483242	99
Es	1.666332	1.483331	-0.026095	99
Es	-1.171120	0.013376	0.161281	99
Es	-0.402509	0.072343	0.052967	99
Es	-0.456375	-2.332909	0.043002	99
Es	0.302088	-1.202973	-0.390677	99
Es	-0.371266	-2.354895	0.112275	99
Es	0.943780	1.337903	0.103810	99
Es	2.453889	2.739869	0.162470	99
Es	-2.034894	-0.507640	0.012795	99
Es	-0.036586	0.831131	-0.156331	99
Es	2.044403	2.109297	0.342901	99
Es	-1.765569	-0.058457	0.311004	99
Es	-0.587275	-2.564384	-0.146718	99
Es	1.990725	2.635354	0.241824	99
Es	2.059556	0.896175	-0.297642	99
Es	1.935803	2.252031	-0.126786	99
Es	2.173641	2.578866	0.183198	99
Es	-0.676113	-2.171972	0.453333	99
Es	0.343599	-1.211979	-1.113054	99
Es	0.230786	1.246385	0.230603	99
Es	-0.153486	-1.885681	-0.099458	99
Es	-0.060673	-0.546004	-0.164655	99
Es	-2.065086	0.459691	0.299067	99
Es	-0.140386	1.829151	0.460848	99
Es	0.982804	-1.244254	-0.101424	99
41
Properties=species:S:1:pos:R:3:Z:I:1 energy=-359.82181394010945 field_type=dipole dipole="0.000000 0.000000 0.000000" charge=0
N	-1.765816	-0.057987	0.309720	7
C	-0.402326	0.072513	0.052960	6
C	0.302274	-1.202887	-0.390770	6
O	-0.456076	-2.333447	0.042890	8
C	0.230734	1.246373	0.230600	6
C	1.666374	1.483363	-0.026090	6
O	2.173654	2.579273	0.183320	8
H	-2.283776	0.818503	0.274930	1
H	-2.200596	-0.778547	-0.272430	1
H	1.299364	-1.297897	0.045350	1
H	0.372424	-1.242707	-1.481890	1
H	-0.886866	-2.052947	0.873640	1
H	-0.302536	2.124423	0.580860	1
H	2.253165	0.641973	-0.423090	1
Es	-2.035423	-0.508165	0.015200	99
Es	-1.170663	0.013654	0.162006	99
Es	0.302080	-1.202979	-0.390665	99
Es	2.173598	2.578897	0.183219	99
Es	0.943890	1.337748	0.103915	99
Es	-0.456344	-2.332857	0.043058	99
Es	-0.060593	-0.545700	-0.164622	99
Es	0.044182	0.647624	0.440361	99
Es	-2.065180	0.458672	0.301171	99
Es	-1.682083	-0.117486	0.479780	99
Es	0.230784	1.246389	0.230590	99
Es	-0.676625	-2.170921	0.449557	99
Es	0.343342	-1.211840	-1.112469	99
Es	-0.376128	-2.350678	0.111060	99
Es	-0.140410	1.828955	0.460847	99
Es	2.059534	0.896472	-0.297721	99
Es	0.983009	-1.244366	-0.101831	99
Es	-0.402512	0.072343	0.052971	99
Es	1.934677	2.250749	-0.127030	99
Es	-0.583802	-2.568668	-0.143300	99
Es	2.044435	2.110946	0.343953	99
Es	-1.765662	-0.057808	0.309217	99
Es	2.448244	2.747392	0.165835	99
Es	-0.151650	-1.886799	-0.098166	99
Es	1.666332	1.483331	-0.026092	99
Es	-0.035419	0.832112	-0.155648	99
Es	1.997560	2.627384	0.237784	99
41
Properties=species:S:1:pos:R:3:Z:I:1 energy=-359.82181394010945 field_type=dipole dipole="0.000000 0.000000 0.000000" charge=0
N	-1.765816	-0.057987	0.309720	7
C	-0.402326	0.072513	0.052960	6
C	0.302274	-1.202887	-0.390770	6
O	-0.456076	-2.333447	0.042890	8
C	0.230734	1.246373	0.230600	6
C	1.666374	1.483363	-0.026090	6
O	2.173654	2.579273	0.183320	8
H	-2.283776	0.818503	0.274930	1
H	-2.200596	-0.778547	-0.272430	1
H	1.299364	-1.297897	0.045350	1
H	0.372424	-1.242707	-1.481890	1
H	-0.886866	-2.052947	0.873640	1
H	-0.302536	2.124423	0.580860	1
H	2.253165	0.641973	-0.423090	1
Es	-1.682477	-0.116790	0.476733	99
Es	-0.150627	-1.887237	-0.096660	99
Es	-0.674732	-2.172055	0.450469	99
Es	-0.456388	-2.332914	0.042946	99
Es	-2.065234	0.458490	0.301687	99
Es	2.003096	2.621230	0.234661	99
Es	-0.028187	0.837864	-0.151144	99
Es	-2.035430	-0.508407	0.015884	99
Es	0.944144	1.337792	0.104523	99
Es	-0.402510	0.072343	0.052967	99
Es	2.044787	2.113424	0.344542	99
Es	1.666331	1.483332	-0.026093	99
Es	0.036682	0.642216	0.434792	99
Es	-0.380416	-2.347420	0.107312	99
Es	0.230786	1.246386	0.230604	99
Es	2.173634	2.578873	0.183205	99
Es	0.302077	-1.202980	-0.390664	99
Es	0.343288	-1.211857	-1.111981	99
Es	2.059493	0.896558	-0.297753	99
Es	2.443685	2.753045	0.169236	99
Es	1.933394	2.248728	-0.127710	99
Es	-0.582445	-2.570311	-0.142066	99
Es	0.983263	-1.244255	-0.101727	99
Es	-1.765736	-0.057889	0.309440	99
Es	-0.140317	1.828491	0.461230	99
Es	-1.170198	0.013398	0.163532	99
Es	-0.060789	-0.545653	-0.164986	99
41
Properties=species:S:1:pos:R:3:Z:I:1 energy=-359.82181394010945 field_type=dipole dipole="0.000000 0.000000 0.000000" charge=0
N	-1.765816	-0.057987	0.309720	7
C	-0.402326	0.072513	0.052960	6
C	0.302274	-1.202887	-0.390770	6
O	-0.456076	-2.333447	0.042890	8
C	0.230734	1.246373	0.230600	6
C	1.666374	1.483363	-0.026090	6
O	2.173654	2.579273	0.183320	8
H	-2.283776	0.818503	0.274930	1
H	-2.200596	-0.778547	-0.272430	1
H	1.299364	-1.297897	0.045350	1
H	0.372424	-1.242707	-1.481890	1
H	-0.886866	-2.052947	0.873640	1
H	-0.302536	2.124423	0.580860	1
H	2.253165	0.641973	-0.423090	1
Es	2.007431	2.617067	0.232743	99
Es	-0.150401	-1.887273	-0.095982	99
Es	1.666330	1.483332	-0.026096	99
Es	0.944310	1.337822	0.104802	99
Es	-2.035719	-0.508385	0.015984	99
Es	-1.682353	-0.116591	0.474223	99
Es	-0.673382	-2.172372	0.449561	99
Es	-1.765578	-0.057779	0.309131	99
Es	0.343162	-1.211769	-1.111530	99
Es	2.043113	2.111258	0.343640	99
Es	2.059466	0.896624	-0.297823	99
Es	1.933500	2.251793	-0.127633	99
Es	0.230786	1.246385	0.230602	99
Es	-2.065358	0.457514	0.303967	99
Es	-0.402511	0.072343	0.052968	99
Es	-0.381756	-2.346411	0.106363	99
Es	-1.170028	0.013829	0.163828	99
Es	2.173717	2.578760	0.183150	99
Es	0.032913	0.639801	0.431475	99
Es	-0.024644	0.840552	-0.148305	99
Es	0.302079	-1.202980	-0.390665	99
Es	-0.582920	-2.570902	-0.141179	99
Es	-0.456194	-2.333034	0.042999	99
Es	-0.140309	1.828204	0.461523	99
Es	0.983304	-1.244387	-0.102015	99
Es	-0.060648	-0.545395	-0.164916	99
Es	2.440863	2.756392	0.172164	99
41
Properties=species:S:1:pos:R:3:Z:I:1 energy=-359.82181394010945 field_type=dipole dipole="0.000000 0.000000 0.000000" charge=0
N	-1.765816	-0.057987	0.309720	7
C	-0.402326	0.072513	0.052960	6
C	0.302274	-1.202887	-0.390770	6
O	-0.456076	-2.333447	0.042890	8
C	0.230734	1.246373	0.230600	6
C	1.666374	1.483363	-0.026090	6
O	2.173654	2.579273	0.183320	8
H	-2.283776	0.818503	0.274930	1
H	-2.200596	-0.778547	-0.272430	1
H	1.299364	-1.297897	0.045350	1
H	0.372424	-1.242707	-1.481890	1
H	-0.886866	-2.052947	0.873640	1
H	-0.302536	2.124423	0.580860	1
H	2.253165	0.641973	-0.423090	1
Es	1.666332	1.483331	-0.026091	99
Es	-0.140237	1.827852	0.461503	99
Es	1.931911	2.249314	-0.128060	99
Es	2.437426	2.760236	0.173702	99
Es	-0.581314	-2.572400	-0.140236	99
Es	-0.149501	-1.887794	-0.094759	99
Es	0.944330	1.338034	0.104858	99
Es	0.343082	-1.211654	-1.111331	99
Es	-0.022150	0.842326	-0.146180	99
Es	2.059437	0.896737	-0.297849	99
Es	-1.765255	-0.057746	0.308986	99
Es	-0.060704	-0.545562	-0.165027	99
Es	-0.673859	-2.172174	0.447811	99
Es	-1.682673	-0.115978	0.471163	99
Es	2.012024	2.612864	0.230248	99
Es	-1.169752	0.014002	0.164505	99
Es	-0.456204	-2.333016	0.042982	99
Es	0.983425	-1.244252	-0.101902	99
Es	-0.383802	-2.344663	0.105772	99
Es	2.173670	2.578733	0.183149	99
Es	-2.035851	-0.508727	0.017270	99
Es	0.302075	-1.202979	-0.390665	99
Es	0.230787	1.246382	0.230610	99
Es	2.043642	2.114083	0.345127	99
Es	-0.402511	0.072343	0.052969	99
Es	-2.065447	0.456972	0.305184	99
Es	0.030293	0.638137	0.429242	99
41
Properties=species:S:1:pos:R:3:Z:I:1 energy=-359.82181394010945 field_type=dipole dipole="0.000000 0.000000 0.000000" charge=0
N	-1.765816	-0.057987	0.309720	7
C	-0.402326	0.072513	0.052960	6
C	0.302274	-1.202887	-0.390770	6
O	-0.456076	-2.333447	0.042890	8
C	0.230734	1.246373	0.230600	6
C	1.666374	1.483363	-0.026090	6
O	2.173654	2.579273	0.183320	8
H	-2.283776	0.818503	0.274930	1
H	-2.200596	-0.778547	-0.272430	1
H	1.299364	-1.297897	0.045350	1
H	0.372424	-1.242707	-1.481890	1
H	-0.886866	-2.052947	0.873640	1
H	-0.302536	2.124423	0.580860	1
H	2.253165	0.641973	-0.423090	1
Es	-1.682322	-0.116165	0.471807	99
Es	-0.455880	-2.333142	0.043157	99
Es	2.059399	0.896856	-0.297886	99
Es	0.343049	-1.211630	-1.111180	99
Es	-0.384971	-2.343896	0.104945	99
Es	-0.402511	0.072343	0.052967	99
Es	2.173197	2.579010	0.183330	99
Es	-0.149314	-1.887845	-0.094406	99
Es	-1.765692	-0.057830	0.309278	99
Es	0.230785	1.246386	0.230601	99
Es	0.944509	1.337939	0.105386	99
Es	1.931637	2.249866	-0.128277	99
Es	1.666332	1.483332	-0.026095	99
Es	2.043034	2.114040	0.344930	99
Es	2.435073	2.762845	0.175918	99
Es	-2.035786	-0.508503	0.016273	99
Es	-0.017086	0.845818	-0.141553	99
Es	-0.581748	-2.572872	-0.139338	99
Es	0.024969	0.634997	0.423607	99
Es	-0.140130	1.827505	0.461995	99
Es	2.015805	2.609405	0.228388	99
Es	0.983390	-1.244385	-0.102073	99
Es	-2.065442	0.456624	0.305073	99
Es	-0.672790	-2.172299	0.447090	99
Es	-0.060670	-0.545276	-0.164935	99
Es	0.302079	-1.202979	-0.390666	99
Es	-1.169741	0.014255	0.164643	99
41
Properties=species:S:1:pos:R:3:Z:I:1 energy=-359.82181394010945 field_type=dipole dipole="0.000000 0.000000 0.000000" charge=0
N	-1.765816	-0.057987	0.309720	7
C	-0.402326	0.072513	0.052960	6
C	0.302274	-1.202887	-0.390770	6
O	-0.456076	-2.333447	0.042890	8
C	0.230734	1.246373	0.230600	6
C	1.666374	1.483363	-0.026090	6
O	2.173654	2.579273	0.183320	8
H	-2.283776	0.818503	0.274930	1
H	-2.200596	-0.778547	-0.272430	1
H	1.299364	-1.297897	0.045350	1
H	0.372424	-1.242707	-1.481890	1
H	-0.886866	-2.052947	0.873640	1
H	-0.302536	2.124423	0.580860	1
H	2.253165	0.641973	-0.423090	1
Es	-0.402504	0.072341	0.052965	99
Es	-0.456371	-2.332628	0.043197	99
Es	-2.065468	0.456393	0.306018	99
Es	0.018927	0.631778	0.416902	99
Es	-2.035949	-0.508604	0.016910	99
Es	-0.060654	-0.545340	-0.165066	99
Es	2.017424	2.606938	0.228040	99
Es	-1.169738	0.014322	0.164570	99
Es	-0.140048	1.827522	0.462111	99
Es	-1.765599	-0.057783	0.309144	99
Es	-0.586753	-2.569439	-0.141025	99
Es	0.230788	1.246384	0.230606	99
Es	1.929643	2.246911	-0.128472	99
Es	-0.149911	-1.887255	-0.094194	99
Es	2.045792	2.116679	0.344703	99
Es	0.944561	1.337799	0.105376	99
Es	0.302085	-1.202976	-0.390669	99
Es	0.343221	-1.211732	-1.111318	99
Es	-0.382225	-2.346826	0.104224	99
Es	-0.011225	0.849187	-0.135011	99
Es	0.983266	-1.244265	-0.101816	99
Es	1.666333	1.483330	-0.026094	99
Es	-0.669478	-2.173888	0.449304	99
Es	2.432291	2.765735	0.176887	99
Es	-1.682231	-0.115952	0.470401	99
Es	2.059374	0.896890	-0.297921	99
Es	2.173623	2.578878	0.183209	99
41
Properties=species:S:1:pos:R:3:Z:I:1 energy=-359.82181394010945 field_type=dipole dipole="0.000000 0.000000 0.000000" charge=0
N	-1.765816	-0.057987	0.309720	7
C	-0.402326	0.072513	0.052960	6
C	0.302274	-1.202887	-0.390770	6
O	-0.456076	-2.333447	0.042890	8
C	0.230734	1.246373	0.230600	6
C	1.666374	1.483363	-0.026090	6
O	2.173654	2.579273	0.183320	8
H	-2.283776	0.818503	0.274930	1
H	-2.200596	-0.778547	-0.272430	1
H	1.299364	-1.297897	0.045350	1
H	0.372424	-1.242707	-1.481890	1
H	-0.886866	-2.052947	0.873640	1
H	-0.302536	2.124423	0.580860	1
H	2.253165	0.641973	-0.423090	1
Es	-0.060602	-0.545314	-0.165060	99
Es	-1.682469	-0.115893	0.469986	99
Es	0.016766	0.630753	0.414323	99
Es	-0.148989	-1.887933	-0.093559	99
Es	-0.586030	-2.570382	-0.140276	99
Es	0.230787	1.246384	0.230605	99
Es	0.944643	1.337838	0.105690	99
Es	0.343186	-1.211642	-1.111304	99
Es	-2.065419	0.456165	0.306201	99
Es	-0.009154	0.850311	-0.132650	99
Es	2.022164	2.603495	0.224732	99
Es	0.302079	-1.202980	-0.390665	99
Es	2.059391	0.896876	-0.297971	99
Es	-1.765485	-0.057760	0.309071	99
Es	-0.402511	0.072343	0.052967	99
Es	2.429989	2.768160	0.178776	99
Es	-0.670151	-2.173238	0.447545	99
Es	-0.140053	1.827405	0.462077	99
Es	-0.383892	-2.345317	0.104366	99
Es	1.666332	1.483332	-0.026094	99
Es	0.983259	-1.244251	-0.101808	99
Es	1.930080	2.247213	-0.128499	99
Es	-1.169608	0.014330	0.165025	99
Es	-0.455663	-2.333203	0.043297	99
Es	-2.035982	-0.508572	0.016728	99
Es	2.173570	2.578908	0.183233	99
Es	2.042936	2.117370	0.346245	99
41
Properties=species:S:1:pos:R:3:Z:I:1 energy=-359.82181394010945 field_type=dipole dipole="0.000000 0.000000 0.000000" charge=0
N	-1.765816	-0.057987	0.309720	7
C	-0.402326	0.072513	0.052960	6
C	0.302274	-1.202887	-0.390770	6
O	-0.456076	-2.333447	0.042890	8
C	0.230734	1.246373	0.230600	6
C	1.666374	1.483363	-0.026090	6
O	2.173654	2.579273	0.183320	8
H	-2.283776	0.818503	0.274930	1
H	-2.200596	-0.778547	-0.272430	1
H	1.299364	-1.297897	0.045350	1
H	0.372424	-1.242707	-1.481890	1
H	-0.886866	-2.052947	0.873640	1
H	-0.302536	2.124423	0.580860	1
H	2.253165	0.641973	-0.423090	1
Es	0.944670	1.337697	0.105960	99
Es	2.429642	2.768493	0.179256	99
Es	0.983139	-1.244229	-0.101662	99
Es	-2.065215	0.456024	0.305369	99
Es	-0.149655	-1.887425	-0.093833	99
Es	0.230787	1.246383	0.230609	99
Es	-0.139989	1.827274	0.462394	99
Es	2.059331	0.897032	-0.298029	99
Es	1.666331	1.483331	-0.026094	99
Es	-0.668071	-2.174181	0.449186	99
Es	2.023303	2.602823	0.224728	99
Es	-1.169504	0.014626	0.165320	99
Es	-1.765690	-0.058231	0.310365	99
Es	-0.402511	0.072343	0.052968	99
Es	0.343244	-1.211612	-1.111631	99
Es	-0.003130	0.853438	-0.125289	99
Es	-0.588362	-2.568926	-0.140853	99
Es	-0.456377	-2.332765	0.042997	99
Es	-0.382295	-2.346743	0.103938	99
Es	-2.035936	-0.508243	0.015371	99
Es	2.173017	2.579027	0.183398	99
Es	0.010608	0.627854	0.406248	99
Es	-1.682504	-0.115830	0.470583	99
Es	-0.060563	-0.545545	-0.164918	99
Es	1.929037	2.246769	-0.128575	99
Es	2.043784	2.117992	0.345837	99
Es	0.302081	-1.202978	-0.390665	99
41
Properties=species:S:1:pos:R:3:Z:I:1 energy=-359.82181394010945 field_type=dipole dipole="0.000000 0.000000 0.000000" charge=0
N	-1.765816	-0.057987	0.309720	7
C	-0.402326	0.072513	0.052960	6
C	0.302274	-1.202887	-0.390770	6
O	-0.456076	-2.333447	0.042890	8
C	0.230734	1.246373	0.230600	6
C	1.666374	1.483363	-0.026090	6
O	2.173654	2.579273	0.183320	8
H	-2.283776	0.818503	0.274930	1
H	-2.200596	-0.778547	-0.272430	1
H	1.299364	-1.297897	0.045350	1
H	0.372424	-1.242707	-1.481890	1
H	-0.886866	-2.052947	0.873640	1
H	-0.302536	2.124423	0.580860	1
H	2.253165	0.641973	-0.423090	1
Es	0.230785	1.246387	0.230597	99
Es	2.428313	2.769761	0.180753	99
Es	2.059309	0.897072	-0.298002	99
Es	-0.667100	-2.175019	0.449991	99
Es	-0.588505	-2.568722	-0.141142	99
Es	1.929615	2.249671	-0.128995	99
Es	2.042624	2.115515	0.345588	99
Es	-0.402511	0.072343	0.052968	99
Es	2.024628	2.601270	0.224152	99
Es	-0.384942	-2.346818	0.100922	99
Es	0.302082	-1.202976	-0.390668	99
Es	0.343322	-1.211580	-1.111615	99
Es	0.944751	1.337628	0.106347	99
Es	2.173651	2.578853	0.183194	99
Es	1.666331	1.483332	-0.026094	99
Es	-1.682931	-0.116354	0.471871	99
Es	-1.169412	0.014428	0.165692	99
Es	-0.454574	-2.332171	0.044847	99
Es	-2.065143	0.455876	0.305614	99
Es	0.000231	0.855131	-0.120911	99
Es	-0.149654	-1.887345	-0.093339	99
Es	-0.139883	1.827060	0.462742	99
Es	-1.765388	-0.057756	0.309045	99
Es	-0.060548	-0.545373	-0.164881	99
Es	0.007091	0.626400	0.401160	99
Es	-2.036019	-0.508014	0.014692	99
Es	0.983049	-1.244197	-0.101549	99
41
Properties=species:S:1:pos:R:3:Z:I:1 energy=-359.82181394010945 field_type=dipole dipole="0.000000 0.000000 0.000000" charge=0
N	-1.765816	-0.057987	0.309720	7
C	-0.402326	0.072513	0.052960	6
C	0.302274	-1.202887	-0.390770	6
O	-0.456076	-2.333447	0.042890	8
C	0.230734	1.246373	0.230600	6
C	1.666374	1.483363	-0.026090	6
O	2.173654	2.579273	0.183320	8
H	-2.283776	0.818503	0.274930	1
H	-2.200596	-0.778547	-0.272430	1
H	1.299364	-1.297897	0.045350	1
H	0.372424	-1.242707	-1.481890	1
H	-0.886866	-2.052947	0.873640	1
H	-0.302536	2.124423	0.580860	1
H	2.253165	0.641973	-0.423090	1
Es	2.043272	2.118851	0.346505	99
Es	0.003704	0.625168	0.396330	99
Es	-0.139871	1.826963	0.462712	99
Es	0.230787	1.246383	0.230608	99
Es	2.425036	2.772964	0.182015	99
Es	-0.456403	-2.332775	0.042953	99
Es	-1.682114	-0.116671	0.473210	99
Es	0.343478	-1.211705	-1.111754	99
Es	2.173709	2.578580	0.183097	99
Es	2.028010	2.598398	0.222036	99
Es	-0.060542	-0.545391	-0.165032	99
Es	2.059310	0.897097	-0.298057	99
Es	0.302082	-1.202978	-0.390665	99
Es	-2.035829	-0.508089	0.014593	99
Es	-2.065268	0.455808	0.305445	99
Es	1.666331	1.483331	-0.026092	99
Es	-1.169920	0.014982	0.164330	99
Es	1.928793	2.246277	-0.128936	99
Es	0.003495	0.856436	-0.116028	99
Es	-0.592347	-2.565990	-0.142356	99
Es	-0.379109	-2.349573	0.105598	99
Es	-0.667235	-2.174320	0.448918	99
Es	-0.402511	0.072344	0.052967	99
Es	0.982928	-1.244118	-0.101399	99
Es	-1.765727	-0.057856	0.309362	99
Es	0.944797	1.337683	0.106322	99
Es	-0.149682	-1.887399	-0.093700	99
41
Properties=species:S:1:pos:R:3:Z:I:1 energy=-359.82181394010945 field_type=dipole dipole="0.000000 0.000000 0.000000" charge=0
N	-1.765816	-0.057987	0.309720	7
C	-0.402326	0.072513	0.052960	6
C	0.302274	-1.202887	-0.390770	6
O	-0.456076	-2.333447	0.042890	8
C	0.230734	1.246373	0.230600	6
C	1.666374	1.483363	-0.026090	6
O	2.173654	2.579273	0.183320	8
H	-2.283776	0.818503	0.274930	1
H	-2.200596	-0.778547	-0.272430	1
H	1.299364	-1.297897	0.045350	1
H	0.372424	-1.242707	-1.481890	1
H	-0.886866	-2.052947	0.873640	1
H	-0.302536	2.124423	0.580860	1
H	2.253165	0.641973	-0.423090	1
Es	1.928237	2.244547	-0.128648	99
Es	-0.060554	-0.545458	-0.164850	99
Es	2.044369	2.120300	0.346132	99
Es	-0.139829	1.826847	0.462543	99
Es	2.425145	2.772918	0.181708	99
Es	-2.036055	-0.508118	0.014937	99
Es	-2.065002	0.455329	0.305317	99
Es	-0.149686	-1.887275	-0.093304	99
Es	0.302079	-1.202979	-0.390666	99
Es	-0.589786	-2.568365	-0.140725	99
Es	0.982937	-1.244062	-0.101362	99
Es	2.173731	2.578789	0.183156	99
Es	0.230787	1.246383	0.230609	99
Es	-0.456394	-2.332871	0.042898	99
Es	-1.683077	-0.116342	0.472051	99
Es	0.343399	-1.211564	-1.111826	99
Es	-1.169466	0.014975	0.165569	99
Es	-0.402509	0.072343	0.052967	99
Es	-1.765235	-0.057759	0.309029	99
Es	-0.382315	-2.346781	0.103492	99
Es	1.666332	1.483331	-0.026093	99
Es	-0.666587	-2.174801	0.448959	99
Es	0.944766	1.337799	0.106190	99
Es	2.027394	2.598494	0.222350	99
Es	0.003407	0.624988	0.396034	99
Es	2.059251	0.897180	-0.298013	99
Es	0.003834	0.856552	-0.115473	99
41
Properties=species:S:1:pos:R:3:Z:I:1 energy=-359.82181394010945 field_type=dipole dipole="0.000000 0.000000 0.000000" charge=0
N	-1.765816	-0.057987	0.309720	7
C	-0.402326	0.072513	0.052960	6
C	0.302274	-1.202887	-0.390770	6
O	-0.456076	-2.333447	0.042890	8
C	0.230734	1.246373	0.230600	6
C	1.666374	1.483363	-0.026090	6
O	2.173654	2.579273	0.183320	8
H	-2.283776	0.818503	0.274930	1
H	-2.200596	-0.778547	-0.272430	1
H	1.299364	-1.297897	0.045350	1
H	0.372424	-1.242707	-1.481890	1
H	-0.886866	-2.052947	0.873640	1
H	-0.302536	2.124423	0.580860	1
H	2.253165	0.641973	-0.423090	1
Es	0.002820	0.856188	-0.117255	99
Es	0.983439	-1.243962	-0.101415	99
Es	0.302078	-1.202980	-0.390663	99
Es	-0.060837	-0.545464	-0.165306	99
Es	0.004522	0.625365	0.397381	99
Es	-0.402511	0.072343	0.052968	99
Es	-0.147435	-1.888915	-0.091510	99
Es	-2.036122	-0.508151	0.015158	99
Es	2.030008	2.597122	0.221799	99
Es	-0.433177	-2.335230	0.061192	99
Es	2.425214	2.772858	0.182393	99
Es	-0.664091	-2.175968	0.450866	99
Es	-0.139877	1.826708	0.462659	99
Es	0.343182	-1.211610	-1.111204	99
Es	2.173288	2.578993	0.183321	99
Es	-1.169019	0.014600	0.167068	99
Es	1.666331	1.483332	-0.026095	99
Es	-1.683556	-0.115964	0.471438	99
Es	-0.583006	-2.574597	-0.136193	99
Es	0.944820	1.337754	0.106396	99
Es	0.230786	1.246385	0.230609	99
Es	1.926838	2.246456	-0.128717	99
Es	-1.765539	-0.057764	0.309088	99
Es	2.059268	0.897275	-0.297976	99
Es	-0.417087	-2.335361	0.076901	99
Es	2.043556	2.119581	0.346003	99
Es	-2.064717	0.455405	0.304071	99
