39
Properties=species:S:1:pos:R:3:Z:I:1 energy=-338.7630997933982 field_type=dipole dipole="0.000000 0.000000 0.000000" charge=0
N	-1.431555	-1.493137	-0.974718	7
C	-0.381976	-1.570577	-0.230788	6
N	0.484304	-0.569077	0.151072	7
C	0.793794	0.455873	-0.860598	6
C	-0.102225	0.781603	0.286022	6
C	0.397655	1.584693	1.414022	6
O	0.438094	2.807303	1.351132	8
H	-1.854316	-2.424247	-1.065898	1
H	-0.076406	-2.540857	0.197922	1
H	0.355335	0.296263	-1.836848	1
H	1.824774	0.779643	-0.835038	1
H	-1.165056	0.856893	0.088652	1
H	0.717574	1.035623	2.315063	1
Es	0.654729	-0.261288	-0.354047	99
Es	0.483830	-0.568841	0.150655	99
Es	0.613255	1.201779	2.021057	99
Es	0.501768	0.353281	-1.510492	99
Es	0.544892	2.940521	1.611768	99
Es	-0.836651	-1.585595	-0.896840	99
Es	0.397643	1.584691	1.413992	99
Es	0.081505	-0.977337	-0.042561	99
Es	0.188530	2.367663	1.465622	99
Es	-0.171583	-2.231581	0.061644	99
Es	-1.431332	-1.493535	-0.974475	99
Es	0.742805	-0.653708	0.387537	99
Es	-0.799596	0.837925	0.170635	99
Es	0.336711	2.911883	1.075032	99
Es	0.659245	2.344829	1.284349	99
Es	0.152337	1.158848	0.852110	99
Es	0.328041	0.838713	-0.334897	99
Es	0.140032	-0.065129	0.303904	99
Es	-1.674276	-2.054402	-1.020757	99
Es	-1.568167	-1.190615	-1.134345	99
Es	0.793699	0.455728	-0.860357	99
Es	1.486523	0.676984	-0.842419	99
Es	-0.102062	0.781369	0.286000	99
Es	-1.156358	-1.484394	-0.432233	99
Es	-0.381862	-1.570473	-0.230745	99
Es	0.438085	2.807022	1.351150	99
39
Properties=species:S:1:pos:R:3:Z:I:1 energy=-338.7630997933982 field_type=dipole dipole="0.000000 0.000000 0.000000" charge=0
N	-1.431555	-1.493137	-0.974718	7
C	-0.381976	-1.570577	-0.230788	6
N	0.484304	-0.569077	0.151072	7
C	0.793794	0.455873	-0.860598	6
C	-0.102225	0.781603	0.286022	6
C	0.397655	1.584693	1.414022	6
O	0.438094	2.807303	1.351132	8
H	-1.854316	-2.424247	-1.065898	1
H	-0.076406	-2.540857	0.197922	1
H	0.355335	0.296263	-1.836848	1
H	1.824774	0.779643	-0.835038	1
H	-1.165056	0.856893	0.088652	1
H	0.717574	1.035623	2.315063	1
Es	0.502404	0.353646	-1.509337	99
Es	0.187742	2.367733	1.466349	99
Es	0.438066	2.806958	1.351112	99
Es	-0.839887	-1.584787	-0.891858	99
Es	-0.381866	-1.570472	-0.230737	99
Es	-0.102061	0.781358	0.285995	99
Es	0.325957	0.839296	-0.334436	99
Es	-0.798622	0.838445	0.169969	99
Es	0.152356	1.159981	0.851692	99
Es	0.545383	2.944695	1.610595	99
Es	0.742187	-0.650170	0.385184	99
Es	1.486005	0.677667	-0.842805	99
Es	-1.568172	-1.185816	-1.133510	99
Es	-0.171407	-2.232491	0.061219	99
Es	0.654504	-0.264386	-0.351637	99
Es	0.397644	1.584688	1.413992	99
Es	0.141346	-0.064317	0.303046	99
Es	-1.153006	-1.487338	-0.437529	99
Es	0.793696	0.455733	-0.860361	99
Es	0.081443	-0.981196	-0.042025	99
Es	0.613186	1.201832	2.020903	99
Es	0.337351	2.907702	1.074884	99
Es	-1.674206	-2.057075	-1.020383	99
Es	0.483832	-0.568841	0.150655	99
Es	0.659194	2.345016	1.284783	99
Es	-1.431327	-1.493524	-0.974475	99
39
Properties=species:S:1:pos:R:3:Z:I:1 energy=-338.7630997933982 field_type=dipole dipole="0.000000 0.000000 0.000000" charge=0
N	-1.431555	-1.493137	-0.974718	7
C	-0.381976	-1.570577	-0.230788	6
N	0.484304	-0.569077	0.151072	7
C	0.793794	0.455873	-0.860598	6
C	-0.102225	0.781603	0.286022	6
C	0.397655	1.584693	1.414022	6
O	0.438094	2.807303	1.351132	8
H	-1.854316	-2.424247	-1.065898	1
H	-0.076406	-2.540857	0.197922	1
H	0.355335	0.296263	-1.836848	1
H	1.824774	0.779643	-0.835038	1
H	-1.165056	0.856893	0.088652	1
H	0.717574	1.035623	2.315063	1
Es	0.397644	1.584687	1.413992	99
Es	0.546354	2.947115	1.609653	99
Es	-0.842842	-1.584446	-0.887871	99
Es	0.502789	0.354031	-1.508374	99
Es	0.438088	2.806975	1.351166	99
Es	0.152585	1.160569	0.851293	99
Es	-0.381866	-1.570472	-0.230735	99
Es	0.187379	2.367677	1.467201	99
Es	-1.673793	-2.058959	-1.019871	99
Es	0.741200	-0.647764	0.383229	99
Es	0.793694	0.455727	-0.860352	99
Es	1.485700	0.677966	-0.843116	99
Es	-1.150767	-1.488979	-0.441273	99
Es	0.613071	1.201815	2.020851	99
Es	0.336996	2.905259	1.075679	99
Es	0.654409	-0.266270	-0.349899	99
Es	-1.431321	-1.493522	-0.974476	99
Es	0.483827	-0.568836	0.150649	99
Es	-0.797959	0.838931	0.169790	99
Es	0.324559	0.839777	-0.334085	99
Es	0.141750	-0.063871	0.302642	99
Es	-0.102061	0.781380	0.285989	99
Es	0.659157	2.345181	1.283837	99
Es	-1.567629	-1.182634	-1.133590	99
Es	0.082144	-0.983859	-0.041949	99
Es	-0.171369	-2.233141	0.060904	99
39
Properties=species:S:1:pos:R:3:Z:I:1 energy=-338.7630997933982 field_type=dipole dipole="0.000000 0.000000 0.000000" charge=0
N	-1.431555	-1.493137	-0.974718	7
C	-0.381976	-1.570577	-0.230788	6
N	0.484304	-0.569077	0.151072	7
C	0.793794	0.455873	-0.860598	6
C	-0.102225	0.781603	0.286022	6
C	0.397655	1.584693	1.414022	6
O	0.438094	2.807303	1.351132	8
H	-1.854316	-2.424247	-1.065898	1
H	-0.076406	-2.540857	0.197922	1
H	0.355335	0.296263	-1.836848	1
H	1.824774	0.779643	-0.835038	1
H	-1.165056	0.856893	0.088652	1
H	0.717574	1.035623	2.315063	1
Es	0.186633	2.367476	1.467521	99
Es	-1.567606	-1.180045	-1.133054	99
Es	0.740779	-0.645801	0.381765	99
Es	-0.797356	0.839083	0.169681	99
Es	0.397643	1.584686	1.413993	99
Es	0.612981	1.201812	2.020854	99
Es	-1.673121	-2.060349	-1.019518	99
Es	0.793701	0.455727	-0.860363	99
Es	-0.102058	0.781365	0.285994	99
Es	1.485482	0.678441	-0.843182	99
Es	0.503151	0.354298	-1.507618	99
Es	0.547018	2.949216	1.608868	99
Es	0.438105	2.806952	1.351212	99
Es	0.653918	-0.269179	-0.348702	99
Es	0.658643	2.345544	1.284115	99
Es	-1.148741	-1.490574	-0.444432	99
Es	0.483822	-0.568833	0.150645	99
Es	0.323344	0.839710	-0.334076	99
Es	0.337786	2.903078	1.075663	99
Es	-1.431320	-1.493520	-0.974471	99
Es	-0.171483	-2.233578	0.060802	99
Es	0.082293	-0.985761	-0.040912	99
Es	-0.381858	-1.570472	-0.230739	99
Es	0.152711	1.161199	0.851005	99
Es	0.142458	-0.062066	0.301546	99
Es	-0.845185	-1.584074	-0.885310	99
39
Properties=species:S:1:pos:R:3:Z:I:1 energy=-338.7630997933982 field_type=dipole dipole="0.000000 0.000000 0.000000" charge=0
N	-1.431555	-1.493137	-0.974718	7
C	-0.381976	-1.570577	-0.230788	6
N	0.484304	-0.569077	0.151072	7
C	0.793794	0.455873	-0.860598	6
C	-0.102225	0.781603	0.286022	6
C	0.397655	1.584693	1.414022	6
O	0.438094	2.807303	1.351132	8
H	-1.854316	-2.424247	-1.065898	1
H	-0.076406	-2.540857	0.197922	1
H	0.355335	0.296263	-1.836848	1
H	1.824774	0.779643	-0.835038	1
H	-1.165056	0.856893	0.088652	1
H	0.717574	1.035623	2.315063	1
Es	0.322636	0.839679	-0.334038	99
Es	0.653144	-0.271602	-0.347738	99
Es	0.658244	2.345467	1.285475	99
Es	-0.381866	-1.570472	-0.230736	99
Es	-1.147923	-1.491839	-0.447296	99
Es	-0.102063	0.781372	0.285992	99
Es	0.186613	2.367765	1.467942	99
Es	-1.673016	-2.061318	-1.019254	99
Es	0.143012	-0.060616	0.300515	99
Es	0.483821	-0.568840	0.150645	99
Es	-0.171504	-2.233921	0.060622	99
Es	0.338272	2.899788	1.074702	99
Es	-0.846605	-1.583826	-0.882683	99
Es	-0.796741	0.839184	0.169531	99
Es	1.485256	0.678745	-0.843295	99
Es	0.438106	2.806921	1.351234	99
Es	0.082408	-0.987118	-0.039972	99
Es	0.503313	0.354609	-1.507035	99
Es	0.793698	0.455726	-0.860352	99
Es	0.152758	1.161681	0.850868	99
Es	-1.566862	-1.178016	-1.132713	99
Es	0.397646	1.584685	1.413993	99
Es	0.740756	-0.644343	0.380609	99
Es	0.547066	2.952369	1.607896	99
Es	-1.431331	-1.493539	-0.974477	99
Es	0.612902	1.201799	2.020851	99
39
Properties=species:S:1:pos:R:3:Z:I:1 energy=-338.7630997933982 field_type=dipole dipole="0.000000 0.000000 0.000000" charge=0
N	-1.431555	-1.493137	-0.974718	7
C	-0.381976	-1.570577	-0.230788	6
N	0.484304	-0.569077	0.151072	7
C	0.793794	0.455873	-0.860598	6
C	-0.102225	0.781603	0.286022	6
C	0.397655	1.584693	1.414022	6
O	0.438094	2.807303	1.351132	8
H	-1.854316	-2.424247	-1.065898	1
H	-0.076406	-2.540857	0.197922	1
H	0.355335	0.296263	-1.836848	1
H	1.824774	0.779643	-0.835038	1
H	-1.165056	0.856893	0.088652	1
H	0.717574	1.035623	2.315063	1
Es	-1.672570	-2.062081	-1.018970	99
Es	-0.171633	-2.234188	0.060651	99
Es	-0.381863	-1.570471	-0.230735	99
Es	0.503494	0.354841	-1.506552	99
Es	0.397635	1.584686	1.413996	99
Es	0.658661	2.347174	1.284856	99
Es	-1.566397	-1.176095	-1.132554	99
Es	0.612791	1.201847	2.020898	99
Es	-0.796355	0.839448	0.169163	99
Es	-0.848590	-1.583948	-0.880744	99
Es	0.152827	1.162049	0.850726	99
Es	-1.431324	-1.493540	-0.974475	99
Es	0.793697	0.455731	-0.860360	99
Es	0.740138	-0.643150	0.380165	99
Es	0.322161	0.839387	-0.333810	99
Es	-0.102060	0.781365	0.285994	99
Es	1.485104	0.678989	-0.843322	99
Es	-1.146546	-1.492893	-0.449487	99
Es	0.438088	2.806941	1.351170	99
Es	0.546803	2.954127	1.607881	99
Es	0.653148	-0.272258	-0.347234	99
Es	0.187183	2.365983	1.467792	99
Es	0.082859	-0.988197	-0.039786	99
Es	0.142855	-0.060655	0.300028	99
Es	0.337810	2.898101	1.075346	99
Es	0.483824	-0.568854	0.150651	99
39
Properties=species:S:1:pos:R:3:Z:I:1 energy=-338.7630997933982 field_type=dipole dipole="0.000000 0.000000 0.000000" charge=0
N	-1.431555	-1.493137	-0.974718	7
C	-0.381976	-1.570577	-0.230788	6
N	0.484304	-0.569077	0.151072	7
C	0.793794	0.455873	-0.860598	6
C	-0.102225	0.781603	0.286022	6
C	0.397655	1.584693	1.414022	6
O	0.438094	2.807303	1.351132	8
H	-1.854316	-2.424247	-1.065898	1
H	-0.076406	-2.540857	0.197922	1
H	0.355335	0.296263	-1.836848	1
H	1.824774	0.779643	-0.835038	1
H	-1.165056	0.856893	0.088652	1
H	0.717574	1.035623	2.315063	1
Es	0.503576	0.354934	-1.506156	99
Es	0.152939	1.162419	0.850538	99
Es	-1.672398	-2.062550	-1.018459	99
Es	1.485027	0.679405	-0.843362	99
Es	0.321454	0.839160	-0.333872	99
Es	0.740094	-0.642361	0.379157	99
Es	0.612790	1.201798	2.020856	99
Es	0.483826	-0.568833	0.150648	99
Es	-0.171667	-2.234399	0.060505	99
Es	-0.795993	0.839441	0.169231	99
Es	0.793696	0.455727	-0.860355	99
Es	-0.381861	-1.570471	-0.230730	99
Es	0.083233	-0.989086	-0.039549	99
Es	0.338102	2.896386	1.075277	99
Es	0.397640	1.584685	1.413995	99
Es	-0.850183	-1.584260	-0.879267	99
Es	-0.102063	0.781361	0.285992	99
Es	-1.145491	-1.493521	-0.451088	99
Es	0.652607	-0.272964	-0.346594	99
Es	0.438070	2.806943	1.351121	99
Es	0.657998	2.346830	1.285082	99
Es	0.186741	2.366493	1.468463	99
Es	-1.565876	-1.174703	-1.132655	99
Es	-1.431319	-1.493521	-0.974471	99
Es	0.143123	-0.060284	0.299900	99
Es	0.547677	2.955708	1.607079	99
39
Properties=species:S:1:pos:R:3:Z:I:1 energy=-338.7630997933982 field_type=dipole dipole="0.000000 0.000000 0.000000" charge=0
N	-1.431555	-1.493137	-0.974718	7
C	-0.381976	-1.570577	-0.230788	6
N	0.484304	-0.569077	0.151072	7
C	0.793794	0.455873	-0.860598	6
C	-0.102225	0.781603	0.286022	6
C	0.397655	1.584693	1.414022	6
O	0.438094	2.807303	1.351132	8
H	-1.854316	-2.424247	-1.065898	1
H	-0.076406	-2.540857	0.197922	1
H	0.355335	0.296263	-1.836848	1
H	1.824774	0.779643	-0.835038	1
H	-1.165056	0.856893	0.088652	1
H	0.717574	1.035623	2.315063	1
Es	-0.171785	-2.234527	0.060610	99
Es	-0.102059	0.781362	0.285992	99
Es	-0.851471	-1.584333	-0.877663	99
Es	0.483824	-0.568837	0.150646	99
Es	0.338070	2.894631	1.075303	99
Es	-1.144950	-1.494372	-0.452728	99
Es	-0.795795	0.839655	0.168855	99
Es	0.397642	1.584685	1.413993	99
Es	-0.381865	-1.570471	-0.230734	99
Es	0.083449	-0.989800	-0.039175	99
Es	0.657697	2.347260	1.285115	99
Es	0.143247	-0.059386	0.299183	99
Es	0.503679	0.355057	-1.505870	99
Es	0.153023	1.162693	0.850425	99
Es	0.548163	2.957360	1.606225	99
Es	-1.431307	-1.493497	-0.974468	99
Es	0.186666	2.366162	1.469019	99
Es	0.739485	-0.641525	0.378772	99
Es	0.793694	0.455724	-0.860352	99
Es	0.321240	0.838904	-0.333587	99
Es	0.612711	1.201801	2.020909	99
Es	-1.565258	-1.173342	-1.132555	99
Es	0.438103	2.806953	1.351206	99
Es	-1.672062	-2.063048	-1.018452	99
Es	1.484946	0.679516	-0.843386	99
Es	0.652654	-0.274287	-0.345996	99
39
Properties=species:S:1:pos:R:3:Z:I:1 energy=-338.7630997933982 field_type=dipole dipole="0.000000 0.000000 0.000000" charge=0
N	-1.431555	-1.493137	-0.974718	7
C	-0.381976	-1.570577	-0.230788	6
N	0.484304	-0.569077	0.151072	7
C	0.793794	0.455873	-0.860598	6
C	-0.102225	0.781603	0.286022	6
C	0.397655	1.584693	1.414022	6
O	0.438094	2.807303	1.351132	8
H	-1.854316	-2.424247	-1.065898	1
H	-0.076406	-2.540857	0.197922	1
H	0.355335	0.296263	-1.836848	1
H	1.824774	0.779643	-0.835038	1
H	-1.165056	0.856893	0.088652	1
H	0.717574	1.035623	2.315063	1
Es	-1.431314	-1.493528	-0.974481	99
Es	0.548075	2.958871	1.605810	99
Es	-0.171996	-2.234651	0.060713	99
Es	0.503936	0.355115	-1.505495	99
Es	0.652002	-0.275159	-0.345813	99
Es	-0.852845	-1.584215	-0.877708	99
Es	-1.565555	-1.172434	-1.131631	99
Es	-1.671769	-2.063594	-1.017994	99
Es	1.484882	0.679689	-0.843339	99
Es	0.338583	2.892994	1.074650	99
Es	0.320770	0.838901	-0.333905	99
Es	-0.795495	0.839677	0.168975	99
Es	-0.102062	0.781379	0.285993	99
Es	-0.381864	-1.570471	-0.230733	99
Es	0.397639	1.584686	1.413994	99
Es	0.739606	-0.640926	0.378108	99
Es	0.793695	0.455727	-0.860354	99
Es	0.153045	1.162876	0.850338	99
Es	-1.143233	-1.494827	-0.454161	99
Es	0.143424	-0.058908	0.298893	99
Es	0.438092	2.806955	1.351177	99
Es	0.483815	-0.568831	0.150636	99
Es	0.657413	2.346502	1.286098	99
Es	0.186611	2.367043	1.469021	99
Es	0.612760	1.201799	2.020934	99
Es	0.083527	-0.990333	-0.038439	99
39
Properties=species:S:1:pos:R:3:Z:I:1 energy=-338.7630997933982 field_type=dipole dipole="0.000000 0.000000 0.000000" charge=0
N	-1.431555	-1.493137	-0.974718	7
C	-0.381976	-1.570577	-0.230788	6
N	0.484304	-0.569077	0.151072	7
C	0.793794	0.455873	-0.860598	6
C	-0.102225	0.781603	0.286022	6
C	0.397655	1.584693	1.414022	6
O	0.438094	2.807303	1.351132	8
H	-1.854316	-2.424247	-1.065898	1
H	-0.076406	-2.540857	0.197922	1
H	0.355335	0.296263	-1.836848	1
H	1.824774	0.779643	-0.835038	1
H	-1.165056	0.856893	0.088652	1
H	0.717574	1.035623	2.315063	1
Es	0.143191	-0.058073	0.297983	99
Es	0.397642	1.584685	1.413993	99
Es	0.657265	2.346973	1.285501	99
Es	-1.143334	-1.495447	-0.455483	99
Es	-0.102058	0.781365	0.285993	99
Es	1.484821	0.679990	-0.843302	99
Es	0.186358	2.366563	1.469041	99
Es	-0.381863	-1.570471	-0.230734	99
Es	0.652700	-0.276362	-0.345306	99
Es	0.438114	2.806929	1.351240	99
Es	-1.431298	-1.493483	-0.974465	99
Es	0.793695	0.455726	-0.860354	99
Es	-1.671808	-2.063826	-1.017936	99
Es	0.612694	1.201758	2.020926	99
Es	-1.564448	-1.171348	-1.131984	99
Es	0.738683	-0.640289	0.378341	99
Es	0.320447	0.838324	-0.333668	99
Es	-0.853741	-1.584461	-0.875910	99
Es	-0.795290	0.839793	0.168827	99
Es	0.548501	2.958361	1.605865	99
Es	0.083877	-0.990835	-0.038444	99
Es	0.338597	2.893556	1.075096	99
Es	0.483817	-0.568837	0.150637	99
Es	0.503890	0.355309	-1.505311	99
Es	0.153307	1.163226	0.850144	99
Es	-0.172018	-2.234792	0.060597	99
39
Properties=species:S:1:pos:R:3:Z:I:1 energy=-338.7630997933982 field_type=dipole dipole="0.000000 0.000000 0.000000" charge=0
N	-1.431555	-1.493137	-0.974718	7
C	-0.381976	-1.570577	-0.230788	6
N	0.484304	-0.569077	0.151072	7
C	0.793794	0.455873	-0.860598	6
C	-0.102225	0.781603	0.286022	6
C	0.397655	1.584693	1.414022	6
O	0.438094	2.807303	1.351132	8
H	-1.854316	-2.424247	-1.065898	1
H	-0.076406	-2.540857	0.197922	1
H	0.355335	0.296263	-1.836848	1
H	1.824774	0.779643	-0.835038	1
H	-1.165056	0.856893	0.088652	1
H	0.717574	1.035623	2.315063	1
Es	0.483814	-0.568835	0.150645	99
Es	-0.381865	-1.570471	-0.230734	99
Es	-0.102059	0.781368	0.285994	99
Es	0.397643	1.584685	1.413992	99
Es	-0.854276	-1.584501	-0.874950	99
Es	0.438057	2.806941	1.351092	99
Es	-1.143283	-1.495896	-0.456314	99
Es	0.548697	2.958042	1.606104	99
Es	-1.431313	-1.493508	-0.974470	99
Es	0.319991	0.838305	-0.333801	99
Es	0.657237	2.347242	1.285011	99
Es	0.186638	2.366247	1.469020	99
Es	-0.795031	0.839652	0.168949	99
Es	-1.671570	-2.064065	-1.017853	99
Es	0.738644	-0.639849	0.377736	99
Es	-0.172023	-2.234816	0.060558	99
Es	0.503915	0.355341	-1.505003	99
Es	0.612660	1.201731	2.020965	99
Es	0.652231	-0.277079	-0.344821	99
Es	0.793693	0.455725	-0.860351	99
Es	1.484818	0.680176	-0.843404	99
Es	0.153273	1.163507	0.850075	99
Es	0.083810	-0.991240	-0.038054	99
Es	-1.564113	-1.170699	-1.132043	99
Es	0.338326	2.893909	1.075444	99
Es	0.143826	-0.057572	0.297498	99
39
Properties=species:S:1:pos:R:3:Z:I:1 energy=-338.7630997933982 field_type=dipole dipole="0.000000 0.000000 0.000000" charge=0
N	-1.431555	-1.493137	-0.974718	7
C	-0.381976	-1.570577	-0.230788	6
N	0.484304	-0.569077	0.151072	7
C	0.793794	0.455873	-0.860598	6
C	-0.102225	0.781603	0.286022	6
C	0.397655	1.584693	1.414022	6
O	0.438094	2.807303	1.351132	8
H	-1.854316	-2.424247	-1.065898	1
H	-0.076406	-2.540857	0.197922	1
H	0.355335	0.296263	-1.836848	1
H	1.824774	0.779643	-0.835038	1
H	-1.165056	0.856893	0.088652	1
H	0.717574	1.035623	2.315063	1
Es	0.397639	1.584686	1.413994	99
Es	0.548896	2.956990	1.606598	99
Es	-1.563497	-1.170054	-1.131912	99
Es	1.484780	0.680167	-0.843314	99
Es	-1.431314	-1.493506	-0.974470	99
Es	0.738862	-0.639509	0.377068	99
Es	0.438067	2.806948	1.351114	99
Es	0.153370	1.163602	0.849992	99
Es	-1.142951	-1.496240	-0.457304	99
Es	0.319920	0.838161	-0.333750	99
Es	0.651532	-0.277285	-0.344654	99
Es	-0.794885	0.839848	0.168698	99
Es	-0.855024	-1.584497	-0.874084	99
Es	-0.381864	-1.570470	-0.230729	99
Es	-0.102056	0.781363	0.285991	99
Es	0.656945	2.347385	1.285080	99
Es	0.612603	1.201776	2.020949	99
Es	0.084190	-0.991668	-0.037837	99
Es	0.483807	-0.568831	0.150633	99
Es	0.793693	0.455726	-0.860352	99
Es	-0.172105	-2.234942	0.060535	99
Es	0.143483	-0.057481	0.297871	99
Es	0.338909	2.894930	1.075244	99
Es	0.504117	0.355420	-1.504810	99
Es	-1.671608	-2.064312	-1.017847	99
Es	0.186233	2.366132	1.468584	99
39
Properties=species:S:1:pos:R:3:Z:I:1 energy=-338.7630997933982 field_type=dipole dipole="0.000000 0.000000 0.000000" charge=0
N	-1.431555	-1.493137	-0.974718	7
C	-0.381976	-1.570577	-0.230788	6
N	0.484304	-0.569077	0.151072	7
C	0.793794	0.455873	-0.860598	6
C	-0.102225	0.781603	0.286022	6
C	0.397655	1.584693	1.414022	6
O	0.438094	2.807303	1.351132	8
H	-1.854316	-2.424247	-1.065898	1
H	-0.076406	-2.540857	0.197922	1
H	0.355335	0.296263	-1.836848	1
H	1.824774	0.779643	-0.835038	1
H	-1.165056	0.856893	0.088652	1
H	0.717574	1.035623	2.315063	1
Es	0.657393	2.347901	1.286404	99
Es	-1.142490	-1.496418	-0.458166	99
Es	-0.794827	0.839937	0.168570	99
Es	0.438163	2.806882	1.351374	99
Es	0.153426	1.163816	0.849864	99
Es	0.187075	2.365764	1.469709	99
Es	0.793693	0.455723	-0.860348	99
Es	-1.563248	-1.169499	-1.132052	99
Es	0.338425	2.889474	1.074828	99
Es	-0.102057	0.781362	0.285992	99
Es	0.738515	-0.639131	0.377277	99
Es	0.084157	-0.991857	-0.037546	99
Es	0.504023	0.355513	-1.504724	99
Es	0.397640	1.584685	1.413994	99
Es	-1.671477	-2.064499	-1.017391	99
Es	-0.172200	-2.234995	0.060646	99
Es	0.143573	-0.057199	0.297256	99
Es	-0.381864	-1.570471	-0.230734	99
Es	-0.855702	-1.584683	-0.873542	99
Es	0.548017	2.962365	1.604225	99
Es	1.484707	0.680381	-0.843338	99
Es	0.483820	-0.568842	0.150646	99
Es	0.612622	1.201688	2.020990	99
Es	0.651865	-0.277872	-0.344640	99
Es	0.319811	0.837829	-0.333535	99
Es	-1.431320	-1.493518	-0.974475	99
39
Properties=species:S:1:pos:R:3:Z:I:1 energy=-338.7630997933982 field_type=dipole dipole="0.000000 0.000000 0.000000" charge=0
N	-1.431555	-1.493137	-0.974718	7
C	-0.381976	-1.570577	-0.230788	6
N	0.484304	-0.569077	0.151072	7
C	0.793794	0.455873	-0.860598	6
C	-0.102225	0.781603	0.286022	6
C	0.397655	1.584693	1.414022	6
O	0.438094	2.807303	1.351132	8
H	-1.854316	-2.424247	-1.065898	1
H	-0.076406	-2.540857	0.197922	1
H	0.355335	0.296263	-1.836848	1
H	1.824774	0.779643	-0.835038	1
H	-1.165056	0.856893	0.088652	1
H	0.717574	1.035623	2.315063	1
Es	-1.431321	-1.493516	-0.974475	99
Es	-1.671253	-2.064536	-1.016990	99
Es	0.338150	2.881634	1.075278	99
Es	0.397643	1.584685	1.413993	99
Es	-0.794651	0.840035	0.168499	99
Es	0.657790	2.347695	1.287665	99
Es	-0.172297	-2.235035	0.060749	99
Es	-0.381862	-1.570471	-0.230733	99
Es	0.483804	-0.568833	0.150632	99
Es	0.084130	-0.991912	-0.037301	99
Es	-1.562751	-1.169010	-1.132856	99
Es	1.484641	0.680574	-0.843281	99
Es	-1.142618	-1.496532	-0.458769	99
Es	-0.856137	-1.585001	-0.872590	99
Es	0.187471	2.366220	1.471241	99
Es	0.319917	0.837667	-0.333647	99
Es	0.612678	1.201586	2.021017	99
Es	0.504014	0.355590	-1.504675	99
Es	-0.102055	0.781358	0.285991	99
Es	0.438103	2.806954	1.351206	99
Es	0.153338	1.163918	0.849791	99
Es	0.738993	-0.638935	0.377664	99
Es	0.793694	0.455723	-0.860350	99
Es	0.143341	-0.057320	0.296833	99
Es	0.651478	-0.278087	-0.344652	99
Es	0.547500	2.969887	1.601048	99
39
Properties=species:S:1:pos:R:3:Z:I:1 energy=-338.7630997933982 field_type=dipole dipole="0.000000 0.000000 0.000000" charge=0
N	-1.431555	-1.493137	-0.974718	7
C	-0.381976	-1.570577	-0.230788	6
N	0.484304	-0.569077	0.151072	7
C	0.793794	0.455873	-0.860598	6
C	-0.102225	0.781603	0.286022	6
C	0.397655	1.584693	1.414022	6
O	0.438094	2.807303	1.351132	8
H	-1.854316	-2.424247	-1.065898	1
H	-0.076406	-2.540857	0.197922	1
H	0.355335	0.296263	-1.836848	1
H	1.824774	0.779643	-0.835038	1
H	-1.165056	0.856893	0.088652	1
H	0.717574	1.035623	2.315063	1
Es	-1.141887	-1.497218	-0.459629	99
Es	-1.431326	-1.493507	-0.974474	99
Es	0.438101	2.806958	1.351214	99
Es	0.738816	-0.638526	0.376974	99
Es	0.483816	-0.568838	0.150632	99
Es	0.186855	2.365799	1.470275	99
Es	-0.794624	0.839841	0.168784	99
Es	0.504092	0.355592	-1.504558	99
Es	-0.172340	-2.235101	0.060715	99
Es	0.612605	1.201681	2.021011	99
Es	0.397641	1.584685	1.413993	99
Es	-1.671180	-2.064748	-1.017282	99
Es	0.548662	2.965151	1.603214	99
Es	0.338623	2.886465	1.075094	99
Es	-0.856956	-1.584914	-0.872378	99
Es	0.143883	-0.056589	0.296414	99
Es	-0.102056	0.781360	0.285993	99
Es	0.084310	-0.992361	-0.037075	99
Es	0.153429	1.163924	0.849771	99
Es	-1.562667	-1.168215	-1.131828	99
Es	-0.381864	-1.570471	-0.230733	99
Es	1.484612	0.680614	-0.843275	99
Es	0.319513	0.837807	-0.333787	99
Es	0.651138	-0.278800	-0.344060	99
Es	0.656854	2.348021	1.286631	99
Es	0.793692	0.455725	-0.860349	99
39
Properties=species:S:1:pos:R:3:Z:I:1 energy=-338.7630997933982 field_type=dipole dipole="0.000000 0.000000 0.000000" charge=0
N	-1.431555	-1.493137	-0.974718	7
C	-0.381976	-1.570577	-0.230788	6
N	0.484304	-0.569077	0.151072	7
C	0.793794	0.455873	-0.860598	6
C	-0.102225	0.781603	0.286022	6
C	0.397655	1.584693	1.414022	6
O	0.438094	2.807303	1.351132	8
H	-1.854316	-2.424247	-1.065898	1
H	-0.076406	-2.540857	0.197922	1
H	0.355335	0.296263	-1.836848	1
H	1.824774	0.779643	-0.835038	1
H	-1.165056	0.856893	0.088652	1
H	0.717574	1.035623	2.315063	1
Es	0.657137	2.347517	1.287672	99
Es	0.084055	-0.992093	-0.037219	99
Es	0.738779	-0.638638	0.377713	99
Es	0.793692	0.455720	-0.860342	99
Es	-1.141424	-1.497120	-0.459753	99
Es	0.337873	2.879658	1.075428	99
Es	-0.172353	-2.235156	0.060724	99
Es	0.153488	1.164114	0.849703	99
Es	0.438091	2.806975	1.351174	99
Es	-1.670592	-2.064989	-1.016884	99
Es	0.483808	-0.568828	0.150634	99
Es	-0.857679	-1.584889	-0.872190	99
Es	0.651409	-0.278742	-0.344332	99
Es	0.187524	2.366573	1.472088	99
Es	-0.102055	0.781359	0.285990	99
Es	1.484547	0.680840	-0.843217	99
Es	0.548427	2.971680	1.600002	99
Es	0.397639	1.584685	1.413994	99
Es	0.612598	1.201505	2.021034	99
Es	-1.562894	-1.168080	-1.132246	99
Es	0.319696	0.837465	-0.333780	99
Es	0.143654	-0.056999	0.296152	99
Es	-1.431321	-1.493513	-0.974473	99
Es	0.504061	0.355761	-1.504437	99
Es	-0.381866	-1.570470	-0.230730	99
Es	-0.794556	0.840002	0.168579	99
39
Properties=species:S:1:pos:R:3:Z:I:1 energy=-338.7630997933982 field_type=dipole dipole="0.000000 0.000000 0.000000" charge=0
N	-1.431555	-1.493137	-0.974718	7
C	-0.381976	-1.570577	-0.230788	6
N	0.484304	-0.569077	0.151072	7
C	0.793794	0.455873	-0.860598	6
C	-0.102225	0.781603	0.286022	6
C	0.397655	1.584693	1.414022	6
O	0.438094	2.807303	1.351132	8
H	-1.854316	-2.424247	-1.065898	1
H	-0.076406	-2.540857	0.197922	1
H	0.355335	0.296263	-1.836848	1
H	1.824774	0.779643	-0.835038	1
H	-1.165056	0.856893	0.088652	1
H	0.717574	1.035623	2.315063	1
Es	0.549117	2.965003	1.602996	99
Es	-0.102056	0.781355	0.285994	99
Es	0.793695	0.455730	-0.860357	99
Es	1.484616	0.680896	-0.843257	99
Es	0.186653	2.366827	1.470589	99
Es	-0.172392	-2.235198	0.060670	99
Es	0.504101	0.355753	-1.504250	99
Es	-1.562308	-1.167818	-1.132089	99
Es	-1.141372	-1.497223	-0.460385	99
Es	0.656636	2.347097	1.286850	99
Es	-1.670895	-2.065120	-1.016847	99
Es	-1.431323	-1.493525	-0.974474	99
Es	-0.381868	-1.570472	-0.230734	99
Es	0.612567	1.201681	2.021020	99
Es	0.143640	-0.055847	0.295833	99
Es	0.438082	2.806955	1.351153	99
Es	0.153557	1.164213	0.849635	99
Es	0.651538	-0.279880	-0.343684	99
Es	0.084529	-0.992704	-0.036983	99
Es	-0.857991	-1.584916	-0.871650	99
Es	0.397643	1.584684	1.413993	99
Es	0.483796	-0.568831	0.150623	99
Es	0.738029	-0.638101	0.377010	99
Es	-0.794339	0.840074	0.168443	99
Es	0.338726	2.886511	1.074775	99
Es	0.319359	0.837192	-0.333587	99
39
Properties=species:S:1:pos:R:3:Z:I:1 energy=-338.7630997933982 field_type=dipole dipole="0.000000 0.000000 0.000000" charge=0
N	-1.431555	-1.493137	-0.974718	7
C	-0.381976	-1.570577	-0.230788	6
N	0.484304	-0.569077	0.151072	7
C	0.793794	0.455873	-0.860598	6
C	-0.102225	0.781603	0.286022	6
C	0.397655	1.584693	1.414022	6
O	0.438094	2.807303	1.351132	8
H	-1.854316	-2.424247	-1.065898	1
H	-0.076406	-2.540857	0.197922	1
H	0.355335	0.296263	-1.836848	1
H	1.824774	0.779643	-0.835038	1
H	-1.165056	0.856893	0.088652	1
H	0.717574	1.035623	2.315063	1
Es	-0.794328	0.840177	0.168437	99
Es	0.143520	-0.056229	0.295851	99
Es	-1.431319	-1.493506	-0.974474	99
Es	-0.172418	-2.235228	0.060676	99
Es	0.397641	1.584685	1.413993	99
Es	-1.671071	-2.065128	-1.016908	99
Es	0.738081	-0.637901	0.376911	99
Es	0.651358	-0.279591	-0.343729	99
Es	0.483806	-0.568832	0.150631	99
Es	0.656593	2.348180	1.286000	99
Es	-0.858171	-1.585084	-0.870649	99
Es	0.319009	0.837109	-0.333408	99
Es	-1.561493	-1.167391	-1.132358	99
Es	0.793692	0.455724	-0.860349	99
Es	1.484602	0.680911	-0.843242	99
Es	-0.102056	0.781358	0.285990	99
Es	0.504228	0.355774	-1.504077	99
Es	0.084702	-0.992928	-0.037145	99
Es	0.549176	2.964277	1.603502	99
Es	0.438105	2.806951	1.351227	99
Es	0.338295	2.887372	1.075243	99
Es	0.612579	1.201648	2.021018	99
Es	-0.381866	-1.570470	-0.230730	99
Es	-1.141772	-1.497514	-0.461000	99
Es	0.187009	2.365620	1.470363	99
Es	0.153839	1.164352	0.849511	99
39
Properties=species:S:1:pos:R:3:Z:I:1 energy=-338.7630997933982 field_type=dipole dipole="0.000000 0.000000 0.000000" charge=0
N	-1.431555	-1.493137	-0.974718	7
C	-0.381976	-1.570577	-0.230788	6
N	0.484304	-0.569077	0.151072	7
C	0.793794	0.455873	-0.860598	6
C	-0.102225	0.781603	0.286022	6
C	0.397655	1.584693	1.414022	6
O	0.438094	2.807303	1.351132	8
H	-1.854316	-2.424247	-1.065898	1
H	-0.076406	-2.540857	0.197922	1
H	0.355335	0.296263	-1.836848	1
H	1.824774	0.779643	-0.835038	1
H	-1.165056	0.856893	0.088652	1
H	0.717574	1.035623	2.315063	1
Es	0.187574	2.365272	1.471479	99
Es	0.504070	0.355784	-1.504204	99
Es	0.143737	-0.056096	0.295426	99
Es	0.153634	1.164457	0.849569	99
Es	0.084599	-0.992885	-0.036797	99
Es	-1.141324	-1.497823	-0.461404	99
Es	0.547887	2.970180	1.600760	99
Es	0.793693	0.455725	-0.860351	99
Es	0.738442	-0.637845	0.377030	99
Es	0.657377	2.348729	1.287697	99
Es	-0.858734	-1.585217	-0.870576	99
Es	0.438077	2.806944	1.351140	99
Es	0.483801	-0.568827	0.150628	99
Es	0.319101	0.837057	-0.333651	99
Es	-0.172467	-2.235245	0.060713	99
Es	-0.102057	0.781362	0.285991	99
Es	-0.381866	-1.570470	-0.230732	99
Es	-1.670668	-2.065176	-1.016698	99
Es	-1.431312	-1.493506	-0.974469	99
Es	0.338307	2.881267	1.075174	99
Es	1.484597	0.681081	-0.843218	99
Es	-1.561742	-1.166862	-1.132271	99
Es	0.650984	-0.279857	-0.343547	99
Es	-0.794183	0.840028	0.168532	99
Es	0.397641	1.584685	1.413994	99
Es	0.612572	1.201573	2.021072	99
39
Properties=species:S:1:pos:R:3:Z:I:1 energy=-338.7630997933982 field_type=dipole dipole="0.000000 0.000000 0.000000" charge=0
N	-1.431555	-1.493137	-0.974718	7
C	-0.381976	-1.570577	-0.230788	6
N	0.484304	-0.569077	0.151072	7
C	0.793794	0.455873	-0.860598	6
C	-0.102225	0.781603	0.286022	6
C	0.397655	1.584693	1.414022	6
O	0.438094	2.807303	1.351132	8
H	-1.854316	-2.424247	-1.065898	1
H	-0.076406	-2.540857	0.197922	1
H	0.355335	0.296263	-1.836848	1
H	1.824774	0.779643	-0.835038	1
H	-1.165056	0.856893	0.088652	1
H	0.717574	1.035623	2.315063	1
Es	0.397641	1.584685	1.413994	99
Es	0.084405	-0.992653	-0.036975	99
Es	0.612609	1.201519	2.021068	99
Es	-1.670533	-2.065336	-1.016301	99
Es	-0.859236	-1.585336	-0.869822	99
Es	-1.141358	-1.497711	-0.461855	99
Es	0.793693	0.455723	-0.860347	99
Es	0.738734	-0.637895	0.377717	99
Es	0.548033	2.973898	1.599070	99
Es	0.650993	-0.279942	-0.343599	99
Es	-0.172532	-2.235284	0.060768	99
Es	-0.794270	0.840118	0.168484	99
Es	0.657248	2.348463	1.287880	99
Es	0.338054	2.877410	1.075890	99
Es	1.484487	0.681072	-0.843218	99
Es	0.438075	2.806971	1.351136	99
Es	0.187769	2.365661	1.472247	99
Es	-1.431325	-1.493520	-0.974475	99
Es	0.483809	-0.568835	0.150634	99
Es	0.143562	-0.056224	0.295042	99
Es	0.319283	0.837156	-0.333671	99
Es	-0.381859	-1.570470	-0.230736	99
Es	0.504151	0.355834	-1.504120	99
Es	-0.102057	0.781362	0.285991	99
Es	-1.561186	-1.166701	-1.133001	99
Es	0.153552	1.164370	0.849484	99
