42
Properties=species:S:1:pos:R:3:Z:I:1 energy=-339.9629047022658 field_type=dipole dipole="0.000000 0.000000 0.000000" charge=0
N	-1.420490	-1.047130	-1.148621	7
C	-1.058010	0.244580	-0.906721	6
N	-1.206290	1.169640	-1.793531	7
C	-0.420810	0.590150	0.425689	6
C	1.032700	0.244430	0.429329	6
C	1.736730	-0.159970	1.696369	6
O	1.320460	-1.129530	0.721229	8
H	-0.942400	-1.739500	-0.575581	1
H	-1.471360	-1.324230	-2.120031	1
H	-1.659940	0.779740	-2.621271	1
H	-0.959500	0.053700	1.217339	1
H	-0.542280	1.663060	0.614439	1
H	1.597780	0.738650	-0.349631	1
H	1.195730	-0.125990	2.632909	1
H	2.797690	0.042400	1.778089	1
Es	-0.493289	1.304682	0.548331	99
Es	1.516640	-0.843161	1.156125	99
Es	-1.058025	0.244414	-0.906634	99
Es	-1.419992	-1.047002	-1.148747	99
Es	1.388898	0.274704	1.138210	99
Es	1.032730	0.244125	0.429428	99
Es	-1.206398	1.169142	-1.793541	99
Es	-1.120874	1.526839	-1.764080	99
Es	1.566215	-1.228002	0.561614	99
Es	1.174374	-0.643365	0.510530	99
Es	-0.891417	0.749129	-1.557742	99
Es	1.320470	-1.129289	0.721314	99
Es	-1.685826	-0.958530	-1.030473	99
Es	1.417572	0.567901	-0.102314	99
Es	-1.191054	-0.516543	-1.070194	99
Es	-1.477626	0.911416	-2.297893	99
Es	-0.777266	0.219045	0.957509	99
Es	-1.407414	0.854126	-1.346841	99
Es	1.736629	-0.160176	1.696132	99
Es	1.054427	-1.259862	0.816874	99
Es	-0.420804	0.590104	0.425631	99
Es	0.293401	0.407945	0.422903	99
Es	-1.433476	-1.200893	-1.729630	99
Es	-0.740432	0.397827	-0.237907	99
Es	-1.124259	-1.450288	-0.817007	99
Es	2.458686	-0.032548	1.752963	99
Es	1.368053	-0.146349	2.333617	99
42
Properties=species:S:1:pos:R:3:Z:I:1 energy=-339.9629047022658 field_type=dipole dipole="0.000000 0.000000 0.000000" charge=0
N	-1.420490	-1.047130	-1.148621	7
C	-1.058010	0.244580	-0.906721	6
N	-1.206290	1.169640	-1.793531	7
C	-0.420810	0.590150	0.425689	6
C	1.032700	0.244430	0.429329	6
C	1.736730	-0.159970	1.696369	6
O	1.320460	-1.129530	0.721229	8
H	-0.942400	-1.739500	-0.575581	1
H	-1.471360	-1.324230	-2.120031	1
H	-1.659940	0.779740	-2.621271	1
H	-0.959500	0.053700	1.217339	1
H	-0.542280	1.663060	0.614439	1
H	1.597780	0.738650	-0.349631	1
H	1.195730	-0.125990	2.632909	1
H	2.797690	0.042400	1.778089	1
Es	-0.492065	1.305157	0.548776	99
Es	-1.199603	-0.508272	-1.065916	99
Es	-0.739556	0.397424	-0.239156	99
Es	0.292009	0.407581	0.422309	99
Es	-1.206399	1.169138	-1.793543	99
Es	-1.058024	0.244410	-0.906637	99
Es	-1.133902	-1.457419	-0.808103	99
Es	1.557812	-1.220181	0.570098	99
Es	1.736628	-0.160167	1.696138	99
Es	-0.893006	0.748248	-1.557283	99
Es	1.059029	-1.266039	0.813338	99
Es	2.457198	-0.034342	1.753336	99
Es	1.369682	-0.147997	2.333528	99
Es	1.173915	-0.639585	0.503111	99
Es	1.032727	0.244123	0.429427	99
Es	-1.444964	-1.201974	-1.731052	99
Es	-1.655706	-0.958371	-1.041737	99
Es	-1.122426	1.528607	-1.760114	99
Es	1.320471	-1.129285	0.721289	99
Es	-1.419962	-1.046997	-1.148758	99
Es	-0.420804	0.590106	0.425628	99
Es	1.521432	-0.848348	1.160085	99
Es	-1.478800	0.912077	-2.299100	99
Es	1.387484	0.278659	1.137771	99
Es	1.417194	0.567978	-0.102915	99
Es	-0.776291	0.218393	0.958325	99
Es	-1.404132	0.852471	-1.350666	99
42
Properties=species:S:1:pos:R:3:Z:I:1 energy=-339.9629047022658 field_type=dipole dipole="0.000000 0.000000 0.000000" charge=0
N	-1.420490	-1.047130	-1.148621	7
C	-1.058010	0.244580	-0.906721	6
N	-1.206290	1.169640	-1.793531	7
C	-0.420810	0.590150	0.425689	6
C	1.032700	0.244430	0.429329	6
C	1.736730	-0.159970	1.696369	6
O	1.320460	-1.129530	0.721229	8
H	-0.942400	-1.739500	-0.575581	1
H	-1.471360	-1.324230	-2.120031	1
H	-1.659940	0.779740	-2.621271	1
H	-0.959500	0.053700	1.217339	1
H	-0.542280	1.663060	0.614439	1
H	1.597780	0.738650	-0.349631	1
H	1.195730	-0.125990	2.632909	1
H	2.797690	0.042400	1.778089	1
Es	-1.205425	-0.504234	-1.063805	99
Es	1.386866	0.280707	1.137283	99
Es	1.173284	-0.638096	0.499380	99
Es	-1.058027	0.244410	-0.906637	99
Es	1.417029	0.568025	-0.103265	99
Es	-1.479853	0.913114	-2.299570	99
Es	1.032726	0.244131	0.429425	99
Es	-1.402413	0.851120	-1.351805	99
Es	1.370700	-0.149044	2.333571	99
Es	-1.453349	-1.202426	-1.731296	99
Es	-0.775634	0.217801	0.959081	99
Es	-0.491397	1.305149	0.548947	99
Es	1.552444	-1.209876	0.576650	99
Es	-0.893080	0.748203	-1.558277	99
Es	1.736630	-0.160163	1.696147	99
Es	-1.206400	1.169119	-1.793529	99
Es	-1.123553	1.528806	-1.758018	99
Es	1.523693	-0.851489	1.162392	99
Es	1.063217	-1.274170	0.809215	99
Es	-1.139677	-1.460405	-0.803391	99
Es	-1.419756	-1.046835	-1.148777	99
Es	-1.635656	-0.958807	-1.048021	99
Es	0.290946	0.407735	0.421815	99
Es	-0.739139	0.397320	-0.239617	99
Es	-0.420804	0.590103	0.425629	99
Es	1.320462	-1.129322	0.721288	99
Es	2.456110	-0.035482	1.753363	99
42
Properties=species:S:1:pos:R:3:Z:I:1 energy=-339.9629047022658 field_type=dipole dipole="0.000000 0.000000 0.000000" charge=0
N	-1.420490	-1.047130	-1.148621	7
C	-1.058010	0.244580	-0.906721	6
N	-1.206290	1.169640	-1.793531	7
C	-0.420810	0.590150	0.425689	6
C	1.032700	0.244430	0.429329	6
C	1.736730	-0.159970	1.696369	6
O	1.320460	-1.129530	0.721229	8
H	-0.942400	-1.739500	-0.575581	1
H	-1.471360	-1.324230	-2.120031	1
H	-1.659940	0.779740	-2.621271	1
H	-0.959500	0.053700	1.217339	1
H	-0.542280	1.663060	0.614439	1
H	1.597780	0.738650	-0.349631	1
H	1.195730	-0.125990	2.632909	1
H	2.797690	0.042400	1.778089	1
Es	0.290264	0.407979	0.421541	99
Es	-0.738777	0.397183	-0.239930	99
Es	-1.419798	-1.046860	-1.148768	99
Es	-0.491065	1.305167	0.548997	99
Es	1.371187	-0.149743	2.333395	99
Es	2.455420	-0.036320	1.753608	99
Es	-1.123925	1.528390	-1.756567	99
Es	1.173291	-0.637134	0.497107	99
Es	-0.893041	0.747245	-1.557936	99
Es	1.416911	0.568155	-0.103602	99
Es	1.032725	0.244130	0.429424	99
Es	-1.143005	-1.461866	-0.800794	99
Es	1.066521	-1.279897	0.805915	99
Es	-1.480302	0.914184	-2.300226	99
Es	-0.775108	0.217252	0.959650	99
Es	-0.420803	0.590105	0.425626	99
Es	1.736631	-0.160181	1.696141	99
Es	-1.457989	-1.202215	-1.731284	99
Es	-1.058028	0.244408	-0.906635	99
Es	1.320416	-1.129256	0.721336	99
Es	-1.622973	-0.959647	-1.052118	99
Es	1.547534	-1.202104	0.581585	99
Es	-1.206404	1.169133	-1.793541	99
Es	1.386459	0.281996	1.136719	99
Es	-1.402066	0.851340	-1.353245	99
Es	1.525703	-0.854178	1.163814	99
Es	-1.209835	-0.501872	-1.062032	99
42
Properties=species:S:1:pos:R:3:Z:I:1 energy=-339.9629047022658 field_type=dipole dipole="0.000000 0.000000 0.000000" charge=0
N	-1.420490	-1.047130	-1.148621	7
C	-1.058010	0.244580	-0.906721	6
N	-1.206290	1.169640	-1.793531	7
C	-0.420810	0.590150	0.425689	6
C	1.032700	0.244430	0.429329	6
C	1.736730	-0.159970	1.696369	6
O	1.320460	-1.129530	0.721229	8
H	-0.942400	-1.739500	-0.575581	1
H	-1.471360	-1.324230	-2.120031	1
H	-1.659940	0.779740	-2.621271	1
H	-0.959500	0.053700	1.217339	1
H	-0.542280	1.663060	0.614439	1
H	1.597780	0.738650	-0.349631	1
H	1.195730	-0.125990	2.632909	1
H	2.797690	0.042400	1.778089	1
Es	0.289552	0.408003	0.421197	99
Es	-1.206401	1.169134	-1.793545	99
Es	1.172947	-0.636719	0.495290	99
Es	-1.480573	0.915161	-2.300667	99
Es	1.386185	0.282663	1.136345	99
Es	1.736628	-0.160171	1.696140	99
Es	-1.419872	-1.046923	-1.148766	99
Es	1.320439	-1.129273	0.721312	99
Es	-0.738414	0.397227	-0.240265	99
Es	1.544193	-1.198659	0.584358	99
Es	1.526960	-0.856141	1.165371	99
Es	2.454757	-0.036908	1.753518	99
Es	-1.211698	-0.500768	-1.061489	99
Es	-0.893242	0.744999	-1.556245	99
Es	-0.490587	1.305137	0.549074	99
Es	1.416892	0.568306	-0.103750	99
Es	1.032721	0.244122	0.429422	99
Es	-1.145869	-1.462832	-0.798921	99
Es	-1.123942	1.528112	-1.755466	99
Es	-1.058028	0.244409	-0.906637	99
Es	1.069207	-1.281275	0.804035	99
Es	-1.614018	-0.959480	-1.054683	99
Es	-1.402026	0.852842	-1.355778	99
Es	1.371664	-0.150253	2.333505	99
Es	-0.774800	0.216832	0.960090	99
Es	-1.461928	-1.202257	-1.730897	99
Es	-0.420804	0.590104	0.425629	99
42
Properties=species:S:1:pos:R:3:Z:I:1 energy=-339.9629047022658 field_type=dipole dipole="0.000000 0.000000 0.000000" charge=0
N	-1.420490	-1.047130	-1.148621	7
C	-1.058010	0.244580	-0.906721	6
N	-1.206290	1.169640	-1.793531	7
C	-0.420810	0.590150	0.425689	6
C	1.032700	0.244430	0.429329	6
C	1.736730	-0.159970	1.696369	6
O	1.320460	-1.129530	0.721229	8
H	-0.942400	-1.739500	-0.575581	1
H	-1.471360	-1.324230	-2.120031	1
H	-1.659940	0.779740	-2.621271	1
H	-0.959500	0.053700	1.217339	1
H	-0.542280	1.663060	0.614439	1
H	1.597780	0.738650	-0.349631	1
H	1.195730	-0.125990	2.632909	1
H	2.797690	0.042400	1.778089	1
Es	-0.774395	0.216427	0.960484	99
Es	-1.124783	1.527762	-1.754748	99
Es	1.528625	-0.858193	1.166197	99
Es	1.069107	-1.281171	0.802840	99
Es	1.032723	0.244132	0.429425	99
Es	-0.490573	1.305010	0.549070	99
Es	1.175186	-0.635913	0.493995	99
Es	1.736627	-0.160171	1.696139	99
Es	0.289302	0.408289	0.421134	99
Es	1.372090	-0.150754	2.333539	99
Es	1.385985	0.283178	1.135799	99
Es	1.416783	0.568482	-0.104086	99
Es	1.540491	-1.197210	0.586681	99
Es	-1.465516	-1.201827	-1.730626	99
Es	-0.738349	0.397175	-0.240308	99
Es	-1.058026	0.244410	-0.906638	99
Es	-1.419819	-1.046900	-1.148774	99
Es	-1.216150	-0.498776	-1.059655	99
Es	-1.604599	-0.961110	-1.057688	99
Es	-1.147159	-1.463445	-0.797839	99
Es	-0.420803	0.590104	0.425627	99
Es	-1.206399	1.169130	-1.793537	99
Es	-0.892475	0.744629	-1.556396	99
Es	-1.480964	0.915876	-2.300791	99
Es	1.320533	-1.129142	0.721312	99
Es	-1.401746	0.852805	-1.356432	99
Es	2.454248	-0.037403	1.753456	99
42
Properties=species:S:1:pos:R:3:Z:I:1 energy=-339.9629047022658 field_type=dipole dipole="0.000000 0.000000 0.000000" charge=0
N	-1.420490	-1.047130	-1.148621	7
C	-1.058010	0.244580	-0.906721	6
N	-1.206290	1.169640	-1.793531	7
C	-0.420810	0.590150	0.425689	6
C	1.032700	0.244430	0.429329	6
C	1.736730	-0.159970	1.696369	6
O	1.320460	-1.129530	0.721229	8
H	-0.942400	-1.739500	-0.575581	1
H	-1.471360	-1.324230	-2.120031	1
H	-1.659940	0.779740	-2.621271	1
H	-0.959500	0.053700	1.217339	1
H	-0.542280	1.663060	0.614439	1
H	1.597780	0.738650	-0.349631	1
H	1.195730	-0.125990	2.632909	1
H	2.797690	0.042400	1.778089	1
Es	-1.464914	-1.201481	-1.730847	99
Es	-1.206400	1.169131	-1.793545	99
Es	-1.124768	1.527002	-1.754266	99
Es	1.075805	-1.293804	0.797154	99
Es	1.032721	0.244126	0.429423	99
Es	1.416860	0.568566	-0.104192	99
Es	0.289091	0.408370	0.421020	99
Es	-1.219718	-0.497391	-1.058216	99
Es	-1.419833	-1.046941	-1.148784	99
Es	-0.774442	0.216322	0.960856	99
Es	1.320324	-1.129184	0.721406	99
Es	1.372248	-0.151102	2.333713	99
Es	1.536709	-1.183446	0.592623	99
Es	-1.481060	0.916730	-2.301230	99
Es	-0.490382	1.304812	0.548860	99
Es	1.736626	-0.160174	1.696136	99
Es	1.385805	0.283370	1.135400	99
Es	1.528854	-0.858552	1.166703	99
Es	1.172515	-0.636146	0.493564	99
Es	2.453866	-0.037746	1.753390	99
Es	-1.058022	0.244408	-0.906639	99
Es	-1.147124	-1.463344	-0.797329	99
Es	-1.601392	-0.962716	-1.059252	99
Es	-1.402016	0.854263	-1.358137	99
Es	-0.420804	0.590105	0.425628	99
Es	-0.738181	0.397215	-0.240350	99
Es	-0.892429	0.743001	-1.554912	99
42
Properties=species:S:1:pos:R:3:Z:I:1 energy=-339.9629047022658 field_type=dipole dipole="0.000000 0.000000 0.000000" charge=0
N	-1.420490	-1.047130	-1.148621	7
C	-1.058010	0.244580	-0.906721	6
N	-1.206290	1.169640	-1.793531	7
C	-0.420810	0.590150	0.425689	6
C	1.032700	0.244430	0.429329	6
C	1.736730	-0.159970	1.696369	6
O	1.320460	-1.129530	0.721229	8
H	-0.942400	-1.739500	-0.575581	1
H	-1.471360	-1.324230	-2.120031	1
H	-1.659940	0.779740	-2.621271	1
H	-0.959500	0.053700	1.217339	1
H	-0.542280	1.663060	0.614439	1
H	1.597780	0.738650	-0.349631	1
H	1.195730	-0.125990	2.632909	1
H	2.797690	0.042400	1.778089	1
Es	1.174011	-0.635318	0.492910	99
Es	1.530619	-0.860931	1.167177	99
Es	1.736628	-0.160174	1.696138	99
Es	-0.420804	0.590105	0.425627	99
Es	1.534606	-1.185553	0.592617	99
Es	1.372603	-0.151414	2.333624	99
Es	-1.467212	-1.201328	-1.730436	99
Es	-1.218978	-0.497805	-1.058629	99
Es	1.416782	0.568608	-0.104346	99
Es	1.074687	-1.289768	0.797989	99
Es	-1.401786	0.854926	-1.359096	99
Es	-1.058024	0.244408	-0.906638	99
Es	-1.124878	1.526622	-1.753747	99
Es	-0.737965	0.397029	-0.240465	99
Es	1.385669	0.283847	1.135101	99
Es	0.288468	0.408661	0.420804	99
Es	-1.598050	-0.961852	-1.059957	99
Es	-0.892507	0.742230	-1.554195	99
Es	-0.773831	0.215833	0.961081	99
Es	-1.419751	-1.046854	-1.148781	99
Es	1.032722	0.244130	0.429426	99
Es	-0.490355	1.305041	0.548969	99
Es	2.453408	-0.038058	1.753373	99
Es	1.320463	-1.129403	0.721242	99
Es	-1.206402	1.169123	-1.793541	99
Es	-1.148864	-1.463963	-0.796538	99
Es	-1.481316	0.917250	-2.301531	99
42
Properties=species:S:1:pos:R:3:Z:I:1 energy=-339.9629047022658 field_type=dipole dipole="0.000000 0.000000 0.000000" charge=0
N	-1.420490	-1.047130	-1.148621	7
C	-1.058010	0.244580	-0.906721	6
N	-1.206290	1.169640	-1.793531	7
C	-0.420810	0.590150	0.425689	6
C	1.032700	0.244430	0.429329	6
C	1.736730	-0.159970	1.696369	6
O	1.320460	-1.129530	0.721229	8
H	-0.942400	-1.739500	-0.575581	1
H	-1.471360	-1.324230	-2.120031	1
H	-1.659940	0.779740	-2.621271	1
H	-0.959500	0.053700	1.217339	1
H	-0.542280	1.663060	0.614439	1
H	1.597780	0.738650	-0.349631	1
H	1.195730	-0.125990	2.632909	1
H	2.797690	0.042400	1.778089	1
Es	-1.594240	-0.962151	-1.061325	99
Es	1.372829	-0.151721	2.333759	99
Es	-1.058023	0.244409	-0.906639	99
Es	1.532201	-0.861921	1.167169	99
Es	1.416724	0.568663	-0.104435	99
Es	-1.401419	0.854669	-1.359904	99
Es	-0.420802	0.590103	0.425630	99
Es	-1.220648	-0.497182	-1.057684	99
Es	-0.737943	0.396955	-0.240416	99
Es	-1.467622	-1.200865	-1.730514	99
Es	2.453078	-0.038325	1.753257	99
Es	-1.149909	-1.464329	-0.796037	99
Es	1.173981	-0.635374	0.492573	99
Es	-0.773683	0.215688	0.961374	99
Es	-1.126013	1.526331	-1.752881	99
Es	-0.490147	1.305040	0.548849	99
Es	-1.481391	0.917816	-2.301821	99
Es	1.076417	-1.292034	0.796711	99
Es	-0.891760	0.742156	-1.554116	99
Es	1.531641	-1.182219	0.594591	99
Es	-1.420335	-1.047105	-1.148660	99
Es	1.320411	-1.129210	0.721350	99
Es	0.288144	0.408666	0.420633	99
Es	1.736628	-0.160174	1.696139	99
Es	-1.206403	1.169130	-1.793543	99
Es	1.032725	0.244128	0.429421	99
Es	1.385505	0.284247	1.134697	99
42
Properties=species:S:1:pos:R:3:Z:I:1 energy=-339.9629047022658 field_type=dipole dipole="0.000000 0.000000 0.000000" charge=0
N	-1.420490	-1.047130	-1.148621	7
C	-1.058010	0.244580	-0.906721	6
N	-1.206290	1.169640	-1.793531	7
C	-0.420810	0.590150	0.425689	6
C	1.032700	0.244430	0.429329	6
C	1.736730	-0.159970	1.696369	6
O	1.320460	-1.129530	0.721229	8
H	-0.942400	-1.739500	-0.575581	1
H	-1.471360	-1.324230	-2.120031	1
H	-1.659940	0.779740	-2.621271	1
H	-0.959500	0.053700	1.217339	1
H	-0.542280	1.663060	0.614439	1
H	1.597780	0.738650	-0.349631	1
H	1.195730	-0.125990	2.632909	1
H	2.797690	0.042400	1.778089	1
Es	1.532773	-0.861825	1.166916	99
Es	-1.206398	1.169118	-1.793543	99
Es	-1.125986	1.525781	-1.752614	99
Es	1.385390	0.284247	1.134442	99
Es	1.320393	-1.129231	0.721351	99
Es	-0.773724	0.215556	0.961507	99
Es	-1.223433	-0.495896	-1.056847	99
Es	0.288191	0.408765	0.420689	99
Es	-1.058026	0.244410	-0.906637	99
Es	-0.420805	0.590106	0.425631	99
Es	-0.490169	1.304848	0.548790	99
Es	1.032724	0.244129	0.429422	99
Es	2.452815	-0.038559	1.753156	99
Es	-1.401639	0.854897	-1.360154	99
Es	-1.150256	-1.464390	-0.795538	99
Es	1.416758	0.568796	-0.104548	99
Es	-0.737755	0.397043	-0.240448	99
Es	1.372996	-0.152029	2.333897	99
Es	-1.481480	0.918470	-2.302044	99
Es	-1.419792	-1.046819	-1.148751	99
Es	-1.589511	-0.963435	-1.062916	99
Es	1.736627	-0.160171	1.696138	99
Es	-0.891647	0.741746	-1.554050	99
Es	1.077702	-1.294218	0.796082	99
Es	1.530357	-1.179792	0.595856	99
Es	1.173507	-0.635239	0.492443	99
Es	-1.469669	-1.200915	-1.730052	99
42
Properties=species:S:1:pos:R:3:Z:I:1 energy=-339.9629047022658 field_type=dipole dipole="0.000000 0.000000 0.000000" charge=0
N	-1.420490	-1.047130	-1.148621	7
C	-1.058010	0.244580	-0.906721	6
N	-1.206290	1.169640	-1.793531	7
C	-0.420810	0.590150	0.425689	6
C	1.032700	0.244430	0.429329	6
C	1.736730	-0.159970	1.696369	6
O	1.320460	-1.129530	0.721229	8
H	-0.942400	-1.739500	-0.575581	1
H	-1.471360	-1.324230	-2.120031	1
H	-1.659940	0.779740	-2.621271	1
H	-0.959500	0.053700	1.217339	1
H	-0.542280	1.663060	0.614439	1
H	1.597780	0.738650	-0.349631	1
H	1.195730	-0.125990	2.632909	1
H	2.797690	0.042400	1.778089	1
Es	-1.125557	1.525375	-1.752463	99
Es	1.077915	-1.293305	0.795387	99
Es	1.320710	-1.129110	0.721234	99
Es	-1.150660	-1.464464	-0.795213	99
Es	-1.419699	-1.046698	-1.148748	99
Es	-1.470205	-1.200868	-1.729883	99
Es	1.174276	-0.634909	0.492119	99
Es	1.032721	0.244132	0.429423	99
Es	-0.773290	0.215191	0.961741	99
Es	-1.223901	-0.495789	-1.056846	99
Es	1.528417	-1.179470	0.596716	99
Es	0.287779	0.409041	0.420510	99
Es	1.533513	-0.863404	1.167437	99
Es	-0.737727	0.397019	-0.240491	99
Es	1.385316	0.284437	1.134189	99
Es	1.736628	-0.160171	1.696140	99
Es	-1.206405	1.169114	-1.793541	99
Es	-0.420802	0.590103	0.425629	99
Es	1.416703	0.568867	-0.104616	99
Es	2.452488	-0.038727	1.752987	99
Es	-0.490108	1.304886	0.548852	99
Es	-1.588113	-0.963573	-1.063353	99
Es	-0.891971	0.740656	-1.553239	99
Es	-1.481961	0.918954	-2.302109	99
Es	-1.401370	0.855939	-1.361075	99
Es	1.373268	-0.152244	2.334032	99
Es	-1.058023	0.244408	-0.906640	99
42
Properties=species:S:1:pos:R:3:Z:I:1 energy=-339.9629047022658 field_type=dipole dipole="0.000000 0.000000 0.000000" charge=0
N	-1.420490	-1.047130	-1.148621	7
C	-1.058010	0.244580	-0.906721	6
N	-1.206290	1.169640	-1.793531	7
C	-0.420810	0.590150	0.425689	6
C	1.032700	0.244430	0.429329	6
C	1.736730	-0.159970	1.696369	6
O	1.320460	-1.129530	0.721229	8
H	-0.942400	-1.739500	-0.575581	1
H	-1.471360	-1.324230	-2.120031	1
H	-1.659940	0.779740	-2.621271	1
H	-0.959500	0.053700	1.217339	1
H	-0.542280	1.663060	0.614439	1
H	1.597780	0.738650	-0.349631	1
H	1.195730	-0.125990	2.632909	1
H	2.797690	0.042400	1.778089	1
Es	-1.223385	-0.496339	-1.057045	99
Es	-1.588867	-0.963323	-1.063085	99
Es	1.173155	-0.634796	0.492444	99
Es	1.082781	-1.299872	0.790661	99
Es	1.532335	-0.863885	1.168390	99
Es	1.321132	-1.129031	0.720984	99
Es	-1.481690	0.919704	-2.302434	99
Es	-0.773191	0.215029	0.961900	99
Es	-0.737716	0.397113	-0.240504	99
Es	1.385275	0.284499	1.133870	99
Es	1.525566	-1.172381	0.600746	99
Es	-1.401526	0.855306	-1.361312	99
Es	1.736627	-0.160171	1.696137	99
Es	1.416764	0.568867	-0.104672	99
Es	-1.419696	-1.046591	-1.148712	99
Es	-0.891349	0.740846	-1.553536	99
Es	2.452337	-0.038931	1.753011	99
Es	-1.150696	-1.464592	-0.795141	99
Es	-1.058023	0.244410	-0.906639	99
Es	-1.126438	1.525016	-1.751650	99
Es	0.287606	0.409203	0.420397	99
Es	-0.490097	1.304753	0.548849	99
Es	-0.420801	0.590105	0.425630	99
Es	-1.206388	1.169139	-1.793550	99
Es	1.373318	-0.152350	2.334020	99
Es	1.032723	0.244130	0.429426	99
Es	-1.469813	-1.200466	-1.730007	99
42
Properties=species:S:1:pos:R:3:Z:I:1 energy=-339.9629047022658 field_type=dipole dipole="0.000000 0.000000 0.000000" charge=0
N	-1.420490	-1.047130	-1.148621	7
C	-1.058010	0.244580	-0.906721	6
N	-1.206290	1.169640	-1.793531	7
C	-0.420810	0.590150	0.425689	6
C	1.032700	0.244430	0.429329	6
C	1.736730	-0.159970	1.696369	6
O	1.320460	-1.129530	0.721229	8
H	-0.942400	-1.739500	-0.575581	1
H	-1.471360	-1.324230	-2.120031	1
H	-1.659940	0.779740	-2.621271	1
H	-0.959500	0.053700	1.217339	1
H	-0.542280	1.663060	0.614439	1
H	1.597780	0.738650	-0.349631	1
H	1.195730	-0.125990	2.632909	1
H	2.797690	0.042400	1.778089	1
Es	2.452152	-0.039099	1.753062	99
Es	1.736633	-0.160173	1.696136	99
Es	1.032721	0.244131	0.429424	99
Es	-1.471077	-1.200382	-1.729747	99
Es	-1.401425	0.854549	-1.360727	99
Es	-1.206397	1.169120	-1.793547	99
Es	-0.420804	0.590104	0.425629	99
Es	-1.481943	0.920038	-2.302345	99
Es	1.385214	0.284604	1.133636	99
Es	1.373406	-0.152430	2.333930	99
Es	1.320517	-1.129334	0.721251	99
Es	1.416717	0.568989	-0.104780	99
Es	1.173956	-0.634429	0.492200	99
Es	-0.891190	0.741214	-1.554600	99
Es	-1.150922	-1.464696	-0.794966	99
Es	-0.773091	0.214861	0.962035	99
Es	-1.584404	-0.964100	-1.064546	99
Es	-0.737630	0.397164	-0.240531	99
Es	-1.126454	1.525071	-1.751332	99
Es	-1.226254	-0.495104	-1.055833	99
Es	-1.058022	0.244409	-0.906639	99
Es	1.534169	-0.865748	1.168611	99
Es	1.524787	-1.172991	0.600136	99
Es	1.081658	-1.297342	0.791327	99
Es	-1.419811	-1.046967	-1.148799	99
Es	0.287504	0.409236	0.420380	99
Es	-0.490069	1.304698	0.548814	99
42
Properties=species:S:1:pos:R:3:Z:I:1 energy=-339.9629047022658 field_type=dipole dipole="0.000000 0.000000 0.000000" charge=0
N	-1.420490	-1.047130	-1.148621	7
C	-1.058010	0.244580	-0.906721	6
N	-1.206290	1.169640	-1.793531	7
C	-0.420810	0.590150	0.425689	6
C	1.032700	0.244430	0.429329	6
C	1.736730	-0.159970	1.696369	6
O	1.320460	-1.129530	0.721229	8
H	-0.942400	-1.739500	-0.575581	1
H	-1.471360	-1.324230	-2.120031	1
H	-1.659940	0.779740	-2.621271	1
H	-0.959500	0.053700	1.217339	1
H	-0.542280	1.663060	0.614439	1
H	1.597780	0.738650	-0.349631	1
H	1.195730	-0.125990	2.632909	1
H	2.797690	0.042400	1.778089	1
Es	-1.126021	1.524600	-1.751258	99
Es	1.373635	-0.152663	2.334010	99
Es	-0.489997	1.304635	0.548897	99
Es	1.081060	-1.296758	0.792156	99
Es	-0.420804	0.590105	0.425630	99
Es	-1.583370	-0.964262	-1.064988	99
Es	-1.401250	0.856523	-1.362840	99
Es	1.385052	0.284647	1.133458	99
Es	-1.419790	-1.046903	-1.148784	99
Es	-1.206408	1.169130	-1.793544	99
Es	-1.471080	-1.200314	-1.729711	99
Es	1.416650	0.569120	-0.104853	99
Es	-0.892015	0.739396	-1.552186	99
Es	1.524058	-1.173529	0.600420	99
Es	1.032723	0.244126	0.429421	99
Es	1.534924	-0.865698	1.168170	99
Es	2.451995	-0.039146	1.752914	99
Es	-1.226745	-0.494917	-1.055761	99
Es	-1.058023	0.244409	-0.906639	99
Es	-0.772853	0.214653	0.962163	99
Es	0.287335	0.409367	0.420372	99
Es	1.174693	-0.634532	0.491598	99
Es	1.736626	-0.160169	1.696136	99
Es	-1.481852	0.920348	-2.302720	99
Es	1.320416	-1.129206	0.721348	99
Es	-0.737602	0.397200	-0.240582	99
Es	-1.151417	-1.464769	-0.794653	99
42
Properties=species:S:1:pos:R:3:Z:I:1 energy=-339.9629047022658 field_type=dipole dipole="0.000000 0.000000 0.000000" charge=0
N	-1.420490	-1.047130	-1.148621	7
C	-1.058010	0.244580	-0.906721	6
N	-1.206290	1.169640	-1.793531	7
C	-0.420810	0.590150	0.425689	6
C	1.032700	0.244430	0.429329	6
C	1.736730	-0.159970	1.696369	6
O	1.320460	-1.129530	0.721229	8
H	-0.942400	-1.739500	-0.575581	1
H	-1.471360	-1.324230	-2.120031	1
H	-1.659940	0.779740	-2.621271	1
H	-0.959500	0.053700	1.217339	1
H	-0.542280	1.663060	0.614439	1
H	1.597780	0.738650	-0.349631	1
H	1.195730	-0.125990	2.632909	1
H	2.797690	0.042400	1.778089	1
Es	1.082537	-1.298205	0.790117	99
Es	-1.481948	0.920182	-2.302415	99
Es	1.032723	0.244131	0.429423	99
Es	-1.226923	-0.494984	-1.055647	99
Es	-1.419925	-1.047008	-1.148772	99
Es	0.287386	0.409197	0.420371	99
Es	1.736627	-0.160170	1.696131	99
Es	-1.581475	-0.964067	-1.065312	99
Es	1.320534	-1.129148	0.721309	99
Es	-0.737642	0.397158	-0.240561	99
Es	-1.151577	-1.464973	-0.794616	99
Es	1.174850	-0.634263	0.491708	99
Es	-0.891788	0.739217	-1.552209	99
Es	1.373761	-0.152835	2.334158	99
Es	-1.472416	-1.200046	-1.729464	99
Es	-1.401328	0.856711	-1.362895	99
Es	1.523378	-1.171526	0.601729	99
Es	-0.772961	0.214774	0.962117	99
Es	1.384940	0.284668	1.133263	99
Es	2.451794	-0.039285	1.752800	99
Es	-1.206401	1.169118	-1.793541	99
Es	1.416769	0.569157	-0.104879	99
Es	-0.420804	0.590105	0.425630	99
Es	1.533926	-0.866299	1.169081	99
Es	-1.058024	0.244410	-0.906638	99
Es	-0.489940	1.304645	0.548867	99
Es	-1.126129	1.524730	-1.751581	99
42
Properties=species:S:1:pos:R:3:Z:I:1 energy=-339.9629047022658 field_type=dipole dipole="0.000000 0.000000 0.000000" charge=0
N	-1.420490	-1.047130	-1.148621	7
C	-1.058010	0.244580	-0.906721	6
N	-1.206290	1.169640	-1.793531	7
C	-0.420810	0.590150	0.425689	6
C	1.032700	0.244430	0.429329	6
C	1.736730	-0.159970	1.696369	6
O	1.320460	-1.129530	0.721229	8
H	-0.942400	-1.739500	-0.575581	1
H	-1.471360	-1.324230	-2.120031	1
H	-1.659940	0.779740	-2.621271	1
H	-0.959500	0.053700	1.217339	1
H	-0.542280	1.663060	0.614439	1
H	1.597780	0.738650	-0.349631	1
H	1.195730	-0.125990	2.632909	1
H	2.797690	0.042400	1.778089	1
Es	-0.489938	1.304647	0.548714	99
Es	1.416713	0.569124	-0.104958	99
Es	-1.400941	0.858466	-1.365075	99
Es	-0.420803	0.590105	0.425631	99
Es	1.385052	0.284873	1.133086	99
Es	-1.058021	0.244410	-0.906639	99
Es	1.736627	-0.160173	1.696135	99
Es	1.373803	-0.152970	2.334155	99
Es	1.032723	0.244131	0.429423	99
Es	-1.471784	-1.200123	-1.729700	99
Es	0.287032	0.409485	0.420199	99
Es	-1.226006	-0.495366	-1.055987	99
Es	-0.892671	0.737283	-1.550054	99
Es	-1.206397	1.169117	-1.793531	99
Es	2.451600	-0.039407	1.752815	99
Es	-1.419904	-1.046990	-1.148774	99
Es	-1.482005	0.920893	-2.302703	99
Es	1.533983	-0.866692	1.169235	99
Es	1.174621	-0.634244	0.491866	99
Es	-1.152076	-1.464896	-0.794312	99
Es	1.083842	-1.299607	0.788965	99
Es	-0.772734	0.214467	0.962420	99
Es	-1.582505	-0.963617	-1.064995	99
Es	-1.125720	1.524194	-1.751275	99
Es	1.320565	-1.129189	0.721265	99
Es	-0.737459	0.397127	-0.240476	99
Es	1.522343	-1.169651	0.602749	99
42
Properties=species:S:1:pos:R:3:Z:I:1 energy=-339.9629047022658 field_type=dipole dipole="0.000000 0.000000 0.000000" charge=0
N	-1.420490	-1.047130	-1.148621	7
C	-1.058010	0.244580	-0.906721	6
N	-1.206290	1.169640	-1.793531	7
C	-0.420810	0.590150	0.425689	6
C	1.032700	0.244430	0.429329	6
C	1.736730	-0.159970	1.696369	6
O	1.320460	-1.129530	0.721229	8
H	-0.942400	-1.739500	-0.575581	1
H	-1.471360	-1.324230	-2.120031	1
H	-1.659940	0.779740	-2.621271	1
H	-0.959500	0.053700	1.217339	1
H	-0.542280	1.663060	0.614439	1
H	1.597780	0.738650	-0.349631	1
H	1.195730	-0.125990	2.632909	1
H	2.797690	0.042400	1.778089	1
Es	1.384952	0.285012	1.132979	99
Es	1.535805	-0.867233	1.168691	99
Es	-1.579337	-0.964320	-1.065986	99
Es	2.451479	-0.039495	1.752773	99
Es	-1.126077	1.524309	-1.751210	99
Es	-0.420804	0.590105	0.425630	99
Es	-1.481947	0.920902	-2.302568	99
Es	-0.772607	0.214313	0.962474	99
Es	1.373896	-0.153132	2.334188	99
Es	-1.151841	-1.464907	-0.794267	99
Es	1.320415	-1.129167	0.721365	99
Es	1.032727	0.244133	0.429416	99
Es	1.736627	-0.160168	1.696140	99
Es	-1.227974	-0.494637	-1.055391	99
Es	-0.892028	0.738047	-1.551199	99
Es	-1.206407	1.169131	-1.793542	99
Es	0.287044	0.409429	0.420269	99
Es	1.083084	-1.297924	0.790220	99
Es	1.521297	-1.170531	0.602451	99
Es	-1.473132	-1.200042	-1.729344	99
Es	-1.419977	-1.047027	-1.148760	99
Es	-0.737390	0.397097	-0.240504	99
Es	1.416521	0.569259	-0.105104	99
Es	1.174837	-0.634412	0.491490	99
Es	-1.401277	0.857574	-1.364141	99
Es	-0.489920	1.304669	0.548746	99
Es	-1.058023	0.244410	-0.906639	99
42
Properties=species:S:1:pos:R:3:Z:I:1 energy=-339.9629047022658 field_type=dipole dipole="0.000000 0.000000 0.000000" charge=0
N	-1.420490	-1.047130	-1.148621	7
C	-1.058010	0.244580	-0.906721	6
N	-1.206290	1.169640	-1.793531	7
C	-0.420810	0.590150	0.425689	6
C	1.032700	0.244430	0.429329	6
C	1.736730	-0.159970	1.696369	6
O	1.320460	-1.129530	0.721229	8
H	-0.942400	-1.739500	-0.575581	1
H	-1.471360	-1.324230	-2.120031	1
H	-1.659940	0.779740	-2.621271	1
H	-0.959500	0.053700	1.217339	1
H	-0.542280	1.663060	0.614439	1
H	1.597780	0.738650	-0.349631	1
H	1.195730	-0.125990	2.632909	1
H	2.797690	0.042400	1.778089	1
Es	-0.737508	0.397076	-0.240456	99
Es	-0.772447	0.214264	0.962592	99
Es	-1.401297	0.857077	-1.363700	99
Es	-1.472785	-1.199936	-1.729294	99
Es	-0.489993	1.304579	0.548700	99
Es	1.384788	0.284903	1.132826	99
Es	1.416684	0.569315	-0.105005	99
Es	-1.228661	-0.494340	-1.055170	99
Es	-1.058025	0.244409	-0.906641	99
Es	1.519952	-1.167439	0.604128	99
Es	2.451412	-0.039602	1.752734	99
Es	0.286929	0.409645	0.420146	99
Es	1.373995	-0.153295	2.334203	99
Es	-1.420233	-1.047094	-1.148693	99
Es	-1.482060	0.921210	-2.302774	99
Es	1.320441	-1.129300	0.721295	99
Es	1.032722	0.244130	0.429421	99
Es	-1.126476	1.523955	-1.750898	99
Es	1.535521	-0.867778	1.169166	99
Es	-1.206402	1.169127	-1.793546	99
Es	-0.420803	0.590103	0.425629	99
Es	-1.151786	-1.464977	-0.794292	99
Es	-0.891511	0.738589	-1.551777	99
Es	1.174815	-0.634121	0.491647	99
Es	-1.578715	-0.964556	-1.066298	99
Es	1.736630	-0.160172	1.696137	99
Es	1.084757	-1.300381	0.788096	99
42
Properties=species:S:1:pos:R:3:Z:I:1 energy=-339.9629047022658 field_type=dipole dipole="0.000000 0.000000 0.000000" charge=0
N	-1.420490	-1.047130	-1.148621	7
C	-1.058010	0.244580	-0.906721	6
N	-1.206290	1.169640	-1.793531	7
C	-0.420810	0.590150	0.425689	6
C	1.032700	0.244430	0.429329	6
C	1.736730	-0.159970	1.696369	6
O	1.320460	-1.129530	0.721229	8
H	-0.942400	-1.739500	-0.575581	1
H	-1.471360	-1.324230	-2.120031	1
H	-1.659940	0.779740	-2.621271	1
H	-0.959500	0.053700	1.217339	1
H	-0.542280	1.663060	0.614439	1
H	1.597780	0.738650	-0.349631	1
H	1.195730	-0.125990	2.632909	1
H	2.797690	0.042400	1.778089	1
Es	1.519701	-1.168165	0.603965	99
Es	-1.579355	-0.964053	-1.066082	99
Es	-1.227604	-0.494823	-1.055593	99
Es	1.032723	0.244130	0.429422	99
Es	-0.892571	0.736789	-1.549465	99
Es	-0.489939	1.304724	0.548586	99
Es	0.286702	0.409686	0.420174	99
Es	1.536011	-0.867899	1.168999	99
Es	1.384820	0.284995	1.132616	99
Es	-1.058022	0.244409	-0.906640	99
Es	-1.481976	0.921950	-2.303260	99
Es	1.084324	-1.299565	0.788754	99
Es	-0.420804	0.590105	0.425630	99
Es	-1.419906	-1.047006	-1.148779	99
Es	1.175084	-0.634275	0.491442	99
Es	-1.126267	1.523438	-1.750294	99
Es	-0.737214	0.396992	-0.240466	99
Es	1.736630	-0.160173	1.696135	99
Es	2.451274	-0.039740	1.752743	99
Es	1.374020	-0.153219	2.334201	99
Es	-0.772451	0.214163	0.962663	99
Es	1.320389	-1.129200	0.721365	99
Es	-1.206406	1.169138	-1.793548	99
Es	-1.152651	-1.465081	-0.793895	99
Es	1.416711	0.569358	-0.105027	99
Es	-1.472624	-1.199921	-1.729354	99
Es	-1.400657	0.858635	-1.366117	99
42
Properties=species:S:1:pos:R:3:Z:I:1 energy=-339.9629047022658 field_type=dipole dipole="0.000000 0.000000 0.000000" charge=0
N	-1.420490	-1.047130	-1.148621	7
C	-1.058010	0.244580	-0.906721	6
N	-1.206290	1.169640	-1.793531	7
C	-0.420810	0.590150	0.425689	6
C	1.032700	0.244430	0.429329	6
C	1.736730	-0.159970	1.696369	6
O	1.320460	-1.129530	0.721229	8
H	-0.942400	-1.739500	-0.575581	1
H	-1.471360	-1.324230	-2.120031	1
H	-1.659940	0.779740	-2.621271	1
H	-0.959500	0.053700	1.217339	1
H	-0.542280	1.663060	0.614439	1
H	1.597780	0.738650	-0.349631	1
H	1.195730	-0.125990	2.632909	1
H	2.797690	0.042400	1.778089	1
Es	-0.420804	0.590104	0.425630	99
Es	0.286685	0.409818	0.420118	99
Es	-1.473956	-1.199814	-1.729082	99
Es	-1.152775	-1.465261	-0.793984	99
Es	-1.058022	0.244409	-0.906640	99
Es	1.518967	-1.168267	0.604136	99
Es	-1.126533	1.524086	-1.750738	99
Es	1.175566	-0.633806	0.491767	99
Es	-0.892248	0.737044	-1.549838	99
Es	1.416580	0.569290	-0.105148	99
Es	1.535945	-0.869390	1.169720	99
Es	-1.419897	-1.046987	-1.148775	99
Es	1.032723	0.244134	0.429423	99
Es	-1.227798	-0.494668	-1.055458	99
Es	1.320665	-1.129136	0.721256	99
Es	2.451070	-0.039787	1.752628	99
Es	1.374159	-0.153420	2.334315	99
Es	-0.772289	0.213986	0.962732	99
Es	1.736627	-0.160170	1.696138	99
Es	1.084466	-1.298353	0.787800	99
Es	-0.737277	0.397019	-0.240399	99
Es	1.384903	0.285166	1.132489	99
Es	-1.206395	1.169124	-1.793536	99
Es	-1.481891	0.921317	-2.302782	99
Es	-1.577740	-0.964067	-1.066394	99
Es	-0.490028	1.304630	0.548626	99
Es	-1.400763	0.858389	-1.365829	99
42
Properties=species:S:1:pos:R:3:Z:I:1 energy=-339.9629047022658 field_type=dipole dipole="0.000000 0.000000 0.000000" charge=0
N	-1.420490	-1.047130	-1.148621	7
C	-1.058010	0.244580	-0.906721	6
N	-1.206290	1.169640	-1.793531	7
C	-0.420810	0.590150	0.425689	6
C	1.032700	0.244430	0.429329	6
C	1.736730	-0.159970	1.696369	6
O	1.320460	-1.129530	0.721229	8
H	-0.942400	-1.739500	-0.575581	1
H	-1.471360	-1.324230	-2.120031	1
H	-1.659940	0.779740	-2.621271	1
H	-0.959500	0.053700	1.217339	1
H	-0.542280	1.663060	0.614439	1
H	1.597780	0.738650	-0.349631	1
H	1.195730	-0.125990	2.632909	1
H	2.797690	0.042400	1.778089	1
Es	-0.892194	0.736843	-1.549608	99
Es	-0.489992	1.304543	0.548709	99
Es	-1.058018	0.244409	-0.906641	99
Es	-1.578341	-0.964108	-1.066356	99
Es	-1.420260	-1.047099	-1.148686	99
Es	-1.206397	1.169122	-1.793539	99
Es	-1.152607	-1.465224	-0.793961	99
Es	-1.481971	0.921937	-2.303164	99
Es	-0.420804	0.590104	0.425629	99
Es	-0.772065	0.213857	0.962828	99
Es	1.736628	-0.160169	1.696140	99
Es	2.450968	-0.039760	1.752526	99
Es	-1.228088	-0.494802	-1.055274	99
Es	1.085804	-1.300292	0.786644	99
Es	-1.400560	0.858455	-1.366283	99
Es	1.320278	-1.129153	0.721441	99
Es	1.517743	-1.165926	0.605388	99
Es	-1.126771	1.523558	-1.750174	99
Es	1.374274	-0.153383	2.334387	99
Es	1.536379	-0.869833	1.169659	99
Es	1.384699	0.285094	1.132279	99
Es	1.416724	0.569335	-0.105066	99
Es	1.032722	0.244128	0.429420	99
Es	1.175527	-0.633778	0.491800	99
Es	-1.472801	-1.199647	-1.729278	99
Es	-0.737361	0.397226	-0.240560	99
Es	0.286427	0.409955	0.419918	99
42
Properties=species:S:1:pos:R:3:Z:I:1 energy=-339.9629047022658 field_type=dipole dipole="0.000000 0.000000 0.000000" charge=0
N	-1.420490	-1.047130	-1.148621	7
C	-1.058010	0.244580	-0.906721	6
N	-1.206290	1.169640	-1.793531	7
C	-0.420810	0.590150	0.425689	6
C	1.032700	0.244430	0.429329	6
C	1.736730	-0.159970	1.696369	6
O	1.320460	-1.129530	0.721229	8
H	-0.942400	-1.739500	-0.575581	1
H	-1.471360	-1.324230	-2.120031	1
H	-1.659940	0.779740	-2.621271	1
H	-0.959500	0.053700	1.217339	1
H	-0.542280	1.663060	0.614439	1
H	1.597780	0.738650	-0.349631	1
H	1.195730	-0.125990	2.632909	1
H	2.797690	0.042400	1.778089	1
Es	-1.419862	-1.046969	-1.148781	99
Es	1.384707	0.285033	1.132121	99
Es	-1.229916	-0.493978	-1.054623	99
Es	1.175007	-0.633918	0.491787	99
Es	1.320453	-1.129293	0.721289	99
Es	-0.772124	0.213853	0.962828	99
Es	-1.482174	0.922533	-2.303305	99
Es	-1.206403	1.169111	-1.793542	99
Es	-0.891913	0.737267	-1.550633	99
Es	1.086359	-1.301242	0.786728	99
Es	1.516992	-1.164846	0.605905	99
Es	0.286331	0.409885	0.420009	99
Es	-0.489962	1.304675	0.548620	99
Es	-1.576208	-0.964927	-1.067180	99
Es	1.736627	-0.160165	1.696138	99
Es	-1.152669	-1.465254	-0.793896	99
Es	2.450981	-0.039865	1.752633	99
Es	-1.058021	0.244410	-0.906639	99
Es	1.536998	-0.869432	1.169315	99
Es	-0.420804	0.590104	0.425629	99
Es	-1.126447	1.523042	-1.750029	99
Es	-1.473441	-1.199610	-1.729114	99
Es	1.374175	-0.153518	2.334320	99
Es	1.416719	0.569395	-0.105095	99
Es	-0.737192	0.396993	-0.240466	99
Es	-1.400995	0.857976	-1.365263	99
Es	1.032723	0.244131	0.429420	99
42
Properties=species:S:1:pos:R:3:Z:I:1 energy=-339.9629047022658 field_type=dipole dipole="0.000000 0.000000 0.000000" charge=0
N	-1.420490	-1.047130	-1.148621	7
C	-1.058010	0.244580	-0.906721	6
N	-1.206290	1.169640	-1.793531	7
C	-0.420810	0.590150	0.425689	6
C	1.032700	0.244430	0.429329	6
C	1.736730	-0.159970	1.696369	6
O	1.320460	-1.129530	0.721229	8
H	-0.942400	-1.739500	-0.575581	1
H	-1.471360	-1.324230	-2.120031	1
H	-1.659940	0.779740	-2.621271	1
H	-0.959500	0.053700	1.217339	1
H	-0.542280	1.663060	0.614439	1
H	1.597780	0.738650	-0.349631	1
H	1.195730	-0.125990	2.632909	1
H	2.797690	0.042400	1.778089	1
Es	-1.126130	1.523177	-1.750562	99
Es	-0.489980	1.304631	0.548559	99
Es	-1.153109	-1.465219	-0.793610	99
Es	-1.474107	-1.199700	-1.729042	99
Es	-0.737262	0.397091	-0.240368	99
Es	-1.482067	0.922218	-2.303084	99
Es	-1.400756	0.859428	-1.366694	99
Es	1.374249	-0.153693	2.334342	99
Es	-1.575427	-0.964869	-1.067395	99
Es	-0.892589	0.735987	-1.548912	99
Es	-0.420804	0.590104	0.425630	99
Es	-1.419727	-1.046820	-1.148777	99
Es	1.736629	-0.160171	1.696135	99
Es	2.450962	-0.039915	1.752596	99
Es	1.175203	-0.633850	0.491979	99
Es	1.384639	0.285223	1.132077	99
Es	1.537043	-0.869850	1.169459	99
Es	-1.058020	0.244409	-0.906640	99
Es	1.416533	0.569452	-0.105292	99
Es	-0.772032	0.213726	0.962956	99
Es	-1.206401	1.169116	-1.793538	99
Es	0.286504	0.409883	0.419990	99
Es	1.320436	-1.129149	0.721362	99
Es	1.085937	-1.299965	0.786931	99
Es	-1.229688	-0.494137	-1.054729	99
Es	1.032722	0.244129	0.429423	99
Es	1.517187	-1.165845	0.605382	99
