39
Properties=species:S:1:pos:R:3:Z:I:1 energy=-338.81955366471726 field_type=dipole dipole="0.000000 0.000000 0.000000" charge=0
N	-1.964310	-1.667801	0.834747	7
C	-2.039630	-0.414362	0.553017	6
N	-1.024260	0.395938	0.132637	7
C	0.286980	0.037868	-0.076853	6
C	1.282830	0.831518	-0.480883	6
C	2.638690	0.278478	-0.655063	6
O	3.567100	0.987358	-1.021433	8
H	-2.885790	-2.013132	1.124237	1
H	-2.999300	0.124818	0.640097	1
H	-1.245760	1.369569	-0.044833	1
H	0.457600	-1.019682	0.128767	1
H	1.159730	1.884778	-0.694873	1
H	2.766120	-0.795352	-0.439563	1
Es	3.840185	0.834338	-1.046865	99
Es	3.473156	1.281847	-1.067639	99
Es	3.177287	0.674445	-1.127036	99
Es	-1.023989	0.395926	0.133670	99
Es	0.286708	0.037857	-0.076779	99
Es	3.282606	0.783023	-0.649271	99
Es	-0.452128	0.243335	0.071760	99
Es	-1.944733	-1.094895	0.992694	99
Es	1.282851	0.831512	-0.480895	99
Es	0.934370	0.530976	-0.000187	99
Es	-1.964687	-1.667436	0.834745	99
Es	-1.035683	0.307741	0.067420	99
Es	3.566857	0.987190	-1.021340	99
Es	1.940075	0.548687	-0.562114	99
Es	-2.521891	-1.856616	1.005282	99
Es	0.799384	0.391863	-0.606582	99
Es	1.188845	1.539147	-0.622320	99
Es	0.402826	-0.658356	0.057828	99
Es	-1.436055	0.039369	0.351727	99
Es	-2.065737	-1.225681	0.451726	99
Es	2.711864	-0.459999	-0.503591	99
Es	-2.684322	-0.031601	0.606859	99
Es	-1.160988	0.976989	0.040954	99
Es	-2.039492	-0.414190	0.552944	99
Es	-1.665870	-1.874303	0.817883	99
Es	2.638646	0.278487	-0.655050	99
39
Properties=species:S:1:pos:R:3:Z:I:1 energy=-338.81955366471726 field_type=dipole dipole="0.000000 0.000000 0.000000" charge=0
N	-1.964310	-1.667801	0.834747	7
C	-2.039630	-0.414362	0.553017	6
N	-1.024260	0.395938	0.132637	7
C	0.286980	0.037868	-0.076853	6
C	1.282830	0.831518	-0.480883	6
C	2.638690	0.278478	-0.655063	6
O	3.567100	0.987358	-1.021433	8
H	-2.885790	-2.013132	1.124237	1
H	-2.999300	0.124818	0.640097	1
H	-1.245760	1.369569	-0.044833	1
H	0.457600	-1.019682	0.128767	1
H	1.159730	1.884778	-0.694873	1
H	2.766120	-0.795352	-0.439563	1
Es	2.638638	0.278479	-0.655054	99
Es	0.934949	0.531954	0.000343	99
Es	-2.039490	-0.414181	0.552938	99
Es	-2.683517	-0.032896	0.606792	99
Es	-2.061003	-1.225059	0.453461	99
Es	1.940263	0.548072	-0.562048	99
Es	2.711718	-0.459832	-0.503523	99
Es	3.464303	1.276306	-1.064148	99
Es	-0.455353	0.238402	0.044467	99
Es	3.847675	0.841650	-1.050543	99
Es	3.566885	0.987101	-1.021327	99
Es	-1.023458	0.395131	0.135653	99
Es	-1.674533	-1.860060	0.814873	99
Es	1.189388	1.538873	-0.622381	99
Es	0.402745	-0.657162	0.057415	99
Es	3.282697	0.781489	-0.649470	99
Es	-2.525722	-1.868113	1.008674	99
Es	-1.939742	-1.097104	0.991175	99
Es	1.282858	0.831518	-0.480892	99
Es	-1.964701	-1.667434	0.834752	99
Es	-1.161029	0.972596	0.030328	99
Es	-1.449160	0.027956	0.316528	99
Es	0.286701	0.037854	-0.076787	99
Es	0.798368	0.392127	-0.607088	99
Es	-1.017877	0.327305	0.138585	99
Es	3.178481	0.674682	-1.126897	99
39
Properties=species:S:1:pos:R:3:Z:I:1 energy=-338.81955366471726 field_type=dipole dipole="0.000000 0.000000 0.000000" charge=0
N	-1.964310	-1.667801	0.834747	7
C	-2.039630	-0.414362	0.553017	6
N	-1.024260	0.395938	0.132637	7
C	0.286980	0.037868	-0.076853	6
C	1.282830	0.831518	-0.480883	6
C	2.638690	0.278478	-0.655063	6
O	3.567100	0.987358	-1.021433	8
H	-2.885790	-2.013132	1.124237	1
H	-2.999300	0.124818	0.640097	1
H	-1.245760	1.369569	-0.044833	1
H	0.457600	-1.019682	0.128767	1
H	1.159730	1.884778	-0.694873	1
H	2.766120	-0.795352	-0.439563	1
Es	-1.160579	0.971683	0.028483	99
Es	1.282863	0.831520	-0.480887	99
Es	3.186430	0.663706	-1.125567	99
Es	1.939948	0.546999	-0.561619	99
Es	2.711505	-0.460207	-0.503372	99
Es	3.882277	0.963837	-1.085853	99
Es	-2.060155	-1.225096	0.455928	99
Es	-1.939634	-1.097824	0.988818	99
Es	-1.677039	-1.853022	0.813577	99
Es	-1.449624	0.027086	0.314341	99
Es	0.931739	0.531614	-0.001568	99
Es	0.286697	0.037856	-0.076787	99
Es	-2.039487	-0.414178	0.552941	99
Es	-1.024396	0.395637	0.131923	99
Es	-1.964688	-1.667438	0.834779	99
Es	-1.015600	0.327713	0.147660	99
Es	0.800772	0.393589	-0.605502	99
Es	-0.456104	0.238842	0.043176	99
Es	3.411597	1.173639	-1.029391	99
Es	3.292696	0.773189	-0.650252	99
Es	3.566867	0.987149	-1.021336	99
Es	-2.683134	-0.033544	0.606898	99
Es	2.638639	0.278480	-0.655053	99
Es	0.403531	-0.657814	0.057446	99
Es	-2.524812	-1.874109	1.009836	99
Es	1.189777	1.540348	-0.622795	99
39
Properties=species:S:1:pos:R:3:Z:I:1 energy=-338.81955366471726 field_type=dipole dipole="0.000000 0.000000 0.000000" charge=0
N	-1.964310	-1.667801	0.834747	7
C	-2.039630	-0.414362	0.553017	6
N	-1.024260	0.395938	0.132637	7
C	0.286980	0.037868	-0.076853	6
C	1.282830	0.831518	-0.480883	6
C	2.638690	0.278478	-0.655063	6
O	3.567100	0.987358	-1.021433	8
H	-2.885790	-2.013132	1.124237	1
H	-2.999300	0.124818	0.640097	1
H	-1.245760	1.369569	-0.044833	1
H	0.457600	-1.019682	0.128767	1
H	1.159730	1.884778	-0.694873	1
H	2.766120	-0.795352	-0.439563	1
Es	-2.039487	-0.414183	0.552926	99
Es	-1.450202	0.026748	0.312226	99
Es	3.567001	0.986723	-1.021269	99
Es	-2.060284	-1.224217	0.462938	99
Es	-2.525951	-1.873859	1.009028	99
Es	0.404279	-0.658055	0.057674	99
Es	-1.015953	0.327094	0.145641	99
Es	-1.964693	-1.667458	0.834746	99
Es	0.286695	0.037859	-0.076784	99
Es	-1.160537	0.971163	0.028333	99
Es	-1.024087	0.395991	0.133302	99
Es	1.282863	0.831520	-0.480886	99
Es	-1.945360	-1.098715	0.981910	99
Es	1.941083	0.546417	-0.560122	99
Es	0.835359	0.402559	-0.598401	99
Es	-1.669137	-1.852774	0.814401	99
Es	-2.684366	-0.033821	0.606705	99
Es	3.845371	1.091326	-1.106988	99
Es	1.188817	1.540850	-0.622467	99
Es	2.638638	0.278480	-0.655054	99
Es	0.896264	0.522916	-0.011000	99
Es	2.711756	-0.460298	-0.503463	99
Es	3.451777	1.043548	-1.007836	99
Es	3.176480	0.657880	-1.120122	99
Es	3.299308	0.782124	-0.655678	99
Es	-0.455553	0.239838	0.046060	99
39
Properties=species:S:1:pos:R:3:Z:I:1 energy=-338.81955366471726 field_type=dipole dipole="0.000000 0.000000 0.000000" charge=0
N	-1.964310	-1.667801	0.834747	7
C	-2.039630	-0.414362	0.553017	6
N	-1.024260	0.395938	0.132637	7
C	0.286980	0.037868	-0.076853	6
C	1.282830	0.831518	-0.480883	6
C	2.638690	0.278478	-0.655063	6
O	3.567100	0.987358	-1.021433	8
H	-2.885790	-2.013132	1.124237	1
H	-2.999300	0.124818	0.640097	1
H	-1.245760	1.369569	-0.044833	1
H	0.457600	-1.019682	0.128767	1
H	1.159730	1.884778	-0.694873	1
H	2.766120	-0.795352	-0.439563	1
Es	-2.525372	-1.874121	1.011547	99
Es	3.158843	0.650063	-1.026438	99
Es	1.282859	0.831516	-0.480899	99
Es	-2.039486	-0.414183	0.552932	99
Es	0.404312	-0.656988	0.057204	99
Es	0.286701	0.037853	-0.076787	99
Es	-1.160542	0.969591	0.029945	99
Es	-2.684011	-0.033752	0.607521	99
Es	-0.458238	0.237523	0.033050	99
Es	3.566962	0.986889	-1.021297	99
Es	-1.673243	-1.851545	0.813454	99
Es	1.188624	1.539747	-0.623999	99
Es	-1.024485	0.395311	0.131443	99
Es	0.760117	0.393219	-0.563011	99
Es	2.711881	-0.460110	-0.503389	99
Es	-1.945623	-1.110277	0.982953	99
Es	2.638638	0.278480	-0.655055	99
Es	0.973126	0.534026	-0.039144	99
Es	3.814566	1.137014	-1.119793	99
Es	-1.014717	0.327934	0.149622	99
Es	-1.964711	-1.667437	0.834743	99
Es	-2.057084	-1.213314	0.460057	99
Es	-1.448389	0.029415	0.321978	99
Es	1.940041	0.545541	-0.565082	99
Es	3.490637	0.984350	-1.004166	99
Es	3.308679	0.802909	-0.741567	99
39
Properties=species:S:1:pos:R:3:Z:I:1 energy=-338.81955366471726 field_type=dipole dipole="0.000000 0.000000 0.000000" charge=0
N	-1.964310	-1.667801	0.834747	7
C	-2.039630	-0.414362	0.553017	6
N	-1.024260	0.395938	0.132637	7
C	0.286980	0.037868	-0.076853	6
C	1.282830	0.831518	-0.480883	6
C	2.638690	0.278478	-0.655063	6
O	3.567100	0.987358	-1.021433	8
H	-2.885790	-2.013132	1.124237	1
H	-2.999300	0.124818	0.640097	1
H	-1.245760	1.369569	-0.044833	1
H	0.457600	-1.019682	0.128767	1
H	1.159730	1.884778	-0.694873	1
H	2.766120	-0.795352	-0.439563	1
Es	-1.934621	-1.098337	0.989332	99
Es	-1.015205	0.326994	0.147288	99
Es	-1.160453	0.968144	0.030516	99
Es	3.804086	1.155272	-1.114042	99
Es	3.566844	0.987097	-1.021324	99
Es	3.508082	0.961462	-1.002524	99
Es	-2.524502	-1.876367	1.011065	99
Es	2.638638	0.278481	-0.655050	99
Es	-1.686617	-1.847608	0.814277	99
Es	0.744142	0.430375	-0.339907	99
Es	0.286694	0.037858	-0.076788	99
Es	1.940782	0.545424	-0.563349	99
Es	1.282860	0.831520	-0.480892	99
Es	-1.024357	0.395738	0.132113	99
Es	0.987705	0.497223	-0.264570	99
Es	-0.456329	0.239616	0.039366	99
Es	-2.039487	-0.414179	0.552938	99
Es	-2.057043	-1.227059	0.453155	99
Es	3.278650	0.779611	-0.643844	99
Es	-2.682626	-0.033812	0.607410	99
Es	-1.964729	-1.667412	0.834756	99
Es	1.189184	1.539746	-0.623093	99
Es	-1.450209	0.028589	0.316853	99
Es	3.182155	0.677991	-1.131177	99
Es	2.711587	-0.459886	-0.503384	99
Es	0.404851	-0.656829	0.056695	99
39
Properties=species:S:1:pos:R:3:Z:I:1 energy=-338.81955366471726 field_type=dipole dipole="0.000000 0.000000 0.000000" charge=0
N	-1.964310	-1.667801	0.834747	7
C	-2.039630	-0.414362	0.553017	6
N	-1.024260	0.395938	0.132637	7
C	0.286980	0.037868	-0.076853	6
C	1.282830	0.831518	-0.480883	6
C	2.638690	0.278478	-0.655063	6
O	3.567100	0.987358	-1.021433	8
H	-2.885790	-2.013132	1.124237	1
H	-2.999300	0.124818	0.640097	1
H	-1.245760	1.369569	-0.044833	1
H	0.457600	-1.019682	0.128767	1
H	1.159730	1.884778	-0.694873	1
H	2.766120	-0.795352	-0.439563	1
Es	3.505841	0.964369	-1.002654	99
Es	1.189937	1.539753	-0.622709	99
Es	0.404868	-0.656016	0.056555	99
Es	3.806079	1.154531	-1.110548	99
Es	-2.524139	-1.878002	1.010312	99
Es	-2.039484	-0.414176	0.552943	99
Es	2.711451	-0.459916	-0.503353	99
Es	-2.682371	-0.034027	0.607212	99
Es	-1.692190	-1.844709	0.813961	99
Es	-1.964685	-1.667468	0.834751	99
Es	3.566909	0.986998	-1.021310	99
Es	0.751244	0.439365	-0.297768	99
Es	-1.015540	0.326446	0.145391	99
Es	-1.450891	0.028094	0.314405	99
Es	-1.930160	-1.094106	0.989443	99
Es	3.263905	0.764193	-0.651955	99
Es	1.282861	0.831518	-0.480890	99
Es	1.940786	0.545952	-0.561671	99
Es	0.286699	0.037855	-0.076787	99
Es	3.197164	0.691444	-1.126115	99
Es	-2.056769	-1.232266	0.454177	99
Es	0.980082	0.487641	-0.309008	99
Es	-1.160800	0.966692	0.030297	99
Es	2.638638	0.278480	-0.655052	99
Es	-0.455268	0.241015	0.042873	99
Es	-1.024083	0.395994	0.133321	99
39
Properties=species:S:1:pos:R:3:Z:I:1 energy=-338.81955366471726 field_type=dipole dipole="0.000000 0.000000 0.000000" charge=0
N	-1.964310	-1.667801	0.834747	7
C	-2.039630	-0.414362	0.553017	6
N	-1.024260	0.395938	0.132637	7
C	0.286980	0.037868	-0.076853	6
C	1.282830	0.831518	-0.480883	6
C	2.638690	0.278478	-0.655063	6
O	3.567100	0.987358	-1.021433	8
H	-2.885790	-2.013132	1.124237	1
H	-2.999300	0.124818	0.640097	1
H	-1.245760	1.369569	-0.044833	1
H	0.457600	-1.019682	0.128767	1
H	1.159730	1.884778	-0.694873	1
H	2.766120	-0.795352	-0.439563	1
Es	-1.450580	0.028719	0.316501	99
Es	3.566919	0.986982	-1.021303	99
Es	0.404963	-0.655205	0.056857	99
Es	-2.039486	-0.414177	0.552937	99
Es	-1.015318	0.326741	0.146125	99
Es	1.282863	0.831519	-0.480886	99
Es	2.638637	0.278482	-0.655053	99
Es	-1.931973	-1.104805	0.994964	99
Es	1.940566	0.545964	-0.561875	99
Es	2.711463	-0.459879	-0.503445	99
Es	3.306569	0.802778	-0.703628	99
Es	-1.161632	0.964610	0.028519	99
Es	-2.523738	-1.878517	1.010964	99
Es	0.286697	0.037856	-0.076787	99
Es	0.967911	0.475341	-0.362333	99
Es	-2.048743	-1.224535	0.445883	99
Es	3.802505	1.156174	-1.116558	99
Es	3.154406	0.656052	-1.068476	99
Es	1.190037	1.539441	-0.623329	99
Es	-1.699035	-1.840829	0.817427	99
Es	-1.023922	0.395931	0.133963	99
Es	-0.455203	0.241569	0.041303	99
Es	0.763485	0.451656	-0.244341	99
Es	3.509553	0.959600	-1.002413	99
Es	-2.682127	-0.034397	0.606045	99
Es	-1.964733	-1.667417	0.834760	99
39
Properties=species:S:1:pos:R:3:Z:I:1 energy=-338.81955366471726 field_type=dipole dipole="0.000000 0.000000 0.000000" charge=0
N	-1.964310	-1.667801	0.834747	7
C	-2.039630	-0.414362	0.553017	6
N	-1.024260	0.395938	0.132637	7
C	0.286980	0.037868	-0.076853	6
C	1.282830	0.831518	-0.480883	6
C	2.638690	0.278478	-0.655063	6
O	3.567100	0.987358	-1.021433	8
H	-2.885790	-2.013132	1.124237	1
H	-2.999300	0.124818	0.640097	1
H	-1.245760	1.369569	-0.044833	1
H	0.457600	-1.019682	0.128767	1
H	1.159730	1.884778	-0.694873	1
H	2.766120	-0.795352	-0.439563	1
Es	-2.681368	-0.034644	0.605523	99
Es	-1.161764	0.963600	0.028783	99
Es	3.804466	1.153871	-1.115995	99
Es	-1.706455	-1.836850	0.818881	99
Es	-1.929551	-1.106264	0.998502	99
Es	-1.023873	0.395857	0.134132	99
Es	-1.450985	0.028568	0.315332	99
Es	0.961314	0.469526	-0.386297	99
Es	3.508253	0.963299	-1.002965	99
Es	2.711516	-0.459851	-0.503520	99
Es	0.404997	-0.654495	0.056756	99
Es	-0.454694	0.242451	0.043231	99
Es	-1.015498	0.326537	0.145081	99
Es	3.566634	0.985369	-1.020878	99
Es	3.153131	0.657054	-1.020409	99
Es	-2.523388	-1.879459	1.010531	99
Es	1.190375	1.539426	-0.623084	99
Es	3.307495	0.802084	-0.751906	99
Es	0.769987	0.457067	-0.221384	99
Es	-1.964737	-1.667388	0.834744	99
Es	1.282860	0.831522	-0.480886	99
Es	0.286694	0.037857	-0.076786	99
Es	2.638638	0.278481	-0.655052	99
Es	-2.039486	-0.414178	0.552938	99
Es	1.940410	0.546135	-0.561246	99
Es	-2.044890	-1.225921	0.441798	99
39
Properties=species:S:1:pos:R:3:Z:I:1 energy=-338.81955366471726 field_type=dipole dipole="0.000000 0.000000 0.000000" charge=0
N	-1.964310	-1.667801	0.834747	7
C	-2.039630	-0.414362	0.553017	6
N	-1.024260	0.395938	0.132637	7
C	0.286980	0.037868	-0.076853	6
C	1.282830	0.831518	-0.480883	6
C	2.638690	0.278478	-0.655063	6
O	3.567100	0.987358	-1.021433	8
H	-2.885790	-2.013132	1.124237	1
H	-2.999300	0.124818	0.640097	1
H	-1.245760	1.369569	-0.044833	1
H	0.457600	-1.019682	0.128767	1
H	1.159730	1.884778	-0.694873	1
H	2.766120	-0.795352	-0.439563	1
Es	2.711488	-0.459776	-0.503314	99
Es	-2.039484	-0.414178	0.552941	99
Es	-2.054165	-1.243499	0.450754	99
Es	0.405001	-0.653980	0.056095	99
Es	-2.522951	-1.880264	1.010686	99
Es	-1.916336	-1.090155	0.990616	99
Es	-1.023853	0.395845	0.134209	99
Es	2.638638	0.278481	-0.655054	99
Es	-0.454318	0.243342	0.043801	99
Es	1.940479	0.546309	-0.561243	99
Es	1.190478	1.539321	-0.622744	99
Es	0.751698	0.439428	-0.296402	99
Es	3.567067	0.986397	-1.021212	99
Es	3.218308	0.722562	-0.724171	99
Es	-1.964757	-1.667377	0.834754	99
Es	3.241470	0.734151	-1.054943	99
Es	-1.711403	-1.834949	0.815748	99
Es	-2.680854	-0.034301	0.607277	99
Es	0.979690	0.487313	-0.310773	99
Es	1.282862	0.831519	-0.480888	99
Es	-1.015696	0.326212	0.143931	99
Es	-1.161611	0.962635	0.030995	99
Es	3.507580	0.962559	-1.002611	99
Es	3.805473	1.155908	-1.109650	99
Es	0.286697	0.037857	-0.076789	99
Es	-1.451417	0.028294	0.313809	99
39
Properties=species:S:1:pos:R:3:Z:I:1 energy=-338.81955366471726 field_type=dipole dipole="0.000000 0.000000 0.000000" charge=0
N	-1.964310	-1.667801	0.834747	7
C	-2.039630	-0.414362	0.553017	6
N	-1.024260	0.395938	0.132637	7
C	0.286980	0.037868	-0.076853	6
C	1.282830	0.831518	-0.480883	6
C	2.638690	0.278478	-0.655063	6
O	3.567100	0.987358	-1.021433	8
H	-2.885790	-2.013132	1.124237	1
H	-2.999300	0.124818	0.640097	1
H	-1.245760	1.369569	-0.044833	1
H	0.457600	-1.019682	0.128767	1
H	1.159730	1.884778	-0.694873	1
H	2.766120	-0.795352	-0.439563	1
Es	2.711421	-0.459862	-0.503477	99
Es	1.190802	1.539395	-0.622304	99
Es	0.752905	0.440679	-0.290566	99
Es	-1.161395	0.962148	0.031798	99
Es	-1.016212	0.327289	0.142089	99
Es	1.940382	0.546345	-0.561130	99
Es	-2.523120	-1.880469	1.009873	99
Es	-1.451798	0.028297	0.312955	99
Es	3.509821	0.959555	-1.002447	99
Es	-1.023288	0.394751	0.136144	99
Es	-1.917500	-1.100480	1.001512	99
Es	3.804030	1.157839	-1.109684	99
Es	-2.680258	-0.034467	0.606768	99
Es	0.404995	-0.653482	0.055752	99
Es	-2.039484	-0.414176	0.552948	99
Es	1.282861	0.831519	-0.480890	99
Es	0.978452	0.485906	-0.316980	99
Es	-1.964736	-1.667401	0.834745	99
Es	0.286695	0.037857	-0.076788	99
Es	3.567039	0.986543	-1.021237	99
Es	-2.047611	-1.235738	0.440779	99
Es	-0.454301	0.243385	0.043950	99
Es	2.638638	0.278482	-0.655052	99
Es	3.258775	0.750775	-1.009477	99
Es	3.200255	0.706919	-0.769580	99
Es	-1.717286	-1.831956	0.816123	99
39
Properties=species:S:1:pos:R:3:Z:I:1 energy=-338.81955366471726 field_type=dipole dipole="0.000000 0.000000 0.000000" charge=0
N	-1.964310	-1.667801	0.834747	7
C	-2.039630	-0.414362	0.553017	6
N	-1.024260	0.395938	0.132637	7
C	0.286980	0.037868	-0.076853	6
C	1.282830	0.831518	-0.480883	6
C	2.638690	0.278478	-0.655063	6
O	3.567100	0.987358	-1.021433	8
H	-2.885790	-2.013132	1.124237	1
H	-2.999300	0.124818	0.640097	1
H	-1.245760	1.369569	-0.044833	1
H	0.457600	-1.019682	0.128767	1
H	1.159730	1.884778	-0.694873	1
H	2.766120	-0.795352	-0.439563	1
Es	-1.913303	-1.096255	0.998769	99
Es	-1.161905	0.960663	0.031406	99
Es	0.405073	-0.652952	0.055869	99
Es	3.194397	0.700894	-0.787969	99
Es	-1.720340	-1.829729	0.816493	99
Es	1.282861	0.831519	-0.480891	99
Es	3.804106	1.157041	-1.111079	99
Es	2.638639	0.278482	-0.655050	99
Es	-2.049459	-1.241655	0.442489	99
Es	-2.680009	-0.034562	0.606745	99
Es	-2.522644	-1.880891	1.010638	99
Es	-1.015833	0.326530	0.143361	99
Es	0.978278	0.485739	-0.317805	99
Es	3.566400	0.987469	-1.021304	99
Es	-1.023647	0.395511	0.134931	99
Es	-1.964735	-1.667419	0.834754	99
Es	-0.454250	0.244159	0.042944	99
Es	3.509988	0.959245	-1.002407	99
Es	1.940106	0.546293	-0.561296	99
Es	3.265001	0.756940	-0.989832	99
Es	2.711479	-0.459770	-0.503315	99
Es	1.190842	1.539298	-0.622912	99
Es	-2.039485	-0.414179	0.552947	99
Es	-1.451450	0.028569	0.314358	99
Es	0.753279	0.440856	-0.289232	99
Es	0.286694	0.037858	-0.076787	99
39
Properties=species:S:1:pos:R:3:Z:I:1 energy=-338.81955366471726 field_type=dipole dipole="0.000000 0.000000 0.000000" charge=0
N	-1.964310	-1.667801	0.834747	7
C	-2.039630	-0.414362	0.553017	6
N	-1.024260	0.395938	0.132637	7
C	0.286980	0.037868	-0.076853	6
C	1.282830	0.831518	-0.480883	6
C	2.638690	0.278478	-0.655063	6
O	3.567100	0.987358	-1.021433	8
H	-2.885790	-2.013132	1.124237	1
H	-2.999300	0.124818	0.640097	1
H	-1.245760	1.369569	-0.044833	1
H	0.457600	-1.019682	0.128767	1
H	1.159730	1.884778	-0.694873	1
H	2.766120	-0.795352	-0.439563	1
Es	-2.039484	-0.414175	0.552946	99
Es	-0.454411	0.244383	0.041546	99
Es	1.282862	0.831518	-0.480890	99
Es	-1.162219	0.959472	0.030502	99
Es	-2.522372	-1.881245	1.010808	99
Es	3.566893	0.987029	-1.021313	99
Es	0.286699	0.037854	-0.076789	99
Es	3.176084	0.684426	-0.852521	99
Es	0.405157	-0.652651	0.055902	99
Es	1.191052	1.539325	-0.622999	99
Es	2.638637	0.278481	-0.655052	99
Es	1.939995	0.546206	-0.561519	99
Es	-1.723831	-1.826963	0.818101	99
Es	3.282891	0.774771	-0.923693	99
Es	3.511207	0.957481	-1.002292	99
Es	-1.024139	0.395988	0.133091	99
Es	-2.679880	-0.034752	0.606183	99
Es	-2.045133	-1.239579	0.437630	99
Es	0.975263	0.482538	-0.331880	99
Es	2.711363	-0.459849	-0.503338	99
Es	-1.964712	-1.667441	0.834761	99
Es	0.756243	0.444152	-0.275105	99
Es	3.802822	1.157923	-1.112693	99
Es	-1.914595	-1.100495	1.002435	99
Es	-1.014906	0.326453	0.147042	99
Es	-1.451403	0.028801	0.314957	99
39
Properties=species:S:1:pos:R:3:Z:I:1 energy=-338.81955366471726 field_type=dipole dipole="0.000000 0.000000 0.000000" charge=0
N	-1.964310	-1.667801	0.834747	7
C	-2.039630	-0.414362	0.553017	6
N	-1.024260	0.395938	0.132637	7
C	0.286980	0.037868	-0.076853	6
C	1.282830	0.831518	-0.480883	6
C	2.638690	0.278478	-0.655063	6
O	3.567100	0.987358	-1.021433	8
H	-2.885790	-2.013132	1.124237	1
H	-2.999300	0.124818	0.640097	1
H	-1.245760	1.369569	-0.044833	1
H	0.457600	-1.019682	0.128767	1
H	1.159730	1.884778	-0.694873	1
H	2.766120	-0.795352	-0.439563	1
Es	2.638639	0.278482	-0.655051	99
Es	0.286698	0.037856	-0.076787	99
Es	3.191065	0.697394	-0.799253	99
Es	-1.162709	0.958534	0.028355	99
Es	1.940088	0.546405	-0.561589	99
Es	-2.053401	-1.255528	0.456774	99
Es	-0.454188	0.244768	0.042585	99
Es	-1.727627	-1.824840	0.817420	99
Es	3.566445	0.987460	-1.021310	99
Es	0.405220	-0.652312	0.056167	99
Es	-2.522036	-1.881070	1.012120	99
Es	0.755589	0.443221	-0.278537	99
Es	1.282862	0.831517	-0.480892	99
Es	0.976154	0.483512	-0.327782	99
Es	2.711416	-0.459733	-0.503067	99
Es	-1.451163	0.029074	0.316080	99
Es	3.803115	1.157458	-1.112832	99
Es	-1.964754	-1.667392	0.834752	99
Es	-1.016130	0.328614	0.142698	99
Es	3.510419	0.958630	-1.002370	99
Es	-2.680153	-0.034582	0.606913	99
Es	3.268772	0.760606	-0.977127	99
Es	-1.902529	-1.087032	0.982086	99
Es	-2.039485	-0.414178	0.552938	99
Es	1.190705	1.538981	-0.623765	99
Es	-1.022928	0.393807	0.137296	99
39
Properties=species:S:1:pos:R:3:Z:I:1 energy=-338.81955366471726 field_type=dipole dipole="0.000000 0.000000 0.000000" charge=0
N	-1.964310	-1.667801	0.834747	7
C	-2.039630	-0.414362	0.553017	6
N	-1.024260	0.395938	0.132637	7
C	0.286980	0.037868	-0.076853	6
C	1.282830	0.831518	-0.480883	6
C	2.638690	0.278478	-0.655063	6
O	3.567100	0.987358	-1.021433	8
H	-2.885790	-2.013132	1.124237	1
H	-2.999300	0.124818	0.640097	1
H	-1.245760	1.369569	-0.044833	1
H	0.457600	-1.019682	0.128767	1
H	1.159730	1.884778	-0.694873	1
H	2.766120	-0.795352	-0.439563	1
Es	-2.039485	-0.414179	0.552936	99
Es	3.173079	0.679777	-0.868863	99
Es	-2.522404	-1.882496	1.008628	99
Es	3.804856	1.156150	-1.110858	99
Es	-1.452154	0.027941	0.311380	99
Es	1.191554	1.539609	-0.621798	99
Es	-2.679785	-0.034865	0.606007	99
Es	1.282861	0.831518	-0.480892	99
Es	-1.014871	0.328025	0.147722	99
Es	3.508855	0.960517	-1.002458	99
Es	0.286695	0.037858	-0.076788	99
Es	0.754605	0.442166	-0.283116	99
Es	1.939762	0.546282	-0.561218	99
Es	-1.024666	0.393934	0.130238	99
Es	0.976789	0.484169	-0.324841	99
Es	-1.964753	-1.667398	0.834748	99
Es	2.711287	-0.459901	-0.503791	99
Es	-0.454347	0.244901	0.041814	99
Es	-1.931202	-1.129140	0.999499	99
Es	-1.730434	-1.822202	0.818994	99
Es	-2.021990	-1.214432	0.441851	99
Es	-1.161099	0.959708	0.036268	99
Es	2.638637	0.278481	-0.655054	99
Es	0.405078	-0.652127	0.055165	99
Es	3.286330	0.778316	-0.908442	99
Es	3.566887	0.987040	-1.021310	99
39
Properties=species:S:1:pos:R:3:Z:I:1 energy=-338.81955366471726 field_type=dipole dipole="0.000000 0.000000 0.000000" charge=0
N	-1.964310	-1.667801	0.834747	7
C	-2.039630	-0.414362	0.553017	6
N	-1.024260	0.395938	0.132637	7
C	0.286980	0.037868	-0.076853	6
C	1.282830	0.831518	-0.480883	6
C	2.638690	0.278478	-0.655063	6
O	3.567100	0.987358	-1.021433	8
H	-2.885790	-2.013132	1.124237	1
H	-2.999300	0.124818	0.640097	1
H	-1.245760	1.369569	-0.044833	1
H	0.457600	-1.019682	0.128767	1
H	1.159730	1.884778	-0.694873	1
H	2.766120	-0.795352	-0.439563	1
Es	-2.522508	-1.882415	1.008544	99
Es	0.405055	-0.651968	0.055033	99
Es	-2.039486	-0.414180	0.552935	99
Es	3.510106	0.958960	-1.002345	99
Es	0.286697	0.037858	-0.076788	99
Es	-1.161138	0.959358	0.036214	99
Es	-1.023797	0.395791	0.134407	99
Es	0.977452	0.484873	-0.321727	99
Es	1.191529	1.539611	-0.621581	99
Es	2.711236	-0.459921	-0.503848	99
Es	-1.934298	-1.136151	0.995164	99
Es	3.289250	0.781274	-0.894666	99
Es	-1.734070	-1.820006	0.818744	99
Es	3.169856	0.677232	-0.882620	99
Es	0.753958	0.441450	-0.286242	99
Es	-2.014922	-1.209646	0.446774	99
Es	3.803840	1.157448	-1.110984	99
Es	-1.964768	-1.667389	0.834741	99
Es	1.282862	0.831517	-0.480891	99
Es	-1.015671	0.326211	0.143810	99
Es	2.638638	0.278482	-0.655053	99
Es	-1.452170	0.028041	0.311553	99
Es	3.566966	0.986887	-1.021291	99
Es	-0.454374	0.244979	0.041546	99
Es	1.939825	0.546319	-0.561363	99
Es	-2.679982	-0.034962	0.605757	99
39
Properties=species:S:1:pos:R:3:Z:I:1 energy=-338.81955366471726 field_type=dipole dipole="0.000000 0.000000 0.000000" charge=0
N	-1.964310	-1.667801	0.834747	7
C	-2.039630	-0.414362	0.553017	6
N	-1.024260	0.395938	0.132637	7
C	0.286980	0.037868	-0.076853	6
C	1.282830	0.831518	-0.480883	6
C	2.638690	0.278478	-0.655063	6
O	3.567100	0.987358	-1.021433	8
H	-2.885790	-2.013132	1.124237	1
H	-2.999300	0.124818	0.640097	1
H	-1.245760	1.369569	-0.044833	1
H	0.457600	-1.019682	0.128767	1
H	1.159730	1.884778	-0.694873	1
H	2.766120	-0.795352	-0.439563	1
Es	-1.016500	0.358226	0.151373	99
Es	-1.964756	-1.667393	0.834755	99
Es	3.510275	0.958867	-1.002397	99
Es	0.968695	0.476116	-0.359291	99
Es	-1.737113	-1.817306	0.819977	99
Es	1.939690	0.546330	-0.561088	99
Es	3.184918	0.692320	-0.819324	99
Es	-0.453955	0.245096	0.044097	99
Es	3.567029	0.986663	-1.021260	99
Es	2.638639	0.278482	-0.655050	99
Es	-1.451060	0.029279	0.316768	99
Es	2.711430	-0.459688	-0.502906	99
Es	3.274600	0.766406	-0.956465	99
Es	1.191146	1.539041	-0.624262	99
Es	-1.163223	0.957233	0.026078	99
Es	-2.680099	-0.034655	0.606922	99
Es	-2.039484	-0.414180	0.552936	99
Es	3.802962	1.157279	-1.113554	99
Es	-2.053777	-1.265959	0.477827	99
Es	-1.893408	-1.083415	0.957703	99
Es	-1.022517	0.364331	0.128794	99
Es	0.763012	0.450507	-0.247341	99
Es	0.286694	0.037859	-0.076787	99
Es	0.405329	-0.651558	0.056263	99
Es	1.282864	0.831520	-0.480879	99
Es	-2.521309	-1.881750	1.012935	99
39
Properties=species:S:1:pos:R:3:Z:I:1 energy=-338.81955366471726 field_type=dipole dipole="0.000000 0.000000 0.000000" charge=0
N	-1.964310	-1.667801	0.834747	7
C	-2.039630	-0.414362	0.553017	6
N	-1.024260	0.395938	0.132637	7
C	0.286980	0.037868	-0.076853	6
C	1.282830	0.831518	-0.480883	6
C	2.638690	0.278478	-0.655063	6
O	3.567100	0.987358	-1.021433	8
H	-2.885790	-2.013132	1.124237	1
H	-2.999300	0.124818	0.640097	1
H	-1.245760	1.369569	-0.044833	1
H	0.457600	-1.019682	0.128767	1
H	1.159730	1.884778	-0.694873	1
H	2.766120	-0.795352	-0.439563	1
Es	-1.739685	-1.816348	0.818398	99
Es	0.286695	0.037858	-0.076788	99
Es	3.172484	0.679598	-0.870771	99
Es	3.286690	0.778696	-0.906758	99
Es	3.512083	0.956736	-1.002311	99
Es	2.711322	-0.459850	-0.503940	99
Es	-1.160574	0.958896	0.038576	99
Es	0.981591	0.489545	-0.300745	99
Es	3.566179	0.987558	-1.021276	99
Es	-1.024201	0.395951	0.132817	99
Es	-2.680172	-0.034920	0.605967	99
Es	-1.964735	-1.667422	0.834746	99
Es	1.191701	1.539628	-0.621552	99
Es	1.939544	0.546205	-0.561437	99
Es	0.749885	0.436779	-0.307044	99
Es	-2.039485	-0.414177	0.552940	99
Es	3.802583	1.159241	-1.110743	99
Es	-2.003914	-1.202942	0.456277	99
Es	-2.522614	-1.882427	1.008292	99
Es	2.638638	0.278482	-0.655053	99
Es	-0.454541	0.245199	0.040365	99
Es	-1.015487	0.325896	0.144402	99
Es	1.282864	0.831521	-0.480876	99
Es	0.405038	-0.651734	0.054892	99
Es	-1.452343	0.028185	0.311445	99
Es	-1.939466	-1.146500	0.986000	99
39
Properties=species:S:1:pos:R:3:Z:I:1 energy=-338.81955366471726 field_type=dipole dipole="0.000000 0.000000 0.000000" charge=0
N	-1.964310	-1.667801	0.834747	7
C	-2.039630	-0.414362	0.553017	6
N	-1.024260	0.395938	0.132637	7
C	0.286980	0.037868	-0.076853	6
C	1.282830	0.831518	-0.480883	6
C	2.638690	0.278478	-0.655063	6
O	3.567100	0.987358	-1.021433	8
H	-2.885790	-2.013132	1.124237	1
H	-2.999300	0.124818	0.640097	1
H	-1.245760	1.369569	-0.044833	1
H	0.457600	-1.019682	0.128767	1
H	1.159730	1.884778	-0.694873	1
H	2.766120	-0.795352	-0.439563	1
Es	-1.888570	-1.084063	0.944074	99
Es	-1.163434	0.955487	0.026855	99
Es	0.970465	0.477828	-0.352197	99
Es	-1.014333	0.327857	0.149671	99
Es	1.282862	0.831516	-0.480893	99
Es	0.286698	0.037856	-0.076787	99
Es	-2.679984	-0.034714	0.606969	99
Es	1.939775	0.546272	-0.561262	99
Es	3.566727	0.987234	-1.021318	99
Es	2.711328	-0.459701	-0.502821	99
Es	0.761298	0.448935	-0.254067	99
Es	2.638639	0.278482	-0.655051	99
Es	-1.741374	-1.814683	0.818659	99
Es	-1.451026	0.029314	0.316907	99
Es	-2.039492	-0.414179	0.552923	99
Es	-1.964748	-1.667398	0.834753	99
Es	-1.024601	0.394708	0.130759	99
Es	-2.521023	-1.882010	1.013274	99
Es	3.190000	0.696919	-0.802028	99
Es	3.510170	0.958773	-1.002407	99
Es	3.269978	0.761366	-0.973514	99
Es	3.802874	1.157239	-1.113847	99
Es	0.405343	-0.651106	0.056185	99
Es	-2.054756	-1.267613	0.492428	99
Es	1.191176	1.538933	-0.624468	99
Es	-0.453910	0.246402	0.043025	99
39
Properties=species:S:1:pos:R:3:Z:I:1 energy=-338.81955366471726 field_type=dipole dipole="0.000000 0.000000 0.000000" charge=0
N	-1.964310	-1.667801	0.834747	7
C	-2.039630	-0.414362	0.553017	6
N	-1.024260	0.395938	0.132637	7
C	0.286980	0.037868	-0.076853	6
C	1.282830	0.831518	-0.480883	6
C	2.638690	0.278478	-0.655063	6
O	3.567100	0.987358	-1.021433	8
H	-2.885790	-2.013132	1.124237	1
H	-2.999300	0.124818	0.640097	1
H	-1.245760	1.369569	-0.044833	1
H	0.457600	-1.019682	0.128767	1
H	1.159730	1.884778	-0.694873	1
H	2.766120	-0.795352	-0.439563	1
Es	-2.054454	-1.268893	0.497704	99
Es	0.286698	0.037856	-0.076788	99
Es	0.970536	0.477897	-0.351910	99
Es	-1.024579	0.394730	0.130850	99
Es	1.191176	1.538984	-0.624407	99
Es	-1.163672	0.955024	0.025788	99
Es	3.566526	0.987407	-1.021316	99
Es	-2.680043	-0.034602	0.607484	99
Es	1.939685	0.546324	-0.561206	99
Es	3.510471	0.958515	-1.002356	99
Es	2.638639	0.278482	-0.655051	99
Es	-1.450988	0.029385	0.317127	99
Es	-2.039484	-0.414177	0.552940	99
Es	-1.964765	-1.667383	0.834754	99
Es	-0.454009	0.246563	0.042185	99
Es	3.191172	0.697755	-0.798529	99
Es	-1.014011	0.328287	0.151193	99
Es	0.405344	-0.651357	0.056293	99
Es	3.268697	0.760544	-0.977216	99
Es	-1.744122	-1.812634	0.819069	99
Es	1.282862	0.831518	-0.480889	99
Es	3.802877	1.157315	-1.113697	99
Es	2.711381	-0.459694	-0.502840	99
Es	-2.521160	-1.881915	1.013102	99
Es	0.761216	0.448787	-0.254499	99
Es	-1.885910	-1.085066	0.938035	99
39
Properties=species:S:1:pos:R:3:Z:I:1 energy=-338.81955366471726 field_type=dipole dipole="0.000000 0.000000 0.000000" charge=0
N	-1.964310	-1.667801	0.834747	7
C	-2.039630	-0.414362	0.553017	6
N	-1.024260	0.395938	0.132637	7
C	0.286980	0.037868	-0.076853	6
C	1.282830	0.831518	-0.480883	6
C	2.638690	0.278478	-0.655063	6
O	3.567100	0.987358	-1.021433	8
H	-2.885790	-2.013132	1.124237	1
H	-2.999300	0.124818	0.640097	1
H	-1.245760	1.369569	-0.044833	1
H	0.457600	-1.019682	0.128767	1
H	1.159730	1.884778	-0.694873	1
H	2.766120	-0.795352	-0.439563	1
Es	3.566496	0.987398	-1.021312	99
Es	-2.039485	-0.414179	0.552935	99
Es	3.270834	0.762651	-0.969906	99
Es	-0.453850	0.246486	0.043378	99
Es	1.939611	0.546278	-0.561052	99
Es	0.763423	0.450880	-0.245763	99
Es	3.800968	1.159701	-1.113965	99
Es	1.282863	0.831520	-0.480880	99
Es	-1.964713	-1.667428	0.834773	99
Es	1.191195	1.538956	-0.624534	99
Es	-2.521099	-1.881824	1.013411	99
Es	0.405432	-0.650844	0.056173	99
Es	3.512308	0.956192	-1.002237	99
Es	0.286696	0.037857	-0.076787	99
Es	-1.883281	-1.086529	0.934844	99
Es	-1.014413	0.327168	0.149098	99
Es	2.711452	-0.459630	-0.502840	99
Es	2.638639	0.278482	-0.655051	99
Es	0.968319	0.475796	-0.360701	99
Es	-2.680239	-0.034633	0.607258	99
Es	-1.746231	-1.811639	0.817620	99
Es	-2.054905	-1.268417	0.502249	99
Es	-1.163646	0.954741	0.025674	99
Es	3.189137	0.695591	-0.805704	99
Es	-1.451011	0.029512	0.317341	99
Es	-1.024418	0.395568	0.131798	99
39
Properties=species:S:1:pos:R:3:Z:I:1 energy=-338.81955366471726 field_type=dipole dipole="0.000000 0.000000 0.000000" charge=0
N	-1.964310	-1.667801	0.834747	7
C	-2.039630	-0.414362	0.553017	6
N	-1.024260	0.395938	0.132637	7
C	0.286980	0.037868	-0.076853	6
C	1.282830	0.831518	-0.480883	6
C	2.638690	0.278478	-0.655063	6
O	3.567100	0.987358	-1.021433	8
H	-2.885790	-2.013132	1.124237	1
H	-2.999300	0.124818	0.640097	1
H	-1.245760	1.369569	-0.044833	1
H	0.457600	-1.019682	0.128767	1
H	1.159730	1.884778	-0.694873	1
H	2.766120	-0.795352	-0.439563	1
Es	0.980774	0.488615	-0.305057	99
Es	-1.452233	0.028112	0.311573	99
Es	0.750680	0.437709	-0.302798	99
Es	-1.746086	-1.810613	0.820357	99
Es	-1.015346	0.325940	0.144883	99
Es	0.405049	-0.651286	0.054816	99
Es	3.293593	0.785928	-0.871682	99
Es	3.566852	0.987094	-1.021305	99
Es	-2.680076	-0.035073	0.605711	99
Es	-1.988420	-1.195967	0.471469	99
Es	-1.024241	0.395918	0.132647	99
Es	2.638637	0.278482	-0.655056	99
Es	-1.964517	-1.667587	0.834775	99
Es	-0.454373	0.247036	0.039982	99
Es	1.939526	0.546254	-0.561502	99
Es	-1.949269	-1.158174	0.969248	99
Es	3.511574	0.956987	-1.002257	99
Es	3.165944	0.672101	-0.905465	99
Es	1.192013	1.539680	-0.621522	99
Es	-2.039482	-0.414179	0.552941	99
Es	-1.160970	0.956690	0.038626	99
Es	-2.522220	-1.883146	1.008142	99
Es	1.282861	0.831520	-0.480890	99
Es	0.286695	0.037858	-0.076790	99
Es	2.711053	-0.459978	-0.503907	99
Es	3.802065	1.159735	-1.111120	99
39
Properties=species:S:1:pos:R:3:Z:I:1 energy=-338.81955366471726 field_type=dipole dipole="0.000000 0.000000 0.000000" charge=0
N	-1.964310	-1.667801	0.834747	7
C	-2.039630	-0.414362	0.553017	6
N	-1.024260	0.395938	0.132637	7
C	0.286980	0.037868	-0.076853	6
C	1.282830	0.831518	-0.480883	6
C	2.638690	0.278478	-0.655063	6
O	3.567100	0.987358	-1.021433	8
H	-2.885790	-2.013132	1.124237	1
H	-2.999300	0.124818	0.640097	1
H	-1.245760	1.369569	-0.044833	1
H	0.457600	-1.019682	0.128767	1
H	1.159730	1.884778	-0.694873	1
H	2.766120	-0.795352	-0.439563	1
Es	3.511301	0.957365	-1.002289	99
Es	0.405151	-0.650864	0.054607	99
Es	-2.039484	-0.414176	0.552946	99
Es	2.638638	0.278482	-0.655054	99
Es	-1.964760	-1.667386	0.834734	99
Es	1.192148	1.539762	-0.621471	99
Es	3.802144	1.159915	-1.110498	99
Es	-0.454329	0.246164	0.041084	99
Es	3.566903	0.987009	-1.021311	99
Es	-1.024637	0.394350	0.130505	99
Es	-1.452527	0.027994	0.310602	99
Es	2.711124	-0.459947	-0.503983	99
Es	-1.015017	0.327478	0.146808	99
Es	-2.522266	-1.883239	1.007826	99
Es	0.750469	0.437446	-0.303927	99
Es	3.290454	0.782635	-0.888351	99
Es	1.939290	0.546177	-0.561495	99
Es	-1.948761	-1.160483	0.968782	99
Es	-1.748526	-1.809476	0.818682	99
Es	-2.680267	-0.035135	0.605352	99
Es	0.286696	0.037857	-0.076788	99
Es	1.282861	0.831520	-0.480887	99
Es	-1.986017	-1.194850	0.474271	99
Es	-1.160745	0.957233	0.038842	99
Es	3.169230	0.674945	-0.889314	99
Es	0.981009	0.488876	-0.303851	99
39
Properties=species:S:1:pos:R:3:Z:I:1 energy=-338.81955366471726 field_type=dipole dipole="0.000000 0.000000 0.000000" charge=0
N	-1.964310	-1.667801	0.834747	7
C	-2.039630	-0.414362	0.553017	6
N	-1.024260	0.395938	0.132637	7
C	0.286980	0.037868	-0.076853	6
C	1.282830	0.831518	-0.480883	6
C	2.638690	0.278478	-0.655063	6
O	3.567100	0.987358	-1.021433	8
H	-2.885790	-2.013132	1.124237	1
H	-2.999300	0.124818	0.640097	1
H	-1.245760	1.369569	-0.044833	1
H	0.457600	-1.019682	0.128767	1
H	1.159730	1.884778	-0.694873	1
H	2.766120	-0.795352	-0.439563	1
Es	-1.163602	0.954475	0.026736	99
Es	-1.024553	0.394991	0.131048	99
Es	3.802611	1.157319	-1.114340	99
Es	-1.450748	0.029510	0.317934	99
Es	2.638638	0.278483	-0.655052	99
Es	-1.881109	-1.087595	0.920821	99
Es	-2.054076	-1.270638	0.514070	99
Es	1.191671	1.539117	-0.624771	99
Es	3.191984	0.698278	-0.796233	99
Es	0.760131	0.447658	-0.259069	99
Es	0.971749	0.479092	-0.346902	99
Es	3.268134	0.759980	-0.979008	99
Es	2.711308	-0.459679	-0.502767	99
Es	-1.964772	-1.667357	0.834755	99
Es	-0.454176	0.246488	0.041854	99
Es	-1.014278	0.327679	0.149850	99
Es	-2.520792	-1.882212	1.013564	99
Es	-1.749868	-1.808070	0.819297	99
Es	3.509984	0.959207	-1.002408	99
Es	1.939176	0.546099	-0.561296	99
Es	0.286698	0.037856	-0.076787	99
Es	1.282861	0.831518	-0.480892	99
Es	3.566984	0.986743	-1.021272	99
Es	0.405444	-0.650488	0.056087	99
Es	-2.679834	-0.034622	0.607667	99
Es	-2.039485	-0.414179	0.552936	99
39
Properties=species:S:1:pos:R:3:Z:I:1 energy=-338.81955366471726 field_type=dipole dipole="0.000000 0.000000 0.000000" charge=0
N	-1.964310	-1.667801	0.834747	7
C	-2.039630	-0.414362	0.553017	6
N	-1.024260	0.395938	0.132637	7
C	0.286980	0.037868	-0.076853	6
C	1.282830	0.831518	-0.480883	6
C	2.638690	0.278478	-0.655063	6
O	3.567100	0.987358	-1.021433	8
H	-2.885790	-2.013132	1.124237	1
H	-2.999300	0.124818	0.640097	1
H	-1.245760	1.369569	-0.044833	1
H	0.457600	-1.019682	0.128767	1
H	1.159730	1.884778	-0.694873	1
H	2.766120	-0.795352	-0.439563	1
Es	1.938658	0.545726	-0.561650	99
Es	3.799727	1.160324	-1.115697	99
Es	-1.023937	0.395931	0.133884	99
Es	-2.521222	-1.883158	1.011040	99
Es	3.566833	0.987115	-1.021320	99
Es	-2.015653	-1.232143	0.774425	99
Es	-1.964657	-1.667493	0.834750	99
Es	3.159843	0.660093	-1.103200	99
Es	-1.451163	0.029089	0.316171	99
Es	0.286696	0.037859	-0.076787	99
Es	-1.162420	0.955509	0.032191	99
Es	-0.454600	0.246635	0.039314	99
Es	3.513133	0.954991	-1.002162	99
Es	-1.015098	0.326334	0.145974	99
Es	3.300336	0.799237	-0.670090	99
Es	1.282861	0.831517	-0.480892	99
Es	2.710932	-0.459806	-0.503392	99
Es	2.638638	0.278482	-0.655052	99
Es	-1.911112	-1.129183	0.662368	99
Es	-2.039485	-0.414179	0.552936	99
Es	1.192483	1.539761	-0.623703	99
Es	0.405266	-0.650997	0.055590	99
Es	-1.754538	-1.803357	0.821148	99
Es	0.758358	0.445747	-0.266841	99
Es	-2.683277	-0.035230	0.606313	99
Es	0.973480	0.480849	-0.339495	99
