39
Properties=species:S:1:pos:R:3:Z:I:1 energy=-338.6952719651994 field_type=dipole dipole="0.000000 0.000000 0.000000" charge=0
N	-3.124729	-0.503660	-1.051453	7
C	-1.872019	-0.235950	-0.927013	6
N	-1.238389	-0.115091	0.271177	7
O	0.098861	-0.525070	0.215867	8
C	0.890851	0.563869	0.706497	6
C	2.310050	0.195600	0.643357	6
C	3.472921	-0.103940	0.590117	6
H	-3.364499	-0.535331	-2.049233	1
H	-1.219799	-0.069590	-1.802313	1
H	-1.772469	-0.536561	1.029257	1
H	0.606111	0.783979	1.742047	1
H	0.710321	1.453290	0.091497	1
H	4.502791	-0.371540	0.540197	1
Es	-1.540767	-0.385626	0.713076	99
Es	2.309773	0.195665	0.643362	99
Es	-3.256264	-0.511677	-1.652887	99
Es	3.473137	-0.103991	0.590102	99
Es	-1.499352	-0.242196	-0.240403	99
Es	0.782934	1.159900	0.291565	99
Es	-1.421679	-0.121903	-1.511129	99
Es	4.142988	-0.277014	0.558698	99
Es	1.626105	0.362832	0.670805	99
Es	2.818895	-0.267598	0.770237	99
Es	0.387254	-0.096744	0.406861	99
Es	0.098735	-0.524706	0.215988	99
Es	0.125459	-0.756948	0.419917	99
Es	0.711400	0.709331	1.404370	99
Es	-3.361324	-0.566334	-0.779685	99
Es	-0.503517	-0.330194	0.246433	99
Es	2.956297	0.336386	0.823990	99
Es	-1.871908	-0.235899	-0.926883	99
Es	-3.124337	-0.503550	-1.051777	99
Es	-1.285085	0.220260	0.252142	99
Es	2.897926	0.079347	0.259388	99
Es	-2.667243	-0.115322	-1.001356	99
Es	0.890880	0.563632	0.706407	99
Es	-2.564937	-0.673108	-1.031227	99
Es	-1.238406	-0.115761	0.270911	99
Es	0.160844	-0.553050	-0.088725	99
39
Properties=species:S:1:pos:R:3:Z:I:1 energy=-338.6952719651994 field_type=dipole dipole="0.000000 0.000000 0.000000" charge=0
N	-3.124729	-0.503660	-1.051453	7
C	-1.872019	-0.235950	-0.927013	6
N	-1.238389	-0.115091	0.271177	7
O	0.098861	-0.525070	0.215867	8
C	0.890851	0.563869	0.706497	6
C	2.310050	0.195600	0.643357	6
C	3.472921	-0.103940	0.590117	6
H	-3.364499	-0.535331	-2.049233	1
H	-1.219799	-0.069590	-1.802313	1
H	-1.772469	-0.536561	1.029257	1
H	0.606111	0.783979	1.742047	1
H	0.710321	1.453290	0.091497	1
H	4.502791	-0.371540	0.540197	1
Es	0.709769	0.710220	1.400412	99
Es	0.098692	-0.524701	0.216117	99
Es	-3.258152	-0.508462	-1.650299	99
Es	2.791279	-0.246423	0.454524	99
Es	-1.421304	-0.125601	-1.510552	99
Es	-0.505434	-0.327082	0.246985	99
Es	2.920971	0.062756	0.968510	99
Es	1.628412	0.361742	0.669667	99
Es	3.473159	-0.103993	0.590105	99
Es	-2.561726	-0.678678	-1.028492	99
Es	2.960456	0.330923	0.430587	99
Es	-1.238371	-0.115785	0.270930	99
Es	2.309765	0.195681	0.643373	99
Es	-3.363189	-0.553883	-0.777106	99
Es	4.145836	-0.274552	0.560120	99
Es	0.392351	-0.098058	0.410254	99
Es	0.890879	0.563629	0.706405	99
Es	-1.871899	-0.235919	-0.926881	99
Es	-3.124365	-0.503552	-1.051769	99
Es	-1.502499	-0.235853	-0.245497	99
Es	-1.540479	-0.382329	0.713811	99
Es	-1.284689	0.205595	0.253120	99
Es	0.161558	-0.557358	-0.080574	99
Es	0.124150	-0.748970	0.409600	99
Es	-2.668471	-0.120938	-1.008167	99
Es	0.781108	1.157324	0.294995	99
39
Properties=species:S:1:pos:R:3:Z:I:1 energy=-338.6952719651994 field_type=dipole dipole="0.000000 0.000000 0.000000" charge=0
N	-3.124729	-0.503660	-1.051453	7
C	-1.872019	-0.235950	-0.927013	6
N	-1.238389	-0.115091	0.271177	7
O	0.098861	-0.525070	0.215867	8
C	0.890851	0.563869	0.706497	6
C	2.310050	0.195600	0.643357	6
C	3.472921	-0.103940	0.590117	6
H	-3.364499	-0.535331	-2.049233	1
H	-1.219799	-0.069590	-1.802313	1
H	-1.772469	-0.536561	1.029257	1
H	0.606111	0.783979	1.742047	1
H	0.710321	1.453290	0.091497	1
H	4.502791	-0.371540	0.540197	1
Es	0.890883	0.563637	0.706408	99
Es	-2.672359	-0.125654	-1.012691	99
Es	-3.124366	-0.503551	-1.051788	99
Es	4.146875	-0.272621	0.561457	99
Es	0.709311	0.710616	1.397150	99
Es	-1.540082	-0.379153	0.714947	99
Es	-1.283265	0.193588	0.253323	99
Es	0.397936	-0.099874	0.411822	99
Es	0.120737	-0.738046	0.401857	99
Es	0.160450	-0.564207	-0.073388	99
Es	-2.557188	-0.678275	-1.026967	99
Es	-1.421341	-0.127670	-1.510200	99
Es	-3.364633	-0.548599	-0.775167	99
Es	-1.505094	-0.230177	-0.249097	99
Es	1.629677	0.360886	0.669522	99
Es	-1.871900	-0.235919	-0.926882	99
Es	2.962654	0.357556	0.491587	99
Es	2.910484	0.005121	0.959910	99
Es	2.799444	-0.215557	0.401622	99
Es	0.098698	-0.524762	0.216218	99
Es	3.473161	-0.103993	0.590112	99
Es	-0.506163	-0.326006	0.246783	99
Es	0.780539	1.155255	0.297524	99
Es	-1.238301	-0.115647	0.271004	99
Es	-3.258114	-0.506903	-1.648267	99
Es	2.309765	0.195686	0.643377	99
39
Properties=species:S:1:pos:R:3:Z:I:1 energy=-338.6952719651994 field_type=dipole dipole="0.000000 0.000000 0.000000" charge=0
N	-3.124729	-0.503660	-1.051453	7
C	-1.872019	-0.235950	-0.927013	6
N	-1.238389	-0.115091	0.271177	7
O	0.098861	-0.525070	0.215867	8
C	0.890851	0.563869	0.706497	6
C	2.310050	0.195600	0.643357	6
C	3.472921	-0.103940	0.590117	6
H	-3.364499	-0.535331	-2.049233	1
H	-1.219799	-0.069590	-1.802313	1
H	-1.772469	-0.536561	1.029257	1
H	0.606111	0.783979	1.742047	1
H	0.710321	1.453290	0.091497	1
H	4.502791	-0.371540	0.540197	1
Es	-1.421323	-0.129041	-1.509930	99
Es	1.630428	0.360857	0.669663	99
Es	-0.506419	-0.325138	0.245721	99
Es	-3.255597	-0.505219	-1.646066	99
Es	2.796247	-0.228029	0.419551	99
Es	0.159422	-0.571682	-0.066679	99
Es	2.309756	0.195677	0.643361	99
Es	-1.539417	-0.377864	0.714511	99
Es	-1.238308	-0.115692	0.270990	99
Es	0.890880	0.563630	0.706407	99
Es	0.116614	-0.725334	0.395327	99
Es	0.709534	0.710494	1.394166	99
Es	-1.507517	-0.224098	-0.252095	99
Es	2.961144	0.345030	0.474728	99
Es	3.473166	-0.103992	0.590118	99
Es	-3.367939	-0.545007	-0.774680	99
Es	-2.675762	-0.130397	-1.015668	99
Es	0.780196	1.153903	0.299510	99
Es	-3.124317	-0.503541	-1.051793	99
Es	-1.281838	0.184256	0.255107	99
Es	-1.871900	-0.235913	-0.926881	99
Es	0.403052	-0.103756	0.413622	99
Es	4.147267	-0.271816	0.562485	99
Es	-2.553442	-0.677130	-1.025839	99
Es	0.098691	-0.524628	0.215980	99
Es	2.915189	0.030163	0.958562	99
39
Properties=species:S:1:pos:R:3:Z:I:1 energy=-338.6952719651994 field_type=dipole dipole="0.000000 0.000000 0.000000" charge=0
N	-3.124729	-0.503660	-1.051453	7
C	-1.872019	-0.235950	-0.927013	6
N	-1.238389	-0.115091	0.271177	7
O	0.098861	-0.525070	0.215867	8
C	0.890851	0.563869	0.706497	6
C	2.310050	0.195600	0.643357	6
C	3.472921	-0.103940	0.590117	6
H	-3.364499	-0.535331	-2.049233	1
H	-1.219799	-0.069590	-1.802313	1
H	-1.772469	-0.536561	1.029257	1
H	0.606111	0.783979	1.742047	1
H	0.710321	1.453290	0.091497	1
H	4.502791	-0.371540	0.540197	1
Es	-1.538211	-0.378380	0.712121	99
Es	2.956058	0.305342	0.431770	99
Es	1.630847	0.360973	0.670031	99
Es	-1.238323	-0.115758	0.270965	99
Es	4.147442	-0.271314	0.563352	99
Es	2.790817	-0.252480	0.461891	99
Es	-3.375269	-0.542615	-0.776540	99
Es	3.473169	-0.103983	0.590117	99
Es	0.779563	1.153720	0.301318	99
Es	-1.421696	-0.130028	-1.509652	99
Es	0.890881	0.563630	0.706406	99
Es	-3.124320	-0.503538	-1.051796	99
Es	0.098765	-0.524779	0.215919	99
Es	-0.506538	-0.324919	0.245015	99
Es	-1.280710	0.177589	0.258737	99
Es	0.115416	-0.721145	0.388337	99
Es	2.925676	0.094212	0.959061	99
Es	-1.509608	-0.217979	-0.254422	99
Es	-2.680659	-0.137344	-1.018500	99
Es	-1.871900	-0.235925	-0.926882	99
Es	2.309754	0.195672	0.643365	99
Es	-3.248555	-0.503578	-1.642926	99
Es	0.710564	0.709447	1.391068	99
Es	0.407652	-0.108338	0.412897	99
Es	-2.548443	-0.672997	-1.023771	99
Es	0.155432	-0.569755	-0.057701	99
39
Properties=species:S:1:pos:R:3:Z:I:1 energy=-338.6952719651994 field_type=dipole dipole="0.000000 0.000000 0.000000" charge=0
N	-3.124729	-0.503660	-1.051453	7
C	-1.872019	-0.235950	-0.927013	6
N	-1.238389	-0.115091	0.271177	7
O	0.098861	-0.525070	0.215867	8
C	0.890851	0.563869	0.706497	6
C	2.310050	0.195600	0.643357	6
C	3.472921	-0.103940	0.590117	6
H	-3.364499	-0.535331	-2.049233	1
H	-1.219799	-0.069590	-1.802313	1
H	-1.772469	-0.536561	1.029257	1
H	0.606111	0.783979	1.742047	1
H	0.710321	1.453290	0.091497	1
H	4.502791	-0.371540	0.540197	1
Es	0.411469	-0.114775	0.412456	99
Es	2.959455	0.332434	0.463184	99
Es	0.778768	1.154057	0.303091	99
Es	-3.385991	-0.541894	-0.781742	99
Es	2.793699	-0.239513	0.435749	99
Es	-0.506440	-0.324172	0.243586	99
Es	1.631004	0.360704	0.670417	99
Es	-1.279350	0.168672	0.260547	99
Es	0.890883	0.563634	0.706408	99
Es	0.098661	-0.524776	0.216409	99
Es	0.711971	0.708014	1.388080	99
Es	-3.124286	-0.503530	-1.051823	99
Es	-1.238358	-0.115858	0.270921	99
Es	-1.536434	-0.376390	0.711111	99
Es	3.473169	-0.103986	0.590125	99
Es	0.159180	-0.598346	-0.052248	99
Es	-2.545511	-0.669533	-1.022525	99
Es	2.919445	0.054360	0.953477	99
Es	2.309752	0.195659	0.643356	99
Es	-1.421892	-0.130386	-1.509469	99
Es	-2.683606	-0.142945	-1.019772	99
Es	-1.871900	-0.235925	-0.926882	99
Es	0.107187	-0.685292	0.384823	99
Es	-1.512657	-0.212029	-0.255928	99
Es	4.147509	-0.270856	0.564300	99
Es	-3.237920	-0.501594	-1.637471	99
39
Properties=species:S:1:pos:R:3:Z:I:1 energy=-338.6952719651994 field_type=dipole dipole="0.000000 0.000000 0.000000" charge=0
N	-3.124729	-0.503660	-1.051453	7
C	-1.872019	-0.235950	-0.927013	6
N	-1.238389	-0.115091	0.271177	7
O	0.098861	-0.525070	0.215867	8
C	0.890851	0.563869	0.706497	6
C	2.310050	0.195600	0.643357	6
C	3.472921	-0.103940	0.590117	6
H	-3.364499	-0.535331	-2.049233	1
H	-1.219799	-0.069590	-1.802313	1
H	-1.772469	-0.536561	1.029257	1
H	0.606111	0.783979	1.742047	1
H	0.710321	1.453290	0.091497	1
H	4.502791	-0.371540	0.540197	1
Es	0.890879	0.563627	0.706410	99
Es	1.631094	0.360635	0.670158	99
Es	-3.221582	-0.500302	-1.625199	99
Es	0.712712	0.707316	1.386549	99
Es	3.473169	-0.103983	0.590131	99
Es	-0.506495	-0.324171	0.243921	99
Es	-1.238469	-0.115964	0.270804	99
Es	2.932452	0.139273	0.956708	99
Es	-1.278133	0.160259	0.260683	99
Es	-3.402164	-0.541064	-0.794755	99
Es	0.117364	-0.725534	0.371933	99
Es	-3.124311	-0.503541	-1.051793	99
Es	0.412938	-0.119916	0.414300	99
Es	-1.871900	-0.235926	-0.926882	99
Es	0.778484	1.153929	0.304211	99
Es	2.789869	-0.258453	0.473496	99
Es	-1.535160	-0.373843	0.711223	99
Es	0.147076	-0.551759	-0.040667	99
Es	2.309751	0.195659	0.643364	99
Es	-1.422464	-0.130726	-1.509323	99
Es	0.098740	-0.524607	0.215839	99
Es	-2.686773	-0.149774	-1.021478	99
Es	-1.514579	-0.206877	-0.256549	99
Es	4.147516	-0.270679	0.564836	99
Es	-2.542491	-0.664354	-1.020082	99
Es	2.950284	0.266506	0.422340	99
39
Properties=species:S:1:pos:R:3:Z:I:1 energy=-338.6952719651994 field_type=dipole dipole="0.000000 0.000000 0.000000" charge=0
N	-3.124729	-0.503660	-1.051453	7
C	-1.872019	-0.235950	-0.927013	6
N	-1.238389	-0.115091	0.271177	7
O	0.098861	-0.525070	0.215867	8
C	0.890851	0.563869	0.706497	6
C	2.310050	0.195600	0.643357	6
C	3.472921	-0.103940	0.590117	6
H	-3.364499	-0.535331	-2.049233	1
H	-1.219799	-0.069590	-1.802313	1
H	-1.772469	-0.536561	1.029257	1
H	0.606111	0.783979	1.742047	1
H	0.710321	1.453290	0.091497	1
H	4.502791	-0.371540	0.540197	1
Es	-0.506252	-0.323180	0.242105	99
Es	0.098714	-0.524250	0.215380	99
Es	-2.688632	-0.153400	-1.021689	99
Es	0.777353	1.155205	0.305621	99
Es	-1.423420	-0.130642	-1.509030	99
Es	4.147473	-0.270492	0.565795	99
Es	3.473170	-0.103982	0.590124	99
Es	-3.415024	-0.541816	-0.810824	99
Es	-2.540876	-0.661058	-1.018368	99
Es	0.156010	-0.594383	-0.043292	99
Es	-1.533982	-0.372740	0.710070	99
Es	-1.277588	0.154134	0.261414	99
Es	-3.124289	-0.503532	-1.051816	99
Es	-3.208484	-0.499080	-1.610744	99
Es	-1.871900	-0.235928	-0.926880	99
Es	0.890883	0.563640	0.706408	99
Es	2.926205	0.097594	0.960167	99
Es	-1.238387	-0.115898	0.270886	99
Es	-1.515508	-0.202698	-0.256824	99
Es	0.714157	0.705703	1.384057	99
Es	2.792163	-0.246616	0.448856	99
Es	2.954274	0.296472	0.443239	99
Es	1.631114	0.360346	0.670409	99
Es	0.106336	-0.678735	0.377514	99
Es	0.414545	-0.124598	0.414243	99
Es	2.309752	0.195666	0.643359	99
39
Properties=species:S:1:pos:R:3:Z:I:1 energy=-338.6952719651994 field_type=dipole dipole="0.000000 0.000000 0.000000" charge=0
N	-3.124729	-0.503660	-1.051453	7
C	-1.872019	-0.235950	-0.927013	6
N	-1.238389	-0.115091	0.271177	7
O	0.098861	-0.525070	0.215867	8
C	0.890851	0.563869	0.706497	6
C	2.310050	0.195600	0.643357	6
C	3.472921	-0.103940	0.590117	6
H	-3.364499	-0.535331	-2.049233	1
H	-1.219799	-0.069590	-1.802313	1
H	-1.772469	-0.536561	1.029257	1
H	0.606111	0.783979	1.742047	1
H	0.710321	1.453290	0.091497	1
H	4.502791	-0.371540	0.540197	1
Es	0.098720	-0.524519	0.215781	99
Es	-1.276789	0.145863	0.256815	99
Es	-1.238331	-0.115797	0.270951	99
Es	3.473171	-0.103980	0.590115	99
Es	0.414241	-0.129194	0.418977	99
Es	0.890883	0.563634	0.706408	99
Es	-1.533825	-0.367194	0.714296	99
Es	0.121185	-0.732709	0.355877	99
Es	-0.506482	-0.323775	0.243790	99
Es	2.309752	0.195663	0.643357	99
Es	0.713086	0.707009	1.385332	99
Es	-3.200469	-0.498790	-1.599096	99
Es	2.949113	0.261906	0.438369	99
Es	0.778703	1.152805	0.305452	99
Es	-2.538417	-0.654765	-1.016690	99
Es	-1.423268	-0.130842	-1.509183	99
Es	0.141409	-0.533552	-0.029067	99
Es	4.147527	-0.270173	0.565627	99
Es	-3.422980	-0.540844	-0.822552	99
Es	1.631140	0.360222	0.669940	99
Es	-3.124291	-0.503531	-1.051824	99
Es	2.791547	-0.249986	0.454057	99
Es	-2.691136	-0.160806	-1.023283	99
Es	-1.871900	-0.235924	-0.926881	99
Es	2.931968	0.135565	0.960055	99
Es	-1.516751	-0.200558	-0.256444	99
39
Properties=species:S:1:pos:R:3:Z:I:1 energy=-338.6952719651994 field_type=dipole dipole="0.000000 0.000000 0.000000" charge=0
N	-3.124729	-0.503660	-1.051453	7
C	-1.872019	-0.235950	-0.927013	6
N	-1.238389	-0.115091	0.271177	7
O	0.098861	-0.525070	0.215867	8
C	0.890851	0.563869	0.706497	6
C	2.310050	0.195600	0.643357	6
C	3.472921	-0.103940	0.590117	6
H	-3.364499	-0.535331	-2.049233	1
H	-1.219799	-0.069590	-1.802313	1
H	-1.772469	-0.536561	1.029257	1
H	0.606111	0.783979	1.742047	1
H	0.710321	1.453290	0.091497	1
H	4.502791	-0.371540	0.540197	1
Es	3.473170	-0.103982	0.590123	99
Es	0.713487	0.706522	1.384309	99
Es	-0.506311	-0.323127	0.242527	99
Es	2.792755	-0.243876	0.444011	99
Es	-2.692033	-0.162916	-1.023400	99
Es	-2.537772	-0.653038	-1.015200	99
Es	2.929442	0.118833	0.963208	99
Es	-1.276610	0.142910	0.256583	99
Es	2.309754	0.195671	0.643358	99
Es	0.778499	1.152997	0.305953	99
Es	4.147481	-0.270140	0.566256	99
Es	-3.432458	-0.540886	-0.841331	99
Es	0.114784	-0.708613	0.364810	99
Es	0.890881	0.563631	0.706406	99
Es	-1.238299	-0.115742	0.271015	99
Es	0.147296	-0.555238	-0.038062	99
Es	2.950448	0.272610	0.445136	99
Es	0.414485	-0.131371	0.419835	99
Es	1.631146	0.360012	0.670114	99
Es	-1.533861	-0.366763	0.714507	99
Es	-3.190732	-0.498284	-1.581817	99
Es	0.098664	-0.524734	0.216345	99
Es	-3.124273	-0.503524	-1.051848	99
Es	-1.516535	-0.198433	-0.256798	99
Es	-1.871900	-0.235926	-0.926882	99
Es	-1.423701	-0.130863	-1.508978	99
39
Properties=species:S:1:pos:R:3:Z:I:1 energy=-338.6952719651994 field_type=dipole dipole="0.000000 0.000000 0.000000" charge=0
N	-3.124729	-0.503660	-1.051453	7
C	-1.872019	-0.235950	-0.927013	6
N	-1.238389	-0.115091	0.271177	7
O	0.098861	-0.525070	0.215867	8
C	0.890851	0.563869	0.706497	6
C	2.310050	0.195600	0.643357	6
C	3.472921	-0.103940	0.590117	6
H	-3.364499	-0.535331	-2.049233	1
H	-1.219799	-0.069590	-1.802313	1
H	-1.772469	-0.536561	1.029257	1
H	0.606111	0.783979	1.742047	1
H	0.710321	1.453290	0.091497	1
H	4.502791	-0.371540	0.540197	1
Es	0.778755	1.152331	0.306087	99
Es	-3.186787	-0.498072	-1.573033	99
Es	2.793449	-0.241025	0.438080	99
Es	-2.693759	-0.167999	-1.024233	99
Es	-1.871900	-0.235930	-0.926880	99
Es	-3.436422	-0.541040	-0.849964	99
Es	-1.517313	-0.196509	-0.256474	99
Es	4.147505	-0.269936	0.566239	99
Es	0.098712	-0.524308	0.215459	99
Es	2.309752	0.195663	0.643355	99
Es	-1.276199	0.138208	0.255196	99
Es	0.144241	-0.543671	-0.033255	99
Es	2.949722	0.269484	0.450084	99
Es	3.473167	-0.103988	0.590132	99
Es	-1.423911	-0.130826	-1.508925	99
Es	-1.533282	-0.364347	0.715481	99
Es	0.117724	-0.717013	0.358192	99
Es	2.929472	0.119047	0.964164	99
Es	0.414583	-0.134332	0.421727	99
Es	-2.536015	-0.647998	-1.014529	99
Es	0.890880	0.563642	0.706411	99
Es	-1.238352	-0.115866	0.270918	99
Es	0.713263	0.706760	1.384514	99
Es	-3.124282	-0.503528	-1.051836	99
Es	-0.506362	-0.323028	0.243231	99
Es	1.631166	0.360012	0.670040	99
39
Properties=species:S:1:pos:R:3:Z:I:1 energy=-338.6952719651994 field_type=dipole dipole="0.000000 0.000000 0.000000" charge=0
N	-3.124729	-0.503660	-1.051453	7
C	-1.872019	-0.235950	-0.927013	6
N	-1.238389	-0.115091	0.271177	7
O	0.098861	-0.525070	0.215867	8
C	0.890851	0.563869	0.706497	6
C	2.310050	0.195600	0.643357	6
C	3.472921	-0.103940	0.590117	6
H	-3.364499	-0.535331	-2.049233	1
H	-1.219799	-0.069590	-1.802313	1
H	-1.772469	-0.536561	1.029257	1
H	0.606111	0.783979	1.742047	1
H	0.710321	1.453290	0.091497	1
H	4.502791	-0.371540	0.540197	1
Es	-1.871900	-0.235926	-0.926882	99
Es	-1.516973	-0.193613	-0.257019	99
Es	0.098727	-0.524682	0.215976	99
Es	-1.276022	0.133855	0.254069	99
Es	-1.423966	-0.130785	-1.508938	99
Es	-2.694079	-0.168753	-1.024136	99
Es	-3.442963	-0.541135	-0.867157	99
Es	3.473168	-0.103985	0.590130	99
Es	0.890882	0.563634	0.706408	99
Es	2.309752	0.195664	0.643352	99
Es	-3.124317	-0.503539	-1.051797	99
Es	4.147471	-0.269854	0.566663	99
Es	-2.535914	-0.647276	-1.013454	99
Es	0.778493	1.152723	0.306404	99
Es	-3.179970	-0.497880	-1.557146	99
Es	0.713622	0.706327	1.384027	99
Es	0.414618	-0.135151	0.422109	99
Es	0.112640	-0.697227	0.364713	99
Es	2.926650	0.101072	0.966524	99
Es	2.795154	-0.233848	0.425881	99
Es	2.950852	0.280431	0.459958	99
Es	-1.533872	-0.363570	0.716967	99
Es	0.149091	-0.562458	-0.039903	99
Es	-1.238263	-0.115620	0.271018	99
Es	-0.506220	-0.322338	0.242531	99
Es	1.631146	0.359665	0.669881	99
