40
Properties=species:S:1:pos:R:3:Z:I:1 energy=-322.82151332169724 field_type=dipole dipole="0.000000 0.000000 0.000000" charge=0
N	-0.668392	-2.056674	-0.252899	7
C	-1.204282	-0.937964	0.310361	6
O	-2.326572	-0.956734	0.801551	8
C	-0.344913	0.294616	0.239771	6
C	-0.980892	1.473986	0.341361	6
C	1.104358	0.188176	0.196541	6
C	1.918437	0.977316	-0.517359	6
H	0.188658	-2.044274	-0.786149	1
H	-1.250182	-2.882794	-0.281539	1
H	-2.063632	1.526806	0.422601	1
H	-0.445943	2.416986	0.361901	1
H	1.535948	-0.612164	0.795791	1
H	1.543698	1.784426	-1.139709	1
H	2.993708	0.828296	-0.492229	1
Es	-0.669955	0.848349	-0.042472	99
Es	-0.619338	2.110808	0.351245	99
Es	-0.980909	1.474065	0.341339	99
Es	-0.618355	-1.948537	0.063384	99
Es	-1.204143	-0.938051	0.310285	99
Es	1.104255	0.188109	0.196594	99
Es	-0.933121	-1.593862	-0.209739	99
Es	1.386087	-0.356194	0.600514	99
Es	-2.049896	-0.872884	0.423178	99
Es	-0.609972	0.838381	0.592441	99
Es	-1.009908	-2.540721	-0.289478	99
Es	-2.326277	-0.956697	0.801418	99
Es	-2.409055	-0.684071	0.928389	99
Es	-0.344875	0.294471	0.239759	99
Es	0.375259	0.229565	0.203939	99
Es	-0.170103	-2.042349	-0.581113	99
Es	-1.697630	1.518791	0.390728	99
Es	-2.455162	-1.241594	0.764743	99
Es	-0.747278	-0.332707	0.272364	99
Es	-1.852457	-1.015279	0.855067	99
Es	1.668629	1.522589	-0.939040	99
Es	1.473719	0.377861	-0.413671	99
Es	1.918492	0.977374	-0.517399	99
Es	1.522533	0.786210	0.086927	99
Es	2.646204	0.882446	-0.501965	99
Es	-0.668505	-2.056557	-0.253059	99
40
Properties=species:S:1:pos:R:3:Z:I:1 energy=-322.82151332169724 field_type=dipole dipole="0.000000 0.000000 0.000000" charge=0
N	-0.668392	-2.056674	-0.252899	7
C	-1.204282	-0.937964	0.310361	6
O	-2.326572	-0.956734	0.801551	8
C	-0.344913	0.294616	0.239771	6
C	-0.980892	1.473986	0.341361	6
C	1.104358	0.188176	0.196541	6
C	1.918437	0.977316	-0.517359	6
H	0.188658	-2.044274	-0.786149	1
H	-1.250182	-2.882794	-0.281539	1
H	-2.063632	1.526806	0.422601	1
H	-0.445943	2.416986	0.361901	1
H	1.535948	-0.612164	0.795791	1
H	1.543698	1.784426	-1.139709	1
H	2.993708	0.828296	-0.492229	1
Es	-1.005956	-2.547228	-0.274185	99
Es	-0.344873	0.294475	0.239756	99
Es	-1.855241	-1.010969	0.852479	99
Es	-1.204146	-0.938049	0.310278	99
Es	-0.671304	0.846868	-0.039353	99
Es	1.472043	0.380837	-0.412763	99
Es	-0.608348	0.839980	0.589754	99
Es	-0.931321	-1.567008	-0.143413	99
Es	0.375445	0.231407	0.202599	99
Es	1.668221	1.522462	-0.937733	99
Es	1.104255	0.188111	0.196599	99
Es	-0.980909	1.474064	0.341345	99
Es	-2.419228	-0.680388	0.930711	99
Es	1.524167	0.784267	0.086926	99
Es	2.647354	0.880295	-0.504364	99
Es	-0.747997	-0.332020	0.272599	99
Es	1.386485	-0.356535	0.598749	99
Es	-0.161330	-2.043869	-0.576683	99
Es	1.918491	0.977378	-0.517392	99
Es	-0.618847	2.109989	0.350467	99
Es	-2.444015	-1.244885	0.764111	99
Es	-0.668664	-2.056395	-0.253254	99
Es	-1.698971	1.518574	0.393069	99
Es	-0.632592	-1.967491	-0.021788	99
Es	-2.326299	-0.956724	0.801431	99
Es	-2.048182	-0.877631	0.424432	99
40
Properties=species:S:1:pos:R:3:Z:I:1 energy=-322.82151332169724 field_type=dipole dipole="0.000000 0.000000 0.000000" charge=0
N	-0.668392	-2.056674	-0.252899	7
C	-1.204282	-0.937964	0.310361	6
O	-2.326572	-0.956734	0.801551	8
C	-0.344913	0.294616	0.239771	6
C	-0.980892	1.473986	0.341361	6
C	1.104358	0.188176	0.196541	6
C	1.918437	0.977316	-0.517359	6
H	0.188658	-2.044274	-0.786149	1
H	-1.250182	-2.882794	-0.281539	1
H	-2.063632	1.526806	0.422601	1
H	-0.445943	2.416986	0.361901	1
H	1.535948	-0.612164	0.795791	1
H	1.543698	1.784426	-1.139709	1
H	2.993708	0.828296	-0.492229	1
Es	-0.647720	-1.965559	-0.064975	99
Es	-0.155500	-2.046089	-0.570609	99
Es	-0.980909	1.474065	0.341342	99
Es	-0.927891	-1.562454	-0.120067	99
Es	-1.699794	1.518560	0.394135	99
Es	-2.043163	-0.882065	0.423968	99
Es	1.524981	0.782574	0.086234	99
Es	-1.204142	-0.938052	0.310289	99
Es	-0.748792	-0.331580	0.273545	99
Es	1.667836	1.522608	-0.936738	99
Es	-0.607147	0.840801	0.587523	99
Es	-2.429086	-0.679207	0.929332	99
Es	1.471234	0.382717	-0.412111	99
Es	1.386814	-0.356615	0.597900	99
Es	-1.860843	-1.004723	0.853597	99
Es	-0.672116	0.845946	-0.037131	99
Es	-0.668646	-2.056421	-0.253247	99
Es	-2.326261	-0.956704	0.801420	99
Es	-0.344873	0.294469	0.239758	99
Es	-0.999886	-2.551338	-0.260029	99
Es	2.648014	0.879029	-0.505583	99
Es	1.918494	0.977373	-0.517402	99
Es	1.104253	0.188107	0.196594	99
Es	0.375566	0.232757	0.201895	99
Es	-2.433706	-1.248025	0.765158	99
Es	-0.618476	2.109341	0.349579	99
40
Properties=species:S:1:pos:R:3:Z:I:1 energy=-322.82151332169724 field_type=dipole dipole="0.000000 0.000000 0.000000" charge=0
N	-0.668392	-2.056674	-0.252899	7
C	-1.204282	-0.937964	0.310361	6
O	-2.326572	-0.956734	0.801551	8
C	-0.344913	0.294616	0.239771	6
C	-0.980892	1.473986	0.341361	6
C	1.104358	0.188176	0.196541	6
C	1.918437	0.977316	-0.517359	6
H	0.188658	-2.044274	-0.786149	1
H	-1.250182	-2.882794	-0.281539	1
H	-2.063632	1.526806	0.422601	1
H	-0.445943	2.416986	0.361901	1
H	1.535948	-0.612164	0.795791	1
H	1.543698	1.784426	-1.139709	1
H	2.993708	0.828296	-0.492229	1
Es	-0.344873	0.294473	0.239753	99
Es	-0.668541	-2.056542	-0.253141	99
Es	-1.700325	1.518273	0.395018	99
Es	2.648404	0.878162	-0.506492	99
Es	1.104253	0.188110	0.196598	99
Es	1.525433	0.781534	0.085814	99
Es	-0.672724	0.845415	-0.035337	99
Es	-0.618196	2.109044	0.348832	99
Es	-0.152341	-2.047361	-0.566602	99
Es	-1.204142	-0.938051	0.310283	99
Es	1.918493	0.977367	-0.517410	99
Es	-0.658849	-1.963448	-0.092482	99
Es	-0.994312	-2.553319	-0.248767	99
Es	-0.606202	0.841239	0.585826	99
Es	-2.326263	-0.956723	0.801412	99
Es	-2.428051	-1.248594	0.763704	99
Es	-0.925407	-1.561036	-0.107541	99
Es	-2.433988	-0.679374	0.931530	99
Es	1.470716	0.384160	-0.411536	99
Es	1.387129	-0.356673	0.597212	99
Es	0.375540	0.233686	0.201324	99
Es	-0.749273	-0.331274	0.274270	99
Es	1.667602	1.522546	-0.936106	99
Es	-2.044177	-0.882717	0.425369	99
Es	-1.860758	-1.003447	0.851507	99
Es	-0.980909	1.474066	0.341340	99
40
Properties=species:S:1:pos:R:3:Z:I:1 energy=-322.82151332169724 field_type=dipole dipole="0.000000 0.000000 0.000000" charge=0
N	-0.668392	-2.056674	-0.252899	7
C	-1.204282	-0.937964	0.310361	6
O	-2.326572	-0.956734	0.801551	8
C	-0.344913	0.294616	0.239771	6
C	-0.980892	1.473986	0.341361	6
C	1.104358	0.188176	0.196541	6
C	1.918437	0.977316	-0.517359	6
H	0.188658	-2.044274	-0.786149	1
H	-1.250182	-2.882794	-0.281539	1
H	-2.063632	1.526806	0.422601	1
H	-0.445943	2.416986	0.361901	1
H	1.535948	-0.612164	0.795791	1
H	1.543698	1.784426	-1.139709	1
H	2.993708	0.828296	-0.492229	1
Es	-1.204145	-0.938050	0.310280	99
Es	-0.672972	0.844696	-0.033843	99
Es	-2.435818	-0.678192	0.929792	99
Es	-0.749895	-0.330928	0.274812	99
Es	1.470290	0.385480	-0.411076	99
Es	1.667317	1.522472	-0.935389	99
Es	-0.980909	1.474066	0.341342	99
Es	-1.700678	1.518102	0.395742	99
Es	-2.326283	-0.956705	0.801433	99
Es	-0.668436	-2.056625	-0.252985	99
Es	-0.344872	0.294469	0.239754	99
Es	1.387334	-0.356855	0.596275	99
Es	2.648723	0.877548	-0.507378	99
Es	-0.605672	0.841782	0.584308	99
Es	-2.425656	-1.249625	0.765732	99
Es	1.918493	0.977369	-0.517404	99
Es	-2.041682	-0.885364	0.424777	99
Es	-0.149664	-2.048516	-0.562613	99
Es	-0.989491	-2.554042	-0.239596	99
Es	-0.667426	-1.961715	-0.110717	99
Es	1.525927	0.780850	0.085887	99
Es	1.104255	0.188112	0.196598	99
Es	-0.617945	2.108760	0.348517	99
Es	-1.863896	-1.001008	0.851865	99
Es	0.375546	0.234165	0.200643	99
Es	-0.924206	-1.560731	-0.102379	99
40
Properties=species:S:1:pos:R:3:Z:I:1 energy=-322.82151332169724 field_type=dipole dipole="0.000000 0.000000 0.000000" charge=0
N	-0.668392	-2.056674	-0.252899	7
C	-1.204282	-0.937964	0.310361	6
O	-2.326572	-0.956734	0.801551	8
C	-0.344913	0.294616	0.239771	6
C	-0.980892	1.473986	0.341361	6
C	1.104358	0.188176	0.196541	6
C	1.918437	0.977316	-0.517359	6
H	0.188658	-2.044274	-0.786149	1
H	-1.250182	-2.882794	-0.281539	1
H	-2.063632	1.526806	0.422601	1
H	-0.445943	2.416986	0.361901	1
H	1.535948	-0.612164	0.795791	1
H	1.543698	1.784426	-1.139709	1
H	2.993708	0.828296	-0.492229	1
Es	-0.668914	-2.056023	-0.253373	99
Es	-1.700945	1.517938	0.396214	99
Es	-0.986201	-2.554199	-0.233981	99
Es	-1.874540	-0.998552	0.855507	99
Es	-2.326257	-0.956718	0.801414	99
Es	-0.750314	-0.330798	0.275128	99
Es	1.469949	0.386378	-0.410693	99
Es	1.667154	1.522562	-0.934720	99
Es	-1.204143	-0.938051	0.310282	99
Es	-2.442865	-0.679353	0.928905	99
Es	-0.344871	0.294471	0.239751	99
Es	1.526382	0.780126	0.085766	99
Es	-0.923985	-1.560730	-0.100401	99
Es	-0.673168	0.844145	-0.032361	99
Es	1.918492	0.977364	-0.517409	99
Es	-2.030059	-0.886095	0.424750	99
Es	1.387433	-0.357037	0.595360	99
Es	-0.617605	2.108609	0.348110	99
Es	-0.147831	-2.049140	-0.559522	99
Es	-2.419680	-1.250240	0.763086	99
Es	1.104251	0.188115	0.196601	99
Es	2.648975	0.877207	-0.507795	99
Es	0.375473	0.234800	0.200219	99
Es	-0.605383	0.842126	0.582987	99
Es	-0.672200	-1.961456	-0.120798	99
Es	-0.980909	1.474065	0.341348	99
40
Properties=species:S:1:pos:R:3:Z:I:1 energy=-322.82151332169724 field_type=dipole dipole="0.000000 0.000000 0.000000" charge=0
N	-0.668392	-2.056674	-0.252899	7
C	-1.204282	-0.937964	0.310361	6
O	-2.326572	-0.956734	0.801551	8
C	-0.344913	0.294616	0.239771	6
C	-0.980892	1.473986	0.341361	6
C	1.104358	0.188176	0.196541	6
C	1.918437	0.977316	-0.517359	6
H	0.188658	-2.044274	-0.786149	1
H	-1.250182	-2.882794	-0.281539	1
H	-2.063632	1.526806	0.422601	1
H	-0.445943	2.416986	0.361901	1
H	1.535948	-0.612164	0.795791	1
H	1.543698	1.784426	-1.139709	1
H	2.993708	0.828296	-0.492229	1
Es	-0.980910	1.474067	0.341339	99
Es	-0.146562	-2.049914	-0.557185	99
Es	1.918494	0.977373	-0.517401	99
Es	-0.672975	0.843081	-0.031635	99
Es	-1.701189	1.517875	0.396490	99
Es	-2.326237	-0.956684	0.801415	99
Es	-0.923929	-1.560628	-0.099508	99
Es	-0.617429	2.108391	0.347775	99
Es	-0.668131	-2.056726	-0.252308	99
Es	-0.676061	-1.960247	-0.127943	99
Es	1.526568	0.779428	0.085266	99
Es	-1.889733	-0.992761	0.856815	99
Es	-2.015013	-0.886772	0.426299	99
Es	-0.750597	-0.330621	0.275605	99
Es	-2.411314	-1.253005	0.762067	99
Es	-0.344875	0.294474	0.239781	99
Es	1.104252	0.188111	0.196598	99
Es	-2.451212	-0.681757	0.927041	99
Es	0.375495	0.235127	0.200208	99
Es	1.387672	-0.357191	0.594866	99
Es	-0.605467	0.843103	0.581756	99
Es	1.469672	0.387095	-0.410303	99
Es	-0.984342	-2.553968	-0.230875	99
Es	1.666923	1.522655	-0.934014	99
Es	2.649283	0.877060	-0.508050	99
Es	-1.204143	-0.938051	0.310282	99
40
Properties=species:S:1:pos:R:3:Z:I:1 energy=-322.82151332169724 field_type=dipole dipole="0.000000 0.000000 0.000000" charge=0
N	-0.668392	-2.056674	-0.252899	7
C	-1.204282	-0.937964	0.310361	6
O	-2.326572	-0.956734	0.801551	8
C	-0.344913	0.294616	0.239771	6
C	-0.980892	1.473986	0.341361	6
C	1.104358	0.188176	0.196541	6
C	1.918437	0.977316	-0.517359	6
H	0.188658	-2.044274	-0.786149	1
H	-1.250182	-2.882794	-0.281539	1
H	-2.063632	1.526806	0.422601	1
H	-0.445943	2.416986	0.361901	1
H	1.535948	-0.612164	0.795791	1
H	1.543698	1.784426	-1.139709	1
H	2.993708	0.828296	-0.492229	1
Es	2.649418	0.876949	-0.508017	99
Es	1.387818	-0.357383	0.594532	99
Es	-1.989541	-0.889378	0.433560	99
Es	-0.344871	0.294470	0.239750	99
Es	-2.457226	-0.682602	0.923723	99
Es	-0.145949	-2.050365	-0.556023	99
Es	1.469561	0.387554	-0.409878	99
Es	-2.407203	-1.252843	0.759377	99
Es	-1.913379	-0.989550	0.855560	99
Es	1.104251	0.188112	0.196600	99
Es	1.666825	1.522773	-0.933777	99
Es	-0.672984	0.843150	-0.031323	99
Es	-0.617380	2.108225	0.347583	99
Es	-0.983267	-2.553757	-0.229229	99
Es	-0.668358	-2.056676	-0.252849	99
Es	0.375462	0.235178	0.200197	99
Es	-2.326217	-0.956630	0.801432	99
Es	-1.204143	-0.938050	0.310281	99
Es	1.526648	0.779011	0.084962	99
Es	-0.676238	-1.959790	-0.126820	99
Es	-0.605295	0.843049	0.581390	99
Es	-0.750784	-0.330462	0.275817	99
Es	1.918493	0.977369	-0.517406	99
Es	-0.980910	1.474066	0.341341	99
Es	-1.701358	1.517935	0.396390	99
Es	-0.925134	-1.560838	-0.102796	99
40
Properties=species:S:1:pos:R:3:Z:I:1 energy=-322.82151332169724 field_type=dipole dipole="0.000000 0.000000 0.000000" charge=0
N	-0.668392	-2.056674	-0.252899	7
C	-1.204282	-0.937964	0.310361	6
O	-2.326572	-0.956734	0.801551	8
C	-0.344913	0.294616	0.239771	6
C	-0.980892	1.473986	0.341361	6
C	1.104358	0.188176	0.196541	6
C	1.918437	0.977316	-0.517359	6
H	0.188658	-2.044274	-0.786149	1
H	-1.250182	-2.882794	-0.281539	1
H	-2.063632	1.526806	0.422601	1
H	-0.445943	2.416986	0.361901	1
H	1.535948	-0.612164	0.795791	1
H	1.543698	1.784426	-1.139709	1
H	2.993708	0.828296	-0.492229	1
Es	1.918494	0.977373	-0.517402	99
Es	2.649501	0.876730	-0.508034	99
Es	-0.673075	0.843523	-0.031290	99
Es	1.469551	0.387900	-0.409505	99
Es	-1.934425	-0.983239	0.848410	99
Es	-0.925765	-1.561012	-0.104629	99
Es	-0.667774	-2.056486	-0.250989	99
Es	-0.344871	0.294470	0.239751	99
Es	-0.677191	-1.959623	-0.128653	99
Es	-1.701507	1.518087	0.396194	99
Es	1.104252	0.188115	0.196604	99
Es	-0.982675	-2.553628	-0.228240	99
Es	-2.326251	-0.956673	0.801426	99
Es	1.387946	-0.357449	0.594530	99
Es	-0.605192	0.842663	0.581585	99
Es	-0.145493	-2.050675	-0.555120	99
Es	1.666786	1.522681	-0.933882	99
Es	0.375554	0.235329	0.200420	99
Es	1.526531	0.778772	0.084684	99
Es	-1.968888	-0.893126	0.442927	99
Es	-0.980910	1.474066	0.341342	99
Es	-0.617445	2.107998	0.347396	99
Es	-1.204143	-0.938050	0.310281	99
Es	-0.750686	-0.330292	0.275729	99
Es	-2.461356	-0.683010	0.919383	99
Es	-2.402726	-1.254927	0.761460	99
40
Properties=species:S:1:pos:R:3:Z:I:1 energy=-322.82151332169724 field_type=dipole dipole="0.000000 0.000000 0.000000" charge=0
N	-0.668392	-2.056674	-0.252899	7
C	-1.204282	-0.937964	0.310361	6
O	-2.326572	-0.956734	0.801551	8
C	-0.344913	0.294616	0.239771	6
C	-0.980892	1.473986	0.341361	6
C	1.104358	0.188176	0.196541	6
C	1.918437	0.977316	-0.517359	6
H	0.188658	-2.044274	-0.786149	1
H	-1.250182	-2.882794	-0.281539	1
H	-2.063632	1.526806	0.422601	1
H	-0.445943	2.416986	0.361901	1
H	1.535948	-0.612164	0.795791	1
H	1.543698	1.784426	-1.139709	1
H	2.993708	0.828296	-0.492229	1
Es	-2.416561	-1.252991	0.784043	99
Es	-2.104263	-0.905610	0.492366	99
Es	1.104252	0.188110	0.196598	99
Es	-0.603633	0.843396	0.581146	99
Es	-0.750778	-0.330168	0.277305	99
Es	1.667083	1.521555	-0.935500	99
Es	1.470246	0.387143	-0.411195	99
Es	-1.700904	1.517580	0.398030	99
Es	-0.668376	-2.056665	-0.252883	99
Es	-0.922744	-1.561240	-0.094604	99
Es	-1.814439	-0.984502	0.764801	99
Es	-1.204143	-0.938050	0.310280	99
Es	1.387368	-0.355890	0.596310	99
Es	-0.150314	-2.047367	-0.564697	99
Es	-0.674553	0.842163	-0.031465	99
Es	-0.980910	1.474066	0.341340	99
Es	2.648571	0.875775	-0.509694	99
Es	-0.344871	0.294471	0.239752	99
Es	1.526304	0.779924	0.086196	99
Es	-0.681791	-1.962684	-0.138931	99
Es	1.918494	0.977370	-0.517406	99
Es	-0.617519	2.108291	0.346744	99
Es	-2.431830	-0.671502	0.931586	99
Es	0.375507	0.236421	0.199411	99
Es	-0.975712	-2.553325	-0.216543	99
Es	-2.326244	-0.956754	0.801389	99
40
Properties=species:S:1:pos:R:3:Z:I:1 energy=-322.82151332169724 field_type=dipole dipole="0.000000 0.000000 0.000000" charge=0
N	-0.668392	-2.056674	-0.252899	7
C	-1.204282	-0.937964	0.310361	6
O	-2.326572	-0.956734	0.801551	8
C	-0.344913	0.294616	0.239771	6
C	-0.980892	1.473986	0.341361	6
C	1.104358	0.188176	0.196541	6
C	1.918437	0.977316	-0.517359	6
H	0.188658	-2.044274	-0.786149	1
H	-1.250182	-2.882794	-0.281539	1
H	-2.063632	1.526806	0.422601	1
H	-0.445943	2.416986	0.361901	1
H	1.535948	-0.612164	0.795791	1
H	1.543698	1.784426	-1.139709	1
H	2.993708	0.828296	-0.492229	1
Es	1.526378	0.778600	0.084401	99
Es	-0.604944	0.842218	0.581272	99
Es	-0.676348	-1.958804	-0.124633	99
Es	-1.944184	-0.899284	0.458667	99
Es	-0.344870	0.294470	0.239748	99
Es	-0.673178	0.843878	-0.031294	99
Es	-0.980910	1.474066	0.341343	99
Es	-1.960757	-0.976280	0.832070	99
Es	1.104253	0.188114	0.196602	99
Es	-0.927266	-1.561552	-0.108619	99
Es	1.918494	0.977372	-0.517404	99
Es	-2.326246	-0.956668	0.801427	99
Es	0.375681	0.235370	0.200614	99
Es	-0.750801	-0.330055	0.276093	99
Es	1.666686	1.522618	-0.934005	99
Es	-0.144980	-2.050836	-0.554263	99
Es	-0.617480	2.107757	0.347244	99
Es	-0.668290	-2.056705	-0.252714	99
Es	-2.396288	-1.255421	0.764416	99
Es	-1.701664	1.518267	0.395940	99
Es	-0.981944	-2.553445	-0.227303	99
Es	-2.466233	-0.683412	0.917046	99
Es	1.469678	0.388166	-0.409213	99
Es	-1.204145	-0.938049	0.310278	99
Es	1.388050	-0.357407	0.594766	99
Es	2.649550	0.876538	-0.508099	99
40
Properties=species:S:1:pos:R:3:Z:I:1 energy=-322.82151332169724 field_type=dipole dipole="0.000000 0.000000 0.000000" charge=0
N	-0.668392	-2.056674	-0.252899	7
C	-1.204282	-0.937964	0.310361	6
O	-2.326572	-0.956734	0.801551	8
C	-0.344913	0.294616	0.239771	6
C	-0.980892	1.473986	0.341361	6
C	1.104358	0.188176	0.196541	6
C	1.918437	0.977316	-0.517359	6
H	0.188658	-2.044274	-0.786149	1
H	-1.250182	-2.882794	-0.281539	1
H	-2.063632	1.526806	0.422601	1
H	-0.445943	2.416986	0.361901	1
H	1.535948	-0.612164	0.795791	1
H	1.543698	1.784426	-1.139709	1
H	2.993708	0.828296	-0.492229	1
Es	1.470896	0.386844	-0.411015	99
Es	2.648395	0.875510	-0.509695	99
Es	-0.617940	2.107937	0.346558	99
Es	1.667043	1.520991	-0.936678	99
Es	-2.414950	-1.253748	0.794876	99
Es	-1.812444	-0.974152	0.710053	99
Es	-1.700938	1.518064	0.397446	99
Es	-0.603505	0.843057	0.582339	99
Es	1.525593	0.780097	0.085831	99
Es	1.387421	-0.355301	0.597661	99
Es	1.104254	0.188110	0.196595	99
Es	-0.980909	1.474066	0.341344	99
Es	-0.344871	0.294471	0.239750	99
Es	-0.750312	-0.329689	0.277685	99
Es	-2.110208	-0.919998	0.543760	99
Es	-1.204150	-0.938047	0.310270	99
Es	-0.151387	-2.047122	-0.566692	99
Es	-2.326240	-0.956686	0.801421	99
Es	1.918494	0.977371	-0.517404	99
Es	-0.924967	-1.561919	-0.101038	99
Es	-0.674685	0.842552	-0.033080	99
Es	-0.976514	-2.553271	-0.217766	99
Es	-0.677954	-1.962226	-0.130129	99
Es	-0.668083	-2.056717	-0.252140	99
Es	0.375803	0.236122	0.200366	99
Es	-2.429605	-0.666803	0.924061	99
40
Properties=species:S:1:pos:R:3:Z:I:1 energy=-322.82151332169724 field_type=dipole dipole="0.000000 0.000000 0.000000" charge=0
N	-0.668392	-2.056674	-0.252899	7
C	-1.204282	-0.937964	0.310361	6
O	-2.326572	-0.956734	0.801551	8
C	-0.344913	0.294616	0.239771	6
C	-0.980892	1.473986	0.341361	6
C	1.104358	0.188176	0.196541	6
C	1.918437	0.977316	-0.517359	6
H	0.188658	-2.044274	-0.786149	1
H	-1.250182	-2.882794	-0.281539	1
H	-2.063632	1.526806	0.422601	1
H	-0.445943	2.416986	0.361901	1
H	1.535948	-0.612164	0.795791	1
H	1.543698	1.784426	-1.139709	1
H	2.993708	0.828296	-0.492229	1
Es	1.666520	1.522530	-0.934272	99
Es	-0.750758	-0.329826	0.276317	99
Es	-1.701723	1.518434	0.395969	99
Es	1.388108	-0.357332	0.594952	99
Es	-0.668823	-2.056188	-0.253366	99
Es	0.375705	0.235476	0.200836	99
Es	-0.980909	1.474067	0.341340	99
Es	-0.617652	2.107480	0.346876	99
Es	2.649526	0.876240	-0.508300	99
Es	1.526331	0.778257	0.084201	99
Es	-2.466403	-0.682076	0.913504	99
Es	1.469866	0.388525	-0.408878	99
Es	-0.144968	-2.050895	-0.554304	99
Es	1.918491	0.977366	-0.517408	99
Es	-0.981493	-2.553317	-0.226669	99
Es	1.104252	0.188107	0.196595	99
Es	-2.395054	-1.256410	0.768472	99
Es	-0.675828	-1.959178	-0.123642	99
Es	-0.344871	0.294470	0.239747	99
Es	-0.604558	0.842019	0.581559	99
Es	-1.979558	-0.970962	0.817319	99
Es	-0.673441	0.844105	-0.031604	99
Es	-2.326271	-0.956734	0.801413	99
Es	-1.204141	-0.938052	0.310287	99
Es	-0.927607	-1.561715	-0.109484	99
Es	-1.926499	-0.904876	0.472919	99
40
Properties=species:S:1:pos:R:3:Z:I:1 energy=-322.82151332169724 field_type=dipole dipole="0.000000 0.000000 0.000000" charge=0
N	-0.668392	-2.056674	-0.252899	7
C	-1.204282	-0.937964	0.310361	6
O	-2.326572	-0.956734	0.801551	8
C	-0.344913	0.294616	0.239771	6
C	-0.980892	1.473986	0.341361	6
C	1.104358	0.188176	0.196541	6
C	1.918437	0.977316	-0.517359	6
H	0.188658	-2.044274	-0.786149	1
H	-1.250182	-2.882794	-0.281539	1
H	-2.063632	1.526806	0.422601	1
H	-0.445943	2.416986	0.361901	1
H	1.535948	-0.612164	0.795791	1
H	1.543698	1.784426	-1.139709	1
H	2.993708	0.828296	-0.492229	1
Es	-1.986509	-0.968549	0.811226	99
Es	-1.920371	-0.908833	0.478142	99
Es	-2.326241	-0.956665	0.801423	99
Es	-1.204143	-0.938050	0.310281	99
Es	-2.395601	-1.256747	0.772134	99
Es	0.375696	0.235391	0.200901	99
Es	-0.675773	-1.958991	-0.122921	99
Es	-0.750770	-0.329715	0.276422	99
Es	1.918494	0.977370	-0.517405	99
Es	-0.617631	2.107452	0.346876	99
Es	-0.980910	1.474066	0.341343	99
Es	1.469908	0.388524	-0.408878	99
Es	1.388201	-0.357121	0.595033	99
Es	-2.465080	-0.680233	0.910726	99
Es	-0.344871	0.294470	0.239739	99
Es	1.526150	0.778319	0.084157	99
Es	-0.604508	0.841965	0.581471	99
Es	1.104252	0.188111	0.196599	99
Es	2.649553	0.876186	-0.508372	99
Es	-0.927873	-1.561809	-0.110446	99
Es	-0.673469	0.844103	-0.031488	99
Es	-1.701761	1.518453	0.395913	99
Es	-0.981301	-2.553041	-0.226098	99
Es	-0.145068	-2.051102	-0.554682	99
Es	1.666580	1.522303	-0.934410	99
Es	-0.668715	-2.056343	-0.253308	99
40
Properties=species:S:1:pos:R:3:Z:I:1 energy=-322.82151332169724 field_type=dipole dipole="0.000000 0.000000 0.000000" charge=0
N	-0.668392	-2.056674	-0.252899	7
C	-1.204282	-0.937964	0.310361	6
O	-2.326572	-0.956734	0.801551	8
C	-0.344913	0.294616	0.239771	6
C	-0.980892	1.473986	0.341361	6
C	1.104358	0.188176	0.196541	6
C	1.918437	0.977316	-0.517359	6
H	0.188658	-2.044274	-0.786149	1
H	-1.250182	-2.882794	-0.281539	1
H	-2.063632	1.526806	0.422601	1
H	-0.445943	2.416986	0.361901	1
H	1.535948	-0.612164	0.795791	1
H	1.543698	1.784426	-1.139709	1
H	2.993708	0.828296	-0.492229	1
Es	2.649525	0.876202	-0.508391	99
Es	-0.927818	-1.561704	-0.109810	99
Es	-0.668871	-2.056127	-0.253403	99
Es	-0.604213	0.841528	0.581232	99
Es	1.469734	0.388579	-0.408902	99
Es	-0.980170	-2.553052	-0.224451	99
Es	-2.469144	-0.683339	0.913665	99
Es	-0.673752	0.844536	-0.031292	99
Es	-0.145055	-2.051075	-0.554503	99
Es	-1.917191	-0.905942	0.482306	99
Es	-0.617583	2.107477	0.346800	99
Es	-1.701786	1.518347	0.396035	99
Es	-1.989344	-0.968586	0.808136	99
Es	-0.750759	-0.329732	0.276533	99
Es	-0.676797	-1.959317	-0.125216	99
Es	1.388261	-0.357277	0.594958	99
Es	-2.391833	-1.256489	0.768091	99
Es	1.918494	0.977370	-0.517405	99
Es	-0.980910	1.474067	0.341341	99
Es	-0.344870	0.294465	0.239752	99
Es	1.666509	1.522485	-0.934262	99
Es	1.526292	0.778130	0.084011	99
Es	1.104252	0.188112	0.196598	99
Es	-1.204143	-0.938051	0.310281	99
Es	0.375717	0.235632	0.200841	99
Es	-2.326305	-0.956722	0.801431	99
40
Properties=species:S:1:pos:R:3:Z:I:1 energy=-322.82151332169724 field_type=dipole dipole="0.000000 0.000000 0.000000" charge=0
N	-0.668392	-2.056674	-0.252899	7
C	-1.204282	-0.937964	0.310361	6
O	-2.326572	-0.956734	0.801551	8
C	-0.344913	0.294616	0.239771	6
C	-0.980892	1.473986	0.341361	6
C	1.104358	0.188176	0.196541	6
C	1.918437	0.977316	-0.517359	6
H	0.188658	-2.044274	-0.786149	1
H	-1.250182	-2.882794	-0.281539	1
H	-2.063632	1.526806	0.422601	1
H	-0.445943	2.416986	0.361901	1
H	1.535948	-0.612164	0.795791	1
H	1.543698	1.784426	-1.139709	1
H	2.993708	0.828296	-0.492229	1
Es	-0.750776	-0.329706	0.276584	99
Es	-1.701764	1.518473	0.395969	99
Es	-1.910057	-0.908498	0.489589	99
Es	0.375708	0.235438	0.200996	99
Es	2.649565	0.876248	-0.508449	99
Es	-2.326234	-0.956702	0.801419	99
Es	-2.389035	-1.257160	0.771357	99
Es	-0.980515	-2.553159	-0.225070	99
Es	1.666475	1.522245	-0.934448	99
Es	-0.344871	0.294470	0.239747	99
Es	1.526157	0.778295	0.084105	99
Es	-0.668256	-2.056717	-0.252635	99
Es	1.470018	0.388415	-0.408933	99
Es	-0.980910	1.474066	0.341342	99
Es	-0.676297	-1.958668	-0.123400	99
Es	1.918495	0.977373	-0.517405	99
Es	-1.998131	-0.965473	0.799232	99
Es	-0.617703	2.107383	0.346703	99
Es	-0.673621	0.844393	-0.031643	99
Es	-1.204142	-0.938051	0.310283	99
Es	-0.928217	-1.561986	-0.110916	99
Es	1.104252	0.188111	0.196598	99
Es	-0.145431	-2.050741	-0.555356	99
Es	-0.604202	0.841728	0.581447	99
Es	-2.470386	-0.683214	0.912020	99
Es	1.388120	-0.357047	0.595240	99
40
Properties=species:S:1:pos:R:3:Z:I:1 energy=-322.82151332169724 field_type=dipole dipole="0.000000 0.000000 0.000000" charge=0
N	-0.668392	-2.056674	-0.252899	7
C	-1.204282	-0.937964	0.310361	6
O	-2.326572	-0.956734	0.801551	8
C	-0.344913	0.294616	0.239771	6
C	-0.980892	1.473986	0.341361	6
C	1.104358	0.188176	0.196541	6
C	1.918437	0.977316	-0.517359	6
H	0.188658	-2.044274	-0.786149	1
H	-1.250182	-2.882794	-0.281539	1
H	-2.063632	1.526806	0.422601	1
H	-0.445943	2.416986	0.361901	1
H	1.535948	-0.612164	0.795791	1
H	1.543698	1.784426	-1.139709	1
H	2.993708	0.828296	-0.492229	1
Es	-1.998841	-0.965671	0.797920	99
Es	0.375763	0.235675	0.201153	99
Es	-0.677782	-1.959132	-0.127394	99
Es	1.469925	0.388608	-0.408998	99
Es	1.666569	1.522276	-0.934376	99
Es	-1.909254	-0.910653	0.489925	99
Es	-2.467073	-0.681174	0.911933	99
Es	-0.145129	-2.051018	-0.554807	99
Es	-0.667670	-2.056198	-0.250244	99
Es	-0.673514	0.843989	-0.031638	99
Es	-0.928199	-1.561947	-0.111047	99
Es	2.649517	0.876073	-0.508558	99
Es	-1.204143	-0.938051	0.310281	99
Es	-0.617664	2.107287	0.346797	99
Es	-0.604339	0.842117	0.581009	99
Es	1.526186	0.778066	0.084158	99
Es	-2.392449	-1.256912	0.772470	99
Es	-0.344871	0.294470	0.239748	99
Es	-2.326233	-0.956654	0.801425	99
Es	-0.979866	-2.552930	-0.223846	99
Es	-0.980910	1.474066	0.341341	99
Es	1.104253	0.188114	0.196601	99
Es	1.388163	-0.357054	0.595097	99
Es	-0.750819	-0.329628	0.276772	99
Es	-1.701874	1.518426	0.396059	99
Es	1.918494	0.977371	-0.517404	99
40
Properties=species:S:1:pos:R:3:Z:I:1 energy=-322.82151332169724 field_type=dipole dipole="0.000000 0.000000 0.000000" charge=0
N	-0.668392	-2.056674	-0.252899	7
C	-1.204282	-0.937964	0.310361	6
O	-2.326572	-0.956734	0.801551	8
C	-0.344913	0.294616	0.239771	6
C	-0.980892	1.473986	0.341361	6
C	1.104358	0.188176	0.196541	6
C	1.918437	0.977316	-0.517359	6
H	0.188658	-2.044274	-0.786149	1
H	-1.250182	-2.882794	-0.281539	1
H	-2.063632	1.526806	0.422601	1
H	-0.445943	2.416986	0.361901	1
H	1.535948	-0.612164	0.795791	1
H	1.543698	1.784426	-1.139709	1
H	2.993708	0.828296	-0.492229	1
Es	-0.673538	0.843762	-0.032157	99
Es	1.104252	0.188112	0.196600	99
Es	-0.604417	0.842267	0.581334	99
Es	-0.980443	-2.552938	-0.224808	99
Es	2.649489	0.876074	-0.508611	99
Es	1.388168	-0.356684	0.595659	99
Es	-1.204142	-0.938051	0.310284	99
Es	-0.344870	0.294471	0.239745	99
Es	1.666508	1.521954	-0.934873	99
Es	-0.145519	-2.050918	-0.555656	99
Es	-0.750705	-0.329519	0.276853	99
Es	-2.010575	-0.962118	0.784765	99
Es	-0.617783	2.107345	0.346782	99
Es	-0.668115	-2.056723	-0.252269	99
Es	-2.326251	-0.956696	0.801419	99
Es	-0.980910	1.474066	0.341342	99
Es	-0.928966	-1.562312	-0.113674	99
Es	-2.467661	-0.680622	0.910326	99
Es	-2.390131	-1.257616	0.775865	99
Es	0.375797	0.235493	0.201351	99
Es	1.525888	0.778386	0.084118	99
Es	-1.899214	-0.914077	0.501307	99
Es	1.918492	0.977365	-0.517409	99
Es	-0.675610	-1.958349	-0.120984	99
Es	-1.701755	1.518461	0.396072	99
Es	1.470251	0.388382	-0.409003	99
40
Properties=species:S:1:pos:R:3:Z:I:1 energy=-322.82151332169724 field_type=dipole dipole="0.000000 0.000000 0.000000" charge=0
N	-0.668392	-2.056674	-0.252899	7
C	-1.204282	-0.937964	0.310361	6
O	-2.326572	-0.956734	0.801551	8
C	-0.344913	0.294616	0.239771	6
C	-0.980892	1.473986	0.341361	6
C	1.104358	0.188176	0.196541	6
C	1.918437	0.977316	-0.517359	6
H	0.188658	-2.044274	-0.786149	1
H	-1.250182	-2.882794	-0.281539	1
H	-2.063632	1.526806	0.422601	1
H	-0.445943	2.416986	0.361901	1
H	1.535948	-0.612164	0.795791	1
H	1.543698	1.784426	-1.139709	1
H	2.993708	0.828296	-0.492229	1
Es	-2.389317	-1.257231	0.775253	99
Es	-0.928152	-1.562070	-0.110824	99
Es	-0.677626	-1.958660	-0.125855	99
Es	-0.617659	2.107286	0.346611	99
Es	-1.900937	-0.913401	0.499271	99
Es	-0.145034	-2.050902	-0.554725	99
Es	-1.701873	1.518434	0.396008	99
Es	-1.204143	-0.938051	0.310284	99
Es	2.649554	0.876129	-0.508587	99
Es	-0.750840	-0.329544	0.276861	99
Es	1.918493	0.977367	-0.517410	99
Es	-0.668323	-2.056693	-0.252781	99
Es	-0.980910	1.474066	0.341342	99
Es	1.470140	0.388578	-0.408854	99
Es	1.525962	0.778242	0.084110	99
Es	-2.468712	-0.681241	0.910451	99
Es	-2.326257	-0.956681	0.801428	99
Es	-0.979527	-2.552897	-0.223164	99
Es	-0.604078	0.841886	0.581162	99
Es	1.104255	0.188119	0.196604	99
Es	-0.673702	0.844128	-0.031403	99
Es	-0.344871	0.294470	0.239751	99
Es	0.375723	0.235681	0.200906	99
Es	1.666479	1.521962	-0.934752	99
Es	1.388203	-0.356903	0.595366	99
Es	-2.008608	-0.962560	0.787325	99
40
Properties=species:S:1:pos:R:3:Z:I:1 energy=-322.82151332169724 field_type=dipole dipole="0.000000 0.000000 0.000000" charge=0
N	-0.668392	-2.056674	-0.252899	7
C	-1.204282	-0.937964	0.310361	6
O	-2.326572	-0.956734	0.801551	8
C	-0.344913	0.294616	0.239771	6
C	-0.980892	1.473986	0.341361	6
C	1.104358	0.188176	0.196541	6
C	1.918437	0.977316	-0.517359	6
H	0.188658	-2.044274	-0.786149	1
H	-1.250182	-2.882794	-0.281539	1
H	-2.063632	1.526806	0.422601	1
H	-0.445943	2.416986	0.361901	1
H	1.535948	-0.612164	0.795791	1
H	1.543698	1.784426	-1.139709	1
H	2.993708	0.828296	-0.492229	1
Es	1.666419	1.522279	-0.934499	99
Es	1.388083	-0.356808	0.595496	99
Es	-2.387970	-1.256939	0.774344	99
Es	-0.604210	0.842327	0.581038	99
Es	-1.897868	-0.913176	0.503082	99
Es	-2.011344	-0.961971	0.784438	99
Es	1.526184	0.778037	0.084025	99
Es	-0.979034	-2.552943	-0.222446	99
Es	-0.980910	1.474066	0.341341	99
Es	-0.750884	-0.329513	0.277018	99
Es	-0.668175	-2.056728	-0.252427	99
Es	-0.928255	-1.562128	-0.111118	99
Es	-1.204146	-0.938049	0.310277	99
Es	0.375790	0.235705	0.201001	99
Es	2.649476	0.876003	-0.508683	99
Es	1.104251	0.188110	0.196597	99
Es	-0.673570	0.843654	-0.031621	99
Es	-2.326255	-0.956699	0.801419	99
Es	-0.677733	-1.958761	-0.125883	99
Es	1.918494	0.977370	-0.517406	99
Es	-2.470419	-0.682344	0.910434	99
Es	-0.344873	0.294472	0.239767	99
Es	-1.701825	1.518415	0.396124	99
Es	-0.617692	2.107307	0.346621	99
Es	-0.145435	-2.050632	-0.555487	99
Es	1.470141	0.388463	-0.409076	99
40
Properties=species:S:1:pos:R:3:Z:I:1 energy=-322.82151332169724 field_type=dipole dipole="0.000000 0.000000 0.000000" charge=0
N	-0.668392	-2.056674	-0.252899	7
C	-1.204282	-0.937964	0.310361	6
O	-2.326572	-0.956734	0.801551	8
C	-0.344913	0.294616	0.239771	6
C	-0.980892	1.473986	0.341361	6
C	1.104358	0.188176	0.196541	6
C	1.918437	0.977316	-0.517359	6
H	0.188658	-2.044274	-0.786149	1
H	-1.250182	-2.882794	-0.281539	1
H	-2.063632	1.526806	0.422601	1
H	-0.445943	2.416986	0.361901	1
H	1.535948	-0.612164	0.795791	1
H	1.543698	1.784426	-1.139709	1
H	2.993708	0.828296	-0.492229	1
Es	1.918494	0.977371	-0.517404	99
Es	-1.891439	-0.916553	0.510861	99
Es	1.525866	0.778178	0.083990	99
Es	-2.468598	-0.680606	0.909083	99
Es	-1.204144	-0.938051	0.310280	99
Es	-0.928336	-1.562259	-0.110864	99
Es	1.666536	1.522012	-0.934960	99
Es	-1.701821	1.518410	0.396147	99
Es	-0.677308	-1.958770	-0.125196	99
Es	-0.344874	0.294470	0.239773	99
Es	-0.145557	-2.050538	-0.555880	99
Es	1.388141	-0.356608	0.595882	99
Es	-0.979309	-2.552908	-0.222973	99
Es	-2.326260	-0.956691	0.801424	99
Es	-0.604122	0.842139	0.581125	99
Es	2.649409	0.875930	-0.508647	99
Es	0.375847	0.235768	0.201249	99
Es	-0.668169	-2.056728	-0.252412	99
Es	-2.018970	-0.959821	0.774899	99
Es	-0.980910	1.474066	0.341341	99
Es	-0.617727	2.107289	0.346555	99
Es	1.470291	0.388348	-0.409131	99
Es	-0.750663	-0.329422	0.277108	99
Es	-0.673803	0.843822	-0.031955	99
Es	1.104252	0.188111	0.196598	99
Es	-2.388588	-1.257446	0.777484	99
