35
Properties=species:S:1:pos:R:3:Z:I:1 energy=-357.45822358288524 field_type=dipole dipole="0.000000 0.000000 0.000000" charge=0
N	-1.446108	-1.051136	1.106887	7
C	-0.482308	-0.833036	0.156087	6
O	-0.112378	-1.690636	-0.629013	8
C	0.106312	0.586164	0.149247	6
O	-0.306428	1.402394	0.967837	8
C	1.129432	0.971494	-0.798753	6
C	1.979242	1.295944	-1.584543	6
H	-1.718108	-0.304276	1.737367	1
H	-1.881938	-1.959526	1.176267	1
H	2.732282	1.582614	-2.281383	1
Es	-1.701596	-1.579522	1.149212	99
Es	-1.372063	-0.905861	0.682179	99
Es	0.634867	0.759597	-0.350570	99
Es	-0.306333	1.402124	0.967611	99
Es	2.465389	1.483283	-2.033706	99
Es	1.719126	1.234006	-0.889198	99
Es	-0.172053	1.681707	0.948082	99
Es	-0.177171	-0.115800	0.144173	99
Es	-0.059194	-1.456807	-0.197582	99
Es	0.105457	-1.585513	-0.819504	99
Es	-0.528933	1.273638	1.152095	99
Es	-0.266228	-1.957344	-0.582042	99
Es	-0.324387	1.165116	0.494239	99
Es	0.026973	1.018796	0.816659	99
Es	0.106364	0.586143	0.149182	99
Es	-0.482377	-0.832935	0.156210	99
Es	1.979400	1.296029	-1.584678	99
Es	-0.998203	-1.059043	1.025335	99
Es	-1.446004	-1.051113	1.106823	99
Es	1.281740	1.343102	-1.291488	99
Es	1.129228	0.971413	-0.798566	99
Es	-1.610224	-0.625150	1.475726	99
Es	1.581256	0.804938	-1.315213	99
Es	-0.410126	-1.311438	-0.518943	99
Es	-0.112504	-1.690402	-0.628776	99
35
Properties=species:S:1:pos:R:3:Z:I:1 energy=-357.45822358288524 field_type=dipole dipole="0.000000 0.000000 0.000000" charge=0
N	-1.446108	-1.051136	1.106887	7
C	-0.482308	-0.833036	0.156087	6
O	-0.112378	-1.690636	-0.629013	8
C	0.106312	0.586164	0.149247	6
O	-0.306428	1.402394	0.967837	8
C	1.129432	0.971494	-0.798753	6
C	1.979242	1.295944	-1.584543	6
H	-1.718108	-0.304276	1.737367	1
H	-1.881938	-1.959526	1.176267	1
H	2.732282	1.582614	-2.281383	1
Es	1.316437	1.381914	-1.258357	99
Es	-1.020121	-0.948049	0.696620	99
Es	-0.306306	1.402150	0.967593	99
Es	0.106362	0.586144	0.149180	99
Es	0.633757	0.764381	-0.349054	99
Es	-1.609676	-0.618284	1.479623	99
Es	-1.446277	-1.051020	1.106619	99
Es	-0.411782	-1.318483	-0.515352	99
Es	0.117798	-1.606040	-0.843075	99
Es	-0.541104	1.286692	1.173368	99
Es	2.466319	1.477741	-2.036732	99
Es	1.129214	0.971412	-0.798555	99
Es	-0.169492	1.656786	0.932198	99
Es	-0.317973	1.168670	0.494373	99
Es	-0.482377	-0.832932	0.156207	99
Es	-1.698902	-1.583934	1.145455	99
Es	1.547150	0.814280	-1.346494	99
Es	-0.066480	-1.456430	-0.198084	99
Es	1.719483	1.185964	-0.890652	99
Es	-0.177498	-0.114444	0.145040	99
Es	-1.353527	-1.020545	1.010956	99
Es	-0.112471	-1.690347	-0.628778	99
Es	1.979406	1.296015	-1.584689	99
Es	-0.269136	-1.928950	-0.561769	99
Es	0.029601	1.026273	0.811625	99
35
Properties=species:S:1:pos:R:3:Z:I:1 energy=-357.45822358288524 field_type=dipole dipole="0.000000 0.000000 0.000000" charge=0
N	-1.446108	-1.051136	1.106887	7
C	-0.482308	-0.833036	0.156087	6
O	-0.112378	-1.690636	-0.629013	8
C	0.106312	0.586164	0.149247	6
O	-0.306428	1.402394	0.967837	8
C	1.129432	0.971494	-0.798753	6
C	1.979242	1.295944	-1.584543	6
H	-1.718108	-0.304276	1.737367	1
H	-1.881938	-1.959526	1.176267	1
H	2.732282	1.582614	-2.281383	1
Es	0.121263	-1.618291	-0.851214	99
Es	-0.545132	1.297965	1.182718	99
Es	-1.698807	-1.581461	1.144171	99
Es	-0.314589	1.169647	0.495594	99
Es	-0.177389	-0.114314	0.145218	99
Es	-0.070193	-1.458004	-0.199207	99
Es	1.979393	1.296023	-1.584685	99
Es	-0.306357	1.402140	0.967644	99
Es	0.106370	0.586141	0.149185	99
Es	-0.482379	-0.832929	0.156211	99
Es	-0.271427	-1.913392	-0.555276	99
Es	-1.348648	-1.022512	1.015545	99
Es	1.549293	0.810960	-1.344720	99
Es	1.129205	0.971415	-0.798560	99
Es	-1.023451	-0.947491	0.692764	99
Es	0.029395	1.029239	0.809369	99
Es	0.633852	0.766815	-0.347981	99
Es	1.321771	1.379580	-1.253953	99
Es	-1.446066	-1.051128	1.106864	99
Es	2.466505	1.475242	-2.037943	99
Es	-0.112462	-1.690368	-0.628805	99
Es	-0.409135	-1.319883	-0.512606	99
Es	-1.611791	-0.619021	1.480213	99
Es	-0.168866	1.641214	0.923827	99
Es	1.712050	1.191379	-0.897107	99
35
Properties=species:S:1:pos:R:3:Z:I:1 energy=-357.45822358288524 field_type=dipole dipole="0.000000 0.000000 0.000000" charge=0
N	-1.446108	-1.051136	1.106887	7
C	-0.482308	-0.833036	0.156087	6
O	-0.112378	-1.690636	-0.629013	8
C	0.106312	0.586164	0.149247	6
O	-0.306428	1.402394	0.967837	8
C	1.129432	0.971494	-0.798753	6
C	1.979242	1.295944	-1.584543	6
H	-1.718108	-0.304276	1.737367	1
H	-1.881938	-1.959526	1.176267	1
H	2.732282	1.582614	-2.281383	1
Es	-1.027918	-0.946366	0.688312	99
Es	-0.306357	1.402105	0.967630	99
Es	0.122325	-1.623437	-0.855800	99
Es	1.591405	0.794929	-1.302795	99
Es	1.696751	1.305154	-0.916538	99
Es	2.465604	1.473933	-2.039482	99
Es	-0.268328	-1.903220	-0.552594	99
Es	-1.446050	-1.051134	1.106878	99
Es	0.106366	0.586141	0.149180	99
Es	-0.112460	-1.690368	-0.628803	99
Es	-1.348843	-1.022541	1.015502	99
Es	1.294313	1.281929	-1.277159	99
Es	-0.547127	1.306999	1.187820	99
Es	-1.613393	-0.619712	1.480676	99
Es	1.129216	0.971432	-0.798524	99
Es	-0.411373	-1.321795	-0.507664	99
Es	0.635437	0.767752	-0.346186	99
Es	-0.482376	-0.832931	0.156213	99
Es	-0.312329	1.172254	0.494892	99
Es	-0.177461	-0.114055	0.145276	99
Es	-1.692549	-1.581803	1.148568	99
Es	0.029793	1.031278	0.807939	99
Es	-0.170144	1.627413	0.920434	99
Es	1.979403	1.296002	-1.584700	99
Es	-0.071499	-1.460994	-0.201811	99
35
Properties=species:S:1:pos:R:3:Z:I:1 energy=-357.45822358288524 field_type=dipole dipole="0.000000 0.000000 0.000000" charge=0
N	-1.446108	-1.051136	1.106887	7
C	-0.482308	-0.833036	0.156087	6
O	-0.112378	-1.690636	-0.629013	8
C	0.106312	0.586164	0.149247	6
O	-0.306428	1.402394	0.967837	8
C	1.129432	0.971494	-0.798753	6
C	1.979242	1.295944	-1.584543	6
H	-1.718108	-0.304276	1.737367	1
H	-1.881938	-1.959526	1.176267	1
H	2.732282	1.582614	-2.281383	1
Es	1.656577	1.078448	-0.945430	99
Es	-0.411030	-1.327266	-0.513034	99
Es	-0.177405	-0.113815	0.145429	99
Es	-0.112442	-1.690333	-0.628807	99
Es	-0.306372	1.402120	0.967656	99
Es	0.106366	0.586141	0.149180	99
Es	-0.547244	1.314439	1.191947	99
Es	0.033878	1.034321	0.808185	99
Es	-1.016954	-0.951109	0.698070	99
Es	-1.446085	-1.051120	1.106847	99
Es	1.422577	1.471470	-1.170338	99
Es	-1.351145	-1.021798	1.013590	99
Es	-0.175453	1.613375	0.918144	99
Es	-0.310056	1.174849	0.493846	99
Es	0.632516	0.769574	-0.348859	99
Es	-1.702617	-1.575537	1.137806	99
Es	-1.612402	-0.621811	1.483542	99
Es	1.129204	0.971445	-0.798532	99
Es	-0.078148	-1.460619	-0.194626	99
Es	0.123600	-1.628651	-0.857461	99
Es	2.467412	1.471945	-2.038230	99
Es	1.979409	1.296017	-1.584690	99
Es	-0.482376	-0.832931	0.156215	99
Es	-0.264193	-1.891988	-0.553810	99
Es	1.504790	0.831800	-1.379377	99
35
Properties=species:S:1:pos:R:3:Z:I:1 energy=-357.45822358288524 field_type=dipole dipole="0.000000 0.000000 0.000000" charge=0
N	-1.446108	-1.051136	1.106887	7
C	-0.482308	-0.833036	0.156087	6
O	-0.112378	-1.690636	-0.629013	8
C	0.106312	0.586164	0.149247	6
O	-0.306428	1.402394	0.967837	8
C	1.129432	0.971494	-0.798753	6
C	1.979242	1.295944	-1.584543	6
H	-1.718108	-0.304276	1.737367	1
H	-1.881938	-1.959526	1.176267	1
H	2.732282	1.582614	-2.281383	1
Es	-1.024513	-0.948232	0.690972	99
Es	0.106363	0.586143	0.149177	99
Es	1.129205	0.971437	-0.798536	99
Es	-0.307730	1.172353	0.493132	99
Es	0.027351	1.035707	0.807947	99
Es	-0.262920	-1.895653	-0.553071	99
Es	-1.446069	-1.051127	1.106862	99
Es	1.979409	1.296011	-1.584696	99
Es	-0.171677	1.617247	0.918235	99
Es	-0.402696	-1.311963	-0.423891	99
Es	1.539884	0.812911	-1.352980	99
Es	-0.546180	1.311532	1.193127	99
Es	-0.482378	-0.832930	0.156214	99
Es	-0.306365	1.402162	0.967656	99
Es	0.634108	0.769686	-0.347165	99
Es	-0.112455	-1.690374	-0.628811	99
Es	2.466400	1.472799	-2.039247	99
Es	-1.610809	-0.622526	1.485144	99
Es	1.700179	1.178396	-0.907127	99
Es	0.118201	-1.619723	-0.863062	99
Es	1.342934	1.389796	-1.236036	99
Es	-0.177965	-0.113362	0.144624	99
Es	-1.699300	-1.576858	1.140889	99
Es	-1.348261	-1.022716	1.016218	99
Es	-0.082309	-1.481750	-0.278310	99
35
Properties=species:S:1:pos:R:3:Z:I:1 energy=-357.45822358288524 field_type=dipole dipole="0.000000 0.000000 0.000000" charge=0
N	-1.446108	-1.051136	1.106887	7
C	-0.482308	-0.833036	0.156087	6
O	-0.112378	-1.690636	-0.629013	8
C	0.106312	0.586164	0.149247	6
O	-0.306428	1.402394	0.967837	8
C	1.129432	0.971494	-0.798753	6
C	1.979242	1.295944	-1.584543	6
H	-1.718108	-0.304276	1.737367	1
H	-1.881938	-1.959526	1.176267	1
H	2.732282	1.582614	-2.281383	1
Es	-0.420031	-1.331323	-0.508427	99
Es	-0.306364	1.402159	0.967660	99
Es	-0.078527	-1.470643	-0.192091	99
Es	-1.616782	-0.622323	1.482092	99
Es	0.635928	0.768339	-0.345733	99
Es	-1.350010	-1.022441	1.014888	99
Es	-0.112455	-1.690389	-0.628818	99
Es	-0.253571	-1.874874	-0.557773	99
Es	-1.028469	-0.946797	0.687038	99
Es	-0.547719	1.320264	1.194608	99
Es	0.038065	1.039349	0.806893	99
Es	0.106366	0.586139	0.149178	99
Es	-0.177284	-0.113416	0.145524	99
Es	-0.182815	1.593297	0.920359	99
Es	-1.446096	-1.051116	1.106834	99
Es	1.354199	1.162512	-1.217568	99
Es	1.596691	0.793311	-1.296833	99
Es	1.631506	1.427173	-0.982165	99
Es	-0.482378	-0.832931	0.156214	99
Es	-1.687703	-1.578758	1.149549	99
Es	0.124039	-1.631404	-0.859531	99
Es	1.129208	0.971433	-0.798532	99
Es	2.465392	1.471677	-2.040459	99
Es	1.979410	1.296007	-1.584700	99
Es	-0.308193	1.183723	0.489056	99
35
Properties=species:S:1:pos:R:3:Z:I:1 energy=-357.45822358288524 field_type=dipole dipole="0.000000 0.000000 0.000000" charge=0
N	-1.446108	-1.051136	1.106887	7
C	-0.482308	-0.833036	0.156087	6
O	-0.112378	-1.690636	-0.629013	8
C	0.106312	0.586164	0.149247	6
O	-0.306428	1.402394	0.967837	8
C	1.129432	0.971494	-0.798753	6
C	1.979242	1.295944	-1.584543	6
H	-1.718108	-0.304276	1.737367	1
H	-1.881938	-1.959526	1.176267	1
H	2.732282	1.582614	-2.281383	1
Es	-0.177144	-0.113336	0.145654	99
Es	0.106372	0.586139	0.149186	99
Es	0.039969	1.042005	0.807700	99
Es	-0.306373	1.402133	0.967660	99
Es	2.465600	1.471209	-2.040377	99
Es	-1.350406	-1.022218	1.014591	99
Es	1.378862	1.144842	-1.193285	99
Es	-0.083643	-1.472737	-0.186692	99
Es	-0.251527	-1.870854	-0.561017	99
Es	-0.186433	1.585424	0.920134	99
Es	-0.306496	1.185940	0.487539	99
Es	-0.418345	-1.334691	-0.511739	99
Es	1.129213	0.971435	-0.798529	99
Es	1.589590	0.795367	-1.304713	99
Es	-0.547768	1.323005	1.195554	99
Es	0.125455	-1.629694	-0.858495	99
Es	-1.026555	-0.947483	0.688619	99
Es	0.635498	0.768522	-0.346124	99
Es	-0.112478	-1.690395	-0.628797	99
Es	1.979409	1.296004	-1.584699	99
Es	-0.482385	-0.832928	0.156206	99
Es	-1.688237	-1.577509	1.148210	99
Es	1.614194	1.442877	-0.998366	99
Es	-1.446161	-1.051086	1.106769	99
Es	-1.617803	-0.623008	1.482276	99
35
Properties=species:S:1:pos:R:3:Z:I:1 energy=-357.45822358288524 field_type=dipole dipole="0.000000 0.000000 0.000000" charge=0
N	-1.446108	-1.051136	1.106887	7
C	-0.482308	-0.833036	0.156087	6
O	-0.112378	-1.690636	-0.629013	8
C	0.106312	0.586164	0.149247	6
O	-0.306428	1.402394	0.967837	8
C	1.129432	0.971494	-0.798753	6
C	1.979242	1.295944	-1.584543	6
H	-1.718108	-0.304276	1.737367	1
H	-1.881938	-1.959526	1.176267	1
H	2.732282	1.582614	-2.281383	1
Es	1.417441	1.123596	-1.155833	99
Es	-0.112477	-1.690483	-0.628853	99
Es	-1.350067	-1.022258	1.014860	99
Es	-0.306367	1.402120	0.967649	99
Es	2.465938	1.470970	-2.040133	99
Es	0.125413	-1.629576	-0.858924	99
Es	-0.177228	-0.113093	0.145538	99
Es	-0.422746	-1.336437	-0.510506	99
Es	0.042755	1.044634	0.808131	99
Es	-1.025280	-0.948115	0.689675	99
Es	1.575529	0.799742	-1.319517	99
Es	-0.482378	-0.832930	0.156212	99
Es	1.129204	0.971427	-0.798537	99
Es	-0.547413	1.324527	1.196435	99
Es	-1.690393	-1.575870	1.145589	99
Es	1.979408	1.296002	-1.584702	99
Es	-0.190068	1.579180	0.919787	99
Es	0.635025	0.768624	-0.346561	99
Es	-0.247250	-1.865406	-0.561879	99
Es	-1.445922	-1.051178	1.106980	99
Es	1.589921	1.459811	-1.020809	99
Es	-0.083531	-1.476079	-0.186795	99
Es	-1.617614	-0.623943	1.483358	99
Es	-0.305863	1.187558	0.486921	99
Es	0.106367	0.586141	0.149181	99
35
Properties=species:S:1:pos:R:3:Z:I:1 energy=-357.45822358288524 field_type=dipole dipole="0.000000 0.000000 0.000000" charge=0
N	-1.446108	-1.051136	1.106887	7
C	-0.482308	-0.833036	0.156087	6
O	-0.112378	-1.690636	-0.629013	8
C	0.106312	0.586164	0.149247	6
O	-0.306428	1.402394	0.967837	8
C	1.129432	0.971494	-0.798753	6
C	1.979242	1.295944	-1.584543	6
H	-1.718108	-0.304276	1.737367	1
H	-1.881938	-1.959526	1.176267	1
H	2.732282	1.582614	-2.281383	1
Es	0.044517	1.044842	0.806672	99
Es	0.106361	0.586144	0.149176	99
Es	-0.245455	-1.857717	-0.565714	99
Es	-0.112454	-1.690357	-0.628807	99
Es	0.130664	-1.631319	-0.854329	99
Es	0.634839	0.768836	-0.346714	99
Es	-1.446027	-1.051143	1.106898	99
Es	-1.351044	-1.021858	1.014034	99
Es	-0.190808	1.578003	0.919829	99
Es	-0.306768	1.188444	0.488339	99
Es	-0.388958	-1.356115	-0.527540	99
Es	-0.124851	-1.462596	-0.170716	99
Es	-1.022767	-0.949183	0.691947	99
Es	1.398787	1.131236	-1.174601	99
Es	2.466161	1.470825	-2.039942	99
Es	1.587810	0.796151	-1.306569	99
Es	-0.306388	1.402056	0.967642	99
Es	-0.548188	1.324928	1.195792	99
Es	-0.176231	-0.113176	0.146196	99
Es	-1.689669	-1.576036	1.146269	99
Es	1.129208	0.971447	-0.798528	99
Es	-0.482377	-0.832931	0.156215	99
Es	-1.619826	-0.623067	1.481281	99
Es	1.596465	1.455559	-1.014861	99
Es	1.979404	1.295993	-1.584704	99
35
Properties=species:S:1:pos:R:3:Z:I:1 energy=-357.45822358288524 field_type=dipole dipole="0.000000 0.000000 0.000000" charge=0
N	-1.446108	-1.051136	1.106887	7
C	-0.482308	-0.833036	0.156087	6
O	-0.112378	-1.690636	-0.629013	8
C	0.106312	0.586164	0.149247	6
O	-0.306428	1.402394	0.967837	8
C	1.129432	0.971494	-0.798753	6
C	1.979242	1.295944	-1.584543	6
H	-1.718108	-0.304276	1.737367	1
H	-1.881938	-1.959526	1.176267	1
H	2.732282	1.582614	-2.281383	1
Es	-0.192167	1.573471	0.920726	99
Es	-1.025081	-0.948368	0.689785	99
Es	-0.304403	1.190950	0.485817	99
Es	-1.348658	-1.022761	1.016200	99
Es	1.129211	0.971437	-0.798526	99
Es	1.543837	1.479986	-1.063007	99
Es	-1.693968	-1.573259	1.141487	99
Es	-0.070075	-1.485225	-0.230605	99
Es	-1.615354	-0.625831	1.486413	99
Es	-0.306357	1.402186	0.967667	99
Es	0.043593	1.046105	0.808164	99
Es	0.634308	0.769205	-0.347206	99
Es	1.979406	1.296013	-1.584701	99
Es	2.466117	1.470662	-2.040034	99
Es	0.106363	0.586143	0.149178	99
Es	1.534426	0.816834	-1.356955	99
Es	-0.439674	-1.336221	-0.463427	99
Es	-0.177814	-0.112559	0.144795	99
Es	1.505060	1.086017	-1.075843	99
Es	-0.482377	-0.832931	0.156214	99
Es	0.119155	-1.625878	-0.865045	99
Es	-0.237813	-1.860155	-0.559250	99
Es	-1.446266	-1.051038	1.106641	99
Es	-0.112485	-1.690395	-0.628794	99
Es	-0.546580	1.324575	1.197572	99
35
Properties=species:S:1:pos:R:3:Z:I:1 energy=-357.45822358288524 field_type=dipole dipole="0.000000 0.000000 0.000000" charge=0
N	-1.446108	-1.051136	1.106887	7
C	-0.482308	-0.833036	0.156087	6
O	-0.112378	-1.690636	-0.629013	8
C	0.106312	0.586164	0.149247	6
O	-0.306428	1.402394	0.967837	8
C	1.129432	0.971494	-0.798753	6
C	1.979242	1.295944	-1.584543	6
H	-1.718108	-0.304276	1.737367	1
H	-1.881938	-1.959526	1.176267	1
H	2.732282	1.582614	-2.281383	1
Es	1.129192	0.971444	-0.798548	99
Es	0.043566	1.042615	0.807835	99
Es	-0.306386	1.402089	0.967650	99
Es	0.106365	0.586141	0.149179	99
Es	-0.175955	-0.112565	0.145356	99
Es	-1.350931	-1.022227	1.014214	99
Es	-0.248430	-1.861771	-0.569671	99
Es	-0.112467	-1.690378	-0.628801	99
Es	1.511323	0.829577	-1.374573	99
Es	-0.306812	1.183511	0.490700	99
Es	-0.279797	-1.390340	-0.239436	99
Es	-1.614309	-0.624235	1.485328	99
Es	1.646804	1.080585	-0.952819	99
Es	0.131720	-1.622767	-0.853288	99
Es	-0.482377	-0.832931	0.156215	99
Es	2.467579	1.470781	-2.038491	99
Es	-0.234233	-1.433197	-0.456612	99
Es	1.426225	1.471528	-1.167394	99
Es	1.979414	1.296003	-1.584694	99
Es	-0.547686	1.323877	1.195765	99
Es	-1.014792	-0.952844	0.699685	99
Es	-0.188313	1.585752	0.917999	99
Es	0.632203	0.770204	-0.349228	99
Es	-1.446137	-1.051098	1.106796	99
Es	-1.703361	-1.570789	1.134097	99
35
Properties=species:S:1:pos:R:3:Z:I:1 energy=-357.45822358288524 field_type=dipole dipole="0.000000 0.000000 0.000000" charge=0
N	-1.446108	-1.051136	1.106887	7
C	-0.482308	-0.833036	0.156087	6
O	-0.112378	-1.690636	-0.629013	8
C	0.106312	0.586164	0.149247	6
O	-0.306428	1.402394	0.967837	8
C	1.129432	0.971494	-0.798753	6
C	1.979242	1.295944	-1.584543	6
H	-1.718108	-0.304276	1.737367	1
H	-1.881938	-1.959526	1.176267	1
H	2.732282	1.582614	-2.281383	1
Es	1.979410	1.296000	-1.584702	99
Es	0.116612	-1.625045	-0.867604	99
Es	2.466206	1.470617	-2.039945	99
Es	-0.112451	-1.690367	-0.628813	99
Es	0.633905	0.769284	-0.347591	99
Es	-0.231426	-1.850149	-0.560363	99
Es	-0.429669	-1.346830	-0.409683	99
Es	-1.446023	-1.051144	1.106901	99
Es	-0.177893	-0.111946	0.144276	99
Es	-1.023824	-0.948970	0.690929	99
Es	-0.192996	1.572354	0.920255	99
Es	1.518655	1.485672	-1.085851	99
Es	0.044443	1.046831	0.808221	99
Es	-0.305059	1.190583	0.485643	99
Es	-1.348489	-1.022904	1.016450	99
Es	-0.545346	1.325129	1.198750	99
Es	-0.084382	-1.485805	-0.280575	99
Es	0.106361	0.586144	0.149177	99
Es	1.550272	1.069798	-1.037549	99
Es	-1.613992	-0.626187	1.487423	99
Es	1.129218	0.971434	-0.798520	99
Es	-1.696992	-1.572059	1.138826	99
Es	-0.306334	1.402128	0.967615	99
Es	1.514584	0.827327	-1.372217	99
Es	-0.482382	-0.832930	0.156213	99
35
Properties=species:S:1:pos:R:3:Z:I:1 energy=-357.45822358288524 field_type=dipole dipole="0.000000 0.000000 0.000000" charge=0
N	-1.446108	-1.051136	1.106887	7
C	-0.482308	-0.833036	0.156087	6
O	-0.112378	-1.690636	-0.629013	8
C	0.106312	0.586164	0.149247	6
O	-0.306428	1.402394	0.967837	8
C	1.129432	0.971494	-0.798753	6
C	1.979242	1.295944	-1.584543	6
H	-1.718108	-0.304276	1.737367	1
H	-1.881938	-1.959526	1.176267	1
H	2.732282	1.582614	-2.281383	1
Es	0.636798	0.768225	-0.345065	99
Es	-0.106757	-1.478675	-0.323235	99
Es	-1.348438	-1.023133	1.016358	99
Es	-0.232639	-1.856020	-0.559249	99
Es	-1.034235	-0.944792	0.681957	99
Es	-0.191098	1.572215	0.921943	99
Es	-0.112453	-1.690371	-0.628815	99
Es	-0.177774	-0.111754	0.143870	99
Es	-0.545983	1.324798	1.198002	99
Es	-1.445781	-1.051221	1.107065	99
Es	1.979407	1.296003	-1.584703	99
Es	-0.482384	-0.832928	0.156209	99
Es	-1.616270	-0.625242	1.485347	99
Es	0.106368	0.586140	0.149182	99
Es	1.129215	0.971434	-0.798524	99
Es	0.040473	1.045530	0.808893	99
Es	1.356581	1.165572	-1.214062	99
Es	1.589293	0.796331	-1.305030	99
Es	-0.306367	1.402167	0.967670	99
Es	1.635915	1.421336	-0.978024	99
Es	0.115694	-1.621702	-0.868129	99
Es	-0.403922	-1.352191	-0.366052	99
Es	-0.303733	1.192872	0.482758	99
Es	-1.684310	-1.576980	1.150050	99
Es	2.464807	1.471354	-2.041152	99
35
Properties=species:S:1:pos:R:3:Z:I:1 energy=-357.45822358288524 field_type=dipole dipole="0.000000 0.000000 0.000000" charge=0
N	-1.446108	-1.051136	1.106887	7
C	-0.482308	-0.833036	0.156087	6
O	-0.112378	-1.690636	-0.629013	8
C	0.106312	0.586164	0.149247	6
O	-0.306428	1.402394	0.967837	8
C	1.129432	0.971494	-0.798753	6
C	1.979242	1.295944	-1.584543	6
H	-1.718108	-0.304276	1.737367	1
H	-1.881938	-1.959526	1.176267	1
H	2.732282	1.582614	-2.281383	1
Es	-0.175748	-0.112480	0.145516	99
Es	1.621387	1.071570	-0.974713	99
Es	0.132545	-1.626048	-0.853045	99
Es	0.106365	0.586142	0.149179	99
Es	-0.272573	-1.403660	-0.228603	99
Es	-0.112468	-1.690452	-0.628833	99
Es	-1.615648	-0.624903	1.485326	99
Es	-0.246176	-1.426968	-0.466293	99
Es	1.129199	0.971439	-0.798540	99
Es	-0.306352	1.402121	0.967636	99
Es	1.511831	0.829400	-1.374204	99
Es	-1.014179	-0.953040	0.700193	99
Es	-0.306551	1.187294	0.490682	99
Es	1.979411	1.296001	-1.584699	99
Es	-0.482376	-0.832931	0.156215	99
Es	0.632070	0.770283	-0.349372	99
Es	-0.548116	1.324579	1.195848	99
Es	-1.702221	-1.570101	1.134120	99
Es	1.451341	1.481040	-1.145636	99
Es	-0.244420	-1.851063	-0.571088	99
Es	2.467588	1.470237	-2.038593	99
Es	0.048396	1.046532	0.806936	99
Es	-1.351426	-1.021996	1.013735	99
Es	-1.446149	-1.051095	1.106787	99
Es	-0.193328	1.577066	0.918710	99
35
Properties=species:S:1:pos:R:3:Z:I:1 energy=-357.45822358288524 field_type=dipole dipole="0.000000 0.000000 0.000000" charge=0
N	-1.446108	-1.051136	1.106887	7
C	-0.482308	-0.833036	0.156087	6
O	-0.112378	-1.690636	-0.629013	8
C	0.106312	0.586164	0.149247	6
O	-0.306428	1.402394	0.967837	8
C	1.129432	0.971494	-0.798753	6
C	1.979242	1.295944	-1.584543	6
H	-1.718108	-0.304276	1.737367	1
H	-1.881938	-1.959526	1.176267	1
H	2.732282	1.582614	-2.281383	1
Es	0.122758	-1.620642	-0.862184	99
Es	0.042516	1.043964	0.806508	99
Es	-0.184535	-1.454799	-0.412199	99
Es	-0.189773	1.576189	0.920495	99
Es	0.106366	0.586140	0.149179	99
Es	1.129213	0.971438	-0.798525	99
Es	2.465031	1.471380	-2.040924	99
Es	-1.445184	-1.051341	1.107237	99
Es	-1.031449	-0.945876	0.684318	99
Es	-0.335862	-1.381223	-0.280369	99
Es	-0.482383	-0.832927	0.156208	99
Es	-1.619096	-0.623597	1.482239	99
Es	1.979407	1.296003	-1.584702	99
Es	-0.307231	1.189941	0.486418	99
Es	-0.112472	-1.690370	-0.628794	99
Es	-0.176698	-0.111936	0.144465	99
Es	-0.230363	-1.852326	-0.561782	99
Es	-1.350506	-1.022664	1.015171	99
Es	0.636771	0.768405	-0.345058	99
Es	-1.682829	-1.577855	1.151724	99
Es	1.328185	1.191507	-1.242877	99
Es	-0.306357	1.402145	0.967656	99
Es	1.599129	0.794080	-1.293853	99
Es	-0.546789	1.325938	1.197230	99
Es	1.654554	1.397390	-0.960317	99
35
Properties=species:S:1:pos:R:3:Z:I:1 energy=-357.45822358288524 field_type=dipole dipole="0.000000 0.000000 0.000000" charge=0
N	-1.446108	-1.051136	1.106887	7
C	-0.482308	-0.833036	0.156087	6
O	-0.112378	-1.690636	-0.629013	8
C	0.106312	0.586164	0.149247	6
O	-0.306428	1.402394	0.967837	8
C	1.129432	0.971494	-0.798753	6
C	1.979242	1.295944	-1.584543	6
H	-1.718108	-0.304276	1.737367	1
H	-1.881938	-1.959526	1.176267	1
H	2.732282	1.582614	-2.281383	1
Es	1.651476	1.401334	-0.963358	99
Es	-0.189859	1.577086	0.920998	99
Es	-0.112454	-1.690391	-0.628819	99
Es	0.106366	0.586142	0.149181	99
Es	1.329933	1.187802	-1.241479	99
Es	-1.682796	-1.577804	1.151813	99
Es	1.979407	1.296006	-1.584702	99
Es	1.600650	0.793789	-1.292053	99
Es	-0.306369	1.402129	0.967653	99
Es	-1.030883	-0.946206	0.684783	99
Es	0.636499	0.768559	-0.345288	99
Es	-1.348879	-1.023179	1.016358	99
Es	0.124778	-1.623645	-0.860731	99
Es	1.129236	0.971420	-0.798515	99
Es	0.042578	1.044250	0.806485	99
Es	-0.206625	-1.446816	-0.432228	99
Es	-0.316784	-1.390892	-0.261327	99
Es	-0.229542	-1.847506	-0.562407	99
Es	-1.446330	-1.050995	1.106553	99
Es	-1.620242	-0.623131	1.481151	99
Es	-0.176295	-0.111944	0.144872	99
Es	2.465182	1.471175	-2.040825	99
Es	-0.547490	1.324496	1.196443	99
Es	-0.482381	-0.832931	0.156212	99
Es	-0.306770	1.190217	0.486493	99
35
Properties=species:S:1:pos:R:3:Z:I:1 energy=-357.45822358288524 field_type=dipole dipole="0.000000 0.000000 0.000000" charge=0
N	-1.446108	-1.051136	1.106887	7
C	-0.482308	-0.833036	0.156087	6
O	-0.112378	-1.690636	-0.629013	8
C	0.106312	0.586164	0.149247	6
O	-0.306428	1.402394	0.967837	8
C	1.129432	0.971494	-0.798753	6
C	1.979242	1.295944	-1.584543	6
H	-1.718108	-0.304276	1.737367	1
H	-1.881938	-1.959526	1.176267	1
H	2.732282	1.582614	-2.281383	1
Es	1.548778	0.810758	-1.344802	99
Es	-0.200107	1.561235	0.919270	99
Es	1.506152	1.088585	-1.073996	99
Es	-1.696492	-1.570916	1.138104	99
Es	-0.332628	-1.387013	-0.517772	99
Es	-1.015769	-0.952298	0.698475	99
Es	-0.195560	-1.448003	-0.180789	99
Es	-0.548481	1.327920	1.196360	99
Es	2.467167	1.470124	-2.039111	99
Es	-0.306365	1.402122	0.967647	99
Es	0.054772	1.052590	0.804424	99
Es	-1.446109	-1.051109	1.106823	99
Es	-0.307311	1.193342	0.491163	99
Es	-1.619099	-0.625445	1.484068	99
Es	-1.352182	-1.021351	1.012884	99
Es	0.632850	0.769549	-0.348648	99
Es	0.134487	-1.631156	-0.851226	99
Es	0.106368	0.586141	0.149182	99
Es	-0.112475	-1.690421	-0.628826	99
Es	-0.236085	-1.840893	-0.569317	99
Es	-0.482378	-0.832929	0.156214	99
Es	1.529419	1.483279	-1.076004	99
Es	1.129203	0.971430	-0.798538	99
Es	-0.175158	-0.112584	0.146377	99
Es	1.979411	1.296006	-1.584697	99
35
Properties=species:S:1:pos:R:3:Z:I:1 energy=-357.45822358288524 field_type=dipole dipole="0.000000 0.000000 0.000000" charge=0
N	-1.446108	-1.051136	1.106887	7
C	-0.482308	-0.833036	0.156087	6
O	-0.112378	-1.690636	-0.629013	8
C	0.106312	0.586164	0.149247	6
O	-0.306428	1.402394	0.967837	8
C	1.129432	0.971494	-0.798753	6
C	1.979242	1.295944	-1.584543	6
H	-1.718108	-0.304276	1.737367	1
H	-1.881938	-1.959526	1.176267	1
H	2.732282	1.582614	-2.281383	1
Es	1.602547	0.793529	-1.289793	99
Es	0.126076	-1.623650	-0.859520	99
Es	1.979406	1.296000	-1.584703	99
Es	0.636402	0.768498	-0.345389	99
Es	1.642591	1.412969	-0.971862	99
Es	-0.303449	1.192881	0.483167	99
Es	-0.229983	-1.844677	-0.564871	99
Es	-1.683292	-1.577186	1.150933	99
Es	-0.482379	-0.832930	0.156211	99
Es	-0.547671	1.327781	1.196751	99
Es	-0.306336	1.402125	0.967616	99
Es	-0.313409	-1.395640	-0.256551	99
Es	-1.350252	-1.022565	1.015056	99
Es	-0.176265	-0.111804	0.144813	99
Es	0.106363	0.586143	0.149180	99
Es	-0.112499	-1.690379	-0.628767	99
Es	0.042087	1.045687	0.809556	99
Es	1.336925	1.176508	-1.235237	99
Es	-0.210893	-1.444828	-0.435881	99
Es	-1.029580	-0.946667	0.685881	99
Es	1.129210	0.971431	-0.798530	99
Es	2.465311	1.471078	-2.040734	99
Es	-1.445894	-1.051198	1.106998	99
Es	-0.192447	1.569513	0.921151	99
Es	-1.620163	-0.623653	1.481787	99
35
Properties=species:S:1:pos:R:3:Z:I:1 energy=-357.45822358288524 field_type=dipole dipole="0.000000 0.000000 0.000000" charge=0
N	-1.446108	-1.051136	1.106887	7
C	-0.482308	-0.833036	0.156087	6
O	-0.112378	-1.690636	-0.629013	8
C	0.106312	0.586164	0.149247	6
O	-0.306428	1.402394	0.967837	8
C	1.129432	0.971494	-0.798753	6
C	1.979242	1.295944	-1.584543	6
H	-1.718108	-0.304276	1.737367	1
H	-1.881938	-1.959526	1.176267	1
H	2.732282	1.582614	-2.281383	1
Es	-1.701540	-1.569875	1.134498	99
Es	-0.305983	1.190143	0.488993	99
Es	1.466704	1.484203	-1.132233	99
Es	1.509825	0.830565	-1.375601	99
Es	0.049360	1.048393	0.807100	99
Es	-0.215616	-1.441951	-0.440614	99
Es	0.106363	0.586143	0.149177	99
Es	-0.308356	-1.398691	-0.251746	99
Es	1.607882	1.067304	-0.986900	99
Es	-0.112441	-1.690351	-0.628814	99
Es	1.979414	1.295999	-1.584697	99
Es	-1.350848	-1.022224	1.014382	99
Es	-1.446140	-1.051099	1.106791	99
Es	0.632358	0.770167	-0.349106	99
Es	-0.482377	-0.832931	0.156215	99
Es	2.467409	1.470195	-2.038814	99
Es	-0.546995	1.328164	1.197686	99
Es	0.129853	-1.625014	-0.855953	99
Es	-1.015733	-0.952489	0.698603	99
Es	-0.195866	1.568367	0.918610	99
Es	-0.306354	1.402121	0.967632	99
Es	-1.615355	-0.625432	1.485993	99
Es	1.129205	0.971432	-0.798534	99
Es	-0.236581	-1.842047	-0.570731	99
Es	-0.175782	-0.112128	0.145326	99
35
Properties=species:S:1:pos:R:3:Z:I:1 energy=-357.45822358288524 field_type=dipole dipole="0.000000 0.000000 0.000000" charge=0
N	-1.446108	-1.051136	1.106887	7
C	-0.482308	-0.833036	0.156087	6
O	-0.112378	-1.690636	-0.629013	8
C	0.106312	0.586164	0.149247	6
O	-0.306428	1.402394	0.967837	8
C	1.129432	0.971494	-0.798753	6
C	1.979242	1.295944	-1.584543	6
H	-1.718108	-0.304276	1.737367	1
H	-1.881938	-1.959526	1.176267	1
H	2.732282	1.582614	-2.281383	1
Es	-1.619716	-0.624150	1.482467	99
Es	1.640439	1.415610	-0.973906	99
Es	-0.482385	-0.832928	0.156207	99
Es	2.465191	1.471104	-2.040844	99
Es	-0.192183	-1.452000	-0.419258	99
Es	0.042553	1.045780	0.808901	99
Es	-0.176464	-0.111683	0.144519	99
Es	1.129210	0.971433	-0.798529	99
Es	-0.303826	1.194006	0.483342	99
Es	0.123127	-1.623199	-0.862299	99
Es	-0.226743	-1.841549	-0.563465	99
Es	0.636510	0.768436	-0.345306	99
Es	-1.683465	-1.576858	1.150595	99
Es	-1.030549	-0.946261	0.685012	99
Es	-0.112450	-1.690381	-0.628822	99
Es	0.106367	0.586141	0.149182	99
Es	-0.192780	1.567840	0.921300	99
Es	1.979407	1.296004	-1.584703	99
Es	-0.547354	1.327928	1.197217	99
Es	-1.445860	-1.051199	1.107018	99
Es	-0.306346	1.402213	0.967670	99
Es	-0.332323	-1.392005	-0.271655	99
Es	-1.349556	-1.022799	1.015621	99
Es	1.342341	1.173416	-1.229309	99
Es	1.599260	0.794067	-1.293690	99
35
Properties=species:S:1:pos:R:3:Z:I:1 energy=-357.45822358288524 field_type=dipole dipole="0.000000 0.000000 0.000000" charge=0
N	-1.446108	-1.051136	1.106887	7
C	-0.482308	-0.833036	0.156087	6
O	-0.112378	-1.690636	-0.629013	8
C	0.106312	0.586164	0.149247	6
O	-0.306428	1.402394	0.967837	8
C	1.129432	0.971494	-0.798753	6
C	1.979242	1.295944	-1.584543	6
H	-1.718108	-0.304276	1.737367	1
H	-1.881938	-1.959526	1.176267	1
H	2.732282	1.582614	-2.281383	1
Es	2.467225	1.470155	-2.039000	99
Es	1.129200	0.971436	-0.798538	99
Es	-1.700527	-1.569613	1.134769	99
Es	-0.197083	1.567517	0.918339	99
Es	-0.482377	-0.832931	0.156215	99
Es	-0.198669	-1.449688	-0.425094	99
Es	1.601542	1.063816	-0.993198	99
Es	1.979411	1.296000	-1.584698	99
Es	-0.326321	-1.395499	-0.265486	99
Es	-0.306192	1.189805	0.488552	99
Es	-1.616151	-0.625842	1.486034	99
Es	0.106365	0.586142	0.149180	99
Es	-1.446125	-1.051104	1.106807	99
Es	1.506454	0.832584	-1.377906	99
Es	-0.175958	-0.111949	0.145025	99
Es	-0.546852	1.327894	1.197705	99
Es	-0.306376	1.402104	0.967650	99
Es	1.476292	1.485695	-1.123777	99
Es	-0.112488	-1.690395	-0.628829	99
Es	-1.349495	-1.022770	1.015671	99
Es	0.127841	-1.625037	-0.858029	99
Es	0.050596	1.049759	0.807798	99
Es	-0.233204	-1.837603	-0.570126	99
Es	0.632585	0.770213	-0.348854	99
Es	-1.017288	-0.951726	0.697055	99
35
Properties=species:S:1:pos:R:3:Z:I:1 energy=-357.45822358288524 field_type=dipole dipole="0.000000 0.000000 0.000000" charge=0
N	-1.446108	-1.051136	1.106887	7
C	-0.482308	-0.833036	0.156087	6
O	-0.112378	-1.690636	-0.629013	8
C	0.106312	0.586164	0.149247	6
O	-0.306428	1.402394	0.967837	8
C	1.129432	0.971494	-0.798753	6
C	1.979242	1.295944	-1.584543	6
H	-1.718108	-0.304276	1.737367	1
H	-1.881938	-1.959526	1.176267	1
H	2.732282	1.582614	-2.281383	1
Es	1.347790	1.167118	-1.224243	99
Es	-0.312462	-1.402972	-0.252370	99
Es	-0.194321	1.566423	0.920645	99
Es	1.979413	1.295999	-1.584699	99
Es	-0.112457	-1.690376	-0.628806	99
Es	-1.350570	-1.022374	1.014736	99
Es	1.634845	1.421802	-0.979224	99
Es	-1.683542	-1.576350	1.150045	99
Es	0.636295	0.768611	-0.345468	99
Es	-0.215024	-1.443337	-0.439393	99
Es	0.106369	0.586140	0.149187	99
Es	2.465282	1.470948	-2.040794	99
Es	-0.226374	-1.837939	-0.564901	99
Es	-0.305322	1.193638	0.484594	99
Es	-0.482381	-0.832926	0.156212	99
Es	-1.446059	-1.051132	1.106870	99
Es	-0.547283	1.328375	1.197406	99
Es	-1.028630	-0.946978	0.686648	99
Es	-1.620380	-0.624412	1.482405	99
Es	0.125627	-1.624447	-0.860158	99
Es	1.129212	0.971434	-0.798527	99
Es	-0.306368	1.402139	0.967658	99
Es	-0.175986	-0.111751	0.144954	99
Es	0.045182	1.047212	0.807813	99
Es	1.599550	0.794120	-1.293325	99
35
Properties=species:S:1:pos:R:3:Z:I:1 energy=-357.45822358288524 field_type=dipole dipole="0.000000 0.000000 0.000000" charge=0
N	-1.446108	-1.051136	1.106887	7
C	-0.482308	-0.833036	0.156087	6
O	-0.112378	-1.690636	-0.629013	8
C	0.106312	0.586164	0.149247	6
O	-0.306428	1.402394	0.967837	8
C	1.129432	0.971494	-0.798753	6
C	1.979242	1.295944	-1.584543	6
H	-1.718108	-0.304276	1.737367	1
H	-1.881938	-1.959526	1.176267	1
H	2.732282	1.582614	-2.281383	1
Es	1.587539	1.063917	-1.005357	99
Es	-0.228867	-1.832671	-0.568722	99
Es	-1.615147	-0.626620	1.487298	99
Es	0.106361	0.586144	0.149178	99
Es	1.508059	0.831651	-1.376787	99
Es	0.632949	0.769956	-0.348496	99
Es	-1.018987	-0.951145	0.695389	99
Es	-0.306283	1.402151	0.967569	99
Es	-0.304584	1.191867	0.485976	99
Es	-0.482376	-0.832932	0.156216	99
Es	-0.196593	1.565786	0.919428	99
Es	1.979412	1.295998	-1.584700	99
Es	1.129201	0.971430	-0.798542	99
Es	0.123967	-1.624802	-0.861781	99
Es	2.466882	1.470219	-2.039357	99
Es	-1.699393	-1.569747	1.135588	99
Es	0.048264	1.048753	0.809236	99
Es	1.488526	1.486782	-1.112879	99
Es	-0.112452	-1.690392	-0.628822	99
Es	-0.164406	-1.464071	-0.390524	99
Es	-0.546378	1.328108	1.198251	99
Es	-0.176547	-0.111571	0.144544	99
Es	-1.446156	-1.051088	1.106776	99
Es	-0.360719	-1.386236	-0.297570	99
Es	-1.349864	-1.022522	1.015354	99
35
Properties=species:S:1:pos:R:3:Z:I:1 energy=-357.45822358288524 field_type=dipole dipole="0.000000 0.000000 0.000000" charge=0
N	-1.446108	-1.051136	1.106887	7
C	-0.482308	-0.833036	0.156087	6
O	-0.112378	-1.690636	-0.629013	8
C	0.106312	0.586164	0.149247	6
O	-0.306428	1.402394	0.967837	8
C	1.129432	0.971494	-0.798753	6
C	1.979242	1.295944	-1.584543	6
H	-1.718108	-0.304276	1.737367	1
H	-1.881938	-1.959526	1.176267	1
H	2.732282	1.582614	-2.281383	1
Es	-1.028526	-0.947124	0.686735	99
Es	0.106366	0.586141	0.149181	99
Es	1.595752	0.794972	-1.297693	99
Es	-0.217485	-1.442460	-0.441512	99
Es	-0.306356	1.402190	0.967670	99
Es	-0.482382	-0.832929	0.156211	99
Es	-0.547613	1.327645	1.197143	99
Es	1.129188	0.971446	-0.798549	99
Es	-1.682845	-1.576439	1.150635	99
Es	-1.350519	-1.022468	1.014887	99
Es	-0.304786	1.195009	0.484644	99
Es	-1.446141	-1.051096	1.106791	99
Es	1.634100	1.422546	-0.979910	99
Es	1.979406	1.296002	-1.584703	99
Es	1.352370	1.165515	-1.219163	99
Es	0.126319	-1.624806	-0.859532	99
Es	-0.194216	1.565854	0.921282	99
Es	0.044826	1.047103	0.807307	99
Es	0.636313	0.768623	-0.345462	99
Es	-0.311951	-1.405482	-0.250847	99
Es	-0.176121	-0.111695	0.144921	99
Es	-0.112453	-1.690367	-0.628817	99
Es	-0.225002	-1.835913	-0.564847	99
Es	2.465335	1.470789	-2.040774	99
Es	-1.621175	-0.624089	1.481668	99
35
Properties=species:S:1:pos:R:3:Z:I:1 energy=-357.45822358288524 field_type=dipole dipole="0.000000 0.000000 0.000000" charge=0
N	-1.446108	-1.051136	1.106887	7
C	-0.482308	-0.833036	0.156087	6
O	-0.112378	-1.690636	-0.629013	8
C	0.106312	0.586164	0.149247	6
O	-0.306428	1.402394	0.967837	8
C	1.129432	0.971494	-0.798753	6
C	1.979242	1.295944	-1.584543	6
H	-1.718108	-0.304276	1.737367	1
H	-1.881938	-1.959526	1.176267	1
H	2.732282	1.582614	-2.281383	1
Es	0.052900	1.051195	0.805065	99
Es	0.126760	-1.625823	-0.859249	99
Es	-1.017671	-0.951679	0.696650	99
Es	1.509321	0.830863	-1.375934	99
Es	0.106364	0.586143	0.149178	99
Es	-1.350546	-1.022240	1.014678	99
Es	0.632774	0.770019	-0.348685	99
Es	1.979411	1.296001	-1.584699	99
Es	-1.699610	-1.569729	1.135461	99
Es	-1.446027	-1.051147	1.106898	99
Es	-0.482380	-0.832930	0.156212	99
Es	2.467057	1.470209	-2.039182	99
Es	1.129201	0.971439	-0.798537	99
Es	1.590339	1.064917	-1.002575	99
Es	-0.175950	-0.111735	0.144973	99
Es	-1.615728	-0.626326	1.486694	99
Es	1.484581	1.486450	-1.116420	99
Es	-0.306324	1.402235	0.967634	99
Es	-0.193199	-1.452054	-0.419883	99
Es	-0.307757	1.191271	0.490420	99
Es	-0.112512	-1.690383	-0.628755	99
Es	-0.198722	1.563177	0.918315	99
Es	-0.546163	1.328963	1.198613	99
Es	-0.230836	-1.832761	-0.570119	99
Es	-0.332878	-1.397111	-0.269492	99
35
Properties=species:S:1:pos:R:3:Z:I:1 energy=-357.45822358288524 field_type=dipole dipole="0.000000 0.000000 0.000000" charge=0
N	-1.446108	-1.051136	1.106887	7
C	-0.482308	-0.833036	0.156087	6
O	-0.112378	-1.690636	-0.629013	8
C	0.106312	0.586164	0.149247	6
O	-0.306428	1.402394	0.967837	8
C	1.129432	0.971494	-0.798753	6
C	1.979242	1.295944	-1.584543	6
H	-1.718108	-0.304276	1.737367	1
H	-1.881938	-1.959526	1.176267	1
H	2.732282	1.582614	-2.281383	1
Es	-0.482381	-0.832929	0.156211	99
Es	2.465382	1.470836	-2.040728	99
Es	-0.112458	-1.690427	-0.628799	99
Es	0.126200	-1.626001	-0.859821	99
Es	-0.224959	-1.832259	-0.565854	99
Es	-1.683139	-1.576196	1.150286	99
Es	1.129213	0.971438	-0.798525	99
Es	0.106367	0.586141	0.149181	99
Es	1.979407	1.295999	-1.584703	99
Es	1.355976	1.161104	-1.215940	99
Es	-0.310641	-1.408635	-0.248596	99
Es	-0.547515	1.328629	1.197368	99
Es	-0.218826	-1.441629	-0.442615	99
Es	-0.175988	-0.111723	0.145012	99
Es	-0.194957	1.563994	0.921063	99
Es	-1.620739	-0.624456	1.482230	99
Es	-1.028854	-0.946956	0.686419	99
Es	-0.306372	1.402133	0.967662	99
Es	1.596535	0.794806	-1.296803	99
Es	-1.350189	-1.022607	1.015216	99
Es	0.636202	0.768675	-0.345558	99
Es	-1.446321	-1.050993	1.106551	99
Es	1.629796	1.427078	-0.983963	99
Es	0.046120	1.047391	0.806617	99
Es	-0.305454	1.195552	0.485353	99
35
Properties=species:S:1:pos:R:3:Z:I:1 energy=-357.45822358288524 field_type=dipole dipole="0.000000 0.000000 0.000000" charge=0
N	-1.446108	-1.051136	1.106887	7
C	-0.482308	-0.833036	0.156087	6
O	-0.112378	-1.690636	-0.629013	8
C	0.106312	0.586164	0.149247	6
O	-0.306428	1.402394	0.967837	8
C	1.129432	0.971494	-0.798753	6
C	1.979242	1.295944	-1.584543	6
H	-1.718108	-0.304276	1.737367	1
H	-1.881938	-1.959526	1.176267	1
H	2.732282	1.582614	-2.281383	1
Es	1.979411	1.296004	-1.584700	99
Es	1.510983	0.829977	-1.374753	99
Es	-0.336649	-1.399667	-0.271064	99
Es	2.467079	1.470101	-2.039175	99
Es	-0.306374	1.402109	0.967646	99
Es	-0.482376	-0.832932	0.156214	99
Es	1.488611	1.486662	-1.112809	99
Es	0.126768	-1.625612	-0.859258	99
Es	1.584702	1.065532	-1.007313	99
Es	-0.112483	-1.690470	-0.628813	99
Es	-1.446120	-1.051107	1.106812	99
Es	1.129204	0.971440	-0.798534	99
Es	-0.305558	1.191911	0.487250	99
Es	-0.192412	-1.452211	-0.419056	99
Es	-0.227966	-1.830147	-0.569366	99
Es	-1.616282	-0.626520	1.486621	99
Es	-0.546661	1.328791	1.198108	99
Es	-1.699407	-1.569424	1.135216	99
Es	-1.017616	-0.951617	0.696701	99
Es	-0.175971	-0.111584	0.144926	99
Es	-1.350155	-1.022399	1.015041	99
Es	0.632696	0.770061	-0.348777	99
Es	0.106367	0.586141	0.149180	99
Es	-0.198095	1.563686	0.918826	99
Es	0.050710	1.050239	0.808341	99
