37
Properties=species:S:1:pos:R:3:Z:I:1 energy=-321.5931914220838 field_type=dipole dipole="0.000000 0.000000 0.000000" charge=0
O	-2.331178	-0.333974	1.271648	8
C	-1.158628	-0.162014	1.053068	6
C	-0.203348	1.019196	0.826838	6
C	0.729932	-0.047594	0.215728	6
N	-0.167268	-1.058264	0.793268	7
C	0.754882	-0.144954	-1.226472	6
C	0.764962	-0.221434	-2.424992	6
H	0.149852	1.478976	1.754398	1
H	-0.584498	1.784966	0.147038	1
H	1.722082	-0.080674	0.679088	1
H	-0.443448	-1.947244	0.399468	1
H	0.766652	-0.286984	-3.489081	1
Es	-0.140844	-1.017444	1.105164	99
Es	0.745561	-0.088433	-0.533752	99
Es	0.764959	-0.221458	-2.425220	99
Es	0.876795	-0.525022	-1.799592	99
Es	-0.313564	-1.580049	0.545112	99
Es	0.405036	-0.116204	-1.832174	99
Es	0.729780	-0.047714	0.215682	99
Es	0.250328	-0.680213	0.493468	99
Es	-2.330864	-0.333926	1.271587	99
Es	0.754888	-0.144939	-1.226204	99
Es	-0.167530	-1.058055	0.792849	99
Es	-2.386195	-0.633988	1.266514	99
Es	-1.158458	-0.162040	1.053042	99
Es	1.403899	-0.069533	0.504796	99
Es	-1.884748	-0.281127	1.445193	99
Es	0.766730	-0.264959	-3.115872	99
Es	-2.482447	-0.074671	1.314284	99
Es	0.326876	0.538576	0.472460	99
Es	-0.732747	0.498705	0.973393	99
Es	-0.626077	-0.719230	0.832309	99
Es	0.995246	0.086806	-1.841045	99
Es	0.037492	1.311409	1.445777	99
Es	-0.203329	1.019118	0.826822	99
Es	-1.983084	-0.256783	0.950953	99
Es	-0.456472	1.524294	0.370774	99
37
Properties=species:S:1:pos:R:3:Z:I:1 energy=-321.5931914220838 field_type=dipole dipole="0.000000 0.000000 0.000000" charge=0
O	-2.331178	-0.333974	1.271648	8
C	-1.158628	-0.162014	1.053068	6
C	-0.203348	1.019196	0.826838	6
C	0.729932	-0.047594	0.215728	6
N	-0.167268	-1.058264	0.793268	7
C	0.754882	-0.144954	-1.226472	6
C	0.764962	-0.221434	-2.424992	6
H	0.149852	1.478976	1.754398	1
H	-0.584498	1.784966	0.147038	1
H	1.722082	-0.080674	0.679088	1
H	-0.443448	-1.947244	0.399468	1
H	0.766652	-0.286984	-3.489081	1
Es	0.769509	-0.265378	-3.116939	99
Es	0.327953	0.536909	0.471990	99
Es	-0.623091	-0.720494	0.828481	99
Es	-2.330813	-0.333840	1.271582	99
Es	0.953876	0.112160	-1.842333	99
Es	-2.500145	-0.088736	1.322900	99
Es	-1.885140	-0.279940	1.448958	99
Es	0.764962	-0.221458	-2.425228	99
Es	0.037152	1.312624	1.447206	99
Es	1.403146	-0.069395	0.505837	99
Es	-0.137660	-1.026263	1.117319	99
Es	-0.732688	0.498668	0.971689	99
Es	-0.456644	1.522427	0.371740	99
Es	0.393658	-0.175742	-1.828045	99
Es	0.729782	-0.047714	0.215681	99
Es	-0.319430	-1.569405	0.537369	99
Es	0.250139	-0.678920	0.492547	99
Es	-1.986013	-0.254943	0.938509	99
Es	-2.365164	-0.622942	1.267870	99
Es	0.744117	-0.087986	-0.535025	99
Es	-0.167469	-1.058094	0.792908	99
Es	0.928101	-0.490553	-1.802361	99
Es	-1.158462	-0.162041	1.053043	99
Es	0.754884	-0.144937	-1.226204	99
Es	-0.203328	1.019115	0.826823	99
37
Properties=species:S:1:pos:R:3:Z:I:1 energy=-321.5931914220838 field_type=dipole dipole="0.000000 0.000000 0.000000" charge=0
O	-2.331178	-0.333974	1.271648	8
C	-1.158628	-0.162014	1.053068	6
C	-0.203348	1.019196	0.826838	6
C	0.729932	-0.047594	0.215728	6
N	-0.167268	-1.058264	0.793268	7
C	0.754882	-0.144954	-1.226472	6
C	0.764962	-0.221434	-2.424992	6
H	0.149852	1.478976	1.754398	1
H	-0.584498	1.784966	0.147038	1
H	1.722082	-0.080674	0.679088	1
H	-0.443448	-1.947244	0.399468	1
H	0.766652	-0.286984	-3.489081	1
Es	-0.167536	-1.058064	0.792845	99
Es	-2.330797	-0.333824	1.271580	99
Es	-0.456668	1.521294	0.372808	99
Es	0.770883	-0.266298	-3.117288	99
Es	0.754873	-0.144926	-1.226207	99
Es	0.328476	0.536102	0.471035	99
Es	-0.732756	0.498747	0.970579	99
Es	0.729782	-0.047713	0.215681	99
Es	-0.203328	1.019114	0.826822	99
Es	-2.517878	-0.102195	1.331142	99
Es	1.025331	0.058197	-1.838743	99
Es	0.249648	-0.678005	0.491517	99
Es	0.764962	-0.221465	-2.425232	99
Es	-1.885845	-0.282085	1.451749	99
Es	0.743185	-0.088074	-0.535773	99
Es	-0.621300	-0.720890	0.829064	99
Es	1.402409	-0.069084	0.506403	99
Es	-2.344835	-0.608925	1.264496	99
Es	-0.323013	-1.563503	0.533716	99
Es	0.847581	-0.508308	-1.800177	99
Es	-1.987727	-0.253413	0.931805	99
Es	-1.158465	-0.162039	1.053046	99
Es	0.402469	-0.102909	-1.833870	99
Es	-0.135311	-1.031788	1.121222	99
Es	0.037091	1.313175	1.448098	99
37
Properties=species:S:1:pos:R:3:Z:I:1 energy=-321.5931914220838 field_type=dipole dipole="0.000000 0.000000 0.000000" charge=0
O	-2.331178	-0.333974	1.271648	8
C	-1.158628	-0.162014	1.053068	6
C	-0.203348	1.019196	0.826838	6
C	0.729932	-0.047594	0.215728	6
N	-0.167268	-1.058264	0.793268	7
C	0.754882	-0.144954	-1.226472	6
C	0.764962	-0.221434	-2.424992	6
H	0.149852	1.478976	1.754398	1
H	-0.584498	1.784966	0.147038	1
H	1.722082	-0.080674	0.679088	1
H	-0.443448	-1.947244	0.399468	1
H	0.766652	-0.286984	-3.489081	1
Es	-1.158462	-0.162040	1.053037	99
Es	0.741573	-0.087199	-0.536172	99
Es	-2.330823	-0.333905	1.271582	99
Es	0.764953	-0.221456	-2.425228	99
Es	-1.885874	-0.279945	1.452029	99
Es	-0.456364	1.520272	0.373734	99
Es	-0.136637	-1.034098	1.125726	99
Es	0.328969	0.535725	0.470216	99
Es	0.037079	1.313807	1.448431	99
Es	0.754862	-0.144938	-1.226202	99
Es	-0.325360	-1.559789	0.531467	99
Es	0.729783	-0.047717	0.215684	99
Es	-2.322906	-0.594859	1.262436	99
Es	-1.990622	-0.252546	0.927496	99
Es	-0.618530	-0.721977	0.826334	99
Es	-0.733158	0.498755	0.970062	99
Es	-0.167570	-1.058025	0.792826	99
Es	0.559593	0.087171	-1.845817	99
Es	0.250429	-0.677642	0.491784	99
Es	1.122223	-0.150930	-1.825820	99
Es	0.770334	-0.266156	-3.117626	99
Es	-2.536752	-0.119235	1.337730	99
Es	1.402042	-0.069017	0.506759	99
Es	-0.203328	1.019113	0.826820	99
Es	0.595777	-0.490248	-1.800970	99
37
Properties=species:S:1:pos:R:3:Z:I:1 energy=-321.5931914220838 field_type=dipole dipole="0.000000 0.000000 0.000000" charge=0
O	-2.331178	-0.333974	1.271648	8
C	-1.158628	-0.162014	1.053068	6
C	-0.203348	1.019196	0.826838	6
C	0.729932	-0.047594	0.215728	6
N	-0.167268	-1.058264	0.793268	7
C	0.754882	-0.144954	-1.226472	6
C	0.764962	-0.221434	-2.424992	6
H	0.149852	1.478976	1.754398	1
H	-0.584498	1.784966	0.147038	1
H	1.722082	-0.080674	0.679088	1
H	-0.443448	-1.947244	0.399468	1
H	0.766652	-0.286984	-3.489081	1
Es	1.026158	0.058038	-1.838655	99
Es	-1.992846	-0.252957	0.924408	99
Es	0.849231	-0.497258	-1.800936	99
Es	0.729781	-0.047714	0.215681	99
Es	-0.456481	1.519737	0.374109	99
Es	0.036858	1.314007	1.448959	99
Es	-0.203328	1.019114	0.826821	99
Es	-0.167520	-1.058081	0.792858	99
Es	0.772496	-0.267007	-3.117533	99
Es	0.399729	-0.113438	-1.833272	99
Es	0.764956	-0.221453	-2.425232	99
Es	0.329213	0.536013	0.470350	99
Es	-2.330804	-0.333950	1.271582	99
Es	-0.615832	-0.723921	0.822671	99
Es	-1.885943	-0.278309	1.450699	99
Es	-0.326061	-1.558783	0.530924	99
Es	0.249229	-0.677252	0.490650	99
Es	-0.732978	0.498814	0.969411	99
Es	0.754876	-0.144940	-1.226201	99
Es	-0.137453	-1.033354	1.130715	99
Es	0.742463	-0.087678	-0.536512	99
Es	-2.312108	-0.586236	1.262703	99
Es	-2.545061	-0.129007	1.342438	99
Es	1.401122	-0.069221	0.506644	99
Es	-1.158465	-0.162041	1.053037	99
37
Properties=species:S:1:pos:R:3:Z:I:1 energy=-321.5931914220838 field_type=dipole dipole="0.000000 0.000000 0.000000" charge=0
O	-2.331178	-0.333974	1.271648	8
C	-1.158628	-0.162014	1.053068	6
C	-0.203348	1.019196	0.826838	6
C	0.729932	-0.047594	0.215728	6
N	-0.167268	-1.058264	0.793268	7
C	0.754882	-0.144954	-1.226472	6
C	0.764962	-0.221434	-2.424992	6
H	0.149852	1.478976	1.754398	1
H	-0.584498	1.784966	0.147038	1
H	1.722082	-0.080674	0.679088	1
H	-0.443448	-1.947244	0.399468	1
H	0.766652	-0.286984	-3.489081	1
Es	0.772946	-0.267164	-3.117591	99
Es	-0.138871	-1.031690	1.134101	99
Es	-2.330961	-0.334027	1.271591	99
Es	1.025502	0.059728	-1.838756	99
Es	0.398066	-0.120609	-1.832752	99
Es	1.400799	-0.069167	0.506629	99
Es	-0.203328	1.019113	0.826822	99
Es	-0.167510	-1.058137	0.792863	99
Es	-0.732919	0.498900	0.968922	99
Es	-2.549634	-0.134564	1.346537	99
Es	-0.325964	-1.558737	0.531421	99
Es	-0.613962	-0.725548	0.819365	99
Es	0.754873	-0.144940	-1.226201	99
Es	0.764967	-0.221462	-2.425231	99
Es	-2.305849	-0.577797	1.262839	99
Es	0.742244	-0.087562	-0.536716	99
Es	-1.993946	-0.254745	0.921815	99
Es	-1.158466	-0.162040	1.053037	99
Es	-0.456465	1.519256	0.374440	99
Es	0.036683	1.314214	1.449358	99
Es	0.329289	0.535997	0.470179	99
Es	0.248766	-0.677056	0.489848	99
Es	0.851413	-0.491811	-1.801342	99
Es	0.729782	-0.047715	0.215680	99
Es	-1.886226	-0.279317	1.449461	99
37
Properties=species:S:1:pos:R:3:Z:I:1 energy=-321.5931914220838 field_type=dipole dipole="0.000000 0.000000 0.000000" charge=0
O	-2.331178	-0.333974	1.271648	8
C	-1.158628	-0.162014	1.053068	6
C	-0.203348	1.019196	0.826838	6
C	0.729932	-0.047594	0.215728	6
N	-0.167268	-1.058264	0.793268	7
C	0.754882	-0.144954	-1.226472	6
C	0.764962	-0.221434	-2.424992	6
H	0.149852	1.478976	1.754398	1
H	-0.584498	1.784966	0.147038	1
H	1.722082	-0.080674	0.679088	1
H	-0.443448	-1.947244	0.399468	1
H	0.766652	-0.286984	-3.489081	1
Es	-1.158469	-0.162040	1.053039	99
Es	0.764960	-0.221470	-2.425223	99
Es	-0.203328	1.019114	0.826822	99
Es	-1.996876	-0.254498	0.919821	99
Es	1.400255	-0.069109	0.506505	99
Es	-0.733005	0.499000	0.968754	99
Es	0.406815	-0.092583	-1.834898	99
Es	-0.456404	1.519033	0.374806	99
Es	0.729783	-0.047712	0.215680	99
Es	0.741988	-0.087504	-0.536910	99
Es	0.248854	-0.676924	0.490057	99
Es	-0.326758	-1.558668	0.530741	99
Es	0.824598	-0.499445	-1.800470	99
Es	-2.560254	-0.149895	1.350334	99
Es	-2.292674	-0.567206	1.262247	99
Es	0.329342	0.536087	0.469996	99
Es	0.773042	-0.267592	-3.117615	99
Es	0.036754	1.314268	1.449476	99
Es	-0.140858	-1.030495	1.136888	99
Es	0.754879	-0.144945	-1.226202	99
Es	-0.167515	-1.058059	0.792869	99
Es	-1.885905	-0.275185	1.448595	99
Es	-0.611269	-0.727073	0.816908	99
Es	-2.330769	-0.333688	1.271573	99
Es	1.044046	0.039710	-1.837475	99
37
Properties=species:S:1:pos:R:3:Z:I:1 energy=-321.5931914220838 field_type=dipole dipole="0.000000 0.000000 0.000000" charge=0
O	-2.331178	-0.333974	1.271648	8
C	-1.158628	-0.162014	1.053068	6
C	-0.203348	1.019196	0.826838	6
C	0.729932	-0.047594	0.215728	6
N	-0.167268	-1.058264	0.793268	7
C	0.754882	-0.144954	-1.226472	6
C	0.764962	-0.221434	-2.424992	6
H	0.149852	1.478976	1.754398	1
H	-0.584498	1.784966	0.147038	1
H	1.722082	-0.080674	0.679088	1
H	-0.443448	-1.947244	0.399468	1
H	0.766652	-0.286984	-3.489081	1
Es	-2.559065	-0.148049	1.351494	99
Es	-0.456472	1.518681	0.375123	99
Es	0.329696	0.536261	0.469818	99
Es	0.741902	-0.087381	-0.537069	99
Es	-2.294103	-0.563822	1.263237	99
Es	-1.885762	-0.276994	1.447986	99
Es	-0.609918	-0.727653	0.815491	99
Es	-0.327618	-1.557009	0.529878	99
Es	0.036509	1.314344	1.449805	99
Es	0.764969	-0.221462	-2.425233	99
Es	1.033061	0.051504	-1.838196	99
Es	0.840853	-0.493348	-1.801074	99
Es	0.754869	-0.144940	-1.226202	99
Es	-1.158466	-0.162040	1.053037	99
Es	-0.141850	-1.031288	1.138841	99
Es	-0.167497	-1.058084	0.792877	99
Es	-2.330411	-0.334331	1.271488	99
Es	0.729781	-0.047716	0.215680	99
Es	0.401197	-0.110722	-1.833571	99
Es	-0.203328	1.019114	0.826823	99
Es	0.249242	-0.676932	0.490319	99
Es	-1.997036	-0.257247	0.918624	99
Es	-0.732873	0.499025	0.968329	99
Es	0.773604	-0.267523	-3.117625	99
Es	1.399948	-0.069270	0.506439	99
37
Properties=species:S:1:pos:R:3:Z:I:1 energy=-321.5931914220838 field_type=dipole dipole="0.000000 0.000000 0.000000" charge=0
O	-2.331178	-0.333974	1.271648	8
C	-1.158628	-0.162014	1.053068	6
C	-0.203348	1.019196	0.826838	6
C	0.729932	-0.047594	0.215728	6
N	-0.167268	-1.058264	0.793268	7
C	0.754882	-0.144954	-1.226472	6
C	0.764962	-0.221434	-2.424992	6
H	0.149852	1.478976	1.754398	1
H	-0.584498	1.784966	0.147038	1
H	1.722082	-0.080674	0.679088	1
H	-0.443448	-1.947244	0.399468	1
H	0.766652	-0.286984	-3.489081	1
Es	-1.158468	-0.162040	1.053037	99
Es	-0.167485	-1.058096	0.792886	99
Es	-0.327172	-1.557825	0.530097	99
Es	0.329580	0.536324	0.470069	99
Es	-0.143961	-1.028877	1.141965	99
Es	0.773725	-0.267633	-3.117635	99
Es	0.754874	-0.144940	-1.226199	99
Es	-2.284561	-0.555505	1.263032	99
Es	-0.456562	1.518632	0.375053	99
Es	-0.607831	-0.729280	0.811993	99
Es	-1.886668	-0.274232	1.446272	99
Es	-0.732748	0.499113	0.968208	99
Es	0.398852	-0.120260	-1.832837	99
Es	0.764968	-0.221470	-2.425233	99
Es	-2.566454	-0.159394	1.354883	99
Es	-0.203328	1.019114	0.826821	99
Es	-2.330547	-0.333643	1.271539	99
Es	-1.998074	-0.257579	0.917258	99
Es	0.036360	1.314358	1.449929	99
Es	1.025630	0.058502	-1.838651	99
Es	0.729781	-0.047712	0.215679	99
Es	0.741939	-0.087388	-0.537135	99
Es	0.249052	-0.676914	0.490270	99
Es	0.850604	-0.490825	-1.801347	99
Es	1.399722	-0.069308	0.506366	99
37
Properties=species:S:1:pos:R:3:Z:I:1 energy=-321.5931914220838 field_type=dipole dipole="0.000000 0.000000 0.000000" charge=0
O	-2.331178	-0.333974	1.271648	8
C	-1.158628	-0.162014	1.053068	6
C	-0.203348	1.019196	0.826838	6
C	0.729932	-0.047594	0.215728	6
N	-0.167268	-1.058264	0.793268	7
C	0.754882	-0.144954	-1.226472	6
C	0.764962	-0.221434	-2.424992	6
H	0.149852	1.478976	1.754398	1
H	-0.584498	1.784966	0.147038	1
H	1.722082	-0.080674	0.679088	1
H	-0.443448	-1.947244	0.399468	1
H	0.766652	-0.286984	-3.489081	1
Es	-0.732634	0.499202	0.967879	99
Es	0.741964	-0.087309	-0.537214	99
Es	-1.158469	-0.162039	1.053036	99
Es	1.027184	0.057506	-1.838608	99
Es	0.249226	-0.676945	0.490093	99
Es	-2.567754	-0.161251	1.357620	99
Es	0.329713	0.536581	0.469761	99
Es	-0.326442	-1.558361	0.530989	99
Es	0.729781	-0.047712	0.215679	99
Es	-1.885456	-0.277175	1.445758	99
Es	-1.998908	-0.256305	0.917403	99
Es	-0.146436	-1.026583	1.144605	99
Es	0.754874	-0.144937	-1.226199	99
Es	-0.456641	1.518354	0.375502	99
Es	-2.283325	-0.551902	1.260777	99
Es	1.399451	-0.069442	0.506292	99
Es	-2.330797	-0.333707	1.271578	99
Es	0.774011	-0.267777	-3.117629	99
Es	0.399369	-0.119994	-1.832890	99
Es	-0.203328	1.019114	0.826823	99
Es	-0.606185	-0.730830	0.808595	99
Es	0.764973	-0.221458	-2.425235	99
Es	0.036222	1.314312	1.450237	99
Es	0.848353	-0.490115	-1.801370	99
Es	-0.167513	-1.058105	0.792837	99
37
Properties=species:S:1:pos:R:3:Z:I:1 energy=-321.5931914220838 field_type=dipole dipole="0.000000 0.000000 0.000000" charge=0
O	-2.331178	-0.333974	1.271648	8
C	-1.158628	-0.162014	1.053068	6
C	-0.203348	1.019196	0.826838	6
C	0.729932	-0.047594	0.215728	6
N	-0.167268	-1.058264	0.793268	7
C	0.754882	-0.144954	-1.226472	6
C	0.764962	-0.221434	-2.424992	6
H	0.149852	1.478976	1.754398	1
H	-0.584498	1.784966	0.147038	1
H	1.722082	-0.080674	0.679088	1
H	-0.443448	-1.947244	0.399468	1
H	0.766652	-0.286984	-3.489081	1
Es	-0.203328	1.019113	0.826822	99
Es	-2.330795	-0.333877	1.271577	99
Es	-2.569674	-0.164344	1.358749	99
Es	-0.605928	-0.730728	0.808932	99
Es	0.249593	-0.676982	0.489936	99
Es	0.884799	-0.479619	-1.802541	99
Es	-0.327254	-1.556897	0.530334	99
Es	0.774411	-0.267630	-3.117620	99
Es	0.036125	1.314352	1.450327	99
Es	0.329685	0.536565	0.469628	99
Es	0.764969	-0.221461	-2.425234	99
Es	-1.885208	-0.277182	1.445504	99
Es	-2.280755	-0.545870	1.261320	99
Es	-0.732528	0.499195	0.967837	99
Es	-0.146161	-1.027999	1.144887	99
Es	0.742017	-0.087232	-0.537251	99
Es	-1.999791	-0.258977	0.916044	99
Es	0.729782	-0.047713	0.215680	99
Es	-0.456713	1.518171	0.375679	99
Es	-1.158469	-0.162040	1.053035	99
Es	0.754882	-0.144938	-1.226200	99
Es	1.399423	-0.069433	0.506333	99
Es	0.996741	0.082824	-1.840240	99
Es	0.392920	-0.156055	-1.830108	99
Es	-0.167513	-1.058123	0.792888	99
37
Properties=species:S:1:pos:R:3:Z:I:1 energy=-321.5931914220838 field_type=dipole dipole="0.000000 0.000000 0.000000" charge=0
O	-2.331178	-0.333974	1.271648	8
C	-1.158628	-0.162014	1.053068	6
C	-0.203348	1.019196	0.826838	6
C	0.729932	-0.047594	0.215728	6
N	-0.167268	-1.058264	0.793268	7
C	0.754882	-0.144954	-1.226472	6
C	0.764962	-0.221434	-2.424992	6
H	0.149852	1.478976	1.754398	1
H	-0.584498	1.784966	0.147038	1
H	1.722082	-0.080674	0.679088	1
H	-0.443448	-1.947244	0.399468	1
H	0.766652	-0.286984	-3.489081	1
Es	-0.203328	1.019114	0.826823	99
Es	-0.327487	-1.557630	0.530552	99
Es	0.036093	1.314462	1.450383	99
Es	-1.158466	-0.162040	1.053036	99
Es	-2.570330	-0.165554	1.358903	99
Es	-2.279339	-0.545465	1.262556	99
Es	-0.732648	0.499300	0.967612	99
Es	-0.167460	-1.058097	0.792913	99
Es	0.764960	-0.221465	-2.425232	99
Es	0.249192	-0.677010	0.489732	99
Es	-0.603642	-0.732245	0.806861	99
Es	-0.148017	-1.025818	1.146953	99
Es	0.741946	-0.087309	-0.537359	99
Es	0.754862	-0.144938	-1.226201	99
Es	1.399027	-0.069403	0.506264	99
Es	0.729782	-0.047714	0.215680	99
Es	-2.330754	-0.334081	1.271560	99
Es	0.774294	-0.267929	-3.117626	99
Es	1.031828	0.051969	-1.838230	99
Es	0.400872	-0.113172	-1.833424	99
Es	-0.456563	1.518063	0.375680	99
Es	0.329841	0.536632	0.469693	99
Es	-1.885769	-0.275144	1.444667	99
Es	0.842272	-0.491288	-1.801206	99
Es	-1.999935	-0.260116	0.915730	99
37
Properties=species:S:1:pos:R:3:Z:I:1 energy=-321.5931914220838 field_type=dipole dipole="0.000000 0.000000 0.000000" charge=0
O	-2.331178	-0.333974	1.271648	8
C	-1.158628	-0.162014	1.053068	6
C	-0.203348	1.019196	0.826838	6
C	0.729932	-0.047594	0.215728	6
N	-0.167268	-1.058264	0.793268	7
C	0.754882	-0.144954	-1.226472	6
C	0.764962	-0.221434	-2.424992	6
H	0.149852	1.478976	1.754398	1
H	-0.584498	1.784966	0.147038	1
H	1.722082	-0.080674	0.679088	1
H	-0.443448	-1.947244	0.399468	1
H	0.766652	-0.286984	-3.489081	1
Es	0.754870	-0.144937	-1.226200	99
Es	-2.330799	-0.333846	1.271583	99
Es	0.249470	-0.676897	0.490518	99
Es	0.755222	0.130773	-1.845204	99
Es	0.330035	0.536706	0.469276	99
Es	1.399025	-0.069260	0.506229	99
Es	-0.733206	0.499214	0.967708	99
Es	1.082961	-0.331155	-1.813996	99
Es	-0.167504	-1.058047	0.792894	99
Es	0.742150	-0.086173	-0.537375	99
Es	0.436441	-0.354424	-1.813522	99
Es	-2.571491	-0.169249	1.358427	99
Es	-1.886545	-0.271936	1.444782	99
Es	-0.600609	-0.734324	0.803724	99
Es	-1.158468	-0.162039	1.053035	99
Es	-0.151613	-1.023032	1.149473	99
Es	-0.327406	-1.558496	0.530542	99
Es	-0.203325	1.019114	0.826821	99
Es	0.036326	1.314656	1.450200	99
Es	0.764969	-0.221460	-2.425234	99
Es	-2.000268	-0.257505	0.916014	99
Es	0.774385	-0.266676	-3.117728	99
Es	0.729782	-0.047715	0.215681	99
Es	-0.456132	1.517839	0.376078	99
Es	-2.277039	-0.548011	1.262593	99
37
Properties=species:S:1:pos:R:3:Z:I:1 energy=-321.5931914220838 field_type=dipole dipole="0.000000 0.000000 0.000000" charge=0
O	-2.331178	-0.333974	1.271648	8
C	-1.158628	-0.162014	1.053068	6
C	-0.203348	1.019196	0.826838	6
C	0.729932	-0.047594	0.215728	6
N	-0.167268	-1.058264	0.793268	7
C	0.754882	-0.144954	-1.226472	6
C	0.764962	-0.221434	-2.424992	6
H	0.149852	1.478976	1.754398	1
H	-0.584498	1.784966	0.147038	1
H	1.722082	-0.080674	0.679088	1
H	-0.443448	-1.947244	0.399468	1
H	0.766652	-0.286984	-3.489081	1
Es	-0.456522	1.517830	0.376010	99
Es	-1.158468	-0.162040	1.053032	99
Es	0.774347	-0.268102	-3.117630	99
Es	0.036152	1.314527	1.450455	99
Es	-2.330346	-0.333674	1.271502	99
Es	0.249552	-0.677034	0.490010	99
Es	0.764972	-0.221475	-2.425234	99
Es	0.329869	0.536813	0.469544	99
Es	0.754876	-0.144936	-1.226199	99
Es	-0.150828	-1.023918	1.149725	99
Es	-0.203328	1.019114	0.826822	99
Es	-0.327200	-1.557732	0.530669	99
Es	1.398863	-0.069465	0.506123	99
Es	0.729781	-0.047713	0.215679	99
Es	0.405776	-0.096580	-1.834677	99
Es	1.045614	0.037395	-1.837296	99
Es	-2.569690	-0.166862	1.362621	99
Es	0.823870	-0.493178	-1.800872	99
Es	-0.732745	0.499263	0.967551	99
Es	-0.167519	-1.058076	0.792871	99
Es	-2.002187	-0.260460	0.914392	99
Es	0.741593	-0.087272	-0.537436	99
Es	-1.885019	-0.275851	1.442252	99
Es	-0.601354	-0.733946	0.803631	99
Es	-2.278830	-0.543507	1.262771	99
37
Properties=species:S:1:pos:R:3:Z:I:1 energy=-321.5931914220838 field_type=dipole dipole="0.000000 0.000000 0.000000" charge=0
O	-2.331178	-0.333974	1.271648	8
C	-1.158628	-0.162014	1.053068	6
C	-0.203348	1.019196	0.826838	6
C	0.729932	-0.047594	0.215728	6
N	-0.167268	-1.058264	0.793268	7
C	0.754882	-0.144954	-1.226472	6
C	0.764962	-0.221434	-2.424992	6
H	0.149852	1.478976	1.754398	1
H	-0.584498	1.784966	0.147038	1
H	1.722082	-0.080674	0.679088	1
H	-0.443448	-1.947244	0.399468	1
H	0.766652	-0.286984	-3.489081	1
Es	0.774954	-0.267153	-3.117638	99
Es	0.250420	-0.677067	0.491101	99
Es	-0.167535	-1.058064	0.792843	99
Es	-2.580540	-0.186913	1.362808	99
Es	-0.598106	-0.735903	0.800712	99
Es	-0.203330	1.019116	0.826823	99
Es	0.330022	0.536834	0.469039	99
Es	-1.886325	-0.270350	1.443562	99
Es	1.038476	-0.392743	-1.809752	99
Es	-0.327438	-1.558323	0.530531	99
Es	1.399057	-0.069320	0.506231	99
Es	0.824030	0.137662	-1.844757	99
Es	0.764965	-0.221461	-2.425233	99
Es	-1.158469	-0.162041	1.053038	99
Es	-2.330804	-0.333842	1.271576	99
Es	0.729782	-0.047713	0.215679	99
Es	0.754878	-0.144934	-1.226200	99
Es	-2.002374	-0.259526	0.914178	99
Es	-0.456116	1.517414	0.376355	99
Es	0.411253	-0.299192	-1.818348	99
Es	0.036524	1.315033	1.450026	99
Es	-0.733389	0.499067	0.967956	99
Es	0.742405	-0.086224	-0.537358	99
Es	-2.266128	-0.529969	1.261214	99
Es	-0.154980	-1.021267	1.151930	99
37
Properties=species:S:1:pos:R:3:Z:I:1 energy=-321.5931914220838 field_type=dipole dipole="0.000000 0.000000 0.000000" charge=0
O	-2.331178	-0.333974	1.271648	8
C	-1.158628	-0.162014	1.053068	6
C	-0.203348	1.019196	0.826838	6
C	0.729932	-0.047594	0.215728	6
N	-0.167268	-1.058264	0.793268	7
C	0.754882	-0.144954	-1.226472	6
C	0.764962	-0.221434	-2.424992	6
H	0.149852	1.478976	1.754398	1
H	-0.584498	1.784966	0.147038	1
H	1.722082	-0.080674	0.679088	1
H	-0.443448	-1.947244	0.399468	1
H	0.766652	-0.286984	-3.489081	1
Es	1.026902	0.055981	-1.838507	99
Es	0.764966	-0.221476	-2.425231	99
Es	-0.167497	-1.058090	0.792874	99
Es	-0.732614	0.499425	0.967312	99
Es	-0.456569	1.517629	0.376169	99
Es	-1.158468	-0.162041	1.053038	99
Es	-2.574041	-0.174518	1.364671	99
Es	-1.884868	-0.277177	1.442619	99
Es	0.399375	-0.119446	-1.832932	99
Es	0.774547	-0.268221	-3.117629	99
Es	-0.149756	-1.023820	1.149801	99
Es	-0.601263	-0.734098	0.804213	99
Es	-0.203327	1.019112	0.826822	99
Es	1.398581	-0.069542	0.506002	99
Es	-2.273983	-0.534359	1.260877	99
Es	0.248648	-0.676766	0.489118	99
Es	0.329888	0.536903	0.469590	99
Es	-2.002409	-0.260596	0.913947	99
Es	-2.330690	-0.333663	1.271567	99
Es	0.741790	-0.087239	-0.537482	99
Es	0.754869	-0.144946	-1.226196	99
Es	0.729783	-0.047714	0.215681	99
Es	0.035979	1.314558	1.450666	99
Es	-0.327340	-1.557904	0.530786	99
Es	0.848728	-0.488871	-1.801457	99
37
Properties=species:S:1:pos:R:3:Z:I:1 energy=-321.5931914220838 field_type=dipole dipole="0.000000 0.000000 0.000000" charge=0
O	-2.331178	-0.333974	1.271648	8
C	-1.158628	-0.162014	1.053068	6
C	-0.203348	1.019196	0.826838	6
C	0.729932	-0.047594	0.215728	6
N	-0.167268	-1.058264	0.793268	7
C	0.754882	-0.144954	-1.226472	6
C	0.764962	-0.221434	-2.424992	6
H	0.149852	1.478976	1.754398	1
H	-0.584498	1.784966	0.147038	1
H	1.722082	-0.080674	0.679088	1
H	-0.443448	-1.947244	0.399468	1
H	0.766652	-0.286984	-3.489081	1
Es	1.010617	0.071073	-1.839488	99
Es	-2.269708	-0.528160	1.261199	99
Es	0.035903	1.314502	1.450864	99
Es	-0.203329	1.019114	0.826822	99
Es	-1.885240	-0.275190	1.442467	99
Es	-0.146598	-1.026407	1.147606	99
Es	0.754873	-0.144941	-1.226198	99
Es	-0.167508	-1.058092	0.792879	99
Es	-2.003229	-0.261978	0.912855	99
Es	0.729782	-0.047712	0.215679	99
Es	-2.330731	-0.333754	1.271570	99
Es	0.247941	-0.676456	0.488800	99
Es	-0.732250	0.499515	0.967259	99
Es	0.868205	-0.484335	-1.802001	99
Es	0.329779	0.536859	0.469742	99
Es	-0.327778	-1.557114	0.530057	99
Es	0.764967	-0.221463	-2.425234	99
Es	1.398501	-0.069614	0.506028	99
Es	-2.577028	-0.181151	1.365654	99
Es	-1.158471	-0.162041	1.053032	99
Es	0.395965	-0.139293	-1.831385	99
Es	0.774654	-0.268111	-3.117659	99
Es	0.741980	-0.087232	-0.537491	99
Es	-0.603296	-0.732571	0.807342	99
Es	-0.456771	1.517674	0.375920	99
37
Properties=species:S:1:pos:R:3:Z:I:1 energy=-321.5931914220838 field_type=dipole dipole="0.000000 0.000000 0.000000" charge=0
O	-2.331178	-0.333974	1.271648	8
C	-1.158628	-0.162014	1.053068	6
C	-0.203348	1.019196	0.826838	6
C	0.729932	-0.047594	0.215728	6
N	-0.167268	-1.058264	0.793268	7
C	0.754882	-0.144954	-1.226472	6
C	0.764962	-0.221434	-2.424992	6
H	0.149852	1.478976	1.754398	1
H	-0.584498	1.784966	0.147038	1
H	1.722082	-0.080674	0.679088	1
H	-0.443448	-1.947244	0.399468	1
H	0.766652	-0.286984	-3.489081	1
Es	-1.885679	-0.274510	1.442722	99
Es	1.398488	-0.069586	0.506071	99
Es	-1.158466	-0.162038	1.053039	99
Es	0.397754	-0.129841	-1.832169	99
Es	0.764971	-0.221463	-2.425235	99
Es	-0.456751	1.517447	0.376305	99
Es	-0.167525	-1.058055	0.792865	99
Es	0.729782	-0.047714	0.215680	99
Es	-2.578517	-0.183273	1.365319	99
Es	-0.203328	1.019112	0.826821	99
Es	0.774808	-0.268241	-3.117609	99
Es	0.329863	0.536991	0.469399	99
Es	0.248520	-0.676605	0.488918	99
Es	0.861254	-0.488487	-1.801591	99
Es	-0.732370	0.499427	0.967295	99
Es	-0.600778	-0.734507	0.803624	99
Es	1.015700	0.065849	-1.839143	99
Es	-2.268378	-0.526794	1.260940	99
Es	-0.149995	-1.023824	1.150507	99
Es	-0.327367	-1.557589	0.530701	99
Es	0.754873	-0.144941	-1.226197	99
Es	0.035824	1.314575	1.450815	99
Es	-2.002582	-0.261743	0.913185	99
Es	-2.330800	-0.333828	1.271582	99
Es	0.741930	-0.087239	-0.537525	99
37
Properties=species:S:1:pos:R:3:Z:I:1 energy=-321.5931914220838 field_type=dipole dipole="0.000000 0.000000 0.000000" charge=0
O	-2.331178	-0.333974	1.271648	8
C	-1.158628	-0.162014	1.053068	6
C	-0.203348	1.019196	0.826838	6
C	0.729932	-0.047594	0.215728	6
N	-0.167268	-1.058264	0.793268	7
C	0.754882	-0.144954	-1.226472	6
C	0.764962	-0.221434	-2.424992	6
H	0.149852	1.478976	1.754398	1
H	-0.584498	1.784966	0.147038	1
H	1.722082	-0.080674	0.679088	1
H	-0.443448	-1.947244	0.399468	1
H	0.766652	-0.286984	-3.489081	1
Es	-2.269231	-0.536402	1.263348	99
Es	0.754875	-0.144933	-1.226199	99
Es	-0.733029	0.499289	0.967581	99
Es	-0.456328	1.517483	0.376313	99
Es	1.085816	-0.325223	-1.814368	99
Es	-1.158469	-0.162040	1.053036	99
Es	0.774779	-0.266925	-3.117727	99
Es	-0.203328	1.019114	0.826822	99
Es	0.749089	0.129386	-1.845236	99
Es	0.249255	-0.676792	0.489889	99
Es	-2.575459	-0.179833	1.365116	99
Es	-0.167466	-1.058092	0.792907	99
Es	0.330003	0.536988	0.469556	99
Es	0.439645	-0.359011	-1.813105	99
Es	0.764969	-0.221460	-2.425236	99
Es	0.742031	-0.085914	-0.537587	99
Es	0.036322	1.314817	1.450362	99
Es	-2.330899	-0.333935	1.271594	99
Es	-0.327434	-1.557967	0.530479	99
Es	-0.597865	-0.736395	0.800619	99
Es	-1.885667	-0.269868	1.440614	99
Es	0.729781	-0.047713	0.215680	99
Es	-2.004764	-0.260416	0.912974	99
Es	-0.153874	-1.021445	1.152926	99
Es	1.398478	-0.069591	0.505959	99
37
Properties=species:S:1:pos:R:3:Z:I:1 energy=-321.5931914220838 field_type=dipole dipole="0.000000 0.000000 0.000000" charge=0
O	-2.331178	-0.333974	1.271648	8
C	-1.158628	-0.162014	1.053068	6
C	-0.203348	1.019196	0.826838	6
C	0.729932	-0.047594	0.215728	6
N	-0.167268	-1.058264	0.793268	7
C	0.754882	-0.144954	-1.226472	6
C	0.764962	-0.221434	-2.424992	6
H	0.149852	1.478976	1.754398	1
H	-0.584498	1.784966	0.147038	1
H	1.722082	-0.080674	0.679088	1
H	-0.443448	-1.947244	0.399468	1
H	0.766652	-0.286984	-3.489081	1
Es	0.741897	-0.087218	-0.537570	99
Es	-1.885295	-0.274673	1.441265	99
Es	-2.268063	-0.524755	1.261657	99
Es	-2.003832	-0.263629	0.912270	99
Es	-0.327667	-1.557130	0.530064	99
Es	0.764967	-0.221463	-2.425235	99
Es	-2.330758	-0.334039	1.271568	99
Es	0.858311	-0.487246	-1.801673	99
Es	0.398013	-0.129476	-1.832187	99
Es	-0.601319	-0.734036	0.804809	99
Es	0.035781	1.314410	1.451036	99
Es	0.774869	-0.268168	-3.117629	99
Es	1.018412	0.064162	-1.839048	99
Es	-0.203328	1.019113	0.826822	99
Es	0.729781	-0.047714	0.215680	99
Es	0.329936	0.536954	0.469631	99
Es	0.248051	-0.676305	0.488933	99
Es	-0.456754	1.517586	0.376137	99
Es	-0.732240	0.499539	0.967041	99
Es	0.754878	-0.144933	-1.226200	99
Es	-2.577924	-0.183111	1.367168	99
Es	1.398304	-0.069700	0.505990	99
Es	-1.158469	-0.162039	1.053037	99
Es	-0.167506	-1.058110	0.792904	99
Es	-0.148817	-1.024897	1.149850	99
