43
Properties=species:S:1:pos:R:3:Z:I:1 energy=-323.92431100006525 field_type=dipole dipole="0.000000 0.000000 0.000000" charge=0
O	-2.232857	0.690361	-0.564579	8
C	-0.808027	0.692251	-0.322819	6
C	-0.287497	1.642811	0.780031	6
N	0.639733	0.579541	1.235271	7
C	-0.244177	-0.424139	0.598021	6
C	0.507543	-1.549599	-0.011839	6
C	1.422753	-1.406449	-0.981479	6
H	-2.382467	-0.093119	-1.121209	1
H	-0.271807	0.832271	-1.269949	1
H	-1.035727	1.921511	1.531071	1
H	0.205503	2.551511	0.423181	1
H	1.564813	0.637221	0.811800	1
H	-1.000677	-0.810229	1.296281	1
H	0.290413	-2.542089	0.374301	1
H	1.693083	-0.444729	-1.402539	1
H	1.939394	-2.277119	-1.375539	1
Es	-0.808259	0.692241	-0.322820	99
Es	0.131656	-0.996027	0.282727	99
Es	0.274894	1.083604	1.051076	99
Es	1.422820	-1.406427	-0.981553	99
Es	0.736002	-1.511021	-0.732467	99
Es	-0.798466	1.820646	1.289027	99
Es	-0.428655	0.777248	-0.968546	99
Es	0.296810	0.099796	0.956797	99
Es	-2.364056	0.632475	-0.291914	99
Es	0.676707	0.545800	1.585868	99
Es	0.507470	-1.549603	-0.011775	99
Es	0.054449	2.267364	0.534658	99
Es	1.606204	-0.751463	-1.267245	99
Es	-2.297964	0.264569	-0.865289	99
Es	-0.606395	1.239746	0.187961	99
Es	1.199641	-1.436281	-0.280478	99
Es	-0.762224	-0.680824	1.071469	99
Es	-2.293384	0.935750	-0.736458	99
Es	0.639647	0.579604	1.234652	99
Es	0.356476	-2.222042	0.251649	99
Es	-0.287404	1.642691	0.780033	99
Es	-2.232606	0.690124	-0.564667	99
Es	1.777158	-1.988981	-1.252815	99
Es	-0.561054	0.052319	0.073684	99
Es	-0.244062	-0.424065	0.598033	99
Es	1.173752	0.616781	0.939631	99
Es	-1.696854	0.675174	-0.487778	99
43
Properties=species:S:1:pos:R:3:Z:I:1 energy=-323.92431100006525 field_type=dipole dipole="0.000000 0.000000 0.000000" charge=0
O	-2.232857	0.690361	-0.564579	8
C	-0.808027	0.692251	-0.322819	6
C	-0.287497	1.642811	0.780031	6
N	0.639733	0.579541	1.235271	7
C	-0.244177	-0.424139	0.598021	6
C	0.507543	-1.549599	-0.011839	6
C	1.422753	-1.406449	-0.981479	6
H	-2.382467	-0.093119	-1.121209	1
H	-0.271807	0.832271	-1.269949	1
H	-1.035727	1.921511	1.531071	1
H	0.205503	2.551511	0.423181	1
H	1.564813	0.637221	0.811800	1
H	-1.000677	-0.810229	1.296281	1
H	0.290413	-2.542089	0.374301	1
H	1.693083	-0.444729	-1.402539	1
H	1.939394	-2.277119	-1.375539	1
Es	1.177136	0.617339	0.939306	99
Es	0.131393	-0.995598	0.281530	99
Es	1.607221	-0.751534	-1.266257	99
Es	-0.605693	1.238930	0.188928	99
Es	-0.763840	-0.681057	1.072114	99
Es	0.674825	0.546924	1.582496	99
Es	-0.287404	1.642686	0.780036	99
Es	-2.376640	0.642937	-0.285252	99
Es	0.639656	0.579609	1.234660	99
Es	0.507470	-1.549601	-0.011774	99
Es	1.777699	-1.988763	-1.252326	99
Es	0.055164	2.267016	0.533866	99
Es	1.200357	-1.436647	-0.280317	99
Es	-0.799565	1.820679	1.290088	99
Es	-1.695545	0.677899	-0.489999	99
Es	-2.296679	0.266269	-0.865762	99
Es	-2.283528	0.920734	-0.740110	99
Es	-0.808252	0.692238	-0.322819	99
Es	0.355449	-2.221899	0.250382	99
Es	0.273963	1.082436	1.051864	99
Es	-0.244059	-0.424064	0.598034	99
Es	-0.560071	0.052626	0.074993	99
Es	-2.232620	0.690139	-0.564666	99
Es	1.422826	-1.406426	-0.981551	99
Es	0.295220	0.099634	0.958146	99
Es	0.735632	-1.510513	-0.732812	99
Es	-0.427811	0.777206	-0.969333	99
43
Properties=species:S:1:pos:R:3:Z:I:1 energy=-323.92431100006525 field_type=dipole dipole="0.000000 0.000000 0.000000" charge=0
O	-2.232857	0.690361	-0.564579	8
C	-0.808027	0.692251	-0.322819	6
C	-0.287497	1.642811	0.780031	6
N	0.639733	0.579541	1.235271	7
C	-0.244177	-0.424139	0.598021	6
C	0.507543	-1.549599	-0.011839	6
C	1.422753	-1.406449	-0.981479	6
H	-2.382467	-0.093119	-1.121209	1
H	-0.271807	0.832271	-1.269949	1
H	-1.035727	1.921511	1.531071	1
H	0.205503	2.551511	0.423181	1
H	1.564813	0.637221	0.811800	1
H	-1.000677	-0.810229	1.296281	1
H	0.290413	-2.542089	0.374301	1
H	1.693083	-0.444729	-1.402539	1
H	1.939394	-2.277119	-1.375539	1
Es	0.055574	2.267013	0.533354	99
Es	0.273410	1.081741	1.052530	99
Es	-1.694309	0.681570	-0.494054	99
Es	-0.427380	0.777245	-0.969708	99
Es	-0.800345	1.820357	1.290659	99
Es	0.674125	0.547172	1.580816	99
Es	-0.287404	1.642686	0.780033	99
Es	1.607691	-0.751414	-1.265549	99
Es	0.294492	0.099708	0.958538	99
Es	-2.280833	0.911456	-0.739864	99
Es	-2.296232	0.266875	-0.865278	99
Es	0.639664	0.579600	1.234625	99
Es	0.131203	-0.995279	0.280699	99
Es	1.200589	-1.437037	-0.280462	99
Es	0.507468	-1.549602	-0.011771	99
Es	-2.381050	0.647886	-0.281729	99
Es	0.354767	-2.222005	0.249606	99
Es	-0.605074	1.238598	0.189727	99
Es	-0.764791	-0.681023	1.072530	99
Es	1.422825	-1.406426	-0.981552	99
Es	1.178584	0.617796	0.938805	99
Es	-0.559390	0.052670	0.075875	99
Es	0.735784	-1.509907	-0.732593	99
Es	1.777905	-1.988795	-1.252325	99
Es	-2.232656	0.690143	-0.564663	99
Es	-0.244062	-0.424064	0.598033	99
Es	-0.808252	0.692237	-0.322819	99
43
Properties=species:S:1:pos:R:3:Z:I:1 energy=-323.92431100006525 field_type=dipole dipole="0.000000 0.000000 0.000000" charge=0
O	-2.232857	0.690361	-0.564579	8
C	-0.808027	0.692251	-0.322819	6
C	-0.287497	1.642811	0.780031	6
N	0.639733	0.579541	1.235271	7
C	-0.244177	-0.424139	0.598021	6
C	0.507543	-1.549599	-0.011839	6
C	1.422753	-1.406449	-0.981479	6
H	-2.382467	-0.093119	-1.121209	1
H	-0.271807	0.832271	-1.269949	1
H	-1.035727	1.921511	1.531071	1
H	0.205503	2.551511	0.423181	1
H	1.564813	0.637221	0.811800	1
H	-1.000677	-0.810229	1.296281	1
H	0.290413	-2.542089	0.374301	1
H	1.693083	-0.444729	-1.402539	1
H	1.939394	-2.277119	-1.375539	1
Es	0.639657	0.579601	1.234640	99
Es	1.608187	-0.751329	-1.265298	99
Es	-0.765475	-0.681027	1.072754	99
Es	-0.287404	1.642688	0.780036	99
Es	0.131138	-0.995097	0.280106	99
Es	-0.604647	1.238195	0.190263	99
Es	1.777937	-1.988802	-1.252017	99
Es	1.179626	0.618105	0.938492	99
Es	1.200632	-1.437065	-0.280592	99
Es	-2.232663	0.690105	-0.564693	99
Es	-0.800831	1.820251	1.291012	99
Es	0.293702	0.099434	0.959436	99
Es	0.673830	0.547792	1.578904	99
Es	0.272935	1.081337	1.053120	99
Es	-0.244063	-0.424065	0.598033	99
Es	0.354568	-2.221994	0.249317	99
Es	-2.279228	0.906611	-0.740597	99
Es	-0.427061	0.777219	-0.970039	99
Es	0.055873	2.266913	0.532907	99
Es	1.422826	-1.406425	-0.981553	99
Es	0.507472	-1.549600	-0.011769	99
Es	-0.558918	0.052637	0.076589	99
Es	-1.694188	0.683263	-0.496149	99
Es	-0.808258	0.692239	-0.322820	99
Es	-2.384189	0.650275	-0.279515	99
Es	0.735724	-1.509733	-0.732711	99
Es	-2.294881	0.267672	-0.864392	99
43
Properties=species:S:1:pos:R:3:Z:I:1 energy=-323.92431100006525 field_type=dipole dipole="0.000000 0.000000 0.000000" charge=0
O	-2.232857	0.690361	-0.564579	8
C	-0.808027	0.692251	-0.322819	6
C	-0.287497	1.642811	0.780031	6
N	0.639733	0.579541	1.235271	7
C	-0.244177	-0.424139	0.598021	6
C	0.507543	-1.549599	-0.011839	6
C	1.422753	-1.406449	-0.981479	6
H	-2.382467	-0.093119	-1.121209	1
H	-0.271807	0.832271	-1.269949	1
H	-1.035727	1.921511	1.531071	1
H	0.205503	2.551511	0.423181	1
H	1.564813	0.637221	0.811800	1
H	-1.000677	-0.810229	1.296281	1
H	0.290413	-2.542089	0.374301	1
H	1.693083	-0.444729	-1.402539	1
H	1.939394	-2.277119	-1.375539	1
Es	0.673253	0.547806	1.578153	99
Es	0.354520	-2.222112	0.249147	99
Es	1.422829	-1.406424	-0.981549	99
Es	-0.558645	0.052506	0.077141	99
Es	1.180399	0.618178	0.938462	99
Es	0.735873	-1.509770	-0.732661	99
Es	-1.693482	0.685393	-0.498463	99
Es	1.778077	-1.988751	-1.251781	99
Es	-2.277369	0.900781	-0.739834	99
Es	0.639655	0.579604	1.234623	99
Es	-0.808257	0.692239	-0.322820	99
Es	0.293280	0.099794	0.959394	99
Es	-2.386780	0.653587	-0.278247	99
Es	0.131202	-0.994867	0.279707	99
Es	1.200449	-1.437020	-0.280814	99
Es	-2.294873	0.268037	-0.864021	99
Es	0.507467	-1.549601	-0.011769	99
Es	0.056229	2.266855	0.532551	99
Es	1.608352	-0.751213	-1.265189	99
Es	-0.287405	1.642689	0.780035	99
Es	-2.232669	0.690144	-0.564671	99
Es	-0.426786	0.777327	-0.970221	99
Es	-0.801276	1.820131	1.291196	99
Es	-0.604313	1.237906	0.190724	99
Es	-0.765878	-0.681008	1.073032	99
Es	0.272514	1.081053	1.053303	99
Es	-0.244062	-0.424065	0.598034	99
43
Properties=species:S:1:pos:R:3:Z:I:1 energy=-323.92431100006525 field_type=dipole dipole="0.000000 0.000000 0.000000" charge=0
O	-2.232857	0.690361	-0.564579	8
C	-0.808027	0.692251	-0.322819	6
C	-0.287497	1.642811	0.780031	6
N	0.639733	0.579541	1.235271	7
C	-0.244177	-0.424139	0.598021	6
C	0.507543	-1.549599	-0.011839	6
C	1.422753	-1.406449	-0.981479	6
H	-2.382467	-0.093119	-1.121209	1
H	-0.271807	0.832271	-1.269949	1
H	-1.035727	1.921511	1.531071	1
H	0.205503	2.551511	0.423181	1
H	1.564813	0.637221	0.811800	1
H	-1.000677	-0.810229	1.296281	1
H	0.290413	-2.542089	0.374301	1
H	1.693083	-0.444729	-1.402539	1
H	1.939394	-2.277119	-1.375539	1
Es	0.735959	-1.509410	-0.732528	99
Es	1.422828	-1.406425	-0.981552	99
Es	1.608525	-0.751158	-1.264994	99
Es	0.354320	-2.222225	0.248708	99
Es	-2.232578	0.690128	-0.564717	99
Es	-2.294708	0.270213	-0.865597	99
Es	1.180273	0.618624	0.937425	99
Es	-2.278008	0.900094	-0.737465	99
Es	-1.693135	0.686129	-0.500421	99
Es	0.639647	0.579602	1.234649	99
Es	0.507469	-1.549601	-0.011770	99
Es	-0.604109	1.237823	0.191123	99
Es	-2.386747	0.651337	-0.276923	99
Es	-0.426570	0.777253	-0.970409	99
Es	0.056501	2.266856	0.532243	99
Es	0.673847	0.548226	1.577528	99
Es	-0.558246	0.052690	0.077771	99
Es	0.131096	-0.994870	0.279361	99
Es	-0.766370	-0.680902	1.073058	99
Es	1.778174	-1.988830	-1.251675	99
Es	-0.801532	1.819943	1.291458	99
Es	1.200481	-1.437031	-0.280929	99
Es	-0.287405	1.642688	0.780037	99
Es	-0.244061	-0.424064	0.598034	99
Es	0.292764	0.099322	0.960181	99
Es	0.272142	1.080550	1.053685	99
Es	-0.808253	0.692238	-0.322818	99
43
Properties=species:S:1:pos:R:3:Z:I:1 energy=-323.92431100006525 field_type=dipole dipole="0.000000 0.000000 0.000000" charge=0
O	-2.232857	0.690361	-0.564579	8
C	-0.808027	0.692251	-0.322819	6
C	-0.287497	1.642811	0.780031	6
N	0.639733	0.579541	1.235271	7
C	-0.244177	-0.424139	0.598021	6
C	0.507543	-1.549599	-0.011839	6
C	1.422753	-1.406449	-0.981479	6
H	-2.382467	-0.093119	-1.121209	1
H	-0.271807	0.832271	-1.269949	1
H	-1.035727	1.921511	1.531071	1
H	0.205503	2.551511	0.423181	1
H	1.564813	0.637221	0.811800	1
H	-1.000677	-0.810229	1.296281	1
H	0.290413	-2.542089	0.374301	1
H	1.693083	-0.444729	-1.402539	1
H	1.939394	-2.277119	-1.375539	1
Es	-0.426396	0.777191	-0.970577	99
Es	1.422825	-1.406424	-0.981554	99
Es	-0.808255	0.692239	-0.322820	99
Es	-0.801775	1.819849	1.291563	99
Es	-0.766512	-0.680928	1.073216	99
Es	1.608548	-0.750998	-1.264969	99
Es	0.271895	1.080833	1.053959	99
Es	-2.389574	0.654642	-0.275987	99
Es	-1.693044	0.687187	-0.501700	99
Es	0.736029	-1.509483	-0.732434	99
Es	0.056609	2.266823	0.531984	99
Es	1.180756	0.618425	0.937560	99
Es	1.200547	-1.437185	-0.281002	99
Es	-0.558218	0.052713	0.078136	99
Es	0.354197	-2.222282	0.248809	99
Es	1.778131	-1.988693	-1.251678	99
Es	-2.275650	0.895450	-0.737644	99
Es	0.507464	-1.549605	-0.011772	99
Es	-2.294240	0.270526	-0.865008	99
Es	0.131263	-0.994687	0.279049	99
Es	-0.603887	1.237606	0.191324	99
Es	-0.244062	-0.424065	0.598033	99
Es	-0.287404	1.642686	0.780037	99
Es	0.673813	0.548692	1.576027	99
Es	-2.232657	0.690140	-0.564674	99
Es	0.639665	0.579608	1.234611	99
Es	0.292237	0.098941	0.960974	99
43
Properties=species:S:1:pos:R:3:Z:I:1 energy=-323.92431100006525 field_type=dipole dipole="0.000000 0.000000 0.000000" charge=0
O	-2.232857	0.690361	-0.564579	8
C	-0.808027	0.692251	-0.322819	6
C	-0.287497	1.642811	0.780031	6
N	0.639733	0.579541	1.235271	7
C	-0.244177	-0.424139	0.598021	6
C	0.507543	-1.549599	-0.011839	6
C	1.422753	-1.406449	-0.981479	6
H	-2.382467	-0.093119	-1.121209	1
H	-0.271807	0.832271	-1.269949	1
H	-1.035727	1.921511	1.531071	1
H	0.205503	2.551511	0.423181	1
H	1.564813	0.637221	0.811800	1
H	-1.000677	-0.810229	1.296281	1
H	0.290413	-2.542089	0.374301	1
H	1.693083	-0.444729	-1.402539	1
H	1.939394	-2.277119	-1.375539	1
Es	0.736235	-1.509369	-0.732246	99
Es	-2.232589	0.690136	-0.564730	99
Es	1.180829	0.618461	0.936947	99
Es	-2.392228	0.659269	-0.276418	99
Es	0.639670	0.579602	1.234623	99
Es	-0.603767	1.237386	0.191561	99
Es	0.673662	0.549380	1.576406	99
Es	-2.273348	0.891724	-0.739030	99
Es	1.200390	-1.437124	-0.281206	99
Es	0.507469	-1.549602	-0.011768	99
Es	0.271904	1.080081	1.053459	99
Es	0.291941	0.099058	0.961441	99
Es	-0.557927	0.052580	0.078424	99
Es	1.778106	-1.988839	-1.251512	99
Es	-0.802010	1.819679	1.291566	99
Es	-0.808252	0.692237	-0.322819	99
Es	-0.244061	-0.424064	0.598034	99
Es	0.354111	-2.222376	0.248720	99
Es	0.056777	2.266879	0.531834	99
Es	-0.426214	0.777404	-0.970647	99
Es	-1.692759	0.687144	-0.501604	99
Es	-2.294262	0.269621	-0.863192	99
Es	1.422829	-1.406425	-0.981553	99
Es	1.608650	-0.750888	-1.265027	99
Es	-0.766807	-0.680815	1.073264	99
Es	0.131361	-0.994628	0.278899	99
Es	-0.287405	1.642687	0.780037	99
43
Properties=species:S:1:pos:R:3:Z:I:1 energy=-323.92431100006525 field_type=dipole dipole="0.000000 0.000000 0.000000" charge=0
O	-2.232857	0.690361	-0.564579	8
C	-0.808027	0.692251	-0.322819	6
C	-0.287497	1.642811	0.780031	6
N	0.639733	0.579541	1.235271	7
C	-0.244177	-0.424139	0.598021	6
C	0.507543	-1.549599	-0.011839	6
C	1.422753	-1.406449	-0.981479	6
H	-2.382467	-0.093119	-1.121209	1
H	-0.271807	0.832271	-1.269949	1
H	-1.035727	1.921511	1.531071	1
H	0.205503	2.551511	0.423181	1
H	1.564813	0.637221	0.811800	1
H	-1.000677	-0.810229	1.296281	1
H	0.290413	-2.542089	0.374301	1
H	1.693083	-0.444729	-1.402539	1
H	1.939394	-2.277119	-1.375539	1
Es	0.131280	-0.994489	0.278601	99
Es	-2.232633	0.690090	-0.564623	99
Es	-2.272699	0.888519	-0.739671	99
Es	-0.802202	1.819457	1.291676	99
Es	-0.244062	-0.424065	0.598034	99
Es	0.507466	-1.549602	-0.011771	99
Es	-1.692429	0.688559	-0.502722	99
Es	0.271507	1.080203	1.053958	99
Es	-0.287405	1.642688	0.780037	99
Es	0.639654	0.579606	1.234646	99
Es	-0.426198	0.777470	-0.970689	99
Es	-0.766877	-0.680885	1.073421	99
Es	-0.603543	1.237370	0.191937	99
Es	-0.808253	0.692236	-0.322818	99
Es	0.736286	-1.509261	-0.732133	99
Es	0.354069	-2.222436	0.248659	99
Es	1.422818	-1.406427	-0.981560	99
Es	-2.293499	0.269513	-0.861663	99
Es	0.056918	2.266941	0.531622	99
Es	1.200478	-1.437097	-0.281201	99
Es	-0.557854	0.052459	0.078612	99
Es	1.180737	0.618797	0.936645	99
Es	1.608702	-0.750886	-1.265025	99
Es	0.291991	0.099267	0.960964	99
Es	-2.393899	0.661206	-0.276247	99
Es	0.673883	0.548801	1.576282	99
Es	1.778068	-1.988834	-1.251507	99
43
Properties=species:S:1:pos:R:3:Z:I:1 energy=-323.92431100006525 field_type=dipole dipole="0.000000 0.000000 0.000000" charge=0
O	-2.232857	0.690361	-0.564579	8
C	-0.808027	0.692251	-0.322819	6
C	-0.287497	1.642811	0.780031	6
N	0.639733	0.579541	1.235271	7
C	-0.244177	-0.424139	0.598021	6
C	0.507543	-1.549599	-0.011839	6
C	1.422753	-1.406449	-0.981479	6
H	-2.382467	-0.093119	-1.121209	1
H	-0.271807	0.832271	-1.269949	1
H	-1.035727	1.921511	1.531071	1
H	0.205503	2.551511	0.423181	1
H	1.564813	0.637221	0.811800	1
H	-1.000677	-0.810229	1.296281	1
H	0.290413	-2.542089	0.374301	1
H	1.693083	-0.444729	-1.402539	1
H	1.939394	-2.277119	-1.375539	1
Es	-0.767018	-0.680827	1.073485	99
Es	-0.426074	0.777468	-0.970736	99
Es	0.056947	2.266914	0.531454	99
Es	1.180886	0.618753	0.936381	99
Es	0.639673	0.579604	1.234626	99
Es	-2.274564	0.888905	-0.735813	99
Es	0.271377	1.080099	1.054158	99
Es	1.422823	-1.406426	-0.981556	99
Es	0.673856	0.548783	1.575866	99
Es	1.200264	-1.437171	-0.281421	99
Es	-1.692394	0.690505	-0.505222	99
Es	0.507465	-1.549603	-0.011772	99
Es	-0.808259	0.692226	-0.322821	99
Es	1.608727	-0.750792	-1.264780	99
Es	-2.293487	0.271563	-0.864441	99
Es	-2.232643	0.690075	-0.564623	99
Es	-0.802265	1.819428	1.291763	99
Es	0.736417	-1.509292	-0.732078	99
Es	0.353926	-2.222469	0.248599	99
Es	1.778269	-1.988880	-1.251469	99
Es	0.131384	-0.994355	0.278330	99
Es	-0.244062	-0.424066	0.598033	99
Es	-2.392095	0.656858	-0.274788	99
Es	0.291798	0.099325	0.961247	99
Es	-0.603518	1.237309	0.192082	99
Es	-0.557726	0.052577	0.078922	99
Es	-0.287404	1.642688	0.780037	99
43
Properties=species:S:1:pos:R:3:Z:I:1 energy=-323.92431100006525 field_type=dipole dipole="0.000000 0.000000 0.000000" charge=0
O	-2.232857	0.690361	-0.564579	8
C	-0.808027	0.692251	-0.322819	6
C	-0.287497	1.642811	0.780031	6
N	0.639733	0.579541	1.235271	7
C	-0.244177	-0.424139	0.598021	6
C	0.507543	-1.549599	-0.011839	6
C	1.422753	-1.406449	-0.981479	6
H	-2.382467	-0.093119	-1.121209	1
H	-0.271807	0.832271	-1.269949	1
H	-1.035727	1.921511	1.531071	1
H	0.205503	2.551511	0.423181	1
H	1.564813	0.637221	0.811800	1
H	-1.000677	-0.810229	1.296281	1
H	0.290413	-2.542089	0.374301	1
H	1.693083	-0.444729	-1.402539	1
H	1.939394	-2.277119	-1.375539	1
Es	-0.802444	1.819395	1.291831	99
Es	-1.692387	0.689439	-0.504496	99
Es	1.778126	-1.988798	-1.251483	99
Es	0.131475	-0.994324	0.278338	99
Es	-2.393549	0.659303	-0.275078	99
Es	1.422830	-1.406425	-0.981551	99
Es	1.180774	0.618947	0.935925	99
Es	-2.232605	0.690156	-0.564847	99
Es	0.736349	-1.509235	-0.732165	99
Es	-2.273208	0.887801	-0.737121	99
Es	0.291301	0.098883	0.961895	99
Es	-0.767239	-0.680783	1.073484	99
Es	-0.425939	0.777600	-0.970827	99
Es	0.507463	-1.549603	-0.011774	99
Es	0.271115	1.080125	1.054747	99
Es	0.057149	2.266834	0.531313	99
Es	-0.603421	1.237112	0.192288	99
Es	-2.293430	0.271190	-0.863273	99
Es	-0.287405	1.642688	0.780037	99
Es	0.639659	0.579599	1.234674	99
Es	1.200401	-1.437163	-0.281302	99
Es	1.608779	-0.750818	-1.264887	99
Es	0.353940	-2.222481	0.248617	99
Es	-0.808252	0.692235	-0.322819	99
Es	-0.244061	-0.424065	0.598035	99
Es	-0.557552	0.052502	0.079061	99
Es	0.674436	0.549086	1.574839	99
43
Properties=species:S:1:pos:R:3:Z:I:1 energy=-323.92431100006525 field_type=dipole dipole="0.000000 0.000000 0.000000" charge=0
O	-2.232857	0.690361	-0.564579	8
C	-0.808027	0.692251	-0.322819	6
C	-0.287497	1.642811	0.780031	6
N	0.639733	0.579541	1.235271	7
C	-0.244177	-0.424139	0.598021	6
C	0.507543	-1.549599	-0.011839	6
C	1.422753	-1.406449	-0.981479	6
H	-2.382467	-0.093119	-1.121209	1
H	-0.271807	0.832271	-1.269949	1
H	-1.035727	1.921511	1.531071	1
H	0.205503	2.551511	0.423181	1
H	1.564813	0.637221	0.811800	1
H	-1.000677	-0.810229	1.296281	1
H	0.290413	-2.542089	0.374301	1
H	1.693083	-0.444729	-1.402539	1
H	1.939394	-2.277119	-1.375539	1
Es	-2.292952	0.271229	-0.862958	99
Es	0.057172	2.266795	0.531171	99
Es	-0.802511	1.819376	1.291922	99
Es	-0.244062	-0.424063	0.598034	99
Es	0.131518	-0.994241	0.278202	99
Es	1.200344	-1.437120	-0.281375	99
Es	-0.808260	0.692238	-0.322821	99
Es	-0.287404	1.642687	0.780038	99
Es	-2.232607	0.690097	-0.564664	99
Es	-2.273520	0.886057	-0.736608	99
Es	1.778106	-1.988887	-1.251402	99
Es	0.674005	0.549531	1.574965	99
Es	0.271091	1.079777	1.054033	99
Es	-0.603359	1.237082	0.192433	99
Es	0.736440	-1.509200	-0.732083	99
Es	0.353910	-2.222492	0.248601	99
Es	0.507464	-1.549603	-0.011773	99
Es	-0.557520	0.052500	0.079211	99
Es	0.639648	0.579599	1.234693	99
Es	1.608847	-0.750815	-1.264920	99
Es	1.181040	0.618865	0.936073	99
Es	-1.692308	0.691276	-0.505889	99
Es	-0.425872	0.777584	-0.970873	99
Es	-0.767302	-0.680790	1.073512	99
Es	1.422831	-1.406425	-0.981548	99
Es	-2.393793	0.659242	-0.274642	99
Es	0.291357	0.098902	0.962131	99
43
Properties=species:S:1:pos:R:3:Z:I:1 energy=-323.92431100006525 field_type=dipole dipole="0.000000 0.000000 0.000000" charge=0
O	-2.232857	0.690361	-0.564579	8
C	-0.808027	0.692251	-0.322819	6
C	-0.287497	1.642811	0.780031	6
N	0.639733	0.579541	1.235271	7
C	-0.244177	-0.424139	0.598021	6
C	0.507543	-1.549599	-0.011839	6
C	1.422753	-1.406449	-0.981479	6
H	-2.382467	-0.093119	-1.121209	1
H	-0.271807	0.832271	-1.269949	1
H	-1.035727	1.921511	1.531071	1
H	0.205503	2.551511	0.423181	1
H	1.564813	0.637221	0.811800	1
H	-1.000677	-0.810229	1.296281	1
H	0.290413	-2.542089	0.374301	1
H	1.693083	-0.444729	-1.402539	1
H	1.939394	-2.277119	-1.375539	1
Es	-0.767344	-0.680727	1.073628	99
Es	0.507464	-1.549602	-0.011772	99
Es	-0.802635	1.819284	1.291909	99
Es	-0.287403	1.642689	0.780036	99
Es	-2.394259	0.658656	-0.274286	99
Es	-0.603245	1.236982	0.192591	99
Es	1.422830	-1.406425	-0.981555	99
Es	0.674246	0.549500	1.574651	99
Es	0.131572	-0.994253	0.277986	99
Es	0.639679	0.579604	1.234627	99
Es	1.608889	-0.750721	-1.264853	99
Es	0.736525	-1.509125	-0.732002	99
Es	-0.244061	-0.424065	0.598034	99
Es	-2.293156	0.272524	-0.863966	99
Es	0.057197	2.266820	0.531038	99
Es	1.778065	-1.988905	-1.251432	99
Es	0.353836	-2.222535	0.248546	99
Es	-0.425812	0.777678	-0.970882	99
Es	-2.232615	0.690120	-0.564660	99
Es	1.200320	-1.437185	-0.281432	99
Es	-0.557454	0.052451	0.079454	99
Es	1.180936	0.618983	0.935860	99
Es	0.270961	1.079863	1.054387	99
Es	-1.692081	0.691268	-0.506571	99
Es	-2.273072	0.885375	-0.735266	99
Es	-0.808252	0.692238	-0.322818	99
Es	0.291175	0.098707	0.962210	99
43
Properties=species:S:1:pos:R:3:Z:I:1 energy=-323.92431100006525 field_type=dipole dipole="0.000000 0.000000 0.000000" charge=0
O	-2.232857	0.690361	-0.564579	8
C	-0.808027	0.692251	-0.322819	6
C	-0.287497	1.642811	0.780031	6
N	0.639733	0.579541	1.235271	7
C	-0.244177	-0.424139	0.598021	6
C	0.507543	-1.549599	-0.011839	6
C	1.422753	-1.406449	-0.981479	6
H	-2.382467	-0.093119	-1.121209	1
H	-0.271807	0.832271	-1.269949	1
H	-1.035727	1.921511	1.531071	1
H	0.205503	2.551511	0.423181	1
H	1.564813	0.637221	0.811800	1
H	-1.000677	-0.810229	1.296281	1
H	0.290413	-2.542089	0.374301	1
H	1.693083	-0.444729	-1.402539	1
H	1.939394	-2.277119	-1.375539	1
Es	0.353901	-2.222584	0.248727	99
Es	1.608853	-0.750662	-1.265061	99
Es	1.180580	0.618952	0.935282	99
Es	0.291003	0.098289	0.962935	99
Es	0.736589	-1.509188	-0.731958	99
Es	0.270615	1.080156	1.054990	99
Es	-1.691756	0.692476	-0.507392	99
Es	-2.292663	0.272767	-0.863376	99
Es	-0.425794	0.777687	-0.970898	99
Es	-2.271763	0.881833	-0.734844	99
Es	-0.808256	0.692235	-0.322822	99
Es	-0.802680	1.819220	1.291885	99
Es	0.057250	2.266849	0.531049	99
Es	0.131692	-0.994193	0.278100	99
Es	-0.244061	-0.424065	0.598035	99
Es	-2.396340	0.660717	-0.274478	99
Es	-0.557466	0.052597	0.079382	99
Es	0.675053	0.549518	1.573916	99
Es	-0.767336	-0.680767	1.073634	99
Es	1.777943	-1.988900	-1.251385	99
Es	-2.232647	0.690123	-0.564660	99
Es	1.200263	-1.437156	-0.281485	99
Es	-0.603232	1.237034	0.192544	99
Es	1.422825	-1.406425	-0.981557	99
Es	0.639673	0.579601	1.234633	99
Es	0.507463	-1.549602	-0.011773	99
Es	-0.287406	1.642688	0.780036	99
43
Properties=species:S:1:pos:R:3:Z:I:1 energy=-323.92431100006525 field_type=dipole dipole="0.000000 0.000000 0.000000" charge=0
O	-2.232857	0.690361	-0.564579	8
C	-0.808027	0.692251	-0.322819	6
C	-0.287497	1.642811	0.780031	6
N	0.639733	0.579541	1.235271	7
C	-0.244177	-0.424139	0.598021	6
C	0.507543	-1.549599	-0.011839	6
C	1.422753	-1.406449	-0.981479	6
H	-2.382467	-0.093119	-1.121209	1
H	-0.271807	0.832271	-1.269949	1
H	-1.035727	1.921511	1.531071	1
H	0.205503	2.551511	0.423181	1
H	1.564813	0.637221	0.811800	1
H	-1.000677	-0.810229	1.296281	1
H	0.290413	-2.542089	0.374301	1
H	1.693083	-0.444729	-1.402539	1
H	1.939394	-2.277119	-1.375539	1
Es	0.507467	-1.549602	-0.011771	99
Es	1.608860	-0.750650	-1.264807	99
Es	0.057404	2.266841	0.530926	99
Es	1.180921	0.618966	0.935539	99
Es	-2.292882	0.272208	-0.862505	99
Es	0.736541	-1.509184	-0.732039	99
Es	-0.603121	1.236968	0.192827	99
Es	-2.272500	0.882688	-0.735618	99
Es	0.131580	-0.994238	0.277910	99
Es	-2.232618	0.690139	-0.564660	99
Es	-0.802792	1.819136	1.291934	99
Es	0.639718	0.579597	1.234647	99
Es	0.353962	-2.222600	0.248649	99
Es	-0.425697	0.777684	-0.970954	99
Es	1.200209	-1.437107	-0.281547	99
Es	-2.395174	0.660618	-0.273902	99
Es	-0.767495	-0.680652	1.073675	99
Es	-0.287405	1.642688	0.780036	99
Es	-0.244061	-0.424065	0.598035	99
Es	-0.808254	0.692240	-0.322818	99
Es	0.270698	1.079803	1.054586	99
Es	-1.692010	0.692286	-0.508011	99
Es	0.291015	0.098905	0.962328	99
Es	-0.557353	0.052368	0.079634	99
Es	0.674347	0.549450	1.574350	99
Es	1.422837	-1.406424	-0.981542	99
Es	1.778109	-1.988863	-1.251441	99
43
Properties=species:S:1:pos:R:3:Z:I:1 energy=-323.92431100006525 field_type=dipole dipole="0.000000 0.000000 0.000000" charge=0
O	-2.232857	0.690361	-0.564579	8
C	-0.808027	0.692251	-0.322819	6
C	-0.287497	1.642811	0.780031	6
N	0.639733	0.579541	1.235271	7
C	-0.244177	-0.424139	0.598021	6
C	0.507543	-1.549599	-0.011839	6
C	1.422753	-1.406449	-0.981479	6
H	-2.382467	-0.093119	-1.121209	1
H	-0.271807	0.832271	-1.269949	1
H	-1.035727	1.921511	1.531071	1
H	0.205503	2.551511	0.423181	1
H	1.564813	0.637221	0.811800	1
H	-1.000677	-0.810229	1.296281	1
H	0.290413	-2.542089	0.374301	1
H	1.693083	-0.444729	-1.402539	1
H	1.939394	-2.277119	-1.375539	1
Es	1.778095	-1.988856	-1.251289	99
Es	-2.272711	0.881989	-0.736153	99
Es	0.507465	-1.549603	-0.011772	99
Es	0.291005	0.099041	0.961991	99
Es	-0.802844	1.819105	1.291969	99
Es	-0.808253	0.692237	-0.322818	99
Es	-0.557199	0.052438	0.079782	99
Es	0.639715	0.579600	1.234644	99
Es	-2.395680	0.660503	-0.273898	99
Es	0.131686	-0.994148	0.277848	99
Es	-0.287405	1.642688	0.780037	99
Es	1.180828	0.619302	0.935194	99
Es	0.353870	-2.222572	0.248654	99
Es	-0.767589	-0.680658	1.073702	99
Es	1.200245	-1.437131	-0.281565	99
Es	-2.292037	0.272142	-0.861834	99
Es	0.270344	1.080126	1.055727	99
Es	-2.232644	0.690129	-0.564635	99
Es	-0.603047	1.236877	0.192790	99
Es	-0.244061	-0.424065	0.598036	99
Es	-1.692136	0.693133	-0.508116	99
Es	1.608919	-0.750669	-1.264927	99
Es	0.736453	-1.509157	-0.732113	99
Es	0.674697	0.548636	1.573843	99
Es	-0.425703	0.777719	-0.970980	99
Es	0.057466	2.266817	0.530896	99
Es	1.422828	-1.406425	-0.981553	99
43
Properties=species:S:1:pos:R:3:Z:I:1 energy=-323.92431100006525 field_type=dipole dipole="0.000000 0.000000 0.000000" charge=0
O	-2.232857	0.690361	-0.564579	8
C	-0.808027	0.692251	-0.322819	6
C	-0.287497	1.642811	0.780031	6
N	0.639733	0.579541	1.235271	7
C	-0.244177	-0.424139	0.598021	6
C	0.507543	-1.549599	-0.011839	6
C	1.422753	-1.406449	-0.981479	6
H	-2.382467	-0.093119	-1.121209	1
H	-0.271807	0.832271	-1.269949	1
H	-1.035727	1.921511	1.531071	1
H	0.205503	2.551511	0.423181	1
H	1.564813	0.637221	0.811800	1
H	-1.000677	-0.810229	1.296281	1
H	0.290413	-2.542089	0.374301	1
H	1.693083	-0.444729	-1.402539	1
H	1.939394	-2.277119	-1.375539	1
Es	-0.244061	-0.424064	0.598034	99
Es	-0.802908	1.819204	1.292014	99
Es	0.353795	-2.222659	0.248609	99
Es	-0.767649	-0.680710	1.073659	99
Es	-0.287405	1.642687	0.780037	99
Es	-2.272070	0.880448	-0.735996	99
Es	1.608907	-0.750646	-1.264950	99
Es	1.180710	0.619077	0.935021	99
Es	1.200219	-1.437110	-0.281599	99
Es	-0.425676	0.777668	-0.970984	99
Es	-1.692015	0.693499	-0.508641	99
Es	0.674793	0.549486	1.574198	99
Es	-2.232618	0.690047	-0.564633	99
Es	-0.557190	0.052404	0.079881	99
Es	0.507464	-1.549602	-0.011772	99
Es	0.131859	-0.994098	0.277789	99
Es	0.639661	0.579598	1.234649	99
Es	-0.603001	1.236974	0.192932	99
Es	1.778086	-1.988899	-1.251281	99
Es	0.736557	-1.509071	-0.731975	99
Es	0.057506	2.266689	0.530740	99
Es	0.290707	0.098776	0.962626	99
Es	-2.396611	0.661712	-0.273949	99
Es	1.422829	-1.406425	-0.981552	99
Es	-2.291871	0.272217	-0.861443	99
Es	0.270540	1.079761	1.054867	99
Es	-0.808254	0.692238	-0.322819	99
43
Properties=species:S:1:pos:R:3:Z:I:1 energy=-323.92431100006525 field_type=dipole dipole="0.000000 0.000000 0.000000" charge=0
O	-2.232857	0.690361	-0.564579	8
C	-0.808027	0.692251	-0.322819	6
C	-0.287497	1.642811	0.780031	6
N	0.639733	0.579541	1.235271	7
C	-0.244177	-0.424139	0.598021	6
C	0.507543	-1.549599	-0.011839	6
C	1.422753	-1.406449	-0.981479	6
H	-2.382467	-0.093119	-1.121209	1
H	-0.271807	0.832271	-1.269949	1
H	-1.035727	1.921511	1.531071	1
H	0.205503	2.551511	0.423181	1
H	1.564813	0.637221	0.811800	1
H	-1.000677	-0.810229	1.296281	1
H	0.290413	-2.542089	0.374301	1
H	1.693083	-0.444729	-1.402539	1
H	1.939394	-2.277119	-1.375539	1
Es	1.608886	-0.750625	-1.265010	99
Es	1.778022	-1.988873	-1.251314	99
Es	0.131693	-0.994031	0.277549	99
Es	-0.244061	-0.424065	0.598035	99
Es	0.057600	2.266754	0.530633	99
Es	-2.271772	0.880775	-0.735742	99
Es	-1.692034	0.693124	-0.508172	99
Es	-2.396517	0.661646	-0.274014	99
Es	-0.767621	-0.680708	1.073778	99
Es	0.353835	-2.222647	0.248515	99
Es	0.507467	-1.549601	-0.011769	99
Es	-2.292182	0.272249	-0.862029	99
Es	-0.557223	0.052459	0.080106	99
Es	0.290651	0.098660	0.962653	99
Es	0.270350	1.079860	1.054975	99
Es	-0.425532	0.777849	-0.971026	99
Es	-0.287404	1.642688	0.780037	99
Es	1.422826	-1.406425	-0.981557	99
Es	1.181021	0.619143	0.935201	99
Es	0.639655	0.579600	1.234646	99
Es	0.736668	-1.509088	-0.731839	99
Es	0.674524	0.549537	1.573768	99
Es	-0.808252	0.692236	-0.322819	99
Es	-0.602967	1.236567	0.193037	99
Es	1.200315	-1.437131	-0.281556	99
Es	-2.232675	0.690178	-0.564665	99
Es	-0.802965	1.819069	1.292041	99
43
Properties=species:S:1:pos:R:3:Z:I:1 energy=-323.92431100006525 field_type=dipole dipole="0.000000 0.000000 0.000000" charge=0
O	-2.232857	0.690361	-0.564579	8
C	-0.808027	0.692251	-0.322819	6
C	-0.287497	1.642811	0.780031	6
N	0.639733	0.579541	1.235271	7
C	-0.244177	-0.424139	0.598021	6
C	0.507543	-1.549599	-0.011839	6
C	1.422753	-1.406449	-0.981479	6
H	-2.382467	-0.093119	-1.121209	1
H	-0.271807	0.832271	-1.269949	1
H	-1.035727	1.921511	1.531071	1
H	0.205503	2.551511	0.423181	1
H	1.564813	0.637221	0.811800	1
H	-1.000677	-0.810229	1.296281	1
H	0.290413	-2.542089	0.374301	1
H	1.693083	-0.444729	-1.402539	1
H	1.939394	-2.277119	-1.375539	1
Es	-2.397039	0.661633	-0.273750	99
Es	1.778124	-1.988878	-1.251327	99
Es	-1.692021	0.694004	-0.509116	99
Es	0.270373	1.079737	1.054999	99
Es	-0.808253	0.692236	-0.322818	99
Es	1.200216	-1.437154	-0.281692	99
Es	-0.425579	0.777720	-0.971042	99
Es	1.422823	-1.406426	-0.981557	99
Es	0.639665	0.579602	1.234621	99
Es	-0.287406	1.642687	0.780035	99
Es	0.736728	-1.509079	-0.731771	99
Es	0.674960	0.549510	1.573914	99
Es	0.057458	2.266862	0.530697	99
Es	-0.767674	-0.680649	1.073784	99
Es	-2.232642	0.690001	-0.564681	99
Es	0.353802	-2.222709	0.248507	99
Es	-0.244062	-0.424065	0.598034	99
Es	1.608847	-0.750531	-1.264890	99
Es	0.507464	-1.549602	-0.011772	99
Es	-2.271662	0.879498	-0.734953	99
Es	-0.557172	0.052414	0.080088	99
Es	-0.602930	1.236889	0.193005	99
Es	1.180670	0.619150	0.934676	99
Es	0.131666	-0.994058	0.277653	99
Es	-0.802991	1.818905	1.292053	99
Es	-2.291802	0.272790	-0.862116	99
Es	0.290740	0.098713	0.962883	99
43
Properties=species:S:1:pos:R:3:Z:I:1 energy=-323.92431100006525 field_type=dipole dipole="0.000000 0.000000 0.000000" charge=0
O	-2.232857	0.690361	-0.564579	8
C	-0.808027	0.692251	-0.322819	6
C	-0.287497	1.642811	0.780031	6
N	0.639733	0.579541	1.235271	7
C	-0.244177	-0.424139	0.598021	6
C	0.507543	-1.549599	-0.011839	6
C	1.422753	-1.406449	-0.981479	6
H	-2.382467	-0.093119	-1.121209	1
H	-0.271807	0.832271	-1.269949	1
H	-1.035727	1.921511	1.531071	1
H	0.205503	2.551511	0.423181	1
H	1.564813	0.637221	0.811800	1
H	-1.000677	-0.810229	1.296281	1
H	0.290413	-2.542089	0.374301	1
H	1.693083	-0.444729	-1.402539	1
H	1.939394	-2.277119	-1.375539	1
Es	-0.602942	1.236852	0.193061	99
Es	0.639664	0.579604	1.234647	99
Es	0.736687	-1.509145	-0.731866	99
Es	-0.767704	-0.680622	1.073809	99
Es	-2.232662	0.690181	-0.564649	99
Es	0.353903	-2.222698	0.248562	99
Es	1.180857	0.619294	0.934855	99
Es	0.290605	0.098715	0.962777	99
Es	-2.292155	0.272619	-0.861725	99
Es	-2.271962	0.878983	-0.734757	99
Es	1.778183	-1.988905	-1.251217	99
Es	0.507465	-1.549602	-0.011771	99
Es	1.422828	-1.406425	-0.981554	99
Es	-0.244062	-0.424065	0.598034	99
Es	-1.692086	0.694414	-0.510304	99
Es	0.674716	0.549614	1.573791	99
Es	-2.396337	0.661728	-0.273161	99
Es	0.131710	-0.994031	0.277658	99
Es	-0.803031	1.819046	1.292040	99
Es	-0.808255	0.692235	-0.322820	99
Es	1.608846	-0.750630	-1.264974	99
Es	0.270339	1.079476	1.054963	99
Es	1.200141	-1.436995	-0.281700	99
Es	-0.557119	0.052354	0.080184	99
Es	-0.287406	1.642688	0.780034	99
Es	-0.425534	0.777777	-0.971038	99
Es	0.057616	2.266739	0.530582	99
43
Properties=species:S:1:pos:R:3:Z:I:1 energy=-323.92431100006525 field_type=dipole dipole="0.000000 0.000000 0.000000" charge=0
O	-2.232857	0.690361	-0.564579	8
C	-0.808027	0.692251	-0.322819	6
C	-0.287497	1.642811	0.780031	6
N	0.639733	0.579541	1.235271	7
C	-0.244177	-0.424139	0.598021	6
C	0.507543	-1.549599	-0.011839	6
C	1.422753	-1.406449	-0.981479	6
H	-2.382467	-0.093119	-1.121209	1
H	-0.271807	0.832271	-1.269949	1
H	-1.035727	1.921511	1.531071	1
H	0.205503	2.551511	0.423181	1
H	1.564813	0.637221	0.811800	1
H	-1.000677	-0.810229	1.296281	1
H	0.290413	-2.542089	0.374301	1
H	1.693083	-0.444729	-1.402539	1
H	1.939394	-2.277119	-1.375539	1
Es	0.639670	0.579603	1.234606	99
Es	1.422828	-1.406425	-0.981552	99
Es	-0.557139	0.052283	0.080208	99
Es	0.353813	-2.222746	0.248447	99
Es	-0.287405	1.642688	0.780036	99
Es	0.507465	-1.549603	-0.011772	99
Es	-0.808249	0.692237	-0.322817	99
Es	0.674153	0.550312	1.574478	99
Es	0.057564	2.266811	0.530472	99
Es	1.608908	-0.750531	-1.264973	99
Es	-0.767685	-0.680610	1.073834	99
Es	-0.602856	1.236884	0.193268	99
Es	1.181059	0.618982	0.935275	99
Es	0.270584	1.079190	1.053704	99
Es	-0.244062	-0.424065	0.598035	99
Es	-2.397268	0.661779	-0.273372	99
Es	0.736885	-1.509019	-0.731562	99
Es	-2.232798	0.690360	-0.564862	99
Es	1.778079	-1.989018	-1.251229	99
Es	-1.691920	0.695181	-0.510502	99
Es	0.290661	0.098593	0.962885	99
Es	-0.803127	1.818906	1.292030	99
Es	0.131733	-0.993982	0.277560	99
Es	-2.271330	0.877456	-0.733644	99
Es	-0.425551	0.777872	-0.971055	99
Es	1.200115	-1.437131	-0.281834	99
Es	-2.291822	0.273193	-0.862204	99
