41
Properties=species:S:1:pos:R:3:Z:I:1 energy=-359.86742072342224 field_type=dipole dipole="0.000000 0.000000 0.000000" charge=0
O	-2.045716	0.139619	-0.592055	8
C	-0.628496	0.107389	-0.668895	6
C	-0.011066	1.251769	0.128375	6
N	1.222114	0.711319	0.611515	7
C	1.215414	-0.664471	0.624345	6
O	2.090864	-1.363672	1.103305	8
C	-0.061596	-1.148981	-0.009735	6
H	-2.384976	-0.631691	-1.079585	1
H	-0.322486	0.164869	-1.720055	1
H	-0.627956	1.548309	0.983305	1
H	0.186694	2.132088	-0.489365	1
H	1.943094	1.226639	1.099445	1
H	0.150264	-1.923052	-0.752115	1
H	-0.726156	-1.550131	0.761515	1
Es	-0.408592	0.144008	-1.389615	99
Es	0.574699	-0.916345	0.295861	99
Es	0.082420	-1.667229	-0.506113	99
Es	1.628412	1.024615	0.910853	99
Es	-0.010899	1.251674	0.128413	99
Es	1.678569	-1.130346	1.161634	99
Es	1.215369	-0.664308	0.624309	99
Es	2.320809	-1.189917	1.227025	99
Es	-2.142524	0.392994	-0.740684	99
Es	-0.354537	-0.540656	-0.342488	99
Es	0.120893	1.852774	-0.293998	99
Es	-0.438850	1.447893	0.705980	99
Es	1.221948	0.711259	0.611741	99
Es	1.916246	-1.130859	0.724006	99
Es	-0.061552	-1.148938	-0.009730	99
Es	-0.628710	0.107397	-0.668829	99
Es	-2.205165	-0.280772	-0.862014	99
Es	-1.508574	0.110697	-0.639165	99
Es	-2.045497	0.139300	-0.592155	99
Es	2.028244	-1.666078	1.068729	99
Es	-0.329478	0.695841	-0.269495	99
Es	-2.107373	0.085680	-0.298131	99
Es	0.700557	0.965909	0.424550	99
Es	1.346633	0.502413	0.359583	99
Es	2.090598	-1.363466	1.103159	99
Es	1.141881	0.200921	0.781126	99
Es	-0.496692	-1.403250	0.509400	99
41
Properties=species:S:1:pos:R:3:Z:I:1 energy=-359.86742072342224 field_type=dipole dipole="0.000000 0.000000 0.000000" charge=0
O	-2.045716	0.139619	-0.592055	8
C	-0.628496	0.107389	-0.668895	6
C	-0.011066	1.251769	0.128375	6
N	1.222114	0.711319	0.611515	7
C	1.215414	-0.664471	0.624345	6
O	2.090864	-1.363672	1.103305	8
C	-0.061596	-1.148981	-0.009735	6
H	-2.384976	-0.631691	-1.079585	1
H	-0.322486	0.164869	-1.720055	1
H	-0.627956	1.548309	0.983305	1
H	0.186694	2.132088	-0.489365	1
H	1.943094	1.226639	1.099445	1
H	0.150264	-1.923052	-0.752115	1
H	-0.726156	-1.550131	0.761515	1
Es	-2.104358	0.084912	-0.305288	99
Es	-0.628711	0.107396	-0.668829	99
Es	0.699052	0.965888	0.424806	99
Es	1.626669	1.023017	0.913873	99
Es	-0.438728	1.447672	0.705661	99
Es	0.082454	-1.668490	-0.505845	99
Es	-0.329604	0.696527	-0.269880	99
Es	2.312627	-1.184369	1.222870	99
Es	-0.495077	-1.402542	0.508741	99
Es	1.340381	0.523595	0.372192	99
Es	1.221866	0.711170	0.611902	99
Es	-1.508796	0.108081	-0.635161	99
Es	1.215368	-0.664306	0.624310	99
Es	1.678127	-1.129047	1.160568	99
Es	0.120742	1.853042	-0.293989	99
Es	-0.061552	-1.148941	-0.009728	99
Es	-0.354965	-0.540402	-0.342665	99
Es	-2.146011	0.399489	-0.742180	99
Es	2.090646	-1.363494	1.103186	99
Es	1.917510	-1.130823	0.725622	99
Es	-0.010903	1.251673	0.128416	99
Es	2.035634	-1.673148	1.071897	99
Es	1.151459	0.181207	0.765589	99
Es	-2.204406	-0.283786	-0.857450	99
Es	0.574036	-0.916780	0.296392	99
Es	-0.409131	0.144257	-1.388803	99
Es	-2.045496	0.139414	-0.592254	99
41
Properties=species:S:1:pos:R:3:Z:I:1 energy=-359.86742072342224 field_type=dipole dipole="0.000000 0.000000 0.000000" charge=0
O	-2.045716	0.139619	-0.592055	8
C	-0.628496	0.107389	-0.668895	6
C	-0.011066	1.251769	0.128375	6
N	1.222114	0.711319	0.611515	7
C	1.215414	-0.664471	0.624345	6
O	2.090864	-1.363672	1.103305	8
C	-0.061596	-1.148981	-0.009735	6
H	-2.384976	-0.631691	-1.079585	1
H	-0.322486	0.164869	-1.720055	1
H	-0.627956	1.548309	0.983305	1
H	0.186694	2.132088	-0.489365	1
H	1.943094	1.226639	1.099445	1
H	0.150264	-1.923052	-0.752115	1
H	-0.726156	-1.550131	0.761515	1
Es	2.090636	-1.363491	1.103177	99
Es	-0.355056	-0.540137	-0.342603	99
Es	0.082754	-1.669225	-0.505869	99
Es	-0.409369	0.144391	-1.388477	99
Es	1.159853	0.167331	0.751520	99
Es	1.678944	-1.126985	1.163428	99
Es	-0.010902	1.251674	0.128414	99
Es	1.625326	1.021564	0.916303	99
Es	-2.045539	0.139403	-0.592201	99
Es	1.334630	0.538904	0.382683	99
Es	0.573338	-0.916947	0.296828	99
Es	-2.101599	0.079589	-0.308286	99
Es	-2.203702	-0.282357	-0.858626	99
Es	-0.438841	1.447720	0.705690	99
Es	-0.628709	0.107397	-0.668828	99
Es	-2.148912	0.404420	-0.738490	99
Es	2.037315	-1.675221	1.072626	99
Es	-0.061552	-1.148939	-0.009729	99
Es	0.120699	1.852945	-0.294068	99
Es	-1.509321	0.107166	-0.634735	99
Es	-0.329574	0.696890	-0.270086	99
Es	0.697810	0.965681	0.426009	99
Es	1.215367	-0.664308	0.624314	99
Es	2.311619	-1.184121	1.218040	99
Es	1.916043	-1.131173	0.726779	99
Es	1.221874	0.711175	0.611876	99
Es	-0.494296	-1.402134	0.508268	99
41
Properties=species:S:1:pos:R:3:Z:I:1 energy=-359.86742072342224 field_type=dipole dipole="0.000000 0.000000 0.000000" charge=0
O	-2.045716	0.139619	-0.592055	8
C	-0.628496	0.107389	-0.668895	6
C	-0.011066	1.251769	0.128375	6
N	1.222114	0.711319	0.611515	7
C	1.215414	-0.664471	0.624345	6
O	2.090864	-1.363672	1.103305	8
C	-0.061596	-1.148981	-0.009735	6
H	-2.384976	-0.631691	-1.079585	1
H	-0.322486	0.164869	-1.720055	1
H	-0.627956	1.548309	0.983305	1
H	0.186694	2.132088	-0.489365	1
H	1.943094	1.226639	1.099445	1
H	0.150264	-1.923052	-0.752115	1
H	-0.726156	-1.550131	0.761515	1
Es	-2.045486	0.139270	-0.592120	99
Es	-0.409486	0.144554	-1.388354	99
Es	0.573106	-0.917030	0.296813	99
Es	1.221840	0.711139	0.611951	99
Es	1.332855	0.544917	0.386853	99
Es	1.215370	-0.664307	0.624306	99
Es	1.163399	0.162215	0.745480	99
Es	0.120592	1.852757	-0.294104	99
Es	-2.100068	0.080154	-0.311121	99
Es	-0.355378	-0.540103	-0.342524	99
Es	2.090636	-1.363493	1.103170	99
Es	-0.628709	0.107397	-0.668828	99
Es	0.082793	-1.669583	-0.505835	99
Es	-0.010899	1.251674	0.128412	99
Es	1.917755	-1.130153	0.728164	99
Es	-0.329592	0.697029	-0.270131	99
Es	0.697399	0.965685	0.426373	99
Es	-1.509383	0.106381	-0.633937	99
Es	1.677571	-1.127176	1.162837	99
Es	2.040380	-1.677029	1.071651	99
Es	2.308303	-1.183185	1.218092	99
Es	-0.493642	-1.401957	0.508156	99
Es	-0.438942	1.447820	0.705653	99
Es	1.624031	1.020599	0.917889	99
Es	-2.150347	0.406296	-0.738980	99
Es	-2.203708	-0.283724	-0.856181	99
Es	-0.061554	-1.148938	-0.009729	99
41
Properties=species:S:1:pos:R:3:Z:I:1 energy=-359.86742072342224 field_type=dipole dipole="0.000000 0.000000 0.000000" charge=0
O	-2.045716	0.139619	-0.592055	8
C	-0.628496	0.107389	-0.668895	6
C	-0.011066	1.251769	0.128375	6
N	1.222114	0.711319	0.611515	7
C	1.215414	-0.664471	0.624345	6
O	2.090864	-1.363672	1.103305	8
C	-0.061596	-1.148981	-0.009735	6
H	-2.384976	-0.631691	-1.079585	1
H	-0.322486	0.164869	-1.720055	1
H	-0.627956	1.548309	0.983305	1
H	0.186694	2.132088	-0.489365	1
H	1.943094	1.226639	1.099445	1
H	0.150264	-1.923052	-0.752115	1
H	-0.726156	-1.550131	0.761515	1
Es	1.330433	0.548999	0.391062	99
Es	-0.438973	1.448056	0.705673	99
Es	2.301549	-1.179167	1.216126	99
Es	1.221813	0.711116	0.611977	99
Es	0.697149	0.965684	0.426579	99
Es	-0.628710	0.107397	-0.668828	99
Es	-2.203616	-0.282444	-0.857713	99
Es	2.090656	-1.363503	1.103194	99
Es	1.166204	0.158424	0.740835	99
Es	-0.329652	0.697144	-0.270242	99
Es	0.572891	-0.917036	0.297019	99
Es	0.082868	-1.669813	-0.505801	99
Es	1.674898	-1.126546	1.160547	99
Es	-2.099545	0.077628	-0.311873	99
Es	-0.061552	-1.148938	-0.009730	99
Es	-0.493269	-1.401840	0.507923	99
Es	1.624013	1.020255	0.918182	99
Es	-2.150880	0.407913	-0.736873	99
Es	1.920315	-1.132591	0.727711	99
Es	-0.355520	-0.539999	-0.342427	99
Es	-1.509476	0.105976	-0.633672	99
Es	-2.045516	0.139372	-0.592215	99
Es	1.215365	-0.664308	0.624317	99
Es	-0.409554	0.144561	-1.388214	99
Es	-0.010900	1.251674	0.128413	99
Es	0.120535	1.852480	-0.294164	99
Es	2.047309	-1.679283	1.076147	99
41
Properties=species:S:1:pos:R:3:Z:I:1 energy=-359.86742072342224 field_type=dipole dipole="0.000000 0.000000 0.000000" charge=0
O	-2.045716	0.139619	-0.592055	8
C	-0.628496	0.107389	-0.668895	6
C	-0.011066	1.251769	0.128375	6
N	1.222114	0.711319	0.611515	7
C	1.215414	-0.664471	0.624345	6
O	2.090864	-1.363672	1.103305	8
C	-0.061596	-1.148981	-0.009735	6
H	-2.384976	-0.631691	-1.079585	1
H	-0.322486	0.164869	-1.720055	1
H	-0.627956	1.548309	0.983305	1
H	0.186694	2.132088	-0.489365	1
H	1.943094	1.226639	1.099445	1
H	0.150264	-1.923052	-0.752115	1
H	-0.726156	-1.550131	0.761515	1
Es	2.300785	-1.179407	1.216199	99
Es	1.169924	0.153987	0.734912	99
Es	-2.202390	-0.281772	-0.858558	99
Es	-1.509450	0.106818	-0.633880	99
Es	-0.439125	1.447925	0.705659	99
Es	-2.045482	0.139228	-0.592079	99
Es	1.328143	0.554184	0.395296	99
Es	2.049100	-1.679157	1.073979	99
Es	-0.409501	0.144620	-1.388191	99
Es	-0.329610	0.697300	-0.270234	99
Es	-0.355453	-0.539873	-0.342314	99
Es	-0.061552	-1.148938	-0.009730	99
Es	1.221826	0.711119	0.611968	99
Es	2.090616	-1.363490	1.103171	99
Es	-0.493196	-1.401839	0.507891	99
Es	-2.098471	0.074873	-0.313309	99
Es	0.696479	0.965480	0.427406	99
Es	-0.628707	0.107396	-0.668828	99
Es	0.120530	1.852556	-0.294223	99
Es	1.215368	-0.664307	0.624310	99
Es	1.675016	-1.128869	1.162706	99
Es	-0.010899	1.251673	0.128412	99
Es	1.919177	-1.130196	0.727764	99
Es	0.572822	-0.917078	0.296974	99
Es	0.082942	-1.669845	-0.505827	99
Es	1.623206	1.019558	0.919062	99
Es	-2.153260	0.409267	-0.734582	99
41
Properties=species:S:1:pos:R:3:Z:I:1 energy=-359.86742072342224 field_type=dipole dipole="0.000000 0.000000 0.000000" charge=0
O	-2.045716	0.139619	-0.592055	8
C	-0.628496	0.107389	-0.668895	6
C	-0.011066	1.251769	0.128375	6
N	1.222114	0.711319	0.611515	7
C	1.215414	-0.664471	0.624345	6
O	2.090864	-1.363672	1.103305	8
C	-0.061596	-1.148981	-0.009735	6
H	-2.384976	-0.631691	-1.079585	1
H	-0.322486	0.164869	-1.720055	1
H	-0.627956	1.548309	0.983305	1
H	0.186694	2.132088	-0.489365	1
H	1.943094	1.226639	1.099445	1
H	0.150264	-1.923052	-0.752115	1
H	-0.726156	-1.550131	0.761515	1
Es	1.215368	-0.664308	0.624309	99
Es	-2.202867	-0.282315	-0.857578	99
Es	-2.097639	0.075215	-0.313826	99
Es	-2.153398	0.409845	-0.734762	99
Es	-0.010899	1.251674	0.128412	99
Es	1.918448	-1.130158	0.728021	99
Es	1.675151	-1.128289	1.164690	99
Es	-0.439173	1.447927	0.705638	99
Es	1.328076	0.554921	0.395906	99
Es	0.696538	0.965583	0.427238	99
Es	-0.329603	0.697321	-0.270353	99
Es	2.300467	-1.179870	1.214079	99
Es	1.170284	0.153458	0.734016	99
Es	0.572648	-0.917031	0.297071	99
Es	-0.628711	0.107396	-0.668827	99
Es	1.622868	1.019226	0.919534	99
Es	-2.045534	0.139378	-0.592256	99
Es	-1.509609	0.106387	-0.633962	99
Es	1.221785	0.711078	0.612038	99
Es	-0.492792	-1.401549	0.507680	99
Es	0.120528	1.852522	-0.294164	99
Es	2.090621	-1.363499	1.103173	99
Es	-0.355631	-0.539957	-0.342506	99
Es	-0.061555	-1.148938	-0.009728	99
Es	-0.409585	0.144776	-1.388076	99
Es	2.050022	-1.679334	1.073834	99
Es	0.083028	-1.670249	-0.505650	99
41
Properties=species:S:1:pos:R:3:Z:I:1 energy=-359.86742072342224 field_type=dipole dipole="0.000000 0.000000 0.000000" charge=0
O	-2.045716	0.139619	-0.592055	8
C	-0.628496	0.107389	-0.668895	6
C	-0.011066	1.251769	0.128375	6
N	1.222114	0.711319	0.611515	7
C	1.215414	-0.664471	0.624345	6
O	2.090864	-1.363672	1.103305	8
C	-0.061596	-1.148981	-0.009735	6
H	-2.384976	-0.631691	-1.079585	1
H	-0.322486	0.164869	-1.720055	1
H	-0.627956	1.548309	0.983305	1
H	0.186694	2.132088	-0.489365	1
H	1.943094	1.226639	1.099445	1
H	0.150264	-1.923052	-0.752115	1
H	-0.726156	-1.550131	0.761515	1
Es	1.221787	0.711097	0.612028	99
Es	2.090619	-1.363410	1.103168	99
Es	0.572526	-0.917029	0.297258	99
Es	1.916947	-1.132438	0.728197	99
Es	-2.154073	0.411598	-0.733352	99
Es	-0.492630	-1.401574	0.507486	99
Es	-1.509381	0.105690	-0.631961	99
Es	-2.097141	0.074338	-0.317060	99
Es	2.053108	-1.680608	1.077000	99
Es	1.329714	0.553496	0.394382	99
Es	-0.628710	0.107396	-0.668829	99
Es	1.215368	-0.664307	0.624310	99
Es	2.298710	-1.177358	1.210372	99
Es	1.675382	-1.127331	1.164997	99
Es	-0.439190	1.447969	0.705701	99
Es	-0.355795	-0.539925	-0.342441	99
Es	0.083151	-1.670293	-0.505679	99
Es	1.622137	1.019049	0.920178	99
Es	1.169027	0.154879	0.735838	99
Es	-0.409654	0.144689	-1.388000	99
Es	-0.329570	0.697473	-0.270425	99
Es	-0.010900	1.251674	0.128412	99
Es	-2.045535	0.139415	-0.592247	99
Es	-2.202890	-0.282519	-0.857775	99
Es	0.696916	0.965750	0.426259	99
Es	0.120464	1.852429	-0.294132	99
Es	-0.061550	-1.148939	-0.009730	99
41
Properties=species:S:1:pos:R:3:Z:I:1 energy=-359.86742072342224 field_type=dipole dipole="0.000000 0.000000 0.000000" charge=0
O	-2.045716	0.139619	-0.592055	8
C	-0.628496	0.107389	-0.668895	6
C	-0.011066	1.251769	0.128375	6
N	1.222114	0.711319	0.611515	7
C	1.215414	-0.664471	0.624345	6
O	2.090864	-1.363672	1.103305	8
C	-0.061596	-1.148981	-0.009735	6
H	-2.384976	-0.631691	-1.079585	1
H	-0.322486	0.164869	-1.720055	1
H	-0.627956	1.548309	0.983305	1
H	0.186694	2.132088	-0.489365	1
H	1.943094	1.226639	1.099445	1
H	0.150264	-1.923052	-0.752115	1
H	-0.726156	-1.550131	0.761515	1
Es	1.215369	-0.664307	0.624308	99
Es	1.675059	-1.127666	1.164690	99
Es	2.056059	-1.681591	1.078412	99
Es	1.221836	0.711152	0.611946	99
Es	-1.508877	0.105433	-0.631529	99
Es	-2.045520	0.139402	-0.592277	99
Es	-0.010900	1.251673	0.128413	99
Es	-2.098565	0.075956	-0.316140	99
Es	-0.355877	-0.539804	-0.342339	99
Es	-0.061555	-1.148938	-0.009727	99
Es	1.622235	1.018808	0.920106	99
Es	-2.202848	-0.282562	-0.857043	99
Es	-0.628711	0.107397	-0.668828	99
Es	2.296473	-1.175339	1.208984	99
Es	-2.153201	0.410268	-0.735397	99
Es	-0.409632	0.144741	-1.388058	99
Es	0.572641	-0.917117	0.297222	99
Es	0.696670	0.965791	0.426963	99
Es	-0.439206	1.447975	0.705621	99
Es	1.170222	0.153447	0.733878	99
Es	0.120444	1.852416	-0.294128	99
Es	1.916575	-1.133050	0.728503	99
Es	-0.329635	0.697464	-0.270398	99
Es	0.082901	-1.670562	-0.505649	99
Es	-0.492310	-1.401307	0.507390	99
Es	1.328575	0.555040	0.395865	99
Es	2.090611	-1.363507	1.103167	99
41
Properties=species:S:1:pos:R:3:Z:I:1 energy=-359.86742072342224 field_type=dipole dipole="0.000000 0.000000 0.000000" charge=0
O	-2.045716	0.139619	-0.592055	8
C	-0.628496	0.107389	-0.668895	6
C	-0.011066	1.251769	0.128375	6
N	1.222114	0.711319	0.611515	7
C	1.215414	-0.664471	0.624345	6
O	2.090864	-1.363672	1.103305	8
C	-0.061596	-1.148981	-0.009735	6
H	-2.384976	-0.631691	-1.079585	1
H	-0.322486	0.164869	-1.720055	1
H	-0.627956	1.548309	0.983305	1
H	0.186694	2.132088	-0.489365	1
H	1.943094	1.226639	1.099445	1
H	0.150264	-1.923052	-0.752115	1
H	-0.726156	-1.550131	0.761515	1
Es	-0.010900	1.251674	0.128413	99
Es	1.169988	0.153691	0.733957	99
Es	-0.439204	1.448158	0.705649	99
Es	-2.154064	0.412640	-0.732843	99
Es	0.696843	0.965823	0.426343	99
Es	0.082976	-1.670511	-0.505752	99
Es	-0.409732	0.144801	-1.387809	99
Es	1.221847	0.711163	0.611928	99
Es	2.055126	-1.681870	1.075719	99
Es	2.295943	-1.177257	1.211242	99
Es	2.090585	-1.363462	1.103157	99
Es	1.328737	0.554753	0.396102	99
Es	-2.045525	0.139346	-0.592214	99
Es	0.120467	1.852247	-0.294180	99
Es	1.918596	-1.130882	0.729428	99
Es	-0.061551	-1.148939	-0.009730	99
Es	1.674537	-1.127692	1.164163	99
Es	-0.628708	0.107397	-0.668830	99
Es	-0.329629	0.697521	-0.270455	99
Es	-2.202640	-0.280614	-0.858519	99
Es	-0.355876	-0.539972	-0.342326	99
Es	1.215368	-0.664308	0.624311	99
Es	0.572582	-0.917074	0.297302	99
Es	-0.492266	-1.401394	0.507309	99
Es	-1.509217	0.104456	-0.631850	99
Es	1.622166	1.018787	0.920434	99
Es	-2.097613	0.072729	-0.316996	99
41
Properties=species:S:1:pos:R:3:Z:I:1 energy=-359.86742072342224 field_type=dipole dipole="0.000000 0.000000 0.000000" charge=0
O	-2.045716	0.139619	-0.592055	8
C	-0.628496	0.107389	-0.668895	6
C	-0.011066	1.251769	0.128375	6
N	1.222114	0.711319	0.611515	7
C	1.215414	-0.664471	0.624345	6
O	2.090864	-1.363672	1.103305	8
C	-0.061596	-1.148981	-0.009735	6
H	-2.384976	-0.631691	-1.079585	1
H	-0.322486	0.164869	-1.720055	1
H	-0.627956	1.548309	0.983305	1
H	0.186694	2.132088	-0.489365	1
H	1.943094	1.226639	1.099445	1
H	0.150264	-1.923052	-0.752115	1
H	-0.726156	-1.550131	0.761515	1
Es	1.621517	1.018176	0.921348	99
Es	-2.045500	0.139391	-0.592258	99
Es	-2.202340	-0.282059	-0.856126	99
Es	-2.098585	0.075832	-0.315281	99
Es	2.052362	-1.680802	1.074902	99
Es	-0.492319	-1.401459	0.507670	99
Es	-0.329563	0.697477	-0.270407	99
Es	-0.010898	1.251674	0.128411	99
Es	0.572407	-0.917118	0.296864	99
Es	1.221856	0.711164	0.611899	99
Es	-2.153777	0.410173	-0.736353	99
Es	1.325027	0.561026	0.402862	99
Es	-0.628708	0.107396	-0.668828	99
Es	0.120404	1.852223	-0.294236	99
Es	-0.061551	-1.148939	-0.009730	99
Es	-1.508858	0.105264	-0.632350	99
Es	0.696462	0.965702	0.426745	99
Es	-0.355813	-0.539707	-0.342193	99
Es	2.090590	-1.363485	1.103152	99
Es	0.083126	-1.670455	-0.505706	99
Es	-0.439412	1.448053	0.705703	99
Es	-0.409545	0.144833	-1.388112	99
Es	2.298591	-1.179634	1.210049	99
Es	1.215368	-0.664307	0.624309	99
Es	1.676090	-1.126984	1.167166	99
Es	1.917142	-1.130251	0.728571	99
Es	1.174767	0.148027	0.725879	99
41
Properties=species:S:1:pos:R:3:Z:I:1 energy=-359.86742072342224 field_type=dipole dipole="0.000000 0.000000 0.000000" charge=0
O	-2.045716	0.139619	-0.592055	8
C	-0.628496	0.107389	-0.668895	6
C	-0.011066	1.251769	0.128375	6
N	1.222114	0.711319	0.611515	7
C	1.215414	-0.664471	0.624345	6
O	2.090864	-1.363672	1.103305	8
C	-0.061596	-1.148981	-0.009735	6
H	-2.384976	-0.631691	-1.079585	1
H	-0.322486	0.164869	-1.720055	1
H	-0.627956	1.548309	0.983305	1
H	0.186694	2.132088	-0.489365	1
H	1.943094	1.226639	1.099445	1
H	0.150264	-1.923052	-0.752115	1
H	-0.726156	-1.550131	0.761515	1
Es	1.221832	0.711153	0.611956	99
Es	0.696568	0.965868	0.426431	99
Es	-0.628707	0.107397	-0.668828	99
Es	1.172654	0.150606	0.729681	99
Es	1.621358	1.018125	0.921145	99
Es	-0.409649	0.144867	-1.387967	99
Es	1.215367	-0.664307	0.624311	99
Es	0.083126	-1.670732	-0.505693	99
Es	-1.509015	0.105112	-0.632090	99
Es	-0.492148	-1.401222	0.507464	99
Es	-2.045526	0.139385	-0.592280	99
Es	2.054691	-1.680943	1.075092	99
Es	2.090598	-1.363481	1.103146	99
Es	-0.355868	-0.539842	-0.342330	99
Es	-0.010899	1.251674	0.128412	99
Es	-2.096531	0.073189	-0.318106	99
Es	-0.439440	1.448007	0.705707	99
Es	0.120465	1.852259	-0.294075	99
Es	1.675036	-1.128234	1.166464	99
Es	0.572360	-0.917028	0.297076	99
Es	-2.155544	0.412628	-0.732963	99
Es	1.917486	-1.130289	0.728604	99
Es	-2.202426	-0.281734	-0.856951	99
Es	-0.329515	0.697632	-0.270543	99
Es	1.327176	0.558327	0.399549	99
Es	-0.061552	-1.148939	-0.009730	99
Es	2.296941	-1.178267	1.210471	99
41
Properties=species:S:1:pos:R:3:Z:I:1 energy=-359.86742072342224 field_type=dipole dipole="0.000000 0.000000 0.000000" charge=0
O	-2.045716	0.139619	-0.592055	8
C	-0.628496	0.107389	-0.668895	6
C	-0.011066	1.251769	0.128375	6
N	1.222114	0.711319	0.611515	7
C	1.215414	-0.664471	0.624345	6
O	2.090864	-1.363672	1.103305	8
C	-0.061596	-1.148981	-0.009735	6
H	-2.384976	-0.631691	-1.079585	1
H	-0.322486	0.164869	-1.720055	1
H	-0.627956	1.548309	0.983305	1
H	0.186694	2.132088	-0.489365	1
H	1.943094	1.226639	1.099445	1
H	0.150264	-1.923052	-0.752115	1
H	-0.726156	-1.550131	0.761515	1
Es	0.120378	1.852265	-0.294257	99
Es	-2.156615	0.413516	-0.731236	99
Es	1.215367	-0.664308	0.624312	99
Es	-0.628709	0.107396	-0.668828	99
Es	-2.095257	0.071444	-0.318022	99
Es	-0.355958	-0.539728	-0.342287	99
Es	2.052752	-1.680514	1.073475	99
Es	-1.509506	0.105512	-0.633319	99
Es	1.326319	0.560288	0.401044	99
Es	-0.409591	0.144845	-1.387997	99
Es	0.083286	-1.670569	-0.505607	99
Es	1.920220	-1.129270	0.728752	99
Es	-0.329518	0.697615	-0.270427	99
Es	2.090642	-1.363308	1.103181	99
Es	-2.045522	0.139385	-0.592267	99
Es	1.674107	-1.128121	1.164479	99
Es	0.572282	-0.917029	0.297115	99
Es	1.174079	0.148965	0.727235	99
Es	-0.061552	-1.148939	-0.009730	99
Es	1.221920	0.711247	0.611798	99
Es	1.620928	1.017833	0.921667	99
Es	2.297079	-1.179990	1.213826	99
Es	-0.492136	-1.401425	0.507443	99
Es	-0.439428	1.447996	0.705733	99
Es	-0.010899	1.251673	0.128413	99
Es	0.696366	0.965668	0.426994	99
Es	-2.202201	-0.281237	-0.857536	99
41
Properties=species:S:1:pos:R:3:Z:I:1 energy=-359.86742072342224 field_type=dipole dipole="0.000000 0.000000 0.000000" charge=0
O	-2.045716	0.139619	-0.592055	8
C	-0.628496	0.107389	-0.668895	6
C	-0.011066	1.251769	0.128375	6
N	1.222114	0.711319	0.611515	7
C	1.215414	-0.664471	0.624345	6
O	2.090864	-1.363672	1.103305	8
C	-0.061596	-1.148981	-0.009735	6
H	-2.384976	-0.631691	-1.079585	1
H	-0.322486	0.164869	-1.720055	1
H	-0.627956	1.548309	0.983305	1
H	0.186694	2.132088	-0.489365	1
H	1.943094	1.226639	1.099445	1
H	0.150264	-1.923052	-0.752115	1
H	-0.726156	-1.550131	0.761515	1
Es	-0.329532	0.697681	-0.270430	99
Es	1.919431	-1.129928	0.729135	99
Es	1.215372	-0.664310	0.624307	99
Es	-0.409659	0.144849	-1.387958	99
Es	1.327027	0.560284	0.400268	99
Es	0.572328	-0.917104	0.297250	99
Es	2.090614	-1.363466	1.103167	99
Es	-1.509155	0.105405	-0.632472	99
Es	1.173738	0.149289	0.727462	99
Es	-2.156568	0.413403	-0.731549	99
Es	0.120412	1.852239	-0.294290	99
Es	2.295982	-1.178486	1.212117	99
Es	1.620602	1.017719	0.922138	99
Es	-2.201988	-0.281153	-0.857561	99
Es	1.221756	0.711035	0.612085	99
Es	-0.010899	1.251674	0.128412	99
Es	1.674052	-1.128050	1.164828	99
Es	0.083130	-1.670711	-0.505569	99
Es	-2.095811	0.071562	-0.318501	99
Es	-0.439442	1.448044	0.705641	99
Es	0.696476	0.965624	0.426849	99
Es	-0.355890	-0.539739	-0.342319	99
Es	-0.492079	-1.401250	0.507342	99
Es	2.054735	-1.681269	1.074446	99
Es	-0.628709	0.107397	-0.668828	99
Es	-2.045537	0.139412	-0.592284	99
Es	-0.061552	-1.148940	-0.009730	99
41
Properties=species:S:1:pos:R:3:Z:I:1 energy=-359.86742072342224 field_type=dipole dipole="0.000000 0.000000 0.000000" charge=0
O	-2.045716	0.139619	-0.592055	8
C	-0.628496	0.107389	-0.668895	6
C	-0.011066	1.251769	0.128375	6
N	1.222114	0.711319	0.611515	7
C	1.215414	-0.664471	0.624345	6
O	2.090864	-1.363672	1.103305	8
C	-0.061596	-1.148981	-0.009735	6
H	-2.384976	-0.631691	-1.079585	1
H	-0.322486	0.164869	-1.720055	1
H	-0.627956	1.548309	0.983305	1
H	0.186694	2.132088	-0.489365	1
H	1.943094	1.226639	1.099445	1
H	0.150264	-1.923052	-0.752115	1
H	-0.726156	-1.550131	0.761515	1
Es	1.176129	0.146778	0.723916	99
Es	-2.098138	0.073705	-0.316806	99
Es	-0.439565	1.448292	0.705766	99
Es	-2.154464	0.412057	-0.734611	99
Es	-0.061551	-1.148939	-0.009730	99
Es	2.057677	-1.681615	1.076193	99
Es	2.090576	-1.363517	1.103148	99
Es	0.696099	0.965585	0.427308	99
Es	1.917868	-1.130224	0.728390	99
Es	1.324322	0.562703	0.403995	99
Es	0.083035	-1.670564	-0.505608	99
Es	-0.628707	0.107397	-0.668829	99
Es	1.674530	-1.128592	1.166482	99
Es	1.621256	1.017889	0.921480	99
Es	-0.492112	-1.401360	0.507300	99
Es	-0.329536	0.697519	-0.270483	99
Es	0.120538	1.851967	-0.294254	99
Es	1.221753	0.711029	0.612090	99
Es	-2.201861	-0.281101	-0.857301	99
Es	2.294166	-1.177238	1.209565	99
Es	-2.045477	0.139266	-0.592115	99
Es	-0.355943	-0.539774	-0.342278	99
Es	0.572518	-0.917059	0.297155	99
Es	-1.509158	0.104685	-0.631532	99
Es	1.215367	-0.664307	0.624311	99
Es	-0.010899	1.251674	0.128412	99
Es	-0.409587	0.144954	-1.388008	99
41
Properties=species:S:1:pos:R:3:Z:I:1 energy=-359.86742072342224 field_type=dipole dipole="0.000000 0.000000 0.000000" charge=0
O	-2.045716	0.139619	-0.592055	8
C	-0.628496	0.107389	-0.668895	6
C	-0.011066	1.251769	0.128375	6
N	1.222114	0.711319	0.611515	7
C	1.215414	-0.664471	0.624345	6
O	2.090864	-1.363672	1.103305	8
C	-0.061596	-1.148981	-0.009735	6
H	-2.384976	-0.631691	-1.079585	1
H	-0.322486	0.164869	-1.720055	1
H	-0.627956	1.548309	0.983305	1
H	0.186694	2.132088	-0.489365	1
H	1.943094	1.226639	1.099445	1
H	0.150264	-1.923052	-0.752115	1
H	-0.726156	-1.550131	0.761515	1
Es	2.090576	-1.363494	1.103142	99
Es	1.172379	0.151066	0.729952	99
Es	-0.409705	0.144841	-1.387862	99
Es	1.328367	0.558528	0.398437	99
Es	0.083122	-1.670751	-0.505646	99
Es	-2.045518	0.139389	-0.592270	99
Es	-0.329549	0.697716	-0.270543	99
Es	-0.061552	-1.148939	-0.009730	99
Es	-0.491818	-1.401268	0.507100	99
Es	1.918516	-1.130237	0.729528	99
Es	0.696626	0.965852	0.426289	99
Es	2.057264	-1.682243	1.075573	99
Es	-0.356109	-0.539764	-0.342164	99
Es	-1.509224	0.104602	-0.630974	99
Es	-2.156336	0.414806	-0.730017	99
Es	0.572362	-0.917104	0.297326	99
Es	1.215368	-0.664307	0.624311	99
Es	-2.095683	0.070673	-0.320540	99
Es	-0.439399	1.448071	0.705716	99
Es	0.120360	1.852184	-0.294213	99
Es	-2.202328	-0.280826	-0.858578	99
Es	1.674314	-1.127999	1.165403	99
Es	-0.010900	1.251674	0.128413	99
Es	-0.628707	0.107397	-0.668828	99
Es	1.221696	0.710855	0.612161	99
Es	2.294172	-1.177207	1.210053	99
Es	1.620542	1.017697	0.921914	99
41
Properties=species:S:1:pos:R:3:Z:I:1 energy=-359.86742072342224 field_type=dipole dipole="0.000000 0.000000 0.000000" charge=0
O	-2.045716	0.139619	-0.592055	8
C	-0.628496	0.107389	-0.668895	6
C	-0.011066	1.251769	0.128375	6
N	1.222114	0.711319	0.611515	7
C	1.215414	-0.664471	0.624345	6
O	2.090864	-1.363672	1.103305	8
C	-0.061596	-1.148981	-0.009735	6
H	-2.384976	-0.631691	-1.079585	1
H	-0.322486	0.164869	-1.720055	1
H	-0.627956	1.548309	0.983305	1
H	0.186694	2.132088	-0.489365	1
H	1.943094	1.226639	1.099445	1
H	0.150264	-1.923052	-0.752115	1
H	-0.726156	-1.550131	0.761515	1
Es	1.326129	0.561883	0.402184	99
Es	1.215366	-0.664308	0.624310	99
Es	-2.201894	-0.280645	-0.857738	99
Es	-1.508785	0.105189	-0.632149	99
Es	1.673890	-1.127548	1.165201	99
Es	1.620153	1.017611	0.922370	99
Es	-2.045550	0.139370	-0.592204	99
Es	-0.061551	-1.148939	-0.009730	99
Es	2.294299	-1.176912	1.209671	99
Es	1.918704	-1.131290	0.729244	99
Es	0.120307	1.852160	-0.294265	99
Es	-0.329636	0.697611	-0.270405	99
Es	-0.439387	1.448089	0.705705	99
Es	-2.156461	0.413258	-0.731710	99
Es	0.696447	0.965585	0.426669	99
Es	-0.409647	0.144923	-1.388000	99
Es	1.221791	0.711117	0.612031	99
Es	-0.628707	0.107396	-0.668828	99
Es	1.175117	0.147772	0.725457	99
Es	2.057350	-1.681949	1.076473	99
Es	-0.356023	-0.539716	-0.342191	99
Es	-0.491881	-1.401229	0.507255	99
Es	2.090621	-1.363452	1.103170	99
Es	0.572343	-0.917139	0.297192	99
Es	0.083093	-1.670762	-0.505621	99
Es	-0.010899	1.251674	0.128413	99
Es	-2.096355	0.071465	-0.318548	99
41
Properties=species:S:1:pos:R:3:Z:I:1 energy=-359.86742072342224 field_type=dipole dipole="0.000000 0.000000 0.000000" charge=0
O	-2.045716	0.139619	-0.592055	8
C	-0.628496	0.107389	-0.668895	6
C	-0.011066	1.251769	0.128375	6
N	1.222114	0.711319	0.611515	7
C	1.215414	-0.664471	0.624345	6
O	2.090864	-1.363672	1.103305	8
C	-0.061596	-1.148981	-0.009735	6
H	-2.384976	-0.631691	-1.079585	1
H	-0.322486	0.164869	-1.720055	1
H	-0.627956	1.548309	0.983305	1
H	0.186694	2.132088	-0.489365	1
H	1.943094	1.226639	1.099445	1
H	0.150264	-1.923052	-0.752115	1
H	-0.726156	-1.550131	0.761515	1
Es	-0.409566	0.144947	-1.388020	99
Es	0.696267	0.965636	0.426824	99
Es	1.620648	1.017521	0.922151	99
Es	-0.010899	1.251674	0.128413	99
Es	1.324271	0.563485	0.404893	99
Es	0.120358	1.852031	-0.294312	99
Es	2.294654	-1.178885	1.211436	99
Es	-0.628707	0.107396	-0.668828	99
Es	2.090600	-1.363473	1.103158	99
Es	2.055527	-1.681580	1.075062	99
Es	-0.329519	0.697568	-0.270424	99
Es	0.572205	-0.917121	0.297108	99
Es	-0.439527	1.448168	0.705795	99
Es	1.215367	-0.664308	0.624314	99
Es	-0.061552	-1.148939	-0.009730	99
Es	1.221801	0.711107	0.612010	99
Es	-2.045509	0.139361	-0.592264	99
Es	0.083266	-1.670653	-0.505574	99
Es	-1.508946	0.104862	-0.631475	99
Es	-2.097677	0.072660	-0.317491	99
Es	-0.491846	-1.401381	0.507365	99
Es	1.673633	-1.127110	1.164968	99
Es	-2.201851	-0.280709	-0.857677	99
Es	-0.356136	-0.539616	-0.342187	99
Es	1.920457	-1.130155	0.729083	99
Es	-2.155113	0.412574	-0.733446	99
Es	1.176628	0.146148	0.722803	99
41
Properties=species:S:1:pos:R:3:Z:I:1 energy=-359.86742072342224 field_type=dipole dipole="0.000000 0.000000 0.000000" charge=0
O	-2.045716	0.139619	-0.592055	8
C	-0.628496	0.107389	-0.668895	6
C	-0.011066	1.251769	0.128375	6
N	1.222114	0.711319	0.611515	7
C	1.215414	-0.664471	0.624345	6
O	2.090864	-1.363672	1.103305	8
C	-0.061596	-1.148981	-0.009735	6
H	-2.384976	-0.631691	-1.079585	1
H	-0.322486	0.164869	-1.720055	1
H	-0.627956	1.548309	0.983305	1
H	0.186694	2.132088	-0.489365	1
H	1.943094	1.226639	1.099445	1
H	0.150264	-1.923052	-0.752115	1
H	-0.726156	-1.550131	0.761515	1
Es	1.325450	0.561724	0.403066	99
Es	2.293857	-1.177399	1.209647	99
Es	1.221857	0.711200	0.611913	99
Es	-0.491793	-1.401138	0.507088	99
Es	-1.509299	0.104963	-0.632192	99
Es	1.215367	-0.664308	0.624312	99
Es	-0.010899	1.251674	0.128413	99
Es	0.696299	0.965872	0.426733	99
Es	-2.045520	0.139386	-0.592249	99
Es	2.057557	-1.681947	1.076150	99
Es	-0.329544	0.697701	-0.270580	99
Es	-2.201759	-0.280680	-0.857763	99
Es	-0.628708	0.107396	-0.668828	99
Es	-0.439523	1.448189	0.705722	99
Es	-0.356089	-0.539607	-0.342196	99
Es	0.120377	1.852001	-0.294172	99
Es	1.674025	-1.127660	1.165757	99
Es	1.918823	-1.130670	0.729011	99
Es	1.175345	0.147765	0.724958	99
Es	-0.061552	-1.148939	-0.009730	99
Es	-0.409639	0.144856	-1.388008	99
Es	-2.096102	0.071182	-0.318384	99
Es	0.083139	-1.670884	-0.505553	99
Es	-2.156381	0.413820	-0.731750	99
Es	1.620694	1.017378	0.922062	99
Es	2.090617	-1.363477	1.103170	99
Es	0.572237	-0.917188	0.297356	99
41
Properties=species:S:1:pos:R:3:Z:I:1 energy=-359.86742072342224 field_type=dipole dipole="0.000000 0.000000 0.000000" charge=0
O	-2.045716	0.139619	-0.592055	8
C	-0.628496	0.107389	-0.668895	6
C	-0.011066	1.251769	0.128375	6
N	1.222114	0.711319	0.611515	7
C	1.215414	-0.664471	0.624345	6
O	2.090864	-1.363672	1.103305	8
C	-0.061596	-1.148981	-0.009735	6
H	-2.384976	-0.631691	-1.079585	1
H	-0.322486	0.164869	-1.720055	1
H	-0.627956	1.548309	0.983305	1
H	0.186694	2.132088	-0.489365	1
H	1.943094	1.226639	1.099445	1
H	0.150264	-1.923052	-0.752115	1
H	-0.726156	-1.550131	0.761515	1
Es	-0.010900	1.251674	0.128413	99
Es	1.175772	0.147005	0.723819	99
Es	1.917190	-1.129533	0.728881	99
Es	1.215366	-0.664308	0.624314	99
Es	-0.409626	0.144935	-1.387946	99
Es	-0.491940	-1.401181	0.507101	99
Es	-0.329490	0.697704	-0.270506	99
Es	1.221757	0.711029	0.612088	99
Es	-2.045519	0.139372	-0.592233	99
Es	-0.355873	-0.539619	-0.342213	99
Es	1.675081	-1.128709	1.167355	99
Es	2.057648	-1.681846	1.075288	99
Es	-1.509091	0.104549	-0.631768	99
Es	-2.096210	0.070354	-0.319086	99
Es	-2.201950	-0.279939	-0.858531	99
Es	0.083219	-1.670829	-0.505601	99
Es	0.696407	0.965909	0.426704	99
Es	2.090561	-1.363534	1.103140	99
Es	-0.628708	0.107396	-0.668828	99
Es	2.294387	-1.177552	1.209074	99
Es	-2.156352	0.414319	-0.730730	99
Es	-0.061552	-1.148939	-0.009730	99
Es	0.120379	1.852019	-0.294303	99
Es	-0.439592	1.448158	0.705747	99
Es	0.572196	-0.917187	0.297398	99
Es	1.325236	0.562763	0.403668	99
Es	1.620442	1.017198	0.922439	99
41
Properties=species:S:1:pos:R:3:Z:I:1 energy=-359.86742072342224 field_type=dipole dipole="0.000000 0.000000 0.000000" charge=0
O	-2.045716	0.139619	-0.592055	8
C	-0.628496	0.107389	-0.668895	6
C	-0.011066	1.251769	0.128375	6
N	1.222114	0.711319	0.611515	7
C	1.215414	-0.664471	0.624345	6
O	2.090864	-1.363672	1.103305	8
C	-0.061596	-1.148981	-0.009735	6
H	-2.384976	-0.631691	-1.079585	1
H	-0.322486	0.164869	-1.720055	1
H	-0.627956	1.548309	0.983305	1
H	0.186694	2.132088	-0.489365	1
H	1.943094	1.226639	1.099445	1
H	0.150264	-1.923052	-0.752115	1
H	-0.726156	-1.550131	0.761515	1
Es	-0.439581	1.448254	0.705713	99
Es	0.572359	-0.917201	0.297074	99
Es	0.083011	-1.670814	-0.505505	99
Es	-0.061552	-1.148939	-0.009730	99
Es	1.918654	-1.130670	0.729324	99
Es	-2.202004	-0.280733	-0.857862	99
Es	-0.329571	0.697569	-0.270493	99
Es	2.090520	-1.363527	1.103128	99
Es	-0.409585	0.144993	-1.387943	99
Es	-0.628709	0.107397	-0.668827	99
Es	1.325648	0.563096	0.403209	99
Es	1.176108	0.146960	0.723565	99
Es	-2.096839	0.071844	-0.319309	99
Es	-2.045497	0.139356	-0.592250	99
Es	-2.155821	0.413712	-0.731968	99
Es	-0.491762	-1.401168	0.507300	99
Es	0.696179	0.965669	0.427042	99
Es	-0.356009	-0.539653	-0.342187	99
Es	-1.508961	0.104503	-0.631003	99
Es	1.619945	1.017118	0.922871	99
Es	2.058498	-1.682254	1.076411	99
Es	1.221779	0.711102	0.612044	99
Es	-0.010901	1.251672	0.128419	99
Es	2.293160	-1.177064	1.209044	99
Es	0.120395	1.851948	-0.294343	99
Es	1.215367	-0.664307	0.624311	99
Es	1.674002	-1.127652	1.165919	99
41
Properties=species:S:1:pos:R:3:Z:I:1 energy=-359.86742072342224 field_type=dipole dipole="0.000000 0.000000 0.000000" charge=0
O	-2.045716	0.139619	-0.592055	8
C	-0.628496	0.107389	-0.668895	6
C	-0.011066	1.251769	0.128375	6
N	1.222114	0.711319	0.611515	7
C	1.215414	-0.664471	0.624345	6
O	2.090864	-1.363672	1.103305	8
C	-0.061596	-1.148981	-0.009735	6
H	-2.384976	-0.631691	-1.079585	1
H	-0.322486	0.164869	-1.720055	1
H	-0.627956	1.548309	0.983305	1
H	0.186694	2.132088	-0.489365	1
H	1.943094	1.226639	1.099445	1
H	0.150264	-1.923052	-0.752115	1
H	-0.726156	-1.550131	0.761515	1
Es	-2.045542	0.139426	-0.592187	99
Es	1.620270	1.017249	0.922761	99
Es	2.060998	-1.681964	1.076590	99
Es	-2.098003	0.073618	-0.317044	99
Es	1.215367	-0.664307	0.624312	99
Es	1.178165	0.144707	0.720138	99
Es	-0.439646	1.448143	0.705769	99
Es	1.917357	-1.129991	0.728309	99
Es	1.674010	-1.130013	1.166842	99
Es	-0.329433	0.697751	-0.270431	99
Es	2.090627	-1.363498	1.103176	99
Es	-1.508770	0.104655	-0.631642	99
Es	0.120323	1.851975	-0.294298	99
Es	-0.628710	0.107398	-0.668828	99
Es	0.572228	-0.917106	0.297071	99
Es	0.083203	-1.670737	-0.505572	99
Es	0.696115	0.965471	0.426970	99
Es	-0.356108	-0.539674	-0.342257	99
Es	-0.061551	-1.148939	-0.009730	99
Es	1.221803	0.711106	0.611994	99
Es	-0.491764	-1.401293	0.507333	99
Es	1.323335	0.565314	0.406913	99
Es	-0.010898	1.251673	0.128413	99
Es	-2.201891	-0.280950	-0.856734	99
Es	-0.409623	0.144991	-1.387930	99
Es	2.291893	-1.175724	1.208765	99
Es	-2.154919	0.411930	-0.734748	99
41
Properties=species:S:1:pos:R:3:Z:I:1 energy=-359.86742072342224 field_type=dipole dipole="0.000000 0.000000 0.000000" charge=0
O	-2.045716	0.139619	-0.592055	8
C	-0.628496	0.107389	-0.668895	6
C	-0.011066	1.251769	0.128375	6
N	1.222114	0.711319	0.611515	7
C	1.215414	-0.664471	0.624345	6
O	2.090864	-1.363672	1.103305	8
C	-0.061596	-1.148981	-0.009735	6
H	-2.384976	-0.631691	-1.079585	1
H	-0.322486	0.164869	-1.720055	1
H	-0.627956	1.548309	0.983305	1
H	0.186694	2.132088	-0.489365	1
H	1.943094	1.226639	1.099445	1
H	0.150264	-1.923052	-0.752115	1
H	-0.726156	-1.550131	0.761515	1
Es	-0.628708	0.107397	-0.668827	99
Es	-0.356082	-0.539810	-0.342348	99
Es	-0.491763	-1.401148	0.507060	99
Es	0.083138	-1.670870	-0.505551	99
Es	0.696330	0.965768	0.426978	99
Es	-0.061552	-1.148940	-0.009730	99
Es	1.619686	1.016920	0.923082	99
Es	0.120408	1.851795	-0.294245	99
Es	1.215363	-0.664309	0.624322	99
Es	1.674600	-1.127344	1.165544	99
Es	0.572252	-0.917069	0.297392	99
Es	-0.409701	0.144967	-1.387808	99
Es	-2.096304	0.071137	-0.319572	99
Es	1.175725	0.147207	0.724087	99
Es	2.293333	-1.177112	1.209126	99
Es	-0.439618	1.448369	0.705760	99
Es	-1.509029	0.104920	-0.631265	99
Es	-2.201135	-0.280773	-0.857192	99
Es	1.918636	-1.130761	0.728782	99
Es	-0.010899	1.251674	0.128413	99
Es	-2.157164	0.414033	-0.732093	99
Es	1.221854	0.711165	0.611928	99
Es	2.090614	-1.363498	1.103170	99
Es	-2.045508	0.139381	-0.592236	99
Es	1.326087	0.562829	0.402730	99
Es	-0.329469	0.697737	-0.270557	99
Es	2.057742	-1.682456	1.077003	99
41
Properties=species:S:1:pos:R:3:Z:I:1 energy=-359.86742072342224 field_type=dipole dipole="0.000000 0.000000 0.000000" charge=0
O	-2.045716	0.139619	-0.592055	8
C	-0.628496	0.107389	-0.668895	6
C	-0.011066	1.251769	0.128375	6
N	1.222114	0.711319	0.611515	7
C	1.215414	-0.664471	0.624345	6
O	2.090864	-1.363672	1.103305	8
C	-0.061596	-1.148981	-0.009735	6
H	-2.384976	-0.631691	-1.079585	1
H	-0.322486	0.164869	-1.720055	1
H	-0.627956	1.548309	0.983305	1
H	0.186694	2.132088	-0.489365	1
H	1.943094	1.226639	1.099445	1
H	0.150264	-1.923052	-0.752115	1
H	-0.726156	-1.550131	0.761515	1
Es	-0.061552	-1.148939	-0.009731	99
Es	1.619719	1.016849	0.923134	99
Es	0.120419	1.851868	-0.294344	99
Es	1.215368	-0.664307	0.624310	99
Es	-0.329393	0.697817	-0.270554	99
Es	-0.409654	0.144908	-1.387896	99
Es	-2.201358	-0.280483	-0.857718	99
Es	-0.439743	1.448264	0.705732	99
Es	1.918006	-1.129787	0.728853	99
Es	2.292188	-1.176194	1.209345	99
Es	-0.491988	-1.401315	0.507036	99
Es	0.083252	-1.670684	-0.505654	99
Es	1.221815	0.711141	0.611984	99
Es	-1.509039	0.105280	-0.632072	99
Es	2.059894	-1.682405	1.076227	99
Es	-0.628707	0.107396	-0.668828	99
Es	0.572259	-0.917053	0.297445	99
Es	2.090621	-1.363496	1.103175	99
Es	0.696241	0.965755	0.426754	99
Es	-2.157109	0.413734	-0.731483	99
Es	1.324754	0.564339	0.405221	99
Es	1.674207	-1.129276	1.166098	99
Es	-2.096134	0.070756	-0.318797	99
Es	1.177113	0.145717	0.721742	99
Es	-0.355938	-0.539740	-0.342164	99
Es	-0.010901	1.251673	0.128413	99
Es	-2.045506	0.139395	-0.592276	99
