42
Properties=species:S:1:pos:R:3:Z:I:1 energy=-339.9379305296462 field_type=dipole dipole="0.000000 0.000000 0.000000" charge=0
O	0.150040	-2.705895	-0.509307	8
C	-0.624110	-1.560155	-0.182027	6
C	0.300570	-0.416815	0.053453	6
C	0.671170	0.511785	-1.056647	6
N	-0.234840	0.953505	0.017983	7
C	0.276280	1.832995	0.938223	6
N	-0.389160	2.772385	1.515873	7
H	-0.472060	-3.449105	-0.594907	1
H	-1.198360	-1.772875	0.725103	1
H	-1.321180	-1.364595	-1.003847	1
H	1.021140	-0.619565	0.835803	1
H	0.172680	0.426265	-2.012547	1
H	1.650870	0.969885	-1.060497	1
H	1.345380	1.692785	1.180293	1
H	-1.348420	2.729404	1.153043	1
Es	0.018828	1.318607	0.415871	99
Es	1.335278	0.820684	-1.055584	99
Es	-0.271106	3.014851	1.761882	99
Es	0.340085	0.449932	-1.701412	99
Es	0.149661	-2.705866	-0.509241	99
Es	-0.060583	0.369248	0.180277	99
Es	0.791716	-0.545317	0.581027	99
Es	-0.234212	0.953364	0.018096	99
Es	-0.161251	-2.280436	-0.383870	99
Es	0.671018	0.511839	-1.056418	99
Es	-1.103154	-1.416270	-0.744489	99
Es	-0.962188	2.742171	1.295707	99
Es	-0.623947	-1.560315	-0.182069	99
Es	-0.040800	2.546041	1.052611	99
Es	0.276276	1.832872	0.938118	99
Es	0.325382	-2.764543	-0.263836	99
Es	0.612425	-0.111972	-0.602010	99
Es	-0.578858	0.990580	-0.066508	99
Es	0.300484	-0.416553	0.053386	99
Es	-0.183455	2.187507	1.474661	99
Es	0.165899	0.913101	-0.462905	99
Es	-0.389295	2.772019	1.515516	99
Es	-0.201030	-3.091891	-0.551367	99
Es	-1.020282	-1.700146	0.442826	99
Es	-0.168379	-0.970599	-0.067262	99
Es	0.266133	-2.653827	-0.787733	99
Es	1.011229	1.727033	1.095780	99
42
Properties=species:S:1:pos:R:3:Z:I:1 energy=-339.9379305296462 field_type=dipole dipole="0.000000 0.000000 0.000000" charge=0
O	0.150040	-2.705895	-0.509307	8
C	-0.624110	-1.560155	-0.182027	6
C	0.300570	-0.416815	0.053453	6
C	0.671170	0.511785	-1.056647	6
N	-0.234840	0.953505	0.017983	7
C	0.276280	1.832995	0.938223	6
N	-0.389160	2.772385	1.515873	7
H	-0.472060	-3.449105	-0.594907	1
H	-1.198360	-1.772875	0.725103	1
H	-1.321180	-1.364595	-1.003847	1
H	1.021140	-0.619565	0.835803	1
H	0.172680	0.426265	-2.012547	1
H	1.650870	0.969885	-1.060497	1
H	1.345380	1.692785	1.180293	1
H	-1.348420	2.729404	1.153043	1
Es	-0.234189	0.953360	0.018097	99
Es	1.010673	1.726794	1.095659	99
Es	-0.623945	-1.560318	-0.182075	99
Es	0.614915	-0.115007	-0.602907	99
Es	-0.271164	3.015806	1.761624	99
Es	-0.162227	-2.276106	-0.380672	99
Es	0.280880	-2.658186	-0.787477	99
Es	0.308280	-2.763759	-0.271048	99
Es	-0.197174	-3.093373	-0.548157	99
Es	0.341626	0.449857	-1.700083	99
Es	-0.960250	2.742757	1.296827	99
Es	-0.167804	-0.970848	-0.067848	99
Es	0.015650	1.321195	0.416965	99
Es	0.149699	-2.705875	-0.509260	99
Es	0.300468	-0.416553	0.053395	99
Es	1.333892	0.819695	-1.056319	99
Es	0.276276	1.832871	0.938119	99
Es	-1.101810	-1.416080	-0.743445	99
Es	-0.389302	2.772027	1.515521	99
Es	0.671019	0.511835	-1.056414	99
Es	-0.060796	0.370185	0.181100	99
Es	-0.184423	2.185517	1.475631	99
Es	-0.041671	2.546922	1.050524	99
Es	-0.575385	0.987490	-0.066717	99
Es	0.790607	-0.545335	0.579108	99
Es	0.163291	0.916856	-0.462247	99
Es	-1.021259	-1.699613	0.443150	99
42
Properties=species:S:1:pos:R:3:Z:I:1 energy=-339.9379305296462 field_type=dipole dipole="0.000000 0.000000 0.000000" charge=0
O	0.150040	-2.705895	-0.509307	8
C	-0.624110	-1.560155	-0.182027	6
C	0.300570	-0.416815	0.053453	6
C	0.671170	0.511785	-1.056647	6
N	-0.234840	0.953505	0.017983	7
C	0.276280	1.832995	0.938223	6
N	-0.389160	2.772385	1.515873	7
H	-0.472060	-3.449105	-0.594907	1
H	-1.198360	-1.772875	0.725103	1
H	-1.321180	-1.364595	-1.003847	1
H	1.021140	-0.619565	0.835803	1
H	0.172680	0.426265	-2.012547	1
H	1.650870	0.969885	-1.060497	1
H	1.345380	1.692785	1.180293	1
H	-1.348420	2.729404	1.153043	1
Es	1.010344	1.726674	1.095764	99
Es	-1.100775	-1.415963	-0.742749	99
Es	0.276274	1.832865	0.938123	99
Es	0.292522	-2.660893	-0.785612	99
Es	-0.162628	-2.274270	-0.378181	99
Es	0.012406	1.323537	0.417901	99
Es	-1.021958	-1.699183	0.443346	99
Es	1.332701	0.818914	-1.056778	99
Es	-0.572492	0.985526	-0.068860	99
Es	-0.389293	2.772009	1.515507	99
Es	0.300468	-0.416549	0.053395	99
Es	-0.061717	0.370848	0.182203	99
Es	-0.234175	0.953358	0.018107	99
Es	-0.958947	2.743192	1.297328	99
Es	0.616349	-0.116894	-0.603422	99
Es	0.342598	0.449906	-1.698969	99
Es	-0.623946	-1.560316	-0.182071	99
Es	-0.167370	-0.970768	-0.068511	99
Es	0.789958	-0.545535	0.577961	99
Es	-0.271533	3.016272	1.761208	99
Es	0.163225	0.918219	-0.460822	99
Es	0.149652	-2.705860	-0.509295	99
Es	0.671013	0.511840	-1.056407	99
Es	0.294686	-2.762241	-0.277353	99
Es	-0.184999	2.184213	1.476339	99
Es	-0.042076	2.547639	1.049408	99
Es	-0.194413	-3.094423	-0.546509	99
42
Properties=species:S:1:pos:R:3:Z:I:1 energy=-339.9379305296462 field_type=dipole dipole="0.000000 0.000000 0.000000" charge=0
O	0.150040	-2.705895	-0.509307	8
C	-0.624110	-1.560155	-0.182027	6
C	0.300570	-0.416815	0.053453	6
C	0.671170	0.511785	-1.056647	6
N	-0.234840	0.953505	0.017983	7
C	0.276280	1.832995	0.938223	6
N	-0.389160	2.772385	1.515873	7
H	-0.472060	-3.449105	-0.594907	1
H	-1.198360	-1.772875	0.725103	1
H	-1.321180	-1.364595	-1.003847	1
H	1.021140	-0.619565	0.835803	1
H	0.172680	0.426265	-2.012547	1
H	1.650870	0.969885	-1.060497	1
H	1.345380	1.692785	1.180293	1
H	-1.348420	2.729404	1.153043	1
Es	-1.100261	-1.415849	-0.742309	99
Es	0.276278	1.832875	0.938113	99
Es	-1.022139	-1.698738	0.443634	99
Es	-0.192760	-3.093199	-0.544825	99
Es	0.789505	-0.545650	0.577201	99
Es	-0.167092	-0.970781	-0.068996	99
Es	0.149675	-2.705892	-0.509240	99
Es	0.009246	1.325985	0.418736	99
Es	-0.958287	2.743465	1.297356	99
Es	0.343431	0.450184	-1.698153	99
Es	1.010237	1.726485	1.095873	99
Es	-0.042588	2.547227	1.049202	99
Es	-0.185557	2.183732	1.476641	99
Es	0.162477	0.919982	-0.459468	99
Es	0.617326	-0.118480	-0.603886	99
Es	0.303130	-2.664577	-0.784146	99
Es	0.300470	-0.416550	0.053390	99
Es	-0.234158	0.953354	0.018109	99
Es	-0.623945	-1.560318	-0.182067	99
Es	-0.271213	3.017026	1.760833	99
Es	-0.162755	-2.272989	-0.377287	99
Es	0.282774	-2.761249	-0.281691	99
Es	0.671017	0.511839	-1.056411	99
Es	-0.389286	2.772021	1.515521	99
Es	-0.569948	0.983180	-0.070256	99
Es	-0.061237	0.370802	0.182061	99
Es	1.331535	0.818230	-1.056887	99
42
Properties=species:S:1:pos:R:3:Z:I:1 energy=-339.9379305296462 field_type=dipole dipole="0.000000 0.000000 0.000000" charge=0
O	0.150040	-2.705895	-0.509307	8
C	-0.624110	-1.560155	-0.182027	6
C	0.300570	-0.416815	0.053453	6
C	0.671170	0.511785	-1.056647	6
N	-0.234840	0.953505	0.017983	7
C	0.276280	1.832995	0.938223	6
N	-0.389160	2.772385	1.515873	7
H	-0.472060	-3.449105	-0.594907	1
H	-1.198360	-1.772875	0.725103	1
H	-1.321180	-1.364595	-1.003847	1
H	1.021140	-0.619565	0.835803	1
H	0.172680	0.426265	-2.012547	1
H	1.650870	0.969885	-1.060497	1
H	1.345380	1.692785	1.180293	1
H	-1.348420	2.729404	1.153043	1
Es	-0.389271	2.771981	1.515492	99
Es	0.161507	0.922006	-0.458471	99
Es	-0.042687	2.547529	1.049213	99
Es	0.344045	0.450243	-1.697484	99
Es	-1.022323	-1.698367	0.443891	99
Es	0.618222	-0.119679	-0.604101	99
Es	-0.163307	-2.272602	-0.376187	99
Es	-0.190960	-3.093317	-0.544587	99
Es	0.789274	-0.545714	0.576650	99
Es	0.313316	-2.666612	-0.780700	99
Es	0.300470	-0.416545	0.053394	99
Es	0.671009	0.511838	-1.056407	99
Es	0.276276	1.832869	0.938117	99
Es	-0.234140	0.953348	0.018113	99
Es	-0.185977	2.183254	1.476220	99
Es	-0.568070	0.981223	-0.070896	99
Es	0.271565	-2.759659	-0.286504	99
Es	-0.958000	2.744224	1.297415	99
Es	0.006736	1.327718	0.419214	99
Es	1.010118	1.726310	1.096015	99
Es	-0.166851	-0.970918	-0.069287	99
Es	-0.271021	3.016653	1.760980	99
Es	1.330254	0.817727	-1.057032	99
Es	-0.623947	-1.560317	-0.182067	99
Es	-0.060208	0.370401	0.181519	99
Es	0.149641	-2.705836	-0.509357	99
Es	-1.099798	-1.415643	-0.742100	99
42
Properties=species:S:1:pos:R:3:Z:I:1 energy=-339.9379305296462 field_type=dipole dipole="0.000000 0.000000 0.000000" charge=0
O	0.150040	-2.705895	-0.509307	8
C	-0.624110	-1.560155	-0.182027	6
C	0.300570	-0.416815	0.053453	6
C	0.671170	0.511785	-1.056647	6
N	-0.234840	0.953505	0.017983	7
C	0.276280	1.832995	0.938223	6
N	-0.389160	2.772385	1.515873	7
H	-0.472060	-3.449105	-0.594907	1
H	-1.198360	-1.772875	0.725103	1
H	-1.321180	-1.364595	-1.003847	1
H	1.021140	-0.619565	0.835803	1
H	0.172680	0.426265	-2.012547	1
H	1.650870	0.969885	-1.060497	1
H	1.345380	1.692785	1.180293	1
H	-1.348420	2.729404	1.153043	1
Es	0.618980	-0.120702	-0.604293	99
Es	0.276277	1.832870	0.938115	99
Es	0.322523	-2.668935	-0.776939	99
Es	-0.059171	0.370097	0.180936	99
Es	0.789132	-0.545910	0.576247	99
Es	-0.234133	0.953351	0.018116	99
Es	-0.163774	-2.272253	-0.376277	99
Es	0.160989	0.923561	-0.457197	99
Es	0.262403	-2.759687	-0.288546	99
Es	-0.190329	-3.091387	-0.546188	99
Es	0.344624	0.450349	-1.697082	99
Es	-0.389295	2.772002	1.515501	99
Es	0.671005	0.511837	-1.056400	99
Es	-0.042863	2.547540	1.048968	99
Es	-0.271221	3.017177	1.760767	99
Es	1.329042	0.817392	-1.056945	99
Es	0.149607	-2.705823	-0.509468	99
Es	-1.099274	-1.415505	-0.741919	99
Es	-0.186077	2.183051	1.476490	99
Es	1.010115	1.726146	1.096143	99
Es	-1.022632	-1.698096	0.444042	99
Es	-0.623935	-1.560316	-0.182069	99
Es	-0.166664	-0.970791	-0.069536	99
Es	-0.957608	2.743962	1.297353	99
Es	0.002685	1.330124	0.419989	99
Es	0.300467	-0.416545	0.053393	99
Es	-0.564999	0.978606	-0.072148	99
42
Properties=species:S:1:pos:R:3:Z:I:1 energy=-339.9379305296462 field_type=dipole dipole="0.000000 0.000000 0.000000" charge=0
O	0.150040	-2.705895	-0.509307	8
C	-0.624110	-1.560155	-0.182027	6
C	0.300570	-0.416815	0.053453	6
C	0.671170	0.511785	-1.056647	6
N	-0.234840	0.953505	0.017983	7
C	0.276280	1.832995	0.938223	6
N	-0.389160	2.772385	1.515873	7
H	-0.472060	-3.449105	-0.594907	1
H	-1.198360	-1.772875	0.725103	1
H	-1.321180	-1.364595	-1.003847	1
H	1.021140	-0.619565	0.835803	1
H	0.172680	0.426265	-2.012547	1
H	1.650870	0.969885	-1.060497	1
H	1.345380	1.692785	1.180293	1
H	-1.348420	2.729404	1.153043	1
Es	0.161105	0.924151	-0.456469	99
Es	1.010068	1.726012	1.096289	99
Es	-0.234120	0.953359	0.018123	99
Es	-0.164024	-2.271741	-0.376466	99
Es	-0.186468	2.182924	1.476076	99
Es	-0.270642	3.016956	1.760811	99
Es	-0.957645	2.744640	1.297312	99
Es	0.619358	-0.121379	-0.604437	99
Es	-0.059318	0.369951	0.180874	99
Es	-0.389291	2.772002	1.515502	99
Es	-0.000562	1.331905	0.420298	99
Es	0.251636	-2.756978	-0.294464	99
Es	0.671007	0.511837	-1.056403	99
Es	0.332346	-2.672250	-0.773017	99
Es	0.345143	0.450625	-1.696928	99
Es	0.789273	-0.546287	0.576197	99
Es	0.276277	1.832872	0.938114	99
Es	-0.189067	-3.091306	-0.544181	99
Es	-1.022269	-1.697763	0.444341	99
Es	-0.043007	2.547317	1.049240	99
Es	0.149647	-2.705845	-0.509343	99
Es	1.327889	0.816954	-1.056682	99
Es	-1.099418	-1.415160	-0.742091	99
Es	-0.562057	0.977073	-0.073129	99
Es	0.300471	-0.416551	0.053394	99
Es	-0.623938	-1.560321	-0.182069	99
Es	-0.166518	-0.970881	-0.069838	99
42
Properties=species:S:1:pos:R:3:Z:I:1 energy=-339.9379305296462 field_type=dipole dipole="0.000000 0.000000 0.000000" charge=0
O	0.150040	-2.705895	-0.509307	8
C	-0.624110	-1.560155	-0.182027	6
C	0.300570	-0.416815	0.053453	6
C	0.671170	0.511785	-1.056647	6
N	-0.234840	0.953505	0.017983	7
C	0.276280	1.832995	0.938223	6
N	-0.389160	2.772385	1.515873	7
H	-0.472060	-3.449105	-0.594907	1
H	-1.198360	-1.772875	0.725103	1
H	-1.321180	-1.364595	-1.003847	1
H	1.021140	-0.619565	0.835803	1
H	0.172680	0.426265	-2.012547	1
H	1.650870	0.969885	-1.060497	1
H	1.345380	1.692785	1.180293	1
H	-1.348420	2.729404	1.153043	1
Es	-0.186785	2.183005	1.475987	99
Es	-0.166452	-0.971107	-0.070096	99
Es	-0.269757	3.016643	1.760547	99
Es	-0.389299	2.772030	1.515522	99
Es	-0.560243	0.975239	-0.073346	99
Es	0.159971	0.925703	-0.455299	99
Es	0.334780	-2.674711	-0.773050	99
Es	-0.043227	2.546837	1.049278	99
Es	1.010025	1.725995	1.096292	99
Es	0.149643	-2.705851	-0.509341	99
Es	-0.057640	0.369416	0.179840	99
Es	0.671009	0.511839	-1.056401	99
Es	-0.164123	-2.271612	-0.375997	99
Es	-1.099144	-1.415075	-0.741933	99
Es	-0.958041	2.745316	1.297580	99
Es	0.789123	-0.546224	0.575811	99
Es	1.326942	0.816740	-1.056785	99
Es	0.345386	0.450601	-1.696521	99
Es	-0.234124	0.953346	0.018117	99
Es	-0.003042	1.333414	0.420459	99
Es	-0.188162	-3.089888	-0.542022	99
Es	0.248489	-2.756087	-0.297172	99
Es	0.300466	-0.416551	0.053391	99
Es	-0.623944	-1.560320	-0.182068	99
Es	0.276276	1.832869	0.938115	99
Es	-1.022300	-1.697441	0.444638	99
Es	0.620050	-0.122013	-0.604494	99
42
Properties=species:S:1:pos:R:3:Z:I:1 energy=-339.9379305296462 field_type=dipole dipole="0.000000 0.000000 0.000000" charge=0
O	0.150040	-2.705895	-0.509307	8
C	-0.624110	-1.560155	-0.182027	6
C	0.300570	-0.416815	0.053453	6
C	0.671170	0.511785	-1.056647	6
N	-0.234840	0.953505	0.017983	7
C	0.276280	1.832995	0.938223	6
N	-0.389160	2.772385	1.515873	7
H	-0.472060	-3.449105	-0.594907	1
H	-1.198360	-1.772875	0.725103	1
H	-1.321180	-1.364595	-1.003847	1
H	1.021140	-0.619565	0.835803	1
H	0.172680	0.426265	-2.012547	1
H	1.650870	0.969885	-1.060497	1
H	1.345380	1.692785	1.180293	1
H	-1.348420	2.729404	1.153043	1
Es	-0.234106	0.953348	0.018126	99
Es	-0.164110	-2.272134	-0.373898	99
Es	-0.056124	0.369120	0.178978	99
Es	0.789115	-0.546452	0.575591	99
Es	-0.268795	3.015933	1.760015	99
Es	0.671003	0.511842	-1.056396	99
Es	0.158971	0.926743	-0.454069	99
Es	-1.099062	-1.414946	-0.741903	99
Es	-0.043827	2.546787	1.049428	99
Es	-0.557904	0.973268	-0.073703	99
Es	-0.166362	-0.971013	-0.070270	99
Es	-0.186713	-3.090063	-0.538566	99
Es	-1.022251	-1.697296	0.444661	99
Es	0.300472	-0.416546	0.053396	99
Es	0.620329	-0.122328	-0.604639	99
Es	1.326384	0.816526	-1.056769	99
Es	-0.186545	2.182916	1.475580	99
Es	-0.006270	1.335103	0.420651	99
Es	0.345683	0.450608	-1.696145	99
Es	0.333667	-2.675491	-0.775116	99
Es	1.010155	1.725939	1.096288	99
Es	-0.389288	2.771987	1.515491	99
Es	0.149640	-2.705844	-0.509313	99
Es	-0.958749	2.746205	1.298317	99
Es	0.276275	1.832866	0.938118	99
Es	-0.623941	-1.560319	-0.182070	99
Es	0.248226	-2.754644	-0.300732	99
42
Properties=species:S:1:pos:R:3:Z:I:1 energy=-339.9379305296462 field_type=dipole dipole="0.000000 0.000000 0.000000" charge=0
O	0.150040	-2.705895	-0.509307	8
C	-0.624110	-1.560155	-0.182027	6
C	0.300570	-0.416815	0.053453	6
C	0.671170	0.511785	-1.056647	6
N	-0.234840	0.953505	0.017983	7
C	0.276280	1.832995	0.938223	6
N	-0.389160	2.772385	1.515873	7
H	-0.472060	-3.449105	-0.594907	1
H	-1.198360	-1.772875	0.725103	1
H	-1.321180	-1.364595	-1.003847	1
H	1.021140	-0.619565	0.835803	1
H	0.172680	0.426265	-2.012547	1
H	1.650870	0.969885	-1.060497	1
H	1.345380	1.692785	1.180293	1
H	-1.348420	2.729404	1.153043	1
Es	-0.166263	-0.970887	-0.070361	99
Es	-0.187382	-3.087157	-0.541907	99
Es	0.671007	0.511838	-1.056396	99
Es	-0.389300	2.772012	1.515506	99
Es	0.344033	-2.678547	-0.768923	99
Es	-0.009315	1.336228	0.420921	99
Es	-1.022312	-1.697151	0.444804	99
Es	-0.164164	-2.271492	-0.375231	99
Es	-0.958203	2.745522	1.297734	99
Es	0.276277	1.832868	0.938115	99
Es	-0.043669	2.547082	1.049503	99
Es	-0.186518	2.182858	1.475356	99
Es	-0.269472	3.016496	1.760539	99
Es	-0.234107	0.953349	0.018125	99
Es	-0.055670	0.368827	0.178247	99
Es	1.010096	1.725756	1.096430	99
Es	0.158770	0.927661	-0.453526	99
Es	0.346080	0.451055	-1.696030	99
Es	0.149600	-2.705820	-0.509435	99
Es	-0.623941	-1.560321	-0.182070	99
Es	0.789163	-0.546636	0.575646	99
Es	0.300463	-0.416543	0.053389	99
Es	-0.555240	0.971917	-0.073883	99
Es	0.238706	-2.755136	-0.302157	99
Es	-1.098885	-1.414823	-0.741913	99
Es	1.325255	0.816313	-1.056496	99
Es	0.620864	-0.123155	-0.604935	99
42
Properties=species:S:1:pos:R:3:Z:I:1 energy=-339.9379305296462 field_type=dipole dipole="0.000000 0.000000 0.000000" charge=0
O	0.150040	-2.705895	-0.509307	8
C	-0.624110	-1.560155	-0.182027	6
C	0.300570	-0.416815	0.053453	6
C	0.671170	0.511785	-1.056647	6
N	-0.234840	0.953505	0.017983	7
C	0.276280	1.832995	0.938223	6
N	-0.389160	2.772385	1.515873	7
H	-0.472060	-3.449105	-0.594907	1
H	-1.198360	-1.772875	0.725103	1
H	-1.321180	-1.364595	-1.003847	1
H	1.021140	-0.619565	0.835803	1
H	0.172680	0.426265	-2.012547	1
H	1.650870	0.969885	-1.060497	1
H	1.345380	1.692785	1.180293	1
H	-1.348420	2.729404	1.153043	1
Es	-0.164215	-2.271407	-0.375133	99
Es	0.789102	-0.546661	0.575458	99
Es	-0.389288	2.771991	1.515494	99
Es	-0.166238	-0.971226	-0.070672	99
Es	-0.268996	3.016049	1.760421	99
Es	0.300464	-0.416540	0.053394	99
Es	1.324799	0.816113	-1.056489	99
Es	-0.054802	0.368187	0.177674	99
Es	-1.022128	-1.696872	0.445077	99
Es	0.276276	1.832868	0.938114	99
Es	0.346146	0.450806	-1.696065	99
Es	-1.098867	-1.414656	-0.741948	99
Es	-0.552599	0.970686	-0.074265	99
Es	0.621138	-0.123068	-0.604621	99
Es	0.234042	-2.754603	-0.304687	99
Es	1.010116	1.725669	1.096421	99
Es	-0.043764	2.547044	1.049723	99
Es	-0.623939	-1.560319	-0.182072	99
Es	-0.958496	2.746140	1.297887	99
Es	0.348354	-2.680768	-0.766855	99
Es	0.671005	0.511839	-1.056397	99
Es	0.149745	-2.705861	-0.509268	99
Es	-0.234101	0.953349	0.018127	99
Es	-0.187114	-3.085539	-0.541759	99
Es	0.158256	0.928542	-0.452385	99
Es	-0.186596	2.182769	1.475113	99
Es	-0.012425	1.337583	0.420765	99
42
Properties=species:S:1:pos:R:3:Z:I:1 energy=-339.9379305296462 field_type=dipole dipole="0.000000 0.000000 0.000000" charge=0
O	0.150040	-2.705895	-0.509307	8
C	-0.624110	-1.560155	-0.182027	6
C	0.300570	-0.416815	0.053453	6
C	0.671170	0.511785	-1.056647	6
N	-0.234840	0.953505	0.017983	7
C	0.276280	1.832995	0.938223	6
N	-0.389160	2.772385	1.515873	7
H	-0.472060	-3.449105	-0.594907	1
H	-1.198360	-1.772875	0.725103	1
H	-1.321180	-1.364595	-1.003847	1
H	1.021140	-0.619565	0.835803	1
H	0.172680	0.426265	-2.012547	1
H	1.650870	0.969885	-1.060497	1
H	1.345380	1.692785	1.180293	1
H	-1.348420	2.729404	1.153043	1
Es	-0.268766	3.016592	1.760864	99
Es	-0.958163	2.745921	1.297673	99
Es	0.149673	-2.705839	-0.509374	99
Es	0.352096	-2.684028	-0.765592	99
Es	-0.166204	-0.971192	-0.070718	99
Es	-0.164282	-2.271284	-0.375087	99
Es	0.789341	-0.546879	0.575448	99
Es	0.276274	1.832865	0.938117	99
Es	0.671002	0.511836	-1.056396	99
Es	-1.098890	-1.414520	-0.742058	99
Es	-0.186899	2.182907	1.474743	99
Es	0.346331	0.450848	-1.695846	99
Es	1.324002	0.816084	-1.056466	99
Es	-0.234086	0.953345	0.018135	99
Es	-1.022028	-1.696745	0.445139	99
Es	-0.186285	-3.084057	-0.539227	99
Es	0.229657	-2.752983	-0.308389	99
Es	-0.013832	1.338161	0.420705	99
Es	0.621474	-0.123404	-0.604668	99
Es	-0.044062	2.546543	1.049880	99
Es	0.300467	-0.416536	0.053392	99
Es	-0.054367	0.367902	0.177155	99
Es	-0.389294	2.771996	1.515496	99
Es	1.010149	1.725681	1.096429	99
Es	-0.623941	-1.560319	-0.182070	99
Es	-0.551344	0.970145	-0.074374	99
Es	0.157850	0.929074	-0.451859	99
42
Properties=species:S:1:pos:R:3:Z:I:1 energy=-339.9379305296462 field_type=dipole dipole="0.000000 0.000000 0.000000" charge=0
O	0.150040	-2.705895	-0.509307	8
C	-0.624110	-1.560155	-0.182027	6
C	0.300570	-0.416815	0.053453	6
C	0.671170	0.511785	-1.056647	6
N	-0.234840	0.953505	0.017983	7
C	0.276280	1.832995	0.938223	6
N	-0.389160	2.772385	1.515873	7
H	-0.472060	-3.449105	-0.594907	1
H	-1.198360	-1.772875	0.725103	1
H	-1.321180	-1.364595	-1.003847	1
H	1.021140	-0.619565	0.835803	1
H	0.172680	0.426265	-2.012547	1
H	1.650870	0.969885	-1.060497	1
H	1.345380	1.692785	1.180293	1
H	-1.348420	2.729404	1.153043	1
Es	-0.958522	2.746178	1.297733	99
Es	0.149628	-2.705850	-0.509322	99
Es	-0.186323	-3.082165	-0.539349	99
Es	0.671004	0.511842	-1.056390	99
Es	0.226501	-2.752892	-0.309764	99
Es	-0.053528	0.367663	0.176520	99
Es	-0.268369	3.016438	1.760674	99
Es	0.300460	-0.416535	0.053389	99
Es	-0.623943	-1.560322	-0.182066	99
Es	0.157439	0.929666	-0.450978	99
Es	-1.021928	-1.696711	0.445176	99
Es	-0.044074	2.546236	1.049999	99
Es	-0.389299	2.771993	1.515491	99
Es	0.789355	-0.547007	0.575340	99
Es	-0.234089	0.953345	0.018134	99
Es	0.621670	-0.123655	-0.604735	99
Es	0.276276	1.832868	0.938115	99
Es	-0.166121	-0.971066	-0.070839	99
Es	-0.016842	1.339154	0.420595	99
Es	0.355196	-2.686248	-0.763970	99
Es	0.346506	0.451068	-1.695897	99
Es	-1.098955	-1.414517	-0.742040	99
Es	-0.548719	0.968934	-0.074386	99
Es	-0.164124	-2.271026	-0.375294	99
Es	1.323484	0.815920	-1.056286	99
Es	-0.186941	2.183119	1.474729	99
Es	1.010133	1.725686	1.096472	99
42
Properties=species:S:1:pos:R:3:Z:I:1 energy=-339.9379305296462 field_type=dipole dipole="0.000000 0.000000 0.000000" charge=0
O	0.150040	-2.705895	-0.509307	8
C	-0.624110	-1.560155	-0.182027	6
C	0.300570	-0.416815	0.053453	6
C	0.671170	0.511785	-1.056647	6
N	-0.234840	0.953505	0.017983	7
C	0.276280	1.832995	0.938223	6
N	-0.389160	2.772385	1.515873	7
H	-0.472060	-3.449105	-0.594907	1
H	-1.198360	-1.772875	0.725103	1
H	-1.321180	-1.364595	-1.003847	1
H	1.021140	-0.619565	0.835803	1
H	0.172680	0.426265	-2.012547	1
H	1.650870	0.969885	-1.060497	1
H	1.345380	1.692785	1.180293	1
H	-1.348420	2.729404	1.153043	1
Es	-1.098747	-1.414406	-0.742012	99
Es	0.789282	-0.547027	0.575329	99
Es	-0.389299	2.772026	1.515522	99
Es	0.671000	0.511840	-1.056390	99
Es	0.222076	-2.752696	-0.312214	99
Es	-0.053009	0.366885	0.175771	99
Es	1.010094	1.725673	1.096512	99
Es	-0.044158	2.546564	1.050178	99
Es	-0.547820	0.968734	-0.074286	99
Es	-0.268395	3.016206	1.760777	99
Es	-0.186831	2.182861	1.474460	99
Es	0.276276	1.832867	0.938118	99
Es	-1.021983	-1.696528	0.445323	99
Es	-0.163870	-2.270994	-0.374734	99
Es	0.622201	-0.123855	-0.604798	99
Es	-0.958515	2.746298	1.297718	99
Es	0.359475	-2.688158	-0.761197	99
Es	1.322719	0.815770	-1.056160	99
Es	0.156706	0.930481	-0.450298	99
Es	0.346680	0.451135	-1.695926	99
Es	0.300460	-0.416543	0.053392	99
Es	-0.017491	1.339523	0.420479	99
Es	-0.623941	-1.560320	-0.182070	99
Es	-0.166162	-0.971233	-0.070976	99
Es	-0.186394	-3.080489	-0.540153	99
Es	0.149626	-2.705848	-0.509438	99
Es	-0.234102	0.953350	0.018127	99
42
Properties=species:S:1:pos:R:3:Z:I:1 energy=-339.9379305296462 field_type=dipole dipole="0.000000 0.000000 0.000000" charge=0
O	0.150040	-2.705895	-0.509307	8
C	-0.624110	-1.560155	-0.182027	6
C	0.300570	-0.416815	0.053453	6
C	0.671170	0.511785	-1.056647	6
N	-0.234840	0.953505	0.017983	7
C	0.276280	1.832995	0.938223	6
N	-0.389160	2.772385	1.515873	7
H	-0.472060	-3.449105	-0.594907	1
H	-1.198360	-1.772875	0.725103	1
H	-1.321180	-1.364595	-1.003847	1
H	1.021140	-0.619565	0.835803	1
H	0.172680	0.426265	-2.012547	1
H	1.650870	0.969885	-1.060497	1
H	1.345380	1.692785	1.180293	1
H	-1.348420	2.729404	1.153043	1
Es	-0.018812	1.339985	0.420393	99
Es	-1.021804	-1.696317	0.445539	99
Es	0.276275	1.832867	0.938116	99
Es	-0.166209	-0.971372	-0.071137	99
Es	0.362077	-2.689896	-0.759495	99
Es	-0.623943	-1.560320	-0.182068	99
Es	-0.958253	2.745831	1.297431	99
Es	-0.044297	2.546749	1.050375	99
Es	-0.268744	3.016588	1.761191	99
Es	0.149554	-2.705830	-0.509307	99
Es	1.322328	0.815766	-1.056192	99
Es	-0.185899	-3.079485	-0.539532	99
Es	0.346707	0.451141	-1.695801	99
Es	0.218967	-2.751986	-0.315125	99
Es	-0.546646	0.968189	-0.074043	99
Es	-0.186623	2.182856	1.474035	99
Es	0.156161	0.930955	-0.449900	99
Es	0.300465	-0.416540	0.053391	99
Es	1.010133	1.725574	1.096569	99
Es	0.622446	-0.124023	-0.604851	99
Es	-0.052489	0.366592	0.175257	99
Es	0.789391	-0.547076	0.575295	99
Es	-0.389287	2.771997	1.515499	99
Es	-1.098805	-1.414347	-0.742065	99
Es	0.671005	0.511845	-1.056389	99
Es	-0.163738	-2.270979	-0.374269	99
Es	-0.234085	0.953350	0.018134	99
