37
Properties=species:S:1:pos:R:3:Z:I:1 energy=-321.5927078413141 field_type=dipole dipole="0.000000 0.000000 0.000000" charge=0
O	-2.122521	0.094423	0.612814	8
C	-0.687461	0.180763	0.560424	6
C	-0.209082	-0.528827	-0.709456	6
C	1.242259	-0.779707	-0.699216	6
C	2.425569	-0.982367	-0.695076	6
C	-0.248372	1.591422	0.587984	6
N	0.068849	2.707002	0.641594	7
H	-2.418111	0.649622	1.356954	1
H	-0.308331	-0.338928	1.448304	1
H	-0.484421	0.052433	-1.598786	1
H	-0.735742	-1.486697	-0.807746	1
H	3.477369	-1.159137	-0.697796	1
Es	-0.448848	0.936375	0.569544	99
Es	-1.564949	0.161468	0.606716	99
Es	0.542859	-0.649573	-0.693593	99
Es	-2.257832	0.393264	1.015693	99
Es	3.108891	-1.098197	-0.696093	99
Es	1.824868	-0.922299	-1.050303	99
Es	-0.286905	2.240315	0.843261	99
Es	1.792925	-1.167978	-0.478635	99
Es	0.168917	3.058545	0.658254	99
Es	-0.158096	2.236410	0.321123	99
Es	-0.417147	-0.146609	1.155257	99
Es	-0.428700	-0.151769	-0.069416	99
Es	-0.687648	0.180944	0.560368	99
Es	0.068722	2.706557	0.641568	99
Es	-0.376347	-0.136179	-1.291372	99
Es	1.241960	-0.779657	-0.699218	99
Es	-2.122310	0.094579	0.613067	99
Es	-0.248480	1.591083	0.587964	99
Es	1.888949	-0.557072	-0.551594	99
Es	0.208782	2.102942	0.687733	99
Es	2.425796	-0.982414	-0.695081	99
Es	-2.225332	0.225917	0.356655	99
Es	-0.543687	-1.163358	-0.758529	99
Es	-0.208950	-0.528804	-0.709376	99
Es	-2.171236	-0.196478	0.686099	99
37
Properties=species:S:1:pos:R:3:Z:I:1 energy=-321.5927078413141 field_type=dipole dipole="0.000000 0.000000 0.000000" charge=0
O	-2.122521	0.094423	0.612814	8
C	-0.687461	0.180763	0.560424	6
C	-0.209082	-0.528827	-0.709456	6
C	1.242259	-0.779707	-0.699216	6
C	2.425569	-0.982367	-0.695076	6
C	-0.248372	1.591422	0.587984	6
N	0.068849	2.707002	0.641594	7
H	-2.418111	0.649622	1.356954	1
H	-0.308331	-0.338928	1.448304	1
H	-0.484421	0.052433	-1.598786	1
H	-0.735742	-1.486697	-0.807746	1
H	3.477369	-1.159137	-0.697796	1
Es	-0.417775	-0.146201	1.153416	99
Es	-0.428933	-0.151911	-0.070412	99
Es	-2.214824	0.225863	0.369933	99
Es	-0.546519	-1.163396	-0.759453	99
Es	3.110198	-1.098281	-0.696000	99
Es	2.425801	-0.982413	-0.695071	99
Es	0.544782	-0.649407	-0.693665	99
Es	-0.449830	0.937704	0.568993	99
Es	-0.208950	-0.528804	-0.709375	99
Es	-0.257032	2.232882	0.863030	99
Es	-0.202449	2.248389	0.350638	99
Es	-2.261839	0.398267	1.009551	99
Es	-0.376033	-0.137460	-1.287523	99
Es	-2.122371	0.094559	0.612975	99
Es	-0.687646	0.180942	0.560372	99
Es	-1.561273	0.160178	0.606433	99
Es	-0.248461	1.591089	0.587964	99
Es	0.224963	2.097143	0.638506	99
Es	0.068723	2.706569	0.641574	99
Es	0.169479	3.059072	0.659073	99
Es	1.794613	-1.083408	-0.985075	99
Es	1.810812	-1.038016	-0.384255	99
Es	-2.182416	-0.200524	0.679383	99
Es	1.901235	-0.525167	-0.711721	99
Es	1.241947	-0.779658	-0.699200	99
37
Properties=species:S:1:pos:R:3:Z:I:1 energy=-321.5927078413141 field_type=dipole dipole="0.000000 0.000000 0.000000" charge=0
O	-2.122521	0.094423	0.612814	8
C	-0.687461	0.180763	0.560424	6
C	-0.209082	-0.528827	-0.709456	6
C	1.242259	-0.779707	-0.699216	6
C	2.425569	-0.982367	-0.695076	6
C	-0.248372	1.591422	0.587984	6
N	0.068849	2.707002	0.641594	7
H	-2.418111	0.649622	1.356954	1
H	-0.308331	-0.338928	1.448304	1
H	-0.484421	0.052433	-1.598786	1
H	-0.735742	-1.486697	-0.807746	1
H	3.477369	-1.159137	-0.697796	1
Es	-0.349892	2.257180	0.775026	99
Es	-0.248470	1.591077	0.587963	99
Es	-0.687650	0.180945	0.560366	99
Es	-1.559667	0.158688	0.607223	99
Es	-0.375849	-0.138499	-1.285437	99
Es	1.241949	-0.779668	-0.699211	99
Es	2.425813	-0.982405	-0.695079	99
Es	0.206394	2.100752	0.729647	99
Es	1.791813	-1.175762	-0.495000	99
Es	-0.208949	-0.528804	-0.709374	99
Es	0.068723	2.706565	0.641573	99
Es	-0.449209	0.937978	0.567305	99
Es	-2.264278	0.400764	1.006404	99
Es	0.545600	-0.649678	-0.695430	99
Es	-0.093656	2.221274	0.349855	99
Es	-0.428915	-0.151925	-0.070796	99
Es	3.110787	-1.097631	-0.696550	99
Es	1.824751	-0.921859	-1.028748	99
Es	1.890049	-0.548912	-0.555535	99
Es	0.172044	3.058103	0.658597	99
Es	-0.547798	-1.163121	-0.759913	99
Es	-2.122291	0.094577	0.613080	99
Es	-0.418171	-0.145822	1.152624	99
Es	-2.189053	-0.201858	0.673658	99
Es	-2.207870	0.226054	0.377844	99
37
Properties=species:S:1:pos:R:3:Z:I:1 energy=-321.5927078413141 field_type=dipole dipole="0.000000 0.000000 0.000000" charge=0
O	-2.122521	0.094423	0.612814	8
C	-0.687461	0.180763	0.560424	6
C	-0.209082	-0.528827	-0.709456	6
C	1.242259	-0.779707	-0.699216	6
C	2.425569	-0.982367	-0.695076	6
C	-0.248372	1.591422	0.587984	6
N	0.068849	2.707002	0.641594	7
H	-2.418111	0.649622	1.356954	1
H	-0.308331	-0.338928	1.448304	1
H	-0.484421	0.052433	-1.598786	1
H	-0.735742	-1.486697	-0.807746	1
H	3.477369	-1.159137	-0.697796	1
Es	1.885134	-0.566979	-0.516900	99
Es	-0.449659	0.938281	0.566949	99
Es	-1.558611	0.156777	0.607575	99
Es	-2.205140	0.225807	0.381150	99
Es	-0.687649	0.180943	0.560367	99
Es	-0.548464	-1.162806	-0.760192	99
Es	-0.362441	2.261498	0.757203	99
Es	-0.208949	-0.528801	-0.709377	99
Es	-2.192054	-0.200928	0.671605	99
Es	1.786272	-1.206835	-0.543627	99
Es	0.173555	3.056965	0.658604	99
Es	0.068721	2.706558	0.641572	99
Es	1.835136	-0.873198	-1.018516	99
Es	-0.428874	-0.152028	-0.071305	99
Es	-0.418272	-0.145552	1.152356	99
Es	-2.265246	0.401906	1.004851	99
Es	0.546179	-0.649421	-0.695840	99
Es	-0.375792	-0.138998	-1.284277	99
Es	3.111132	-1.097171	-0.696510	99
Es	0.206617	2.099948	0.734111	99
Es	-2.122373	0.094539	0.612943	99
Es	-0.082316	2.218480	0.363685	99
Es	-0.248461	1.591083	0.587957	99
Es	1.241949	-0.779651	-0.699217	99
Es	2.425807	-0.982406	-0.695077	99
37
Properties=species:S:1:pos:R:3:Z:I:1 energy=-321.5927078413141 field_type=dipole dipole="0.000000 0.000000 0.000000" charge=0
O	-2.122521	0.094423	0.612814	8
C	-0.687461	0.180763	0.560424	6
C	-0.209082	-0.528827	-0.709456	6
C	1.242259	-0.779707	-0.699216	6
C	2.425569	-0.982367	-0.695076	6
C	-0.248372	1.591422	0.587984	6
N	0.068849	2.707002	0.641594	7
H	-2.418111	0.649622	1.356954	1
H	-0.308331	-0.338928	1.448304	1
H	-0.484421	0.052433	-1.598786	1
H	-0.735742	-1.486697	-0.807746	1
H	3.477369	-1.159137	-0.697796	1
Es	1.901254	-0.523522	-0.717942	99
Es	1.813980	-1.017785	-0.394077	99
Es	-2.193377	-0.201144	0.672796	99
Es	-2.266900	0.405709	1.001080	99
Es	3.111126	-1.098121	-0.695215	99
Es	1.791406	-1.104771	-0.969453	99
Es	-1.558307	0.156628	0.607610	99
Es	-0.687651	0.180945	0.560363	99
Es	0.173662	3.056997	0.657418	99
Es	-0.418168	-0.145979	1.152121	99
Es	0.546459	-0.649529	-0.694409	99
Es	-0.429102	-0.151889	-0.071487	99
Es	-0.370138	2.263844	0.745092	99
Es	0.212143	2.098059	0.724215	99
Es	-0.080402	2.218065	0.386419	99
Es	-2.122285	0.094568	0.613060	99
Es	-0.449135	0.938366	0.567222	99
Es	-2.202691	0.222306	0.383491	99
Es	-0.248463	1.591086	0.587946	99
Es	0.068722	2.706563	0.641574	99
Es	-0.549057	-1.162574	-0.760107	99
Es	1.241943	-0.779669	-0.699217	99
Es	2.425808	-0.982414	-0.695063	99
Es	-0.375677	-0.138922	-1.283972	99
Es	-0.208950	-0.528806	-0.709373	99
37
Properties=species:S:1:pos:R:3:Z:I:1 energy=-321.5927078413141 field_type=dipole dipole="0.000000 0.000000 0.000000" charge=0
O	-2.122521	0.094423	0.612814	8
C	-0.687461	0.180763	0.560424	6
C	-0.209082	-0.528827	-0.709456	6
C	1.242259	-0.779707	-0.699216	6
C	2.425569	-0.982367	-0.695076	6
C	-0.248372	1.591422	0.587984	6
N	0.068849	2.707002	0.641594	7
H	-2.418111	0.649622	1.356954	1
H	-0.308331	-0.338928	1.448304	1
H	-0.484421	0.052433	-1.598786	1
H	-0.735742	-1.486697	-0.807746	1
H	3.477369	-1.159137	-0.697796	1
Es	1.241947	-0.779651	-0.699219	99
Es	-0.429205	-0.151744	-0.071854	99
Es	-1.557852	0.155764	0.607964	99
Es	-0.449354	0.938523	0.566903	99
Es	1.901339	-0.533887	-0.774318	99
Es	-0.375707	-0.139307	-1.283463	99
Es	-0.549260	-1.162202	-0.760193	99
Es	1.821400	-0.955989	-0.383674	99
Es	-0.208949	-0.528803	-0.709376	99
Es	2.425812	-0.982411	-0.695066	99
Es	-0.248471	1.591102	0.587939	99
Es	-2.122315	0.094609	0.613042	99
Es	-0.075534	2.216672	0.389299	99
Es	-2.194204	-0.200195	0.670831	99
Es	3.111307	-1.097754	-0.694821	99
Es	-2.267927	0.405718	1.001133	99
Es	0.174157	3.055872	0.657251	99
Es	-0.418097	-0.145929	1.152107	99
Es	0.546838	-0.649089	-0.694473	99
Es	-2.201400	0.222230	0.385085	99
Es	0.068721	2.706569	0.641578	99
Es	0.211551	2.098051	0.729766	99
Es	-0.687650	0.180944	0.560367	99
Es	1.783774	-1.157041	-0.923927	99
Es	-0.374719	2.265961	0.737210	99
37
Properties=species:S:1:pos:R:3:Z:I:1 energy=-321.5927078413141 field_type=dipole dipole="0.000000 0.000000 0.000000" charge=0
O	-2.122521	0.094423	0.612814	8
C	-0.687461	0.180763	0.560424	6
C	-0.209082	-0.528827	-0.709456	6
C	1.242259	-0.779707	-0.699216	6
C	2.425569	-0.982367	-0.695076	6
C	-0.248372	1.591422	0.587984	6
N	0.068849	2.707002	0.641594	7
H	-2.418111	0.649622	1.356954	1
H	-0.308331	-0.338928	1.448304	1
H	-0.484421	0.052433	-1.598786	1
H	-0.735742	-1.486697	-0.807746	1
H	3.477369	-1.159137	-0.697796	1
Es	-2.122248	0.094497	0.613182	99
Es	-2.194939	-0.200260	0.670981	99
Es	-0.077580	2.198927	0.825943	99
Es	-0.429172	-0.151756	-0.071942	99
Es	-0.376010	-0.139227	-1.283623	99
Es	1.241948	-0.779658	-0.699215	99
Es	0.068722	2.706559	0.641573	99
Es	-1.557700	0.155725	0.608311	99
Es	-0.687648	0.180943	0.560364	99
Es	-0.208949	-0.528806	-0.709374	99
Es	0.215894	2.102451	0.509322	99
Es	2.425808	-0.982412	-0.695066	99
Es	1.783329	-1.160625	-0.916501	99
Es	-0.449936	0.938563	0.570727	99
Es	-0.248474	1.591095	0.587974	99
Es	1.900974	-0.537719	-0.787222	99
Es	-2.267891	0.406001	1.000127	99
Es	0.175103	3.055031	0.662916	99
Es	-2.200999	0.222100	0.385449	99
Es	0.546883	-0.649195	-0.694190	99
Es	-0.549251	-1.162179	-0.759783	99
Es	-0.377308	2.280129	0.511262	99
Es	1.822183	-0.948647	-0.378030	99
Es	-0.417957	-0.146045	1.152125	99
Es	3.111417	-1.097480	-0.695219	99
37
Properties=species:S:1:pos:R:3:Z:I:1 energy=-321.5927078413141 field_type=dipole dipole="0.000000 0.000000 0.000000" charge=0
O	-2.122521	0.094423	0.612814	8
C	-0.687461	0.180763	0.560424	6
C	-0.209082	-0.528827	-0.709456	6
C	1.242259	-0.779707	-0.699216	6
C	2.425569	-0.982367	-0.695076	6
C	-0.248372	1.591422	0.587984	6
N	0.068849	2.707002	0.641594	7
H	-2.418111	0.649622	1.356954	1
H	-0.308331	-0.338928	1.448304	1
H	-0.484421	0.052433	-1.598786	1
H	-0.735742	-1.486697	-0.807746	1
H	3.477369	-1.159137	-0.697796	1
Es	2.425808	-0.982409	-0.695067	99
Es	0.174502	3.055185	0.657525	99
Es	-0.449736	0.938856	0.567008	99
Es	-0.380187	2.268035	0.726945	99
Es	1.901357	-0.531482	-0.763672	99
Es	-0.418175	-0.145845	1.151942	99
Es	-2.268635	0.405597	1.000385	99
Es	-0.549394	-1.161996	-0.760025	99
Es	1.241942	-0.779662	-0.699211	99
Es	-0.075848	2.217077	0.411884	99
Es	0.068722	2.706563	0.641574	99
Es	-1.557398	0.155348	0.608522	99
Es	1.784720	-1.150549	-0.930623	99
Es	3.111467	-1.097580	-0.694745	99
Es	-0.248458	1.591086	0.587955	99
Es	-0.429170	-0.151901	-0.072043	99
Es	0.217504	2.095904	0.717066	99
Es	-2.122301	0.094583	0.613055	99
Es	-0.375934	-0.139527	-1.283138	99
Es	1.820451	-0.964743	-0.387550	99
Es	0.547069	-0.649237	-0.694694	99
Es	-0.208950	-0.528804	-0.709375	99
Es	-0.687644	0.180944	0.560368	99
Es	-2.194860	-0.199493	0.670084	99
Es	-2.200651	0.222063	0.385922	99
37
Properties=species:S:1:pos:R:3:Z:I:1 energy=-321.5927078413141 field_type=dipole dipole="0.000000 0.000000 0.000000" charge=0
O	-2.122521	0.094423	0.612814	8
C	-0.687461	0.180763	0.560424	6
C	-0.209082	-0.528827	-0.709456	6
C	1.242259	-0.779707	-0.699216	6
C	2.425569	-0.982367	-0.695076	6
C	-0.248372	1.591422	0.587984	6
N	0.068849	2.707002	0.641594	7
H	-2.418111	0.649622	1.356954	1
H	-0.308331	-0.338928	1.448304	1
H	-0.484421	0.052433	-1.598786	1
H	-0.735742	-1.486697	-0.807746	1
H	3.477369	-1.159137	-0.697796	1
Es	-0.549575	-1.161801	-0.760311	99
Es	0.217522	2.095589	0.717608	99
Es	-2.194214	-0.198829	0.672289	99
Es	-0.248474	1.591087	0.587963	99
Es	-1.557286	0.155264	0.608316	99
Es	-0.687647	0.180944	0.560362	99
Es	-2.122278	0.094594	0.613079	99
Es	-2.200406	0.219107	0.386059	99
Es	1.821181	-0.958730	-0.387017	99
Es	-0.429215	-0.151911	-0.072043	99
Es	1.241942	-0.779660	-0.699221	99
Es	1.784079	-1.155189	-0.925583	99
Es	3.111519	-1.097441	-0.694898	99
Es	0.547153	-0.649396	-0.694658	99
Es	-2.269695	0.407945	0.998237	99
Es	0.175325	3.054415	0.658074	99
Es	2.425810	-0.982411	-0.695068	99
Es	-0.375799	-0.139547	-1.282811	99
Es	-0.208950	-0.528805	-0.709374	99
Es	-0.449874	0.938961	0.567016	99
Es	0.068722	2.706562	0.641573	99
Es	-0.418154	-0.145841	1.151916	99
Es	1.901254	-0.532943	-0.769173	99
Es	-0.383208	2.269575	0.720058	99
Es	-0.073530	2.216473	0.417698	99
37
Properties=species:S:1:pos:R:3:Z:I:1 energy=-321.5927078413141 field_type=dipole dipole="0.000000 0.000000 0.000000" charge=0
O	-2.122521	0.094423	0.612814	8
C	-0.687461	0.180763	0.560424	6
C	-0.209082	-0.528827	-0.709456	6
C	1.242259	-0.779707	-0.699216	6
C	2.425569	-0.982367	-0.695076	6
C	-0.248372	1.591422	0.587984	6
N	0.068849	2.707002	0.641594	7
H	-2.418111	0.649622	1.356954	1
H	-0.308331	-0.338928	1.448304	1
H	-0.484421	0.052433	-1.598786	1
H	-0.735742	-1.486697	-0.807746	1
H	3.477369	-1.159137	-0.697796	1
Es	-2.122303	0.094611	0.613044	99
Es	-2.196392	-0.198768	0.668255	99
Es	-0.429150	-0.151893	-0.072237	99
Es	-0.072576	2.216476	0.418108	99
Es	-2.268921	0.405440	1.000198	99
Es	-1.556965	0.154174	0.608983	99
Es	-0.384244	2.270610	0.718613	99
Es	0.547220	-0.649789	-0.696467	99
Es	0.216912	2.095093	0.718079	99
Es	1.782749	-1.223667	-0.583366	99
Es	-0.549924	-1.161797	-0.760708	99
Es	-0.418315	-0.145540	1.151742	99
Es	-0.375472	-0.139984	-1.282044	99
Es	-0.248472	1.591095	0.587948	99
Es	1.241946	-0.779664	-0.699219	99
Es	-2.199401	0.222628	0.387525	99
Es	2.425809	-0.982418	-0.695058	99
Es	-0.687650	0.180945	0.560363	99
Es	0.068721	2.706563	0.641575	99
Es	0.176882	3.053352	0.659328	99
Es	3.111747	-1.096263	-0.696153	99
Es	-0.208953	-0.528807	-0.709380	99
Es	-0.450713	0.939348	0.566511	99
Es	1.842604	-0.840326	-1.003330	99
Es	1.881064	-0.583404	-0.492223	99
37
Properties=species:S:1:pos:R:3:Z:I:1 energy=-321.5927078413141 field_type=dipole dipole="0.000000 0.000000 0.000000" charge=0
O	-2.122521	0.094423	0.612814	8
C	-0.687461	0.180763	0.560424	6
C	-0.209082	-0.528827	-0.709456	6
C	1.242259	-0.779707	-0.699216	6
C	2.425569	-0.982367	-0.695076	6
C	-0.248372	1.591422	0.587984	6
N	0.068849	2.707002	0.641594	7
H	-2.418111	0.649622	1.356954	1
H	-0.308331	-0.338928	1.448304	1
H	-0.484421	0.052433	-1.598786	1
H	-0.735742	-1.486697	-0.807746	1
H	3.477369	-1.159137	-0.697796	1
Es	-0.417970	-0.146101	1.151925	99
Es	1.782718	-1.165716	-0.910851	99
Es	-0.248462	1.591091	0.587976	99
Es	-0.376023	-0.139445	-1.282893	99
Es	-0.208951	-0.528805	-0.709374	99
Es	0.068724	2.706570	0.641575	99
Es	-0.429163	-0.151789	-0.072413	99
Es	1.900767	-0.538777	-0.789668	99
Es	-2.122287	0.094537	0.613095	99
Es	-0.687647	0.180944	0.560366	99
Es	-2.194537	-0.198661	0.670827	99
Es	0.222449	2.099352	0.523529	99
Es	-2.200952	0.221059	0.386026	99
Es	-0.383996	2.281371	0.525518	99
Es	-0.549705	-1.161739	-0.759929	99
Es	1.822997	-0.942524	-0.381174	99
Es	-2.269099	0.405765	0.999658	99
Es	0.547231	-0.649560	-0.694382	99
Es	-0.076993	2.201333	0.796982	99
Es	0.175488	3.053801	0.663299	99
Es	-1.557081	0.155413	0.608398	99
Es	2.425803	-0.982408	-0.695064	99
Es	1.241942	-0.779659	-0.699209	99
Es	-0.450677	0.939061	0.571032	99
Es	3.111624	-1.097100	-0.695159	99
37
Properties=species:S:1:pos:R:3:Z:I:1 energy=-321.5927078413141 field_type=dipole dipole="0.000000 0.000000 0.000000" charge=0
O	-2.122521	0.094423	0.612814	8
C	-0.687461	0.180763	0.560424	6
C	-0.209082	-0.528827	-0.709456	6
C	1.242259	-0.779707	-0.699216	6
C	2.425569	-0.982367	-0.695076	6
C	-0.248372	1.591422	0.587984	6
N	0.068849	2.707002	0.641594	7
H	-2.418111	0.649622	1.356954	1
H	-0.308331	-0.338928	1.448304	1
H	-0.484421	0.052433	-1.598786	1
H	-0.735742	-1.486697	-0.807746	1
H	3.477369	-1.159137	-0.697796	1
Es	1.886688	-0.560742	-0.531234	99
Es	-0.429186	-0.151726	-0.072547	99
Es	-2.122290	0.094720	0.612988	99
Es	-0.208950	-0.528804	-0.709375	99
Es	-0.248484	1.591088	0.587971	99
Es	-0.375600	-0.140003	-1.281959	99
Es	1.786805	-1.203459	-0.537598	99
Es	2.425813	-0.982408	-0.695073	99
Es	0.177280	3.052394	0.666192	99
Es	-0.550120	-1.161659	-0.760458	99
Es	0.068730	2.706578	0.641580	99
Es	3.111811	-1.096261	-0.696564	99
Es	-0.451234	0.939426	0.570581	99
Es	1.832969	-0.882917	-1.010179	99
Es	-0.077533	2.200624	0.802414	99
Es	-2.197814	-0.199487	0.665485	99
Es	-1.556838	0.154637	0.608738	99
Es	1.241939	-0.779669	-0.699224	99
Es	0.547327	-0.650059	-0.695862	99
Es	-2.197822	0.223304	0.390389	99
Es	-0.383394	2.282881	0.521472	99
Es	-0.418203	-0.145810	1.151627	99
Es	-2.269307	0.404897	1.000406	99
Es	-0.687650	0.180944	0.560363	99
Es	0.221264	2.099523	0.519957	99
37
Properties=species:S:1:pos:R:3:Z:I:1 energy=-321.5927078413141 field_type=dipole dipole="0.000000 0.000000 0.000000" charge=0
O	-2.122521	0.094423	0.612814	8
C	-0.687461	0.180763	0.560424	6
C	-0.209082	-0.528827	-0.709456	6
C	1.242259	-0.779707	-0.699216	6
C	2.425569	-0.982367	-0.695076	6
C	-0.248372	1.591422	0.587984	6
N	0.068849	2.707002	0.641594	7
H	-2.418111	0.649622	1.356954	1
H	-0.308331	-0.338928	1.448304	1
H	-0.484421	0.052433	-1.598786	1
H	-0.735742	-1.486697	-0.807746	1
H	3.477369	-1.159137	-0.697796	1
Es	-2.197861	0.224453	0.389500	99
Es	-0.248470	1.591092	0.587951	99
Es	1.241939	-0.779656	-0.699232	99
Es	1.783917	-1.218234	-0.571099	99
Es	-2.122253	0.094581	0.613106	99
Es	1.882542	-0.577066	-0.501835	99
Es	0.220424	2.093578	0.708452	99
Es	-1.556705	0.153619	0.609514	99
Es	1.839993	-0.851815	-1.006103	99
Es	3.111806	-1.096268	-0.695999	99
Es	-0.072570	2.216619	0.436626	99
Es	-0.375311	-0.140264	-1.281635	99
Es	-0.387917	2.272211	0.708518	99
Es	2.425810	-0.982406	-0.695076	99
Es	-0.550092	-1.161570	-0.760956	99
Es	-2.197749	-0.198560	0.664532	99
Es	-0.687649	0.180940	0.560377	99
Es	-0.418421	-0.145480	1.151597	99
Es	0.547343	-0.650106	-0.696498	99
Es	-0.451045	0.939643	0.566743	99
Es	-2.269482	0.404009	1.001293	99
Es	-0.208949	-0.528803	-0.709375	99
Es	0.177419	3.052765	0.660495	99
Es	0.068721	2.706561	0.641573	99
Es	-0.429241	-0.151831	-0.072377	99
37
Properties=species:S:1:pos:R:3:Z:I:1 energy=-321.5927078413141 field_type=dipole dipole="0.000000 0.000000 0.000000" charge=0
O	-2.122521	0.094423	0.612814	8
C	-0.687461	0.180763	0.560424	6
C	-0.209082	-0.528827	-0.709456	6
C	1.242259	-0.779707	-0.699216	6
C	2.425569	-0.982367	-0.695076	6
C	-0.248372	1.591422	0.587984	6
N	0.068849	2.707002	0.641594	7
H	-2.418111	0.649622	1.356954	1
H	-0.308331	-0.338928	1.448304	1
H	-0.484421	0.052433	-1.598786	1
H	-0.735742	-1.486697	-0.807746	1
H	3.477369	-1.159137	-0.697796	1
Es	-0.418478	-0.145393	1.151575	99
Es	-0.687650	0.180944	0.560365	99
Es	0.547417	-0.650183	-0.696833	99
Es	-0.375286	-0.140506	-1.281369	99
Es	0.068721	2.706558	0.641573	99
Es	1.241941	-0.779660	-0.699223	99
Es	1.834077	-0.878295	-1.012193	99
Es	-0.451072	0.939656	0.566406	99
Es	-2.199631	-0.199204	0.662425	99
Es	1.885656	-0.564200	-0.523014	99
Es	-2.194485	0.223334	0.393189	99
Es	-0.429100	-0.151737	-0.072524	99
Es	1.786715	-1.204358	-0.543813	99
Es	-2.122344	0.094569	0.612996	99
Es	2.425811	-0.982409	-0.695071	99
Es	-0.248468	1.591097	0.587944	99
Es	-1.556673	0.153125	0.609826	99
Es	3.111821	-1.096365	-0.695922	99
Es	-0.550289	-1.161586	-0.760852	99
Es	-2.270932	0.406306	0.999525	99
Es	-0.388840	2.272650	0.705687	99
Es	-0.072252	2.216612	0.440899	99
Es	0.177491	3.052513	0.661138	99
Es	-0.208949	-0.528805	-0.709373	99
Es	0.221000	2.093351	0.706728	99
37
Properties=species:S:1:pos:R:3:Z:I:1 energy=-321.5927078413141 field_type=dipole dipole="0.000000 0.000000 0.000000" charge=0
O	-2.122521	0.094423	0.612814	8
C	-0.687461	0.180763	0.560424	6
C	-0.209082	-0.528827	-0.709456	6
C	1.242259	-0.779707	-0.699216	6
C	2.425569	-0.982367	-0.695076	6
C	-0.248372	1.591422	0.587984	6
N	0.068849	2.707002	0.641594	7
H	-2.418111	0.649622	1.356954	1
H	-0.308331	-0.338928	1.448304	1
H	-0.484421	0.052433	-1.598786	1
H	-0.735742	-1.486697	-0.807746	1
H	3.477369	-1.159137	-0.697796	1
Es	-0.429120	-0.151769	-0.072644	99
Es	-2.122265	0.094534	0.613143	99
Es	2.425811	-0.982409	-0.695071	99
Es	0.223636	2.098066	0.527205	99
Es	-0.418100	-0.145903	1.151709	99
Es	3.111926	-1.095756	-0.696428	99
Es	-0.248469	1.591092	0.587976	99
Es	-0.208950	-0.528805	-0.709375	99
Es	1.241941	-0.779659	-0.699222	99
Es	-1.556710	0.154880	0.608892	99
Es	1.838845	-0.856598	-1.007640	99
Es	1.883162	-0.574973	-0.508168	99
Es	-2.196705	-0.198652	0.667021	99
Es	-0.550300	-1.161485	-0.760501	99
Es	-0.687652	0.180944	0.560361	99
Es	-2.269830	0.405167	0.999737	99
Es	1.784400	-1.215951	-0.563206	99
Es	0.547399	-0.650238	-0.696044	99
Es	-0.375649	-0.139906	-1.281748	99
Es	-0.077233	2.201820	0.789286	99
Es	-0.451640	0.939595	0.570572	99
Es	0.177738	3.051989	0.664890	99
Es	-2.198623	0.222201	0.389172	99
Es	0.068726	2.706570	0.641574	99
Es	-0.386137	2.283259	0.528599	99
37
Properties=species:S:1:pos:R:3:Z:I:1 energy=-321.5927078413141 field_type=dipole dipole="0.000000 0.000000 0.000000" charge=0
O	-2.122521	0.094423	0.612814	8
C	-0.687461	0.180763	0.560424	6
C	-0.209082	-0.528827	-0.709456	6
C	1.242259	-0.779707	-0.699216	6
C	2.425569	-0.982367	-0.695076	6
C	-0.248372	1.591422	0.587984	6
N	0.068849	2.707002	0.641594	7
H	-2.418111	0.649622	1.356954	1
H	-0.308331	-0.338928	1.448304	1
H	-0.484421	0.052433	-1.598786	1
H	-0.735742	-1.486697	-0.807746	1
H	3.477369	-1.159137	-0.697796	1
Es	-0.550417	-1.161497	-0.761137	99
Es	-0.208949	-0.528804	-0.709374	99
Es	0.547408	-0.650328	-0.696586	99
Es	0.068722	2.706560	0.641572	99
Es	-0.687651	0.180944	0.560363	99
Es	-2.203115	-0.200167	0.656348	99
Es	-2.122256	0.094600	0.613090	99
Es	2.425811	-0.982407	-0.695078	99
Es	-0.248465	1.591099	0.587949	99
Es	-1.556536	0.152568	0.610407	99
Es	-2.271749	0.406126	0.999655	99
Es	-0.450852	0.939757	0.566360	99
Es	-0.429254	-0.151677	-0.072516	99
Es	1.888495	-0.553482	-0.544688	99
Es	0.177324	3.052320	0.661094	99
Es	-0.418589	-0.145300	1.151411	99
Es	-0.390848	2.273526	0.699422	99
Es	1.789531	-1.189102	-0.519133	99
Es	0.221797	2.093119	0.705814	99
Es	-0.375005	-0.140724	-1.281105	99
Es	-2.190443	0.224992	0.398471	99
Es	-0.071015	2.216070	0.448260	99
Es	1.828506	-0.903956	-1.015365	99
Es	1.241942	-0.779661	-0.699218	99
Es	3.111811	-1.096564	-0.695926	99
37
Properties=species:S:1:pos:R:3:Z:I:1 energy=-321.5927078413141 field_type=dipole dipole="0.000000 0.000000 0.000000" charge=0
O	-2.122521	0.094423	0.612814	8
C	-0.687461	0.180763	0.560424	6
C	-0.209082	-0.528827	-0.709456	6
C	1.242259	-0.779707	-0.699216	6
C	2.425569	-0.982367	-0.695076	6
C	-0.248372	1.591422	0.587984	6
N	0.068849	2.707002	0.641594	7
H	-2.418111	0.649622	1.356954	1
H	-0.308331	-0.338928	1.448304	1
H	-0.484421	0.052433	-1.598786	1
H	-0.735742	-1.486697	-0.807746	1
H	3.477369	-1.159137	-0.697796	1
Es	-0.388443	2.283559	0.535716	99
Es	-0.687651	0.180943	0.560364	99
Es	-2.197509	-0.198794	0.666532	99
Es	0.068722	2.706563	0.641573	99
Es	-0.429186	-0.151732	-0.072619	99
Es	-0.248471	1.591095	0.587972	99
Es	1.789048	-1.191310	-0.518804	99
Es	-2.197522	0.221848	0.390667	99
Es	0.178045	3.051649	0.666659	99
Es	-2.270127	0.406143	0.999184	99
Es	-2.122309	0.094554	0.613009	99
Es	1.241942	-0.779660	-0.699217	99
Es	-0.075940	2.202169	0.778584	99
Es	0.224483	2.097603	0.529717	99
Es	3.111886	-1.096134	-0.696192	99
Es	-0.451760	0.939746	0.569864	99
Es	2.425811	-0.982411	-0.695072	99
Es	-0.550425	-1.161620	-0.760769	99
Es	0.547385	-0.650215	-0.696145	99
Es	1.828588	-0.903273	-1.012039	99
Es	-1.556685	0.154362	0.608578	99
Es	-0.375298	-0.140285	-1.281437	99
Es	-0.208950	-0.528806	-0.709373	99
Es	1.888828	-0.552418	-0.548310	99
Es	-0.418259	-0.145561	1.151651	99
37
Properties=species:S:1:pos:R:3:Z:I:1 energy=-321.5927078413141 field_type=dipole dipole="0.000000 0.000000 0.000000" charge=0
O	-2.122521	0.094423	0.612814	8
C	-0.687461	0.180763	0.560424	6
C	-0.209082	-0.528827	-0.709456	6
C	1.242259	-0.779707	-0.699216	6
C	2.425569	-0.982367	-0.695076	6
C	-0.248372	1.591422	0.587984	6
N	0.068849	2.707002	0.641594	7
H	-2.418111	0.649622	1.356954	1
H	-0.308331	-0.338928	1.448304	1
H	-0.484421	0.052433	-1.598786	1
H	-0.735742	-1.486697	-0.807746	1
H	3.477369	-1.159137	-0.697796	1
Es	-0.429193	-0.151723	-0.072744	99
Es	1.241942	-0.779659	-0.699210	99
Es	-0.375919	-0.139841	-1.282168	99
Es	-2.269895	0.406010	0.998806	99
Es	-0.388763	2.282831	0.536639	99
Es	-0.417930	-0.145986	1.151934	99
Es	3.111785	-1.096851	-0.694898	99
Es	-2.200262	0.220386	0.386835	99
Es	0.068723	2.706562	0.641575	99
Es	-0.248465	1.591093	0.587978	99
Es	-0.451113	0.939372	0.570757	99
Es	2.425809	-0.982409	-0.695076	99
Es	-0.687651	0.180945	0.560366	99
Es	-2.195055	-0.197430	0.670333	99
Es	-2.122302	0.094534	0.613073	99
Es	1.782445	-1.168155	-0.907343	99
Es	1.823381	-0.939541	-0.383414	99
Es	0.547519	-0.649566	-0.694577	99
Es	1.900636	-0.539457	-0.791077	99
Es	-1.556624	0.154635	0.608859	99
Es	0.226134	2.097224	0.533887	99
Es	0.176712	3.052287	0.663230	99
Es	-0.076682	2.202977	0.775791	99
Es	-0.208951	-0.528805	-0.709375	99
Es	-0.550081	-1.161422	-0.760091	99
37
Properties=species:S:1:pos:R:3:Z:I:1 energy=-321.5927078413141 field_type=dipole dipole="0.000000 0.000000 0.000000" charge=0
O	-2.122521	0.094423	0.612814	8
C	-0.687461	0.180763	0.560424	6
C	-0.209082	-0.528827	-0.709456	6
C	1.242259	-0.779707	-0.699216	6
C	2.425569	-0.982367	-0.695076	6
C	-0.248372	1.591422	0.587984	6
N	0.068849	2.707002	0.641594	7
H	-2.418111	0.649622	1.356954	1
H	-0.308331	-0.338928	1.448304	1
H	-0.484421	0.052433	-1.598786	1
H	-0.735742	-1.486697	-0.807746	1
H	3.477369	-1.159137	-0.697796	1
Es	0.547494	-0.649832	-0.694909	99
Es	-0.248472	1.591096	0.587956	99
Es	-0.392266	2.274249	0.695356	99
Es	0.224835	2.092754	0.698627	99
Es	-0.450593	0.939560	0.567331	99
Es	-0.418207	-0.145710	1.151688	99
Es	1.241944	-0.779663	-0.699212	99
Es	-2.197193	0.219282	0.389734	99
Es	-0.072240	2.215763	0.461003	99
Es	3.111759	-1.097012	-0.694879	99
Es	0.068723	2.706563	0.641573	99
Es	-0.375521	-0.140143	-1.281858	99
Es	1.820182	-0.967421	-0.388759	99
Es	-2.196175	-0.197832	0.668356	99
Es	-2.122331	0.094616	0.612980	99
Es	-2.271763	0.408052	0.997398	99
Es	-0.208950	-0.528806	-0.709374	99
Es	-1.556661	0.154020	0.609483	99
Es	0.176703	3.052477	0.658134	99
Es	-0.429241	-0.151728	-0.072490	99
Es	-0.550279	-1.161336	-0.760450	99
Es	1.785178	-1.147668	-0.932336	99
Es	2.425810	-0.982403	-0.695080	99
Es	-0.687651	0.180945	0.560365	99
Es	1.901119	-0.531808	-0.760545	99
37
Properties=species:S:1:pos:R:3:Z:I:1 energy=-321.5927078413141 field_type=dipole dipole="0.000000 0.000000 0.000000" charge=0
O	-2.122521	0.094423	0.612814	8
C	-0.687461	0.180763	0.560424	6
C	-0.209082	-0.528827	-0.709456	6
C	1.242259	-0.779707	-0.699216	6
C	2.425569	-0.982367	-0.695076	6
C	-0.248372	1.591422	0.587984	6
N	0.068849	2.707002	0.641594	7
H	-2.418111	0.649622	1.356954	1
H	-0.308331	-0.338928	1.448304	1
H	-0.484421	0.052433	-1.598786	1
H	-0.735742	-1.486697	-0.807746	1
H	3.477369	-1.159137	-0.697796	1
Es	-0.429185	-0.151702	-0.072656	99
Es	0.547541	-0.649592	-0.695048	99
Es	1.900801	-0.537510	-0.780905	99
Es	1.822760	-0.945096	-0.386310	99
Es	0.176095	3.052352	0.659129	99
Es	3.111800	-1.096844	-0.694728	99
Es	0.226077	2.092458	0.696321	99
Es	-0.687650	0.180945	0.560365	99
Es	-0.418170	-0.145716	1.151758	99
Es	-2.198331	0.222331	0.388695	99
Es	1.782879	-1.164605	-0.914489	99
Es	-0.072919	2.216198	0.462064	99
Es	-0.375640	-0.140175	-1.281851	99
Es	0.068722	2.706563	0.641574	99
Es	-0.550201	-1.161350	-0.760379	99
Es	-0.392033	2.274055	0.695883	99
Es	-2.122289	0.094687	0.613002	99
Es	-0.248468	1.591095	0.587953	99
Es	1.241942	-0.779658	-0.699213	99
Es	-0.450878	0.939648	0.567140	99
Es	-0.208951	-0.528807	-0.709375	99
Es	-2.270157	0.405356	1.000107	99
Es	2.425810	-0.982408	-0.695069	99
Es	-1.556525	0.153055	0.609511	99
Es	-2.196827	-0.197268	0.666613	99
