44
Properties=species:S:1:pos:R:3:Z:I:1 energy=-360.94436925340483 field_type=dipole dipole="0.000000 0.000000 0.000000" charge=0
O	-2.800340	-0.316817	0.609273	8
C	-1.386680	-0.465597	0.567163	6
C	-0.757621	0.920953	0.509683	6
C	0.763989	0.878372	0.537563	6
C	1.308650	0.282893	-0.730517	6
N	1.926869	-0.852707	-0.710547	7
O	2.320169	-1.173657	-2.013847	8
H	-3.178530	-1.212237	0.650023	1
H	-1.130490	-1.057137	-0.317127	1
H	-1.066960	-1.005077	1.464413	1
H	-1.118181	1.512043	1.360653	1
H	-1.112561	1.442403	-0.388107	1
H	1.123479	0.311922	1.403353	1
H	1.156620	1.898392	0.611203	1
H	1.145370	0.846512	-1.666127	1
H	2.806220	-2.010257	-1.887057	1
Es	-2.985961	-0.808457	0.631027	99
Es	2.056760	-1.229886	-2.161573	99
Es	-1.386900	-0.465538	0.567173	99
Es	-1.156295	-0.837785	1.186487	99
Es	-1.202208	-0.872053	-0.040237	99
Es	-2.866486	-0.180106	0.877281	99
Es	-0.757564	0.920915	0.509677	99
Es	1.403304	-0.496063	-0.759606	99
Es	-1.062311	0.225122	0.536250	99
Es	-0.995129	1.317260	1.092259	99
Es	2.015442	-1.096765	-0.432691	99
Es	1.196014	0.663850	-1.357481	99
Es	-2.882689	-0.198971	0.338386	99
Es	1.030977	1.566772	0.577407	99
Es	-2.268150	-0.396185	0.594466	99
Es	0.016137	0.886526	0.509719	99
Es	1.926764	-0.852367	-0.711054	99
Es	0.763979	0.878352	0.537486	99
Es	-2.800156	-0.317142	0.609230	99
Es	2.580763	-1.621562	-1.941084	99
Es	-0.989106	1.270609	-0.108917	99
Es	1.040870	0.568557	-0.104542	99
Es	1.002870	0.492711	1.120612	99
Es	1.308630	0.282915	-0.730491	99
Es	2.516150	-0.950525	-2.094103	99
Es	2.149283	-1.034058	-1.445832	99
Es	1.909934	-0.216048	-0.676818	99
Es	2.320281	-1.173850	-2.013524	99
44
Properties=species:S:1:pos:R:3:Z:I:1 energy=-360.94436925340483 field_type=dipole dipole="0.000000 0.000000 0.000000" charge=0
O	-2.800340	-0.316817	0.609273	8
C	-1.386680	-0.465597	0.567163	6
C	-0.757621	0.920953	0.509683	6
C	0.763989	0.878372	0.537563	6
C	1.308650	0.282893	-0.730517	6
N	1.926869	-0.852707	-0.710547	7
O	2.320169	-1.173657	-2.013847	8
H	-3.178530	-1.212237	0.650023	1
H	-1.130490	-1.057137	-0.317127	1
H	-1.066960	-1.005077	1.464413	1
H	-1.118181	1.512043	1.360653	1
H	-1.112561	1.442403	-0.388107	1
H	1.123479	0.311922	1.403353	1
H	1.156620	1.898392	0.611203	1
H	1.145370	0.846512	-1.666127	1
H	2.806220	-2.010257	-1.887057	1
Es	-2.872335	-0.169101	0.878903	99
Es	-2.876321	-0.209246	0.336848	99
Es	2.063980	-1.225949	-2.154434	99
Es	1.308634	0.282916	-0.730490	99
Es	1.404420	-0.494823	-0.761168	99
Es	1.030501	1.567514	0.577831	99
Es	-2.984393	-0.808104	0.630834	99
Es	0.016614	0.886194	0.509231	99
Es	-1.156876	-0.837239	1.186161	99
Es	1.040612	0.568337	-0.105045	99
Es	1.196487	0.663584	-1.357167	99
Es	-0.757564	0.920916	0.509675	99
Es	-0.995440	1.318603	1.093254	99
Es	-2.800190	-0.317110	0.609327	99
Es	1.926750	-0.852345	-0.711031	99
Es	-1.201994	-0.872914	-0.040619	99
Es	2.148269	-1.032233	-1.445975	99
Es	2.510264	-0.951403	-2.096781	99
Es	-0.988219	1.269760	-0.108640	99
Es	-1.061949	0.224977	0.536238	99
Es	2.014176	-1.096680	-0.431214	99
Es	1.909001	-0.216034	-0.678111	99
Es	2.320212	-1.173750	-2.013738	99
Es	-1.386909	-0.465536	0.567172	99
Es	-2.269929	-0.397038	0.594636	99
Es	1.002102	0.492855	1.120574	99
Es	0.763978	0.878354	0.537486	99
Es	2.581321	-1.628278	-1.944250	99
44
Properties=species:S:1:pos:R:3:Z:I:1 energy=-360.94436925340483 field_type=dipole dipole="0.000000 0.000000 0.000000" charge=0
O	-2.800340	-0.316817	0.609273	8
C	-1.386680	-0.465597	0.567163	6
C	-0.757621	0.920953	0.509683	6
C	0.763989	0.878372	0.537563	6
C	1.308650	0.282893	-0.730517	6
N	1.926869	-0.852707	-0.710547	7
O	2.320169	-1.173657	-2.013847	8
H	-3.178530	-1.212237	0.650023	1
H	-1.130490	-1.057137	-0.317127	1
H	-1.066960	-1.005077	1.464413	1
H	-1.118181	1.512043	1.360653	1
H	-1.112561	1.442403	-0.388107	1
H	1.123479	0.311922	1.403353	1
H	1.156620	1.898392	0.611203	1
H	1.145370	0.846512	-1.666127	1
H	2.806220	-2.010257	-1.887057	1
Es	-2.983189	-0.807674	0.632944	99
Es	-1.157122	-0.837129	1.186053	99
Es	1.405423	-0.493849	-0.762220	99
Es	2.069810	-1.226430	-2.147070	99
Es	0.763977	0.878353	0.537485	99
Es	2.147513	-1.030217	-1.446135	99
Es	-0.987752	1.269219	-0.108860	99
Es	-2.865252	-0.228293	0.337809	99
Es	-2.270688	-0.397121	0.597006	99
Es	-2.800182	-0.317165	0.609217	99
Es	1.001638	0.492746	1.120781	99
Es	-1.201995	-0.873218	-0.040744	99
Es	-2.883692	-0.150088	0.873610	99
Es	-1.386904	-0.465537	0.567171	99
Es	2.013947	-1.096820	-0.429532	99
Es	1.308630	0.282917	-0.730491	99
Es	0.017127	0.886138	0.509099	99
Es	1.030024	1.568094	0.577967	99
Es	2.583823	-1.630633	-1.946273	99
Es	2.320156	-1.173924	-2.013506	99
Es	-1.061428	0.224744	0.536393	99
Es	-0.995791	1.319283	1.093510	99
Es	1.907911	-0.216149	-0.679502	99
Es	2.503135	-0.951264	-2.101286	99
Es	1.926745	-0.852349	-0.710997	99
Es	1.040424	0.568195	-0.105487	99
Es	1.196480	0.663483	-1.357112	99
Es	-0.757565	0.920915	0.509678	99
44
Properties=species:S:1:pos:R:3:Z:I:1 energy=-360.94436925340483 field_type=dipole dipole="0.000000 0.000000 0.000000" charge=0
O	-2.800340	-0.316817	0.609273	8
C	-1.386680	-0.465597	0.567163	6
C	-0.757621	0.920953	0.509683	6
C	0.763989	0.878372	0.537563	6
C	1.308650	0.282893	-0.730517	6
N	1.926869	-0.852707	-0.710547	7
O	2.320169	-1.173657	-2.013847	8
H	-3.178530	-1.212237	0.650023	1
H	-1.130490	-1.057137	-0.317127	1
H	-1.066960	-1.005077	1.464413	1
H	-1.118181	1.512043	1.360653	1
H	-1.112561	1.442403	-0.388107	1
H	1.123479	0.311922	1.403353	1
H	1.156620	1.898392	0.611203	1
H	1.145370	0.846512	-1.666127	1
H	2.806220	-2.010257	-1.887057	1
Es	-1.202027	-0.873321	-0.040817	99
Es	-2.982052	-0.806729	0.637767	99
Es	-2.898673	-0.126003	0.858828	99
Es	-1.386902	-0.465536	0.567175	99
Es	-0.987673	1.269299	-0.108949	99
Es	1.926782	-0.852384	-0.711065	99
Es	-0.757564	0.920915	0.509678	99
Es	1.196268	0.663312	-1.357245	99
Es	0.017794	0.885788	0.508825	99
Es	2.495763	-0.950208	-2.109074	99
Es	2.320473	-1.173723	-2.013441	99
Es	1.406176	-0.493090	-0.762843	99
Es	-2.850987	-0.253193	0.343161	99
Es	1.308637	0.282921	-0.730489	99
Es	-0.995684	1.319378	1.093807	99
Es	2.014415	-1.096604	-0.427928	99
Es	-2.800189	-0.317132	0.609319	99
Es	-2.270975	-0.396986	0.601473	99
Es	2.148048	-1.027680	-1.446220	99
Es	1.001690	0.492443	1.121290	99
Es	0.763978	0.878352	0.537485	99
Es	-1.157166	-0.837087	1.186217	99
Es	1.906740	-0.216525	-0.680847	99
Es	1.040028	0.568364	-0.105728	99
Es	-1.061310	0.224479	0.536221	99
Es	2.585824	-1.631358	-1.947289	99
Es	2.074463	-1.230052	-2.137510	99
Es	1.029327	1.568587	0.577709	99
44
Properties=species:S:1:pos:R:3:Z:I:1 energy=-360.94436925340483 field_type=dipole dipole="0.000000 0.000000 0.000000" charge=0
O	-2.800340	-0.316817	0.609273	8
C	-1.386680	-0.465597	0.567163	6
C	-0.757621	0.920953	0.509683	6
C	0.763989	0.878372	0.537563	6
C	1.308650	0.282893	-0.730517	6
N	1.926869	-0.852707	-0.710547	7
O	2.320169	-1.173657	-2.013847	8
H	-3.178530	-1.212237	0.650023	1
H	-1.130490	-1.057137	-0.317127	1
H	-1.066960	-1.005077	1.464413	1
H	-1.118181	1.512043	1.360653	1
H	-1.112561	1.442403	-0.388107	1
H	1.123479	0.311922	1.403353	1
H	1.156620	1.898392	0.611203	1
H	1.145370	0.846512	-1.666127	1
H	2.806220	-2.010257	-1.887057	1
Es	1.926750	-0.852343	-0.711049	99
Es	2.145082	-1.027017	-1.446899	99
Es	0.763978	0.878352	0.537485	99
Es	1.308633	0.282921	-0.730489	99
Es	-2.800147	-0.317135	0.609290	99
Es	2.320079	-1.173986	-2.013535	99
Es	1.407382	-0.492438	-0.763157	99
Es	1.196191	0.663482	-1.357455	99
Es	0.018619	0.885234	0.508717	99
Es	-2.838480	-0.277062	0.356005	99
Es	1.905325	-0.216963	-0.681967	99
Es	1.039665	0.568530	-0.105969	99
Es	-1.202226	-0.872999	-0.040966	99
Es	-0.757564	0.920916	0.509677	99
Es	1.001804	0.491922	1.121944	99
Es	-0.987559	1.269330	-0.109510	99
Es	-2.911222	-0.102796	0.838428	99
Es	-2.271516	-0.396672	0.603000	99
Es	-1.157026	-0.837442	1.186566	99
Es	-0.995599	1.319482	1.094086	99
Es	2.075677	-1.221154	-2.147592	99
Es	2.499715	-0.957282	-2.096704	99
Es	1.028171	1.569259	0.577532	99
Es	2.583914	-1.633513	-1.948528	99
Es	-1.061047	0.224238	0.536228	99
Es	2.014766	-1.096966	-0.426568	99
Es	-1.386903	-0.465537	0.567174	99
Es	-2.981257	-0.806134	0.643766	99
44
Properties=species:S:1:pos:R:3:Z:I:1 energy=-360.94436925340483 field_type=dipole dipole="0.000000 0.000000 0.000000" charge=0
O	-2.800340	-0.316817	0.609273	8
C	-1.386680	-0.465597	0.567163	6
C	-0.757621	0.920953	0.509683	6
C	0.763989	0.878372	0.537563	6
C	1.308650	0.282893	-0.730517	6
N	1.926869	-0.852707	-0.710547	7
O	2.320169	-1.173657	-2.013847	8
H	-3.178530	-1.212237	0.650023	1
H	-1.130490	-1.057137	-0.317127	1
H	-1.066960	-1.005077	1.464413	1
H	-1.118181	1.512043	1.360653	1
H	-1.112561	1.442403	-0.388107	1
H	1.123479	0.311922	1.403353	1
H	1.156620	1.898392	0.611203	1
H	1.145370	0.846512	-1.666127	1
H	2.806220	-2.010257	-1.887057	1
Es	-2.827196	-0.292723	0.369717	99
Es	-0.995551	1.319449	1.094561	99
Es	-2.271867	-0.396629	0.607288	99
Es	-1.060730	0.223872	0.536286	99
Es	1.926749	-0.852344	-0.711048	99
Es	2.587020	-1.632256	-1.948633	99
Es	-2.800143	-0.317136	0.609315	99
Es	-0.757564	0.920916	0.509677	99
Es	1.039574	0.568685	-0.106407	99
Es	-0.987586	1.269333	-0.110065	99
Es	-1.202084	-0.873086	-0.041237	99
Es	1.308627	0.282920	-0.730490	99
Es	1.027331	1.569407	0.577524	99
Es	0.019035	0.884967	0.508744	99
Es	-1.157031	-0.837223	1.186860	99
Es	1.195834	0.663247	-1.357679	99
Es	2.489740	-0.952142	-2.112726	99
Es	-2.981058	-0.805282	0.644848	99
Es	2.079890	-1.231003	-2.131315	99
Es	0.763981	0.878351	0.537485	99
Es	2.147386	-1.023732	-1.446763	99
Es	2.320314	-1.173828	-2.013521	99
Es	1.001798	0.491790	1.122403	99
Es	1.407765	-0.491930	-0.763277	99
Es	2.015754	-1.096722	-0.425613	99
Es	1.904373	-0.217556	-0.682863	99
Es	-2.922256	-0.087582	0.819267	99
Es	-1.386905	-0.465537	0.567172	99
44
Properties=species:S:1:pos:R:3:Z:I:1 energy=-360.94436925340483 field_type=dipole dipole="0.000000 0.000000 0.000000" charge=0
O	-2.800340	-0.316817	0.609273	8
C	-1.386680	-0.465597	0.567163	6
C	-0.757621	0.920953	0.509683	6
C	0.763989	0.878372	0.537563	6
C	1.308650	0.282893	-0.730517	6
N	1.926869	-0.852707	-0.710547	7
O	2.320169	-1.173657	-2.013847	8
H	-3.178530	-1.212237	0.650023	1
H	-1.130490	-1.057137	-0.317127	1
H	-1.066960	-1.005077	1.464413	1
H	-1.118181	1.512043	1.360653	1
H	-1.112561	1.442403	-0.388107	1
H	1.123479	0.311922	1.403353	1
H	1.156620	1.898392	0.611203	1
H	1.145370	0.846512	-1.666127	1
H	2.806220	-2.010257	-1.887057	1
Es	-2.272670	-0.395255	0.609512	99
Es	1.026418	1.569832	0.577461	99
Es	1.039379	0.568633	-0.106715	99
Es	2.487126	-0.953951	-2.113097	99
Es	-2.819776	-0.305771	0.382391	99
Es	2.082413	-1.230474	-2.129801	99
Es	-1.386904	-0.465537	0.567174	99
Es	2.319960	-1.174069	-2.013465	99
Es	-2.979592	-0.805027	0.648590	99
Es	-1.156900	-0.837329	1.187089	99
Es	1.308625	0.282916	-0.730491	99
Es	0.763979	0.878353	0.537485	99
Es	1.903659	-0.217912	-0.683448	99
Es	1.926753	-0.852345	-0.711056	99
Es	0.019615	0.884555	0.508838	99
Es	2.147396	-1.022189	-1.446865	99
Es	1.195589	0.663099	-1.357816	99
Es	-0.995525	1.319522	1.094911	99
Es	-1.060540	0.223390	0.536338	99
Es	2.587494	-1.632416	-1.949678	99
Es	-1.202096	-0.872859	-0.041555	99
Es	2.016230	-1.096378	-0.425023	99
Es	-0.987457	1.269319	-0.110455	99
Es	1.408177	-0.491663	-0.763218	99
Es	-2.930219	-0.075737	0.800622	99
Es	-2.800136	-0.317156	0.609340	99
Es	1.001768	0.491760	1.122764	99
Es	-0.757563	0.920915	0.509677	99
44
Properties=species:S:1:pos:R:3:Z:I:1 energy=-360.94436925340483 field_type=dipole dipole="0.000000 0.000000 0.000000" charge=0
O	-2.800340	-0.316817	0.609273	8
C	-1.386680	-0.465597	0.567163	6
C	-0.757621	0.920953	0.509683	6
C	0.763989	0.878372	0.537563	6
C	1.308650	0.282893	-0.730517	6
N	1.926869	-0.852707	-0.710547	7
O	2.320169	-1.173657	-2.013847	8
H	-3.178530	-1.212237	0.650023	1
H	-1.130490	-1.057137	-0.317127	1
H	-1.066960	-1.005077	1.464413	1
H	-1.118181	1.512043	1.360653	1
H	-1.112561	1.442403	-0.388107	1
H	1.123479	0.311922	1.403353	1
H	1.156620	1.898392	0.611203	1
H	1.145370	0.846512	-1.666127	1
H	2.806220	-2.010257	-1.887057	1
Es	2.591534	-1.630177	-1.949876	99
Es	-1.386902	-0.465537	0.567172	99
Es	-0.995594	1.319573	1.095071	99
Es	-2.800158	-0.317165	0.609134	99
Es	2.151583	-1.018882	-1.446769	99
Es	0.020168	0.884043	0.508794	99
Es	-2.812523	-0.309719	0.394911	99
Es	1.926752	-0.852340	-0.711053	99
Es	1.195036	0.662637	-1.357873	99
Es	1.039410	0.568820	-0.106823	99
Es	0.763978	0.878351	0.537485	99
Es	2.466200	-0.945494	-2.142885	99
Es	2.320346	-1.173809	-2.013489	99
Es	1.308629	0.282918	-0.730490	99
Es	1.407907	-0.491406	-0.763081	99
Es	-1.060628	0.223457	0.536446	99
Es	-2.982112	-0.803250	0.642685	99
Es	-1.157002	-0.836886	1.187212	99
Es	-2.271733	-0.398019	0.613425	99
Es	1.903497	-0.218314	-0.683984	99
Es	1.001900	0.491810	1.122965	99
Es	2.017281	-1.095599	-0.424719	99
Es	-1.201879	-0.873161	-0.041681	99
Es	-2.935824	-0.070501	0.790233	99
Es	2.094567	-1.245123	-2.099719	99
Es	1.025932	1.569958	0.577373	99
Es	-0.987598	1.269127	-0.110634	99
Es	-0.757563	0.920916	0.509677	99
44
Properties=species:S:1:pos:R:3:Z:I:1 energy=-360.94436925340483 field_type=dipole dipole="0.000000 0.000000 0.000000" charge=0
O	-2.800340	-0.316817	0.609273	8
C	-1.386680	-0.465597	0.567163	6
C	-0.757621	0.920953	0.509683	6
C	0.763989	0.878372	0.537563	6
C	1.308650	0.282893	-0.730517	6
N	1.926869	-0.852707	-0.710547	7
O	2.320169	-1.173657	-2.013847	8
H	-3.178530	-1.212237	0.650023	1
H	-1.130490	-1.057137	-0.317127	1
H	-1.066960	-1.005077	1.464413	1
H	-1.118181	1.512043	1.360653	1
H	-1.112561	1.442403	-0.388107	1
H	1.123479	0.311922	1.403353	1
H	1.156620	1.898392	0.611203	1
H	1.145370	0.846512	-1.666127	1
H	2.806220	-2.010257	-1.887057	1
Es	1.926750	-0.852344	-0.711056	99
Es	2.489900	-1.037928	-2.006414	99
Es	1.904510	-0.217027	-0.681463	99
Es	-0.757563	0.920916	0.509677	99
Es	-0.986382	1.268291	-0.109387	99
Es	2.136420	-1.028781	-1.448691	99
Es	-2.980060	-0.808533	0.656069	99
Es	-0.995911	1.321034	1.094464	99
Es	-2.812353	-0.327613	0.435693	99
Es	0.763977	0.878352	0.537485	99
Es	1.026218	1.571048	0.578161	99
Es	2.572887	-1.640462	-1.954156	99
Es	-2.270427	-0.392013	0.591635	99
Es	2.320028	-1.174004	-2.013512	99
Es	2.010990	-1.098577	-0.426112	99
Es	2.105842	-1.132064	-2.230293	99
Es	1.197867	0.663867	-1.357390	99
Es	1.039433	0.567970	-0.106507	99
Es	-2.800141	-0.317144	0.609572	99
Es	-1.202258	-0.873558	-0.041023	99
Es	1.000478	0.492096	1.122185	99
Es	1.308631	0.282919	-0.730490	99
Es	1.409976	-0.491141	-0.764624	99
Es	-2.939162	-0.054458	0.757602	99
Es	0.019842	0.885005	0.508248	99
Es	-1.059996	0.223094	0.536157	99
Es	-1.157389	-0.837180	1.186506	99
Es	-1.386902	-0.465536	0.567172	99
44
Properties=species:S:1:pos:R:3:Z:I:1 energy=-360.94436925340483 field_type=dipole dipole="0.000000 0.000000 0.000000" charge=0
O	-2.800340	-0.316817	0.609273	8
C	-1.386680	-0.465597	0.567163	6
C	-0.757621	0.920953	0.509683	6
C	0.763989	0.878372	0.537563	6
C	1.308650	0.282893	-0.730517	6
N	1.926869	-0.852707	-0.710547	7
O	2.320169	-1.173657	-2.013847	8
H	-3.178530	-1.212237	0.650023	1
H	-1.130490	-1.057137	-0.317127	1
H	-1.066960	-1.005077	1.464413	1
H	-1.118181	1.512043	1.360653	1
H	-1.112561	1.442403	-0.388107	1
H	1.123479	0.311922	1.403353	1
H	1.156620	1.898392	0.611203	1
H	1.145370	0.846512	-1.666127	1
H	2.806220	-2.010257	-1.887057	1
Es	-2.801953	-0.314257	0.424175	99
Es	1.404765	-0.493417	-0.762209	99
Es	2.381773	-0.946737	-2.216082	99
Es	0.763980	0.878354	0.537486	99
Es	-1.386904	-0.465537	0.567173	99
Es	1.040143	0.568904	-0.106131	99
Es	-1.157523	-0.835998	1.186349	99
Es	-0.757564	0.920916	0.509678	99
Es	-2.943699	-0.063904	0.771253	99
Es	-0.987339	1.268420	-0.109134	99
Es	-1.061257	0.224242	0.536324	99
Es	1.926748	-0.852343	-0.711037	99
Es	1.308627	0.282916	-0.730491	99
Es	1.194524	0.661871	-1.357109	99
Es	-2.800152	-0.317162	0.609061	99
Es	0.018616	0.884784	0.508800	99
Es	2.596802	-1.627036	-1.951644	99
Es	2.018350	-1.093679	-0.426878	99
Es	1.028468	1.569003	0.577617	99
Es	2.163917	-1.252852	-2.024417	99
Es	1.905832	-0.216744	-0.683861	99
Es	-2.269889	-0.398081	0.617531	99
Es	1.001911	0.492534	1.121481	99
Es	-1.201429	-0.874156	-0.041372	99
Es	2.320709	-1.173614	-2.013300	99
Es	2.161123	-1.014561	-1.446714	99
Es	-0.996337	1.320080	1.094503	99
Es	-2.987039	-0.805719	0.628455	99
44
Properties=species:S:1:pos:R:3:Z:I:1 energy=-360.94436925340483 field_type=dipole dipole="0.000000 0.000000 0.000000" charge=0
O	-2.800340	-0.316817	0.609273	8
C	-1.386680	-0.465597	0.567163	6
C	-0.757621	0.920953	0.509683	6
C	0.763989	0.878372	0.537563	6
C	1.308650	0.282893	-0.730517	6
N	1.926869	-0.852707	-0.710547	7
O	2.320169	-1.173657	-2.013847	8
H	-3.178530	-1.212237	0.650023	1
H	-1.130490	-1.057137	-0.317127	1
H	-1.066960	-1.005077	1.464413	1
H	-1.118181	1.512043	1.360653	1
H	-1.112561	1.442403	-0.388107	1
H	1.123479	0.311922	1.403353	1
H	1.156620	1.898392	0.611203	1
H	1.145370	0.846512	-1.666127	1
H	2.806220	-2.010257	-1.887057	1
Es	-0.996532	1.320289	1.094438	99
Es	-1.061273	0.224432	0.536388	99
Es	-1.386901	-0.465536	0.567173	99
Es	-2.946326	-0.060047	0.761628	99
Es	1.001694	0.492628	1.121471	99
Es	1.194599	0.661592	-1.357088	99
Es	0.763965	0.878353	0.537487	99
Es	2.374926	-0.949239	-2.219988	99
Es	1.308627	0.282916	-0.730491	99
Es	1.040134	0.568988	-0.106195	99
Es	1.404806	-0.493263	-0.762239	99
Es	1.926751	-0.852341	-0.711050	99
Es	2.018251	-1.093708	-0.426942	99
Es	2.595801	-1.627810	-1.952141	99
Es	-2.987802	-0.805447	0.626635	99
Es	-1.201444	-0.874333	-0.041381	99
Es	-2.800146	-0.317152	0.609229	99
Es	2.160434	-1.013612	-1.446935	99
Es	-2.798340	-0.317850	0.433333	99
Es	-2.270086	-0.398501	0.619698	99
Es	1.905871	-0.216865	-0.683747	99
Es	-0.757563	0.920916	0.509678	99
Es	-1.157610	-0.835887	1.186271	99
Es	2.172559	-1.250462	-2.019814	99
Es	2.320638	-1.173660	-2.013346	99
Es	0.018953	0.884439	0.508948	99
Es	-0.987117	1.268226	-0.109252	99
Es	1.028336	1.569161	0.577740	99
44
Properties=species:S:1:pos:R:3:Z:I:1 energy=-360.94436925340483 field_type=dipole dipole="0.000000 0.000000 0.000000" charge=0
O	-2.800340	-0.316817	0.609273	8
C	-1.386680	-0.465597	0.567163	6
C	-0.757621	0.920953	0.509683	6
C	0.763989	0.878372	0.537563	6
C	1.308650	0.282893	-0.730517	6
N	1.926869	-0.852707	-0.710547	7
O	2.320169	-1.173657	-2.013847	8
H	-3.178530	-1.212237	0.650023	1
H	-1.130490	-1.057137	-0.317127	1
H	-1.066960	-1.005077	1.464413	1
H	-1.118181	1.512043	1.360653	1
H	-1.112561	1.442403	-0.388107	1
H	1.123479	0.311922	1.403353	1
H	1.156620	1.898392	0.611203	1
H	1.145370	0.846512	-1.666127	1
H	2.806220	-2.010257	-1.887057	1
Es	0.018824	0.885348	0.508286	99
Es	-2.804532	-0.329415	0.464733	99
Es	1.040005	0.567787	-0.105845	99
Es	2.010875	-1.097370	-0.428571	99
Es	-1.158073	-0.836219	1.185331	99
Es	1.926745	-0.852343	-0.711029	99
Es	1.308629	0.282918	-0.730491	99
Es	-2.944651	-0.050017	0.740323	99
Es	-0.757564	0.920916	0.509678	99
Es	1.406730	-0.492695	-0.764424	99
Es	1.028526	1.570706	0.578524	99
Es	-1.201909	-0.874768	-0.040460	99
Es	-2.985346	-0.810471	0.644916	99
Es	0.763977	0.878351	0.537484	99
Es	1.000435	0.493058	1.120345	99
Es	2.137909	-1.027875	-1.448169	99
Es	-0.986049	1.267380	-0.107452	99
Es	-1.386903	-0.465537	0.567172	99
Es	2.570783	-1.641843	-1.956445	99
Es	1.907498	-0.215681	-0.680390	99
Es	2.429319	-1.109145	-1.973172	99
Es	-1.060616	0.223648	0.536126	99
Es	-2.799904	-0.317686	0.609186	99
Es	1.197815	0.663384	-1.356527	99
Es	-2.268131	-0.392513	0.591540	99
Es	-0.996590	1.321815	1.093543	99
Es	2.167634	-1.061081	-2.261865	99
Es	2.319767	-1.174424	-2.012838	99
44
Properties=species:S:1:pos:R:3:Z:I:1 energy=-360.94436925340483 field_type=dipole dipole="0.000000 0.000000 0.000000" charge=0
O	-2.800340	-0.316817	0.609273	8
C	-1.386680	-0.465597	0.567163	6
C	-0.757621	0.920953	0.509683	6
C	0.763989	0.878372	0.537563	6
C	1.308650	0.282893	-0.730517	6
N	1.926869	-0.852707	-0.710547	7
O	2.320169	-1.173657	-2.013847	8
H	-3.178530	-1.212237	0.650023	1
H	-1.130490	-1.057137	-0.317127	1
H	-1.066960	-1.005077	1.464413	1
H	-1.118181	1.512043	1.360653	1
H	-1.112561	1.442403	-0.388107	1
H	1.123479	0.311922	1.403353	1
H	1.156620	1.898392	0.611203	1
H	1.145370	0.846512	-1.666127	1
H	2.806220	-2.010257	-1.887057	1
Es	2.162022	-1.066697	-2.260299	99
Es	-0.996713	1.321998	1.093669	99
Es	1.039866	0.567973	-0.106066	99
Es	0.763978	0.878352	0.537485	99
Es	1.308627	0.282917	-0.730490	99
Es	-0.985842	1.267246	-0.107627	99
Es	-2.945519	-0.048075	0.735668	99
Es	-1.158043	-0.836220	1.185451	99
Es	-1.386903	-0.465537	0.567172	99
Es	-0.757564	0.920916	0.509678	99
Es	1.407335	-0.492023	-0.764910	99
Es	1.926750	-0.852345	-0.711057	99
Es	1.907335	-0.216026	-0.680392	99
Es	-2.984757	-0.810157	0.646141	99
Es	-2.799977	-0.317651	0.608836	99
Es	1.027837	1.571041	0.578661	99
Es	-2.268380	-0.392687	0.588094	99
Es	2.319747	-1.174201	-2.013477	99
Es	2.571472	-1.641611	-1.956152	99
Es	-2.803847	-0.331482	0.471958	99
Es	1.197878	0.663362	-1.356562	99
Es	2.138079	-1.027349	-1.448272	99
Es	1.000351	0.492805	1.120599	99
Es	2.434162	-1.104587	-1.974208	99
Es	-1.060433	0.223405	0.536135	99
Es	0.019206	0.885179	0.508192	99
Es	2.010401	-1.097603	-0.428105	99
Es	-1.201864	-0.874715	-0.040612	99
44
Properties=species:S:1:pos:R:3:Z:I:1 energy=-360.94436925340483 field_type=dipole dipole="0.000000 0.000000 0.000000" charge=0
O	-2.800340	-0.316817	0.609273	8
C	-1.386680	-0.465597	0.567163	6
C	-0.757621	0.920953	0.509683	6
C	0.763989	0.878372	0.537563	6
C	1.308650	0.282893	-0.730517	6
N	1.926869	-0.852707	-0.710547	7
O	2.320169	-1.173657	-2.013847	8
H	-3.178530	-1.212237	0.650023	1
H	-1.130490	-1.057137	-0.317127	1
H	-1.066960	-1.005077	1.464413	1
H	-1.118181	1.512043	1.360653	1
H	-1.112561	1.442403	-0.388107	1
H	1.123479	0.311922	1.403353	1
H	1.156620	1.898392	0.611203	1
H	1.145370	0.846512	-1.666127	1
H	2.806220	-2.010257	-1.887057	1
Es	2.137834	-1.027592	-1.448360	99
Es	-2.945817	-0.048638	0.736107	99
Es	1.406768	-0.492586	-0.764637	99
Es	2.420739	-1.116528	-1.970911	99
Es	-0.757564	0.920916	0.509677	99
Es	1.926748	-0.852340	-0.711050	99
Es	1.028277	1.570998	0.578534	99
Es	-0.997005	1.322445	1.093355	99
Es	2.174922	-1.055296	-2.262891	99
Es	0.763978	0.878352	0.537485	99
Es	1.000270	0.493188	1.120340	99
Es	-2.985257	-0.810594	0.644618	99
Es	2.319962	-1.174086	-2.013464	99
Es	-2.268385	-0.392437	0.592736	99
Es	-1.201777	-0.875020	-0.040481	99
Es	-1.158218	-0.835973	1.185198	99
Es	-1.060606	0.223456	0.536162	99
Es	0.019075	0.885075	0.508205	99
Es	2.010733	-1.096950	-0.428356	99
Es	-0.985538	1.266819	-0.107207	99
Es	1.040036	0.567808	-0.105842	99
Es	1.197757	0.663143	-1.356430	99
Es	-1.386902	-0.465537	0.567172	99
Es	1.308632	0.282919	-0.730490	99
Es	2.572135	-1.641467	-1.956470	99
Es	-2.803020	-0.331085	0.467699	99
Es	1.907559	-0.215581	-0.680741	99
Es	-2.800132	-0.317184	0.609551	99
44
Properties=species:S:1:pos:R:3:Z:I:1 energy=-360.94436925340483 field_type=dipole dipole="0.000000 0.000000 0.000000" charge=0
O	-2.800340	-0.316817	0.609273	8
C	-1.386680	-0.465597	0.567163	6
C	-0.757621	0.920953	0.509683	6
C	0.763989	0.878372	0.537563	6
C	1.308650	0.282893	-0.730517	6
N	1.926869	-0.852707	-0.710547	7
O	2.320169	-1.173657	-2.013847	8
H	-3.178530	-1.212237	0.650023	1
H	-1.130490	-1.057137	-0.317127	1
H	-1.066960	-1.005077	1.464413	1
H	-1.118181	1.512043	1.360653	1
H	-1.112561	1.442403	-0.388107	1
H	1.123479	0.311922	1.403353	1
H	1.156620	1.898392	0.611203	1
H	1.145370	0.846512	-1.666127	1
H	2.806220	-2.010257	-1.887057	1
Es	-2.800122	-0.317152	0.609450	99
Es	-1.201520	-0.875264	-0.040362	99
Es	-2.948644	-0.050472	0.735619	99
Es	1.308631	0.282918	-0.730490	99
Es	1.196852	0.662408	-1.356056	99
Es	2.148686	-1.020669	-1.446403	99
Es	1.908810	-0.214905	-0.680955	99
Es	2.582127	-1.636571	-1.955988	99
Es	2.336285	-1.170494	-1.989522	99
Es	-2.798789	-0.328498	0.471999	99
Es	1.403928	-0.494367	-0.763370	99
Es	1.000737	0.493280	1.119410	99
Es	1.926749	-0.852341	-0.711048	99
Es	0.018279	0.885148	0.508461	99
Es	-1.061164	0.224205	0.536328	99
Es	-0.757563	0.920916	0.509677	99
Es	2.237146	-1.008229	-2.265922	99
Es	-0.997140	1.321969	1.093070	99
Es	2.013409	-1.095277	-0.429611	99
Es	2.320984	-1.179214	-1.994218	99
Es	-0.985908	1.266948	-0.106745	99
Es	-1.386904	-0.465537	0.567173	99
Es	-2.988258	-0.810957	0.631692	99
Es	1.040373	0.568501	-0.105536	99
Es	1.029757	1.570152	0.578712	99
Es	-1.158440	-0.835664	1.184748	99
Es	0.763978	0.878351	0.537485	99
Es	-2.267076	-0.392958	0.601911	99
44
Properties=species:S:1:pos:R:3:Z:I:1 energy=-360.94436925340483 field_type=dipole dipole="0.000000 0.000000 0.000000" charge=0
O	-2.800340	-0.316817	0.609273	8
C	-1.386680	-0.465597	0.567163	6
C	-0.757621	0.920953	0.509683	6
C	0.763989	0.878372	0.537563	6
C	1.308650	0.282893	-0.730517	6
N	1.926869	-0.852707	-0.710547	7
O	2.320169	-1.173657	-2.013847	8
H	-3.178530	-1.212237	0.650023	1
H	-1.130490	-1.057137	-0.317127	1
H	-1.066960	-1.005077	1.464413	1
H	-1.118181	1.512043	1.360653	1
H	-1.112561	1.442403	-0.388107	1
H	1.123479	0.311922	1.403353	1
H	1.156620	1.898392	0.611203	1
H	1.145370	0.846512	-1.666127	1
H	2.806220	-2.010257	-1.887057	1
Es	1.000369	0.493159	1.120146	99
Es	1.406067	-0.492969	-0.764482	99
Es	1.197609	0.662933	-1.356318	99
Es	1.926753	-0.852343	-0.711061	99
Es	1.308632	0.282918	-0.730490	99
Es	1.907669	-0.215477	-0.680950	99
Es	-2.800087	-0.317230	0.609617	99
Es	1.040042	0.568051	-0.105929	99
Es	2.319268	-1.174630	-2.013142	99
Es	2.138650	-1.026945	-1.448101	99
Es	-2.800414	-0.331749	0.477203	99
Es	-2.985983	-0.810633	0.639562	99
Es	2.011363	-1.096436	-0.428534	99
Es	-1.201637	-0.875245	-0.040504	99
Es	2.573548	-1.640872	-1.956640	99
Es	-0.985593	1.266778	-0.107044	99
Es	-1.386902	-0.465537	0.567172	99
Es	0.763978	0.878352	0.537485	99
Es	1.028240	1.571078	0.578661	99
Es	0.019116	0.885005	0.508180	99
Es	-2.948041	-0.047283	0.730622	99
Es	2.188344	-1.044199	-2.264838	99
Es	-0.997037	1.322434	1.093449	99
Es	-1.060534	0.223480	0.536260	99
Es	2.405835	-1.128526	-1.969192	99
Es	-2.268083	-0.393040	0.593700	99
Es	-1.158405	-0.835764	1.184998	99
Es	-0.757564	0.920916	0.509678	99
44
Properties=species:S:1:pos:R:3:Z:I:1 energy=-360.94436925340483 field_type=dipole dipole="0.000000 0.000000 0.000000" charge=0
O	-2.800340	-0.316817	0.609273	8
C	-1.386680	-0.465597	0.567163	6
C	-0.757621	0.920953	0.509683	6
C	0.763989	0.878372	0.537563	6
C	1.308650	0.282893	-0.730517	6
N	1.926869	-0.852707	-0.710547	7
O	2.320169	-1.173657	-2.013847	8
H	-3.178530	-1.212237	0.650023	1
H	-1.130490	-1.057137	-0.317127	1
H	-1.066960	-1.005077	1.464413	1
H	-1.118181	1.512043	1.360653	1
H	-1.112561	1.442403	-0.388107	1
H	1.123479	0.311922	1.403353	1
H	1.156620	1.898392	0.611203	1
H	1.145370	0.846512	-1.666127	1
H	2.806220	-2.010257	-1.887057	1
Es	-0.997269	1.322680	1.093364	99
Es	1.406084	-0.492907	-0.764476	99
Es	1.308624	0.282914	-0.730491	99
Es	2.188111	-1.044519	-2.264857	99
Es	-2.799976	-0.333417	0.482731	99
Es	2.011415	-1.096510	-0.428553	99
Es	1.907777	-0.215494	-0.680897	99
Es	0.763978	0.878352	0.537485	99
Es	-2.948334	-0.045701	0.726108	99
Es	-1.201623	-0.875379	-0.040464	99
Es	-2.986044	-0.810433	0.641183	99
Es	-1.060423	0.223318	0.536152	99
Es	-1.386900	-0.465536	0.567174	99
Es	1.926748	-0.852339	-0.711054	99
Es	2.402020	-1.131275	-1.969410	99
Es	-2.800127	-0.317167	0.609522	99
Es	1.040010	0.568129	-0.105975	99
Es	1.197600	0.662823	-1.356296	99
Es	1.000315	0.493145	1.120073	99
Es	-0.985400	1.266513	-0.107004	99
Es	2.140748	-1.025014	-1.447670	99
Es	-0.757564	0.920918	0.509677	99
Es	-2.268154	-0.393091	0.591171	99
Es	2.574273	-1.640523	-1.956575	99
Es	0.019271	0.884873	0.508216	99
Es	-1.158406	-0.835624	1.185038	99
Es	2.320413	-1.173771	-2.013452	99
Es	1.028037	1.571264	0.578790	99
44
Properties=species:S:1:pos:R:3:Z:I:1 energy=-360.94436925340483 field_type=dipole dipole="0.000000 0.000000 0.000000" charge=0
O	-2.800340	-0.316817	0.609273	8
C	-1.386680	-0.465597	0.567163	6
C	-0.757621	0.920953	0.509683	6
C	0.763989	0.878372	0.537563	6
C	1.308650	0.282893	-0.730517	6
N	1.926869	-0.852707	-0.710547	7
O	2.320169	-1.173657	-2.013847	8
H	-3.178530	-1.212237	0.650023	1
H	-1.130490	-1.057137	-0.317127	1
H	-1.066960	-1.005077	1.464413	1
H	-1.118181	1.512043	1.360653	1
H	-1.112561	1.442403	-0.388107	1
H	1.123479	0.311922	1.403353	1
H	1.156620	1.898392	0.611203	1
H	1.145370	0.846512	-1.666127	1
H	2.806220	-2.010257	-1.887057	1
Es	1.308630	0.282918	-0.730490	99
Es	-1.060933	0.223939	0.536225	99
Es	1.000409	0.493455	1.119825	99
Es	2.012832	-1.095686	-0.428881	99
Es	1.926748	-0.852339	-0.711051	99
Es	1.404976	-0.493603	-0.763878	99
Es	-2.950152	-0.046472	0.724504	99
Es	-0.757564	0.920916	0.509679	99
Es	2.217477	-1.021854	-2.266556	99
Es	-0.997278	1.322459	1.093280	99
Es	2.366919	-1.156066	-1.970609	99
Es	2.145489	-1.022268	-1.446893	99
Es	-2.267325	-0.393335	0.594600	99
Es	0.763978	0.878352	0.537485	99
Es	1.908014	-0.215329	-0.681227	99
Es	1.040251	0.568127	-0.105800	99
Es	-2.799380	-0.318680	0.608304	99
Es	2.318130	-1.175912	-2.011400	99
Es	1.197145	0.662473	-1.356212	99
Es	-1.201513	-0.875429	-0.040458	99
Es	-2.987723	-0.810813	0.631712	99
Es	-2.798157	-0.330636	0.491603	99
Es	1.028956	1.570578	0.578677	99
Es	-1.158412	-0.835490	1.184926	99
Es	-0.985622	1.266579	-0.106886	99
Es	0.018841	0.884982	0.508350	99
Es	-1.386903	-0.465537	0.567172	99
Es	2.577370	-1.639101	-1.956491	99
