43
Properties=species:S:1:pos:R:3:Z:I:1 energy=-323.94345127552674 field_type=dipole dipole="0.000000 0.000000 0.000000" charge=0
O	-2.067715	-2.330269	-0.222017	8
C	-1.783495	-1.852569	0.871793	6
C	-0.866905	-0.676399	1.081383	6
C	-0.413395	-0.072829	-0.242407	6
N	0.463195	1.074331	0.033693	7
C	1.870914	0.830011	-0.270367	6
C	1.014405	1.665651	-1.183197	6
H	-2.193105	-2.293709	1.796263	1
H	-0.010505	-1.025219	1.668743	1
H	-1.413495	0.064121	1.676683	1
H	-1.293125	0.275691	-0.799687	1
H	0.065475	-0.842139	-0.862407	1
H	2.177715	-0.152499	-0.605967	1
H	2.585744	1.342351	0.361843	1
H	1.146205	2.740591	-1.164197	1
H	0.718085	1.252881	-2.140157	1
Es	-1.012267	0.169143	-0.615672	99
Es	0.574437	1.374802	-0.541628	99
Es	-0.302055	-0.927323	1.474389	99
Es	-0.641769	-0.387272	0.430317	99
Es	-2.163387	-2.001107	0.158956	99
Es	2.358666	1.173759	0.161819	99
Es	-0.071628	-0.594552	-0.662313	99
Es	0.380969	1.289139	0.307612	99
Es	1.618504	1.282281	-0.860731	99
Es	-0.413322	-0.072740	-0.242306	99
Es	-1.245417	-0.194809	1.480025	99
Es	1.101492	2.396225	-1.174168	99
Es	2.070686	0.156311	-0.494768	99
Es	0.109580	0.566059	-0.109686	99
Es	-2.067637	-2.330141	-0.221745	99
Es	-1.929660	-2.176639	-0.456194	99
Es	1.086813	0.863627	0.012979	99
Es	-2.260283	-2.576254	-0.202455	99
Es	1.870680	0.830078	-0.270373	99
Es	-1.324395	-1.263475	0.972530	99
Es	-1.765967	-2.310606	0.189432	99
Es	0.463408	1.073970	0.033161	99
Es	-2.060173	-2.147161	1.515905	99
Es	-0.866936	-0.676453	1.081370	99
Es	0.806896	1.379650	-1.830467	99
Es	-1.783482	-1.852562	0.871794	99
Es	1.014377	1.665516	-1.182989	99
43
Properties=species:S:1:pos:R:3:Z:I:1 energy=-323.94345127552674 field_type=dipole dipole="0.000000 0.000000 0.000000" charge=0
O	-2.067715	-2.330269	-0.222017	8
C	-1.783495	-1.852569	0.871793	6
C	-0.866905	-0.676399	1.081383	6
C	-0.413395	-0.072829	-0.242407	6
N	0.463195	1.074331	0.033693	7
C	1.870914	0.830011	-0.270367	6
C	1.014405	1.665651	-1.183197	6
H	-2.193105	-2.293709	1.796263	1
H	-0.010505	-1.025219	1.668743	1
H	-1.413495	0.064121	1.676683	1
H	-1.293125	0.275691	-0.799687	1
H	0.065475	-0.842139	-0.862407	1
H	2.177715	-0.152499	-0.605967	1
H	2.585744	1.342351	0.361843	1
H	1.146205	2.740591	-1.164197	1
H	0.718085	1.252881	-2.140157	1
Es	-2.059641	-2.147388	1.516102	99
Es	-1.245851	-0.195501	1.479535	99
Es	-1.323823	-1.262617	0.972804	99
Es	-2.163380	-2.002059	0.159223	99
Es	-2.259341	-2.567622	-0.196691	99
Es	-2.067612	-2.330116	-0.221729	99
Es	-0.071326	-0.594165	-0.661781	99
Es	1.100807	2.394513	-1.173293	99
Es	0.806439	1.379583	-1.832442	99
Es	1.087311	0.861952	0.014003	99
Es	2.359325	1.173206	0.163052	99
Es	-1.933895	-2.178445	-0.464010	99
Es	0.463404	1.073984	0.033179	99
Es	-1.783486	-1.852560	0.871793	99
Es	-0.413322	-0.072740	-0.242306	99
Es	2.069723	0.157197	-0.494491	99
Es	-0.301257	-0.928293	1.475388	99
Es	1.618074	1.283872	-0.860696	99
Es	1.014377	1.665519	-1.182992	99
Es	1.870682	0.830081	-0.270377	99
Es	0.112441	0.566708	-0.111082	99
Es	-1.763544	-2.315455	0.190860	99
Es	-1.012580	0.169493	-0.616500	99
Es	-0.866935	-0.676454	1.081370	99
Es	0.575946	1.374473	-0.543441	99
Es	0.377745	1.289663	0.309257	99
Es	-0.642149	-0.387363	0.430062	99
43
Properties=species:S:1:pos:R:3:Z:I:1 energy=-323.94345127552674 field_type=dipole dipole="0.000000 0.000000 0.000000" charge=0
O	-2.067715	-2.330269	-0.222017	8
C	-1.783495	-1.852569	0.871793	6
C	-0.866905	-0.676399	1.081383	6
C	-0.413395	-0.072829	-0.242407	6
N	0.463195	1.074331	0.033693	7
C	1.870914	0.830011	-0.270367	6
C	1.014405	1.665651	-1.183197	6
H	-2.193105	-2.293709	1.796263	1
H	-0.010505	-1.025219	1.668743	1
H	-1.413495	0.064121	1.676683	1
H	-1.293125	0.275691	-0.799687	1
H	0.065475	-0.842139	-0.862407	1
H	2.177715	-0.152499	-0.605967	1
H	2.585744	1.342351	0.361843	1
H	1.146205	2.740591	-1.164197	1
H	0.718085	1.252881	-2.140157	1
Es	-1.012852	0.169730	-0.616772	99
Es	1.086862	0.860789	0.011689	99
Es	0.377122	1.290210	0.311989	99
Es	-0.413324	-0.072738	-0.242306	99
Es	1.618228	1.284301	-0.860580	99
Es	1.014387	1.665518	-1.182997	99
Es	0.463399	1.074001	0.033196	99
Es	-2.164897	-2.002833	0.157869	99
Es	-2.255241	-2.561519	-0.188431	99
Es	0.113706	0.567336	-0.111941	99
Es	-1.323619	-1.262537	0.973028	99
Es	0.576533	1.374518	-0.543799	99
Es	1.870688	0.830079	-0.270378	99
Es	-0.866935	-0.676453	1.081370	99
Es	-0.300629	-0.928265	1.476174	99
Es	-1.938390	-2.182892	-0.472806	99
Es	-2.067605	-2.330097	-0.221738	99
Es	-0.071212	-0.593897	-0.661656	99
Es	1.100558	2.392997	-1.172658	99
Es	-1.783485	-1.852560	0.871793	99
Es	-1.762262	-2.315665	0.192588	99
Es	-1.245952	-0.196052	1.478827	99
Es	0.805842	1.379769	-1.833762	99
Es	-0.642349	-0.387552	0.429963	99
Es	2.068973	0.157928	-0.494172	99
Es	-2.059241	-2.147575	1.516210	99
Es	2.359824	1.172924	0.164096	99
43
Properties=species:S:1:pos:R:3:Z:I:1 energy=-323.94345127552674 field_type=dipole dipole="0.000000 0.000000 0.000000" charge=0
O	-2.067715	-2.330269	-0.222017	8
C	-1.783495	-1.852569	0.871793	6
C	-0.866905	-0.676399	1.081383	6
C	-0.413395	-0.072829	-0.242407	6
N	0.463195	1.074331	0.033693	7
C	1.870914	0.830011	-0.270367	6
C	1.014405	1.665651	-1.183197	6
H	-2.193105	-2.293709	1.796263	1
H	-0.010505	-1.025219	1.668743	1
H	-1.413495	0.064121	1.676683	1
H	-1.293125	0.275691	-0.799687	1
H	0.065475	-0.842139	-0.862407	1
H	2.177715	-0.152499	-0.605967	1
H	2.585744	1.342351	0.361843	1
H	1.146205	2.740591	-1.164197	1
H	0.718085	1.252881	-2.140157	1
Es	1.100283	2.391808	-1.172258	99
Es	0.463379	1.073996	0.033216	99
Es	-1.761627	-2.316825	0.192547	99
Es	1.870682	0.830082	-0.270382	99
Es	-2.059056	-2.147634	1.516210	99
Es	-0.071161	-0.593743	-0.661416	99
Es	2.068510	0.158527	-0.494051	99
Es	0.805667	1.379839	-1.834704	99
Es	-2.067637	-2.330136	-0.221709	99
Es	1.087027	0.860094	0.011575	99
Es	-2.252981	-2.556125	-0.181801	99
Es	-1.783481	-1.852562	0.871794	99
Es	1.617809	1.284771	-0.860189	99
Es	1.014377	1.665518	-1.182992	99
Es	-1.246123	-0.196262	1.478332	99
Es	2.360186	1.172829	0.164825	99
Es	0.114821	0.567668	-0.112268	99
Es	-1.012997	0.169786	-0.617079	99
Es	-0.413324	-0.072738	-0.242306	99
Es	-1.323394	-1.262463	0.973247	99
Es	-0.866936	-0.676454	1.081370	99
Es	-0.642460	-0.387834	0.429836	99
Es	0.577497	1.373787	-0.544740	99
Es	-1.942035	-2.187344	-0.479387	99
Es	0.375862	1.291299	0.312703	99
Es	-2.164422	-2.002195	0.157710	99
Es	-0.300332	-0.928223	1.476715	99
43
Properties=species:S:1:pos:R:3:Z:I:1 energy=-323.94345127552674 field_type=dipole dipole="0.000000 0.000000 0.000000" charge=0
O	-2.067715	-2.330269	-0.222017	8
C	-1.783495	-1.852569	0.871793	6
C	-0.866905	-0.676399	1.081383	6
C	-0.413395	-0.072829	-0.242407	6
N	0.463195	1.074331	0.033693	7
C	1.870914	0.830011	-0.270367	6
C	1.014405	1.665651	-1.183197	6
H	-2.193105	-2.293709	1.796263	1
H	-0.010505	-1.025219	1.668743	1
H	-1.413495	0.064121	1.676683	1
H	-1.293125	0.275691	-0.799687	1
H	0.065475	-0.842139	-0.862407	1
H	2.177715	-0.152499	-0.605967	1
H	2.585744	1.342351	0.361843	1
H	1.146205	2.740591	-1.164197	1
H	0.718085	1.252881	-2.140157	1
Es	-0.642563	-0.387823	0.429757	99
Es	1.014377	1.665519	-1.182993	99
Es	-1.323398	-1.262496	0.973303	99
Es	0.463412	1.073993	0.033179	99
Es	-1.948712	-2.194907	-0.487920	99
Es	1.100041	2.390968	-1.171927	99
Es	-2.067662	-2.330164	-0.221656	99
Es	-2.162855	-2.001134	0.156715	99
Es	-2.249830	-2.549749	-0.171745	99
Es	-0.413320	-0.072738	-0.242306	99
Es	0.115509	0.567919	-0.112861	99
Es	-0.300071	-0.928122	1.477146	99
Es	-0.071159	-0.593676	-0.661186	99
Es	2.360465	1.172759	0.165406	99
Es	0.375383	1.291656	0.313911	99
Es	0.578160	1.373643	-0.544881	99
Es	1.617466	1.285094	-0.860027	99
Es	-2.058991	-2.147607	1.516244	99
Es	-0.866935	-0.676454	1.081370	99
Es	2.068138	0.159022	-0.493971	99
Es	1.870682	0.830082	-0.270382	99
Es	0.805450	1.379949	-1.835326	99
Es	-1.246000	-0.196585	1.477899	99
Es	1.087044	0.859588	0.010635	99
Es	-1.783482	-1.852562	0.871794	99
Es	-1.013124	0.169738	-0.617301	99
Es	-1.759895	-2.316451	0.191919	99
43
Properties=species:S:1:pos:R:3:Z:I:1 energy=-323.94345127552674 field_type=dipole dipole="0.000000 0.000000 0.000000" charge=0
O	-2.067715	-2.330269	-0.222017	8
C	-1.783495	-1.852569	0.871793	6
C	-0.866905	-0.676399	1.081383	6
C	-0.413395	-0.072829	-0.242407	6
N	0.463195	1.074331	0.033693	7
C	1.870914	0.830011	-0.270367	6
C	1.014405	1.665651	-1.183197	6
H	-2.193105	-2.293709	1.796263	1
H	-0.010505	-1.025219	1.668743	1
H	-1.413495	0.064121	1.676683	1
H	-1.293125	0.275691	-0.799687	1
H	0.065475	-0.842139	-0.862407	1
H	2.177715	-0.152499	-0.605967	1
H	2.585744	1.342351	0.361843	1
H	1.146205	2.740591	-1.164197	1
H	0.718085	1.252881	-2.140157	1
Es	1.870683	0.830083	-0.270379	99
Es	-0.071221	-0.593541	-0.661232	99
Es	0.115593	0.567663	-0.113078	99
Es	-0.413322	-0.072739	-0.242306	99
Es	1.014384	1.665520	-1.182994	99
Es	0.578712	1.373935	-0.544737	99
Es	-1.757775	-2.313899	0.191079	99
Es	0.805265	1.379934	-1.835673	99
Es	0.375724	1.291752	0.314829	99
Es	1.086523	0.859610	0.009504	99
Es	-1.783487	-1.852557	0.871794	99
Es	1.617355	1.285075	-0.859760	99
Es	-1.958058	-2.206051	-0.498287	99
Es	1.099967	2.390436	-1.171797	99
Es	2.067835	0.159423	-0.493985	99
Es	-2.058926	-2.147725	1.516152	99
Es	-1.245866	-0.196787	1.477359	99
Es	0.463418	1.074018	0.033200	99
Es	-2.161668	-2.000181	0.155033	99
Es	-2.067624	-2.330116	-0.221682	99
Es	-0.299753	-0.927678	1.477517	99
Es	-1.323619	-1.262710	0.973388	99
Es	-2.243952	-2.542015	-0.158874	99
Es	-1.013250	0.169785	-0.617274	99
Es	2.360744	1.172755	0.165831	99
Es	-0.866935	-0.676454	1.081370	99
Es	-0.642616	-0.388071	0.429795	99
43
Properties=species:S:1:pos:R:3:Z:I:1 energy=-323.94345127552674 field_type=dipole dipole="0.000000 0.000000 0.000000" charge=0
O	-2.067715	-2.330269	-0.222017	8
C	-1.783495	-1.852569	0.871793	6
C	-0.866905	-0.676399	1.081383	6
C	-0.413395	-0.072829	-0.242407	6
N	0.463195	1.074331	0.033693	7
C	1.870914	0.830011	-0.270367	6
C	1.014405	1.665651	-1.183197	6
H	-2.193105	-2.293709	1.796263	1
H	-0.010505	-1.025219	1.668743	1
H	-1.413495	0.064121	1.676683	1
H	-1.293125	0.275691	-0.799687	1
H	0.065475	-0.842139	-0.862407	1
H	2.177715	-0.152499	-0.605967	1
H	2.585744	1.342351	0.361843	1
H	1.146205	2.740591	-1.164197	1
H	0.718085	1.252881	-2.140157	1
Es	-0.299663	-0.927542	1.477670	99
Es	0.115978	0.567706	-0.113279	99
Es	-0.413322	-0.072739	-0.242306	99
Es	1.870683	0.830081	-0.270377	99
Es	1.014378	1.665521	-1.182996	99
Es	-1.961507	-2.209406	-0.501565	99
Es	-2.241610	-2.538386	-0.155286	99
Es	1.617011	1.285336	-0.859581	99
Es	0.805353	1.379981	-1.836107	99
Es	0.579177	1.373522	-0.544842	99
Es	-2.161362	-2.000106	0.155173	99
Es	1.099880	2.389734	-1.171652	99
Es	-1.757267	-2.314098	0.190679	99
Es	1.086540	0.859407	0.008996	99
Es	-1.245783	-0.196893	1.477170	99
Es	0.375433	1.292436	0.315366	99
Es	2.360964	1.172682	0.166236	99
Es	-1.323670	-1.262801	0.973422	99
Es	2.067520	0.159792	-0.493898	99
Es	-0.642789	-0.388035	0.429745	99
Es	0.463396	1.073989	0.033184	99
Es	-2.067596	-2.330093	-0.221733	99
Es	-2.058721	-2.147816	1.516127	99
Es	-1.013236	0.169752	-0.617558	99
Es	-0.071237	-0.593543	-0.660954	99
Es	-0.866935	-0.676454	1.081370	99
Es	-1.783483	-1.852562	0.871794	99
43
Properties=species:S:1:pos:R:3:Z:I:1 energy=-323.94345127552674 field_type=dipole dipole="0.000000 0.000000 0.000000" charge=0
O	-2.067715	-2.330269	-0.222017	8
C	-1.783495	-1.852569	0.871793	6
C	-0.866905	-0.676399	1.081383	6
C	-0.413395	-0.072829	-0.242407	6
N	0.463195	1.074331	0.033693	7
C	1.870914	0.830011	-0.270367	6
C	1.014405	1.665651	-1.183197	6
H	-2.193105	-2.293709	1.796263	1
H	-0.010505	-1.025219	1.668743	1
H	-1.413495	0.064121	1.676683	1
H	-1.293125	0.275691	-0.799687	1
H	0.065475	-0.842139	-0.862407	1
H	2.177715	-0.152499	-0.605967	1
H	2.585744	1.342351	0.361843	1
H	1.146205	2.740591	-1.164197	1
H	0.718085	1.252881	-2.140157	1
Es	2.067238	0.160275	-0.493634	99
Es	-2.161389	-2.000101	0.154612	99
Es	0.579845	1.373456	-0.544676	99
Es	-1.245754	-0.197055	1.476841	99
Es	0.805113	1.380104	-1.836292	99
Es	0.375583	1.292688	0.316082	99
Es	1.086217	0.859272	0.008329	99
Es	-1.756540	-2.313062	0.190528	99
Es	0.115988	0.567619	-0.113664	99
Es	0.463394	1.073983	0.033187	99
Es	-1.966110	-2.214596	-0.505758	99
Es	1.014378	1.665519	-1.182997	99
Es	-0.299526	-0.927320	1.477953	99
Es	-1.013326	0.169608	-0.617637	99
Es	-2.067588	-2.330081	-0.221752	99
Es	-0.642760	-0.387935	0.429818	99
Es	1.099762	2.389339	-1.171513	99
Es	-1.323625	-1.262969	0.973353	99
Es	1.616968	1.285320	-0.859892	99
Es	-0.866935	-0.676454	1.081370	99
Es	-2.237853	-2.534179	-0.150369	99
Es	-0.071171	-0.593594	-0.660808	99
Es	-0.413325	-0.072741	-0.242307	99
Es	1.870682	0.830082	-0.270379	99
Es	2.361122	1.172638	0.166542	99
Es	-1.783482	-1.852562	0.871794	99
Es	-2.058774	-2.147791	1.516066	99
43
Properties=species:S:1:pos:R:3:Z:I:1 energy=-323.94345127552674 field_type=dipole dipole="0.000000 0.000000 0.000000" charge=0
O	-2.067715	-2.330269	-0.222017	8
C	-1.783495	-1.852569	0.871793	6
C	-0.866905	-0.676399	1.081383	6
C	-0.413395	-0.072829	-0.242407	6
N	0.463195	1.074331	0.033693	7
C	1.870914	0.830011	-0.270367	6
C	1.014405	1.665651	-1.183197	6
H	-2.193105	-2.293709	1.796263	1
H	-0.010505	-1.025219	1.668743	1
H	-1.413495	0.064121	1.676683	1
H	-1.293125	0.275691	-0.799687	1
H	0.065475	-0.842139	-0.862407	1
H	2.177715	-0.152499	-0.605967	1
H	2.585744	1.342351	0.361843	1
H	1.146205	2.740591	-1.164197	1
H	0.718085	1.252881	-2.140157	1
Es	-1.323962	-1.263202	0.973355	99
Es	-0.071315	-0.593417	-0.660720	99
Es	1.099932	2.389228	-1.171535	99
Es	-1.245358	-0.197246	1.476650	99
Es	-2.159554	-1.998768	0.151839	99
Es	-1.013337	0.169495	-0.617717	99
Es	-2.058724	-2.147874	1.516044	99
Es	1.870677	0.830081	-0.270375	99
Es	0.580104	1.373594	-0.544172	99
Es	2.067207	0.160413	-0.493662	99
Es	2.361195	1.172653	0.166575	99
Es	0.805075	1.380044	-1.836362	99
Es	-0.866936	-0.676454	1.081370	99
Es	-0.413324	-0.072740	-0.242307	99
Es	0.376004	1.292750	0.315890	99
Es	-1.975331	-2.227595	-0.513415	99
Es	1.085959	0.859395	0.008233	99
Es	1.616914	1.285337	-0.859988	99
Es	-0.299501	-0.927054	1.478031	99
Es	-1.783481	-1.852562	0.871795	99
Es	-2.067567	-2.330051	-0.221726	99
Es	0.463403	1.073988	0.033183	99
Es	0.115567	0.567415	-0.113679	99
Es	1.014389	1.665513	-1.182990	99
Es	-2.231917	-2.525149	-0.139853	99
Es	-0.642733	-0.387945	0.429898	99
Es	-1.755255	-2.310384	0.190435	99
43
Properties=species:S:1:pos:R:3:Z:I:1 energy=-323.94345127552674 field_type=dipole dipole="0.000000 0.000000 0.000000" charge=0
O	-2.067715	-2.330269	-0.222017	8
C	-1.783495	-1.852569	0.871793	6
C	-0.866905	-0.676399	1.081383	6
C	-0.413395	-0.072829	-0.242407	6
N	0.463195	1.074331	0.033693	7
C	1.870914	0.830011	-0.270367	6
C	1.014405	1.665651	-1.183197	6
H	-2.193105	-2.293709	1.796263	1
H	-0.010505	-1.025219	1.668743	1
H	-1.413495	0.064121	1.676683	1
H	-1.293125	0.275691	-0.799687	1
H	0.065475	-0.842139	-0.862407	1
H	2.177715	-0.152499	-0.605967	1
H	2.585744	1.342351	0.361843	1
H	1.146205	2.740591	-1.164197	1
H	0.718085	1.252881	-2.140157	1
Es	-1.013282	0.169550	-0.617849	99
Es	-2.231735	-2.525318	-0.140635	99
Es	-2.159903	-1.999447	0.152387	99
Es	-0.071323	-0.593426	-0.660634	99
Es	0.375751	1.293221	0.316442	99
Es	1.616631	1.285473	-0.859907	99
Es	-1.324017	-1.263249	0.973346	99
Es	0.580327	1.373232	-0.544402	99
Es	-2.058678	-2.147883	1.516019	99
Es	-0.866935	-0.676454	1.081370	99
Es	1.086128	0.859208	0.007693	99
Es	0.805050	1.380066	-1.836604	99
Es	-0.642923	-0.387939	0.429879	99
Es	2.361283	1.172692	0.166848	99
Es	-0.299356	-0.926875	1.478300	99
Es	1.099789	2.388741	-1.171447	99
Es	-1.755515	-2.310725	0.190569	99
Es	2.067005	0.160586	-0.493518	99
Es	0.116063	0.567555	-0.113653	99
Es	0.463404	1.073988	0.033182	99
Es	1.014380	1.665517	-1.182989	99
Es	-1.974952	-2.226339	-0.513331	99
Es	-2.067564	-2.330053	-0.221742	99
Es	-0.413325	-0.072739	-0.242307	99
Es	-1.245371	-0.197436	1.476361	99
Es	1.870682	0.830080	-0.270376	99
Es	-1.783482	-1.852562	0.871794	99
43
Properties=species:S:1:pos:R:3:Z:I:1 energy=-323.94345127552674 field_type=dipole dipole="0.000000 0.000000 0.000000" charge=0
O	-2.067715	-2.330269	-0.222017	8
C	-1.783495	-1.852569	0.871793	6
C	-0.866905	-0.676399	1.081383	6
C	-0.413395	-0.072829	-0.242407	6
N	0.463195	1.074331	0.033693	7
C	1.870914	0.830011	-0.270367	6
C	1.014405	1.665651	-1.183197	6
H	-2.193105	-2.293709	1.796263	1
H	-0.010505	-1.025219	1.668743	1
H	-1.413495	0.064121	1.676683	1
H	-1.293125	0.275691	-0.799687	1
H	0.065475	-0.842139	-0.862407	1
H	2.177715	-0.152499	-0.605967	1
H	2.585744	1.342351	0.361843	1
H	1.146205	2.740591	-1.164197	1
H	0.718085	1.252881	-2.140157	1
Es	0.580964	1.373333	-0.544288	99
Es	-2.160167	-1.999597	0.152421	99
Es	-1.783480	-1.852563	0.871794	99
Es	1.616649	1.285463	-0.859837	99
Es	-2.058720	-2.147886	1.515955	99
Es	-0.071311	-0.593272	-0.660453	99
Es	0.115751	0.567403	-0.113865	99
Es	1.099725	2.388616	-1.171407	99
Es	-2.067666	-2.330170	-0.221690	99
Es	-1.013381	0.169405	-0.618018	99
Es	0.463408	1.073995	0.033182	99
Es	-1.245194	-0.197554	1.476062	99
Es	-1.324113	-1.263462	0.973463	99
Es	2.066900	0.160903	-0.493519	99
Es	2.361405	1.172669	0.166955	99
Es	-0.642848	-0.388074	0.429870	99
Es	-2.227598	-2.520708	-0.137528	99
Es	-1.979407	-2.231032	-0.516218	99
Es	1.014376	1.665519	-1.182993	99
Es	-0.413322	-0.072739	-0.242306	99
Es	1.085445	0.859147	0.007322	99
Es	0.805021	1.380004	-1.836700	99
Es	0.376172	1.293324	0.316837	99
Es	-1.754909	-2.310373	0.190286	99
Es	-0.866935	-0.676453	1.081370	99
Es	1.870683	0.830081	-0.270377	99
Es	-0.299316	-0.926513	1.478479	99
43
Properties=species:S:1:pos:R:3:Z:I:1 energy=-323.94345127552674 field_type=dipole dipole="0.000000 0.000000 0.000000" charge=0
O	-2.067715	-2.330269	-0.222017	8
C	-1.783495	-1.852569	0.871793	6
C	-0.866905	-0.676399	1.081383	6
C	-0.413395	-0.072829	-0.242407	6
N	0.463195	1.074331	0.033693	7
C	1.870914	0.830011	-0.270367	6
C	1.014405	1.665651	-1.183197	6
H	-2.193105	-2.293709	1.796263	1
H	-0.010505	-1.025219	1.668743	1
H	-1.413495	0.064121	1.676683	1
H	-1.293125	0.275691	-0.799687	1
H	0.065475	-0.842139	-0.862407	1
H	2.177715	-0.152499	-0.605967	1
H	2.585744	1.342351	0.361843	1
H	1.146205	2.740591	-1.164197	1
H	0.718085	1.252881	-2.140157	1
Es	0.375916	1.293761	0.316527	99
Es	-1.783480	-1.852563	0.871795	99
Es	0.115774	0.567249	-0.113913	99
Es	-0.642764	-0.387896	0.429971	99
Es	0.581544	1.372917	-0.544118	99
Es	1.870683	0.830085	-0.270383	99
Es	-0.071377	-0.593191	-0.660426	99
Es	1.616567	1.285528	-0.860203	99
Es	1.099794	2.388472	-1.171463	99
Es	-1.013378	0.169322	-0.618036	99
Es	-2.058685	-2.147952	1.515901	99
Es	2.066751	0.161070	-0.493307	99
Es	-1.753869	-2.309896	0.189391	99
Es	-2.223748	-2.516814	-0.134507	99
Es	1.085204	0.859349	0.007808	99
Es	-0.299324	-0.926346	1.478700	99
Es	1.014374	1.665519	-1.182992	99
Es	0.805052	1.379933	-1.836748	99
Es	-2.067487	-2.329946	-0.221749	99
Es	-0.413323	-0.072738	-0.242306	99
Es	-1.984291	-2.235377	-0.518713	99
Es	2.361508	1.172674	0.166969	99
Es	-2.160376	-1.999866	0.152856	99
Es	-1.245096	-0.197862	1.475877	99
Es	-1.324303	-1.263506	0.973307	99
Es	0.463400	1.073993	0.033188	99
Es	-0.866934	-0.676453	1.081369	99
43
Properties=species:S:1:pos:R:3:Z:I:1 energy=-323.94345127552674 field_type=dipole dipole="0.000000 0.000000 0.000000" charge=0
O	-2.067715	-2.330269	-0.222017	8
C	-1.783495	-1.852569	0.871793	6
C	-0.866905	-0.676399	1.081383	6
C	-0.413395	-0.072829	-0.242407	6
N	0.463195	1.074331	0.033693	7
C	1.870914	0.830011	-0.270367	6
C	1.014405	1.665651	-1.183197	6
H	-2.193105	-2.293709	1.796263	1
H	-0.010505	-1.025219	1.668743	1
H	-1.413495	0.064121	1.676683	1
H	-1.293125	0.275691	-0.799687	1
H	0.065475	-0.842139	-0.862407	1
H	2.177715	-0.152499	-0.605967	1
H	2.585744	1.342351	0.361843	1
H	1.146205	2.740591	-1.164197	1
H	0.718085	1.252881	-2.140157	1
Es	-2.219714	-2.510908	-0.129165	99
Es	0.463396	1.073988	0.033184	99
Es	-0.866935	-0.676454	1.081370	99
Es	-0.071499	-0.593141	-0.660371	99
Es	1.099909	2.388591	-1.171395	99
Es	1.085031	0.859172	0.007829	99
Es	1.870688	0.830081	-0.270379	99
Es	-1.244853	-0.197723	1.475800	99
Es	-1.324427	-1.263639	0.973406	99
Es	-1.990313	-2.243229	-0.522325	99
Es	0.376619	1.293454	0.316424	99
Es	-2.058698	-2.147957	1.515926	99
Es	1.616371	1.285284	-0.860296	99
Es	-0.642681	-0.388075	0.429952	99
Es	-1.013294	0.169225	-0.618066	99
Es	0.581513	1.373310	-0.543967	99
Es	1.014373	1.665522	-1.182996	99
Es	-2.158812	-1.999079	0.151756	99
Es	2.361683	1.172747	0.166797	99
Es	-1.753365	-2.308395	0.188695	99
Es	2.066725	0.161323	-0.493277	99
Es	-1.783476	-1.852566	0.871795	99
Es	0.115287	0.567181	-0.113852	99
Es	-0.299474	-0.926305	1.478701	99
Es	-2.067679	-2.330197	-0.221671	99
Es	0.805075	1.379994	-1.836772	99
Es	-0.413322	-0.072739	-0.242306	99
43
Properties=species:S:1:pos:R:3:Z:I:1 energy=-323.94345127552674 field_type=dipole dipole="0.000000 0.000000 0.000000" charge=0
O	-2.067715	-2.330269	-0.222017	8
C	-1.783495	-1.852569	0.871793	6
C	-0.866905	-0.676399	1.081383	6
C	-0.413395	-0.072829	-0.242407	6
N	0.463195	1.074331	0.033693	7
C	1.870914	0.830011	-0.270367	6
C	1.014405	1.665651	-1.183197	6
H	-2.193105	-2.293709	1.796263	1
H	-0.010505	-1.025219	1.668743	1
H	-1.413495	0.064121	1.676683	1
H	-1.293125	0.275691	-0.799687	1
H	0.065475	-0.842139	-0.862407	1
H	2.177715	-0.152499	-0.605967	1
H	2.585744	1.342351	0.361843	1
H	1.146205	2.740591	-1.164197	1
H	0.718085	1.252881	-2.140157	1
Es	-1.991144	-2.244642	-0.522761	99
Es	-1.013394	0.169273	-0.618083	99
Es	-2.218651	-2.509921	-0.128832	99
Es	2.361622	1.172672	0.167045	99
Es	0.377484	1.293323	0.317280	99
Es	1.616393	1.285335	-0.860317	99
Es	-1.244974	-0.197904	1.475681	99
Es	-1.324265	-1.263902	0.973394	99
Es	-0.866935	-0.676453	1.081370	99
Es	0.581156	1.373795	-0.543728	99
Es	-0.413322	-0.072739	-0.242306	99
Es	-0.299285	-0.925980	1.478752	99
Es	0.805019	1.379958	-1.836892	99
Es	0.463401	1.073992	0.033186	99
Es	1.084691	0.859147	0.006481	99
Es	-1.783481	-1.852562	0.871794	99
Es	-2.159381	-1.999468	0.151138	99
Es	-1.753335	-2.307754	0.189394	99
Es	-2.067476	-2.329942	-0.221648	99
Es	1.100087	2.388248	-1.171443	99
Es	1.870680	0.830082	-0.270378	99
Es	1.014378	1.665514	-1.182985	99
Es	0.115159	0.567106	-0.113692	99
Es	2.066630	0.161422	-0.493195	99
Es	-2.058631	-2.147991	1.515916	99
Es	-0.071494	-0.593163	-0.660333	99
Es	-0.642801	-0.387984	0.429958	99
43
Properties=species:S:1:pos:R:3:Z:I:1 energy=-323.94345127552674 field_type=dipole dipole="0.000000 0.000000 0.000000" charge=0
O	-2.067715	-2.330269	-0.222017	8
C	-1.783495	-1.852569	0.871793	6
C	-0.866905	-0.676399	1.081383	6
C	-0.413395	-0.072829	-0.242407	6
N	0.463195	1.074331	0.033693	7
C	1.870914	0.830011	-0.270367	6
C	1.014405	1.665651	-1.183197	6
H	-2.193105	-2.293709	1.796263	1
H	-0.010505	-1.025219	1.668743	1
H	-1.413495	0.064121	1.676683	1
H	-1.293125	0.275691	-0.799687	1
H	0.065475	-0.842139	-0.862407	1
H	2.177715	-0.152499	-0.605967	1
H	2.585744	1.342351	0.361843	1
H	1.146205	2.740591	-1.164197	1
H	0.718085	1.252881	-2.140157	1
Es	2.066611	0.161718	-0.493040	99
Es	1.100044	2.388364	-1.171433	99
Es	-0.413322	-0.072739	-0.242306	99
Es	-1.995070	-2.249053	-0.524535	99
Es	-2.068037	-2.330586	-0.221131	99
Es	-1.013254	0.169139	-0.618282	99
Es	0.805108	1.379978	-1.836859	99
Es	0.377309	1.293340	0.317036	99
Es	-0.866934	-0.676454	1.081370	99
Es	-0.299357	-0.925775	1.479149	99
Es	0.463402	1.073978	0.033180	99
Es	1.084331	0.859037	0.007202	99
Es	-1.244732	-0.198087	1.475239	99
Es	1.870685	0.830084	-0.270380	99
Es	0.114947	0.566970	-0.114135	99
Es	-1.324597	-1.263863	0.973397	99
Es	-1.752914	-2.308355	0.188409	99
Es	2.361707	1.172755	0.166936	99
Es	1.014377	1.665519	-1.182994	99
Es	-0.071496	-0.593111	-0.660160	99
Es	-1.783480	-1.852563	0.871795	99
Es	-2.158886	-1.998725	0.151672	99
Es	0.581840	1.373708	-0.543536	99
Es	-2.058698	-2.147979	1.515888	99
Es	-0.642775	-0.387970	0.430081	99
Es	-2.215034	-2.505089	-0.127109	99
Es	1.616356	1.285225	-0.860657	99
43
Properties=species:S:1:pos:R:3:Z:I:1 energy=-323.94345127552674 field_type=dipole dipole="0.000000 0.000000 0.000000" charge=0
O	-2.067715	-2.330269	-0.222017	8
C	-1.783495	-1.852569	0.871793	6
C	-0.866905	-0.676399	1.081383	6
C	-0.413395	-0.072829	-0.242407	6
N	0.463195	1.074331	0.033693	7
C	1.870914	0.830011	-0.270367	6
C	1.014405	1.665651	-1.183197	6
H	-2.193105	-2.293709	1.796263	1
H	-0.010505	-1.025219	1.668743	1
H	-1.413495	0.064121	1.676683	1
H	-1.293125	0.275691	-0.799687	1
H	0.065475	-0.842139	-0.862407	1
H	2.177715	-0.152499	-0.605967	1
H	2.585744	1.342351	0.361843	1
H	1.146205	2.740591	-1.164197	1
H	0.718085	1.252881	-2.140157	1
Es	-2.159156	-1.999324	0.150354	99
Es	1.084195	0.859416	0.007039	99
Es	-2.058604	-2.148056	1.515896	99
Es	1.100109	2.388226	-1.171454	99
Es	0.805035	1.380000	-1.836879	99
Es	2.066554	0.161763	-0.493034	99
Es	-0.413324	-0.072740	-0.242306	99
Es	1.870683	0.830082	-0.270379	99
Es	-0.299294	-0.925785	1.479055	99
Es	-0.866933	-0.676454	1.081370	99
Es	0.377065	1.293301	0.317158	99
Es	-1.783480	-1.852563	0.871794	99
Es	-1.752800	-2.306236	0.189114	99
Es	1.616538	1.285190	-0.860667	99
Es	1.014377	1.665518	-1.182993	99
Es	-0.071580	-0.593068	-0.660174	99
Es	-1.013240	0.169193	-0.618277	99
Es	0.115303	0.566671	-0.114350	99
Es	-2.067623	-2.330120	-0.221724	99
Es	0.463406	1.073999	0.033192	99
Es	-1.324573	-1.263934	0.973428	99
Es	2.361692	1.172703	0.167057	99
Es	-1.996897	-2.251960	-0.525699	99
Es	-1.244664	-0.198147	1.475320	99
Es	-0.642892	-0.387955	0.430056	99
Es	-2.213605	-2.504024	-0.124744	99
Es	0.581838	1.373766	-0.543359	99
