42
Properties=species:S:1:pos:R:3:Z:I:1 energy=-339.97233535784795 field_type=dipole dipole="0.000000 0.000000 0.000000" charge=0
O	0.030061	-2.530168	-0.239057	8
C	-1.024249	-1.966278	0.522073	6
C	-0.894039	-0.476918	0.608573	6
C	0.044652	0.267392	0.006263	6
N	0.179852	1.630312	0.084443	7
C	1.086291	2.455152	-0.519317	6
N	2.022411	2.178832	-1.354847	7
H	-0.096869	-3.493498	-0.225117	1
H	-0.996759	-2.396358	1.528123	1
H	-1.976449	-2.227728	0.050253	1
H	-1.644749	0.011702	1.223013	1
H	0.795771	-0.218288	-0.612477	1
H	-0.496849	2.084122	0.689163	1
H	0.949961	3.506792	-0.213007	1
H	2.020961	1.174932	-1.548077	1
Es	-0.012217	-2.438157	-0.528360	99
Es	-1.681644	-2.138526	0.204937	99
Es	0.029835	-2.530342	-0.238890	99
Es	2.007972	1.566967	-1.460747	99
Es	0.315096	1.628446	0.133811	99
Es	1.086124	2.455069	-0.519186	99
Es	-0.643139	-0.087258	0.055000	99
Es	2.022039	2.178548	-1.354590	99
Es	1.822972	2.230533	-0.802686	99
Es	-0.894100	-0.476967	0.608601	99
Es	0.287527	-2.473114	-0.084300	99
Es	0.179393	1.630569	0.082711	99
Es	0.530680	1.961805	-0.237058	99
Es	-0.249409	-0.152443	0.587997	99
Es	0.977998	3.163367	-0.300422	99
Es	-0.056040	-3.046560	-0.220160	99
Es	0.107754	1.046453	0.016502	99
Es	2.250744	2.407202	-1.500474	99
Es	-1.024060	-1.966310	0.521952	99
Es	0.044739	0.267634	0.006230	99
Es	-0.378794	-2.334901	0.053637	99
Es	1.464143	2.313568	-1.236262	99
Es	-1.409270	-0.145487	1.029388	99
Es	0.551502	-0.040058	-0.409804	99
Es	-1.012277	-2.254336	1.215219	99
Es	-0.234241	1.909186	0.431278	99
Es	-0.944841	-1.213594	0.555940	99
42
Properties=species:S:1:pos:R:3:Z:I:1 energy=-339.97233535784795 field_type=dipole dipole="0.000000 0.000000 0.000000" charge=0
O	0.030061	-2.530168	-0.239057	8
C	-1.024249	-1.966278	0.522073	6
C	-0.894039	-0.476918	0.608573	6
C	0.044652	0.267392	0.006263	6
N	0.179852	1.630312	0.084443	7
C	1.086291	2.455152	-0.519317	6
N	2.022411	2.178832	-1.354847	7
H	-0.096869	-3.493498	-0.225117	1
H	-0.996759	-2.396358	1.528123	1
H	-1.976449	-2.227728	0.050253	1
H	-1.644749	0.011702	1.223013	1
H	0.795771	-0.218288	-0.612477	1
H	-0.496849	2.084122	0.689163	1
H	0.949961	3.506792	-0.213007	1
H	2.020961	1.174932	-1.548077	1
Es	1.817006	2.226931	-0.809190	99
Es	-0.945333	-1.212587	0.555950	99
Es	1.086109	2.455069	-0.519191	99
Es	-1.409453	-0.145387	1.029935	99
Es	0.029743	-2.530339	-0.238947	99
Es	-1.024063	-1.966309	0.521944	99
Es	0.582318	1.961204	-0.189645	99
Es	2.259820	2.415122	-1.506399	99
Es	0.235240	1.637261	0.045761	99
Es	-1.012929	-2.255055	1.215063	99
Es	2.002162	1.570313	-1.455338	99
Es	-0.378933	-2.334805	0.053875	99
Es	-0.249488	-0.152681	0.587924	99
Es	-0.224476	1.906496	0.446384	99
Es	0.125623	1.039704	0.039956	99
Es	0.978522	3.162646	-0.300673	99
Es	-0.894100	-0.476975	0.608613	99
Es	-1.680673	-2.138530	0.205330	99
Es	-0.056682	-3.046115	-0.221403	99
Es	-0.005032	-2.433291	-0.531532	99
Es	0.281276	-2.478372	-0.080228	99
Es	0.044743	0.267637	0.006234	99
Es	-0.643467	-0.086678	0.055181	99
Es	1.466955	2.307404	-1.229308	99
Es	0.180042	1.630265	0.084650	99
Es	0.551507	-0.040160	-0.410080	99
Es	2.022047	2.178526	-1.354601	99
42
Properties=species:S:1:pos:R:3:Z:I:1 energy=-339.97233535784795 field_type=dipole dipole="0.000000 0.000000 0.000000" charge=0
O	0.030061	-2.530168	-0.239057	8
C	-1.024249	-1.966278	0.522073	6
C	-0.894039	-0.476918	0.608573	6
C	0.044652	0.267392	0.006263	6
N	0.179852	1.630312	0.084443	7
C	1.086291	2.455152	-0.519317	6
N	2.022411	2.178832	-1.354847	7
H	-0.096869	-3.493498	-0.225117	1
H	-0.996759	-2.396358	1.528123	1
H	-1.976449	-2.227728	0.050253	1
H	-1.644749	0.011702	1.223013	1
H	0.795771	-0.218288	-0.612477	1
H	-0.496849	2.084122	0.689163	1
H	0.949961	3.506792	-0.213007	1
H	2.020961	1.174932	-1.548077	1
Es	1.998757	1.573513	-1.451673	99
Es	0.029693	-2.530365	-0.239021	99
Es	-0.249447	-0.152294	0.587807	99
Es	-0.224280	1.905244	0.446555	99
Es	-1.409956	-0.145268	1.029963	99
Es	2.022049	2.178534	-1.354599	99
Es	1.086108	2.455066	-0.519184	99
Es	0.978867	3.161908	-0.300956	99
Es	0.230171	1.638067	0.038853	99
Es	0.180058	1.630261	0.084666	99
Es	0.551711	-0.040380	-0.409748	99
Es	-0.894102	-0.476974	0.608609	99
Es	1.468591	2.305153	-1.227320	99
Es	0.044742	0.267644	0.006230	99
Es	-1.024061	-1.966309	0.521945	99
Es	-0.643633	-0.086939	0.055410	99
Es	1.812876	2.224720	-0.813464	99
Es	-0.945600	-1.211941	0.555996	99
Es	0.033023	-2.413480	-0.537483	99
Es	0.587836	1.960147	-0.183278	99
Es	-0.381783	-2.334134	0.050554	99
Es	-1.680642	-2.138910	0.205714	99
Es	0.248848	-2.499153	-0.065462	99
Es	-1.012934	-2.255073	1.214527	99
Es	2.265897	2.417349	-1.507644	99
Es	-0.059317	-3.045637	-0.226891	99
Es	0.125012	1.040544	0.040157	99
42
Properties=species:S:1:pos:R:3:Z:I:1 energy=-339.97233535784795 field_type=dipole dipole="0.000000 0.000000 0.000000" charge=0
O	0.030061	-2.530168	-0.239057	8
C	-1.024249	-1.966278	0.522073	6
C	-0.894039	-0.476918	0.608573	6
C	0.044652	0.267392	0.006263	6
N	0.179852	1.630312	0.084443	7
C	1.086291	2.455152	-0.519317	6
N	2.022411	2.178832	-1.354847	7
H	-0.096869	-3.493498	-0.225117	1
H	-0.996759	-2.396358	1.528123	1
H	-1.976449	-2.227728	0.050253	1
H	-1.644749	0.011702	1.223013	1
H	0.795771	-0.218288	-0.612477	1
H	-0.496849	2.084122	0.689163	1
H	0.949961	3.506792	-0.213007	1
H	2.020961	1.174932	-1.548077	1
Es	-0.248559	-0.152492	0.589200	99
Es	0.978933	3.160935	-0.300928	99
Es	0.029771	-2.530355	-0.238877	99
Es	0.127071	-2.380054	-0.514520	99
Es	-0.644129	-0.086806	0.054570	99
Es	2.022066	2.178523	-1.354615	99
Es	-1.410152	-0.145611	1.029240	99
Es	0.179223	1.630870	0.080464	99
Es	1.997174	1.576882	-1.449567	99
Es	0.120968	1.041546	0.035235	99
Es	0.234505	1.636488	0.047247	99
Es	0.164155	-2.535208	-0.072286	99
Es	1.467862	2.304914	-1.228227	99
Es	1.811852	2.223575	-0.813996	99
Es	-1.024063	-1.966308	0.521948	99
Es	2.269411	2.416410	-1.508293	99
Es	0.044744	0.267644	0.006233	99
Es	1.086110	2.455067	-0.519182	99
Es	-0.225015	1.904771	0.445229	99
Es	0.551758	-0.040059	-0.409295	99
Es	-0.385940	-2.332171	0.043765	99
Es	-1.012519	-2.254758	1.214520	99
Es	-0.064568	-3.044603	-0.236314	99
Es	-1.681238	-2.139144	0.205583	99
Es	-0.894101	-0.476975	0.608611	99
Es	0.589339	1.960091	-0.181353	99
Es	-0.946177	-1.211878	0.555874	99
42
Properties=species:S:1:pos:R:3:Z:I:1 energy=-339.97233535784795 field_type=dipole dipole="0.000000 0.000000 0.000000" charge=0
O	0.030061	-2.530168	-0.239057	8
C	-1.024249	-1.966278	0.522073	6
C	-0.894039	-0.476918	0.608573	6
C	0.044652	0.267392	0.006263	6
N	0.179852	1.630312	0.084443	7
C	1.086291	2.455152	-0.519317	6
N	2.022411	2.178832	-1.354847	7
H	-0.096869	-3.493498	-0.225117	1
H	-0.996759	-2.396358	1.528123	1
H	-1.976449	-2.227728	0.050253	1
H	-1.644749	0.011702	1.223013	1
H	0.795771	-0.218288	-0.612477	1
H	-0.496849	2.084122	0.689163	1
H	0.949961	3.506792	-0.213007	1
H	2.020961	1.174932	-1.548077	1
Es	1.086108	2.455069	-0.519191	99
Es	0.550997	-0.039095	-0.409131	99
Es	2.268605	2.413878	-1.512688	99
Es	-0.057132	-3.049210	-0.228468	99
Es	0.180669	1.630200	0.085148	99
Es	-0.246993	-0.152972	0.591161	99
Es	0.228000	-2.364473	-0.438416	99
Es	0.122131	1.041147	0.036337	99
Es	0.038727	-2.536882	-0.210428	99
Es	-0.645981	-0.086548	0.051966	99
Es	-1.681621	-2.138349	0.204657	99
Es	0.979040	3.159527	-0.300786	99
Es	-0.894095	-0.476972	0.608617	99
Es	1.996287	1.582126	-1.449682	99
Es	-1.409101	-0.146638	1.029340	99
Es	-1.024062	-1.966308	0.521948	99
Es	0.044742	0.267640	0.006232	99
Es	2.022061	2.178528	-1.354611	99
Es	1.466782	2.304525	-1.230415	99
Es	0.041442	-2.541588	-0.195207	99
Es	-0.380700	-2.329662	0.054425	99
Es	0.587870	1.960731	-0.183196	99
Es	-0.222278	1.903859	0.448488	99
Es	1.814524	2.222555	-0.807733	99
Es	-0.946152	-1.212586	0.556343	99
Es	-1.012275	-2.254732	1.215839	99
Es	0.230889	1.637523	0.039714	99
42
Properties=species:S:1:pos:R:3:Z:I:1 energy=-339.97233535784795 field_type=dipole dipole="0.000000 0.000000 0.000000" charge=0
O	0.030061	-2.530168	-0.239057	8
C	-1.024249	-1.966278	0.522073	6
C	-0.894039	-0.476918	0.608573	6
C	0.044652	0.267392	0.006263	6
N	0.179852	1.630312	0.084443	7
C	1.086291	2.455152	-0.519317	6
N	2.022411	2.178832	-1.354847	7
H	-0.096869	-3.493498	-0.225117	1
H	-0.996759	-2.396358	1.528123	1
H	-1.976449	-2.227728	0.050253	1
H	-1.644749	0.011702	1.223013	1
H	0.795771	-0.218288	-0.612477	1
H	-0.496849	2.084122	0.689163	1
H	0.949961	3.506792	-0.213007	1
H	2.020961	1.174932	-1.548077	1
Es	1.813069	2.221360	-0.811204	99
Es	-0.222965	1.903446	0.447541	99
Es	-0.385791	-2.331552	0.045045	99
Es	0.203584	-2.365527	-0.462824	99
Es	1.467749	2.303630	-1.227834	99
Es	0.120870	1.041809	0.035168	99
Es	-0.946215	-1.212097	0.556286	99
Es	0.588535	1.960665	-0.182325	99
Es	0.044733	0.267644	0.006222	99
Es	-1.409628	-0.146372	1.029351	99
Es	2.270766	2.415152	-1.512733	99
Es	-1.681160	-2.138523	0.204954	99
Es	0.233496	1.636849	0.042830	99
Es	0.086430	-2.548792	-0.124926	99
Es	0.979160	3.159306	-0.300980	99
Es	-0.894100	-0.476977	0.608612	99
Es	0.179319	1.630436	0.083402	99
Es	0.029454	-2.530352	-0.239236	99
Es	-0.645521	-0.086681	0.053023	99
Es	-1.024064	-1.966307	0.521949	99
Es	-1.012665	-2.255132	1.215304	99
Es	2.022053	2.178537	-1.354600	99
Es	1.086113	2.455068	-0.519182	99
Es	1.994675	1.583289	-1.448579	99
Es	0.551214	-0.039439	-0.409284	99
Es	-0.063254	-3.045583	-0.236202	99
Es	-0.247372	-0.152562	0.590487	99
42
Properties=species:S:1:pos:R:3:Z:I:1 energy=-339.97233535784795 field_type=dipole dipole="0.000000 0.000000 0.000000" charge=0
O	0.030061	-2.530168	-0.239057	8
C	-1.024249	-1.966278	0.522073	6
C	-0.894039	-0.476918	0.608573	6
C	0.044652	0.267392	0.006263	6
N	0.179852	1.630312	0.084443	7
C	1.086291	2.455152	-0.519317	6
N	2.022411	2.178832	-1.354847	7
H	-0.096869	-3.493498	-0.225117	1
H	-0.996759	-2.396358	1.528123	1
H	-1.976449	-2.227728	0.050253	1
H	-1.644749	0.011702	1.223013	1
H	0.795771	-0.218288	-0.612477	1
H	-0.496849	2.084122	0.689163	1
H	0.949961	3.506792	-0.213007	1
H	2.020961	1.174932	-1.548077	1
Es	1.086112	2.455068	-0.519183	99
Es	0.067795	-2.548715	-0.146090	99
Es	2.271118	2.415178	-1.514142	99
Es	-1.409477	-0.146598	1.029551	99
Es	-1.012737	-2.255262	1.215431	99
Es	-0.894100	-0.476975	0.608612	99
Es	1.813073	2.220999	-0.810925	99
Es	-0.061719	-3.046379	-0.232468	99
Es	0.120902	1.041829	0.035617	99
Es	0.181696	1.630141	0.085597	99
Es	0.551056	-0.039192	-0.409340	99
Es	-0.946278	-1.211995	0.556262	99
Es	-0.247158	-0.152804	0.590804	99
Es	0.230385	1.637225	0.039566	99
Es	0.029032	-2.530697	-0.238836	99
Es	0.044738	0.267632	0.006230	99
Es	0.979229	3.158508	-0.301019	99
Es	-0.383289	-2.331338	0.048719	99
Es	-0.645814	-0.086432	0.052584	99
Es	0.218572	-2.364516	-0.449448	99
Es	1.467496	2.302528	-1.227863	99
Es	-1.024064	-1.966308	0.521949	99
Es	-1.681020	-2.138461	0.204899	99
Es	2.022056	2.178533	-1.354605	99
Es	0.588608	1.960755	-0.182244	99
Es	1.994558	1.585544	-1.447469	99
Es	-0.222291	1.903027	0.448072	99
42
Properties=species:S:1:pos:R:3:Z:I:1 energy=-339.97233535784795 field_type=dipole dipole="0.000000 0.000000 0.000000" charge=0
O	0.030061	-2.530168	-0.239057	8
C	-1.024249	-1.966278	0.522073	6
C	-0.894039	-0.476918	0.608573	6
C	0.044652	0.267392	0.006263	6
N	0.179852	1.630312	0.084443	7
C	1.086291	2.455152	-0.519317	6
N	2.022411	2.178832	-1.354847	7
H	-0.096869	-3.493498	-0.225117	1
H	-0.996759	-2.396358	1.528123	1
H	-1.976449	-2.227728	0.050253	1
H	-1.644749	0.011702	1.223013	1
H	0.795771	-0.218288	-0.612477	1
H	-0.496849	2.084122	0.689163	1
H	0.949961	3.506792	-0.213007	1
H	2.020961	1.174932	-1.548077	1
Es	-1.012848	-2.255391	1.215655	99
Es	0.121287	1.042206	0.035294	99
Es	-0.381227	-2.331726	0.051985	99
Es	2.022060	2.178535	-1.354606	99
Es	1.812420	2.220182	-0.810063	99
Es	0.550692	-0.039230	-0.409232	99
Es	0.049648	-2.549137	-0.166074	99
Es	-0.946399	-1.212086	0.556471	99
Es	1.468198	2.301906	-1.228243	99
Es	-1.409219	-0.146610	1.029570	99
Es	-1.680806	-2.138323	0.204868	99
Es	-0.222101	1.902561	0.448603	99
Es	2.271906	2.414706	-1.515318	99
Es	-0.894101	-0.476973	0.608610	99
Es	0.979278	3.157950	-0.301086	99
Es	-0.247082	-0.152864	0.590968	99
Es	0.233513	-2.363570	-0.433689	99
Es	-1.024065	-1.966307	0.521950	99
Es	1.993679	1.588031	-1.446818	99
Es	-0.646018	-0.086367	0.052225	99
Es	0.029353	-2.530406	-0.239260	99
Es	0.044741	0.267642	0.006231	99
Es	1.086112	2.455066	-0.519181	99
Es	0.234422	1.636437	0.044056	99
Es	0.586751	1.961280	-0.184613	99
Es	-0.060930	-3.046702	-0.231096	99
Es	0.179219	1.630484	0.083056	99
42
Properties=species:S:1:pos:R:3:Z:I:1 energy=-339.97233535784795 field_type=dipole dipole="0.000000 0.000000 0.000000" charge=0
O	0.030061	-2.530168	-0.239057	8
C	-1.024249	-1.966278	0.522073	6
C	-0.894039	-0.476918	0.608573	6
C	0.044652	0.267392	0.006263	6
N	0.179852	1.630312	0.084443	7
C	1.086291	2.455152	-0.519317	6
N	2.022411	2.178832	-1.354847	7
H	-0.096869	-3.493498	-0.225117	1
H	-0.996759	-2.396358	1.528123	1
H	-1.976449	-2.227728	0.050253	1
H	-1.644749	0.011702	1.223013	1
H	0.795771	-0.218288	-0.612477	1
H	-0.496849	2.084122	0.689163	1
H	0.949961	3.506792	-0.213007	1
H	2.020961	1.174932	-1.548077	1
Es	1.812926	2.219749	-0.809344	99
Es	0.179063	1.630652	0.081906	99
Es	-1.408945	-0.146742	1.029891	99
Es	1.086116	2.455068	-0.519184	99
Es	-1.024068	-1.966306	0.521949	99
Es	0.020754	-2.544398	-0.210305	99
Es	-0.377845	-2.332405	0.057711	99
Es	2.022061	2.178538	-1.354610	99
Es	0.979333	3.157323	-0.301124	99
Es	-0.894106	-0.476973	0.608603	99
Es	0.120875	1.042051	0.035386	99
Es	2.271660	2.414567	-1.516952	99
Es	1.468282	2.301240	-1.227865	99
Es	-0.247084	-0.153198	0.591195	99
Es	1.993238	1.589958	-1.446348	99
Es	0.235615	1.635976	0.046484	99
Es	-1.013166	-2.255723	1.216018	99
Es	-0.055946	-3.047732	-0.224754	99
Es	-0.946555	-1.212084	0.556454	99
Es	-0.221056	1.902398	0.449048	99
Es	-0.646156	-0.085990	0.051839	99
Es	0.585250	1.961684	-0.186536	99
Es	-1.680324	-2.138029	0.204733	99
Es	0.253446	-2.363804	-0.409807	99
Es	0.029964	-2.533019	-0.230990	99
Es	0.550413	-0.039147	-0.409362	99
Es	0.044739	0.267641	0.006229	99
42
Properties=species:S:1:pos:R:3:Z:I:1 energy=-339.97233535784795 field_type=dipole dipole="0.000000 0.000000 0.000000" charge=0
O	0.030061	-2.530168	-0.239057	8
C	-1.024249	-1.966278	0.522073	6
C	-0.894039	-0.476918	0.608573	6
C	0.044652	0.267392	0.006263	6
N	0.179852	1.630312	0.084443	7
C	1.086291	2.455152	-0.519317	6
N	2.022411	2.178832	-1.354847	7
H	-0.096869	-3.493498	-0.225117	1
H	-0.996759	-2.396358	1.528123	1
H	-1.976449	-2.227728	0.050253	1
H	-1.644749	0.011702	1.223013	1
H	0.795771	-0.218288	-0.612477	1
H	-0.496849	2.084122	0.689163	1
H	0.949961	3.506792	-0.213007	1
H	2.020961	1.174932	-1.548077	1
Es	-0.894103	-0.476972	0.608613	99
Es	1.468354	2.300839	-1.227697	99
Es	-0.646189	-0.086229	0.052217	99
Es	0.044739	0.267641	0.006229	99
Es	-0.378074	-2.332492	0.056007	99
Es	-1.409033	-0.146688	1.029877	99
Es	2.272795	2.414527	-1.516903	99
Es	0.550486	-0.039238	-0.409428	99
Es	0.121534	1.042092	0.036200	99
Es	2.022060	2.178530	-1.354609	99
Es	0.250316	-2.363451	-0.414024	99
Es	0.180756	1.630190	0.085197	99
Es	-1.013360	-2.255955	1.215852	99
Es	1.992804	1.591432	-1.445539	99
Es	1.812096	2.219124	-0.810398	99
Es	1.086113	2.455067	-0.519182	99
Es	0.979502	3.156911	-0.301081	99
Es	0.232528	1.636725	0.041377	99
Es	-0.220769	1.902021	0.449490	99
Es	-0.246982	-0.152886	0.590953	99
Es	-0.058453	-3.047242	-0.226751	99
Es	-1.024064	-1.966308	0.521949	99
Es	0.585601	1.961706	-0.185987	99
Es	-1.680059	-2.138054	0.204831	99
Es	-0.946696	-1.211892	0.556464	99
Es	0.027664	-2.531142	-0.239204	99
Es	0.028917	-2.546957	-0.194188	99
42
Properties=species:S:1:pos:R:3:Z:I:1 energy=-339.97233535784795 field_type=dipole dipole="0.000000 0.000000 0.000000" charge=0
O	0.030061	-2.530168	-0.239057	8
C	-1.024249	-1.966278	0.522073	6
C	-0.894039	-0.476918	0.608573	6
C	0.044652	0.267392	0.006263	6
N	0.179852	1.630312	0.084443	7
C	1.086291	2.455152	-0.519317	6
N	2.022411	2.178832	-1.354847	7
H	-0.096869	-3.493498	-0.225117	1
H	-0.996759	-2.396358	1.528123	1
H	-1.976449	-2.227728	0.050253	1
H	-1.644749	0.011702	1.223013	1
H	0.795771	-0.218288	-0.612477	1
H	-0.496849	2.084122	0.689163	1
H	0.949961	3.506792	-0.213007	1
H	2.020961	1.174932	-1.548077	1
Es	0.260103	-2.364073	-0.401360	99
Es	-0.946661	-1.211937	0.556597	99
Es	0.121147	1.042342	0.035941	99
Es	2.022069	2.178540	-1.354618	99
Es	1.086111	2.455066	-0.519180	99
Es	0.234365	1.636345	0.043233	99
Es	1.811705	2.218234	-0.809963	99
Es	-1.679601	-2.137701	0.204706	99
Es	2.272849	2.414726	-1.517753	99
Es	0.979462	3.156555	-0.301240	99
Es	-1.024064	-1.966308	0.521953	99
Es	-0.247248	-0.153230	0.590942	99
Es	-0.646028	-0.085896	0.052049	99
Es	1.469536	2.300284	-1.227179	99
Es	0.044739	0.267642	0.006229	99
Es	-1.013807	-2.256356	1.215973	99
Es	0.017610	-2.537071	-0.233981	99
Es	0.024654	-2.539583	-0.218560	99
Es	-0.375414	-2.332684	0.058868	99
Es	-0.056487	-3.047729	-0.223159	99
Es	-1.408999	-0.146711	1.030124	99
Es	-0.894099	-0.476975	0.608613	99
Es	0.550275	-0.039231	-0.409482	99
Es	0.585245	1.961631	-0.186635	99
Es	-0.220865	1.902102	0.449220	99
Es	0.179927	1.630280	0.084520	99
Es	1.991958	1.593034	-1.445594	99
42
Properties=species:S:1:pos:R:3:Z:I:1 energy=-339.97233535784795 field_type=dipole dipole="0.000000 0.000000 0.000000" charge=0
O	0.030061	-2.530168	-0.239057	8
C	-1.024249	-1.966278	0.522073	6
C	-0.894039	-0.476918	0.608573	6
C	0.044652	0.267392	0.006263	6
N	0.179852	1.630312	0.084443	7
C	1.086291	2.455152	-0.519317	6
N	2.022411	2.178832	-1.354847	7
H	-0.096869	-3.493498	-0.225117	1
H	-0.996759	-2.396358	1.528123	1
H	-1.976449	-2.227728	0.050253	1
H	-1.644749	0.011702	1.223013	1
H	0.795771	-0.218288	-0.612477	1
H	-0.496849	2.084122	0.689163	1
H	0.949961	3.506792	-0.213007	1
H	2.020961	1.174932	-1.548077	1
Es	-1.024065	-1.966307	0.521949	99
Es	0.044740	0.267644	0.006229	99
Es	0.026422	-2.531611	-0.239312	99
Es	0.019324	-2.545436	-0.208458	99
Es	0.179417	1.630395	0.083688	99
Es	-1.408916	-0.146589	1.030086	99
Es	0.120935	1.042517	0.035656	99
Es	0.234706	1.636201	0.043789	99
Es	-0.057164	-3.047051	-0.224304	99
Es	1.809998	2.217949	-0.810195	99
Es	1.469946	2.299512	-1.228264	99
Es	-1.679353	-2.137839	0.204918	99
Es	-0.946861	-1.211922	0.556648	99
Es	-0.220612	1.901872	0.449218	99
Es	-0.646201	-0.086175	0.052284	99
Es	0.979617	3.156373	-0.301173	99
Es	-1.013863	-2.256446	1.215892	99
Es	-0.894100	-0.476975	0.608613	99
Es	0.550240	-0.039426	-0.409343	99
Es	0.257970	-2.363776	-0.404412	99
Es	1.086110	2.455066	-0.519184	99
Es	1.992344	1.594255	-1.444774	99
Es	-0.376110	-2.333214	0.058256	99
Es	0.585503	1.961697	-0.186231	99
Es	-0.247261	-0.152740	0.590614	99
Es	2.022067	2.178522	-1.354617	99
Es	2.273652	2.414799	-1.517308	99
42
Properties=species:S:1:pos:R:3:Z:I:1 energy=-339.97233535784795 field_type=dipole dipole="0.000000 0.000000 0.000000" charge=0
O	0.030061	-2.530168	-0.239057	8
C	-1.024249	-1.966278	0.522073	6
C	-0.894039	-0.476918	0.608573	6
C	0.044652	0.267392	0.006263	6
N	0.179852	1.630312	0.084443	7
C	1.086291	2.455152	-0.519317	6
N	2.022411	2.178832	-1.354847	7
H	-0.096869	-3.493498	-0.225117	1
H	-0.996759	-2.396358	1.528123	1
H	-1.976449	-2.227728	0.050253	1
H	-1.644749	0.011702	1.223013	1
H	0.795771	-0.218288	-0.612477	1
H	-0.496849	2.084122	0.689163	1
H	0.949961	3.506792	-0.213007	1
H	2.020961	1.174932	-1.548077	1
Es	-0.220329	1.901524	0.449762	99
Es	0.120151	1.042906	0.034613	99
Es	0.020087	-2.535973	-0.234345	99
Es	-0.645917	-0.085980	0.052504	99
Es	0.044740	0.267642	0.006229	99
Es	-1.678999	-2.137742	0.204973	99
Es	0.550265	-0.039402	-0.409515	99
Es	2.022066	2.178526	-1.354617	99
Es	-0.894095	-0.476976	0.608618	99
Es	0.179092	1.630696	0.081588	99
Es	0.023947	-2.540858	-0.215751	99
Es	0.258937	-2.363864	-0.403306	99
Es	1.810808	2.217543	-0.811175	99
Es	-1.024065	-1.966307	0.521949	99
Es	0.235999	1.635627	0.047124	99
Es	2.273539	2.415293	-1.517728	99
Es	1.469371	2.298914	-1.227079	99
Es	0.584890	1.961907	-0.186909	99
Es	1.992312	1.595209	-1.444420	99
Es	-0.057282	-3.047237	-0.223080	99
Es	0.979602	3.155889	-0.301317	99
Es	-1.409085	-0.146595	1.030201	99
Es	1.086115	2.455066	-0.519180	99
Es	-1.014155	-2.256717	1.215801	99
Es	-0.375233	-2.333130	0.058245	99
Es	-0.946897	-1.211689	0.556501	99
Es	-0.247378	-0.152976	0.590580	99
42
Properties=species:S:1:pos:R:3:Z:I:1 energy=-339.97233535784795 field_type=dipole dipole="0.000000 0.000000 0.000000" charge=0
O	0.030061	-2.530168	-0.239057	8
C	-1.024249	-1.966278	0.522073	6
C	-0.894039	-0.476918	0.608573	6
C	0.044652	0.267392	0.006263	6
N	0.179852	1.630312	0.084443	7
C	1.086291	2.455152	-0.519317	6
N	2.022411	2.178832	-1.354847	7
H	-0.096869	-3.493498	-0.225117	1
H	-0.996759	-2.396358	1.528123	1
H	-1.976449	-2.227728	0.050253	1
H	-1.644749	0.011702	1.223013	1
H	0.795771	-0.218288	-0.612477	1
H	-0.496849	2.084122	0.689163	1
H	0.949961	3.506792	-0.213007	1
H	2.020961	1.174932	-1.548077	1
Es	-1.014502	-2.257087	1.215796	99
Es	2.273912	2.415171	-1.517967	99
Es	0.013321	-2.544569	-0.217818	99
Es	-1.024066	-1.966306	0.521951	99
Es	1.470137	2.298780	-1.226847	99
Es	-0.375022	-2.333757	0.059042	99
Es	0.044742	0.267641	0.006232	99
Es	1.086108	2.455067	-0.519183	99
Es	0.029350	-2.532148	-0.234079	99
Es	0.234418	1.636112	0.043334	99
Es	0.550114	-0.039510	-0.409395	99
Es	0.180476	1.630208	0.085027	99
Es	-0.247551	-0.152889	0.590477	99
Es	-0.645827	-0.086023	0.052503	99
Es	-0.057338	-3.046911	-0.223768	99
Es	-0.220541	1.901615	0.449320	99
Es	1.991691	1.596109	-1.444323	99
Es	-1.678631	-2.137471	0.204931	99
Es	-0.894097	-0.476977	0.608617	99
Es	0.120408	1.042921	0.034859	99
Es	0.979506	3.155655	-0.301518	99
Es	1.810396	2.217149	-0.811108	99
Es	2.022061	2.178529	-1.354612	99
Es	-0.946824	-1.211666	0.556684	99
Es	0.260069	-2.363663	-0.401600	99
Es	0.585295	1.961779	-0.186443	99
Es	-1.409120	-0.146463	1.030156	99
42
Properties=species:S:1:pos:R:3:Z:I:1 energy=-339.97233535784795 field_type=dipole dipole="0.000000 0.000000 0.000000" charge=0
O	0.030061	-2.530168	-0.239057	8
C	-1.024249	-1.966278	0.522073	6
C	-0.894039	-0.476918	0.608573	6
C	0.044652	0.267392	0.006263	6
N	0.179852	1.630312	0.084443	7
C	1.086291	2.455152	-0.519317	6
N	2.022411	2.178832	-1.354847	7
H	-0.096869	-3.493498	-0.225117	1
H	-0.996759	-2.396358	1.528123	1
H	-1.976449	-2.227728	0.050253	1
H	-1.644749	0.011702	1.223013	1
H	0.795771	-0.218288	-0.612477	1
H	-0.496849	2.084122	0.689163	1
H	0.949961	3.506792	-0.213007	1
H	2.020961	1.174932	-1.548077	1
Es	0.014369	-2.546554	-0.210950	99
Es	-1.014768	-2.257272	1.215752	99
Es	1.086111	2.455065	-0.519180	99
Es	2.022063	2.178531	-1.354612	99
Es	0.121172	1.042887	0.035867	99
Es	-0.374106	-2.333937	0.059629	99
Es	-0.058502	-3.046555	-0.224643	99
Es	0.183921	1.630082	0.085959	99
Es	-0.947036	-1.211630	0.556561	99
Es	0.550141	-0.039620	-0.409316	99
Es	-1.024065	-1.966308	0.521949	99
Es	0.044739	0.267643	0.006229	99
Es	2.274403	2.415315	-1.517824	99
Es	-0.894102	-0.476975	0.608611	99
Es	0.586033	1.961642	-0.185510	99
Es	1.991592	1.596865	-1.443746	99
Es	-0.220318	1.901429	0.449517	99
Es	-0.645799	-0.085987	0.052691	99
Es	1.810410	2.216920	-0.812390	99
Es	0.029696	-2.530350	-0.238985	99
Es	0.229254	1.636636	0.040208	99
Es	-1.678301	-2.137391	0.204994	99
Es	-1.409097	-0.146414	1.030278	99
Es	-0.247610	-0.152876	0.590267	99
Es	1.469756	2.298353	-1.226211	99
Es	0.258987	-2.363589	-0.403296	99
Es	0.979539	3.155384	-0.301584	99
42
Properties=species:S:1:pos:R:3:Z:I:1 energy=-339.97233535784795 field_type=dipole dipole="0.000000 0.000000 0.000000" charge=0
O	0.030061	-2.530168	-0.239057	8
C	-1.024249	-1.966278	0.522073	6
C	-0.894039	-0.476918	0.608573	6
C	0.044652	0.267392	0.006263	6
N	0.179852	1.630312	0.084443	7
C	1.086291	2.455152	-0.519317	6
N	2.022411	2.178832	-1.354847	7
H	-0.096869	-3.493498	-0.225117	1
H	-0.996759	-2.396358	1.528123	1
H	-1.976449	-2.227728	0.050253	1
H	-1.644749	0.011702	1.223013	1
H	0.795771	-0.218288	-0.612477	1
H	-0.496849	2.084122	0.689163	1
H	0.949961	3.506792	-0.213007	1
H	2.020961	1.174932	-1.548077	1
Es	-0.894099	-0.476976	0.608614	99
Es	-0.220822	1.901326	0.449097	99
Es	0.023609	-2.533195	-0.238144	99
Es	2.022073	2.178514	-1.354624	99
Es	0.235150	1.635944	0.044295	99
Es	0.260583	-2.363597	-0.401128	99
Es	-0.645848	-0.086061	0.052741	99
Es	-1.677720	-2.137069	0.205024	99
Es	-1.015220	-2.257775	1.215753	99
Es	-1.024064	-1.966308	0.521953	99
Es	1.469857	2.298172	-1.226070	99
Es	-0.058422	-3.046692	-0.223741	99
Es	1.991403	1.597597	-1.443397	99
Es	0.550067	-0.039638	-0.409321	99
Es	0.018065	-2.543417	-0.215015	99
Es	1.810230	2.216704	-0.812670	99
Es	0.179339	1.630424	0.083473	99
Es	2.274522	2.415284	-1.518124	99
Es	0.585780	1.961778	-0.185738	99
Es	0.120667	1.043195	0.034887	99
Es	-0.247661	-0.152724	0.590145	99
Es	1.086111	2.455065	-0.519180	99
Es	0.979693	3.155093	-0.301509	99
Es	0.044742	0.267638	0.006230	99
Es	-0.373325	-2.333920	0.059655	99
Es	-0.947163	-1.211664	0.556737	99
Es	-1.409064	-0.146404	1.030322	99
