43
Properties=species:S:1:pos:R:3:Z:I:1 energy=-323.9236516947389 field_type=dipole dipole="0.000000 0.000000 0.000000" charge=0
O	-0.877566	-2.264251	-1.026245	8
C	-1.687896	-1.417521	-0.211125	6
C	-1.164286	0.021209	-0.281515	6
N	0.179414	0.095659	0.304175	7
C	0.778594	1.406529	0.086045	6
C	2.123614	1.436809	0.674355	6
C	3.224484	1.461599	1.154915	6
H	-1.176816	-3.175381	-0.864225	1
H	-1.670366	-1.793701	0.817405	1
H	-2.715116	-1.463141	-0.586195	1
H	-1.846026	0.683809	0.262405	1
H	-1.130726	0.332319	-1.332745	1
H	0.756174	-0.615311	-0.152835	1
H	0.163154	2.184789	0.553535	1
H	0.845443	1.628809	-0.984955	1
H	4.197924	1.477779	1.587005	1
Es	0.157910	0.032417	0.650423	99
Es	-2.401020	-1.442885	-0.465719	99
Es	0.523035	-0.312191	0.009497	99
Es	2.722117	1.790591	0.801603	99
Es	2.549568	1.384748	1.243105	99
Es	3.860457	1.472917	1.436207	99
Es	-1.147062	0.237527	-1.007051	99
Es	-1.192728	-1.961788	-0.710763	99
Es	-0.945200	-2.195786	-1.318206	99
Es	-1.680378	-1.672927	0.496797	99
Es	2.123367	1.436803	0.674242	99
Es	-1.687749	-1.417626	-0.211274	99
Es	-0.591341	-2.244443	-0.913877	99
Es	0.371737	1.929819	0.404627	99
Es	1.481603	1.422866	0.391009	99
Es	2.783742	1.175720	0.703139	99
Es	-0.877853	-2.264357	-1.026061	99
Es	3.224704	1.461602	1.155002	99
Es	0.778678	1.406416	0.086126	99
Es	-1.164178	0.021171	-0.281447	99
Es	-1.052828	-2.747949	-0.927329	99
Es	0.835624	1.561730	-0.639494	99
Es	0.447063	0.677117	0.183201	99
Es	-1.422284	-0.699999	-0.244947	99
Es	-0.397439	0.079350	0.024313	99
Es	-1.632125	0.473794	0.090660	99
Es	0.179431	0.095799	0.303541	99
43
Properties=species:S:1:pos:R:3:Z:I:1 energy=-323.9236516947389 field_type=dipole dipole="0.000000 0.000000 0.000000" charge=0
O	-0.877566	-2.264251	-1.026245	8
C	-1.687896	-1.417521	-0.211125	6
C	-1.164286	0.021209	-0.281515	6
N	0.179414	0.095659	0.304175	7
C	0.778594	1.406529	0.086045	6
C	2.123614	1.436809	0.674355	6
C	3.224484	1.461599	1.154915	6
H	-1.176816	-3.175381	-0.864225	1
H	-1.670366	-1.793701	0.817405	1
H	-2.715116	-1.463141	-0.586195	1
H	-1.846026	0.683809	0.262405	1
H	-1.130726	0.332319	-1.332745	1
H	0.756174	-0.615311	-0.152835	1
H	0.163154	2.184789	0.553535	1
H	0.845443	1.628809	-0.984955	1
H	4.197924	1.477779	1.587005	1
Es	-1.164180	0.021172	-0.281447	99
Es	0.778678	1.406414	0.086128	99
Es	-1.197285	-1.965226	-0.717381	99
Es	-1.687747	-1.417627	-0.211277	99
Es	-1.421947	-0.700807	-0.244675	99
Es	-0.954145	-2.201614	-1.308876	99
Es	0.179425	0.095799	0.303532	99
Es	-2.403615	-1.442564	-0.466051	99
Es	2.778285	1.172041	0.714111	99
Es	3.224714	1.461604	1.155007	99
Es	2.725745	1.785851	0.793775	99
Es	0.371369	1.928655	0.402485	99
Es	-1.147799	0.237316	-1.006305	99
Es	0.833998	1.561226	-0.637792	99
Es	1.483286	1.423680	0.391708	99
Es	-0.401713	0.078351	0.026135	99
Es	2.551053	1.393394	1.240005	99
Es	0.447670	0.677696	0.186225	99
Es	-0.574367	-2.239518	-0.914522	99
Es	3.862042	1.472462	1.436462	99
Es	-1.632339	0.473114	0.089676	99
Es	-1.056281	-2.743253	-0.928874	99
Es	0.160921	0.033811	0.642411	99
Es	-0.877792	-2.264362	-1.026016	99
Es	-1.678893	-1.671941	0.495745	99
Es	2.123367	1.436809	0.674238	99
Es	0.524404	-0.312048	0.012898	99
43
Properties=species:S:1:pos:R:3:Z:I:1 energy=-323.9236516947389 field_type=dipole dipole="0.000000 0.000000 0.000000" charge=0
O	-0.877566	-2.264251	-1.026245	8
C	-1.687896	-1.417521	-0.211125	6
C	-1.164286	0.021209	-0.281515	6
N	0.179414	0.095659	0.304175	7
C	0.778594	1.406529	0.086045	6
C	2.123614	1.436809	0.674355	6
C	3.224484	1.461599	1.154915	6
H	-1.176816	-3.175381	-0.864225	1
H	-1.670366	-1.793701	0.817405	1
H	-2.715116	-1.463141	-0.586195	1
H	-1.846026	0.683809	0.262405	1
H	-1.130726	0.332319	-1.332745	1
H	0.756174	-0.615311	-0.152835	1
H	0.163154	2.184789	0.553535	1
H	0.845443	1.628809	-0.984955	1
H	4.197924	1.477779	1.587005	1
Es	2.776140	1.170426	0.718373	99
Es	-0.403084	0.077974	0.026348	99
Es	0.160893	0.036444	0.637511	99
Es	0.371163	1.927648	0.401406	99
Es	3.862564	1.472101	1.436880	99
Es	-0.956776	-2.202627	-1.305740	99
Es	2.552289	1.396912	1.237315	99
Es	0.179411	0.095800	0.303591	99
Es	0.448257	0.677597	0.186864	99
Es	-2.404913	-1.442403	-0.466273	99
Es	0.833102	1.561167	-0.636763	99
Es	-1.421803	-0.701170	-0.244453	99
Es	0.525696	-0.313510	0.016826	99
Es	-1.164178	0.021170	-0.281446	99
Es	-1.687751	-1.417625	-0.211273	99
Es	-1.632402	0.472647	0.089062	99
Es	-1.198153	-1.967778	-0.720418	99
Es	2.123362	1.436810	0.674239	99
Es	-1.148172	0.237153	-1.005962	99
Es	2.726588	1.783990	0.792105	99
Es	-0.877748	-2.264324	-1.026064	99
Es	-1.059518	-2.739372	-0.930831	99
Es	-0.567673	-2.239506	-0.912203	99
Es	1.484251	1.424331	0.392006	99
Es	0.778678	1.406416	0.086122	99
Es	3.224718	1.461606	1.155010	99
Es	-1.678090	-1.671444	0.495092	99
43
Properties=species:S:1:pos:R:3:Z:I:1 energy=-323.9236516947389 field_type=dipole dipole="0.000000 0.000000 0.000000" charge=0
O	-0.877566	-2.264251	-1.026245	8
C	-1.687896	-1.417521	-0.211125	6
C	-1.164286	0.021209	-0.281515	6
N	0.179414	0.095659	0.304175	7
C	0.778594	1.406529	0.086045	6
C	2.123614	1.436809	0.674355	6
C	3.224484	1.461599	1.154915	6
H	-1.176816	-3.175381	-0.864225	1
H	-1.670366	-1.793701	0.817405	1
H	-2.715116	-1.463141	-0.586195	1
H	-1.846026	0.683809	0.262405	1
H	-1.130726	0.332319	-1.332745	1
H	0.756174	-0.615311	-0.152835	1
H	0.163154	2.184789	0.553535	1
H	0.845443	1.628809	-0.984955	1
H	4.197924	1.477779	1.587005	1
Es	-0.403766	0.077853	0.026281	99
Es	-1.632164	0.472163	0.088783	99
Es	0.526292	-0.314204	0.019119	99
Es	-1.148522	0.237279	-1.006028	99
Es	-2.405564	-1.442111	-0.466479	99
Es	-0.565090	-2.240738	-0.906852	99
Es	2.123361	1.436814	0.674235	99
Es	0.371136	1.926938	0.400747	99
Es	-1.061450	-2.735519	-0.932305	99
Es	1.485122	1.425466	0.391336	99
Es	2.595373	1.726864	1.109148	99
Es	2.827390	1.503892	0.605849	99
Es	0.448797	0.677763	0.187799	99
Es	-0.877774	-2.264340	-1.026049	99
Es	-1.687749	-1.417626	-0.211275	99
Es	-1.421923	-0.701601	-0.244320	99
Es	-1.199950	-1.969351	-0.724068	99
Es	0.160668	0.037600	0.634399	99
Es	2.632008	1.119927	1.033270	99
Es	-0.955648	-2.203399	-1.305782	99
Es	3.862739	1.471769	1.437436	99
Es	0.832465	1.561088	-0.636145	99
Es	0.179422	0.095809	0.303527	99
Es	0.778678	1.406420	0.086126	99
Es	-1.677542	-1.671097	0.495007	99
Es	3.224719	1.461601	1.155012	99
Es	-1.164177	0.021173	-0.281444	99
43
Properties=species:S:1:pos:R:3:Z:I:1 energy=-323.9236516947389 field_type=dipole dipole="0.000000 0.000000 0.000000" charge=0
O	-0.877566	-2.264251	-1.026245	8
C	-1.687896	-1.417521	-0.211125	6
C	-1.164286	0.021209	-0.281515	6
N	0.179414	0.095659	0.304175	7
C	0.778594	1.406529	0.086045	6
C	2.123614	1.436809	0.674355	6
C	3.224484	1.461599	1.154915	6
H	-1.176816	-3.175381	-0.864225	1
H	-1.670366	-1.793701	0.817405	1
H	-2.715116	-1.463141	-0.586195	1
H	-1.846026	0.683809	0.262405	1
H	-1.130726	0.332319	-1.332745	1
H	0.756174	-0.615311	-0.152835	1
H	0.163154	2.184789	0.553535	1
H	0.845443	1.628809	-0.984955	1
H	4.197924	1.477779	1.587005	1
Es	-0.957528	-2.204742	-1.305885	99
Es	-1.164178	0.021172	-0.281446	99
Es	-1.632118	0.471975	0.088462	99
Es	2.823927	1.530694	0.611147	99
Es	-1.200495	-1.971595	-0.726437	99
Es	0.778678	1.406415	0.086129	99
Es	-1.061558	-2.732557	-0.931824	99
Es	1.485566	1.425965	0.391398	99
Es	-1.677223	-1.670863	0.494767	99
Es	0.449056	0.677933	0.189049	99
Es	-1.148710	0.237152	-1.005845	99
Es	0.831917	1.560990	-0.635668	99
Es	-1.687750	-1.417626	-0.211275	99
Es	-0.562601	-2.239922	-0.904645	99
Es	0.371248	1.926459	0.400270	99
Es	3.224711	1.461592	1.155030	99
Es	2.123359	1.436811	0.674235	99
Es	-2.406059	-1.441832	-0.466663	99
Es	-0.404516	0.077709	0.026674	99
Es	3.862854	1.471675	1.437702	99
Es	0.179423	0.095809	0.303510	99
Es	-1.421895	-0.701891	-0.244196	99
Es	2.588875	1.708695	1.127472	99
Es	2.642043	1.110985	1.009419	99
Es	0.526781	-0.314576	0.020700	99
Es	0.160829	0.038352	0.631274	99
Es	-0.877786	-2.264345	-1.026030	99
43
Properties=species:S:1:pos:R:3:Z:I:1 energy=-323.9236516947389 field_type=dipole dipole="0.000000 0.000000 0.000000" charge=0
O	-0.877566	-2.264251	-1.026245	8
C	-1.687896	-1.417521	-0.211125	6
C	-1.164286	0.021209	-0.281515	6
N	0.179414	0.095659	0.304175	7
C	0.778594	1.406529	0.086045	6
C	2.123614	1.436809	0.674355	6
C	3.224484	1.461599	1.154915	6
H	-1.176816	-3.175381	-0.864225	1
H	-1.670366	-1.793701	0.817405	1
H	-2.715116	-1.463141	-0.586195	1
H	-1.846026	0.683809	0.262405	1
H	-1.130726	0.332319	-1.332745	1
H	0.756174	-0.615311	-0.152835	1
H	0.163154	2.184789	0.553535	1
H	0.845443	1.628809	-0.984955	1
H	4.197924	1.477779	1.587005	1
Es	-0.560030	-2.241235	-0.903924	99
Es	-0.404997	0.077564	0.026817	99
Es	0.778678	1.406415	0.086128	99
Es	2.123359	1.436809	0.674238	99
Es	0.527119	-0.315003	0.022477	99
Es	0.160674	0.039045	0.628226	99
Es	-2.406537	-1.441775	-0.466696	99
Es	0.449320	0.677970	0.190172	99
Es	-1.148906	0.237173	-1.005592	99
Es	-0.877780	-2.264313	-1.025981	99
Es	-1.200680	-1.971600	-0.728387	99
Es	0.831595	1.560976	-0.635050	99
Es	-1.421936	-0.702125	-0.244058	99
Es	3.863115	1.471485	1.437521	99
Es	1.485703	1.425505	0.392061	99
Es	2.729756	1.780148	0.785393	99
Es	-1.164175	0.021171	-0.281447	99
Es	-1.632005	0.471705	0.088169	99
Es	0.371415	1.925960	0.399649	99
Es	-1.063989	-2.730318	-0.933500	99
Es	-1.676905	-1.670633	0.494345	99
Es	0.179422	0.095811	0.303500	99
Es	2.554162	1.405107	1.233376	99
Es	3.224720	1.461595	1.155018	99
Es	-1.687751	-1.417625	-0.211273	99
Es	-0.957494	-2.205486	-1.302832	99
Es	2.770996	1.166106	0.728978	99
43
Properties=species:S:1:pos:R:3:Z:I:1 energy=-323.9236516947389 field_type=dipole dipole="0.000000 0.000000 0.000000" charge=0
O	-0.877566	-2.264251	-1.026245	8
C	-1.687896	-1.417521	-0.211125	6
C	-1.164286	0.021209	-0.281515	6
N	0.179414	0.095659	0.304175	7
C	0.778594	1.406529	0.086045	6
C	2.123614	1.436809	0.674355	6
C	3.224484	1.461599	1.154915	6
H	-1.176816	-3.175381	-0.864225	1
H	-1.670366	-1.793701	0.817405	1
H	-2.715116	-1.463141	-0.586195	1
H	-1.846026	0.683809	0.262405	1
H	-1.130726	0.332319	-1.332745	1
H	0.756174	-0.615311	-0.152835	1
H	0.163154	2.184789	0.553535	1
H	0.845443	1.628809	-0.984955	1
H	4.197924	1.477779	1.587005	1
Es	3.224722	1.461599	1.155016	99
Es	-0.405535	0.077466	0.027269	99
Es	-1.632047	0.471442	0.088066	99
Es	-0.958208	-2.205729	-1.303923	99
Es	-2.406845	-1.441779	-0.466695	99
Es	0.527705	-0.315944	0.024390	99
Es	0.778678	1.406413	0.086128	99
Es	-0.877792	-2.264338	-1.026030	99
Es	-1.164179	0.021172	-0.281444	99
Es	1.485889	1.425665	0.392210	99
Es	-0.559191	-2.241485	-0.900967	99
Es	-1.421887	-0.702242	-0.244290	99
Es	2.554240	1.423973	1.233647	99
Es	-1.200829	-1.973574	-0.729891	99
Es	-1.064003	-2.727704	-0.933623	99
Es	0.831508	1.560767	-0.634649	99
Es	-1.148989	0.237278	-1.005455	99
Es	-1.676612	-1.670369	0.494157	99
Es	-1.687751	-1.417626	-0.211274	99
Es	0.371310	1.925788	0.399213	99
Es	3.863221	1.471398	1.437523	99
Es	0.160458	0.040242	0.625161	99
Es	0.179421	0.095813	0.303471	99
Es	0.449569	0.678055	0.190940	99
Es	2.736991	1.772620	0.770177	99
Es	2.123357	1.436803	0.674238	99
Es	2.763652	1.154729	0.743962	99
43
Properties=species:S:1:pos:R:3:Z:I:1 energy=-323.9236516947389 field_type=dipole dipole="0.000000 0.000000 0.000000" charge=0
O	-0.877566	-2.264251	-1.026245	8
C	-1.687896	-1.417521	-0.211125	6
C	-1.164286	0.021209	-0.281515	6
N	0.179414	0.095659	0.304175	7
C	0.778594	1.406529	0.086045	6
C	2.123614	1.436809	0.674355	6
C	3.224484	1.461599	1.154915	6
H	-1.176816	-3.175381	-0.864225	1
H	-1.670366	-1.793701	0.817405	1
H	-2.715116	-1.463141	-0.586195	1
H	-1.846026	0.683809	0.262405	1
H	-1.130726	0.332319	-1.332745	1
H	0.756174	-0.615311	-0.152835	1
H	0.163154	2.184789	0.553535	1
H	0.845443	1.628809	-0.984955	1
H	4.197924	1.477779	1.587005	1
Es	-1.164177	0.021169	-0.281446	99
Es	0.831158	1.560836	-0.634407	99
Es	-1.421794	-0.702511	-0.244257	99
Es	0.449792	0.678095	0.191337	99
Es	-1.063555	-2.726100	-0.933221	99
Es	3.863300	1.471342	1.437618	99
Es	1.486088	1.426014	0.392249	99
Es	0.159829	0.041636	0.622589	99
Es	0.371428	1.925328	0.398991	99
Es	-2.407088	-1.441476	-0.466819	99
Es	-1.149171	0.237210	-1.005480	99
Es	2.747324	1.759617	0.748884	99
Es	0.528321	-0.317123	0.026655	99
Es	-1.676351	-1.670176	0.494137	99
Es	-0.960896	-2.206337	-1.303474	99
Es	-0.557634	-2.241173	-0.901909	99
Es	0.778678	1.406413	0.086127	99
Es	2.554711	1.451607	1.232708	99
Es	-1.687752	-1.417626	-0.211274	99
Es	0.179421	0.095817	0.303458	99
Es	-0.405616	0.077388	0.027142	99
Es	3.224723	1.461601	1.155015	99
Es	-1.200249	-1.974743	-0.729699	99
Es	-0.877756	-2.264346	-1.026020	99
Es	2.752838	1.139928	0.766158	99
Es	2.123353	1.436809	0.674242	99
Es	-1.632074	0.471235	0.088020	99
43
Properties=species:S:1:pos:R:3:Z:I:1 energy=-323.9236516947389 field_type=dipole dipole="0.000000 0.000000 0.000000" charge=0
O	-0.877566	-2.264251	-1.026245	8
C	-1.687896	-1.417521	-0.211125	6
C	-1.164286	0.021209	-0.281515	6
N	0.179414	0.095659	0.304175	7
C	0.778594	1.406529	0.086045	6
C	2.123614	1.436809	0.674355	6
C	3.224484	1.461599	1.154915	6
H	-1.176816	-3.175381	-0.864225	1
H	-1.670366	-1.793701	0.817405	1
H	-2.715116	-1.463141	-0.586195	1
H	-1.846026	0.683809	0.262405	1
H	-1.130726	0.332319	-1.332745	1
H	0.756174	-0.615311	-0.152835	1
H	0.163154	2.184789	0.553535	1
H	0.845443	1.628809	-0.984955	1
H	4.197924	1.477779	1.587005	1
Es	-1.149249	0.237192	-1.005465	99
Es	0.158844	0.042398	0.619047	99
Es	-1.421948	-0.702638	-0.244098	99
Es	-1.164176	0.021172	-0.281444	99
Es	-1.631882	0.471130	0.087791	99
Es	-0.557598	-2.241949	-0.898328	99
Es	3.863262	1.471349	1.437836	99
Es	0.528951	-0.318014	0.028980	99
Es	-1.200980	-1.975708	-0.731785	99
Es	2.725847	1.783187	0.793578	99
Es	2.773928	1.174829	0.723350	99
Es	-1.064609	-2.724567	-0.934823	99
Es	-1.676172	-1.670102	0.494015	99
Es	0.830892	1.560928	-0.634223	99
Es	-1.687750	-1.417626	-0.211276	99
Es	0.778674	1.406416	0.086135	99
Es	-2.407255	-1.441486	-0.466871	99
Es	-0.959229	-2.205955	-1.303168	99
Es	1.486297	1.425960	0.392128	99
Es	2.555100	1.393311	1.230810	99
Es	0.179422	0.095818	0.303464	99
Es	-0.877721	-2.264334	-1.026103	99
Es	-0.405595	0.077192	0.026687	99
Es	0.371663	1.924954	0.398778	99
Es	0.450056	0.678557	0.193059	99
Es	3.224723	1.461601	1.155017	99
Es	2.123357	1.436817	0.674234	99
43
Properties=species:S:1:pos:R:3:Z:I:1 energy=-323.9236516947389 field_type=dipole dipole="0.000000 0.000000 0.000000" charge=0
O	-0.877566	-2.264251	-1.026245	8
C	-1.687896	-1.417521	-0.211125	6
C	-1.164286	0.021209	-0.281515	6
N	0.179414	0.095659	0.304175	7
C	0.778594	1.406529	0.086045	6
C	2.123614	1.436809	0.674355	6
C	3.224484	1.461599	1.154915	6
H	-1.176816	-3.175381	-0.864225	1
H	-1.670366	-1.793701	0.817405	1
H	-2.715116	-1.463141	-0.586195	1
H	-1.846026	0.683809	0.262405	1
H	-1.130726	0.332319	-1.332745	1
H	0.756174	-0.615311	-0.152835	1
H	0.163154	2.184789	0.553535	1
H	0.845443	1.628809	-0.984955	1
H	4.197924	1.477779	1.587005	1
Es	-1.065466	-2.723016	-0.935905	99
Es	-1.421898	-0.702734	-0.244068	99
Es	0.450236	0.678553	0.193378	99
Es	-1.631800	0.470857	0.087712	99
Es	2.123356	1.436809	0.674237	99
Es	0.371788	1.924671	0.398630	99
Es	0.778679	1.406415	0.086127	99
Es	-0.957427	-2.206359	-1.302681	99
Es	-1.675953	-1.669952	0.493981	99
Es	0.159064	0.042464	0.618101	99
Es	-2.407423	-1.441326	-0.466886	99
Es	0.830682	1.560978	-0.634045	99
Es	1.486408	1.426016	0.392169	99
Es	2.773369	1.174376	0.724524	99
Es	-1.202012	-1.975885	-0.733982	99
Es	-0.405852	0.077262	0.027003	99
Es	0.528826	-0.317959	0.029309	99
Es	2.555746	1.393284	1.229576	99
Es	-1.687750	-1.417627	-0.211277	99
Es	0.179420	0.095816	0.303458	99
Es	-1.164176	0.021171	-0.281442	99
Es	-0.557620	-2.242867	-0.895438	99
Es	-0.877714	-2.264311	-1.026107	99
Es	-1.149423	0.237208	-1.005564	99
Es	2.725730	1.783572	0.793692	99
Es	3.863339	1.471413	1.437811	99
Es	3.224724	1.461606	1.155014	99
