42
Properties=species:S:1:pos:R:3:Z:I:1 energy=-339.9734540170986 field_type=dipole dipole="0.000000 0.000000 0.000000" charge=0
O	-2.852155	0.036705	-0.527513	8
C	-1.616545	-0.423495	0.007157	6
C	-0.611935	0.730145	0.071127	6
N	-1.054215	1.954315	0.081587	7
N	0.737715	0.518215	0.126117	7
C	1.475915	-0.630615	0.174997	6
C	2.808405	-0.710455	0.223657	6
H	-2.667275	0.307775	-1.445503	1
H	-1.242985	-1.235205	-0.621613	1
H	-1.789775	-0.796165	1.020547	1
H	-2.086815	1.912575	0.063987	1
H	1.266575	1.385125	0.162007	1
H	0.893105	-1.548415	0.176007	1
H	3.435625	0.174905	0.226697	1
H	3.304355	-1.675415	0.260747	1
Es	2.194075	-0.680179	-0.126607	99
Es	3.231011	-0.106843	0.225909	99
Es	0.716054	0.498549	0.104312	99
Es	-1.723288	-0.667354	0.688559	99
Es	-0.844662	2.260018	0.096638	99
Es	2.168807	-0.665323	0.527324	99
Es	-1.346245	-0.972453	-0.420817	99
Es	0.709476	0.494004	0.133269	99
Es	-1.616679	-0.423339	0.007064	99
Es	-1.082371	0.140213	0.034477	99
Es	1.066848	-1.243501	0.174423	99
Es	1.475671	-0.630475	0.174985	99
Es	-0.897896	1.450678	0.352080	99
Es	1.041160	0.007846	0.145510	99
Es	-1.662671	1.926074	0.068730	99
Es	-1.054433	1.953853	0.081563	99
Es	-2.732996	0.173952	-1.016644	99
Es	3.142355	-1.359410	0.248989	99
Es	1.054262	1.026577	0.147887	99
Es	-3.036168	-0.208081	-0.536326	99
Es	-2.363916	-0.130113	-0.339915	99
Es	-0.611753	0.730003	0.071129	99
Es	2.808454	-0.710446	0.223662	99
Es	-0.883093	1.460673	-0.213079	99
Es	0.145892	0.569487	0.107177	99
Es	-2.851804	0.036674	-0.527716	99
Es	-2.918275	0.293335	-0.374562	99
42
Properties=species:S:1:pos:R:3:Z:I:1 energy=-339.9734540170986 field_type=dipole dipole="0.000000 0.000000 0.000000" charge=0
O	-2.852155	0.036705	-0.527513	8
C	-1.616545	-0.423495	0.007157	6
C	-0.611935	0.730145	0.071127	6
N	-1.054215	1.954315	0.081587	7
N	0.737715	0.518215	0.126117	7
C	1.475915	-0.630615	0.174997	6
C	2.808405	-0.710455	0.223657	6
H	-2.667275	0.307775	-1.445503	1
H	-1.242985	-1.235205	-0.621613	1
H	-1.789775	-0.796165	1.020547	1
H	-2.086815	1.912575	0.063987	1
H	1.266575	1.385125	0.162007	1
H	0.893105	-1.548415	0.176007	1
H	3.435625	0.174905	0.226697	1
H	3.304355	-1.675415	0.260747	1
Es	2.194323	-0.680080	-0.128300	99
Es	-1.345130	-0.973031	-0.420957	99
Es	-1.082563	0.140625	0.035550	99
Es	3.144944	-1.360894	0.249461	99
Es	2.168936	-0.664538	0.529051	99
Es	1.042760	0.008693	0.147913	99
Es	1.068603	-1.240852	0.174605	99
Es	0.712898	0.495665	0.103860	99
Es	-1.054440	1.953850	0.081567	99
Es	-0.611755	0.730006	0.071137	99
Es	-0.848314	2.246748	0.093578	99
Es	-1.616683	-0.423336	0.007063	99
Es	0.712511	0.496598	0.134060	99
Es	1.475668	-0.630474	0.174986	99
Es	-2.736567	0.175501	-1.014118	99
Es	1.052215	1.023472	0.145340	99
Es	-0.893970	1.452920	0.357739	99
Es	-2.851810	0.036693	-0.527684	99
Es	-1.667450	1.934320	0.067159	99
Es	-2.361126	-0.135818	-0.339565	99
Es	2.808458	-0.710448	0.223658	99
Es	0.145562	0.571462	0.107073	99
Es	-2.944589	0.290295	-0.362939	99
Es	3.228058	-0.109209	0.225321	99
Es	-1.722230	-0.666206	0.688133	99
Es	-3.010091	-0.200109	-0.550848	99
Es	-0.880405	1.462569	-0.214825	99
42
Properties=species:S:1:pos:R:3:Z:I:1 energy=-339.9734540170986 field_type=dipole dipole="0.000000 0.000000 0.000000" charge=0
O	-2.852155	0.036705	-0.527513	8
C	-1.616545	-0.423495	0.007157	6
C	-0.611935	0.730145	0.071127	6
N	-1.054215	1.954315	0.081587	7
N	0.737715	0.518215	0.126117	7
C	1.475915	-0.630615	0.174997	6
C	2.808405	-0.710455	0.223657	6
H	-2.667275	0.307775	-1.445503	1
H	-1.242985	-1.235205	-0.621613	1
H	-1.789775	-0.796165	1.020547	1
H	-2.086815	1.912575	0.063987	1
H	1.266575	1.385125	0.162007	1
H	0.893105	-1.548415	0.176007	1
H	3.435625	0.174905	0.226697	1
H	3.304355	-1.675415	0.260747	1
Es	-1.616683	-0.423336	0.007063	99
Es	1.069728	-1.239508	0.174760	99
Es	-2.961884	0.287140	-0.358723	99
Es	-1.082428	0.141139	0.036490	99
Es	-1.054445	1.953835	0.081548	99
Es	-0.891736	1.454395	0.359860	99
Es	-0.849792	2.238239	0.090896	99
Es	0.689023	0.474510	0.102440	99
Es	0.736679	0.517398	0.128522	99
Es	3.226189	-0.110420	0.224926	99
Es	-2.736452	0.175853	-1.009457	99
Es	-2.360106	-0.138890	-0.338925	99
Es	-1.721595	-0.665253	0.687033	99
Es	-1.669323	1.940379	0.066599	99
Es	-0.880131	1.462968	-0.214153	99
Es	2.194289	-0.679975	-0.128600	99
Es	0.145287	0.572939	0.110283	99
Es	-2.851782	0.036794	-0.527671	99
Es	-1.344683	-0.973809	-0.420740	99
Es	1.475668	-0.630473	0.174984	99
Es	2.169176	-0.664169	0.529523	99
Es	3.146521	-1.361418	0.249605	99
Es	2.808460	-0.710448	0.223664	99
Es	-2.994695	-0.193912	-0.560023	99
Es	-0.611751	0.730001	0.071137	99
Es	1.043394	0.009421	0.153561	99
Es	1.050887	1.021020	0.143416	99
42
Properties=species:S:1:pos:R:3:Z:I:1 energy=-339.9734540170986 field_type=dipole dipole="0.000000 0.000000 0.000000" charge=0
O	-2.852155	0.036705	-0.527513	8
C	-1.616545	-0.423495	0.007157	6
C	-0.611935	0.730145	0.071127	6
N	-1.054215	1.954315	0.081587	7
N	0.737715	0.518215	0.126117	7
C	1.475915	-0.630615	0.174997	6
C	2.808405	-0.710455	0.223657	6
H	-2.667275	0.307775	-1.445503	1
H	-1.242985	-1.235205	-0.621613	1
H	-1.789775	-0.796165	1.020547	1
H	-2.086815	1.912575	0.063987	1
H	1.266575	1.385125	0.162007	1
H	0.893105	-1.548415	0.176007	1
H	3.435625	0.174905	0.226697	1
H	3.304355	-1.675415	0.260747	1
Es	2.169532	-0.664011	0.529478	99
Es	2.808461	-0.710448	0.223665	99
Es	-0.889581	1.454859	0.360232	99
Es	-2.981210	-0.188727	-0.566289	99
Es	1.070440	-1.238702	0.174773	99
Es	3.224875	-0.111060	0.224730	99
Es	-1.616682	-0.423338	0.007063	99
Es	-1.344563	-0.974431	-0.420379	99
Es	-2.358811	-0.139737	-0.339764	99
Es	2.194084	-0.679901	-0.128514	99
Es	-1.082104	0.141646	0.037410	99
Es	-0.880925	1.463624	-0.212781	99
Es	-2.736814	0.175564	-1.005011	99
Es	0.691065	0.477392	0.126657	99
Es	1.475664	-0.630469	0.174989	99
Es	1.049712	1.019213	0.138064	99
Es	-1.721306	-0.664683	0.685847	99
Es	-2.976782	0.283294	-0.355742	99
Es	-0.611769	0.729995	0.071137	99
Es	-0.850592	2.233705	0.088783	99
Es	-1.670328	1.943348	0.066425	99
Es	-1.054439	1.953842	0.081565	99
Es	3.147628	-1.361650	0.249860	99
Es	1.044523	0.009774	0.150342	99
Es	-2.851788	0.036764	-0.527671	99
Es	0.145414	0.573802	0.103155	99
Es	0.734112	0.514757	0.119997	99
42
Properties=species:S:1:pos:R:3:Z:I:1 energy=-339.9734540170986 field_type=dipole dipole="0.000000 0.000000 0.000000" charge=0
O	-2.852155	0.036705	-0.527513	8
C	-1.616545	-0.423495	0.007157	6
C	-0.611935	0.730145	0.071127	6
N	-1.054215	1.954315	0.081587	7
N	0.737715	0.518215	0.126117	7
C	1.475915	-0.630615	0.174997	6
C	2.808405	-0.710455	0.223657	6
H	-2.667275	0.307775	-1.445503	1
H	-1.242985	-1.235205	-0.621613	1
H	-1.789775	-0.796165	1.020547	1
H	-2.086815	1.912575	0.063987	1
H	1.266575	1.385125	0.162007	1
H	0.893105	-1.548415	0.176007	1
H	3.435625	0.174905	0.226697	1
H	3.304355	-1.675415	0.260747	1
Es	0.145405	0.574514	0.103797	99
Es	1.475663	-0.630468	0.174984	99
Es	-1.344567	-0.975366	-0.419787	99
Es	-1.721145	-0.663904	0.684273	99
Es	2.169306	-0.663859	0.528682	99
Es	-1.670772	1.944981	0.066062	99
Es	2.194389	-0.679837	-0.128085	99
Es	-2.996889	0.273821	-0.352766	99
Es	-2.357869	-0.139676	-0.339612	99
Es	0.709422	0.493774	0.133947	99
Es	3.224133	-0.111232	0.224941	99
Es	-2.851812	0.036741	-0.527676	99
Es	-1.616676	-0.423341	0.007060	99
Es	-1.054458	1.953831	0.081562	99
Es	-2.735384	0.178186	-0.998738	99
Es	-1.081812	0.142139	0.038362	99
Es	1.049010	1.018010	0.137959	99
Es	-0.888476	1.455469	0.360540	99
Es	1.044770	0.010210	0.152591	99
Es	-0.611750	0.729997	0.071132	99
Es	0.715937	0.498303	0.109924	99
Es	-2.963852	-0.181873	-0.575348	99
Es	2.808462	-0.710448	0.223662	99
Es	-0.881949	1.463251	-0.210659	99
Es	1.070922	-1.238587	0.174682	99
Es	3.148241	-1.361777	0.250167	99
Es	-0.850436	2.231560	0.086364	99
42
Properties=species:S:1:pos:R:3:Z:I:1 energy=-339.9734540170986 field_type=dipole dipole="0.000000 0.000000 0.000000" charge=0
O	-2.852155	0.036705	-0.527513	8
C	-1.616545	-0.423495	0.007157	6
C	-0.611935	0.730145	0.071127	6
N	-1.054215	1.954315	0.081587	7
N	0.737715	0.518215	0.126117	7
C	1.475915	-0.630615	0.174997	6
C	2.808405	-0.710455	0.223657	6
H	-2.667275	0.307775	-1.445503	1
H	-1.242985	-1.235205	-0.621613	1
H	-1.789775	-0.796165	1.020547	1
H	-2.086815	1.912575	0.063987	1
H	1.266575	1.385125	0.162007	1
H	0.893105	-1.548415	0.176007	1
H	3.435625	0.174905	0.226697	1
H	3.304355	-1.675415	0.260747	1
Es	1.475661	-0.630469	0.174981	99
Es	1.048327	1.017103	0.137157	99
Es	0.691816	0.477121	0.111341	99
Es	2.808465	-0.710449	0.223657	99
Es	3.223395	-0.111484	0.224748	99
Es	3.148891	-1.361745	0.250427	99
Es	-0.850310	2.230035	0.085488	99
Es	1.071256	-1.238319	0.174812	99
Es	2.194128	-0.679857	-0.127879	99
Es	-3.008183	0.270413	-0.353521	99
Es	0.733639	0.514836	0.131024	99
Es	-0.886894	1.454350	0.359773	99
Es	-1.616682	-0.423336	0.007061	99
Es	1.045119	0.010571	0.154243	99
Es	-1.054444	1.953854	0.081564	99
Es	-1.081585	0.142494	0.039158	99
Es	0.145409	0.574944	0.104440	99
Es	-2.357338	-0.140721	-0.340270	99
Es	-2.953621	-0.174994	-0.578069	99
Es	-0.883447	1.464532	-0.209273	99
Es	2.169636	-0.663777	0.528373	99
Es	-2.851792	0.036793	-0.527660	99
Es	-2.735133	0.175747	-0.994375	99
Es	-1.671058	1.946130	0.065777	99
Es	-0.611751	0.730002	0.071134	99
Es	-1.344676	-0.976233	-0.419182	99
Es	-1.721015	-0.663120	0.683091	99
42
Properties=species:S:1:pos:R:3:Z:I:1 energy=-339.9734540170986 field_type=dipole dipole="0.000000 0.000000 0.000000" charge=0
O	-2.852155	0.036705	-0.527513	8
C	-1.616545	-0.423495	0.007157	6
C	-0.611935	0.730145	0.071127	6
N	-1.054215	1.954315	0.081587	7
N	0.737715	0.518215	0.126117	7
C	1.475915	-0.630615	0.174997	6
C	2.808405	-0.710455	0.223657	6
H	-2.667275	0.307775	-1.445503	1
H	-1.242985	-1.235205	-0.621613	1
H	-1.789775	-0.796165	1.020547	1
H	-2.086815	1.912575	0.063987	1
H	1.266575	1.385125	0.162007	1
H	0.893105	-1.548415	0.176007	1
H	3.435625	0.174905	0.226697	1
H	3.304355	-1.675415	0.260747	1
Es	-2.357003	-0.141977	-0.340937	99
Es	-1.616688	-0.423335	0.007068	99
Es	3.223065	-0.111502	0.224634	99
Es	-0.886261	1.453018	0.358921	99
Es	-1.054448	1.953845	0.081565	99
Es	2.808462	-0.710448	0.223658	99
Es	-1.720924	-0.662434	0.681750	99
Es	1.048015	1.016671	0.136510	99
Es	-0.611750	0.730002	0.071140	99
Es	-2.851786	0.036848	-0.527697	99
Es	-2.733924	0.178306	-0.988200	99
Es	-3.022176	0.261092	-0.352896	99
Es	-1.671122	1.947514	0.065220	99
Es	-1.081437	0.142761	0.039863	99
Es	2.170304	-0.664037	0.528122	99
Es	2.193533	-0.679453	-0.127290	99
Es	0.145503	0.575141	0.102914	99
Es	-2.941380	-0.166995	-0.583875	99
Es	1.045194	0.010675	0.155065	99
Es	1.475664	-0.630469	0.174991	99
Es	-0.884356	1.465748	-0.208240	99
Es	-0.849999	2.228706	0.085701	99
Es	0.734748	0.515792	0.130539	99
Es	1.071432	-1.238250	0.174627	99
Es	3.149134	-1.361895	0.250396	99
Es	0.690703	0.476168	0.113193	99
Es	-1.344690	-0.977068	-0.418720	99
42
Properties=species:S:1:pos:R:3:Z:I:1 energy=-339.9734540170986 field_type=dipole dipole="0.000000 0.000000 0.000000" charge=0
O	-2.852155	0.036705	-0.527513	8
C	-1.616545	-0.423495	0.007157	6
C	-0.611935	0.730145	0.071127	6
N	-1.054215	1.954315	0.081587	7
N	0.737715	0.518215	0.126117	7
C	1.475915	-0.630615	0.174997	6
C	2.808405	-0.710455	0.223657	6
H	-2.667275	0.307775	-1.445503	1
H	-1.242985	-1.235205	-0.621613	1
H	-1.789775	-0.796165	1.020547	1
H	-2.086815	1.912575	0.063987	1
H	1.266575	1.385125	0.162007	1
H	0.893105	-1.548415	0.176007	1
H	3.435625	0.174905	0.226697	1
H	3.304355	-1.675415	0.260747	1
Es	-3.025821	0.261605	-0.355173	99
Es	2.192965	-0.679188	-0.127126	99
Es	0.723472	0.505150	0.115022	99
Es	1.071709	-1.238062	0.174617	99
Es	-2.356630	-0.142103	-0.341530	99
Es	-1.054452	1.953842	0.081565	99
Es	-1.081196	0.143035	0.040485	99
Es	-2.938433	-0.164688	-0.584627	99
Es	-0.849914	2.227892	0.084926	99
Es	-1.616675	-0.423338	0.007065	99
Es	3.222612	-0.111694	0.224635	99
Es	2.808463	-0.710449	0.223663	99
Es	1.475664	-0.630468	0.174984	99
Es	-0.884714	1.451634	0.358163	99
Es	2.170912	-0.664238	0.527917	99
Es	-0.886018	1.467118	-0.206995	99
Es	1.045632	0.010874	0.153503	99
Es	-1.720814	-0.661820	0.680691	99
Es	0.145546	0.575556	0.101866	99
Es	-0.611749	0.729997	0.071141	99
Es	3.149530	-1.361847	0.250489	99
Es	-1.671240	1.948108	0.065115	99
Es	-1.344790	-0.977712	-0.418191	99
Es	0.701865	0.487135	0.134193	99
Es	-2.733779	0.175692	-0.984414	99
Es	-2.851810	0.036743	-0.527645	99
Es	1.047482	1.015645	0.133681	99
42
Properties=species:S:1:pos:R:3:Z:I:1 energy=-339.9734540170986 field_type=dipole dipole="0.000000 0.000000 0.000000" charge=0
O	-2.852155	0.036705	-0.527513	8
C	-1.616545	-0.423495	0.007157	6
C	-0.611935	0.730145	0.071127	6
N	-1.054215	1.954315	0.081587	7
N	0.737715	0.518215	0.126117	7
C	1.475915	-0.630615	0.174997	6
C	2.808405	-0.710455	0.223657	6
H	-2.667275	0.307775	-1.445503	1
H	-1.242985	-1.235205	-0.621613	1
H	-1.789775	-0.796165	1.020547	1
H	-2.086815	1.912575	0.063987	1
H	1.266575	1.385125	0.162007	1
H	0.893105	-1.548415	0.176007	1
H	3.435625	0.174905	0.226697	1
H	3.304355	-1.675415	0.260747	1
Es	-2.733260	0.174695	-0.980419	99
Es	-2.930645	-0.157799	-0.586163	99
Es	-1.081176	0.143149	0.040740	99
Es	2.193512	-0.679345	-0.127094	99
Es	-3.034279	0.256875	-0.357027	99
Es	1.045801	0.011003	0.153843	99
Es	1.475665	-0.630469	0.174986	99
Es	2.808463	-0.710449	0.223660	99
Es	-1.054447	1.953848	0.081564	99
Es	0.145574	0.575758	0.101356	99
Es	0.737020	0.517477	0.123656	99
Es	1.047181	1.015324	0.134958	99
Es	-2.356755	-0.143498	-0.341880	99
Es	0.688270	0.474646	0.124427	99
Es	-2.851709	0.036931	-0.527626	99
Es	3.149666	-1.361917	0.250665	99
Es	3.222391	-0.111822	0.224715	99
Es	1.071839	-1.238042	0.174714	99
Es	-0.883295	1.450870	0.357863	99
Es	-1.616681	-0.423338	0.007060	99
Es	-0.887425	1.468017	-0.205584	99
Es	-1.720610	-0.661245	0.679906	99
Es	2.170446	-0.663865	0.527557	99
Es	-0.611751	0.730002	0.071136	99
Es	-0.849843	2.226980	0.083668	99
Es	-1.344903	-0.978278	-0.417741	99
Es	-1.671233	1.948914	0.065079	99
42
Properties=species:S:1:pos:R:3:Z:I:1 energy=-339.9734540170986 field_type=dipole dipole="0.000000 0.000000 0.000000" charge=0
O	-2.852155	0.036705	-0.527513	8
C	-1.616545	-0.423495	0.007157	6
C	-0.611935	0.730145	0.071127	6
N	-1.054215	1.954315	0.081587	7
N	0.737715	0.518215	0.126117	7
C	1.475915	-0.630615	0.174997	6
C	2.808405	-0.710455	0.223657	6
H	-2.667275	0.307775	-1.445503	1
H	-1.242985	-1.235205	-0.621613	1
H	-1.789775	-0.796165	1.020547	1
H	-2.086815	1.912575	0.063987	1
H	1.266575	1.385125	0.162007	1
H	0.893105	-1.548415	0.176007	1
H	3.435625	0.174905	0.226697	1
H	3.304355	-1.675415	0.260747	1
Es	-1.344941	-0.978979	-0.417227	99
Es	3.149873	-1.361916	0.250728	99
Es	-2.923732	-0.152332	-0.588931	99
Es	0.699218	0.483618	0.111934	99
Es	-0.849590	2.226894	0.083027	99
Es	-0.611750	0.730001	0.071148	99
Es	-0.882832	1.450571	0.357548	99
Es	1.045783	0.011107	0.154795	99
Es	2.808463	-0.710449	0.223661	99
Es	-1.054442	1.953839	0.081565	99
Es	-1.616681	-0.423336	0.007059	99
Es	1.475663	-0.630465	0.174985	99
Es	-1.720583	-0.660629	0.678889	99
Es	-1.081136	0.143220	0.041304	99
Es	1.071912	-1.237979	0.174599	99
Es	0.145542	0.576027	0.102356	99
Es	2.170773	-0.664037	0.527444	99
Es	1.047093	1.015055	0.135458	99
Es	3.222145	-0.111860	0.224647	99
Es	-2.356682	-0.143988	-0.342125	99
Es	2.193183	-0.679228	-0.126797	99
Es	-0.888096	1.468257	-0.204747	99
Es	-2.851708	0.036967	-0.527645	99
Es	-3.042207	0.251034	-0.358446	99
Es	-1.671279	1.949048	0.065030	99
Es	0.726192	0.508411	0.133658	99
Es	-2.732367	0.175571	-0.975897	99
42
Properties=species:S:1:pos:R:3:Z:I:1 energy=-339.9734540170986 field_type=dipole dipole="0.000000 0.000000 0.000000" charge=0
O	-2.852155	0.036705	-0.527513	8
C	-1.616545	-0.423495	0.007157	6
C	-0.611935	0.730145	0.071127	6
N	-1.054215	1.954315	0.081587	7
N	0.737715	0.518215	0.126117	7
C	1.475915	-0.630615	0.174997	6
C	2.808405	-0.710455	0.223657	6
H	-2.667275	0.307775	-1.445503	1
H	-1.242985	-1.235205	-0.621613	1
H	-1.789775	-0.796165	1.020547	1
H	-2.086815	1.912575	0.063987	1
H	1.266575	1.385125	0.162007	1
H	0.893105	-1.548415	0.176007	1
H	3.435625	0.174905	0.226697	1
H	3.304355	-1.675415	0.260747	1
Es	3.150168	-1.361851	0.250734	99
Es	1.045988	0.011222	0.154808	99
Es	-2.731745	0.175405	-0.972437	99
Es	3.221822	-0.111947	0.224714	99
Es	1.072033	-1.237877	0.174605	99
Es	1.046771	1.014703	0.135519	99
Es	0.145608	0.576218	0.101777	99
Es	-1.344931	-0.979265	-0.417031	99
Es	-2.356843	-0.144855	-0.342441	99
Es	1.475663	-0.630466	0.174985	99
Es	-1.054455	1.953831	0.081556	99
Es	0.734807	0.515827	0.130414	99
Es	0.690552	0.476169	0.115728	99
Es	-0.889544	1.470164	-0.203590	99
Es	-1.671307	1.949605	0.065009	99
Es	-2.919167	-0.148041	-0.590370	99
Es	2.170678	-0.664061	0.527259	99
Es	-0.849483	2.226330	0.083212	99
Es	2.808463	-0.710449	0.223661	99
Es	-0.611755	0.730002	0.071144	99
Es	-1.720545	-0.660372	0.678417	99
Es	2.193294	-0.679247	-0.126733	99
Es	-3.047222	0.247895	-0.360055	99
Es	-2.851758	0.036870	-0.527664	99
Es	-0.881531	1.448633	0.356187	99
Es	-1.616680	-0.423333	0.007061	99
Es	-1.081066	0.143310	0.041551	99
42
Properties=species:S:1:pos:R:3:Z:I:1 energy=-339.9734540170986 field_type=dipole dipole="0.000000 0.000000 0.000000" charge=0
O	-2.852155	0.036705	-0.527513	8
C	-1.616545	-0.423495	0.007157	6
C	-0.611935	0.730145	0.071127	6
N	-1.054215	1.954315	0.081587	7
N	0.737715	0.518215	0.126117	7
C	1.475915	-0.630615	0.174997	6
C	2.808405	-0.710455	0.223657	6
H	-2.667275	0.307775	-1.445503	1
H	-1.242985	-1.235205	-0.621613	1
H	-1.789775	-0.796165	1.020547	1
H	-2.086815	1.912575	0.063987	1
H	1.266575	1.385125	0.162007	1
H	0.893105	-1.548415	0.176007	1
H	3.435625	0.174905	0.226697	1
H	3.304355	-1.675415	0.260747	1
Es	-1.080980	0.143511	0.041851	99
Es	3.221644	-0.111970	0.224801	99
Es	1.072186	-1.237784	0.174537	99
Es	3.150310	-1.361842	0.250856	99
Es	0.689783	0.475545	0.116760	99
Es	-0.849367	2.225979	0.083203	99
Es	2.808463	-0.710449	0.223657	99
Es	2.193164	-0.679189	-0.126607	99
Es	-1.671274	1.950036	0.064927	99
Es	-1.720427	-0.659982	0.677548	99
Es	1.045943	0.011178	0.154704	99
Es	-2.851761	0.036850	-0.527656	99
Es	0.735581	0.516479	0.129802	99
Es	-0.611751	0.730002	0.071149	99
Es	-2.914628	-0.143855	-0.592321	99
Es	-1.344930	-0.979672	-0.416728	99
Es	-1.616681	-0.423336	0.007064	99
Es	-3.052209	0.243322	-0.360888	99
Es	-0.890039	1.470678	-0.203092	99
Es	-1.054454	1.953828	0.081552	99
Es	2.170818	-0.664153	0.527066	99
Es	-2.356949	-0.145651	-0.342740	99
Es	-2.731313	0.176584	-0.969146	99
Es	1.475663	-0.630465	0.174988	99
Es	1.046653	1.014521	0.135038	99
Es	0.145614	0.576229	0.101890	99
Es	-0.881246	1.448030	0.355806	99
42
Properties=species:S:1:pos:R:3:Z:I:1 energy=-339.9734540170986 field_type=dipole dipole="0.000000 0.000000 0.000000" charge=0
O	-2.852155	0.036705	-0.527513	8
C	-1.616545	-0.423495	0.007157	6
C	-0.611935	0.730145	0.071127	6
N	-1.054215	1.954315	0.081587	7
N	0.737715	0.518215	0.126117	7
C	1.475915	-0.630615	0.174997	6
C	2.808405	-0.710455	0.223657	6
H	-2.667275	0.307775	-1.445503	1
H	-1.242985	-1.235205	-0.621613	1
H	-1.789775	-0.796165	1.020547	1
H	-2.086815	1.912575	0.063987	1
H	1.266575	1.385125	0.162007	1
H	0.893105	-1.548415	0.176007	1
H	3.435625	0.174905	0.226697	1
H	3.304355	-1.675415	0.260747	1
Es	-2.851778	0.036781	-0.527669	99
Es	-1.720360	-0.659365	0.676817	99
Es	3.150415	-1.361849	0.250795	99
Es	0.690881	0.477096	0.128428	99
Es	-2.356634	-0.145685	-0.343444	99
Es	1.046501	1.014228	0.134316	99
Es	-1.344978	-0.980305	-0.416243	99
Es	2.170485	-0.663917	0.527070	99
Es	-1.054450	1.953842	0.081556	99
Es	-3.053738	0.243228	-0.362460	99
Es	2.808464	-0.710449	0.223664	99
Es	3.221511	-0.112074	0.224693	99
Es	1.072196	-1.237734	0.174635	99
Es	-0.879664	1.446914	0.354888	99
Es	-1.616678	-0.423339	0.007060	99
Es	-0.611753	0.730002	0.071144	99
Es	0.734398	0.515026	0.120641	99
Es	-0.849778	2.225229	0.082891	99
Es	-2.731724	0.174803	-0.967555	99
Es	1.046089	0.011239	0.154511	99
Es	0.145713	0.576359	0.100380	99
Es	-1.671295	1.950416	0.065056	99
Es	-0.891138	1.472113	-0.202191	99
Es	1.475662	-0.630465	0.174986	99
Es	-2.913026	-0.141868	-0.591540	99
Es	-1.081037	0.143549	0.042187	99
Es	2.193531	-0.679355	-0.126597	99
42
Properties=species:S:1:pos:R:3:Z:I:1 energy=-339.9734540170986 field_type=dipole dipole="0.000000 0.000000 0.000000" charge=0
O	-2.852155	0.036705	-0.527513	8
C	-1.616545	-0.423495	0.007157	6
C	-0.611935	0.730145	0.071127	6
N	-1.054215	1.954315	0.081587	7
N	0.737715	0.518215	0.126117	7
C	1.475915	-0.630615	0.174997	6
C	2.808405	-0.710455	0.223657	6
H	-2.667275	0.307775	-1.445503	1
H	-1.242985	-1.235205	-0.621613	1
H	-1.789775	-0.796165	1.020547	1
H	-2.086815	1.912575	0.063987	1
H	1.266575	1.385125	0.162007	1
H	0.893105	-1.548415	0.176007	1
H	3.435625	0.174905	0.226697	1
H	3.304355	-1.675415	0.260747	1
Es	-0.611749	0.730001	0.071144	99
Es	1.046168	0.011293	0.154011	99
Es	-1.080887	0.143603	0.042165	99
Es	-2.851699	0.036868	-0.527803	99
Es	-1.720307	-0.659323	0.676784	99
Es	1.475664	-0.630467	0.174984	99
Es	2.193477	-0.679279	-0.126814	99
Es	0.687586	0.473951	0.122663	99
Es	-2.732033	0.172975	-0.965784	99
Es	1.046367	1.014044	0.134297	99
Es	3.150634	-1.361749	0.250760	99
Es	3.221268	-0.112324	0.224822	99
Es	0.145651	0.576419	0.101102	99
Es	2.170546	-0.663951	0.527175	99
Es	0.737695	0.518174	0.126140	99
Es	-0.878217	1.445175	0.353535	99
Es	-1.616680	-0.423337	0.007058	99
Es	2.808469	-0.710446	0.223663	99
Es	-3.055041	0.243436	-0.364095	99
Es	-1.345068	-0.980341	-0.416170	99
Es	-1.054452	1.953835	0.081567	99
Es	-0.849398	2.224802	0.081999	99
Es	-1.671247	1.951008	0.065139	99
Es	1.072336	-1.237553	0.174678	99
Es	-2.911653	-0.139888	-0.590607	99
Es	-0.893113	1.473618	-0.200071	99
Es	-2.356502	-0.146121	-0.344322	99
42
Properties=species:S:1:pos:R:3:Z:I:1 energy=-339.9734540170986 field_type=dipole dipole="0.000000 0.000000 0.000000" charge=0
O	-2.852155	0.036705	-0.527513	8
C	-1.616545	-0.423495	0.007157	6
C	-0.611935	0.730145	0.071127	6
N	-1.054215	1.954315	0.081587	7
N	0.737715	0.518215	0.126117	7
C	1.475915	-0.630615	0.174997	6
C	2.808405	-0.710455	0.223657	6
H	-2.667275	0.307775	-1.445503	1
H	-1.242985	-1.235205	-0.621613	1
H	-1.789775	-0.796165	1.020547	1
H	-2.086815	1.912575	0.063987	1
H	1.266575	1.385125	0.162007	1
H	0.893105	-1.548415	0.176007	1
H	3.435625	0.174905	0.226697	1
H	3.304355	-1.675415	0.260747	1
Es	-1.080848	0.143756	0.042361	99
Es	-2.731386	0.173591	-0.963091	99
Es	-2.356756	-0.146543	-0.343861	99
Es	-1.671350	1.950691	0.064921	99
Es	-2.851798	0.036556	-0.527730	99
Es	-1.054456	1.953834	0.081563	99
Es	0.722981	0.504700	0.114963	99
Es	-2.908673	-0.137118	-0.592317	99
Es	3.221318	-0.112218	0.224588	99
Es	-0.878854	1.446077	0.354065	99
Es	1.046116	1.013638	0.133479	99
Es	1.046388	0.011431	0.154158	99
Es	-3.058404	0.240702	-0.365489	99
Es	-1.616675	-0.423341	0.007063	99
Es	2.192965	-0.679132	-0.126422	99
Es	1.072317	-1.237671	0.174637	99
Es	-1.345181	-0.981078	-0.415501	99
Es	0.702328	0.487523	0.134806	99
Es	3.150565	-1.361833	0.250873	99
Es	-1.720180	-0.658580	0.675815	99
Es	-0.849603	2.224884	0.082402	99
Es	-0.892147	1.472923	-0.200856	99
Es	0.145702	0.576598	0.100831	99
Es	2.171067	-0.664052	0.526970	99
Es	2.808464	-0.710449	0.223663	99
Es	-0.611749	0.729999	0.071144	99
Es	1.475664	-0.630467	0.174987	99
42
Properties=species:S:1:pos:R:3:Z:I:1 energy=-339.9734540170986 field_type=dipole dipole="0.000000 0.000000 0.000000" charge=0
O	-2.852155	0.036705	-0.527513	8
C	-1.616545	-0.423495	0.007157	6
C	-0.611935	0.730145	0.071127	6
N	-1.054215	1.954315	0.081587	7
N	0.737715	0.518215	0.126117	7
C	1.475915	-0.630615	0.174997	6
C	2.808405	-0.710455	0.223657	6
H	-2.667275	0.307775	-1.445503	1
H	-1.242985	-1.235205	-0.621613	1
H	-1.789775	-0.796165	1.020547	1
H	-2.086815	1.912575	0.063987	1
H	1.266575	1.385125	0.162007	1
H	0.893105	-1.548415	0.176007	1
H	3.435625	0.174905	0.226697	1
H	3.304355	-1.675415	0.260747	1
Es	-2.356766	-0.147100	-0.344432	99
Es	-1.345100	-0.981091	-0.415568	99
Es	3.221336	-0.112198	0.224753	99
Es	1.475663	-0.630466	0.174984	99
Es	-1.671299	1.950985	0.065005	99
Es	-1.720198	-0.658607	0.675731	99
Es	-0.893685	1.475266	-0.199425	99
Es	0.145683	0.576497	0.101032	99
Es	1.046252	1.013946	0.134710	99
Es	-0.877535	1.443535	0.351865	99
Es	-1.080923	0.143639	0.042486	99
Es	-1.616681	-0.423328	0.007061	99
Es	-3.062735	0.236843	-0.366992	99
Es	2.192852	-0.678981	-0.126405	99
Es	-1.054449	1.953850	0.081561	99
Es	-0.611750	0.730001	0.071144	99
Es	2.171193	-0.664177	0.526787	99
Es	-2.851771	0.036750	-0.527672	99
Es	-0.849452	2.224809	0.083134	99
Es	2.808464	-0.710449	0.223662	99
Es	-2.731479	0.172912	-0.961812	99
Es	1.046220	0.011322	0.153906	99
Es	-2.904223	-0.132126	-0.591590	99
Es	3.150519	-1.361897	0.250866	99
Es	1.072392	-1.237648	0.174611	99
Es	0.702401	0.487576	0.134496	99
Es	0.722885	0.504557	0.114121	99
