38
Properties=species:S:1:pos:R:3:Z:I:1 energy=-358.6520290437166 field_type=dipole dipole="0.000000 0.000000 0.000000" charge=0
O	-1.954196	-1.672297	0.827932	8
C	-0.851476	-1.582247	0.307152	6
N	-0.094367	-0.452317	0.274002	7
C	-0.517246	0.925352	0.540342	6
C	0.659274	1.366473	-0.354068	6
O	1.109023	2.430702	-0.723878	8
C	1.030904	-0.111097	-0.594398	6
H	-0.365057	-2.433078	-0.197838	1
H	-0.422147	1.210412	1.589422	1
H	-1.503646	1.171872	0.143292	1
H	0.910963	-0.445448	-1.626488	1
H	1.997974	-0.408327	-0.185468	1
Es	-2.068516	-1.954899	0.802728	99
Es	0.791532	2.035900	-0.793100	99
Es	-0.094614	-0.452337	0.273657	99
Es	0.659253	1.366389	-0.354049	99
Es	-1.164907	1.091597	0.265983	99
Es	0.913454	0.631990	-0.525243	99
Es	-0.458154	-0.837635	0.135562	99
Es	0.949291	2.662456	-0.610622	99
Es	-0.328704	0.109897	0.412193	99
Es	-0.505667	-2.154511	-0.042450	99
Es	-1.468448	-1.703148	0.864731	99
Es	1.108909	2.430435	-0.723781	99
Es	0.946370	-0.330102	-1.285721	99
Es	-2.038670	-1.399550	0.949842	99
Es	-0.851349	-1.582115	0.307147	99
Es	1.678310	-0.303293	-0.321523	99
Es	-0.445288	1.120620	1.234777	99
Es	-0.048827	-0.671613	0.529157	99
Es	-1.689058	-1.577361	0.433753	99
Es	-0.517153	0.925191	0.540279	99
Es	1.030754	-0.111115	-0.594292	99
Es	-1.953901	-1.672261	0.827795	99
Es	1.350384	2.391400	-0.904950	99
Es	1.099281	2.048382	-0.385205	99
Es	0.389581	-0.375170	-0.116551	99
Es	0.044790	1.220495	0.113534	99
38
Properties=species:S:1:pos:R:3:Z:I:1 energy=-358.6520290437166 field_type=dipole dipole="0.000000 0.000000 0.000000" charge=0
O	-1.954196	-1.672297	0.827932	8
C	-0.851476	-1.582247	0.307152	6
N	-0.094367	-0.452317	0.274002	7
C	-0.517246	0.925352	0.540342	6
C	0.659274	1.366473	-0.354068	6
O	1.109023	2.430702	-0.723878	8
C	1.030904	-0.111097	-0.594398	6
H	-0.365057	-2.433078	-0.197838	1
H	-0.422147	1.210412	1.589422	1
H	-1.503646	1.171872	0.143292	1
H	0.910963	-0.445448	-1.626488	1
H	1.997974	-0.408327	-0.185468	1
Es	-2.017456	-1.401204	0.940661	99
Es	-0.049302	-0.622174	0.485499	99
Es	0.791281	2.036491	-0.791719	99
Es	1.108907	2.430403	-0.723781	99
Es	0.947611	-0.329667	-1.282789	99
Es	-1.472295	-1.697384	0.860120	99
Es	1.677750	-0.303488	-0.323109	99
Es	0.913635	0.633732	-0.526799	99
Es	0.046616	1.223578	0.112762	99
Es	-0.517153	0.925188	0.540278	99
Es	-1.164478	1.091004	0.268661	99
Es	-0.505479	-2.154363	-0.042072	99
Es	1.030750	-0.111119	-0.594290	99
Es	-0.094725	-0.452299	0.273478	99
Es	-0.458774	-0.884934	0.181615	99
Es	-2.086309	-1.961582	0.816767	99
Es	0.943364	2.642888	-0.603817	99
Es	-0.447211	1.118845	1.231756	99
Es	-0.332316	0.108279	0.411136	99
Es	-0.851350	-1.582111	0.307139	99
Es	1.096102	2.049310	-0.387491	99
Es	-1.953866	-1.672279	0.827772	99
Es	0.659251	1.366387	-0.354050	99
Es	1.360536	2.409378	-0.910655	99
Es	-1.688551	-1.575435	0.433690	99
Es	0.392114	-0.377803	-0.117108	99
38
Properties=species:S:1:pos:R:3:Z:I:1 energy=-358.6520290437166 field_type=dipole dipole="0.000000 0.000000 0.000000" charge=0
O	-1.954196	-1.672297	0.827932	8
C	-0.851476	-1.582247	0.307152	6
N	-0.094367	-0.452317	0.274002	7
C	-0.517246	0.925352	0.540342	6
C	0.659274	1.366473	-0.354068	6
O	1.109023	2.430702	-0.723878	8
C	1.030904	-0.111097	-0.594398	6
H	-0.365057	-2.433078	-0.197838	1
H	-0.422147	1.210412	1.589422	1
H	-1.503646	1.171872	0.143292	1
H	0.910963	-0.445448	-1.626488	1
H	1.997974	-0.408327	-0.185468	1
Es	0.395124	-0.379291	-0.115336	99
Es	-0.851352	-1.582113	0.307140	99
Es	0.047274	1.224968	0.112720	99
Es	-1.953878	-1.672284	0.827776	99
Es	-1.474520	-1.695095	0.859796	99
Es	-0.505358	-2.154298	-0.041659	99
Es	1.677716	-0.303737	-0.323985	99
Es	0.659250	1.366388	-0.354050	99
Es	1.030753	-0.111116	-0.594292	99
Es	0.792194	2.035247	-0.792468	99
Es	0.938562	2.625793	-0.599315	99
Es	-0.094810	-0.452328	0.273389	99
Es	1.096358	2.049305	-0.389322	99
Es	-2.096415	-1.961641	0.824669	99
Es	1.364555	2.427659	-0.912561	99
Es	1.108845	2.430404	-0.723736	99
Es	-0.059380	-0.597353	0.449850	99
Es	-0.517153	0.925189	0.540278	99
Es	-0.450807	-0.908686	0.215635	99
Es	-0.447843	1.118016	1.229795	99
Es	-1.687341	-1.574641	0.433205	99
Es	0.947938	-0.329340	-1.280896	99
Es	-0.333621	0.107682	0.411305	99
Es	0.913495	0.634635	-0.527740	99
Es	-1.164569	1.090706	0.269933	99
Es	-2.006364	-1.404428	0.933521	99
38
Properties=species:S:1:pos:R:3:Z:I:1 energy=-358.6520290437166 field_type=dipole dipole="0.000000 0.000000 0.000000" charge=0
O	-1.954196	-1.672297	0.827932	8
C	-0.851476	-1.582247	0.307152	6
N	-0.094367	-0.452317	0.274002	7
C	-0.517246	0.925352	0.540342	6
C	0.659274	1.366473	-0.354068	6
O	1.109023	2.430702	-0.723878	8
C	1.030904	-0.111097	-0.594398	6
H	-0.365057	-2.433078	-0.197838	1
H	-0.422147	1.210412	1.589422	1
H	-1.503646	1.171872	0.143292	1
H	0.910963	-0.445448	-1.626488	1
H	1.997974	-0.408327	-0.185468	1
Es	0.913658	0.635126	-0.528116	99
Es	1.096443	2.048830	-0.390517	99
Es	-2.001037	-1.406501	0.931378	99
Es	1.366309	2.441333	-0.913049	99
Es	-1.164996	1.090779	0.271150	99
Es	1.030753	-0.111115	-0.594291	99
Es	0.398147	-0.380173	-0.112527	99
Es	-0.447583	1.117413	1.228314	99
Es	-1.686342	-1.573098	0.433688	99
Es	-0.095144	-0.452551	0.273116	99
Es	-0.443964	-0.919797	0.236679	99
Es	-1.476200	-1.694711	0.858856	99
Es	0.047557	1.225642	0.112631	99
Es	1.677732	-0.304210	-0.324727	99
Es	-2.101030	-1.961683	0.827219	99
Es	-0.517152	0.925188	0.540279	99
Es	-0.505320	-2.154228	-0.041509	99
Es	-0.851348	-1.582113	0.307143	99
Es	0.792333	2.035016	-0.793341	99
Es	0.936621	2.612842	-0.596707	99
Es	1.108925	2.430363	-0.723794	99
Es	0.947929	-0.328825	-1.279677	99
Es	-0.333352	0.107379	0.412604	99
Es	-1.953899	-1.672276	0.827787	99
Es	0.659246	1.366387	-0.354058	99
Es	-0.069635	-0.585375	0.425123	99
38
Properties=species:S:1:pos:R:3:Z:I:1 energy=-358.6520290437166 field_type=dipole dipole="0.000000 0.000000 0.000000" charge=0
O	-1.954196	-1.672297	0.827932	8
C	-0.851476	-1.582247	0.307152	6
N	-0.094367	-0.452317	0.274002	7
C	-0.517246	0.925352	0.540342	6
C	0.659274	1.366473	-0.354068	6
O	1.109023	2.430702	-0.723878	8
C	1.030904	-0.111097	-0.594398	6
H	-0.365057	-2.433078	-0.197838	1
H	-0.422147	1.210412	1.589422	1
H	-1.503646	1.171872	0.143292	1
H	0.910963	-0.445448	-1.626488	1
H	1.997974	-0.408327	-0.185468	1
Es	-1.687747	-1.572964	0.433757	99
Es	-1.997473	-1.408732	0.928309	99
Es	-1.165147	1.090801	0.271747	99
Es	-0.437894	-0.926460	0.251548	99
Es	-0.447642	1.117026	1.227325	99
Es	0.791393	2.034497	-0.792862	99
Es	-0.094409	-0.452257	0.273873	99
Es	0.913569	0.635539	-0.528670	99
Es	1.677577	-0.304303	-0.325139	99
Es	-0.078086	-0.578855	0.407128	99
Es	1.108926	2.430428	-0.723791	99
Es	0.399547	-0.380628	-0.111088	99
Es	-0.505294	-2.154158	-0.041287	99
Es	1.366831	2.446929	-0.913416	99
Es	0.659247	1.366388	-0.354053	99
Es	0.936903	2.607026	-0.595645	99
Es	1.030751	-0.111116	-0.594290	99
Es	-1.953892	-1.672284	0.827785	99
Es	-0.333267	0.107200	0.413614	99
Es	-1.475417	-1.693016	0.858299	99
Es	0.948114	-0.328713	-1.278780	99
Es	1.096858	2.049465	-0.391480	99
Es	-2.104028	-1.961376	0.830698	99
Es	-0.517153	0.925190	0.540279	99
Es	0.047733	1.226131	0.112648	99
Es	-0.851346	-1.582114	0.307146	99
38
Properties=species:S:1:pos:R:3:Z:I:1 energy=-358.6520290437166 field_type=dipole dipole="0.000000 0.000000 0.000000" charge=0
O	-1.954196	-1.672297	0.827932	8
C	-0.851476	-1.582247	0.307152	6
N	-0.094367	-0.452317	0.274002	7
C	-0.517246	0.925352	0.540342	6
C	0.659274	1.366473	-0.354068	6
O	1.109023	2.430702	-0.723878	8
C	1.030904	-0.111097	-0.594398	6
H	-0.365057	-2.433078	-0.197838	1
H	-0.422147	1.210412	1.589422	1
H	-1.503646	1.171872	0.143292	1
H	0.910963	-0.445448	-1.626488	1
H	1.997974	-0.408327	-0.185468	1
Es	0.400408	-0.380820	-0.110167	99
Es	-0.333025	0.106922	0.414410	99
Es	-0.447821	1.116545	1.226124	99
Es	0.659247	1.366386	-0.354054	99
Es	-0.505293	-2.154157	-0.041221	99
Es	1.030749	-0.111118	-0.594289	99
Es	-0.094841	-0.452309	0.273327	99
Es	1.108920	2.430361	-0.723797	99
Es	-1.479813	-1.692306	0.860870	99
Es	-1.165302	1.090875	0.272297	99
Es	1.096225	2.050232	-0.392266	99
Es	0.913561	0.635886	-0.529198	99
Es	-2.104579	-1.961975	0.830203	99
Es	-0.081764	-0.576159	0.399438	99
Es	-0.517152	0.925191	0.540279	99
Es	-0.851344	-1.582113	0.307148	99
Es	-1.682674	-1.571621	0.433266	99
Es	0.936687	2.601701	-0.595294	99
Es	0.948267	-0.328609	-1.277943	99
Es	-0.435145	-0.928966	0.258092	99
Es	-1.953870	-1.672259	0.827788	99
Es	1.367956	2.452184	-0.912715	99
Es	-1.997612	-1.410250	0.926746	99
Es	0.048073	1.226676	0.112975	99
Es	1.677516	-0.304509	-0.325382	99
Es	0.791276	2.033856	-0.792985	99
38
Properties=species:S:1:pos:R:3:Z:I:1 energy=-358.6520290437166 field_type=dipole dipole="0.000000 0.000000 0.000000" charge=0
O	-1.954196	-1.672297	0.827932	8
C	-0.851476	-1.582247	0.307152	6
N	-0.094367	-0.452317	0.274002	7
C	-0.517246	0.925352	0.540342	6
C	0.659274	1.366473	-0.354068	6
O	1.109023	2.430702	-0.723878	8
C	1.030904	-0.111097	-0.594398	6
H	-0.365057	-2.433078	-0.197838	1
H	-0.422147	1.210412	1.589422	1
H	-1.503646	1.171872	0.143292	1
H	0.910963	-0.445448	-1.626488	1
H	1.997974	-0.408327	-0.185468	1
Es	-1.992661	-1.410961	0.926695	99
Es	-0.517154	0.925192	0.540278	99
Es	-0.332888	0.106862	0.415058	99
Es	0.659248	1.366386	-0.354052	99
Es	0.401497	-0.381172	-0.108874	99
Es	-0.086022	-0.573459	0.390956	99
Es	-1.478182	-1.693300	0.857734	99
Es	-0.505280	-2.154176	-0.041106	99
Es	-0.095018	-0.452438	0.273193	99
Es	-2.108118	-1.960545	0.833016	99
Es	-0.851347	-1.582113	0.307145	99
Es	-1.953890	-1.672292	0.827779	99
Es	1.096351	2.050113	-0.392982	99
Es	0.936124	2.596259	-0.594569	99
Es	1.677412	-0.304702	-0.325738	99
Es	-1.165212	1.090797	0.272489	99
Es	0.948243	-0.328344	-1.277538	99
Es	1.368193	2.458135	-0.912162	99
Es	-0.431965	-0.931452	0.264786	99
Es	1.108932	2.430356	-0.723799	99
Es	0.791661	2.033447	-0.793340	99
Es	0.913632	0.636068	-0.529331	99
Es	-1.685728	-1.571300	0.433606	99
Es	1.030751	-0.111115	-0.594290	99
Es	0.048151	1.227047	0.113080	99
Es	-0.448080	1.116347	1.225619	99
38
Properties=species:S:1:pos:R:3:Z:I:1 energy=-358.6520290437166 field_type=dipole dipole="0.000000 0.000000 0.000000" charge=0
O	-1.954196	-1.672297	0.827932	8
C	-0.851476	-1.582247	0.307152	6
N	-0.094367	-0.452317	0.274002	7
C	-0.517246	0.925352	0.540342	6
C	0.659274	1.366473	-0.354068	6
O	1.109023	2.430702	-0.723878	8
C	1.030904	-0.111097	-0.594398	6
H	-0.365057	-2.433078	-0.197838	1
H	-0.422147	1.210412	1.589422	1
H	-1.503646	1.171872	0.143292	1
H	0.910963	-0.445448	-1.626488	1
H	1.997974	-0.408327	-0.185468	1
Es	0.913599	0.636280	-0.529665	99
Es	-2.108225	-1.961260	0.833432	99
Es	1.677417	-0.304793	-0.325962	99
Es	-0.332334	0.106529	0.416322	99
Es	0.402181	-0.381194	-0.108180	99
Es	1.108939	2.430297	-0.723808	99
Es	-0.447869	1.116006	1.224681	99
Es	-0.505311	-2.154090	-0.041069	99
Es	0.948336	-0.328205	-1.276883	99
Es	1.368759	2.457960	-0.911839	99
Es	0.790772	2.035199	-0.793900	99
Es	-1.478949	-1.692677	0.857182	99
Es	-0.094738	-0.452268	0.273435	99
Es	-1.165435	1.090917	0.273217	99
Es	-1.991792	-1.412613	0.926846	99
Es	1.030750	-0.111117	-0.594290	99
Es	-0.517150	0.925187	0.540285	99
Es	-1.953860	-1.672270	0.827771	99
Es	-0.089685	-0.572105	0.384211	99
Es	0.659247	1.366386	-0.354055	99
Es	0.048286	1.227329	0.113070	99
Es	0.937323	2.595961	-0.593793	99
Es	-1.685769	-1.569665	0.433558	99
Es	-0.851346	-1.582113	0.307146	99
Es	-0.430029	-0.932913	0.269439	99
Es	1.095537	2.048875	-0.393496	99
38
Properties=species:S:1:pos:R:3:Z:I:1 energy=-358.6520290437166 field_type=dipole dipole="0.000000 0.000000 0.000000" charge=0
O	-1.954196	-1.672297	0.827932	8
C	-0.851476	-1.582247	0.307152	6
N	-0.094367	-0.452317	0.274002	7
C	-0.517246	0.925352	0.540342	6
C	0.659274	1.366473	-0.354068	6
O	1.109023	2.430702	-0.723878	8
C	1.030904	-0.111097	-0.594398	6
H	-0.365057	-2.433078	-0.197838	1
H	-0.422147	1.210412	1.589422	1
H	-1.503646	1.171872	0.143292	1
H	0.910963	-0.445448	-1.626488	1
H	1.997974	-0.408327	-0.185468	1
Es	-0.517155	0.925195	0.540279	99
Es	-2.110791	-1.959946	0.833549	99
Es	1.369268	2.463240	-0.911396	99
Es	1.108966	2.430267	-0.723829	99
Es	0.936761	2.590353	-0.595459	99
Es	-1.683139	-1.570700	0.434107	99
Es	0.402574	-0.381502	-0.107569	99
Es	0.659247	1.366386	-0.354054	99
Es	-1.990204	-1.411732	0.925419	99
Es	1.095016	2.050924	-0.392795	99
Es	0.913826	0.636561	-0.529875	99
Es	-1.953884	-1.672278	0.827780	99
Es	0.948511	-0.328278	-1.276473	99
Es	0.791368	2.033524	-0.793234	99
Es	-0.505303	-2.154149	-0.041050	99
Es	1.677065	-0.304931	-0.326140	99
Es	-0.429052	-0.933586	0.271447	99
Es	-1.480541	-1.693798	0.858003	99
Es	-1.165254	1.091008	0.273303	99
Es	1.030753	-0.111116	-0.594289	99
Es	-0.094737	-0.452273	0.273439	99
Es	-0.091294	-0.571376	0.381290	99
Es	0.048478	1.227617	0.113310	99
Es	-0.851347	-1.582113	0.307144	99
Es	-0.332346	0.106528	0.416539	99
Es	-0.448135	1.115815	1.224208	99
38
Properties=species:S:1:pos:R:3:Z:I:1 energy=-358.6520290437166 field_type=dipole dipole="0.000000 0.000000 0.000000" charge=0
O	-1.954196	-1.672297	0.827932	8
C	-0.851476	-1.582247	0.307152	6
N	-0.094367	-0.452317	0.274002	7
C	-0.517246	0.925352	0.540342	6
C	0.659274	1.366473	-0.354068	6
O	1.109023	2.430702	-0.723878	8
C	1.030904	-0.111097	-0.594398	6
H	-0.365057	-2.433078	-0.197838	1
H	-0.422147	1.210412	1.589422	1
H	-1.503646	1.171872	0.143292	1
H	0.910963	-0.445448	-1.626488	1
H	1.997974	-0.408327	-0.185468	1
Es	1.030754	-0.111116	-0.594292	99
Es	0.659246	1.366387	-0.354056	99
Es	0.913680	0.636650	-0.530154	99
Es	-1.480158	-1.692931	0.857447	99
Es	-0.505371	-2.154077	-0.041060	99
Es	0.791005	2.033173	-0.792967	99
Es	1.096378	2.050508	-0.394170	99
Es	-0.851346	-1.582113	0.307146	99
Es	0.948452	-0.328100	-1.276031	99
Es	-0.094814	-0.569962	0.374616	99
Es	1.108931	2.430375	-0.723800	99
Es	-2.110704	-1.960320	0.834579	99
Es	-0.094782	-0.452285	0.273386	99
Es	-0.517152	0.925190	0.540278	99
Es	-1.953910	-1.672277	0.827794	99
Es	-0.447912	1.115718	1.223718	99
Es	-1.165514	1.090904	0.273766	99
Es	-1.684069	-1.570563	0.434118	99
Es	-0.331551	0.106509	0.417944	99
Es	-1.989733	-1.412405	0.924935	99
Es	1.368489	2.465475	-0.911839	99
Es	-0.426859	-0.934948	0.276085	99
Es	0.936747	2.588737	-0.593817	99
Es	0.048334	1.227782	0.113066	99
Es	1.677194	-0.305043	-0.326355	99
Es	0.403317	-0.381625	-0.106684	99
38
Properties=species:S:1:pos:R:3:Z:I:1 energy=-358.6520290437166 field_type=dipole dipole="0.000000 0.000000 0.000000" charge=0
O	-1.954196	-1.672297	0.827932	8
C	-0.851476	-1.582247	0.307152	6
N	-0.094367	-0.452317	0.274002	7
C	-0.517246	0.925352	0.540342	6
C	0.659274	1.366473	-0.354068	6
O	1.109023	2.430702	-0.723878	8
C	1.030904	-0.111097	-0.594398	6
H	-0.365057	-2.433078	-0.197838	1
H	-0.422147	1.210412	1.589422	1
H	-1.503646	1.171872	0.143292	1
H	0.910963	-0.445448	-1.626488	1
H	1.997974	-0.408327	-0.185468	1
Es	-0.096463	-0.569157	0.371828	99
Es	-1.682227	-1.570475	0.434193	99
Es	-2.110786	-1.960635	0.834449	99
Es	-0.505314	-2.154117	-0.041029	99
Es	1.677113	-0.305189	-0.326542	99
Es	0.913835	0.636721	-0.530162	99
Es	-1.165513	1.090994	0.273929	99
Es	-1.989750	-1.412363	0.924516	99
Es	-1.953957	-1.672249	0.827817	99
Es	0.791255	2.032002	-0.792979	99
Es	1.368934	2.468579	-0.910851	99
Es	1.108961	2.430290	-0.723820	99
Es	0.403870	-0.381617	-0.105936	99
Es	1.095889	2.051741	-0.394270	99
Es	-0.425692	-0.935667	0.278382	99
Es	-0.851345	-1.582113	0.307145	99
Es	1.030754	-0.111117	-0.594288	99
Es	0.659246	1.366386	-0.354055	99
Es	-0.094728	-0.452264	0.273442	99
Es	0.936567	2.585642	-0.594605	99
Es	0.048462	1.227969	0.113284	99
Es	-1.481869	-1.692726	0.857907	99
Es	-0.331861	0.106303	0.417539	99
Es	-0.517153	0.925190	0.540279	99
Es	0.948411	-0.327976	-1.275895	99
Es	-0.447988	1.115490	1.223375	99
38
Properties=species:S:1:pos:R:3:Z:I:1 energy=-358.6520290437166 field_type=dipole dipole="0.000000 0.000000 0.000000" charge=0
O	-1.954196	-1.672297	0.827932	8
C	-0.851476	-1.582247	0.307152	6
N	-0.094367	-0.452317	0.274002	7
C	-0.517246	0.925352	0.540342	6
C	0.659274	1.366473	-0.354068	6
O	1.109023	2.430702	-0.723878	8
C	1.030904	-0.111097	-0.594398	6
H	-0.365057	-2.433078	-0.197838	1
H	-0.422147	1.210412	1.589422	1
H	-1.503646	1.171872	0.143292	1
H	0.910963	-0.445448	-1.626488	1
H	1.997974	-0.408327	-0.185468	1
Es	-0.094612	-0.452236	0.273598	99
Es	-1.684388	-1.569284	0.434630	99
Es	-0.424014	-0.936521	0.281517	99
Es	0.790554	2.032988	-0.792916	99
Es	1.108931	2.430342	-0.723797	99
Es	-1.165559	1.090988	0.274142	99
Es	0.937234	2.583541	-0.593100	99
Es	-0.331673	0.106220	0.418233	99
Es	-0.851349	-1.582108	0.307138	99
Es	0.048476	1.228075	0.113212	99
Es	-0.098764	-0.568289	0.367560	99
Es	-1.953898	-1.672297	0.827782	99
Es	1.369021	2.470609	-0.910919	99
Es	0.404181	-0.381692	-0.105646	99
Es	1.676945	-0.305143	-0.326575	99
Es	-2.111090	-1.960641	0.834209	99
Es	-0.505345	-2.154117	-0.040973	99
Es	-0.517153	0.925190	0.540278	99
Es	-1.988970	-1.413299	0.925495	99
Es	1.030751	-0.111117	-0.594289	99
Es	0.913873	0.636816	-0.530302	99
Es	-1.480243	-1.692938	0.856756	99
Es	0.659246	1.366386	-0.354055	99
Es	-0.447961	1.115406	1.223087	99
Es	1.095920	2.050785	-0.395685	99
Es	0.948541	-0.328022	-1.275728	99
38
Properties=species:S:1:pos:R:3:Z:I:1 energy=-358.6520290437166 field_type=dipole dipole="0.000000 0.000000 0.000000" charge=0
O	-1.954196	-1.672297	0.827932	8
C	-0.851476	-1.582247	0.307152	6
N	-0.094367	-0.452317	0.274002	7
C	-0.517246	0.925352	0.540342	6
C	0.659274	1.366473	-0.354068	6
O	1.109023	2.430702	-0.723878	8
C	1.030904	-0.111097	-0.594398	6
H	-0.365057	-2.433078	-0.197838	1
H	-0.422147	1.210412	1.589422	1
H	-1.503646	1.171872	0.143292	1
H	0.910963	-0.445448	-1.626488	1
H	1.997974	-0.408327	-0.185468	1
Es	-0.517152	0.925189	0.540280	99
Es	-1.165603	1.091040	0.274357	99
Es	-1.953860	-1.672305	0.827760	99
Es	-0.423987	-0.936516	0.281764	99
Es	-0.099020	-0.568185	0.367169	99
Es	-1.482782	-1.693429	0.857370	99
Es	1.096319	2.051874	-0.396002	99
Es	-0.094708	-0.452261	0.273465	99
Es	0.789597	2.032225	-0.792195	99
Es	1.368829	2.471350	-0.911070	99
Es	0.948521	-0.327832	-1.275212	99
Es	-0.851346	-1.582112	0.307144	99
Es	0.048558	1.228218	0.113333	99
Es	0.659247	1.366386	-0.354054	99
Es	1.108932	2.430359	-0.723799	99
Es	-2.112894	-1.959462	0.835981	99
Es	0.404246	-0.382168	-0.105409	99
Es	1.030751	-0.111117	-0.594288	99
Es	-1.987426	-1.412677	0.923826	99
Es	1.676910	-0.305430	-0.326839	99
Es	0.913979	0.637021	-0.530473	99
Es	-0.331561	0.106486	0.418287	99
Es	-0.505380	-2.154118	-0.041010	99
Es	0.938031	2.582443	-0.593336	99
Es	-1.681583	-1.570613	0.433974	99
Es	-0.447965	1.115276	1.222633	99
38
Properties=species:S:1:pos:R:3:Z:I:1 energy=-358.6520290437166 field_type=dipole dipole="0.000000 0.000000 0.000000" charge=0
O	-1.954196	-1.672297	0.827932	8
C	-0.851476	-1.582247	0.307152	6
N	-0.094367	-0.452317	0.274002	7
C	-0.517246	0.925352	0.540342	6
C	0.659274	1.366473	-0.354068	6
O	1.109023	2.430702	-0.723878	8
C	1.030904	-0.111097	-0.594398	6
H	-0.365057	-2.433078	-0.197838	1
H	-0.422147	1.210412	1.589422	1
H	-1.503646	1.171872	0.143292	1
H	0.910963	-0.445448	-1.626488	1
H	1.997974	-0.408327	-0.185468	1
Es	0.048562	1.228345	0.113281	99
Es	-0.100461	-0.567880	0.364468	99
Es	1.369065	2.471009	-0.911345	99
Es	0.913906	0.637117	-0.530742	99
Es	0.948648	-0.327913	-1.274987	99
Es	-0.505344	-2.154153	-0.040873	99
Es	-0.094583	-0.452243	0.273625	99
Es	-2.112103	-1.960312	0.836190	99
Es	0.790487	2.030958	-0.791146	99
Es	0.936996	2.582992	-0.593258	99
Es	1.108927	2.430356	-0.723797	99
Es	-1.953887	-1.672246	0.827792	99
Es	1.096288	2.052925	-0.396786	99
Es	-1.480121	-1.692043	0.856432	99
Es	-0.447977	1.115201	1.222407	99
Es	-1.685060	-1.569047	0.434313	99
Es	-1.987421	-1.414778	0.924146	99
Es	0.659245	1.366387	-0.354056	99
Es	-0.517152	0.925189	0.540278	99
Es	-1.165516	1.091038	0.274579	99
Es	-0.423314	-0.936912	0.283172	99
Es	0.404482	-0.381872	-0.105265	99
Es	1.030748	-0.111116	-0.594291	99
Es	-0.851347	-1.582111	0.307142	99
Es	1.676816	-0.305339	-0.326852	99
Es	-0.331230	0.106090	0.419226	99
38
Properties=species:S:1:pos:R:3:Z:I:1 energy=-358.6520290437166 field_type=dipole dipole="0.000000 0.000000 0.000000" charge=0
O	-1.954196	-1.672297	0.827932	8
C	-0.851476	-1.582247	0.307152	6
N	-0.094367	-0.452317	0.274002	7
C	-0.517246	0.925352	0.540342	6
C	0.659274	1.366473	-0.354068	6
O	1.109023	2.430702	-0.723878	8
C	1.030904	-0.111097	-0.594398	6
H	-0.365057	-2.433078	-0.197838	1
H	-0.422147	1.210412	1.589422	1
H	-1.503646	1.171872	0.143292	1
H	0.910963	-0.445448	-1.626488	1
H	1.997974	-0.408327	-0.185468	1
Es	1.676834	-0.305423	-0.326928	99
Es	-2.112650	-1.960168	0.836976	99
Es	1.369031	2.473616	-0.910872	99
Es	-0.517153	0.925187	0.540278	99
Es	-0.505362	-2.154100	-0.040942	99
Es	0.048658	1.228469	0.113494	99
Es	1.108919	2.430371	-0.723790	99
Es	1.030755	-0.111116	-0.594292	99
Es	0.790383	2.031421	-0.791642	99
Es	-1.679504	-1.571967	0.434258	99
Es	0.937340	2.580379	-0.593248	99
Es	0.948581	-0.327814	-1.274974	99
Es	-0.423081	-0.937024	0.283703	99
Es	-0.331327	0.106015	0.418906	99
Es	0.659243	1.366385	-0.354059	99
Es	-1.484338	-1.691509	0.858625	99
Es	-0.094727	-0.452267	0.273445	99
Es	-1.953892	-1.672290	0.827780	99
Es	-0.100693	-0.567624	0.364086	99
Es	-0.448038	1.115034	1.222036	99
Es	1.096121	2.052469	-0.396714	99
Es	-1.165644	1.091086	0.274655	99
Es	0.404728	-0.381899	-0.104861	99
Es	0.913981	0.637104	-0.530682	99
Es	-0.851347	-1.582113	0.307144	99
Es	-1.988166	-1.412581	0.921267	99
38
Properties=species:S:1:pos:R:3:Z:I:1 energy=-358.6520290437166 field_type=dipole dipole="0.000000 0.000000 0.000000" charge=0
O	-1.954196	-1.672297	0.827932	8
C	-0.851476	-1.582247	0.307152	6
N	-0.094367	-0.452317	0.274002	7
C	-0.517246	0.925352	0.540342	6
C	0.659274	1.366473	-0.354068	6
O	1.109023	2.430702	-0.723878	8
C	1.030904	-0.111097	-0.594398	6
H	-0.365057	-2.433078	-0.197838	1
H	-0.422147	1.210412	1.589422	1
H	-1.503646	1.171872	0.143292	1
H	0.910963	-0.445448	-1.626488	1
H	1.997974	-0.408327	-0.185468	1
Es	0.913958	0.637210	-0.530831	99
Es	0.048730	1.228474	0.113603	99
Es	-0.094433	-0.452251	0.273840	99
Es	-1.483927	-1.692023	0.857328	99
Es	-1.680878	-1.570020	0.434168	99
Es	-0.851346	-1.582112	0.307144	99
Es	-1.165690	1.091248	0.274827	99
Es	-1.986219	-1.414282	0.922213	99
Es	0.948614	-0.327732	-1.274709	99
Es	0.659245	1.366387	-0.354056	99
Es	-0.447954	1.114939	1.221694	99
Es	-1.953893	-1.672295	0.827780	99
Es	-0.505348	-2.154134	-0.040902	99
Es	-2.113662	-1.959841	0.837407	99
Es	0.404866	-0.381887	-0.104858	99
Es	0.790826	2.031709	-0.792307	99
Es	1.030751	-0.111117	-0.594289	99
Es	-0.517153	0.925187	0.540278	99
Es	-0.422263	-0.937425	0.285387	99
Es	-0.331039	0.105828	0.419726	99
Es	1.676843	-0.305514	-0.326999	99
Es	1.108935	2.430346	-0.723801	99
Es	0.936966	2.581171	-0.593247	99
Es	-0.102373	-0.567253	0.361112	99
Es	1.095474	2.052137	-0.396675	99
Es	1.369625	2.472890	-0.910179	99
