42
Properties=species:S:1:pos:R:3:Z:I:1 energy=-339.9776260781187 field_type=dipole dipole="0.000000 0.000000 0.000000" charge=0
O	-1.423666	-2.898073	0.876271	8
C	-1.921716	-1.823793	0.571221	6
N	-1.231446	-0.689163	0.247241	7
C	0.205524	-0.689773	0.108211	6
C	0.711464	0.712007	0.254151	6
C	1.671264	1.295267	-0.748739	6
N	0.279194	1.739037	-0.701359	7
H	-3.011186	-1.666283	0.533591	1
H	-1.729226	0.093297	-0.159719	1
H	0.438284	-1.110243	-0.876569	1
H	0.652934	-1.340633	0.866991	1
H	0.778114	1.021927	1.290441	1
H	1.950984	0.707167	-1.614019	1
H	2.418664	1.997387	-0.401949	1
H	0.210804	2.651867	-0.245769	1
Es	-2.668858	-1.704766	0.540919	99
Es	-1.638355	-3.106746	0.944953	99
Es	-1.481378	-1.166661	0.187476	99
Es	0.711433	0.712156	0.253952	99
Es	0.279614	1.739092	-0.700903	99
Es	0.759302	0.929785	0.958866	99
Es	0.449974	0.018419	0.165368	99
Es	-1.360091	-0.772338	0.576215	99
Es	-1.423757	-2.897737	0.876173	99
Es	0.371035	-0.968815	-0.565062	99
Es	0.335869	1.299591	-0.222388	99
Es	1.860887	0.895401	-1.333671	99
Es	0.253284	2.280023	-0.413061	99
Es	0.506290	-1.112088	0.621711	99
Es	0.910160	1.647146	-0.817016	99
Es	-1.526929	-0.236169	-0.003312	99
Es	-0.624672	-0.695105	0.181330	99
Es	-1.112982	-2.883110	0.866380	99
Es	-1.593985	-2.610216	0.534578	99
Es	1.671016	1.295318	-0.748676	99
Es	0.205330	-0.689719	0.108233	99
Es	2.178640	1.775055	-0.512480	99
Es	-1.231484	-0.689383	0.246973	99
Es	0.050219	1.646604	-0.964244	99
Es	1.360162	0.867380	-0.165657	99
Es	-1.921650	-1.823644	0.571181	99
Es	-1.585476	-2.463144	1.010696	99
42
Properties=species:S:1:pos:R:3:Z:I:1 energy=-339.9776260781187 field_type=dipole dipole="0.000000 0.000000 0.000000" charge=0
O	-1.423666	-2.898073	0.876271	8
C	-1.921716	-1.823793	0.571221	6
N	-1.231446	-0.689163	0.247241	7
C	0.205524	-0.689773	0.108211	6
C	0.711464	0.712007	0.254151	6
C	1.671264	1.295267	-0.748739	6
N	0.279194	1.739037	-0.701359	7
H	-3.011186	-1.666283	0.533591	1
H	-1.729226	0.093297	-0.159719	1
H	0.438284	-1.110243	-0.876569	1
H	0.652934	-1.340633	0.866991	1
H	0.778114	1.021927	1.290441	1
H	1.950984	0.707167	-1.614019	1
H	2.418664	1.997387	-0.401949	1
H	0.210804	2.651867	-0.245769	1
Es	2.177068	1.774250	-0.514462	99
Es	1.671002	1.295322	-0.748683	99
Es	0.908462	1.649556	-0.823072	99
Es	0.369543	-0.967496	-0.563509	99
Es	-1.338495	-0.751511	0.540469	99
Es	0.759133	0.929359	0.957063	99
Es	0.279617	1.739095	-0.700896	99
Es	-1.582259	-2.464567	1.007205	99
Es	-1.921652	-1.823639	0.571186	99
Es	0.332281	1.295570	-0.221627	99
Es	0.450303	0.018049	0.164421	99
Es	0.507497	-1.114045	0.622323	99
Es	0.059529	1.647695	-0.957240	99
Es	0.711433	0.712154	0.253952	99
Es	-2.668805	-1.704456	0.541432	99
Es	-1.498133	-1.185015	0.229897	99
Es	-0.625956	-0.700611	0.173593	99
Es	-1.637575	-3.114236	0.950884	99
Es	0.205330	-0.689719	0.108234	99
Es	-1.231453	-0.689355	0.246912	99
Es	-1.116620	-2.875622	0.864656	99
Es	1.861111	0.896689	-1.332793	99
Es	-1.423805	-2.897750	0.876181	99
Es	-1.593986	-2.608884	0.534222	99
Es	-1.530317	-0.233227	-0.003623	99
Es	1.361339	0.865272	-0.160984	99
Es	0.249002	2.283453	-0.417205	99
42
Properties=species:S:1:pos:R:3:Z:I:1 energy=-339.9776260781187 field_type=dipole dipole="0.000000 0.000000 0.000000" charge=0
O	-1.423666	-2.898073	0.876271	8
C	-1.921716	-1.823793	0.571221	6
N	-1.231446	-0.689163	0.247241	7
C	0.205524	-0.689773	0.108211	6
C	0.711464	0.712007	0.254151	6
C	1.671264	1.295267	-0.748739	6
N	0.279194	1.739037	-0.701359	7
H	-3.011186	-1.666283	0.533591	1
H	-1.729226	0.093297	-0.159719	1
H	0.438284	-1.110243	-0.876569	1
H	0.652934	-1.340633	0.866991	1
H	0.778114	1.021927	1.290441	1
H	1.950984	0.707167	-1.614019	1
H	2.418664	1.997387	-0.401949	1
H	0.210804	2.651867	-0.245769	1
Es	-1.231505	-0.689496	0.246768	99
Es	2.175594	1.773206	-0.515341	99
Es	1.671013	1.295317	-0.748674	99
Es	-0.626730	-0.704446	0.168948	99
Es	-1.532091	-0.232739	-0.004777	99
Es	0.245063	2.285895	-0.420481	99
Es	0.065660	1.647119	-0.952059	99
Es	-1.921652	-1.823637	0.571191	99
Es	-1.323204	-0.738370	0.501360	99
Es	-1.510494	-1.194798	0.274221	99
Es	-1.423781	-2.897765	0.876185	99
Es	-2.668902	-1.704124	0.541803	99
Es	0.907049	1.651214	-0.825993	99
Es	-1.632174	-3.118951	0.955763	99
Es	1.861534	0.897290	-1.332658	99
Es	-1.119269	-2.869304	0.860742	99
Es	1.362190	0.864411	-0.158844	99
Es	-1.581289	-2.464813	1.006893	99
Es	0.711432	0.712159	0.253948	99
Es	-1.597390	-2.610250	0.533672	99
Es	0.331056	1.293810	-0.221665	99
Es	0.368843	-0.966824	-0.562967	99
Es	0.759247	0.929115	0.956429	99
Es	0.450455	0.017958	0.164042	99
Es	0.507985	-1.115015	0.622695	99
Es	0.279621	1.739093	-0.700894	99
Es	0.205334	-0.689725	0.108229	99
42
Properties=species:S:1:pos:R:3:Z:I:1 energy=-339.9776260781187 field_type=dipole dipole="0.000000 0.000000 0.000000" charge=0
O	-1.423666	-2.898073	0.876271	8
C	-1.921716	-1.823793	0.571221	6
N	-1.231446	-0.689163	0.247241	7
C	0.205524	-0.689773	0.108211	6
C	0.711464	0.712007	0.254151	6
C	1.671264	1.295267	-0.748739	6
N	0.279194	1.739037	-0.701359	7
H	-3.011186	-1.666283	0.533591	1
H	-1.729226	0.093297	-0.159719	1
H	0.438284	-1.110243	-0.876569	1
H	0.652934	-1.340633	0.866991	1
H	0.778114	1.021927	1.290441	1
H	1.950984	0.707167	-1.614019	1
H	2.418664	1.997387	-0.401949	1
H	0.210804	2.651867	-0.245769	1
Es	0.279622	1.739098	-0.700890	99
Es	-1.921652	-1.823643	0.571177	99
Es	0.368395	-0.966365	-0.562642	99
Es	0.242118	2.287323	-0.422738	99
Es	0.330560	1.292916	-0.222108	99
Es	1.671012	1.295316	-0.748673	99
Es	2.174335	1.772274	-0.515747	99
Es	-1.122042	-2.863856	0.859372	99
Es	-1.627212	-3.123120	0.958057	99
Es	0.450586	0.017660	0.163721	99
Es	0.205329	-0.689719	0.108235	99
Es	-1.316764	-0.736917	0.478770	99
Es	1.362377	0.864151	-0.157362	99
Es	0.759421	0.929001	0.956092	99
Es	1.862096	0.897457	-1.332669	99
Es	-1.515012	-1.196419	0.296813	99
Es	-1.423797	-2.897768	0.876189	99
Es	0.906325	1.652461	-0.827455	99
Es	0.711428	0.712157	0.253951	99
Es	-1.231472	-0.689419	0.246833	99
Es	-0.627424	-0.706247	0.166190	99
Es	0.508337	-1.115633	0.622976	99
Es	-1.533249	-0.230814	-0.002564	99
Es	-1.581715	-2.465674	1.007142	99
Es	-2.668955	-1.703869	0.542181	99
Es	0.069779	1.646680	-0.948776	99
Es	-1.598832	-2.610700	0.532461	99
42
Properties=species:S:1:pos:R:3:Z:I:1 energy=-339.9776260781187 field_type=dipole dipole="0.000000 0.000000 0.000000" charge=0
O	-1.423666	-2.898073	0.876271	8
C	-1.921716	-1.823793	0.571221	6
N	-1.231446	-0.689163	0.247241	7
C	0.205524	-0.689773	0.108211	6
C	0.711464	0.712007	0.254151	6
C	1.671264	1.295267	-0.748739	6
N	0.279194	1.739037	-0.701359	7
H	-3.011186	-1.666283	0.533591	1
H	-1.729226	0.093297	-0.159719	1
H	0.438284	-1.110243	-0.876569	1
H	0.652934	-1.340633	0.866991	1
H	0.778114	1.021927	1.290441	1
H	1.950984	0.707167	-1.614019	1
H	2.418664	1.997387	-0.401949	1
H	0.210804	2.651867	-0.245769	1
Es	1.671011	1.295313	-0.748671	99
Es	-1.517327	-1.196367	0.311495	99
Es	0.711432	0.712158	0.253949	99
Es	-1.626709	-3.125061	0.955990	99
Es	-1.596971	-2.607957	0.531406	99
Es	0.905025	1.653339	-0.829428	99
Es	-1.231528	-0.689579	0.246678	99
Es	0.331303	1.292544	-0.222123	99
Es	0.240118	2.288481	-0.424676	99
Es	2.173413	1.771485	-0.516150	99
Es	-1.533767	-0.229554	-0.001199	99
Es	-1.582199	-2.467693	1.008430	99
Es	-1.921652	-1.823639	0.571185	99
Es	0.072126	1.646042	-0.945357	99
Es	1.362843	0.863916	-0.156322	99
Es	0.759477	0.928884	0.955905	99
Es	1.862347	0.897666	-1.332662	99
Es	0.205325	-0.689719	0.108230	99
Es	0.368089	-0.966003	-0.562442	99
Es	-1.123776	-2.862581	0.861277	99
Es	-0.627581	-0.707214	0.165229	99
Es	-1.423758	-2.897841	0.876199	99
Es	0.450771	0.017587	0.163578	99
Es	-1.313598	-0.737112	0.463499	99
Es	0.279620	1.739095	-0.700883	99
Es	-2.668927	-1.703742	0.542330	99
Es	0.508491	-1.116120	0.623068	99
42
Properties=species:S:1:pos:R:3:Z:I:1 energy=-339.9776260781187 field_type=dipole dipole="0.000000 0.000000 0.000000" charge=0
O	-1.423666	-2.898073	0.876271	8
C	-1.921716	-1.823793	0.571221	6
N	-1.231446	-0.689163	0.247241	7
C	0.205524	-0.689773	0.108211	6
C	0.711464	0.712007	0.254151	6
C	1.671264	1.295267	-0.748739	6
N	0.279194	1.739037	-0.701359	7
H	-3.011186	-1.666283	0.533591	1
H	-1.729226	0.093297	-0.159719	1
H	0.438284	-1.110243	-0.876569	1
H	0.652934	-1.340633	0.866991	1
H	0.778114	1.021927	1.290441	1
H	1.950984	0.707167	-1.614019	1
H	2.418664	1.997387	-0.401949	1
H	0.210804	2.651867	-0.245769	1
Es	-1.628214	-3.122197	0.956134	99
Es	0.904542	1.654233	-0.829332	99
Es	0.508481	-1.116358	0.623207	99
Es	0.367917	-0.965924	-0.562260	99
Es	0.711433	0.712160	0.253946	99
Es	-2.668871	-1.703638	0.542532	99
Es	0.331441	1.292070	-0.222549	99
Es	0.279635	1.739098	-0.700880	99
Es	-1.519466	-1.195602	0.326657	99
Es	1.671008	1.295316	-0.748675	99
Es	1.362667	0.864059	-0.155637	99
Es	0.074032	1.645818	-0.944555	99
Es	-0.628350	-0.708469	0.163249	99
Es	-1.310288	-0.737905	0.448353	99
Es	0.205327	-0.689718	0.108232	99
Es	2.172788	1.770944	-0.516338	99
Es	0.450921	0.017426	0.163428	99
Es	-1.123546	-2.866140	0.861176	99
Es	1.862633	0.897582	-1.332583	99
Es	-1.597478	-2.607377	0.530243	99
Es	-1.580160	-2.467692	1.009450	99
Es	0.759728	0.928847	0.955724	99
Es	-1.921652	-1.823638	0.571185	99
Es	-1.231557	-0.689642	0.246621	99
Es	-1.534110	-0.228196	0.000599	99
Es	0.238558	2.289049	-0.425587	99
Es	-1.423824	-2.897777	0.876195	99
42
Properties=species:S:1:pos:R:3:Z:I:1 energy=-339.9776260781187 field_type=dipole dipole="0.000000 0.000000 0.000000" charge=0
O	-1.423666	-2.898073	0.876271	8
C	-1.921716	-1.823793	0.571221	6
N	-1.231446	-0.689163	0.247241	7
C	0.205524	-0.689773	0.108211	6
C	0.711464	0.712007	0.254151	6
C	1.671264	1.295267	-0.748739	6
N	0.279194	1.739037	-0.701359	7
H	-3.011186	-1.666283	0.533591	1
H	-1.729226	0.093297	-0.159719	1
H	0.438284	-1.110243	-0.876569	1
H	0.652934	-1.340633	0.866991	1
H	0.778114	1.021927	1.290441	1
H	1.950984	0.707167	-1.614019	1
H	2.418664	1.997387	-0.401949	1
H	0.210804	2.651867	-0.245769	1
Es	-1.231567	-0.689655	0.246617	99
Es	1.671013	1.295315	-0.748672	99
Es	-1.583277	-2.465016	1.007850	99
Es	0.903683	1.654614	-0.829878	99
Es	0.508584	-1.116642	0.623262	99
Es	-1.124353	-2.861075	0.860264	99
Es	0.331945	1.292073	-0.222721	99
Es	0.450905	0.017334	0.163425	99
Es	-0.628531	-0.709078	0.162714	99
Es	-1.597643	-2.612074	0.530704	99
Es	0.238180	2.289638	-0.426254	99
Es	0.711430	0.712155	0.253953	99
Es	0.759920	0.928737	0.955732	99
Es	0.074743	1.645648	-0.943510	99
Es	1.362671	0.863879	-0.155109	99
Es	1.862798	0.897671	-1.332588	99
Es	0.367786	-0.965621	-0.562331	99
Es	2.172250	1.770383	-0.516471	99
Es	-1.423757	-2.897758	0.876181	99
Es	-1.534352	-0.226854	0.002386	99
Es	0.279627	1.739095	-0.700886	99
Es	0.205334	-0.689722	0.108233	99
Es	-1.921652	-1.823639	0.571185	99
Es	-1.308646	-0.739804	0.435581	99
Es	-2.668911	-1.703493	0.542658	99
Es	-1.624027	-3.125279	0.958142	99
Es	-1.520556	-1.194502	0.338069	99
42
Properties=species:S:1:pos:R:3:Z:I:1 energy=-339.9776260781187 field_type=dipole dipole="0.000000 0.000000 0.000000" charge=0
O	-1.423666	-2.898073	0.876271	8
C	-1.921716	-1.823793	0.571221	6
N	-1.231446	-0.689163	0.247241	7
C	0.205524	-0.689773	0.108211	6
C	0.711464	0.712007	0.254151	6
C	1.671264	1.295267	-0.748739	6
N	0.279194	1.739037	-0.701359	7
H	-3.011186	-1.666283	0.533591	1
H	-1.729226	0.093297	-0.159719	1
H	0.438284	-1.110243	-0.876569	1
H	0.652934	-1.340633	0.866991	1
H	0.778114	1.021927	1.290441	1
H	1.950984	0.707167	-1.614019	1
H	2.418664	1.997387	-0.401949	1
H	0.210804	2.651867	-0.245769	1
Es	1.671008	1.295318	-0.748673	99
Es	0.759866	0.928698	0.955523	99
Es	1.363033	0.863937	-0.154626	99
Es	-1.423791	-2.897743	0.876178	99
Es	0.903339	1.655145	-0.829854	99
Es	0.451197	0.017325	0.163199	99
Es	-1.534565	-0.226667	0.002646	99
Es	-1.620326	-3.128416	0.959715	99
Es	0.367578	-0.965535	-0.561966	99
Es	0.076196	1.645053	-0.942381	99
Es	2.171720	1.769971	-0.516611	99
Es	0.711432	0.712160	0.253948	99
Es	0.508646	-1.116900	0.623264	99
Es	-1.307819	-0.740078	0.432116	99
Es	0.205332	-0.689721	0.108233	99
Es	-1.520833	-1.193823	0.342128	99
Es	-0.628864	-0.709704	0.161722	99
Es	-1.921652	-1.823638	0.571187	99
Es	0.332289	1.292157	-0.222788	99
Es	0.279628	1.739098	-0.700882	99
Es	-2.668938	-1.703472	0.542623	99
Es	-1.602043	-2.609381	0.532001	99
Es	-1.231551	-0.689620	0.246640	99
Es	-1.126205	-2.858091	0.855306	99
Es	0.236498	2.290055	-0.427530	99
Es	-1.580584	-2.467543	1.009990	99
Es	1.863008	0.897743	-1.332574	99
42
Properties=species:S:1:pos:R:3:Z:I:1 energy=-339.9776260781187 field_type=dipole dipole="0.000000 0.000000 0.000000" charge=0
O	-1.423666	-2.898073	0.876271	8
C	-1.921716	-1.823793	0.571221	6
N	-1.231446	-0.689163	0.247241	7
C	0.205524	-0.689773	0.108211	6
C	0.711464	0.712007	0.254151	6
C	1.671264	1.295267	-0.748739	6
N	0.279194	1.739037	-0.701359	7
H	-3.011186	-1.666283	0.533591	1
H	-1.729226	0.093297	-0.159719	1
H	0.438284	-1.110243	-0.876569	1
H	0.652934	-1.340633	0.866991	1
H	0.778114	1.021927	1.290441	1
H	1.950984	0.707167	-1.614019	1
H	2.418664	1.997387	-0.401949	1
H	0.210804	2.651867	-0.245769	1
Es	-1.307519	-0.741422	0.426382	99
Es	0.760015	0.928617	0.955493	99
Es	-1.921651	-1.823637	0.571188	99
Es	0.711430	0.712158	0.253950	99
Es	0.903109	1.655586	-0.829915	99
Es	-0.628719	-0.709851	0.161747	99
Es	-1.231545	-0.689606	0.246643	99
Es	0.332371	1.292092	-0.222824	99
Es	0.451188	0.017174	0.163014	99
Es	-1.521214	-1.193076	0.346564	99
Es	-1.423840	-2.897777	0.876190	99
Es	0.508805	-1.116976	0.623357	99
Es	-1.534681	-0.225949	0.003800	99
Es	0.367523	-0.965379	-0.561880	99
Es	-1.581407	-2.465462	1.008804	99
Es	-1.126806	-2.858166	0.856594	99
Es	0.205334	-0.689721	0.108233	99
Es	2.171438	1.769593	-0.516897	99
Es	-1.620292	-3.127875	0.960735	99
Es	-2.668891	-1.703432	0.542750	99
Es	0.235265	2.290459	-0.428654	99
Es	1.862923	0.897700	-1.332473	99
Es	-1.600526	-2.611943	0.530798	99
Es	1.671012	1.295311	-0.748677	99
Es	0.279632	1.739097	-0.700867	99
Es	0.077600	1.644799	-0.941334	99
Es	1.363042	0.864013	-0.154187	99
42
Properties=species:S:1:pos:R:3:Z:I:1 energy=-339.9776260781187 field_type=dipole dipole="0.000000 0.000000 0.000000" charge=0
O	-1.423666	-2.898073	0.876271	8
C	-1.921716	-1.823793	0.571221	6
N	-1.231446	-0.689163	0.247241	7
C	0.205524	-0.689773	0.108211	6
C	0.711464	0.712007	0.254151	6
C	1.671264	1.295267	-0.748739	6
N	0.279194	1.739037	-0.701359	7
H	-3.011186	-1.666283	0.533591	1
H	-1.729226	0.093297	-0.159719	1
H	0.438284	-1.110243	-0.876569	1
H	0.652934	-1.340633	0.866991	1
H	0.778114	1.021927	1.290441	1
H	1.950984	0.707167	-1.614019	1
H	2.418664	1.997387	-0.401949	1
H	0.210804	2.651867	-0.245769	1
Es	0.760063	0.928599	0.955484	99
Es	0.902720	1.655864	-0.829518	99
Es	1.362976	0.864179	-0.154096	99
Es	1.863293	0.897650	-1.332554	99
Es	0.279628	1.739095	-0.700886	99
Es	0.367485	-0.965343	-0.562021	99
Es	-1.615837	-3.132034	0.957899	99
Es	0.332821	1.292130	-0.223281	99
Es	-1.306706	-0.743462	0.416112	99
Es	0.077636	1.644637	-0.941619	99
Es	0.205330	-0.689719	0.108235	99
Es	-2.668936	-1.703377	0.542713	99
Es	0.711431	0.712152	0.253953	99
Es	2.171060	1.769275	-0.516718	99
Es	-1.128156	-2.853094	0.857763	99
Es	0.451340	0.017084	0.163105	99
Es	0.235042	2.290642	-0.428416	99
Es	-1.584908	-2.467961	1.010638	99
Es	0.508684	-1.117104	0.623335	99
Es	-1.423837	-2.897769	0.876187	99
Es	1.671007	1.295316	-0.748672	99
Es	-1.600046	-2.610359	0.530617	99
Es	-1.534807	-0.225269	0.004898	99
Es	-1.521821	-1.191545	0.356038	99
Es	-1.921653	-1.823637	0.571188	99
Es	-1.231482	-0.689504	0.246725	99
Es	-0.628732	-0.710119	0.161428	99
42
Properties=species:S:1:pos:R:3:Z:I:1 energy=-339.9776260781187 field_type=dipole dipole="0.000000 0.000000 0.000000" charge=0
O	-1.423666	-2.898073	0.876271	8
C	-1.921716	-1.823793	0.571221	6
N	-1.231446	-0.689163	0.247241	7
C	0.205524	-0.689773	0.108211	6
C	0.711464	0.712007	0.254151	6
C	1.671264	1.295267	-0.748739	6
N	0.279194	1.739037	-0.701359	7
H	-3.011186	-1.666283	0.533591	1
H	-1.729226	0.093297	-0.159719	1
H	0.438284	-1.110243	-0.876569	1
H	0.652934	-1.340633	0.866991	1
H	0.778114	1.021927	1.290441	1
H	1.950984	0.707167	-1.614019	1
H	2.418664	1.997387	-0.401949	1
H	0.210804	2.651867	-0.245769	1
Es	-1.423777	-2.897755	0.876180	99
Es	0.332857	1.292084	-0.223200	99
Es	0.367392	-0.965161	-0.561818	99
Es	-0.628714	-0.710008	0.161745	99
Es	0.234355	2.290822	-0.429055	99
Es	0.451501	0.017016	0.163044	99
Es	-1.521668	-1.191293	0.357303	99
Es	-1.613162	-3.133827	0.961404	99
Es	0.078310	1.644474	-0.940837	99
Es	-1.306699	-0.743720	0.414451	99
Es	-1.231638	-0.689796	0.246510	99
Es	1.363080	0.864122	-0.153950	99
Es	-1.600589	-2.613835	0.530634	99
Es	0.760105	0.928515	0.955312	99
Es	1.863305	0.897687	-1.332423	99
Es	1.671021	1.295316	-0.748673	99
Es	-2.668977	-1.703267	0.542873	99
Es	-1.130593	-2.850662	0.855617	99
Es	-1.535081	-0.225191	0.005100	99
Es	0.205329	-0.689719	0.108234	99
Es	0.279627	1.739095	-0.700887	99
Es	-1.921651	-1.823640	0.571183	99
Es	0.711431	0.712158	0.253950	99
Es	2.170899	1.768950	-0.516736	99
Es	0.508921	-1.117210	0.623253	99
Es	-1.584507	-2.465113	1.009221	99
Es	0.902520	1.656289	-0.829899	99
42
Properties=species:S:1:pos:R:3:Z:I:1 energy=-339.9776260781187 field_type=dipole dipole="0.000000 0.000000 0.000000" charge=0
O	-1.423666	-2.898073	0.876271	8
C	-1.921716	-1.823793	0.571221	6
N	-1.231446	-0.689163	0.247241	7
C	0.205524	-0.689773	0.108211	6
C	0.711464	0.712007	0.254151	6
C	1.671264	1.295267	-0.748739	6
N	0.279194	1.739037	-0.701359	7
H	-3.011186	-1.666283	0.533591	1
H	-1.729226	0.093297	-0.159719	1
H	0.438284	-1.110243	-0.876569	1
H	0.652934	-1.340633	0.866991	1
H	0.778114	1.021927	1.290441	1
H	1.950984	0.707167	-1.614019	1
H	2.418664	1.997387	-0.401949	1
H	0.210804	2.651867	-0.245769	1
Es	-2.668966	-1.703239	0.542921	99
Es	-1.306789	-0.743998	0.414065	99
Es	-1.586196	-2.466983	1.010035	99
Es	0.451398	0.016874	0.162953	99
Es	-0.628711	-0.710285	0.161578	99
Es	-1.231554	-0.689630	0.246617	99
Es	0.332856	1.292435	-0.223096	99
Es	1.863381	0.897713	-1.332388	99
Es	0.711426	0.712157	0.253950	99
Es	-1.534941	-0.225013	0.005265	99
Es	-1.521913	-1.191001	0.357466	99
Es	0.509025	-1.117254	0.623335	99
Es	-1.131871	-2.846973	0.855833	99
Es	0.760230	0.928440	0.955160	99
Es	0.902570	1.656390	-0.830081	99
Es	-1.921651	-1.823638	0.571185	99
Es	-1.423874	-2.897768	0.876188	99
Es	1.363348	0.864020	-0.153650	99
Es	0.205330	-0.689720	0.108233	99
Es	0.233606	2.290990	-0.429831	99
Es	2.170530	1.768692	-0.516947	99
Es	-1.600527	-2.612433	0.530928	99
Es	0.079100	1.644308	-0.939911	99
Es	-1.610114	-3.137035	0.960087	99
Es	1.671002	1.295316	-0.748670	99
Es	0.279551	1.739049	-0.700996	99
Es	0.367351	-0.965084	-0.561694	99
42
Properties=species:S:1:pos:R:3:Z:I:1 energy=-339.9776260781187 field_type=dipole dipole="0.000000 0.000000 0.000000" charge=0
O	-1.423666	-2.898073	0.876271	8
C	-1.921716	-1.823793	0.571221	6
N	-1.231446	-0.689163	0.247241	7
C	0.205524	-0.689773	0.108211	6
C	0.711464	0.712007	0.254151	6
C	1.671264	1.295267	-0.748739	6
N	0.279194	1.739037	-0.701359	7
H	-3.011186	-1.666283	0.533591	1
H	-1.729226	0.093297	-0.159719	1
H	0.438284	-1.110243	-0.876569	1
H	0.652934	-1.340633	0.866991	1
H	0.778114	1.021927	1.290441	1
H	1.950984	0.707167	-1.614019	1
H	2.418664	1.997387	-0.401949	1
H	0.210804	2.651867	-0.245769	1
Es	-1.535068	-0.224889	0.005447	99
Es	0.902112	1.656659	-0.830713	99
Es	0.760218	0.928462	0.955082	99
Es	0.232852	2.291182	-0.430447	99
Es	2.170272	1.768563	-0.516944	99
Es	-1.521781	-1.190818	0.358873	99
Es	0.279632	1.739099	-0.700878	99
Es	0.451593	0.016966	0.162879	99
Es	-1.921652	-1.823638	0.571186	99
Es	0.079760	1.644153	-0.938927	99
Es	0.711430	0.712154	0.253954	99
Es	-1.231549	-0.689605	0.246648	99
Es	-1.423897	-2.897755	0.876185	99
Es	-0.628715	-0.710352	0.161363	99
Es	-2.668984	-1.703237	0.542909	99
Es	0.367186	-0.965040	-0.561540	99
Es	0.508974	-1.117472	0.623315	99
Es	0.205331	-0.689719	0.108231	99
Es	1.671009	1.295315	-0.748672	99
Es	0.333205	1.292104	-0.223087	99
Es	-1.131349	-2.847010	0.856216	99
Es	-1.306614	-0.744298	0.412645	99
Es	-1.610134	-3.136516	0.960435	99
Es	1.863562	0.897746	-1.332351	99
Es	-1.600503	-2.613108	0.530683	99
Es	1.363332	0.864184	-0.153491	99
Es	-1.586628	-2.466801	1.009534	99
