35
Properties=species:S:1:pos:R:3:Z:I:1 energy=-357.37535544583045 field_type=dipole dipole="0.000000 0.000000 0.000000" charge=0
O	-2.640136	0.588987	1.193904	8
C	-2.195556	1.294557	0.301334	6
O	-1.007236	1.186067	-0.369326	8
N	-0.280766	0.079987	0.110314	7
C	0.828704	0.001507	-0.530866	6
C	1.634314	-1.105413	-0.102716	6
C	2.311354	-2.031543	0.252844	6
H	-2.729186	2.167377	-0.106026	1
H	1.177604	0.675717	-1.327816	1
H	2.900904	-2.857243	0.578354	1
Es	-2.586576	0.683523	0.704406	99
Es	0.092946	-0.121806	-0.374424	99
Es	-1.446151	1.192679	-0.093634	99
Es	-2.545773	1.885627	0.018225	99
Es	1.251305	-0.561027	-0.322605	99
Es	-0.280522	0.080405	0.109801	99
Es	-1.007369	1.185842	-0.369001	99
Es	-2.908609	0.707234	1.264540	99
Es	-2.363180	0.982174	1.052447	99
Es	-0.874792	1.427991	-0.284040	99
Es	-2.195291	1.294522	0.301207	99
Es	2.694629	-2.565841	0.462734	99
Es	0.343231	0.212291	0.017927	99
Es	0.828786	0.001407	-0.530836	99
Es	-0.430844	-0.117150	0.373643	99
Es	2.137875	-1.563310	-0.247986	99
Es	2.311487	-2.031711	0.252913	99
Es	-0.702596	0.715751	-0.162905	99
Es	1.059672	0.441371	-1.052998	99
Es	-2.640008	0.589183	1.193653	99
Es	-2.464068	0.361446	1.275820	99
Es	-1.098175	1.130015	-0.639361	99
Es	2.080021	-1.343012	0.325863	99
Es	1.634157	-1.105182	-0.102812	99
Es	1.672917	-1.747116	0.121769	99
35
Properties=species:S:1:pos:R:3:Z:I:1 energy=-357.37535544583045 field_type=dipole dipole="0.000000 0.000000 0.000000" charge=0
O	-2.640136	0.588987	1.193904	8
C	-2.195556	1.294557	0.301334	6
O	-1.007236	1.186067	-0.369326	8
N	-0.280766	0.079987	0.110314	7
C	0.828704	0.001507	-0.530866	6
C	1.634314	-1.105413	-0.102716	6
C	2.311354	-2.031543	0.252844	6
H	-2.729186	2.167377	-0.106026	1
H	1.177604	0.675717	-1.327816	1
H	2.900904	-2.857243	0.578354	1
Es	0.828797	0.001412	-0.530834	99
Es	-2.446248	0.352711	1.273403	99
Es	1.870332	-1.492441	0.404177	99
Es	-1.007320	1.185921	-0.368808	99
Es	-0.694298	0.717865	-0.161560	99
Es	-2.377072	0.968712	1.040398	99
Es	-2.917597	0.716603	1.264798	99
Es	1.249783	-0.562421	-0.320245	99
Es	1.759873	-1.738420	-0.100698	99
Es	1.634144	-1.105176	-0.102814	99
Es	-0.856640	1.436356	-0.486265	99
Es	-1.134609	1.087407	-0.459994	99
Es	1.057743	0.441349	-1.052483	99
Es	-0.427940	-0.118049	0.375590	99
Es	0.340312	0.210621	0.011755	99
Es	-2.195290	1.294522	0.301206	99
Es	-2.546704	1.886269	0.018208	99
Es	2.260852	-1.422453	-0.103683	99
Es	-2.639991	0.589156	1.193665	99
Es	2.697388	-2.566682	0.460915	99
Es	-0.280531	0.080418	0.109794	99
Es	0.095150	-0.118173	-0.371505	99
Es	2.311485	-2.031722	0.252914	99
Es	-1.437711	1.224843	-0.071956	99
Es	-2.580835	0.696681	0.718371	99
35
Properties=species:S:1:pos:R:3:Z:I:1 energy=-357.37535544583045 field_type=dipole dipole="0.000000 0.000000 0.000000" charge=0
O	-2.640136	0.588987	1.193904	8
C	-2.195556	1.294557	0.301334	6
O	-1.007236	1.186067	-0.369326	8
N	-0.280766	0.079987	0.110314	7
C	0.828704	0.001507	-0.530866	6
C	1.634314	-1.105413	-0.102716	6
C	2.311354	-2.031543	0.252844	6
H	-2.729186	2.167377	-0.106026	1
H	1.177604	0.675717	-1.327816	1
H	2.900904	-2.857243	0.578354	1
Es	-2.640012	0.589171	1.193670	99
Es	2.699289	-2.566008	0.460840	99
Es	-2.438238	0.348730	1.272254	99
Es	-2.547269	1.886444	0.018218	99
Es	-0.280529	0.080434	0.109795	99
Es	-2.195295	1.294517	0.301198	99
Es	-0.427594	-0.118512	0.373315	99
Es	-1.459718	1.209478	-0.097717	99
Es	-0.904635	1.372761	-0.608204	99
Es	2.013830	-1.388085	0.329349	99
Es	0.095847	-0.116682	-0.370953	99
Es	0.340251	0.209880	0.012009	99
Es	-2.576539	0.701702	0.730959	99
Es	-2.384151	0.959650	1.033583	99
Es	1.678407	-1.754593	0.082768	99
Es	1.634140	-1.105170	-0.102808	99
Es	2.311488	-2.031726	0.252915	99
Es	2.198211	-1.511517	-0.213681	99
Es	1.056743	0.441261	-1.051472	99
Es	-2.922526	0.724862	1.259570	99
Es	0.828788	0.001403	-0.530843	99
Es	1.249427	-0.562867	-0.318659	99
Es	-1.064344	1.169656	-0.307711	99
Es	-1.007249	1.186105	-0.368421	99
Es	-0.695251	0.714414	-0.165626	99
35
Properties=species:S:1:pos:R:3:Z:I:1 energy=-357.37535544583045 field_type=dipole dipole="0.000000 0.000000 0.000000" charge=0
O	-2.640136	0.588987	1.193904	8
C	-2.195556	1.294557	0.301334	6
O	-1.007236	1.186067	-0.369326	8
N	-0.280766	0.079987	0.110314	7
C	0.828704	0.001507	-0.530866	6
C	1.634314	-1.105413	-0.102716	6
C	2.311354	-2.031543	0.252844	6
H	-2.729186	2.167377	-0.106026	1
H	1.177604	0.675717	-1.327816	1
H	2.900904	-2.857243	0.578354	1
Es	2.311494	-2.031726	0.252905	99
Es	-2.573133	0.704265	0.746663	99
Es	-0.695206	0.714115	-0.166413	99
Es	-0.426703	-0.117758	0.372396	99
Es	0.828797	0.001413	-0.530839	99
Es	2.264018	-1.417469	-0.097561	99
Es	-2.386698	0.952838	1.027605	99
Es	0.095729	-0.117064	-0.370493	99
Es	1.804383	-1.697223	-0.099411	99
Es	1.249571	-0.563150	-0.318529	99
Es	1.634133	-1.105173	-0.102807	99
Es	-1.460379	1.210760	-0.099150	99
Es	-1.007381	1.185777	-0.368971	99
Es	-2.926332	0.733700	1.250997	99
Es	-0.280539	0.080434	0.109789	99
Es	0.340027	0.209593	0.011305	99
Es	-2.640018	0.589163	1.193673	99
Es	1.822083	-1.538868	0.397196	99
Es	-2.547355	1.886940	0.018828	99
Es	2.699594	-2.566889	0.458606	99
Es	-2.195295	1.294511	0.301192	99
Es	-0.896443	1.382746	-0.592742	99
Es	-2.435286	0.344084	1.270175	99
Es	-1.072244	1.158948	-0.319786	99
Es	1.056258	0.441341	-1.050280	99
35
Properties=species:S:1:pos:R:3:Z:I:1 energy=-357.37535544583045 field_type=dipole dipole="0.000000 0.000000 0.000000" charge=0
O	-2.640136	0.588987	1.193904	8
C	-2.195556	1.294557	0.301334	6
O	-1.007236	1.186067	-0.369326	8
N	-0.280766	0.079987	0.110314	7
C	0.828704	0.001507	-0.530866	6
C	1.634314	-1.105413	-0.102716	6
C	2.311354	-2.031543	0.252844	6
H	-2.729186	2.167377	-0.106026	1
H	1.177604	0.675717	-1.327816	1
H	2.900904	-2.857243	0.578354	1
Es	2.311494	-2.031730	0.252900	99
Es	1.825217	-1.674753	-0.088996	99
Es	-1.007419	1.185742	-0.369045	99
Es	0.828787	0.001399	-0.530849	99
Es	-2.568238	0.708773	0.754796	99
Es	-1.459902	1.213745	-0.099122	99
Es	2.699979	-2.566845	0.458390	99
Es	-2.640008	0.589153	1.193674	99
Es	2.263561	-1.419510	-0.100818	99
Es	0.096109	-0.116062	-0.370740	99
Es	-0.895700	1.381772	-0.590132	99
Es	-2.195295	1.294514	0.301192	99
Es	-2.927807	0.742498	1.244584	99
Es	-0.426792	-0.117632	0.370538	99
Es	-0.280522	0.080429	0.109782	99
Es	1.801460	-1.559481	0.390163	99
Es	1.249681	-0.563325	-0.318494	99
Es	-2.547546	1.887004	0.018943	99
Es	1.634137	-1.105168	-0.102809	99
Es	-2.393467	0.942218	1.027473	99
Es	-0.695442	0.713789	-0.166652	99
Es	-1.073454	1.157150	-0.321773	99
Es	-2.431822	0.341652	1.268174	99
Es	1.055758	0.441169	-1.049763	99
Es	0.340302	0.208807	0.012933	99
35
Properties=species:S:1:pos:R:3:Z:I:1 energy=-357.37535544583045 field_type=dipole dipole="0.000000 0.000000 0.000000" charge=0
O	-2.640136	0.588987	1.193904	8
C	-2.195556	1.294557	0.301334	6
O	-1.007236	1.186067	-0.369326	8
N	-0.280766	0.079987	0.110314	7
C	0.828704	0.001507	-0.530866	6
C	1.634314	-1.105413	-0.102716	6
C	2.311354	-2.031543	0.252844	6
H	-2.729186	2.167377	-0.106026	1
H	1.177604	0.675717	-1.327816	1
H	2.900904	-2.857243	0.578354	1
Es	-1.031611	1.173645	-0.355572	99
Es	-2.547726	1.887046	0.019044	99
Es	0.828800	0.001414	-0.530834	99
Es	1.055348	0.441047	-1.049339	99
Es	1.785387	-1.576199	0.382112	99
Es	-0.280533	0.080438	0.109781	99
Es	-0.426078	-0.116058	0.370459	99
Es	-0.695493	0.713534	-0.167089	99
Es	0.095615	-0.117793	-0.370455	99
Es	2.261332	-1.425187	-0.109449	99
Es	2.700206	-2.566816	0.458337	99
Es	-2.394965	0.934230	1.022717	99
Es	-2.195297	1.294518	0.301203	99
Es	1.249904	-0.563325	-0.318516	99
Es	-0.897432	1.378329	-0.591851	99
Es	-1.461733	1.212848	-0.102616	99
Es	2.311497	-2.031727	0.252907	99
Es	-2.928412	0.753034	1.236946	99
Es	-2.566467	0.707911	0.766217	99
Es	-2.431301	0.340175	1.268755	99
Es	-2.640032	0.589156	1.193693	99
Es	-1.045674	1.173769	-0.329451	99
Es	1.843316	-1.652499	-0.072236	99
Es	1.634143	-1.105169	-0.102818	99
Es	0.340277	0.208987	0.012403	99
35
Properties=species:S:1:pos:R:3:Z:I:1 energy=-357.37535544583045 field_type=dipole dipole="0.000000 0.000000 0.000000" charge=0
O	-2.640136	0.588987	1.193904	8
C	-2.195556	1.294557	0.301334	6
O	-1.007236	1.186067	-0.369326	8
N	-0.280766	0.079987	0.110314	7
C	0.828704	0.001507	-0.530866	6
C	1.634314	-1.105413	-0.102716	6
C	2.311354	-2.031543	0.252844	6
H	-2.729186	2.167377	-0.106026	1
H	1.177604	0.675717	-1.327816	1
H	2.900904	-2.857243	0.578354	1
Es	1.680783	-1.712791	0.228560	99
Es	-2.640033	0.589144	1.193694	99
Es	-0.426093	-0.115791	0.369360	99
Es	1.634130	-1.105177	-0.102821	99
Es	2.311501	-2.031725	0.252908	99
Es	-2.195290	1.294523	0.301203	99
Es	2.191731	-1.518969	-0.220257	99
Es	1.249868	-0.563553	-0.318672	99
Es	0.828791	0.001402	-0.530846	99
Es	-2.927806	0.763760	1.228620	99
Es	-1.007248	1.186018	-0.368586	99
Es	0.340539	0.208973	0.013323	99
Es	-1.460842	1.215982	-0.102161	99
Es	-2.404207	0.921214	1.024542	99
Es	-2.429172	0.342019	1.273722	99
Es	-0.694548	0.714817	-0.165405	99
Es	1.054799	0.440395	-1.049515	99
Es	2.016975	-1.422782	0.191529	99
Es	-2.559444	0.709084	0.768128	99
Es	-0.905467	1.365793	-0.603439	99
Es	-1.064068	1.169216	-0.307178	99
Es	0.095853	-0.117517	-0.370325	99
Es	-0.280601	0.080439	0.109813	99
Es	2.701088	-2.565782	0.459569	99
Es	-2.548165	1.886615	0.018582	99
35
Properties=species:S:1:pos:R:3:Z:I:1 energy=-357.37535544583045 field_type=dipole dipole="0.000000 0.000000 0.000000" charge=0
O	-2.640136	0.588987	1.193904	8
C	-2.195556	1.294557	0.301334	6
O	-1.007236	1.186067	-0.369326	8
N	-0.280766	0.079987	0.110314	7
C	0.828704	0.001507	-0.530866	6
C	1.634314	-1.105413	-0.102716	6
C	2.311354	-2.031543	0.252844	6
H	-2.729186	2.167377	-0.106026	1
H	1.177604	0.675717	-1.327816	1
H	2.900904	-2.857243	0.578354	1
Es	0.340556	0.208664	0.013352	99
Es	-2.558616	0.708997	0.775914	99
Es	-0.426019	-0.115268	0.369037	99
Es	1.634131	-1.105170	-0.102809	99
Es	2.701119	-2.565833	0.459504	99
Es	-2.407244	0.913933	1.022639	99
Es	2.197536	-1.513180	-0.214883	99
Es	-1.461182	1.216316	-0.103246	99
Es	-2.926812	0.771753	1.223158	99
Es	0.095640	-0.118035	-0.370331	99
Es	2.311499	-2.031725	0.252909	99
Es	1.685383	-1.704265	0.244493	99
Es	-2.195294	1.294519	0.301199	99
Es	0.828794	0.001408	-0.530837	99
Es	-2.548210	1.886645	0.018626	99
Es	2.006444	-1.437183	0.170325	99
Es	-0.280529	0.080454	0.109775	99
Es	1.250049	-0.563501	-0.318769	99
Es	-0.905219	1.365495	-0.602225	99
Es	-2.640040	0.589134	1.193709	99
Es	-0.694447	0.714808	-0.165477	99
Es	1.054736	0.440656	-1.049042	99
Es	-1.032027	1.175320	-0.350251	99
Es	-2.427918	0.341520	1.273049	99
Es	-1.039257	1.179845	-0.325472	99
35
Properties=species:S:1:pos:R:3:Z:I:1 energy=-357.37535544583045 field_type=dipole dipole="0.000000 0.000000 0.000000" charge=0
O	-2.640136	0.588987	1.193904	8
C	-2.195556	1.294557	0.301334	6
O	-1.007236	1.186067	-0.369326	8
N	-0.280766	0.079987	0.110314	7
C	0.828704	0.001507	-0.530866	6
C	1.634314	-1.105413	-0.102716	6
C	2.311354	-2.031543	0.252844	6
H	-2.729186	2.167377	-0.106026	1
H	1.177604	0.675717	-1.327816	1
H	2.900904	-2.857243	0.578354	1
Es	-0.280539	0.080452	0.109750	99
Es	-2.429497	0.340380	1.274840	99
Es	-2.195291	1.294513	0.301194	99
Es	1.690171	-1.696181	0.258137	99
Es	-0.694618	0.714692	-0.165407	99
Es	1.054392	0.440303	-1.049134	99
Es	1.634132	-1.105170	-0.102814	99
Es	-2.559265	0.706482	0.788197	99
Es	1.995391	-1.451782	0.150377	99
Es	0.095318	-0.119243	-0.370282	99
Es	0.340874	0.208898	0.014129	99
Es	2.203883	-1.506514	-0.208322	99
Es	1.250155	-0.563540	-0.318931	99
Es	-0.905645	1.363825	-0.602310	99
Es	2.311498	-2.031726	0.252910	99
Es	2.700944	-2.566047	0.459465	99
Es	-2.640043	0.589127	1.193727	99
Es	-1.063016	1.170394	-0.305604	99
Es	-0.425645	-0.113930	0.368249	99
Es	-2.925439	0.781382	1.213356	99
Es	-1.007237	1.186050	-0.368538	99
Es	0.828793	0.001405	-0.530843	99
Es	-2.548272	1.886684	0.018728	99
Es	-2.406259	0.908098	1.018150	99
Es	-1.461715	1.216755	-0.104676	99
35
Properties=species:S:1:pos:R:3:Z:I:1 energy=-357.37535544583045 field_type=dipole dipole="0.000000 0.000000 0.000000" charge=0
O	-2.640136	0.588987	1.193904	8
C	-2.195556	1.294557	0.301334	6
O	-1.007236	1.186067	-0.369326	8
N	-0.280766	0.079987	0.110314	7
C	0.828704	0.001507	-0.530866	6
C	1.634314	-1.105413	-0.102716	6
C	2.311354	-2.031543	0.252844	6
H	-2.729186	2.167377	-0.106026	1
H	1.177604	0.675717	-1.327816	1
H	2.900904	-2.857243	0.578354	1
Es	-1.007352	1.185842	-0.368957	99
Es	0.828797	0.001409	-0.530842	99
Es	-2.548064	1.886978	0.019044	99
Es	1.892074	-1.588974	-0.012144	99
Es	-2.924117	0.788087	1.206783	99
Es	-2.555977	0.708559	0.795088	99
Es	-0.280554	0.080456	0.109781	99
Es	1.634132	-1.105168	-0.102810	99
Es	-0.425588	-0.113654	0.368081	99
Es	0.340853	0.208818	0.013932	99
Es	2.250159	-1.446352	-0.138768	99
Es	1.054510	0.440572	-1.048776	99
Es	1.250310	-0.563364	-0.318702	99
Es	0.095220	-0.119621	-0.370102	99
Es	-2.410541	0.901515	1.020617	99
Es	2.700411	-2.566715	0.458848	99
Es	-2.640041	0.589135	1.193694	99
Es	-0.695391	0.713716	-0.166419	99
Es	-2.195292	1.294515	0.301193	99
Es	-1.070921	1.159848	-0.317580	99
Es	2.311499	-2.031727	0.252906	99
Es	-0.897085	1.374283	-0.588764	99
Es	-1.461316	1.218117	-0.104686	99
Es	1.747400	-1.618933	0.351320	99
Es	-2.430052	0.337963	1.271611	99
35
Properties=species:S:1:pos:R:3:Z:I:1 energy=-357.37535544583045 field_type=dipole dipole="0.000000 0.000000 0.000000" charge=0
O	-2.640136	0.588987	1.193904	8
C	-2.195556	1.294557	0.301334	6
O	-1.007236	1.186067	-0.369326	8
N	-0.280766	0.079987	0.110314	7
C	0.828704	0.001507	-0.530866	6
C	1.634314	-1.105413	-0.102716	6
C	2.311354	-2.031543	0.252844	6
H	-2.729186	2.167377	-0.106026	1
H	1.177604	0.675717	-1.327816	1
H	2.900904	-2.857243	0.578354	1
Es	0.340849	0.208203	0.014671	99
Es	-1.071018	1.159474	-0.318266	99
Es	-2.431121	0.337838	1.273818	99
Es	-2.557812	0.706427	0.806662	99
Es	-0.280530	0.080443	0.109768	99
Es	-2.548051	1.887040	0.019140	99
Es	-1.007264	1.186163	-0.368209	99
Es	-2.640014	0.589150	1.193699	99
Es	1.902023	-1.574935	0.003930	99
Es	-2.408821	0.897435	1.015805	99
Es	-2.922971	0.794398	1.197620	99
Es	2.311499	-2.031727	0.252905	99
Es	1.634133	-1.105168	-0.102811	99
Es	1.250341	-0.563414	-0.318841	99
Es	-0.695181	0.713856	-0.166448	99
Es	0.828797	0.001409	-0.530838	99
Es	-0.897796	1.372869	-0.589122	99
Es	1.742437	-1.624897	0.345929	99
Es	2.700483	-2.566674	0.458837	99
Es	-2.195293	1.294521	0.301203	99
Es	1.054415	0.440675	-1.048648	99
Es	0.095310	-0.119243	-0.370472	99
Es	-0.425611	-0.113492	0.367659	99
Es	-1.460830	1.219416	-0.104299	99
Es	2.245097	-1.454460	-0.149345	99
35
Properties=species:S:1:pos:R:3:Z:I:1 energy=-357.37535544583045 field_type=dipole dipole="0.000000 0.000000 0.000000" charge=0
O	-2.640136	0.588987	1.193904	8
C	-2.195556	1.294557	0.301334	6
O	-1.007236	1.186067	-0.369326	8
N	-0.280766	0.079987	0.110314	7
C	0.828704	0.001507	-0.530866	6
C	1.634314	-1.105413	-0.102716	6
C	2.311354	-2.031543	0.252844	6
H	-2.729186	2.167377	-0.106026	1
H	1.177604	0.675717	-1.327816	1
H	2.900904	-2.857243	0.578354	1
Es	-0.902833	1.365529	-0.596832	99
Es	-1.460939	1.219881	-0.105026	99
Es	-0.280540	0.080459	0.109764	99
Es	0.828795	0.001407	-0.530840	99
Es	-2.640054	0.589119	1.193735	99
Es	0.094795	-0.120269	-0.370812	99
Es	2.700533	-2.566568	0.459122	99
Es	-0.425455	-0.112359	0.366690	99
Es	-2.195294	1.294516	0.301198	99
Es	1.932292	-1.535077	0.047641	99
Es	1.054322	0.440402	-1.048564	99
Es	2.311504	-2.031720	0.252913	99
Es	2.235597	-1.468248	-0.166368	99
Es	-1.064981	1.167360	-0.308975	99
Es	-2.412941	0.892532	1.017505	99
Es	-2.921332	0.798843	1.194051	99
Es	1.721577	-1.651090	0.319130	99
Es	-1.008154	1.185059	-0.369361	99
Es	0.341218	0.208289	0.015936	99
Es	-2.430108	0.337957	1.273300	99
Es	-2.548175	1.886910	0.019000	99
Es	1.250419	-0.563400	-0.318936	99
Es	-2.556158	0.706982	0.809065	99
Es	1.634133	-1.105167	-0.102811	99
Es	-0.695149	0.713958	-0.166179	99
35
Properties=species:S:1:pos:R:3:Z:I:1 energy=-357.37535544583045 field_type=dipole dipole="0.000000 0.000000 0.000000" charge=0
O	-2.640136	0.588987	1.193904	8
C	-2.195556	1.294557	0.301334	6
O	-1.007236	1.186067	-0.369326	8
N	-0.280766	0.079987	0.110314	7
C	0.828704	0.001507	-0.530866	6
C	1.634314	-1.105413	-0.102716	6
C	2.311354	-2.031543	0.252844	6
H	-2.729186	2.167377	-0.106026	1
H	1.177604	0.675717	-1.327816	1
H	2.900904	-2.857243	0.578354	1
Es	-2.418477	0.885829	1.019455	99
Es	1.250324	-0.563507	-0.318890	99
Es	-2.640018	0.589164	1.193632	99
Es	-2.918958	0.804918	1.189715	99
Es	-2.195296	1.294517	0.301196	99
Es	-1.068608	1.162531	-0.314560	99
Es	-1.007321	1.186172	-0.368044	99
Es	-0.280508	0.080472	0.109733	99
Es	2.311495	-2.031727	0.252908	99
Es	-2.548277	1.886815	0.018926	99
Es	1.717904	-1.655952	0.313540	99
Es	-0.694998	0.714150	-0.166042	99
Es	-2.429453	0.338607	1.274210	99
Es	1.938961	-1.526164	0.058053	99
Es	0.340666	0.207600	0.014772	99
Es	-2.553572	0.707110	0.810736	99
Es	0.095501	-0.119276	-0.370318	99
Es	1.054048	0.440609	-1.048857	99
Es	2.232589	-1.472316	-0.171203	99
Es	1.634137	-1.105166	-0.102816	99
Es	-0.899722	1.369272	-0.591567	99
Es	0.828794	0.001407	-0.530841	99
Es	2.700649	-2.566452	0.459180	99
Es	-0.425273	-0.112839	0.367546	99
Es	-1.461514	1.219533	-0.106118	99
35
Properties=species:S:1:pos:R:3:Z:I:1 energy=-357.37535544583045 field_type=dipole dipole="0.000000 0.000000 0.000000" charge=0
O	-2.640136	0.588987	1.193904	8
C	-2.195556	1.294557	0.301334	6
O	-1.007236	1.186067	-0.369326	8
N	-0.280766	0.079987	0.110314	7
C	0.828704	0.001507	-0.530866	6
C	1.634314	-1.105413	-0.102716	6
C	2.311354	-2.031543	0.252844	6
H	-2.729186	2.167377	-0.106026	1
H	1.177604	0.675717	-1.327816	1
H	2.900904	-2.857243	0.578354	1
Es	-0.425566	-0.114166	0.368015	99
Es	-2.429439	0.879674	1.024072	99
Es	2.700668	-2.566472	0.459070	99
Es	-1.068250	1.163265	-0.313360	99
Es	-2.195293	1.294520	0.301199	99
Es	0.096058	-0.118626	-0.369204	99
Es	-2.640016	0.589167	1.193651	99
Es	-0.280539	0.080454	0.109775	99
Es	1.721497	-1.651196	0.319032	99
Es	2.311489	-2.031729	0.252914	99
Es	1.934071	-1.532653	0.050524	99
Es	1.250291	-0.563546	-0.318836	99
Es	1.634135	-1.105166	-0.102811	99
Es	2.233913	-1.470532	-0.169112	99
Es	-2.548281	1.886826	0.018940	99
Es	-0.694989	0.714181	-0.165989	99
Es	-0.898922	1.370510	-0.590386	99
Es	0.828792	0.001404	-0.530845	99
Es	-1.462453	1.218093	-0.107420	99
Es	-1.007603	1.185530	-0.369183	99
Es	-2.543914	0.710027	0.815431	99
Es	-2.428631	0.338497	1.273077	99
Es	-2.918447	0.808314	1.181528	99
Es	0.340503	0.208137	0.013142	99
Es	1.053996	0.440796	-1.048877	99
35
Properties=species:S:1:pos:R:3:Z:I:1 energy=-357.37535544583045 field_type=dipole dipole="0.000000 0.000000 0.000000" charge=0
O	-2.640136	0.588987	1.193904	8
C	-2.195556	1.294557	0.301334	6
O	-1.007236	1.186067	-0.369326	8
N	-0.280766	0.079987	0.110314	7
C	0.828704	0.001507	-0.530866	6
C	1.634314	-1.105413	-0.102716	6
C	2.311354	-2.031543	0.252844	6
H	-2.729186	2.167377	-0.106026	1
H	1.177604	0.675717	-1.327816	1
H	2.900904	-2.857243	0.578354	1
Es	-2.640062	0.589113	1.193736	99
Es	-0.425240	-0.114787	0.369567	99
Es	1.717128	-1.657026	0.312213	99
Es	2.700787	-2.566354	0.459145	99
Es	-0.899243	1.369145	-0.590412	99
Es	2.311490	-2.031735	0.252905	99
Es	1.250195	-0.563636	-0.318737	99
Es	-0.280548	0.080459	0.109773	99
Es	2.230602	-1.474900	-0.174193	99
Es	1.053793	0.440878	-1.049057	99
Es	0.339770	0.207879	0.011003	99
Es	1.941770	-1.522445	0.062391	99
Es	-2.548330	1.886787	0.018931	99
Es	0.096610	-0.117879	-0.368475	99
Es	-2.915364	0.813779	1.180854	99
Es	-1.007385	1.185769	-0.368980	99
Es	-2.424113	0.876567	1.019254	99
Es	-0.695048	0.714090	-0.166140	99
Es	0.828796	0.001408	-0.530840	99
Es	-2.195296	1.294515	0.301198	99
Es	-2.553225	0.707485	0.821287	99
Es	-2.427681	0.338830	1.272573	99
Es	-1.462226	1.219201	-0.107661	99
Es	1.634131	-1.105165	-0.102803	99
Es	-1.068239	1.163328	-0.313185	99
35
Properties=species:S:1:pos:R:3:Z:I:1 energy=-357.37535544583045 field_type=dipole dipole="0.000000 0.000000 0.000000" charge=0
O	-2.640136	0.588987	1.193904	8
C	-2.195556	1.294557	0.301334	6
O	-1.007236	1.186067	-0.369326	8
N	-0.280766	0.079987	0.110314	7
C	0.828704	0.001507	-0.530866	6
C	1.634314	-1.105413	-0.102716	6
C	2.311354	-2.031543	0.252844	6
H	-2.729186	2.167377	-0.106026	1
H	1.177604	0.675717	-1.327816	1
H	2.900904	-2.857243	0.578354	1
Es	-1.461215	1.220150	-0.105879	99
Es	1.053749	0.441143	-1.049068	99
Es	-1.065954	1.166031	-0.310407	99
Es	1.716797	-1.657479	0.311687	99
Es	0.828795	0.001407	-0.530842	99
Es	1.634137	-1.105163	-0.102811	99
Es	1.940942	-1.523529	0.061135	99
Es	-2.425462	0.875178	1.019492	99
Es	-0.901923	1.365969	-0.594671	99
Es	-2.548307	1.886867	0.019072	99
Es	1.250128	-0.563678	-0.318652	99
Es	2.231712	-1.473386	-0.172353	99
Es	-2.195292	1.294521	0.301198	99
Es	0.097951	-0.114308	-0.369323	99
Es	-0.280524	0.080458	0.109758	99
Es	0.338914	0.205117	0.012126	99
Es	-2.915261	0.815199	1.175592	99
Es	-2.640050	0.589125	1.193729	99
Es	-1.007966	1.185325	-0.369087	99
Es	-0.425575	-0.115743	0.369343	99
Es	-2.427274	0.338471	1.271208	99
Es	2.311501	-2.031725	0.252906	99
Es	-2.552472	0.707720	0.827440	99
Es	-0.695064	0.714074	-0.166147	99
Es	2.700783	-2.566435	0.458900	99
35
Properties=species:S:1:pos:R:3:Z:I:1 energy=-357.37535544583045 field_type=dipole dipole="0.000000 0.000000 0.000000" charge=0
O	-2.640136	0.588987	1.193904	8
C	-2.195556	1.294557	0.301334	6
O	-1.007236	1.186067	-0.369326	8
N	-0.280766	0.079987	0.110314	7
C	0.828704	0.001507	-0.530866	6
C	1.634314	-1.105413	-0.102716	6
C	2.311354	-2.031543	0.252844	6
H	-2.729186	2.167377	-0.106026	1
H	1.177604	0.675717	-1.327816	1
H	2.900904	-2.857243	0.578354	1
Es	0.828797	0.001410	-0.530838	99
Es	-1.068014	1.163378	-0.313405	99
Es	2.230956	-1.474374	-0.173497	99
Es	1.634132	-1.105168	-0.102809	99
Es	2.700865	-2.566339	0.458987	99
Es	-2.195294	1.294520	0.301196	99
Es	-2.913632	0.818245	1.173053	99
Es	2.311500	-2.031727	0.252904	99
Es	-2.425881	0.339441	1.271517	99
Es	-2.640035	0.589130	1.193716	99
Es	-1.462162	1.219223	-0.107518	99
Es	-1.007480	1.185917	-0.368613	99
Es	-2.439872	0.868073	1.023087	99
Es	1.250093	-0.563708	-0.318580	99
Es	-2.548357	1.886806	0.019007	99
Es	-0.425801	-0.116597	0.369330	99
Es	1.942603	-1.521312	0.063765	99
Es	-0.694842	0.714234	-0.166228	99
Es	0.098069	-0.114026	-0.368976	99
Es	1.715853	-1.658758	0.310146	99
Es	-2.541040	0.710850	0.826172	99
Es	-0.899638	1.368809	-0.590483	99
Es	1.053776	0.441312	-1.048951	99
Es	-0.280539	0.080463	0.109766	99
Es	0.339014	0.205504	0.011599	99
35
Properties=species:S:1:pos:R:3:Z:I:1 energy=-357.37535544583045 field_type=dipole dipole="0.000000 0.000000 0.000000" charge=0
O	-2.640136	0.588987	1.193904	8
C	-2.195556	1.294557	0.301334	6
O	-1.007236	1.186067	-0.369326	8
N	-0.280766	0.079987	0.110314	7
C	0.828704	0.001507	-0.530866	6
C	1.634314	-1.105413	-0.102716	6
C	2.311354	-2.031543	0.252844	6
H	-2.729186	2.167377	-0.106026	1
H	1.177604	0.675717	-1.327816	1
H	2.900904	-2.857243	0.578354	1
Es	1.250190	-0.563648	-0.318700	99
Es	2.234048	-1.470216	-0.168507	99
Es	-2.195295	1.294522	0.301201	99
Es	2.700729	-2.566468	0.458975	99
Es	-2.640023	0.589155	1.193708	99
Es	0.339410	0.205468	0.013093	99
Es	-0.280533	0.080461	0.109763	99
Es	2.311498	-2.031728	0.252908	99
Es	-1.007286	1.185946	-0.368701	99
Es	-2.913814	0.818381	1.169234	99
Es	1.053797	0.441103	-1.048847	99
Es	-1.462126	1.220243	-0.108190	99
Es	-0.695036	0.714104	-0.166092	99
Es	1.938203	-1.527196	0.056825	99
Es	-2.457359	0.857694	1.017857	99
Es	-2.548343	1.886831	0.019028	99
Es	-2.426650	0.339325	1.272674	99
Es	1.634127	-1.105174	-0.102815	99
Es	-1.067802	1.163794	-0.312570	99
Es	1.717226	-1.656968	0.312137	99
Es	0.097675	-0.114751	-0.369488	99
Es	-2.522593	0.721212	0.834016	99
Es	-0.899898	1.367455	-0.590655	99
Es	-0.425871	-0.115648	0.368331	99
Es	0.828797	0.001409	-0.530838	99
35
Properties=species:S:1:pos:R:3:Z:I:1 energy=-357.37535544583045 field_type=dipole dipole="0.000000 0.000000 0.000000" charge=0
O	-2.640136	0.588987	1.193904	8
C	-2.195556	1.294557	0.301334	6
O	-1.007236	1.186067	-0.369326	8
N	-0.280766	0.079987	0.110314	7
C	0.828704	0.001507	-0.530866	6
C	1.634314	-1.105413	-0.102716	6
C	2.311354	-2.031543	0.252844	6
H	-2.729186	2.167377	-0.106026	1
H	1.177604	0.675717	-1.327816	1
H	2.900904	-2.857243	0.578354	1
Es	-2.548250	1.886943	0.019155	99
Es	1.250100	-0.563713	-0.318539	99
Es	0.828795	0.001407	-0.530841	99
Es	-2.195296	1.294517	0.301196	99
Es	-1.069510	1.161181	-0.316195	99
Es	0.103028	-0.104472	-0.366123	99
Es	-2.640067	0.589112	1.193749	99
Es	-1.461715	1.220803	-0.107612	99
Es	2.231744	-1.473300	-0.172163	99
Es	1.053714	0.441410	-1.048860	99
Es	1.634131	-1.105170	-0.102816	99
Es	-0.898426	1.369392	-0.588041	99
Es	-0.695166	0.713899	-0.166406	99
Es	2.700787	-2.566460	0.458824	99
Es	-0.280533	0.080463	0.109758	99
Es	1.937862	-1.527614	0.056389	99
Es	-2.551522	0.708158	0.834416	99
Es	-2.431023	0.868742	1.020471	99
Es	2.311499	-2.031726	0.252911	99
Es	1.719828	-1.653510	0.316218	99
Es	0.334279	0.196222	0.008978	99
Es	-1.007333	1.186226	-0.367898	99
Es	-0.425915	-0.116900	0.369062	99
Es	-2.912148	0.821178	1.169395	99
Es	-2.425793	0.338518	1.269318	99
35
Properties=species:S:1:pos:R:3:Z:I:1 energy=-357.37535544583045 field_type=dipole dipole="0.000000 0.000000 0.000000" charge=0
O	-2.640136	0.588987	1.193904	8
C	-2.195556	1.294557	0.301334	6
O	-1.007236	1.186067	-0.369326	8
N	-0.280766	0.079987	0.110314	7
C	0.828704	0.001507	-0.530866	6
C	1.634314	-1.105413	-0.102716	6
C	2.311354	-2.031543	0.252844	6
H	-2.729186	2.167377	-0.106026	1
H	1.177604	0.675717	-1.327816	1
H	2.900904	-2.857243	0.578354	1
Es	2.311499	-2.031726	0.252908	99
Es	1.250269	-0.563591	-0.318687	99
Es	-2.548398	1.886786	0.018989	99
Es	-2.427354	0.339094	1.273443	99
Es	-1.461413	1.221064	-0.107023	99
Es	1.714003	-1.661320	0.306890	99
Es	-0.425738	-0.114979	0.367929	99
Es	-2.476115	0.841487	1.005221	99
Es	0.096757	-0.116769	-0.369465	99
Es	2.700817	-2.566383	0.459016	99
Es	-2.911729	0.822439	1.163107	99
Es	2.232908	-1.471735	-0.170269	99
Es	-0.280554	0.080461	0.109777	99
Es	-1.066011	1.166175	-0.309810	99
Es	1.634131	-1.105168	-0.102808	99
Es	1.942512	-1.521386	0.063789	99
Es	0.340068	0.206917	0.013270	99
Es	-0.902261	1.364478	-0.594148	99
Es	-0.694895	0.714226	-0.166046	99
Es	0.828796	0.001408	-0.530839	99
Es	-2.505143	0.733698	0.851976	99
Es	-2.640032	0.589144	1.193727	99
Es	-1.007577	1.185564	-0.369148	99
Es	-2.195294	1.294521	0.301204	99
Es	1.053826	0.440903	-1.048654	99
35
Properties=species:S:1:pos:R:3:Z:I:1 energy=-357.37535544583045 field_type=dipole dipole="0.000000 0.000000 0.000000" charge=0
O	-2.640136	0.588987	1.193904	8
C	-2.195556	1.294557	0.301334	6
O	-1.007236	1.186067	-0.369326	8
N	-0.280766	0.079987	0.110314	7
C	0.828704	0.001507	-0.530866	6
C	1.634314	-1.105413	-0.102716	6
C	2.311354	-2.031543	0.252844	6
H	-2.729186	2.167377	-0.106026	1
H	1.177604	0.675717	-1.327816	1
H	2.900904	-2.857243	0.578354	1
Es	1.250094	-0.563732	-0.318597	99
Es	1.053511	0.440722	-1.049092	99
Es	0.097298	-0.116204	-0.368909	99
Es	0.339354	0.206813	0.011464	99
Es	-0.280527	0.080474	0.109747	99
Es	-2.555675	0.735549	0.882537	99
Es	1.718623	-1.655172	0.314163	99
Es	-1.461190	1.221706	-0.107039	99
Es	0.828801	0.001416	-0.530835	99
Es	-0.694968	0.714176	-0.166029	99
Es	1.941747	-1.522507	0.062311	99
Es	-0.900712	1.366149	-0.591466	99
Es	-2.548368	1.886849	0.019103	99
Es	1.634127	-1.105170	-0.102805	99
Es	-2.427994	0.337508	1.270685	99
Es	2.700910	-2.566316	0.458973	99
Es	-2.909202	0.825818	1.167320	99
Es	2.229047	-1.476797	-0.176150	99
Es	-2.195291	1.294521	0.301200	99
Es	-1.051217	1.167135	-0.334855	99
Es	-2.640046	0.589130	1.193741	99
Es	2.311502	-2.031726	0.252905	99
Es	-1.024159	1.182176	-0.346829	99
Es	-0.425132	-0.115135	0.369656	99
Es	-2.427463	0.837923	0.973148	99
35
Properties=species:S:1:pos:R:3:Z:I:1 energy=-357.37535544583045 field_type=dipole dipole="0.000000 0.000000 0.000000" charge=0
O	-2.640136	0.588987	1.193904	8
C	-2.195556	1.294557	0.301334	6
O	-1.007236	1.186067	-0.369326	8
N	-0.280766	0.079987	0.110314	7
C	0.828704	0.001507	-0.530866	6
C	1.634314	-1.105413	-0.102716	6
C	2.311354	-2.031543	0.252844	6
H	-2.729186	2.167377	-0.106026	1
H	1.177604	0.675717	-1.327816	1
H	2.900904	-2.857243	0.578354	1
Es	1.053767	0.440681	-1.048677	99
Es	0.828796	0.001407	-0.530841	99
Es	0.096070	-0.119077	-0.368572	99
Es	-2.429197	0.337458	1.272873	99
Es	1.634130	-1.105169	-0.102812	99
Es	-0.899282	1.368297	-0.589122	99
Es	1.250223	-0.563658	-0.318750	99
Es	-2.548700	0.750412	0.902334	99
Es	-2.435888	0.819019	0.954677	99
Es	-1.067315	1.163632	-0.313569	99
Es	-0.694832	0.714289	-0.166004	99
Es	-2.906536	0.829949	1.163757	99
Es	0.340168	0.208221	0.011804	99
Es	-2.548375	1.886859	0.019132	99
Es	1.937536	-1.528029	0.055983	99
Es	-2.195296	1.294519	0.301199	99
Es	2.230312	-1.475103	-0.174090	99
Es	-0.425040	-0.113698	0.368521	99
Es	-2.640032	0.589144	1.193683	99
Es	2.700872	-2.566374	0.458923	99
Es	-0.280531	0.080460	0.109761	99
Es	-1.462112	1.220343	-0.108247	99
Es	-1.008731	1.184725	-0.369174	99
Es	1.721563	-1.651274	0.318650	99
Es	2.311501	-2.031726	0.252907	99
35
Properties=species:S:1:pos:R:3:Z:I:1 energy=-357.37535544583045 field_type=dipole dipole="0.000000 0.000000 0.000000" charge=0
O	-2.640136	0.588987	1.193904	8
C	-2.195556	1.294557	0.301334	6
O	-1.007236	1.186067	-0.369326	8
N	-0.280766	0.079987	0.110314	7
C	0.828704	0.001507	-0.530866	6
C	1.634314	-1.105413	-0.102716	6
C	2.311354	-2.031543	0.252844	6
H	-2.729186	2.167377	-0.106026	1
H	1.177604	0.675717	-1.327816	1
H	2.900904	-2.857243	0.578354	1
Es	-2.428977	0.337461	1.272522	99
Es	-2.906395	0.830463	1.161339	99
Es	-2.195293	1.294523	0.301203	99
Es	-0.280535	0.080465	0.109760	99
Es	-1.461598	1.221312	-0.107650	99
Es	-1.066654	1.165049	-0.311128	99
Es	-2.544385	0.757865	0.912380	99
Es	1.634133	-1.105170	-0.102816	99
Es	-0.901907	1.364554	-0.593117	99
Es	2.311498	-2.031728	0.252906	99
Es	0.340151	0.208376	0.011422	99
Es	-2.440604	0.810932	0.947283	99
Es	-2.548371	1.886879	0.019167	99
Es	-0.694870	0.714270	-0.165965	99
Es	0.828794	0.001405	-0.530844	99
Es	0.096082	-0.119604	-0.367984	99
Es	-2.640026	0.589145	1.193704	99
Es	1.250251	-0.563610	-0.318671	99
Es	2.700867	-2.566381	0.458916	99
Es	-0.424910	-0.113332	0.368489	99
Es	1.938457	-1.526822	0.057324	99
Es	1.053628	0.440668	-1.048839	99
Es	1.719581	-1.653900	0.315616	99
Es	-1.007209	1.186201	-0.368204	99
Es	2.231365	-1.473714	-0.172466	99
35
Properties=species:S:1:pos:R:3:Z:I:1 energy=-357.37535544583045 field_type=dipole dipole="0.000000 0.000000 0.000000" charge=0
O	-2.640136	0.588987	1.193904	8
C	-2.195556	1.294557	0.301334	6
O	-1.007236	1.186067	-0.369326	8
N	-0.280766	0.079987	0.110314	7
C	0.828704	0.001507	-0.530866	6
C	1.634314	-1.105413	-0.102716	6
C	2.311354	-2.031543	0.252844	6
H	-2.729186	2.167377	-0.106026	1
H	1.177604	0.675717	-1.327816	1
H	2.900904	-2.857243	0.578354	1
Es	1.718274	-1.655674	0.313519	99
Es	-1.066281	1.165252	-0.311239	99
Es	-2.195295	1.294519	0.301198	99
Es	1.939558	-1.525368	0.058992	99
Es	-2.429004	0.336467	1.270211	99
Es	-2.433306	0.825977	0.968881	99
Es	1.053376	0.440837	-1.049080	99
Es	-0.425142	-0.114842	0.369268	99
Es	1.250075	-0.563761	-0.318561	99
Es	-1.008423	1.184871	-0.369320	99
Es	0.337455	0.202164	0.011718	99
Es	2.700907	-2.566412	0.458703	99
Es	1.634133	-1.105167	-0.102810	99
Es	2.311500	-2.031726	0.252908	99
Es	-0.901231	1.364759	-0.591598	99
Es	-1.461257	1.222419	-0.107662	99
Es	-2.552133	0.743073	0.893783	99
Es	-0.280536	0.080463	0.109763	99
Es	-2.548377	1.886864	0.019150	99
Es	-2.640040	0.589137	1.193728	99
Es	2.231610	-1.473361	-0.172042	99
Es	0.828794	0.001405	-0.530843	99
Es	-2.905832	0.831363	1.160724	99
Es	0.099337	-0.111937	-0.368734	99
Es	-0.695090	0.713984	-0.166311	99
35
Properties=species:S:1:pos:R:3:Z:I:1 energy=-357.37535544583045 field_type=dipole dipole="0.000000 0.000000 0.000000" charge=0
O	-2.640136	0.588987	1.193904	8
C	-2.195556	1.294557	0.301334	6
O	-1.007236	1.186067	-0.369326	8
N	-0.280766	0.079987	0.110314	7
C	0.828704	0.001507	-0.530866	6
C	1.634314	-1.105413	-0.102716	6
C	2.311354	-2.031543	0.252844	6
H	-2.729186	2.167377	-0.106026	1
H	1.177604	0.675717	-1.327816	1
H	2.900904	-2.857243	0.578354	1
Es	0.340342	0.207662	0.013207	99
Es	-2.428748	0.337870	1.273183	99
Es	-2.524139	0.787990	0.949028	99
Es	-2.461676	0.779172	0.914328	99
Es	-0.280508	0.080464	0.109758	99
Es	-2.640042	0.589130	1.193687	99
Es	2.311499	-2.031728	0.252905	99
Es	0.828797	0.001411	-0.530847	99
Es	-0.694796	0.714316	-0.166010	99
Es	1.250202	-0.563656	-0.318635	99
Es	1.053577	0.440635	-1.048824	99
Es	0.096385	-0.118202	-0.369048	99
Es	-1.066159	1.165692	-0.310287	99
Es	1.942805	-1.521043	0.064095	99
Es	-2.195294	1.294519	0.301199	99
Es	-1.461674	1.221477	-0.107939	99
Es	1.716092	-1.658586	0.310052	99
Es	-2.548425	1.886816	0.019094	99
Es	1.634133	-1.105166	-0.102814	99
Es	2.700938	-2.566310	0.458951	99
Es	-2.905753	0.831794	1.156980	99
Es	-1.007892	1.185287	-0.369272	99
Es	-0.425426	-0.114010	0.367776	99
Es	-0.901674	1.364601	-0.592481	99
Es	2.230510	-1.474827	-0.173739	99
35
Properties=species:S:1:pos:R:3:Z:I:1 energy=-357.37535544583045 field_type=dipole dipole="0.000000 0.000000 0.000000" charge=0
O	-2.640136	0.588987	1.193904	8
C	-2.195556	1.294557	0.301334	6
O	-1.007236	1.186067	-0.369326	8
N	-0.280766	0.079987	0.110314	7
C	0.828704	0.001507	-0.530866	6
C	1.634314	-1.105413	-0.102716	6
C	2.311354	-2.031543	0.252844	6
H	-2.729186	2.167377	-0.106026	1
H	1.177604	0.675717	-1.327816	1
H	2.900904	-2.857243	0.578354	1
Es	-1.066591	1.165173	-0.310752	99
Es	-2.195290	1.294525	0.301208	99
Es	0.096724	-0.117879	-0.368257	99
Es	2.700913	-2.566395	0.458748	99
Es	-1.007275	1.186031	-0.368508	99
Es	-2.640044	0.589129	1.193722	99
Es	-2.905482	0.832245	1.155895	99
Es	1.634130	-1.105168	-0.102808	99
Es	-2.454952	0.788293	0.926440	99
Es	2.233347	-1.471012	-0.169213	99
Es	1.053569	0.440960	-1.048717	99
Es	-2.429218	0.337316	1.272625	99
Es	1.250150	-0.563707	-0.318601	99
Es	-0.694919	0.714176	-0.166149	99
Es	-0.280531	0.080461	0.109760	99
Es	-0.902045	1.363271	-0.592329	99
Es	0.828796	0.001408	-0.530839	99
Es	-1.461395	1.222656	-0.108243	99
Es	-0.425385	-0.114611	0.368303	99
Es	0.340024	0.207641	0.011758	99
Es	1.720975	-1.652123	0.317578	99
Es	1.935147	-1.531226	0.052179	99
Es	-2.530677	0.779004	0.938461	99
Es	-2.548402	1.886863	0.019179	99
Es	2.311502	-2.031726	0.252905	99
35
Properties=species:S:1:pos:R:3:Z:I:1 energy=-357.37535544583045 field_type=dipole dipole="0.000000 0.000000 0.000000" charge=0
O	-2.640136	0.588987	1.193904	8
C	-2.195556	1.294557	0.301334	6
O	-1.007236	1.186067	-0.369326	8
N	-0.280766	0.079987	0.110314	7
C	0.828704	0.001507	-0.530866	6
C	1.634314	-1.105413	-0.102716	6
C	2.311354	-2.031543	0.252844	6
H	-2.729186	2.167377	-0.106026	1
H	1.177604	0.675717	-1.327816	1
H	2.900904	-2.857243	0.578354	1
Es	-2.437895	0.859277	1.020866	99
Es	-2.195293	1.294521	0.301199	99
Es	-0.280510	0.080457	0.109750	99
Es	-0.425746	-0.116252	0.368744	99
Es	-2.640025	0.589140	1.193693	99
Es	-0.900118	1.366077	-0.589981	99
Es	1.634119	-1.105174	-0.102801	99
Es	-1.067583	1.164006	-0.312145	99
Es	2.311500	-2.031727	0.252906	99
Es	0.112469	-0.089262	-0.355597	99
Es	0.828796	0.001409	-0.530839	99
Es	-2.548270	1.887001	0.019278	99
Es	-2.424141	0.338314	1.266510	99
Es	-1.007557	1.185582	-0.369116	99
Es	-2.906830	0.830373	1.157856	99
Es	1.940465	-1.524149	0.060458	99
Es	2.700729	-2.566581	0.458671	99
Es	-0.695230	0.713917	-0.166200	99
Es	-2.551617	0.708746	0.848121	99
Es	1.250254	-0.563592	-0.318440	99
Es	-1.461681	1.221801	-0.108476	99
Es	2.231542	-1.473429	-0.172024	99
Es	1.717348	-1.656918	0.311985	99
Es	1.053839	0.441427	-1.048304	99
Es	0.324505	0.180342	-0.001768	99
35
Properties=species:S:1:pos:R:3:Z:I:1 energy=-357.37535544583045 field_type=dipole dipole="0.000000 0.000000 0.000000" charge=0
O	-2.640136	0.588987	1.193904	8
C	-2.195556	1.294557	0.301334	6
O	-1.007236	1.186067	-0.369326	8
N	-0.280766	0.079987	0.110314	7
C	0.828704	0.001507	-0.530866	6
C	1.634314	-1.105413	-0.102716	6
C	2.311354	-2.031543	0.252844	6
H	-2.729186	2.167377	-0.106026	1
H	1.177604	0.675717	-1.327816	1
H	2.900904	-2.857243	0.578354	1
Es	-0.900801	1.365263	-0.590345	99
Es	-2.525493	0.786267	0.946852	99
Es	-0.425209	-0.115145	0.369143	99
Es	-0.694873	0.714180	-0.166213	99
Es	-2.427216	0.338287	1.271806	99
Es	-2.640045	0.589127	1.193730	99
Es	-0.280532	0.080466	0.109758	99
Es	-1.007399	1.185754	-0.368956	99
Es	-2.903690	0.834875	1.154913	99
Es	2.230918	-1.474214	-0.172930	99
Es	2.311502	-2.031725	0.252909	99
Es	2.701068	-2.566261	0.458767	99
Es	-1.461802	1.221847	-0.108777	99
Es	1.942669	-1.521213	0.063909	99
Es	-2.463876	0.777557	0.919861	99
Es	-1.067398	1.164163	-0.311665	99
Es	1.250099	-0.563729	-0.318461	99
Es	0.098178	-0.114164	-0.369140	99
Es	1.715774	-1.659059	0.309439	99
Es	-2.195295	1.294519	0.301197	99
Es	0.828797	0.001409	-0.530840	99
Es	-2.548444	1.886818	0.019144	99
Es	0.338616	0.204417	0.011941	99
Es	1.634133	-1.105167	-0.102810	99
Es	1.053391	0.441036	-1.048884	99
