41
Properties=species:S:1:pos:R:3:Z:I:1 energy=-359.7320985325912 field_type=dipole dipole="0.000000 0.000000 0.000000" charge=0
O	-2.955461	-0.822420	1.470849	8
N	-1.569101	-0.995740	1.402389	7
C	-1.161251	-0.616550	0.234359	6
C	0.296409	-0.659550	-0.126771	6
C	0.886119	0.711970	-0.119271	6
C	1.928079	1.126270	-1.123441	6
O	0.550919	1.508950	-1.262881	8
H	-3.158031	-1.096380	2.384619	1
H	-1.855001	-0.218440	-0.527221	1
H	0.380669	-1.125310	-1.114861	1
H	0.831949	-1.289990	0.590799	1
H	0.877509	1.183900	0.855229	1
H	2.314659	0.392910	-1.820131	1
H	2.632539	1.900380	-0.843671	1
Es	0.573606	1.218696	-0.793759	99
Es	-1.347174	-0.559768	0.992120	99
Es	1.927767	1.126344	-1.123453	99
Es	-1.623060	-0.352132	-0.275759	99
Es	0.296348	-0.659516	-0.126755	99
Es	2.187052	0.629723	-1.603046	99
Es	-2.999094	-0.519202	1.441598	99
Es	-1.569462	-0.995513	1.401933	99
Es	0.519110	1.805064	-1.183425	99
Es	-1.425416	-1.101708	0.786050	99
Es	-2.349299	-0.895603	1.441994	99
Es	-3.058354	-0.970681	1.961323	99
Es	-2.955229	-0.822598	1.471135	99
Es	0.580520	0.019461	-0.128760	99
Es	1.579633	0.791535	-0.497779	99
Es	-0.436188	-0.635771	0.062293	99
Es	0.886059	0.712111	-0.119548	99
Es	0.417743	1.320212	-1.468602	99
Es	0.873751	1.038287	0.539485	99
Es	-3.065749	-1.030148	1.274763	99
Es	2.404107	1.657002	-0.939796	99
Es	0.658121	-1.075361	0.358632	99
Es	-1.391197	-1.136577	1.708330	99
Es	-1.161193	-0.616556	0.234340	99
Es	0.349956	-0.966313	-0.794216	99
Es	1.099781	1.415162	-1.303893	99
Es	0.551130	1.508805	-1.262716	99
41
Properties=species:S:1:pos:R:3:Z:I:1 energy=-359.7320985325912 field_type=dipole dipole="0.000000 0.000000 0.000000" charge=0
O	-2.955461	-0.822420	1.470849	8
N	-1.569101	-0.995740	1.402389	7
C	-1.161251	-0.616550	0.234359	6
C	0.296409	-0.659550	-0.126771	6
C	0.886119	0.711970	-0.119271	6
C	1.928079	1.126270	-1.123441	6
O	0.550919	1.508950	-1.262881	8
H	-3.158031	-1.096380	2.384619	1
H	-1.855001	-0.218440	-0.527221	1
H	0.380669	-1.125310	-1.114861	1
H	0.831949	-1.289990	0.590799	1
H	0.877509	1.183900	0.855229	1
H	2.314659	0.392910	-1.820131	1
H	2.632539	1.900380	-0.843671	1
Es	-3.058201	-1.018834	1.281891	99
Es	1.927759	1.126346	-1.123451	99
Es	-1.388208	-1.138027	1.707789	99
Es	0.522878	1.787807	-1.188041	99
Es	2.186966	0.632373	-1.604522	99
Es	-1.426871	-1.097354	0.786327	99
Es	0.296350	-0.659514	-0.126752	99
Es	-3.066757	-0.973402	1.966257	99
Es	-3.000117	-0.528510	1.435265	99
Es	-1.569457	-0.995508	1.401927	99
Es	0.551105	1.508782	-1.262750	99
Es	-2.347711	-0.895923	1.438512	99
Es	-1.349138	-0.562009	0.989851	99
Es	0.872121	1.038040	0.539369	99
Es	-1.161192	-0.616554	0.234342	99
Es	0.565706	1.218650	-0.783812	99
Es	0.578729	0.018555	-0.128807	99
Es	1.106113	1.420946	-1.313826	99
Es	0.886050	0.712107	-0.119544	99
Es	0.659536	-1.074249	0.358102	99
Es	-1.623290	-0.352065	-0.274735	99
Es	2.402136	1.656450	-0.942295	99
Es	-0.437477	-0.634735	0.062735	99
Es	1.582188	0.788325	-0.494406	99
Es	0.417759	1.330800	-1.463388	99
Es	-2.955273	-0.822555	1.471107	99
Es	0.351566	-0.964985	-0.794654	99
41
Properties=species:S:1:pos:R:3:Z:I:1 energy=-359.7320985325912 field_type=dipole dipole="0.000000 0.000000 0.000000" charge=0
O	-2.955461	-0.822420	1.470849	8
N	-1.569101	-0.995740	1.402389	7
C	-1.161251	-0.616550	0.234359	6
C	0.296409	-0.659550	-0.126771	6
C	0.886119	0.711970	-0.119271	6
C	1.928079	1.126270	-1.123441	6
O	0.550919	1.508950	-1.262881	8
H	-3.158031	-1.096380	2.384619	1
H	-1.855001	-0.218440	-0.527221	1
H	0.380669	-1.125310	-1.114861	1
H	0.831949	-1.289990	0.590799	1
H	0.877509	1.183900	0.855229	1
H	2.314659	0.392910	-1.820131	1
H	2.632539	1.900380	-0.843671	1
Es	-1.623359	-0.352196	-0.274094	99
Es	-0.438151	-0.634143	0.063266	99
Es	-3.071572	-0.974321	1.967603	99
Es	-1.427777	-1.094685	0.786477	99
Es	0.533066	1.767950	-1.185257	99
Es	0.551182	1.508697	-1.262717	99
Es	-1.569443	-0.995506	1.401911	99
Es	0.577133	0.017301	-0.128477	99
Es	1.583357	0.787035	-0.492803	99
Es	-2.346624	-0.892585	1.436436	99
Es	-3.042374	-1.016722	1.300348	99
Es	1.109237	1.425712	-1.320654	99
Es	0.559654	1.219869	-0.778906	99
Es	0.352918	-0.963745	-0.795643	99
Es	-1.386587	-1.139140	1.707179	99
Es	2.400530	1.655934	-0.943584	99
Es	-2.955201	-0.822558	1.471149	99
Es	0.871129	1.037769	0.539431	99
Es	0.886052	0.712108	-0.119541	99
Es	0.660519	-1.073167	0.357617	99
Es	2.187109	0.633984	-1.605379	99
Es	-3.012337	-0.533709	1.418804	99
Es	-1.350166	-0.563057	0.988856	99
Es	0.412049	1.343857	-1.463667	99
Es	-1.161191	-0.616553	0.234341	99
Es	1.927769	1.126342	-1.123452	99
Es	0.296348	-0.659516	-0.126754	99
41
Properties=species:S:1:pos:R:3:Z:I:1 energy=-359.7320985325912 field_type=dipole dipole="0.000000 0.000000 0.000000" charge=0
O	-2.955461	-0.822420	1.470849	8
N	-1.569101	-0.995740	1.402389	7
C	-1.161251	-0.616550	0.234359	6
C	0.296409	-0.659550	-0.126771	6
C	0.886119	0.711970	-0.119271	6
C	1.928079	1.126270	-1.123441	6
O	0.550919	1.508950	-1.262881	8
H	-3.158031	-1.096380	2.384619	1
H	-1.855001	-0.218440	-0.527221	1
H	0.380669	-1.125310	-1.114861	1
H	0.831949	-1.289990	0.590799	1
H	0.877509	1.183900	0.855229	1
H	2.314659	0.392910	-1.820131	1
H	2.632539	1.900380	-0.843671	1
Es	1.111031	1.428178	-1.325540	99
Es	-1.623078	-0.352566	-0.273357	99
Es	0.555339	1.221021	-0.776008	99
Es	-1.350505	-0.562358	0.988686	99
Es	-1.386490	-1.138531	1.706014	99
Es	1.582920	0.786957	-0.492619	99
Es	1.927776	1.126341	-1.123453	99
Es	-0.438363	-0.634133	0.063752	99
Es	0.353864	-0.963434	-0.796606	99
Es	0.552015	1.738654	-1.177203	99
Es	-1.428052	-1.095230	0.786132	99
Es	2.187132	0.634731	-1.606175	99
Es	0.660274	-1.072080	0.356581	99
Es	-2.346203	-0.890398	1.435847	99
Es	0.886053	0.712103	-0.119539	99
Es	0.296347	-0.659516	-0.126753	99
Es	-2.955287	-0.822492	1.471058	99
Es	-1.161192	-0.616555	0.234341	99
Es	0.397696	1.368172	-1.468552	99
Es	0.551129	1.508766	-1.262733	99
Es	-3.044079	-0.544256	1.374319	99
Es	-3.008212	-1.012545	1.345661	99
Es	0.576533	0.016820	-0.127897	99
Es	-3.074173	-0.970953	1.969037	99
Es	2.399721	1.655971	-0.944147	99
Es	-1.569482	-0.995513	1.401942	99
Es	0.870557	1.037798	0.539699	99
41
Properties=species:S:1:pos:R:3:Z:I:1 energy=-359.7320985325912 field_type=dipole dipole="0.000000 0.000000 0.000000" charge=0
O	-2.955461	-0.822420	1.470849	8
N	-1.569101	-0.995740	1.402389	7
C	-1.161251	-0.616550	0.234359	6
C	0.296409	-0.659550	-0.126771	6
C	0.886119	0.711970	-0.119271	6
C	1.928079	1.126270	-1.123441	6
O	0.550919	1.508950	-1.262881	8
H	-3.158031	-1.096380	2.384619	1
H	-1.855001	-0.218440	-0.527221	1
H	0.380669	-1.125310	-1.114861	1
H	0.831949	-1.289990	0.590799	1
H	0.877509	1.183900	0.855229	1
H	2.314659	0.392910	-1.820131	1
H	2.632539	1.900380	-0.843671	1
Es	-2.345883	-0.886858	1.435691	99
Es	0.296349	-0.659516	-0.126755	99
Es	-1.386762	-1.137974	1.705177	99
Es	-2.955163	-0.822342	1.471230	99
Es	0.404614	1.362464	-1.463570	99
Es	-1.622810	-0.353055	-0.272758	99
Es	0.553310	1.222745	-0.773507	99
Es	0.659969	-1.071146	0.355513	99
Es	-1.350610	-0.561609	0.988908	99
Es	-1.161191	-0.616552	0.234342	99
Es	2.399091	1.656072	-0.944462	99
Es	1.582160	0.787304	-0.492814	99
Es	0.551439	1.509162	-1.262265	99
Es	2.187164	0.635325	-1.606897	99
Es	0.870185	1.037873	0.539940	99
Es	1.927774	1.126341	-1.123449	99
Es	-0.438478	-0.634384	0.064227	99
Es	0.354481	-0.963298	-0.797244	99
Es	-2.979092	-0.991978	1.385835	99
Es	-3.076828	-0.970899	1.968869	99
Es	0.576185	0.016563	-0.127511	99
Es	-1.569428	-0.995511	1.401914	99
Es	-3.070807	-0.569108	1.335398	99
Es	-1.428215	-1.095814	0.785682	99
Es	0.547176	1.735770	-1.182082	99
Es	0.886049	0.712106	-0.119541	99
Es	1.112590	1.433272	-1.327380	99
41
Properties=species:S:1:pos:R:3:Z:I:1 energy=-359.7320985325912 field_type=dipole dipole="0.000000 0.000000 0.000000" charge=0
O	-2.955461	-0.822420	1.470849	8
N	-1.569101	-0.995740	1.402389	7
C	-1.161251	-0.616550	0.234359	6
C	0.296409	-0.659550	-0.126771	6
C	0.886119	0.711970	-0.119271	6
C	1.928079	1.126270	-1.123441	6
O	0.550919	1.508950	-1.262881	8
H	-3.158031	-1.096380	2.384619	1
H	-1.855001	-0.218440	-0.527221	1
H	0.380669	-1.125310	-1.114861	1
H	0.831949	-1.289990	0.590799	1
H	0.877509	1.183900	0.855229	1
H	2.314659	0.392910	-1.820131	1
H	2.632539	1.900380	-0.843671	1
Es	0.659658	-1.070626	0.354771	99
Es	0.551480	1.223162	-0.772223	99
Es	-1.428516	-1.095974	0.785520	99
Es	2.187097	0.635759	-1.607415	99
Es	0.575800	0.016136	-0.126935	99
Es	0.551144	1.508838	-1.262685	99
Es	-1.622596	-0.353109	-0.272218	99
Es	1.581526	0.787642	-0.492927	99
Es	-0.438558	-0.634523	0.064438	99
Es	0.406304	1.364709	-1.459833	99
Es	0.886051	0.712104	-0.119540	99
Es	-2.955261	-0.822546	1.471116	99
Es	1.112966	1.435454	-1.331011	99
Es	0.548762	1.730291	-1.182118	99
Es	0.296347	-0.659514	-0.126755	99
Es	0.355068	-0.962913	-0.797808	99
Es	-1.569477	-0.995515	1.401937	99
Es	1.927771	1.126344	-1.123453	99
Es	2.398655	1.656066	-0.944735	99
Es	-1.161190	-0.616552	0.234341	99
Es	-2.964419	-0.972373	1.407887	99
Es	-3.078311	-0.973032	1.968114	99
Es	-2.345993	-0.886321	1.434957	99
Es	-3.083589	-0.587364	1.315924	99
Es	-1.350667	-0.561121	0.988880	99
Es	0.869970	1.037980	0.539991	99
Es	-1.386753	-1.138048	1.704271	99
41
Properties=species:S:1:pos:R:3:Z:I:1 energy=-359.7320985325912 field_type=dipole dipole="0.000000 0.000000 0.000000" charge=0
O	-2.955461	-0.822420	1.470849	8
N	-1.569101	-0.995740	1.402389	7
C	-1.161251	-0.616550	0.234359	6
C	0.296409	-0.659550	-0.126771	6
C	0.886119	0.711970	-0.119271	6
C	1.928079	1.126270	-1.123441	6
O	0.550919	1.508950	-1.262881	8
H	-3.158031	-1.096380	2.384619	1
H	-1.855001	-0.218440	-0.527221	1
H	0.380669	-1.125310	-1.114861	1
H	0.831949	-1.289990	0.590799	1
H	0.877509	1.183900	0.855229	1
H	2.314659	0.392910	-1.820131	1
H	2.632539	1.900380	-0.843671	1
Es	0.575791	0.016016	-0.126870	99
Es	1.927769	1.126345	-1.123460	99
Es	-1.622335	-0.353089	-0.271581	99
Es	-1.429003	-1.095907	0.785108	99
Es	2.398335	1.656132	-0.945209	99
Es	0.869737	1.038047	0.540016	99
Es	1.580961	0.788131	-0.492802	99
Es	-1.387148	-1.138687	1.702927	99
Es	-1.161191	-0.616553	0.234341	99
Es	0.659522	-1.070128	0.354055	99
Es	2.186931	0.635946	-1.607697	99
Es	-2.955218	-0.822826	1.471062	99
Es	-0.438576	-0.634676	0.064680	99
Es	0.355166	-0.962923	-0.797969	99
Es	0.550611	1.222503	-0.771739	99
Es	0.296348	-0.659516	-0.126755	99
Es	-2.346086	-0.886960	1.434484	99
Es	0.886050	0.712106	-0.119540	99
Es	-3.094400	-0.607258	1.298387	99
Es	0.407798	1.367015	-1.456028	99
Es	1.112787	1.436584	-1.334747	99
Es	0.550975	1.508988	-1.262787	99
Es	0.549804	1.726582	-1.181885	99
Es	-1.569452	-0.995505	1.401903	99
Es	-3.079501	-0.974568	1.967426	99
Es	-1.350264	-0.560373	0.989427	99
Es	-2.952140	-0.950472	1.427740	99
41
Properties=species:S:1:pos:R:3:Z:I:1 energy=-359.7320985325912 field_type=dipole dipole="0.000000 0.000000 0.000000" charge=0
O	-2.955461	-0.822420	1.470849	8
N	-1.569101	-0.995740	1.402389	7
C	-1.161251	-0.616550	0.234359	6
C	0.296409	-0.659550	-0.126771	6
C	0.886119	0.711970	-0.119271	6
C	1.928079	1.126270	-1.123441	6
O	0.550919	1.508950	-1.262881	8
H	-3.158031	-1.096380	2.384619	1
H	-1.855001	-0.218440	-0.527221	1
H	0.380669	-1.125310	-1.114861	1
H	0.831949	-1.289990	0.590799	1
H	0.877509	1.183900	0.855229	1
H	2.314659	0.392910	-1.820131	1
H	2.632539	1.900380	-0.843671	1
Es	-0.438651	-0.634807	0.064806	99
Es	-1.350328	-0.560135	0.989086	99
Es	-3.080365	-0.976784	1.966563	99
Es	0.410935	1.367471	-1.452214	99
Es	2.187242	0.636494	-1.608138	99
Es	-1.429252	-1.095873	0.785305	99
Es	-2.346255	-0.886619	1.433650	99
Es	0.296351	-0.659518	-0.126754	99
Es	-1.387106	-1.139169	1.702464	99
Es	2.397602	1.655996	-0.945300	99
Es	1.580708	0.788296	-0.492927	99
Es	-3.101116	-0.622791	1.287390	99
Es	1.927772	1.126341	-1.123457	99
Es	0.355622	-0.962643	-0.798265	99
Es	0.548947	1.222255	-0.771418	99
Es	0.551178	1.508533	-1.262777	99
Es	0.575449	0.015725	-0.126572	99
Es	0.549151	1.725821	-1.182762	99
Es	-1.569486	-0.995515	1.401937	99
Es	1.112636	1.436927	-1.337332	99
Es	0.886044	0.712108	-0.119540	99
Es	0.659387	-1.069683	0.353611	99
Es	-1.161190	-0.616552	0.234341	99
Es	-2.954995	-0.822061	1.471401	99
Es	0.869614	1.038062	0.540031	99
Es	-2.944446	-0.934016	1.440492	99
Es	-1.622177	-0.352908	-0.271132	99
41
Properties=species:S:1:pos:R:3:Z:I:1 energy=-359.7320985325912 field_type=dipole dipole="0.000000 0.000000 0.000000" charge=0
O	-2.955461	-0.822420	1.470849	8
N	-1.569101	-0.995740	1.402389	7
C	-1.161251	-0.616550	0.234359	6
C	0.296409	-0.659550	-0.126771	6
C	0.886119	0.711970	-0.119271	6
C	1.928079	1.126270	-1.123441	6
O	0.550919	1.508950	-1.262881	8
H	-3.158031	-1.096380	2.384619	1
H	-1.855001	-0.218440	-0.527221	1
H	0.380669	-1.125310	-1.114861	1
H	0.831949	-1.289990	0.590799	1
H	0.877509	1.183900	0.855229	1
H	2.314659	0.392910	-1.820131	1
H	2.632539	1.900380	-0.843671	1
Es	0.869445	1.038026	0.540103	99
Es	0.547591	1.221189	-0.771665	99
Es	-1.161190	-0.616550	0.234342	99
Es	-1.429561	-1.095542	0.785053	99
Es	0.659374	-1.069620	0.353392	99
Es	-2.346400	-0.886873	1.433462	99
Es	-1.569439	-0.995507	1.401906	99
Es	-3.080697	-0.977599	1.966267	99
Es	-1.622100	-0.352907	-0.270758	99
Es	1.111977	1.437368	-1.340613	99
Es	0.356044	-0.961963	-0.798729	99
Es	0.575143	0.015090	-0.126183	99
Es	0.296348	-0.659517	-0.126755	99
Es	0.551301	1.507840	-1.262908	99
Es	-0.438690	-0.634696	0.064712	99
Es	-3.099599	-0.620755	1.289884	99
Es	1.580346	0.788455	-0.492945	99
Es	0.886047	0.712104	-0.119543	99
Es	0.557606	1.712370	-1.178964	99
Es	-2.945149	-0.934293	1.439534	99
Es	2.187379	0.636868	-1.608483	99
Es	1.927775	1.126340	-1.123453	99
Es	2.397117	1.655900	-0.945404	99
Es	-1.387180	-1.139510	1.701700	99
Es	0.405146	1.381777	-1.451894	99
Es	-1.350159	-0.559992	0.989390	99
Es	-2.955206	-0.823049	1.471042	99
41
Properties=species:S:1:pos:R:3:Z:I:1 energy=-359.7320985325912 field_type=dipole dipole="0.000000 0.000000 0.000000" charge=0
O	-2.955461	-0.822420	1.470849	8
N	-1.569101	-0.995740	1.402389	7
C	-1.161251	-0.616550	0.234359	6
C	0.296409	-0.659550	-0.126771	6
C	0.886119	0.711970	-0.119271	6
C	1.928079	1.126270	-1.123441	6
O	0.550919	1.508950	-1.262881	8
H	-3.158031	-1.096380	2.384619	1
H	-1.855001	-0.218440	-0.527221	1
H	0.380669	-1.125310	-1.114861	1
H	0.831949	-1.289990	0.590799	1
H	0.877509	1.183900	0.855229	1
H	2.314659	0.392910	-1.820131	1
H	2.632539	1.900380	-0.843671	1
Es	-2.937912	-0.910103	1.454568	99
Es	0.412770	1.373749	-1.446831	99
Es	-1.569458	-0.995504	1.401904	99
Es	0.552320	1.718323	-1.181116	99
Es	-3.081430	-0.980332	1.965058	99
Es	0.886041	0.712105	-0.119545	99
Es	2.396408	1.655638	-0.945498	99
Es	0.869261	1.037955	0.540128	99
Es	-1.387229	-1.140104	1.701021	99
Es	-1.161190	-0.616550	0.234343	99
Es	1.580280	0.788530	-0.492718	99
Es	0.296351	-0.659517	-0.126754	99
Es	-3.107900	-0.641706	1.275782	99
Es	0.575035	0.014749	-0.125979	99
Es	2.187774	0.637285	-1.608748	99
Es	-2.346412	-0.887609	1.433098	99
Es	0.551084	1.508795	-1.262762	99
Es	-2.953234	-0.822976	1.472222	99
Es	0.659237	-1.069542	0.353187	99
Es	1.111217	1.439189	-1.343109	99
Es	-0.438771	-0.634481	0.064594	99
Es	-1.350061	-0.559834	0.989215	99
Es	0.356346	-0.961602	-0.798957	99
Es	0.546777	1.220253	-0.772027	99
Es	1.927773	1.126341	-1.123456	99
Es	-1.621956	-0.352618	-0.270286	99
Es	-1.429852	-1.095480	0.785156	99
41
Properties=species:S:1:pos:R:3:Z:I:1 energy=-359.7320985325912 field_type=dipole dipole="0.000000 0.000000 0.000000" charge=0
O	-2.955461	-0.822420	1.470849	8
N	-1.569101	-0.995740	1.402389	7
C	-1.161251	-0.616550	0.234359	6
C	0.296409	-0.659550	-0.126771	6
C	0.886119	0.711970	-0.119271	6
C	1.928079	1.126270	-1.123441	6
O	0.550919	1.508950	-1.262881	8
H	-3.158031	-1.096380	2.384619	1
H	-1.855001	-0.218440	-0.527221	1
H	0.380669	-1.125310	-1.114861	1
H	0.831949	-1.289990	0.590799	1
H	0.877509	1.183900	0.855229	1
H	2.314659	0.392910	-1.820131	1
H	2.632539	1.900380	-0.843671	1
Es	0.886047	0.712106	-0.119540	99
Es	0.659462	-1.069368	0.352809	99
Es	-1.387139	-1.140773	1.700520	99
Es	0.551138	1.508793	-1.262712	99
Es	0.574217	0.013672	-0.125349	99
Es	1.580266	0.788601	-0.492660	99
Es	0.296350	-0.659513	-0.126754	99
Es	-2.954637	-0.822618	1.471412	99
Es	0.546045	1.220889	-0.771559	99
Es	-1.161191	-0.616554	0.234342	99
Es	0.554577	1.713266	-1.180738	99
Es	0.411960	1.376677	-1.446226	99
Es	-2.346515	-0.887370	1.433235	99
Es	-3.082043	-0.981460	1.964491	99
Es	2.187905	0.637674	-1.609033	99
Es	1.110875	1.440293	-1.344274	99
Es	0.869242	1.038016	0.540069	99
Es	-1.349849	-0.559866	0.989729	99
Es	-1.430265	-1.094619	0.784789	99
Es	-1.621944	-0.352584	-0.270131	99
Es	1.927769	1.126351	-1.123458	99
Es	-3.106695	-0.639887	1.277317	99
Es	0.356973	-0.960411	-0.799534	99
Es	2.395928	1.655453	-0.945631	99
Es	-1.569437	-0.995506	1.401907	99
Es	-0.438857	-0.634697	0.064865	99
Es	-2.936911	-0.911611	1.454605	99
41
Properties=species:S:1:pos:R:3:Z:I:1 energy=-359.7320985325912 field_type=dipole dipole="0.000000 0.000000 0.000000" charge=0
O	-2.955461	-0.822420	1.470849	8
N	-1.569101	-0.995740	1.402389	7
C	-1.161251	-0.616550	0.234359	6
C	0.296409	-0.659550	-0.126771	6
C	0.886119	0.711970	-0.119271	6
C	1.928079	1.126270	-1.123441	6
O	0.550919	1.508950	-1.262881	8
H	-3.158031	-1.096380	2.384619	1
H	-1.855001	-0.218440	-0.527221	1
H	0.380669	-1.125310	-1.114861	1
H	0.831949	-1.289990	0.590799	1
H	0.877509	1.183900	0.855229	1
H	2.314659	0.392910	-1.820131	1
H	2.632539	1.900380	-0.843671	1
Es	0.545637	1.220605	-0.771407	99
Es	-2.935859	-0.892572	1.462406	99
Es	0.869131	1.037909	0.540105	99
Es	2.188180	0.638101	-1.609162	99
Es	1.109555	1.441602	-1.347238	99
Es	-1.621895	-0.352358	-0.269895	99
Es	-2.951036	-0.826604	1.472558	99
Es	1.580369	0.788541	-0.492722	99
Es	-1.430207	-1.094544	0.785484	99
Es	0.417810	1.372118	-1.441098	99
Es	-0.438929	-0.634599	0.064858	99
Es	0.886043	0.712107	-0.119542	99
Es	-2.346732	-0.888268	1.432201	99
Es	0.296350	-0.659517	-0.126755	99
Es	2.395466	1.655193	-0.945602	99
Es	1.927775	1.126345	-1.123457	99
Es	-1.386872	-1.140992	1.700466	99
Es	0.357097	-0.960140	-0.799503	99
Es	-3.082293	-0.982882	1.963893	99
Es	0.551173	1.508577	-1.262760	99
Es	0.574018	0.013628	-0.125444	99
Es	0.550600	1.716872	-1.182813	99
Es	-1.350260	-0.560064	0.988778	99
Es	-1.161190	-0.616551	0.234342	99
Es	-3.110851	-0.652742	1.270110	99
Es	0.659635	-1.069304	0.352778	99
Es	-1.569445	-0.995507	1.401906	99
41
Properties=species:S:1:pos:R:3:Z:I:1 energy=-359.7320985325912 field_type=dipole dipole="0.000000 0.000000 0.000000" charge=0
O	-2.955461	-0.822420	1.470849	8
N	-1.569101	-0.995740	1.402389	7
C	-1.161251	-0.616550	0.234359	6
C	0.296409	-0.659550	-0.126771	6
C	0.886119	0.711970	-0.119271	6
C	1.928079	1.126270	-1.123441	6
O	0.550919	1.508950	-1.262881	8
H	-3.158031	-1.096380	2.384619	1
H	-1.855001	-0.218440	-0.527221	1
H	0.380669	-1.125310	-1.114861	1
H	0.831949	-1.289990	0.590799	1
H	0.877509	1.183900	0.855229	1
H	2.314659	0.392910	-1.820131	1
H	2.632539	1.900380	-0.843671	1
Es	-1.349860	-0.559811	0.989589	99
Es	-1.161189	-0.616545	0.234345	99
Es	1.580229	0.788719	-0.492696	99
Es	0.573589	0.012857	-0.125082	99
Es	0.544972	1.219876	-0.771749	99
Es	-2.940003	-0.881853	1.462989	99
Es	0.296346	-0.659515	-0.126754	99
Es	-2.346956	-0.889138	1.431389	99
Es	0.551109	1.508740	-1.262757	99
Es	1.108999	1.441446	-1.349080	99
Es	-0.438910	-0.634456	0.064779	99
Es	1.927773	1.126341	-1.123456	99
Es	0.415587	1.377888	-1.440660	99
Es	-3.111133	-0.654026	1.269991	99
Es	-1.621827	-0.352457	-0.269699	99
Es	0.886041	0.712106	-0.119544	99
Es	2.188171	0.638266	-1.609312	99
Es	0.659607	-1.069264	0.352722	99
Es	2.395231	1.655172	-0.945767	99
Es	0.554567	1.711562	-1.180736	99
Es	-1.387063	-1.141598	1.700011	99
Es	-3.082518	-0.984927	1.963062	99
Es	-1.430577	-1.094138	0.784914	99
Es	0.357490	-0.959514	-0.799924	99
Es	-1.569416	-0.995512	1.401912	99
Es	0.869080	1.037908	0.540062	99
Es	-2.946069	-0.833173	1.473939	99
41
Properties=species:S:1:pos:R:3:Z:I:1 energy=-359.7320985325912 field_type=dipole dipole="0.000000 0.000000 0.000000" charge=0
O	-2.955461	-0.822420	1.470849	8
N	-1.569101	-0.995740	1.402389	7
C	-1.161251	-0.616550	0.234359	6
C	0.296409	-0.659550	-0.126771	6
C	0.886119	0.711970	-0.119271	6
C	1.928079	1.126270	-1.123441	6
O	0.550919	1.508950	-1.262881	8
H	-3.158031	-1.096380	2.384619	1
H	-1.855001	-0.218440	-0.527221	1
H	0.380669	-1.125310	-1.114861	1
H	0.831949	-1.289990	0.590799	1
H	0.877509	1.183900	0.855229	1
H	2.314659	0.392910	-1.820131	1
H	2.632539	1.900380	-0.843671	1
Es	0.572747	0.011593	-0.124640	99
Es	-1.161189	-0.616545	0.234344	99
Es	-3.082542	-0.984414	1.963273	99
Es	-1.569440	-0.995507	1.401904	99
Es	0.551213	1.508310	-1.262824	99
Es	0.414876	1.379555	-1.440985	99
Es	0.659846	-1.069089	0.352516	99
Es	0.296348	-0.659516	-0.126755	99
Es	-0.438983	-0.634520	0.064994	99
Es	-2.955091	-0.822167	1.471312	99
Es	2.394583	1.654828	-0.945639	99
Es	0.868963	1.037803	0.540174	99
Es	-2.934264	-0.905141	1.458733	99
Es	1.108816	1.444426	-1.348823	99
Es	-1.386786	-1.141732	1.699660	99
Es	-1.349907	-0.560124	0.989604	99
Es	-2.346734	-0.886634	1.432612	99
Es	0.556126	1.705909	-1.180977	99
Es	-1.430816	-1.093542	0.784811	99
Es	0.544305	1.221087	-0.771243	99
Es	-3.107949	-0.645025	1.275878	99
Es	1.580357	0.788603	-0.492651	99
Es	2.188609	0.638821	-1.609654	99
Es	-1.621882	-0.352381	-0.269588	99
Es	1.927772	1.126345	-1.123459	99
Es	0.886044	0.712106	-0.119543	99
Es	0.358249	-0.958096	-0.800542	99
41
Properties=species:S:1:pos:R:3:Z:I:1 energy=-359.7320985325912 field_type=dipole dipole="0.000000 0.000000 0.000000" charge=0
O	-2.955461	-0.822420	1.470849	8
N	-1.569101	-0.995740	1.402389	7
C	-1.161251	-0.616550	0.234359	6
C	0.296409	-0.659550	-0.126771	6
C	0.886119	0.711970	-0.119271	6
C	1.928079	1.126270	-1.123441	6
O	0.550919	1.508950	-1.262881	8
H	-3.158031	-1.096380	2.384619	1
H	-1.855001	-0.218440	-0.527221	1
H	0.380669	-1.125310	-1.114861	1
H	0.831949	-1.289990	0.590799	1
H	0.877509	1.183900	0.855229	1
H	2.314659	0.392910	-1.820131	1
H	2.632539	1.900380	-0.843671	1
Es	-1.386873	-1.141980	1.699605	99
Es	0.557613	1.704923	-1.179980	99
Es	-0.438951	-0.634453	0.064842	99
Es	0.886043	0.712106	-0.119543	99
Es	1.580042	0.788863	-0.492727	99
Es	0.358099	-0.958202	-0.800449	99
Es	-1.621793	-0.352126	-0.269275	99
Es	0.572894	0.011774	-0.124603	99
Es	2.394261	1.654671	-0.945688	99
Es	1.927777	1.126345	-1.123456	99
Es	0.659778	-1.069211	0.352451	99
Es	-1.161189	-0.616542	0.234346	99
Es	-3.082848	-0.985243	1.962842	99
Es	0.415608	1.382765	-1.438775	99
Es	0.868929	1.037858	0.540085	99
Es	-3.111415	-0.656679	1.269198	99
Es	-2.346935	-0.887963	1.431696	99
Es	-2.934126	-0.889685	1.464683	99
Es	2.188784	0.639014	-1.609755	99
Es	0.543292	1.219768	-0.771886	99
Es	1.108131	1.443004	-1.351216	99
Es	0.296348	-0.659516	-0.126754	99
Es	-1.569462	-0.995505	1.401904	99
Es	0.551193	1.508637	-1.262724	99
Es	-1.430632	-1.093910	0.785544	99
Es	-1.350078	-0.559955	0.988786	99
Es	-2.951221	-0.823802	1.473335	99
41
Properties=species:S:1:pos:R:3:Z:I:1 energy=-359.7320985325912 field_type=dipole dipole="0.000000 0.000000 0.000000" charge=0
O	-2.955461	-0.822420	1.470849	8
N	-1.569101	-0.995740	1.402389	7
C	-1.161251	-0.616550	0.234359	6
C	0.296409	-0.659550	-0.126771	6
C	0.886119	0.711970	-0.119271	6
C	1.928079	1.126270	-1.123441	6
O	0.550919	1.508950	-1.262881	8
H	-3.158031	-1.096380	2.384619	1
H	-1.855001	-0.218440	-0.527221	1
H	0.380669	-1.125310	-1.114861	1
H	0.831949	-1.289990	0.590799	1
H	0.877509	1.183900	0.855229	1
H	2.314659	0.392910	-1.820131	1
H	2.632539	1.900380	-0.843671	1
Es	0.551141	1.508698	-1.262746	99
Es	0.358275	-0.957953	-0.800642	99
Es	-1.621748	-0.352177	-0.269160	99
Es	-1.161189	-0.616548	0.234343	99
Es	-1.386892	-1.142033	1.699226	99
Es	-1.569451	-0.995505	1.401903	99
Es	-2.939719	-0.873920	1.465979	99
Es	1.580036	0.788762	-0.492736	99
Es	0.868840	1.037796	0.540169	99
Es	0.659777	-1.069102	0.352395	99
Es	0.886042	0.712107	-0.119542	99
Es	2.394151	1.654694	-0.945727	99
Es	0.572736	0.011563	-0.124555	99
Es	-1.350002	-0.559863	0.988988	99
Es	0.560344	1.699860	-1.178901	99
Es	1.927769	1.126349	-1.123463	99
Es	-0.438960	-0.634430	0.064833	99
Es	0.296349	-0.659517	-0.126755	99
Es	0.413949	1.386864	-1.438306	99
Es	1.107261	1.444029	-1.352593	99
Es	-2.347001	-0.888647	1.431474	99
Es	-3.083009	-0.986297	1.962373	99
Es	-3.110509	-0.653782	1.271034	99
Es	2.188830	0.639112	-1.609809	99
Es	0.543253	1.219558	-0.771932	99
Es	-2.946204	-0.840834	1.471283	99
Es	-1.430799	-1.093826	0.785354	99
41
Properties=species:S:1:pos:R:3:Z:I:1 energy=-359.7320985325912 field_type=dipole dipole="0.000000 0.000000 0.000000" charge=0
O	-2.955461	-0.822420	1.470849	8
N	-1.569101	-0.995740	1.402389	7
C	-1.161251	-0.616550	0.234359	6
C	0.296409	-0.659550	-0.126771	6
C	0.886119	0.711970	-0.119271	6
C	1.928079	1.126270	-1.123441	6
O	0.550919	1.508950	-1.262881	8
H	-3.158031	-1.096380	2.384619	1
H	-1.855001	-0.218440	-0.527221	1
H	0.380669	-1.125310	-1.114861	1
H	0.831949	-1.289990	0.590799	1
H	0.877509	1.183900	0.855229	1
H	2.314659	0.392910	-1.820131	1
H	2.632539	1.900380	-0.843671	1
Es	2.188859	0.639258	-1.609971	99
Es	0.296347	-0.659514	-0.126755	99
Es	-3.082781	-0.985090	1.962981	99
Es	-2.954040	-0.822782	1.471762	99
Es	0.551161	1.508624	-1.262752	99
Es	-0.439010	-0.634555	0.064850	99
Es	1.927776	1.126343	-1.123462	99
Es	-1.349802	-0.559671	0.989375	99
Es	0.572290	0.010857	-0.124121	99
Es	2.393883	1.654640	-0.945870	99
Es	-1.569436	-0.995506	1.401904	99
Es	-2.347055	-0.888717	1.431613	99
Es	-2.933934	-0.898853	1.461512	99
Es	0.543109	1.219525	-0.772072	99
Es	-1.161189	-0.616541	0.234347	99
Es	0.358802	-0.957197	-0.800941	99
Es	-1.387056	-1.142207	1.698707	99
Es	0.410097	1.394467	-1.439230	99
Es	-1.430938	-1.093661	0.785135	99
Es	0.886042	0.712106	-0.119541	99
Es	-3.108571	-0.648231	1.274615	99
Es	0.659668	-1.068946	0.352098	99
Es	0.564941	1.690443	-1.177611	99
Es	1.579933	0.788862	-0.492443	99
Es	-1.621700	-0.352290	-0.268981	99
Es	0.868787	1.037851	0.540112	99
Es	1.107088	1.445741	-1.352773	99
