45
Properties=species:S:1:pos:R:3:Z:I:1 energy=-629.4790676527838 field_type=dipole dipole="0.000000 0.000000 0.000000" charge=0
C	-2.694809	0.371529	-0.013369	6
C	-1.207299	0.294259	-0.005969	6
C	-0.293259	1.326649	-0.001039	6
C	1.051180	0.855349	0.005631	6
C	1.122481	-0.522381	0.005491	6
C	2.344541	-1.375631	0.011371	6
S	-0.433569	-1.231281	-0.003259	16
H	-3.032419	1.413319	-0.004639	1
H	-3.114429	-0.123281	0.868771	1
H	-3.104089	-0.105331	-0.910109	1
H	-0.572629	2.373379	-0.002019	1
H	1.923241	1.498219	0.010401	1
H	2.109181	-2.444681	0.021451	1
H	2.952231	-1.157221	0.895661	1
H	2.949650	-1.172891	-0.878379	1
Es	-0.293243	1.326678	-0.001045	99
Es	-0.708237	0.797590	-0.317693	99
Es	-0.478423	-1.380570	-0.428377	99
Es	0.394886	1.134778	0.002070	99
Es	2.744880	-1.232575	-0.587692	99
Es	1.640812	1.291700	0.008798	99
Es	1.044754	0.191166	-0.307695	99
Es	-1.940972	0.323434	-0.009429	99
Es	1.040759	0.191023	0.318861	99
Es	-0.483814	-1.383804	0.420755	99
Es	-0.322877	-1.220084	0.038734	99
Es	-0.711028	0.797150	0.311203	99
Es	-0.433898	-1.208814	-0.120289	99
Es	-2.968278	0.033615	0.580610	99
Es	-2.913767	1.076900	-0.007576	99
Es	1.051187	0.855376	0.005626	99
Es	-1.207324	0.294060	-0.005972	99
Es	-2.961030	0.045946	-0.617018	99
Es	2.174265	-2.095810	0.018143	99
Es	2.746803	-1.221925	0.606503	99
Es	1.715670	-0.956316	0.008550	99
Es	-0.480997	2.035208	-0.001733	99
Es	1.122377	-0.522554	0.005502	99
Es	-2.694740	0.371523	-0.013369	99
Es	-0.480030	-1.340452	0.023025	99
Es	-0.862204	-0.456484	-0.004701	99
Es	2.344476	-1.375596	0.011370	99
Es	0.383578	-0.891480	0.001495	99
Es	-0.495789	-1.152341	0.045198	99
Es	-0.434006	-1.231811	-0.003082	99
45
Properties=species:S:1:pos:R:3:Z:I:1 energy=-629.4790676527838 field_type=dipole dipole="0.000000 0.000000 0.000000" charge=0
C	-2.694809	0.371529	-0.013369	6
C	-1.207299	0.294259	-0.005969	6
C	-0.293259	1.326649	-0.001039	6
C	1.051180	0.855349	0.005631	6
C	1.122481	-0.522381	0.005491	6
C	2.344541	-1.375631	0.011371	6
S	-0.433569	-1.231281	-0.003259	16
H	-3.032419	1.413319	-0.004639	1
H	-3.114429	-0.123281	0.868771	1
H	-3.104089	-0.105331	-0.910109	1
H	-0.572629	2.373379	-0.002019	1
H	1.923241	1.498219	0.010401	1
H	2.109181	-2.444681	0.021451	1
H	2.952231	-1.157221	0.895661	1
H	2.949650	-1.172891	-0.878379	1
Es	-0.708636	0.797250	-0.314573	99
Es	-1.940419	0.322918	-0.009631	99
Es	-0.336311	-1.162874	-0.039735	99
Es	1.045073	0.191843	-0.304357	99
Es	-2.915316	1.078641	-0.007661	99
Es	0.394287	1.132984	0.000793	99
Es	-2.960567	0.045683	-0.614959	99
Es	-0.872724	-0.456045	-0.012782	99
Es	-0.481499	2.036363	-0.002140	99
Es	2.344476	-1.375594	0.011371	99
Es	-0.710773	0.796288	0.309132	99
Es	-2.967781	0.033147	0.578911	99
Es	-0.535571	-1.171735	-0.016653	99
Es	1.642150	1.292343	0.008441	99
Es	2.174608	-2.099252	0.018315	99
Es	-0.438109	-1.343317	-0.055952	99
Es	-0.423862	-1.245428	0.097756	99
Es	-0.361026	-1.049329	0.041540	99
Es	0.392481	-0.897788	-0.006449	99
Es	-0.599517	-1.709362	-0.031290	99
Es	2.746188	-1.221133	0.603746	99
Es	-0.433560	-1.231100	-0.003710	99
Es	-1.207325	0.294060	-0.005963	99
Es	-0.293242	1.326682	-0.001042	99
Es	1.051188	0.855381	0.005633	99
Es	-2.694739	0.371522	-0.013367	99
Es	2.744503	-1.231694	-0.585160	99
Es	1.122374	-0.522563	0.005496	99
Es	1.040890	0.191538	0.316237	99
Es	1.716550	-0.953899	0.008827	99
45
Properties=species:S:1:pos:R:3:Z:I:1 energy=-629.4790676527838 field_type=dipole dipole="0.000000 0.000000 0.000000" charge=0
C	-2.694809	0.371529	-0.013369	6
C	-1.207299	0.294259	-0.005969	6
C	-0.293259	1.326649	-0.001039	6
C	1.051180	0.855349	0.005631	6
C	1.122481	-0.522381	0.005491	6
C	2.344541	-1.375631	0.011371	6
S	-0.433569	-1.231281	-0.003259	16
H	-3.032419	1.413319	-0.004639	1
H	-3.114429	-0.123281	0.868771	1
H	-3.104089	-0.105331	-0.910109	1
H	-0.572629	2.373379	-0.002019	1
H	1.923241	1.498219	0.010401	1
H	2.109181	-2.444681	0.021451	1
H	2.952231	-1.157221	0.895661	1
H	2.949650	-1.172891	-0.878379	1
Es	-0.293242	1.326680	-0.001044	99
Es	0.391825	-0.897524	0.000892	99
Es	1.040500	0.192965	0.313724	99
Es	1.642962	1.292769	0.008814	99
Es	-1.207324	0.294053	-0.005969	99
Es	-0.481849	2.036938	-0.001654	99
Es	-0.433472	-1.231279	-0.003198	99
Es	-0.515865	-1.199209	0.070344	99
Es	-2.960281	0.045531	-0.613674	99
Es	-0.406501	-1.356090	0.004368	99
Es	1.717155	-0.952211	0.008471	99
Es	-2.694740	0.371523	-0.013369	99
Es	1.122376	-0.522559	0.005490	99
Es	-0.600209	-1.710598	-0.006511	99
Es	-2.967500	0.033146	0.577375	99
Es	-0.710269	0.796167	0.306872	99
Es	0.394037	1.131675	0.002254	99
Es	2.743804	-1.231434	-0.582989	99
Es	-1.939986	0.322314	-0.009737	99
Es	2.746096	-1.220764	0.602095	99
Es	-0.871995	-0.456331	-0.006193	99
Es	1.051189	0.855382	0.005631	99
Es	2.344478	-1.375595	0.011371	99
Es	-0.474585	-1.218522	-0.086826	99
Es	2.174958	-2.101194	0.018000	99
Es	-2.916313	1.079703	-0.007588	99
Es	-0.337158	-1.149479	-0.001036	99
Es	-0.707464	0.796585	-0.313332	99
Es	1.044822	0.192712	-0.302819	99
Es	-0.361656	-1.049826	0.001010	99
45
Properties=species:S:1:pos:R:3:Z:I:1 energy=-629.4790676527838 field_type=dipole dipole="0.000000 0.000000 0.000000" charge=0
C	-2.694809	0.371529	-0.013369	6
C	-1.207299	0.294259	-0.005969	6
C	-0.293259	1.326649	-0.001039	6
C	1.051180	0.855349	0.005631	6
C	1.122481	-0.522381	0.005491	6
C	2.344541	-1.375631	0.011371	6
S	-0.433569	-1.231281	-0.003259	16
H	-3.032419	1.413319	-0.004639	1
H	-3.114429	-0.123281	0.868771	1
H	-3.104089	-0.105331	-0.910109	1
H	-0.572629	2.373379	-0.002019	1
H	1.923241	1.498219	0.010401	1
H	2.109181	-2.444681	0.021451	1
H	2.952231	-1.157221	0.895661	1
H	2.949650	-1.172891	-0.878379	1
Es	-2.694740	0.371521	-0.013367	99
Es	-0.871122	-0.456424	-0.004603	99
Es	-2.967248	0.033129	0.576469	99
Es	-0.434890	-1.231959	-0.014853	99
Es	-0.709327	0.795890	0.305792	99
Es	1.043415	0.194256	-0.301852	99
Es	-2.916980	1.080267	-0.007526	99
Es	2.344478	-1.375595	0.011370	99
Es	0.391232	-0.897542	0.001553	99
Es	-0.707095	0.796392	-0.312341	99
Es	2.743365	-1.231248	-0.581586	99
Es	2.745839	-1.220478	0.600957	99
Es	-0.388084	-1.105886	-0.013655	99
Es	1.643421	1.292958	0.009077	99
Es	-0.433553	-1.231258	-0.003280	99
Es	-2.960112	0.045479	-0.612826	99
Es	-1.207327	0.294054	-0.005967	99
Es	1.051189	0.855383	0.005633	99
Es	-0.354810	-1.328179	-0.000758	99
Es	-0.601023	-1.710828	-0.005960	99
Es	2.175308	-2.102404	0.017889	99
Es	0.393647	1.130780	0.002413	99
Es	-0.293242	1.326680	-0.001036	99
Es	-0.555822	-1.257234	0.014402	99
Es	1.122376	-0.522558	0.005494	99
Es	-0.362420	-1.050927	0.000016	99
Es	-1.939765	0.321923	-0.009739	99
Es	1.717487	-0.951128	0.008311	99
Es	1.041438	0.193055	0.312319	99
Es	-0.481846	2.037409	-0.001574	99
45
Properties=species:S:1:pos:R:3:Z:I:1 energy=-629.4790676527838 field_type=dipole dipole="0.000000 0.000000 0.000000" charge=0
C	-2.694809	0.371529	-0.013369	6
C	-1.207299	0.294259	-0.005969	6
C	-0.293259	1.326649	-0.001039	6
C	1.051180	0.855349	0.005631	6
C	1.122481	-0.522381	0.005491	6
C	2.344541	-1.375631	0.011371	6
S	-0.433569	-1.231281	-0.003259	16
H	-3.032419	1.413319	-0.004639	1
H	-3.114429	-0.123281	0.868771	1
H	-3.104089	-0.105331	-0.910109	1
H	-0.572629	2.373379	-0.002019	1
H	1.923241	1.498219	0.010401	1
H	2.109181	-2.444681	0.021451	1
H	2.952231	-1.157221	0.895661	1
H	2.949650	-1.172891	-0.878379	1
Es	1.643879	1.292914	0.008980	99
Es	2.742799	-1.231550	-0.580230	99
Es	0.393411	1.129986	0.002336	99
Es	-1.207326	0.294053	-0.005978	99
Es	-2.917970	1.080750	-0.007571	99
Es	-2.967568	0.032771	0.575085	99
Es	-1.939396	0.321523	-0.009517	99
Es	-0.446149	-1.224111	-0.012301	99
Es	0.390903	-0.897408	0.001210	99
Es	-0.600857	-1.710915	-0.002620	99
Es	-0.482474	2.037607	-0.001607	99
Es	2.176019	-2.103185	0.017993	99
Es	1.040852	0.193435	0.310558	99
Es	-0.368483	-1.111873	0.017634	99
Es	-0.498629	-1.349835	0.009361	99
Es	1.051188	0.855382	0.005633	99
Es	-0.870810	-0.456534	-0.005017	99
Es	-0.706968	0.796539	-0.310319	99
Es	2.344481	-1.375597	0.011371	99
Es	1.122375	-0.522561	0.005492	99
Es	-2.694739	0.371522	-0.013368	99
Es	-0.424154	-1.235926	-0.022933	99
Es	1.044115	0.193625	-0.299775	99
Es	-0.429851	-1.233040	-0.007962	99
Es	-0.709535	0.796036	0.303881	99
Es	-2.959491	0.046135	-0.611479	99
Es	-0.293241	1.326681	-0.001039	99
Es	2.745925	-1.220539	0.599436	99
Es	1.717793	-0.949898	0.008148	99
Es	-0.362309	-1.050459	-0.004630	99
45
Properties=species:S:1:pos:R:3:Z:I:1 energy=-629.4790676527838 field_type=dipole dipole="0.000000 0.000000 0.000000" charge=0
C	-2.694809	0.371529	-0.013369	6
C	-1.207299	0.294259	-0.005969	6
C	-0.293259	1.326649	-0.001039	6
C	1.051180	0.855349	0.005631	6
C	1.122481	-0.522381	0.005491	6
C	2.344541	-1.375631	0.011371	6
S	-0.433569	-1.231281	-0.003259	16
H	-3.032419	1.413319	-0.004639	1
H	-3.114429	-0.123281	0.868771	1
H	-3.104089	-0.105331	-0.910109	1
H	-0.572629	2.373379	-0.002019	1
H	1.923241	1.498219	0.010401	1
H	2.109181	-2.444681	0.021451	1
H	2.952231	-1.157221	0.895661	1
H	2.949650	-1.172891	-0.878379	1
Es	-0.708341	0.795222	0.303872	99
Es	-0.363518	-1.051827	-0.000926	99
Es	-0.482088	2.038024	-0.001733	99
Es	-0.433347	-1.231867	0.010643	99
Es	-1.939348	0.321177	-0.009650	99
Es	1.718232	-0.948922	0.008220	99
Es	1.051189	0.855384	0.005632	99
Es	-0.331780	-1.147727	-0.007225	99
Es	1.644132	1.293360	0.008868	99
Es	1.040531	0.194813	0.310135	99
Es	-2.918186	1.081192	-0.007660	99
Es	-0.706303	0.795779	-0.310223	99
Es	0.390389	-0.897316	0.001002	99
Es	-2.694740	0.371523	-0.013368	99
Es	2.344479	-1.375595	0.011373	99
Es	-0.433604	-1.231247	-0.003233	99
Es	2.742673	-1.231189	-0.579061	99
Es	-1.207326	0.294050	-0.005962	99
Es	-0.601161	-1.711336	-0.004291	99
Es	-0.870140	-0.456836	-0.005157	99
Es	2.745279	-1.220447	0.598547	99
Es	0.393150	1.129138	0.002106	99
Es	1.122375	-0.522561	0.005488	99
Es	-2.967132	0.033048	0.574747	99
Es	-0.546441	-1.182820	-0.003697	99
Es	1.043909	0.195149	-0.299298	99
Es	-2.959571	0.045753	-0.610969	99
Es	2.176000	-2.104185	0.017815	99
Es	-0.422280	-1.360891	-0.014185	99
Es	-0.293242	1.326682	-0.001037	99
45
Properties=species:S:1:pos:R:3:Z:I:1 energy=-629.4790676527838 field_type=dipole dipole="0.000000 0.000000 0.000000" charge=0
C	-2.694809	0.371529	-0.013369	6
C	-1.207299	0.294259	-0.005969	6
C	-0.293259	1.326649	-0.001039	6
C	1.051180	0.855349	0.005631	6
C	1.122481	-0.522381	0.005491	6
C	2.344541	-1.375631	0.011371	6
S	-0.433569	-1.231281	-0.003259	16
H	-3.032419	1.413319	-0.004639	1
H	-3.114429	-0.123281	0.868771	1
H	-3.104089	-0.105331	-0.910109	1
H	-0.572629	2.373379	-0.002019	1
H	1.923241	1.498219	0.010401	1
H	2.109181	-2.444681	0.021451	1
H	2.952231	-1.157221	0.895661	1
H	2.949650	-1.172891	-0.878379	1
Es	1.051189	0.855384	0.005639	99
Es	-0.557403	-1.263577	0.000737	99
Es	1.122376	-0.522561	0.005495	99
Es	1.644400	1.293426	0.008902	99
Es	-0.431363	-1.232230	0.018738	99
Es	-0.385377	-1.097735	-0.019189	99
Es	0.390012	-0.897143	0.001175	99
Es	-0.601522	-1.711342	-0.005708	99
Es	-2.694739	0.371520	-0.013366	99
Es	-1.207326	0.294051	-0.005968	99
Es	2.176254	-2.104843	0.017705	99
Es	-1.939147	0.320767	-0.009678	99
Es	-2.967571	0.032307	0.573871	99
Es	-0.482195	2.038295	-0.001606	99
Es	-0.869706	-0.456977	-0.005970	99
Es	-0.366583	-1.059863	0.009008	99
Es	-2.918727	1.081567	-0.007610	99
Es	2.745786	-1.220228	0.597493	99
Es	-0.433209	-1.231594	-0.002624	99
Es	2.741582	-1.231604	-0.577775	99
Es	-0.293242	1.326683	-0.001044	99
Es	2.344478	-1.375593	0.011371	99
Es	1.718697	-0.947939	0.008070	99
Es	0.392867	1.128480	0.002021	99
Es	-0.708046	0.794986	0.302937	99
Es	-0.357104	-1.322072	-0.023276	99
Es	-0.705947	0.795632	-0.309382	99
Es	-2.958783	0.046623	-0.610145	99
Es	1.043690	0.195804	-0.298215	99
Es	1.040448	0.195305	0.309164	99
45
Properties=species:S:1:pos:R:3:Z:I:1 energy=-629.4790676527838 field_type=dipole dipole="0.000000 0.000000 0.000000" charge=0
C	-2.694809	0.371529	-0.013369	6
C	-1.207299	0.294259	-0.005969	6
C	-0.293259	1.326649	-0.001039	6
C	1.051180	0.855349	0.005631	6
C	1.122481	-0.522381	0.005491	6
C	2.344541	-1.375631	0.011371	6
S	-0.433569	-1.231281	-0.003259	16
H	-3.032419	1.413319	-0.004639	1
H	-3.114429	-0.123281	0.868771	1
H	-3.104089	-0.105331	-0.910109	1
H	-0.572629	2.373379	-0.002019	1
H	1.923241	1.498219	0.010401	1
H	2.109181	-2.444681	0.021451	1
H	2.952231	-1.157221	0.895661	1
H	2.949650	-1.172891	-0.878379	1
Es	-0.707169	0.795681	-0.308697	99
Es	-0.293242	1.326682	-0.001035	99
Es	-1.207326	0.294051	-0.005970	99
Es	1.718933	-0.947195	0.008095	99
Es	1.041077	0.195699	0.308281	99
Es	2.741836	-1.231422	-0.577182	99
Es	1.122375	-0.522562	0.005497	99
Es	-2.694742	0.371521	-0.013369	99
Es	0.389824	-0.897166	0.001158	99
Es	-0.706354	0.794149	0.302441	99
Es	-2.919062	1.081805	-0.007644	99
Es	2.344479	-1.375595	0.011371	99
Es	-0.556640	-1.231411	-0.002776	99
Es	2.176468	-2.105279	0.017825	99
Es	-0.601512	-1.711555	-0.004841	99
Es	-1.938984	0.320502	-0.009834	99
Es	-0.433442	-1.231014	-0.004688	99
Es	1.644600	1.293575	0.008923	99
Es	0.392705	1.127939	0.002226	99
Es	1.043252	0.196469	-0.297596	99
Es	-0.482230	2.038427	-0.001552	99
Es	-0.869402	-0.457125	-0.004274	99
Es	-0.433509	-1.231169	-0.000685	99
Es	1.051189	0.855385	0.005631	99
Es	2.745081	-1.220484	0.596620	99
Es	-2.958968	0.046448	-0.609470	99
Es	-0.365961	-1.115589	-0.003836	99
Es	-0.377805	-1.345542	-0.003627	99
Es	-2.967214	0.032650	0.573413	99
Es	-0.364463	-1.052346	-0.003637	99
45
Properties=species:S:1:pos:R:3:Z:I:1 energy=-629.4790676527838 field_type=dipole dipole="0.000000 0.000000 0.000000" charge=0
C	-2.694809	0.371529	-0.013369	6
C	-1.207299	0.294259	-0.005969	6
C	-0.293259	1.326649	-0.001039	6
C	1.051180	0.855349	0.005631	6
C	1.122481	-0.522381	0.005491	6
C	2.344541	-1.375631	0.011371	6
S	-0.433569	-1.231281	-0.003259	16
H	-3.032419	1.413319	-0.004639	1
H	-3.114429	-0.123281	0.868771	1
H	-3.104089	-0.105331	-0.910109	1
H	-0.572629	2.373379	-0.002019	1
H	1.923241	1.498219	0.010401	1
H	2.109181	-2.444681	0.021451	1
H	2.952231	-1.157221	0.895661	1
H	2.949650	-1.172891	-0.878379	1
Es	-1.207326	0.294051	-0.005975	99
Es	-0.705222	0.794932	-0.308310	99
Es	-2.919466	1.082060	-0.007725	99
Es	-2.694740	0.371522	-0.013369	99
Es	-0.433779	-1.231509	-0.003230	99
Es	0.392563	1.127435	0.002282	99
Es	-0.337149	-1.140085	-0.000046	99
Es	-0.707797	0.794422	0.301788	99
Es	-0.293242	1.326682	-0.001037	99
Es	-0.414370	-1.359304	-0.008659	99
Es	2.745386	-1.220385	0.595725	99
Es	-0.364826	-1.052589	-0.002735	99
Es	-2.967541	0.032153	0.572798	99
Es	1.719201	-0.946387	0.008191	99
Es	0.389610	-0.897106	0.001299	99
Es	2.344478	-1.375595	0.011371	99
Es	-0.433622	-1.231103	-0.006269	99
Es	2.741015	-1.231751	-0.576212	99
Es	-0.869231	-0.457230	-0.004673	99
Es	1.041217	0.195918	0.307528	99
Es	-2.958363	0.047081	-0.608743	99
Es	-0.601388	-1.711709	-0.004738	99
Es	1.122376	-0.522561	0.005488	99
Es	1.644795	1.293621	0.008999	99
Es	-1.938882	0.320210	-0.009798	99
Es	2.176797	-2.105708	0.017788	99
Es	-0.548580	-1.192689	0.001937	99
Es	1.051189	0.855384	0.005633	99
Es	1.042941	0.197167	-0.296897	99
Es	-0.482254	2.038602	-0.001639	99
45
Properties=species:S:1:pos:R:3:Z:I:1 energy=-629.4790676527838 field_type=dipole dipole="0.000000 0.000000 0.000000" charge=0
C	-2.694809	0.371529	-0.013369	6
C	-1.207299	0.294259	-0.005969	6
C	-0.293259	1.326649	-0.001039	6
C	1.051180	0.855349	0.005631	6
C	1.122481	-0.522381	0.005491	6
C	2.344541	-1.375631	0.011371	6
S	-0.433569	-1.231281	-0.003259	16
H	-3.032419	1.413319	-0.004639	1
H	-3.114429	-0.123281	0.868771	1
H	-3.104089	-0.105331	-0.910109	1
H	-0.572629	2.373379	-0.002019	1
H	1.923241	1.498219	0.010401	1
H	2.109181	-2.444681	0.021451	1
H	2.952231	-1.157221	0.895661	1
H	2.949650	-1.172891	-0.878379	1
Es	-0.433815	-1.230820	-0.009274	99
Es	1.719479	-0.945730	0.008151	99
Es	2.177057	-2.106082	0.017681	99
Es	-0.706473	0.793889	0.301340	99
Es	-0.364955	-1.052805	-0.003433	99
Es	-0.482338	2.038741	-0.001692	99
Es	-2.919830	1.082268	-0.007800	99
Es	-0.433607	-1.231251	-0.003406	99
Es	-0.601659	-1.711772	-0.003617	99
Es	2.746721	-1.219846	0.594891	99
Es	1.051190	0.855383	0.005619	99
Es	2.739185	-1.232451	-0.575176	99
Es	-1.938835	0.320019	-0.009786	99
Es	1.036930	0.198936	0.306791	99
Es	1.122375	-0.522562	0.005490	99
Es	-0.541877	-1.177261	0.007417	99
Es	-2.694740	0.371522	-0.013369	99
Es	-0.324787	-1.154311	-0.000894	99
Es	-0.868894	-0.457358	-0.005375	99
Es	-0.706184	0.795132	-0.307667	99
Es	0.392437	1.127015	0.001948	99
Es	-2.957656	0.047670	-0.608228	99
Es	1.644889	1.293759	0.008908	99
Es	-0.293241	1.326683	-0.001039	99
Es	-2.967936	0.031624	0.572178	99
Es	1.047080	0.194805	-0.295768	99
Es	2.344480	-1.375593	0.011365	99
Es	-1.207326	0.294050	-0.005960	99
Es	0.389434	-0.897021	0.001387	99
Es	-0.433312	-1.361106	-0.009912	99
45
Properties=species:S:1:pos:R:3:Z:I:1 energy=-629.4790676527838 field_type=dipole dipole="0.000000 0.000000 0.000000" charge=0
C	-2.694809	0.371529	-0.013369	6
C	-1.207299	0.294259	-0.005969	6
C	-0.293259	1.326649	-0.001039	6
C	1.051180	0.855349	0.005631	6
C	1.122481	-0.522381	0.005491	6
C	2.344541	-1.375631	0.011371	6
S	-0.433569	-1.231281	-0.003259	16
H	-3.032419	1.413319	-0.004639	1
H	-3.114429	-0.123281	0.868771	1
H	-3.104089	-0.105331	-0.910109	1
H	-0.572629	2.373379	-0.002019	1
H	1.923241	1.498219	0.010401	1
H	2.109181	-2.444681	0.021451	1
H	2.952231	-1.157221	0.895661	1
H	2.949650	-1.172891	-0.878379	1
Es	1.644965	1.293832	0.009010	99
Es	-2.694739	0.371522	-0.013368	99
Es	-0.293241	1.326684	-0.001041	99
Es	-2.920194	1.082370	-0.007766	99
Es	-0.706407	0.794846	-0.307299	99
Es	-0.433645	-1.231194	-0.000162	99
Es	-0.601750	-1.711770	-0.004754	99
Es	-0.364695	-1.054848	-0.006865	99
Es	1.037373	0.199391	0.306164	99
Es	-1.207325	0.294051	-0.005970	99
Es	-1.938724	0.319731	-0.009742	99
Es	1.719660	-0.945174	0.007873	99
Es	-2.968687	0.030561	0.571512	99
Es	0.392337	1.126674	0.002206	99
Es	-0.706148	0.793461	0.300906	99
Es	-0.868688	-0.457356	-0.004072	99
Es	-0.546017	-1.196048	-0.007343	99
Es	-0.339650	-1.134260	0.000463	99
Es	-0.482433	2.038774	-0.001525	99
Es	1.046753	0.195398	-0.295386	99
Es	2.737499	-1.233144	-0.574267	99
Es	1.051190	0.855384	0.005631	99
Es	2.747972	-1.219318	0.593948	99
Es	-0.415588	-1.360035	-0.002091	99
Es	-2.956734	0.048935	-0.607439	99
Es	-0.432865	-1.231376	-0.002927	99
Es	0.389361	-0.897032	0.000468	99
Es	2.344480	-1.375596	0.011372	99
Es	1.122375	-0.522562	0.005490	99
Es	2.177357	-2.106371	0.017746	99
45
Properties=species:S:1:pos:R:3:Z:I:1 energy=-629.4790676527838 field_type=dipole dipole="0.000000 0.000000 0.000000" charge=0
C	-2.694809	0.371529	-0.013369	6
C	-1.207299	0.294259	-0.005969	6
C	-0.293259	1.326649	-0.001039	6
C	1.051180	0.855349	0.005631	6
C	1.122481	-0.522381	0.005491	6
C	2.344541	-1.375631	0.011371	6
S	-0.433569	-1.231281	-0.003259	16
H	-3.032419	1.413319	-0.004639	1
H	-3.114429	-0.123281	0.868771	1
H	-3.104089	-0.105331	-0.910109	1
H	-0.572629	2.373379	-0.002019	1
H	1.923241	1.498219	0.010401	1
H	2.109181	-2.444681	0.021451	1
H	2.952231	-1.157221	0.895661	1
H	2.949650	-1.172891	-0.878379	1
Es	-0.367457	-1.054878	-0.006789	99
Es	-0.433489	-1.231244	-0.002609	99
Es	-0.482281	2.038925	-0.001378	99
Es	1.051188	0.855383	0.005635	99
Es	0.389225	-0.896985	0.000104	99
Es	-0.335479	-1.295557	-0.013669	99
Es	-2.971279	0.027183	0.570168	99
Es	1.719779	-0.944888	0.007869	99
Es	2.733411	-1.234649	-0.572746	99
Es	1.041201	0.197008	0.306092	99
Es	1.122375	-0.522562	0.005489	99
Es	1.645007	1.293906	0.009108	99
Es	-0.293242	1.326682	-0.001043	99
Es	-0.706894	0.793882	0.300638	99
Es	-0.868627	-0.457481	-0.003240	99
Es	-2.920253	1.082501	-0.007678	99
Es	-0.416997	-1.096556	-0.000265	99
Es	1.042934	0.197773	-0.295755	99
Es	-0.546009	-1.298530	0.002273	99
Es	-1.207326	0.294051	-0.005969	99
Es	0.392169	1.126345	0.002835	99
Es	-0.602144	-1.711653	-0.006169	99
Es	-2.954042	0.052365	-0.606183	99
Es	-2.694740	0.371523	-0.013368	99
Es	2.177473	-2.106567	0.017653	99
Es	-0.433068	-1.231215	0.002990	99
Es	-1.938688	0.319644	-0.009725	99
Es	2.344480	-1.375594	0.011368	99
Es	-0.705213	0.794549	-0.307279	99
Es	2.751776	-1.217833	0.592413	99
