44
Properties=species:S:1:pos:R:3:Z:I:1 energy=-645.4748815646299 field_type=dipole dipole="0.000000 0.000000 0.000000" charge=0
C	-2.496918	0.240575	-0.009980	6
C	-1.009418	0.169425	-0.007230	6
C	-0.098248	1.204235	0.003950	6
C	1.248102	0.733695	-0.007460	6
C	1.324352	-0.639675	-0.031310	6
N	2.441312	-1.389775	-0.061400	7
S	-0.228008	-1.352315	-0.023670	16
H	-2.838638	1.281055	-0.001250	1
H	-2.912138	-0.255575	0.873310	1
H	-2.906908	-0.238065	-0.905540	1
H	-0.378608	2.250375	0.014630	1
H	2.116692	1.379425	-0.007210	1
H	2.379112	-2.394245	0.068360	1
H	3.359312	-0.989135	0.094800	1
Es	0.608001	-1.015669	-0.031566	99
Es	2.970869	-1.144583	0.062887	99
Es	-0.554637	0.659061	-0.320991	99
Es	-0.098228	1.204268	0.003950	99
Es	-1.009431	0.169209	-0.007234	99
Es	-0.271572	-1.525767	-0.453429	99
Es	-0.650321	-0.587684	-0.015440	99
Es	-0.227391	-1.352946	-0.022376	99
Es	2.441018	-1.389599	-0.060621	99
Es	1.324342	-0.639947	-0.031312	99
Es	1.230319	0.142834	-0.326323	99
Es	-0.257211	-1.520383	0.409097	99
Es	0.590289	1.010153	-0.000774	99
Es	1.966835	-1.079730	0.056690	99
Es	-2.770423	-0.099161	0.586153	99
Es	2.396163	-1.979299	0.047438	99
Es	-1.743109	0.190870	-0.008109	99
Es	2.369775	-1.340072	-0.308668	99
Es	-2.496852	0.240568	-0.009979	99
Es	-0.217003	-1.364749	-0.139229	99
Es	-0.285743	1.912119	0.011491	99
Es	-0.342721	-1.349884	0.004809	99
Es	-2.766630	-0.087048	-0.614319	99
Es	-0.167953	-1.440188	0.036285	99
Es	-0.184192	-1.251377	0.002038	99
Es	-0.554099	0.653153	0.317915	99
Es	-2.718045	0.945157	-0.003792	99
Es	1.841500	1.169389	-0.006063	99
Es	1.248115	0.733695	-0.007455	99
Es	1.232258	0.135848	0.293569	99
44
Properties=species:S:1:pos:R:3:Z:I:1 energy=-645.4748815646299 field_type=dipole dipole="0.000000 0.000000 0.000000" charge=0
C	-2.496918	0.240575	-0.009980	6
C	-1.009418	0.169425	-0.007230	6
C	-0.098248	1.204235	0.003950	6
C	1.248102	0.733695	-0.007460	6
C	1.324352	-0.639675	-0.031310	6
N	2.441312	-1.389775	-0.061400	7
S	-0.228008	-1.352315	-0.023670	16
H	-2.838638	1.281055	-0.001250	1
H	-2.912138	-0.255575	0.873310	1
H	-2.906908	-0.238065	-0.905540	1
H	-0.378608	2.250375	0.014630	1
H	2.116692	1.379425	-0.007210	1
H	2.379112	-2.394245	0.068360	1
H	3.359312	-0.989135	0.094800	1
Es	-1.742665	0.190288	-0.008899	99
Es	1.842908	1.169755	-0.002180	99
Es	1.230837	0.140456	-0.325722	99
Es	-2.767732	-0.097760	0.581846	99
Es	-0.228029	-1.352393	-0.024252	99
Es	-0.656305	-0.589427	0.009188	99
Es	-0.354426	-1.776887	0.211074	99
Es	-0.553606	0.657936	-0.317991	99
Es	1.951726	-1.069301	0.021205	99
Es	-2.767440	-0.089475	-0.612796	99
Es	-0.171543	-1.265372	-0.316515	99
Es	0.588610	1.007978	0.006462	99
Es	2.441056	-1.389632	-0.060561	99
Es	1.324340	-0.639944	-0.031316	99
Es	2.975816	-1.141789	0.053450	99
Es	-0.286726	1.913651	0.014384	99
Es	-0.348040	-1.337721	-0.034288	99
Es	-0.163797	-1.245218	-0.035275	99
Es	1.248115	0.733701	-0.007458	99
Es	2.396886	-1.989870	0.018432	99
Es	-0.185101	-1.445730	-0.090387	99
Es	0.611605	-1.021151	-0.001166	99
Es	-2.496855	0.240569	-0.009979	99
Es	2.378905	-1.342690	-0.235439	99
Es	1.231149	0.139523	0.286268	99
Es	-1.009435	0.169207	-0.007251	99
Es	-0.553829	0.654801	0.312720	99
Es	-0.098228	1.204271	0.003956	99
Es	-0.213820	-1.377327	0.069238	99
Es	-2.720452	0.947787	-0.002109	99
44
Properties=species:S:1:pos:R:3:Z:I:1 energy=-645.4748815646299 field_type=dipole dipole="0.000000 0.000000 0.000000" charge=0
C	-2.496918	0.240575	-0.009980	6
C	-1.009418	0.169425	-0.007230	6
C	-0.098248	1.204235	0.003950	6
C	1.248102	0.733695	-0.007460	6
C	1.324352	-0.639675	-0.031310	6
N	2.441312	-1.389775	-0.061400	7
S	-0.228008	-1.352315	-0.023670	16
H	-2.838638	1.281055	-0.001250	1
H	-2.912138	-0.255575	0.873310	1
H	-2.906908	-0.238065	-0.905540	1
H	-0.378608	2.250375	0.014630	1
H	2.116692	1.379425	-0.007210	1
H	2.379112	-2.394245	0.068360	1
H	3.359312	-0.989135	0.094800	1
Es	-1.742818	0.190331	-0.007653	99
Es	2.977074	-1.141296	0.045269	99
Es	-1.009434	0.169205	-0.007206	99
Es	-2.764758	-0.086704	-0.610809	99
Es	2.377794	-1.348512	-0.243607	99
Es	-2.496851	0.240567	-0.009980	99
Es	-0.286378	-1.340474	0.059359	99
Es	-0.146960	-1.215163	0.113069	99
Es	-0.286592	1.913778	0.009542	99
Es	-2.770350	-0.100757	0.584701	99
Es	1.842463	1.169856	-0.008812	99
Es	2.395930	-1.986514	0.036562	99
Es	-0.377191	-1.826273	-0.118975	99
Es	-0.244272	-1.251083	-0.095410	99
Es	-2.720110	0.947862	-0.004949	99
Es	1.952550	-1.067605	0.020168	99
Es	1.248112	0.733700	-0.007462	99
Es	-0.554647	0.660992	-0.316612	99
Es	-0.553480	0.652926	0.315358	99
Es	1.229107	0.144018	-0.321063	99
Es	0.615173	-1.021967	-0.050475	99
Es	-0.098228	1.204268	0.003946	99
Es	-0.116485	-1.359105	0.017122	99
Es	1.324342	-0.639948	-0.031314	99
Es	-0.263499	-1.456528	-0.079953	99
Es	-0.660116	-0.587978	-0.029709	99
Es	1.232565	0.134014	0.293243	99
Es	-0.228596	-1.352307	-0.023511	99
Es	0.588578	1.008538	-0.005676	99
Es	2.441003	-1.389606	-0.060523	99
44
Properties=species:S:1:pos:R:3:Z:I:1 energy=-645.4748815646299 field_type=dipole dipole="0.000000 0.000000 0.000000" charge=0
C	-2.496918	0.240575	-0.009980	6
C	-1.009418	0.169425	-0.007230	6
C	-0.098248	1.204235	0.003950	6
C	1.248102	0.733695	-0.007460	6
C	1.324352	-0.639675	-0.031310	6
N	2.441312	-1.389775	-0.061400	7
S	-0.228008	-1.352315	-0.023670	16
H	-2.838638	1.281055	-0.001250	1
H	-2.912138	-0.255575	0.873310	1
H	-2.906908	-0.238065	-0.905540	1
H	-0.378608	2.250375	0.014630	1
H	2.116692	1.379425	-0.007210	1
H	2.379112	-2.394245	0.068360	1
H	3.359312	-0.989135	0.094800	1
Es	2.441173	-1.389704	-0.060827	99
Es	0.616517	-1.021816	-0.038992	99
Es	-0.193157	-1.294553	0.065680	99
Es	2.976412	-1.141312	0.047519	99
Es	1.842529	1.169987	-0.007200	99
Es	-0.162480	-1.457344	-0.032597	99
Es	-0.098228	1.204268	0.003950	99
Es	0.588484	1.008307	-0.003384	99
Es	1.248114	0.733699	-0.007481	99
Es	-0.286546	1.914033	0.010633	99
Es	-0.379175	-1.834523	-0.062249	99
Es	2.377056	-1.346271	-0.244739	99
Es	-0.553383	0.653741	0.314996	99
Es	-1.742726	0.190051	-0.008079	99
Es	1.324341	-0.639948	-0.031318	99
Es	1.231217	0.135771	0.292264	99
Es	-0.145513	-1.207869	0.033723	99
Es	2.396382	-1.987653	0.032487	99
Es	-2.720024	0.948139	-0.004086	99
Es	-0.346040	-1.371588	-0.011240	99
Es	-0.228075	-1.352133	-0.023636	99
Es	-0.554359	0.660796	-0.316826	99
Es	-2.765295	-0.087236	-0.611463	99
Es	-0.660663	-0.587513	-0.022523	99
Es	-1.009433	0.169208	-0.007232	99
Es	-0.209683	-1.284064	-0.117722	99
Es	-2.769831	-0.100187	0.583854	99
Es	1.953156	-1.068701	0.023353	99
Es	-2.496849	0.240566	-0.009979	99
Es	1.230002	0.142086	-0.322247	99
44
Properties=species:S:1:pos:R:3:Z:I:1 energy=-645.4748815646299 field_type=dipole dipole="0.000000 0.000000 0.000000" charge=0
C	-2.496918	0.240575	-0.009980	6
C	-1.009418	0.169425	-0.007230	6
C	-0.098248	1.204235	0.003950	6
C	1.248102	0.733695	-0.007460	6
C	1.324352	-0.639675	-0.031310	6
N	2.441312	-1.389775	-0.061400	7
S	-0.228008	-1.352315	-0.023670	16
H	-2.838638	1.281055	-0.001250	1
H	-2.912138	-0.255575	0.873310	1
H	-2.906908	-0.238065	-0.905540	1
H	-0.378608	2.250375	0.014630	1
H	2.116692	1.379425	-0.007210	1
H	2.379112	-2.394245	0.068360	1
H	3.359312	-0.989135	0.094800	1
Es	1.324341	-0.639947	-0.031321	99
Es	-0.145220	-1.208415	0.038704	99
Es	-0.098228	1.204270	0.003950	99
Es	2.396601	-1.988373	0.030618	99
Es	1.231728	0.135093	0.292138	99
Es	-0.660620	-0.587465	-0.020863	99
Es	2.377568	-1.346548	-0.239633	99
Es	-2.769705	-0.100357	0.583989	99
Es	-2.720133	0.948391	-0.004300	99
Es	0.588404	1.008251	-0.002708	99
Es	1.842428	1.170009	-0.007384	99
Es	0.616277	-1.021761	-0.041407	99
Es	-0.226879	-1.353159	-0.028560	99
Es	-0.191491	-1.225916	-0.023523	99
Es	1.229138	0.142658	-0.322644	99
Es	1.952485	-1.068064	0.020919	99
Es	2.976629	-1.141145	0.046134	99
Es	-0.214965	-1.361976	-0.065747	99
Es	1.248114	0.733695	-0.007501	99
Es	2.440888	-1.389530	-0.060357	99
Es	-0.553279	0.653926	0.314736	99
Es	-0.378872	-1.834623	-0.064107	99
Es	-1.742888	0.189987	-0.007775	99
Es	-0.286533	1.914128	0.010629	99
Es	-2.496851	0.240568	-0.009980	99
Es	-1.009431	0.169210	-0.007224	99
Es	-0.554329	0.660975	-0.316960	99
Es	-2.765101	-0.087283	-0.611153	99
Es	-0.348194	-1.378471	-0.035760	99
Es	-0.157959	-1.439892	0.031732	99
44
Properties=species:S:1:pos:R:3:Z:I:1 energy=-645.4748815646299 field_type=dipole dipole="0.000000 0.000000 0.000000" charge=0
C	-2.496918	0.240575	-0.009980	6
C	-1.009418	0.169425	-0.007230	6
C	-0.098248	1.204235	0.003950	6
C	1.248102	0.733695	-0.007460	6
C	1.324352	-0.639675	-0.031310	6
N	2.441312	-1.389775	-0.061400	7
S	-0.228008	-1.352315	-0.023670	16
H	-2.838638	1.281055	-0.001250	1
H	-2.912138	-0.255575	0.873310	1
H	-2.906908	-0.238065	-0.905540	1
H	-0.378608	2.250375	0.014630	1
H	2.116692	1.379425	-0.007210	1
H	2.379112	-2.394245	0.068360	1
H	3.359312	-0.989135	0.094800	1
Es	-0.258447	-1.456678	0.037616	99
Es	-2.769476	-0.100307	0.583472	99
Es	2.378816	-1.347539	-0.228259	99
Es	1.324340	-0.639949	-0.031318	99
Es	-2.765022	-0.087487	-0.611041	99
Es	-0.144941	-1.207875	0.021759	99
Es	-0.098229	1.204267	0.003947	99
Es	-2.496850	0.240567	-0.009979	99
Es	-0.379223	-1.835462	-0.054490	99
Es	1.950627	-1.066582	0.013697	99
Es	-0.553130	0.654292	0.314107	99
Es	-0.660468	-0.587559	-0.019928	99
Es	1.230938	0.136117	0.291404	99
Es	1.248115	0.733700	-0.007444	99
Es	2.396481	-1.989187	0.028175	99
Es	-0.219873	-1.377405	-0.118555	99
Es	-0.553832	0.660848	-0.316504	99
Es	1.842606	1.170186	-0.006935	99
Es	-0.228603	-1.351458	-0.022775	99
Es	2.440986	-1.389589	-0.060429	99
Es	1.229574	0.141854	-0.322358	99
Es	0.588090	1.007853	-0.002320	99
Es	0.616274	-1.021736	-0.038435	99
Es	-1.742935	0.189935	-0.007906	99
Es	-0.286647	1.914415	0.010873	99
Es	2.977178	-1.140740	0.044506	99
Es	-1.009435	0.169207	-0.007225	99
Es	-0.117849	-1.302750	0.007730	99
Es	-2.720341	0.948780	-0.004114	99
Es	-0.314800	-1.271482	-0.022632	99
44
Properties=species:S:1:pos:R:3:Z:I:1 energy=-645.4748815646299 field_type=dipole dipole="0.000000 0.000000 0.000000" charge=0
C	-2.496918	0.240575	-0.009980	6
C	-1.009418	0.169425	-0.007230	6
C	-0.098248	1.204235	0.003950	6
C	1.248102	0.733695	-0.007460	6
C	1.324352	-0.639675	-0.031310	6
N	2.441312	-1.389775	-0.061400	7
S	-0.228008	-1.352315	-0.023670	16
H	-2.838638	1.281055	-0.001250	1
H	-2.912138	-0.255575	0.873310	1
H	-2.906908	-0.238065	-0.905540	1
H	-0.378608	2.250375	0.014630	1
H	2.116692	1.379425	-0.007210	1
H	2.379112	-2.394245	0.068360	1
H	3.359312	-0.989135	0.094800	1
Es	1.949536	-1.065858	0.009355	99
Es	-0.553738	0.660924	-0.316344	99
Es	0.588021	1.007736	-0.001236	99
Es	-0.098228	1.204268	0.003944	99
Es	1.324339	-0.639946	-0.031316	99
Es	-2.765402	-0.088056	-0.611014	99
Es	1.230031	0.140863	-0.322717	99
Es	1.230466	0.137094	0.290643	99
Es	-0.343507	-1.350180	-0.019958	99
Es	2.977464	-1.140625	0.043908	99
Es	-0.660348	-0.587644	-0.014877	99
Es	1.248115	0.733700	-0.007464	99
Es	-2.768883	-0.099821	0.583021	99
Es	-0.286706	1.914521	0.011438	99
Es	-0.379060	-1.836442	-0.030149	99
Es	2.379540	-1.347611	-0.220154	99
Es	-0.161264	-1.219010	-0.046864	99
Es	-2.496851	0.240568	-0.009980	99
Es	-0.194868	-1.408252	0.063249	99
Es	2.396533	-1.989975	0.024848	99
Es	2.440958	-1.389574	-0.060395	99
Es	-0.157959	-1.223262	0.005653	99
Es	-1.742849	0.189839	-0.008109	99
Es	-0.229235	-1.351793	-0.023044	99
Es	0.616426	-1.021663	-0.030578	99
Es	-0.198430	-1.414366	-0.113539	99
Es	1.842747	1.170155	-0.006247	99
Es	-1.009435	0.169205	-0.007230	99
Es	-0.552917	0.654452	0.313609	99
Es	-2.720570	0.948990	-0.003816	99
44
Properties=species:S:1:pos:R:3:Z:I:1 energy=-645.4748815646299 field_type=dipole dipole="0.000000 0.000000 0.000000" charge=0
C	-2.496918	0.240575	-0.009980	6
C	-1.009418	0.169425	-0.007230	6
C	-0.098248	1.204235	0.003950	6
C	1.248102	0.733695	-0.007460	6
C	1.324352	-0.639675	-0.031310	6
N	2.441312	-1.389775	-0.061400	7
S	-0.228008	-1.352315	-0.023670	16
H	-2.838638	1.281055	-0.001250	1
H	-2.912138	-0.255575	0.873310	1
H	-2.906908	-0.238065	-0.905540	1
H	-0.378608	2.250375	0.014630	1
H	2.116692	1.379425	-0.007210	1
H	2.379112	-2.394245	0.068360	1
H	3.359312	-0.989135	0.094800	1
Es	0.616315	-1.021639	-0.030493	99
Es	-2.765335	-0.087867	-0.610923	99
Es	1.230601	0.137378	0.290528	99
Es	-0.298937	-1.354205	-0.105896	99
Es	-2.769049	-0.099930	0.582988	99
Es	1.230009	0.141106	-0.322527	99
Es	1.324340	-0.639947	-0.031321	99
Es	1.248115	0.733700	-0.007463	99
Es	2.441043	-1.389626	-0.060552	99
Es	-0.552860	0.654324	0.313559	99
Es	-2.720568	0.948973	-0.003851	99
Es	-0.286640	1.914552	0.011377	99
Es	-1.009435	0.169206	-0.007217	99
Es	-0.227817	-1.352773	-0.024314	99
Es	-0.171008	-1.226217	0.009192	99
Es	-0.145881	-1.441037	-0.041074	99
Es	1.842823	1.170287	-0.006328	99
Es	2.977552	-1.140463	0.043250	99
Es	-1.742746	0.189769	-0.008023	99
Es	-0.286233	-1.379385	0.059979	99
Es	2.379698	-1.347774	-0.216353	99
Es	-0.098228	1.204269	0.003951	99
Es	-0.155365	-1.213327	-0.034683	99
Es	0.587985	1.007579	-0.001106	99
Es	2.396576	-1.990297	0.023923	99
Es	1.949100	-1.065422	0.007213	99
Es	-0.379359	-1.836553	-0.028732	99
Es	-0.660189	-0.587634	-0.013959	99
Es	-2.496850	0.240567	-0.009980	99
Es	-0.553733	0.660625	-0.316521	99
44
Properties=species:S:1:pos:R:3:Z:I:1 energy=-645.4748815646299 field_type=dipole dipole="0.000000 0.000000 0.000000" charge=0
C	-2.496918	0.240575	-0.009980	6
C	-1.009418	0.169425	-0.007230	6
C	-0.098248	1.204235	0.003950	6
C	1.248102	0.733695	-0.007460	6
C	1.324352	-0.639675	-0.031310	6
N	2.441312	-1.389775	-0.061400	7
S	-0.228008	-1.352315	-0.023670	16
H	-2.838638	1.281055	-0.001250	1
H	-2.912138	-0.255575	0.873310	1
H	-2.906908	-0.238065	-0.905540	1
H	-0.378608	2.250375	0.014630	1
H	2.116692	1.379425	-0.007210	1
H	2.379112	-2.394245	0.068360	1
H	3.359312	-0.989135	0.094800	1
Es	-0.098228	1.204269	0.003950	99
Es	2.396654	-1.990369	0.023749	99
Es	-0.145124	-1.207313	-0.007339	99
Es	-0.552837	0.654546	0.313547	99
Es	2.379244	-1.347588	-0.218387	99
Es	1.231841	0.134884	0.290472	99
Es	-0.553483	0.660757	-0.316401	99
Es	1.248115	0.733701	-0.007465	99
Es	-0.114506	-1.331561	0.011201	99
Es	0.616198	-1.021627	-0.032912	99
Es	-0.286699	1.914638	0.011209	99
Es	-0.226655	-1.328322	-0.109867	99
Es	0.587842	1.007592	-0.001270	99
Es	-1.009431	0.169210	-0.007241	99
Es	1.324341	-0.639948	-0.031318	99
Es	-2.769102	-0.100083	0.582922	99
Es	-0.660176	-0.587614	-0.016585	99
Es	1.228376	0.143360	-0.322469	99
Es	-0.379433	-1.836575	-0.034308	99
Es	-0.266541	-1.476534	-0.021960	99
Es	-2.496854	0.240568	-0.009979	99
Es	-2.765036	-0.087871	-0.610876	99
Es	-0.303681	-1.271153	0.025681	99
Es	-1.742861	0.189890	-0.007944	99
Es	2.440583	-1.389345	-0.060124	99
Es	-2.720695	0.949092	-0.003948	99
Es	1.949744	-1.065935	0.009995	99
Es	-0.228137	-1.352376	-0.023665	99
Es	1.842765	1.170341	-0.006433	99
Es	2.977701	-1.140399	0.042405	99
44
Properties=species:S:1:pos:R:3:Z:I:1 energy=-645.4748815646299 field_type=dipole dipole="0.000000 0.000000 0.000000" charge=0
C	-2.496918	0.240575	-0.009980	6
C	-1.009418	0.169425	-0.007230	6
C	-0.098248	1.204235	0.003950	6
C	1.248102	0.733695	-0.007460	6
C	1.324352	-0.639675	-0.031310	6
N	2.441312	-1.389775	-0.061400	7
S	-0.228008	-1.352315	-0.023670	16
H	-2.838638	1.281055	-0.001250	1
H	-2.912138	-0.255575	0.873310	1
H	-2.906908	-0.238065	-0.905540	1
H	-0.378608	2.250375	0.014630	1
H	2.116692	1.379425	-0.007210	1
H	2.379112	-2.394245	0.068360	1
H	3.359312	-0.989135	0.094800	1
Es	-0.379728	-1.836387	-0.040947	99
Es	1.948914	-1.065244	0.006169	99
Es	-2.720662	0.949250	-0.003879	99
Es	1.229500	0.141881	-0.321960	99
Es	-0.553607	0.660968	-0.316013	99
Es	2.440845	-1.389505	-0.060272	99
Es	0.616026	-1.021559	-0.034624	99
Es	2.379490	-1.348058	-0.212596	99
Es	-2.765048	-0.087840	-0.610798	99
Es	1.324341	-0.639948	-0.031317	99
Es	-1.742851	0.189775	-0.008106	99
Es	-0.205665	-1.352562	0.063655	99
Es	0.587761	1.007455	-0.001993	99
Es	-0.660063	-0.587684	-0.017816	99
Es	-1.009434	0.169205	-0.007230	99
Es	2.396534	-1.990600	0.023075	99
Es	-0.280957	-1.238828	-0.044167	99
Es	-0.098228	1.204269	0.003950	99
Es	1.248115	0.733702	-0.007467	99
Es	-0.122869	-1.361730	-0.076832	99
Es	-0.286647	1.914746	0.011054	99
Es	-0.552711	0.654215	0.313745	99
Es	-0.228108	-1.352503	-0.024177	99
Es	-0.301619	-1.454241	-0.039207	99
Es	-2.496851	0.240568	-0.009979	99
Es	2.978022	-1.140244	0.041216	99
Es	-0.145078	-1.207805	0.004199	99
Es	1.230620	0.136710	0.290768	99
Es	-2.769043	-0.100137	0.582833	99
Es	1.842926	1.170369	-0.006644	99
44
Properties=species:S:1:pos:R:3:Z:I:1 energy=-645.4748815646299 field_type=dipole dipole="0.000000 0.000000 0.000000" charge=0
C	-2.496918	0.240575	-0.009980	6
C	-1.009418	0.169425	-0.007230	6
C	-0.098248	1.204235	0.003950	6
C	1.248102	0.733695	-0.007460	6
C	1.324352	-0.639675	-0.031310	6
N	2.441312	-1.389775	-0.061400	7
S	-0.228008	-1.352315	-0.023670	16
H	-2.838638	1.281055	-0.001250	1
H	-2.912138	-0.255575	0.873310	1
H	-2.906908	-0.238065	-0.905540	1
H	-0.378608	2.250375	0.014630	1
H	2.116692	1.379425	-0.007210	1
H	2.379112	-2.394245	0.068360	1
H	3.359312	-0.989135	0.094800	1
Es	-1.742837	0.189680	-0.008009	99
Es	0.587777	1.007391	-0.002067	99
Es	1.948592	-1.064932	0.004097	99
Es	-2.720739	0.949328	-0.004062	99
Es	-0.327176	-1.329016	-0.072696	99
Es	-1.009430	0.169211	-0.007255	99
Es	0.615903	-1.021474	-0.036125	99
Es	-2.769091	-0.100238	0.582894	99
Es	2.379539	-1.348338	-0.209503	99
Es	-0.379052	-1.836467	-0.043982	99
Es	1.324341	-0.639948	-0.031313	99
Es	-0.249511	-1.347723	0.065090	99
Es	2.396566	-1.990711	0.022973	99
Es	-0.098228	1.204269	0.003950	99
Es	1.229545	0.141446	-0.321617	99
Es	-0.144658	-1.208254	0.007289	99
Es	2.978144	-1.140035	0.040451	99
Es	-0.140987	-1.257749	-0.045096	99
Es	-0.286707	1.914776	0.011049	99
Es	-2.764976	-0.087718	-0.610465	99
Es	-0.553587	0.661099	-0.315921	99
Es	1.843029	1.170298	-0.006938	99
Es	-0.552718	0.654281	0.313421	99
Es	2.441017	-1.389610	-0.060467	99
Es	-0.228143	-1.352284	-0.023611	99
Es	-0.194204	-1.472747	-0.042992	99
Es	-2.496851	0.240568	-0.009980	99
Es	-0.660054	-0.587714	-0.017725	99
Es	1.230303	0.137145	0.290711	99
Es	1.248115	0.733703	-0.007463	99
44
Properties=species:S:1:pos:R:3:Z:I:1 energy=-645.4748815646299 field_type=dipole dipole="0.000000 0.000000 0.000000" charge=0
C	-2.496918	0.240575	-0.009980	6
C	-1.009418	0.169425	-0.007230	6
C	-0.098248	1.204235	0.003950	6
C	1.248102	0.733695	-0.007460	6
C	1.324352	-0.639675	-0.031310	6
N	2.441312	-1.389775	-0.061400	7
S	-0.228008	-1.352315	-0.023670	16
H	-2.838638	1.281055	-0.001250	1
H	-2.912138	-0.255575	0.873310	1
H	-2.906908	-0.238065	-0.905540	1
H	-0.378608	2.250375	0.014630	1
H	2.116692	1.379425	-0.007210	1
H	2.379112	-2.394245	0.068360	1
H	3.359312	-0.989135	0.094800	1
Es	-1.009435	0.169202	-0.007243	99
Es	-0.379194	-1.836886	-0.029873	99
Es	0.615903	-1.021520	-0.031065	99
Es	-2.720809	0.949490	-0.003936	99
Es	-0.343989	-1.330962	-0.023810	99
Es	-0.202008	-1.462768	0.025532	99
Es	2.378645	-1.347498	-0.205085	99
Es	-1.742810	0.189534	-0.008064	99
Es	-0.227999	-1.352226	-0.023726	99
Es	1.231003	0.136565	0.289787	99
Es	-0.098228	1.204270	0.003951	99
Es	-0.145792	-1.209925	-0.025143	99
Es	1.843031	1.170414	-0.006434	99
Es	2.978482	-1.139977	0.039402	99
Es	-0.286728	1.914836	0.011361	99
Es	1.248116	0.733701	-0.007442	99
Es	-2.765296	-0.088143	-0.610386	99
Es	-0.659898	-0.587730	-0.013353	99
Es	1.324340	-0.639948	-0.031314	99
Es	-2.768714	-0.099795	0.582613	99
Es	-2.496850	0.240567	-0.009979	99
Es	2.396658	-1.991314	0.019669	99
Es	-0.552621	0.654538	0.312993	99
Es	-0.159881	-1.252609	0.029623	99
Es	2.441279	-1.389762	-0.061387	99
Es	-0.205182	-1.359117	-0.118054	99
Es	-0.553373	0.661000	-0.315958	99
Es	1.228762	0.142131	-0.322184	99
Es	0.587744	1.007183	-0.000728	99
Es	1.948766	-1.065015	0.004874	99
