49
Properties=species:S:1:pos:R:3:Z:I:1 energy=-663.8546082551828 field_type=dipole dipole="0.000000 0.000000 0.000000" charge=0
C	-0.752851	-1.494376	1.425639	6
C	-1.197461	-0.585676	0.287839	6
C	-0.574181	0.806284	0.371049	6
N	0.868199	0.778984	0.202969	7
C	1.589269	0.774144	-0.937381	6
N	0.932639	0.835184	-2.108561	7
S	3.246839	0.722184	-0.894391	16
H	-1.262111	-2.460726	1.357259	1
H	-0.993871	-1.052316	2.397519	1
H	0.325009	-1.680086	1.389439	1
H	-2.288721	-0.486496	0.324159	1
H	-0.947751	-1.059776	-0.668361	1
H	-0.777891	1.260844	1.346419	1
H	-1.010021	1.455834	-0.394911	1
H	1.429059	0.716024	1.045249	1
H	-0.060941	0.684774	-2.181641	1
H	1.474789	0.785194	-2.962291	1
Es	3.215840	0.624635	-0.832256	99
Es	0.868201	0.778910	0.202892	99
Es	1.068486	0.523067	-0.166312	99
Es	-0.968359	-1.032990	0.857964	99
Es	1.240958	0.789003	-2.606409	99
Es	-1.021744	-0.900357	-0.370597	99
Es	1.049484	1.053720	-0.075358	99
Es	-1.101377	-2.148909	1.376616	99
Es	1.014861	1.098998	-1.918378	99
Es	0.932746	0.834711	-2.108379	99
Es	-0.867519	1.245115	-0.160239	99
Es	3.333202	0.558793	-0.396128	99
Es	3.149688	0.775137	-0.935091	99
Es	3.306892	0.797843	-0.825376	99
Es	2.314022	0.706554	-0.917309	99
Es	0.345582	0.730684	-2.143313	99
Es	-0.918661	-1.184307	2.086539	99
Es	-0.021861	-1.614740	1.399588	99
Es	-0.876204	0.111331	0.326951	99
Es	3.052645	1.103034	-0.905471	99
Es	0.259320	0.781631	0.253938	99
Es	3.310881	0.691085	-0.984486	99
Es	3.358434	0.545604	-1.382071	99
Es	1.179623	0.635009	-1.659595	99
Es	-1.197437	-0.585658	0.287862	99
Es	-1.943765	-0.509927	0.313088	99
Es	1.183757	0.734910	0.701490	99
Es	-0.752867	-1.494349	1.425614	99
Es	-0.573985	0.806259	0.371008	99
Es	1.589095	0.774154	-0.937392	99
Es	3.248863	0.722281	-0.894801	99
Es	-0.708144	1.108920	1.035206	99
49
Properties=species:S:1:pos:R:3:Z:I:1 energy=-663.8546082551828 field_type=dipole dipole="0.000000 0.000000 0.000000" charge=0
C	-0.752851	-1.494376	1.425639	6
C	-1.197461	-0.585676	0.287839	6
C	-0.574181	0.806284	0.371049	6
N	0.868199	0.778984	0.202969	7
C	1.589269	0.774144	-0.937381	6
N	0.932639	0.835184	-2.108561	7
S	3.246839	0.722184	-0.894391	16
H	-1.262111	-2.460726	1.357259	1
H	-0.993871	-1.052316	2.397519	1
H	0.325009	-1.680086	1.389439	1
H	-2.288721	-0.486496	0.324159	1
H	-0.947751	-1.059776	-0.668361	1
H	-0.777891	1.260844	1.346419	1
H	-1.010021	1.455834	-0.394911	1
H	1.429059	0.716024	1.045249	1
H	-0.060941	0.684774	-2.181641	1
H	1.474789	0.785194	-2.962291	1
Es	-0.573985	0.806259	0.371009	99
Es	1.589096	0.774155	-0.937392	99
Es	1.051118	1.052838	-0.080873	99
Es	-1.102914	-2.149301	1.376674	99
Es	3.020825	1.060739	-0.901490	99
Es	3.293774	0.628966	-0.942244	99
Es	-0.019655	-1.613794	1.399703	99
Es	-1.197436	-0.585658	0.287862	99
Es	-1.021078	-0.900328	-0.368989	99
Es	3.346758	0.583031	-0.388904	99
Es	1.178944	0.636660	-1.662269	99
Es	-0.875988	0.111014	0.326979	99
Es	0.343444	0.729178	-2.143092	99
Es	-0.752868	-1.494346	1.425614	99
Es	1.242293	0.790132	-2.605622	99
Es	1.067728	0.524503	-0.160338	99
Es	3.122329	0.710234	-0.889415	99
Es	3.246841	0.722183	-0.894392	99
Es	-0.708531	1.109247	1.034036	99
Es	3.379436	0.575081	-1.393709	99
Es	-1.946022	-0.510687	0.313298	99
Es	1.016172	1.097131	-1.915700	99
Es	0.258444	0.778373	0.253701	99
Es	-0.968190	-1.032978	0.857889	99
Es	2.312438	0.695954	-0.917042	99
Es	1.184218	0.737645	0.700442	99
Es	-0.867254	1.244723	-0.158847	99
Es	-0.919232	-1.184121	2.084474	99
Es	0.932676	0.834921	-2.108481	99
Es	0.868189	0.779009	0.202920	99
Es	3.279409	0.817491	-0.956944	99
Es	3.289677	0.731902	-0.789062	99
49
Properties=species:S:1:pos:R:3:Z:I:1 energy=-663.8546082551828 field_type=dipole dipole="0.000000 0.000000 0.000000" charge=0
C	-0.752851	-1.494376	1.425639	6
C	-1.197461	-0.585676	0.287839	6
C	-0.574181	0.806284	0.371049	6
N	0.868199	0.778984	0.202969	7
C	1.589269	0.774144	-0.937381	6
N	0.932639	0.835184	-2.108561	7
S	3.246839	0.722184	-0.894391	16
H	-1.262111	-2.460726	1.357259	1
H	-0.993871	-1.052316	2.397519	1
H	0.325009	-1.680086	1.389439	1
H	-2.288721	-0.486496	0.324159	1
H	-0.947751	-1.059776	-0.668361	1
H	-0.777891	1.260844	1.346419	1
H	-1.010021	1.455834	-0.394911	1
H	1.429059	0.716024	1.045249	1
H	-0.060941	0.684774	-2.181641	1
H	1.474789	0.785194	-2.962291	1
Es	3.233652	0.822422	-0.946567	99
Es	3.308500	0.650705	-0.966196	99
Es	1.176892	0.632315	-1.662751	99
Es	-0.573984	0.806259	0.371009	99
Es	-1.197438	-0.585659	0.287861	99
Es	1.183729	0.729427	0.698862	99
Es	3.246855	0.721878	-0.894472	99
Es	1.589095	0.774159	-0.937391	99
Es	3.355281	0.867086	-0.396479	99
Es	1.083252	0.535173	-0.192515	99
Es	0.932792	0.834620	-2.108297	99
Es	2.997878	0.383732	-0.890759	99
Es	2.316141	0.814626	-0.918340	99
Es	3.134507	0.674902	-0.864928	99
Es	1.037137	1.044541	-0.047781	99
Es	-0.752867	-1.494349	1.425614	99
Es	0.339641	0.744052	-2.144006	99
Es	3.308575	0.741112	-0.799894	99
Es	-0.017967	-1.615411	1.399810	99
Es	-0.920162	-1.185183	2.084370	99
Es	3.390757	0.846914	-1.395500	99
Es	0.257448	0.784975	0.254017	99
Es	-1.020463	-0.899316	-0.368850	99
Es	-1.947260	-0.509469	0.312991	99
Es	-0.708414	1.108078	1.033843	99
Es	-1.102288	-2.146563	1.377186	99
Es	-0.875822	0.110026	0.327201	99
Es	1.022814	1.090760	-1.914860	99
Es	-0.868496	1.245348	-0.159555	99
Es	0.868217	0.778786	0.202857	99
Es	1.241140	0.787370	-2.604680	99
Es	-0.968485	-1.033167	0.857995	99
49
Properties=species:S:1:pos:R:3:Z:I:1 energy=-663.8546082551828 field_type=dipole dipole="0.000000 0.000000 0.000000" charge=0
C	-0.752851	-1.494376	1.425639	6
C	-1.197461	-0.585676	0.287839	6
C	-0.574181	0.806284	0.371049	6
N	0.868199	0.778984	0.202969	7
C	1.589269	0.774144	-0.937381	6
N	0.932639	0.835184	-2.108561	7
S	3.246839	0.722184	-0.894391	16
H	-1.262111	-2.460726	1.357259	1
H	-0.993871	-1.052316	2.397519	1
H	0.325009	-1.680086	1.389439	1
H	-2.288721	-0.486496	0.324159	1
H	-0.947751	-1.059776	-0.668361	1
H	-0.777891	1.260844	1.346419	1
H	-1.010021	1.455834	-0.394911	1
H	1.429059	0.716024	1.045249	1
H	-0.060941	0.684774	-2.181641	1
H	1.474789	0.785194	-2.962291	1
Es	3.394317	0.838989	-1.397384	99
Es	-0.875665	0.109992	0.327295	99
Es	1.241235	0.787114	-2.604164	99
Es	3.247111	0.723851	-0.894118	99
Es	1.589095	0.774159	-0.937393	99
Es	3.354633	0.868465	-0.398563	99
Es	-1.020348	-0.899056	-0.368092	99
Es	3.135824	0.764341	-0.844785	99
Es	-0.017248	-1.615520	1.400118	99
Es	-0.968424	-1.032961	0.857845	99
Es	-0.573985	0.806259	0.371009	99
Es	-1.197438	-0.585658	0.287861	99
Es	2.315904	0.816379	-0.918742	99
Es	-0.920352	-1.185603	2.083650	99
Es	0.868204	0.778872	0.202886	99
Es	-1.102616	-2.146170	1.377259	99
Es	1.080107	0.533016	-0.187320	99
Es	3.328103	0.697669	-0.813663	99
Es	3.231690	0.630244	-0.958154	99
Es	-0.868799	1.245645	-0.159344	99
Es	3.289470	0.795026	-0.961349	99
Es	2.995384	0.388343	-0.886360	99
Es	0.338466	0.747261	-2.144255	99
Es	1.183387	0.728913	0.698210	99
Es	0.257223	0.787038	0.254170	99
Es	1.040960	1.045098	-0.052767	99
Es	-0.752868	-1.494347	1.425613	99
Es	1.175583	0.630503	-1.664635	99
Es	-0.708276	1.107726	1.033289	99
Es	1.025253	1.089375	-1.912737	99
Es	0.932701	0.834889	-2.108439	99
Es	-1.947977	-0.509700	0.312858	99
49
Properties=species:S:1:pos:R:3:Z:I:1 energy=-663.8546082551828 field_type=dipole dipole="0.000000 0.000000 0.000000" charge=0
C	-0.752851	-1.494376	1.425639	6
C	-1.197461	-0.585676	0.287839	6
C	-0.574181	0.806284	0.371049	6
N	0.868199	0.778984	0.202969	7
C	1.589269	0.774144	-0.937381	6
N	0.932639	0.835184	-2.108561	7
S	3.246839	0.722184	-0.894391	16
H	-1.262111	-2.460726	1.357259	1
H	-0.993871	-1.052316	2.397519	1
H	0.325009	-1.680086	1.389439	1
H	-2.288721	-0.486496	0.324159	1
H	-0.947751	-1.059776	-0.668361	1
H	-0.777891	1.260844	1.346419	1
H	-1.010021	1.455834	-0.394911	1
H	1.429059	0.716024	1.045249	1
H	-0.060941	0.684774	-2.181641	1
H	1.474789	0.785194	-2.962291	1
Es	0.932703	0.834793	-2.108449	99
Es	-1.102824	-2.145918	1.377306	99
Es	0.337751	0.748450	-2.143932	99
Es	3.352766	0.873409	-0.401890	99
Es	-1.197439	-0.585659	0.287862	99
Es	1.040076	1.043649	-0.050166	99
Es	3.396475	0.832602	-1.398947	99
Es	1.589095	0.774160	-0.937393	99
Es	3.314478	0.617882	-0.879153	99
Es	1.183395	0.728034	0.697730	99
Es	-0.868993	1.245882	-0.159175	99
Es	-0.752867	-1.494348	1.425614	99
Es	1.081201	0.534243	-0.189704	99
Es	0.257041	0.788018	0.254305	99
Es	1.024190	1.086521	-1.917152	99
Es	3.131320	0.705281	-0.941994	99
Es	3.246826	0.722183	-0.894396	99
Es	-0.708201	1.107434	1.032898	99
Es	0.868214	0.778895	0.202880	99
Es	3.235516	0.766354	-0.800810	99
Es	-1.948523	-0.509619	0.312750	99
Es	1.177341	0.634332	-1.660772	99
Es	-1.020198	-0.898861	-0.367620	99
Es	1.241270	0.785194	-2.603570	99
Es	2.995286	0.389218	-0.881190	99
Es	-0.920444	-1.185824	2.083228	99
Es	-0.016748	-1.615522	1.400136	99
Es	-0.573985	0.806258	0.371009	99
Es	-0.968388	-1.032896	0.858005	99
Es	2.315687	0.817122	-0.919132	99
Es	3.304284	0.799130	-0.955724	99
Es	-0.875652	0.109756	0.327242	99
49
Properties=species:S:1:pos:R:3:Z:I:1 energy=-663.8546082551828 field_type=dipole dipole="0.000000 0.000000 0.000000" charge=0
C	-0.752851	-1.494376	1.425639	6
C	-1.197461	-0.585676	0.287839	6
C	-0.574181	0.806284	0.371049	6
N	0.868199	0.778984	0.202969	7
C	1.589269	0.774144	-0.937381	6
N	0.932639	0.835184	-2.108561	7
S	3.246839	0.722184	-0.894391	16
H	-1.262111	-2.460726	1.357259	1
H	-0.993871	-1.052316	2.397519	1
H	0.325009	-1.680086	1.389439	1
H	-2.288721	-0.486496	0.324159	1
H	-0.947751	-1.059776	-0.668361	1
H	-0.777891	1.260844	1.346419	1
H	-1.010021	1.455834	-0.394911	1
H	1.429059	0.716024	1.045249	1
H	-0.060941	0.684774	-2.181641	1
H	1.474789	0.785194	-2.962291	1
Es	1.242386	0.789158	-2.603189	99
Es	3.158628	0.802320	-0.873417	99
Es	1.027394	1.106329	-1.897775	99
Es	-1.948611	-0.512103	0.312975	99
Es	0.932669	0.834997	-2.108491	99
Es	1.059190	0.522647	-0.140055	99
Es	3.200157	0.612666	-0.917753	99
Es	-0.919358	-1.184369	2.081036	99
Es	3.314737	0.758380	-0.984140	99
Es	1.061295	1.050807	-0.100461	99
Es	3.311661	0.714809	-0.802351	99
Es	-0.968031	-1.032879	0.858291	99
Es	0.340999	0.729905	-2.143691	99
Es	-0.866904	1.244582	-0.157041	99
Es	1.183981	0.742251	0.698260	99
Es	1.169805	0.627298	-1.680744	99
Es	-0.016905	-1.612536	1.399906	99
Es	-0.875508	0.110577	0.327089	99
Es	2.311278	0.687635	-0.915850	99
Es	-1.020548	-0.900014	-0.365921	99
Es	-0.752867	-1.494349	1.425614	99
Es	3.395647	0.598999	-1.399594	99
Es	1.589098	0.774155	-0.937392	99
Es	0.257356	0.778206	0.254266	99
Es	-1.197437	-0.585658	0.287862	99
Es	3.246826	0.722185	-0.894391	99
Es	0.868222	0.778926	0.202868	99
Es	2.996328	1.014963	-0.903589	99
Es	-0.708553	1.109396	1.031862	99
Es	-1.105705	-2.149539	1.376802	99
Es	3.357409	0.614146	-0.382196	99
Es	-0.573984	0.806260	0.371007	99
49
Properties=species:S:1:pos:R:3:Z:I:1 energy=-663.8546082551828 field_type=dipole dipole="0.000000 0.000000 0.000000" charge=0
C	-0.752851	-1.494376	1.425639	6
C	-1.197461	-0.585676	0.287839	6
C	-0.574181	0.806284	0.371049	6
N	0.868199	0.778984	0.202969	7
C	1.589269	0.774144	-0.937381	6
N	0.932639	0.835184	-2.108561	7
S	3.246839	0.722184	-0.894391	16
H	-1.262111	-2.460726	1.357259	1
H	-0.993871	-1.052316	2.397519	1
H	0.325009	-1.680086	1.389439	1
H	-2.288721	-0.486496	0.324159	1
H	-0.947751	-1.059776	-0.668361	1
H	-0.777891	1.260844	1.346419	1
H	-1.010021	1.455834	-0.394911	1
H	1.429059	0.716024	1.045249	1
H	-0.060941	0.684774	-2.181641	1
H	1.474789	0.785194	-2.962291	1
Es	2.316070	0.820029	-0.919045	99
Es	3.398480	0.831686	-1.398345	99
Es	3.250839	0.769955	-0.976706	99
Es	1.240721	0.785784	-2.603112	99
Es	-0.016280	-1.615698	1.400109	99
Es	3.246815	0.722227	-0.894130	99
Es	-0.708007	1.107249	1.032348	99
Es	-1.103243	-2.145622	1.377562	99
Es	3.122619	0.687006	-0.878518	99
Es	-1.948933	-0.509667	0.312614	99
Es	1.081346	0.534223	-0.189653	99
Es	1.174871	0.629379	-1.666131	99
Es	0.868220	0.778782	0.202852	99
Es	1.182834	0.727256	0.697128	99
Es	3.354804	0.865310	-0.399236	99
Es	3.269239	0.797522	-0.827013	99
Es	-0.875552	0.109521	0.327567	99
Es	-0.752867	-1.494349	1.425614	99
Es	1.040720	1.043815	-0.049794	99
Es	0.256943	0.788925	0.254246	99
Es	-0.573984	0.806259	0.371009	99
Es	0.337152	0.750492	-2.144161	99
Es	0.932705	0.834869	-2.108433	99
Es	-1.020201	-0.898512	-0.367147	99
Es	1.589091	0.774153	-0.937396	99
Es	1.027691	1.088796	-1.911701	99
Es	-0.920286	-1.185990	2.082652	99
Es	2.990914	0.395477	-0.884559	99
Es	-1.197437	-0.585658	0.287861	99
Es	3.343063	0.633868	-0.895682	99
Es	-0.968468	-1.033022	0.857967	99
Es	-0.869227	1.246089	-0.158968	99
49
Properties=species:S:1:pos:R:3:Z:I:1 energy=-663.8546082551828 field_type=dipole dipole="0.000000 0.000000 0.000000" charge=0
C	-0.752851	-1.494376	1.425639	6
C	-1.197461	-0.585676	0.287839	6
C	-0.574181	0.806284	0.371049	6
N	0.868199	0.778984	0.202969	7
C	1.589269	0.774144	-0.937381	6
N	0.932639	0.835184	-2.108561	7
S	3.246839	0.722184	-0.894391	16
H	-1.262111	-2.460726	1.357259	1
H	-0.993871	-1.052316	2.397519	1
H	0.325009	-1.680086	1.389439	1
H	-2.288721	-0.486496	0.324159	1
H	-0.947751	-1.059776	-0.668361	1
H	-0.777891	1.260844	1.346419	1
H	-1.010021	1.455834	-0.394911	1
H	1.429059	0.716024	1.045249	1
H	-0.060941	0.684774	-2.181641	1
H	1.474789	0.785194	-2.962291	1
Es	3.357489	0.621506	-0.380440	99
Es	-1.197437	-0.585658	0.287862	99
Es	-1.020566	-0.900109	-0.365980	99
Es	0.868207	0.778856	0.202879	99
Es	3.334123	0.820707	-0.903962	99
Es	-0.752867	-1.494349	1.425614	99
Es	1.061304	1.051105	-0.099057	99
Es	2.311111	0.688023	-0.915395	99
Es	-0.573983	0.806258	0.371009	99
Es	-0.016943	-1.612496	1.399711	99
Es	0.341169	0.729444	-2.143557	99
Es	3.248023	0.718985	-0.900921	99
Es	-0.875518	0.110466	0.326939	99
Es	3.253807	0.705732	-0.929409	99
Es	-0.919344	-1.184206	2.081162	99
Es	0.257316	0.779369	0.254238	99
Es	2.993581	1.007705	-0.905759	99
Es	1.183419	0.741806	0.697910	99
Es	3.282263	0.633884	-0.832580	99
Es	0.932677	0.834904	-2.108475	99
Es	1.167721	0.625352	-1.685022	99
Es	3.398207	0.597944	-1.399625	99
Es	3.114086	0.731610	-0.905225	99
Es	1.029212	1.107975	-1.893265	99
Es	-0.708467	1.109288	1.031913	99
Es	1.589096	0.774157	-0.937392	99
Es	1.059680	0.521860	-0.141227	99
Es	-0.967920	-1.032892	0.858293	99
Es	-1.105766	-2.149582	1.376709	99
Es	-0.866896	1.244688	-0.156820	99
Es	-1.948698	-0.512057	0.313203	99
Es	1.242572	0.789878	-2.603534	99
49
Properties=species:S:1:pos:R:3:Z:I:1 energy=-663.8546082551828 field_type=dipole dipole="0.000000 0.000000 0.000000" charge=0
C	-0.752851	-1.494376	1.425639	6
C	-1.197461	-0.585676	0.287839	6
C	-0.574181	0.806284	0.371049	6
N	0.868199	0.778984	0.202969	7
C	1.589269	0.774144	-0.937381	6
N	0.932639	0.835184	-2.108561	7
S	3.246839	0.722184	-0.894391	16
H	-1.262111	-2.460726	1.357259	1
H	-0.993871	-1.052316	2.397519	1
H	0.325009	-1.680086	1.389439	1
H	-2.288721	-0.486496	0.324159	1
H	-0.947751	-1.059776	-0.668361	1
H	-0.777891	1.260844	1.346419	1
H	-1.010021	1.455834	-0.394911	1
H	1.429059	0.716024	1.045249	1
H	-0.060941	0.684774	-2.181641	1
H	1.474789	0.785194	-2.962291	1
Es	1.173998	0.627829	-1.667518	99
Es	3.398697	0.830272	-1.398195	99
Es	-0.752867	-1.494349	1.425613	99
Es	1.182950	0.726088	0.696603	99
Es	-0.708005	1.107162	1.031997	99
Es	2.315608	0.820054	-0.918733	99
Es	-0.968416	-1.032981	0.858114	99
Es	3.158168	0.812472	-0.922425	99
Es	3.370426	0.738167	-0.929356	99
Es	-1.197436	-0.585658	0.287860	99
Es	1.240700	0.785797	-2.602571	99
Es	0.868223	0.778788	0.202851	99
Es	3.246937	0.721938	-0.894196	99
Es	1.029139	1.088344	-1.910234	99
Es	1.036626	1.041409	-0.042211	99
Es	-0.875584	0.109261	0.327415	99
Es	-0.015877	-1.615658	1.400230	99
Es	0.932717	0.834831	-2.108413	99
Es	-0.869203	1.246217	-0.158836	99
Es	-0.573980	0.806259	0.371010	99
Es	2.990883	0.397086	-0.884558	99
Es	-1.020166	-0.898385	-0.366706	99
Es	-0.920405	-1.186203	2.082231	99
Es	3.249586	0.724196	-0.815574	99
Es	-1.949314	-0.509581	0.312504	99
Es	1.589096	0.774157	-0.937392	99
Es	3.207397	0.614568	-0.910596	99
Es	0.256639	0.788356	0.254413	99
Es	-1.103412	-2.145436	1.377573	99
Es	0.336586	0.752480	-2.144557	99
Es	3.355316	0.864237	-0.399531	99
Es	1.085628	0.538436	-0.197016	99
49
Properties=species:S:1:pos:R:3:Z:I:1 energy=-663.8546082551828 field_type=dipole dipole="0.000000 0.000000 0.000000" charge=0
C	-0.752851	-1.494376	1.425639	6
C	-1.197461	-0.585676	0.287839	6
C	-0.574181	0.806284	0.371049	6
N	0.868199	0.778984	0.202969	7
C	1.589269	0.774144	-0.937381	6
N	0.932639	0.835184	-2.108561	7
S	3.246839	0.722184	-0.894391	16
H	-1.262111	-2.460726	1.357259	1
H	-0.993871	-1.052316	2.397519	1
H	0.325009	-1.680086	1.389439	1
H	-2.288721	-0.486496	0.324159	1
H	-0.947751	-1.059776	-0.668361	1
H	-0.777891	1.260844	1.346419	1
H	-1.010021	1.455834	-0.394911	1
H	1.429059	0.716024	1.045249	1
H	-0.060941	0.684774	-2.181641	1
H	1.474789	0.785194	-2.962291	1
Es	1.038724	1.042255	-0.044681	99
Es	3.136286	0.771295	-0.944050	99
Es	3.228005	0.627727	-0.845363	99
Es	1.030752	1.091677	-1.909992	99
Es	0.868206	0.778923	0.202890	99
Es	1.182930	0.724866	0.696268	99
Es	-0.573984	0.806259	0.371007	99
Es	0.256723	0.789565	0.254684	99
Es	3.354438	0.867569	-0.401403	99
Es	-0.015651	-1.615679	1.400440	99
Es	1.083522	0.537539	-0.194645	99
Es	-0.875393	0.109314	0.327584	99
Es	3.399297	0.827836	-1.398623	99
Es	-0.920150	-1.186313	2.081549	99
Es	3.246809	0.722169	-0.894400	99
Es	1.173083	0.627569	-1.668812	99
Es	3.353211	0.714885	-0.965831	99
Es	0.336442	0.752418	-2.144445	99
Es	-1.197436	-0.585656	0.287863	99
Es	-0.968582	-1.032847	0.857896	99
Es	3.268050	0.774929	-0.822471	99
Es	0.932687	0.834930	-2.108462	99
Es	1.240138	0.782731	-2.601412	99
Es	2.315432	0.820010	-0.918987	99
Es	-0.707846	1.106841	1.031629	99
Es	-0.752866	-1.494349	1.425613	99
Es	-0.869391	1.246530	-0.158673	99
Es	-1.020110	-0.898282	-0.366294	99
Es	1.589096	0.774157	-0.937392	99
Es	2.991615	0.396523	-0.881955	99
Es	-1.949564	-0.509780	0.312342	99
Es	-1.103816	-2.145458	1.377922	99
49
Properties=species:S:1:pos:R:3:Z:I:1 energy=-663.8546082551828 field_type=dipole dipole="0.000000 0.000000 0.000000" charge=0
C	-0.752851	-1.494376	1.425639	6
C	-1.197461	-0.585676	0.287839	6
C	-0.574181	0.806284	0.371049	6
N	0.868199	0.778984	0.202969	7
C	1.589269	0.774144	-0.937381	6
N	0.932639	0.835184	-2.108561	7
S	3.246839	0.722184	-0.894391	16
H	-1.262111	-2.460726	1.357259	1
H	-0.993871	-1.052316	2.397519	1
H	0.325009	-1.680086	1.389439	1
H	-2.288721	-0.486496	0.324159	1
H	-0.947751	-1.059776	-0.668361	1
H	-0.777891	1.260844	1.346419	1
H	-1.010021	1.455834	-0.394911	1
H	1.429059	0.716024	1.045249	1
H	-0.060941	0.684774	-2.181641	1
H	1.474789	0.785194	-2.962291	1
Es	1.056330	0.522533	-0.134253	99
Es	-0.573984	0.806258	0.371010	99
Es	-0.708440	1.109205	1.031122	99
Es	-0.919188	-1.184586	2.079955	99
Es	2.991467	1.000735	-0.906939	99
Es	1.065286	1.051151	-0.105710	99
Es	0.340100	0.731830	-2.143948	99
Es	-0.752867	-1.494348	1.425612	99
Es	1.033227	1.108984	-1.888196	99
Es	0.868204	0.778817	0.202881	99
Es	2.310574	0.687941	-0.915664	99
Es	-1.020578	-0.899806	-0.365006	99
Es	3.398900	0.600236	-1.399433	99
Es	1.589095	0.774157	-0.937392	99
Es	-1.197437	-0.585657	0.287861	99
Es	3.231905	0.729576	-0.977443	99
Es	3.246895	0.722799	-0.894353	99
Es	0.257153	0.778803	0.254463	99
Es	1.183131	0.741611	0.697368	99
Es	3.359353	0.626537	-0.379172	99
Es	-0.875408	0.110379	0.326977	99
Es	-0.866849	1.244803	-0.156625	99
Es	-1.106296	-2.149695	1.377138	99
Es	0.932702	0.834808	-2.108445	99
Es	1.241896	0.790211	-2.602878	99
Es	3.374873	0.704678	-0.885178	99
Es	3.166973	0.628998	-0.857681	99
Es	1.165277	0.621848	-1.690121	99
Es	-0.968087	-1.032863	0.858321	99
Es	-1.949202	-0.512381	0.312825	99
Es	3.212006	0.824658	-0.857348	99
Es	-0.016355	-1.612068	1.400048	99
49
Properties=species:S:1:pos:R:3:Z:I:1 energy=-663.8546082551828 field_type=dipole dipole="0.000000 0.000000 0.000000" charge=0
C	-0.752851	-1.494376	1.425639	6
C	-1.197461	-0.585676	0.287839	6
C	-0.574181	0.806284	0.371049	6
N	0.868199	0.778984	0.202969	7
C	1.589269	0.774144	-0.937381	6
N	0.932639	0.835184	-2.108561	7
S	3.246839	0.722184	-0.894391	16
H	-1.262111	-2.460726	1.357259	1
H	-0.993871	-1.052316	2.397519	1
H	0.325009	-1.680086	1.389439	1
H	-2.288721	-0.486496	0.324159	1
H	-0.947751	-1.059776	-0.668361	1
H	-0.777891	1.260844	1.346419	1
H	-1.010021	1.455834	-0.394911	1
H	1.429059	0.716024	1.045249	1
H	-0.060941	0.684774	-2.181641	1
H	1.474789	0.785194	-2.962291	1
Es	-0.573983	0.806259	0.371008	99
Es	3.400774	0.828155	-1.398990	99
Es	-0.968449	-1.032935	0.857974	99
Es	3.118100	0.693163	-0.889261	99
Es	0.336384	0.753899	-2.144398	99
Es	1.240567	0.786040	-2.602747	99
Es	-1.949404	-0.509604	0.312463	99
Es	1.082683	0.535504	-0.192149	99
Es	3.246748	0.722173	-0.894003	99
Es	1.030874	1.088382	-1.907686	99
Es	2.987801	0.403688	-0.885934	99
Es	1.172739	0.625831	-1.669894	99
Es	0.932643	0.835228	-2.108503	99
Es	3.270352	0.836253	-0.889401	99
Es	1.182942	0.727057	0.696633	99
Es	-1.197438	-0.585658	0.287862	99
Es	-0.869465	1.246374	-0.158858	99
Es	1.589096	0.774158	-0.937393	99
Es	-0.707951	1.106867	1.031911	99
Es	-0.015803	-1.615839	1.400323	99
Es	3.350418	0.637096	-0.902807	99
Es	2.315572	0.820722	-0.918330	99
Es	3.356643	0.859314	-0.397801	99
Es	3.246626	0.722351	-0.896654	99
Es	0.868216	0.778819	0.202861	99
Es	-1.020131	-0.898388	-0.366582	99
Es	-0.875440	0.109383	0.327412	99
Es	1.039484	1.041940	-0.047287	99
Es	-0.752867	-1.494347	1.425612	99
Es	0.256738	0.789712	0.254571	99
Es	-0.920330	-1.186166	2.082008	99
Es	-1.103486	-2.145279	1.377835	99
49
Properties=species:S:1:pos:R:3:Z:I:1 energy=-663.8546082551828 field_type=dipole dipole="0.000000 0.000000 0.000000" charge=0
C	-0.752851	-1.494376	1.425639	6
C	-1.197461	-0.585676	0.287839	6
C	-0.574181	0.806284	0.371049	6
N	0.868199	0.778984	0.202969	7
C	1.589269	0.774144	-0.937381	6
N	0.932639	0.835184	-2.108561	7
S	3.246839	0.722184	-0.894391	16
H	-1.262111	-2.460726	1.357259	1
H	-0.993871	-1.052316	2.397519	1
H	0.325009	-1.680086	1.389439	1
H	-2.288721	-0.486496	0.324159	1
H	-0.947751	-1.059776	-0.668361	1
H	-0.777891	1.260844	1.346419	1
H	-1.010021	1.455834	-0.394911	1
H	1.429059	0.716024	1.045249	1
H	-0.060941	0.684774	-2.181641	1
H	1.474789	0.785194	-2.962291	1
Es	-1.020159	-0.897947	-0.365996	99
Es	3.247416	0.778763	-0.969331	99
Es	1.589096	0.774158	-0.937393	99
Es	-0.869636	1.246835	-0.158508	99
Es	-0.015360	-1.615793	1.400431	99
Es	3.246625	0.723438	-0.894721	99
Es	1.171975	0.625155	-1.671301	99
Es	1.082923	0.535972	-0.193128	99
Es	0.336114	0.754190	-2.144462	99
Es	-1.197436	-0.585658	0.287861	99
Es	-0.968392	-1.032869	0.858063	99
Es	0.932723	0.834831	-2.108405	99
Es	-0.920255	-1.186622	2.081410	99
Es	3.355034	0.861405	-0.399924	99
Es	-1.103819	-2.145111	1.377835	99
Es	3.401146	0.827958	-1.398418	99
Es	-0.573983	0.806258	0.371011	99
Es	-0.707670	1.106495	1.031328	99
Es	3.250435	0.790330	-0.817532	99
Es	-0.875521	0.109195	0.327516	99
Es	2.988709	0.400628	-0.884374	99
Es	0.256756	0.790638	0.254741	99
Es	0.868244	0.778671	0.202806	99
Es	1.032244	1.090838	-1.906894	99
Es	3.130355	0.667375	-0.893218	99
Es	1.182334	0.725373	0.695834	99
Es	1.240143	0.784425	-2.601815	99
Es	2.315799	0.822040	-0.918459	99
Es	-0.752866	-1.494350	1.425615	99
Es	-1.949824	-0.509808	0.312286	99
Es	1.039802	1.042458	-0.045834	99
Es	3.357702	0.650881	-0.897229	99
49
Properties=species:S:1:pos:R:3:Z:I:1 energy=-663.8546082551828 field_type=dipole dipole="0.000000 0.000000 0.000000" charge=0
C	-0.752851	-1.494376	1.425639	6
C	-1.197461	-0.585676	0.287839	6
C	-0.574181	0.806284	0.371049	6
N	0.868199	0.778984	0.202969	7
C	1.589269	0.774144	-0.937381	6
N	0.932639	0.835184	-2.108561	7
S	3.246839	0.722184	-0.894391	16
H	-1.262111	-2.460726	1.357259	1
H	-0.993871	-1.052316	2.397519	1
H	0.325009	-1.680086	1.389439	1
H	-2.288721	-0.486496	0.324159	1
H	-0.947751	-1.059776	-0.668361	1
H	-0.777891	1.260844	1.346419	1
H	-1.010021	1.455834	-0.394911	1
H	1.429059	0.716024	1.045249	1
H	-0.060941	0.684774	-2.181641	1
H	1.474789	0.785194	-2.962291	1
Es	-1.106594	-2.149614	1.377191	99
Es	0.868229	0.779044	0.202866	99
Es	-1.020578	-0.899541	-0.364468	99
Es	-0.866876	1.245074	-0.156342	99
Es	3.247113	0.722274	-0.894177	99
Es	3.235262	0.729729	-0.973666	99
Es	-1.949515	-0.512563	0.312610	99
Es	1.064495	1.050426	-0.105206	99
Es	-0.016000	-1.611945	1.400300	99
Es	1.589096	0.774159	-0.937392	99
Es	0.257120	0.778727	0.254765	99
Es	3.330252	0.814699	-0.869223	99
Es	-0.573980	0.806256	0.371010	99
Es	-0.919246	-1.184796	2.079381	99
Es	-0.967992	-1.032905	0.858338	99
Es	1.166003	0.622750	-1.689033	99
Es	1.241713	0.789706	-2.602429	99
Es	-0.708303	1.108941	1.030741	99
Es	0.932710	0.834793	-2.108431	99
Es	3.359794	0.625341	-0.379900	99
Es	3.400105	0.604296	-1.400173	99
Es	1.183272	0.742771	0.697148	99
Es	3.293786	0.614718	-0.889058	99
Es	1.057021	0.522049	-0.134892	99
Es	0.340144	0.731081	-2.143965	99
Es	3.125771	0.729435	-0.845884	99
Es	1.032575	1.109368	-1.889512	99
Es	-0.752867	-1.494350	1.425615	99
Es	2.310422	0.687580	-0.915872	99
Es	-0.875431	0.110250	0.326870	99
Es	2.990588	0.998057	-0.905277	99
Es	-1.197435	-0.585659	0.287861	99
49
Properties=species:S:1:pos:R:3:Z:I:1 energy=-663.8546082551828 field_type=dipole dipole="0.000000 0.000000 0.000000" charge=0
C	-0.752851	-1.494376	1.425639	6
C	-1.197461	-0.585676	0.287839	6
C	-0.574181	0.806284	0.371049	6
N	0.868199	0.778984	0.202969	7
C	1.589269	0.774144	-0.937381	6
N	0.932639	0.835184	-2.108561	7
S	3.246839	0.722184	-0.894391	16
H	-1.262111	-2.460726	1.357259	1
H	-0.993871	-1.052316	2.397519	1
H	0.325009	-1.680086	1.389439	1
H	-2.288721	-0.486496	0.324159	1
H	-0.947751	-1.059776	-0.668361	1
H	-0.777891	1.260844	1.346419	1
H	-1.010021	1.455834	-0.394911	1
H	1.429059	0.716024	1.045249	1
H	-0.060941	0.684774	-2.181641	1
H	1.474789	0.785194	-2.962291	1
Es	1.171018	0.623477	-1.673263	99
Es	1.041872	1.042457	-0.050455	99
Es	-1.197438	-0.585658	0.287862	99
Es	2.986463	0.406613	-0.881664	99
Es	-0.015182	-1.615643	1.400712	99
Es	-0.752866	-1.494350	1.425614	99
Es	0.868215	0.778800	0.202861	99
Es	-0.573982	0.806259	0.371009	99
Es	0.335819	0.755109	-2.144783	99
Es	3.245456	0.720649	-0.893518	99
Es	3.227150	0.687315	-0.981440	99
Es	-0.920281	-1.186733	2.080957	99
Es	1.033700	1.091724	-1.905200	99
Es	3.373468	0.744071	-0.890385	99
Es	-0.869854	1.247083	-0.158458	99
Es	3.220331	0.639143	-0.830645	99
Es	-1.103974	-2.145195	1.377931	99
Es	2.315594	0.822256	-0.919009	99
Es	3.355520	0.861963	-0.400264	99
Es	1.182611	0.726679	0.696035	99
Es	1.589096	0.774157	-0.937393	99
Es	-1.020276	-0.897964	-0.365757	99
Es	-0.707435	1.106297	1.030945	99
Es	-0.875263	0.109060	0.327742	99
Es	-0.968463	-1.032865	0.857917	99
Es	0.256556	0.790830	0.254668	99
Es	1.080838	0.534354	-0.188749	99
Es	3.403183	0.820549	-1.400222	99
Es	3.166133	0.820351	-0.876013	99
Es	-1.949956	-0.509706	0.312310	99
Es	0.932753	0.834790	-2.108354	99
Es	1.239853	0.784281	-2.601194	99
49
Properties=species:S:1:pos:R:3:Z:I:1 energy=-663.8546082551828 field_type=dipole dipole="0.000000 0.000000 0.000000" charge=0
C	-0.752851	-1.494376	1.425639	6
C	-1.197461	-0.585676	0.287839	6
C	-0.574181	0.806284	0.371049	6
N	0.868199	0.778984	0.202969	7
C	1.589269	0.774144	-0.937381	6
N	0.932639	0.835184	-2.108561	7
S	3.246839	0.722184	-0.894391	16
H	-1.262111	-2.460726	1.357259	1
H	-0.993871	-1.052316	2.397519	1
H	0.325009	-1.680086	1.389439	1
H	-2.288721	-0.486496	0.324159	1
H	-0.947751	-1.059776	-0.668361	1
H	-0.777891	1.260844	1.346419	1
H	-1.010021	1.455834	-0.394911	1
H	1.429059	0.716024	1.045249	1
H	-0.060941	0.684774	-2.181641	1
H	1.474789	0.785194	-2.962291	1
Es	3.123992	0.766294	-0.886222	99
Es	1.034276	1.110398	-1.887245	99
Es	-0.708229	1.108928	1.030629	99
Es	2.992154	1.001167	-0.906131	99
Es	1.066827	1.049914	-0.108947	99
Es	3.246844	0.722177	-0.894419	99
Es	0.256976	0.779141	0.254451	99
Es	3.346728	0.803745	-0.893188	99
Es	0.868220	0.778913	0.202868	99
Es	3.400573	0.600420	-1.398974	99
Es	-1.106883	-2.149563	1.377213	99
Es	-0.919218	-1.184649	2.079193	99
Es	-0.866958	1.245039	-0.156206	99
Es	-0.015858	-1.611933	1.400195	99
Es	-0.875332	0.110293	0.326933	99
Es	0.339920	0.731285	-2.143882	99
Es	2.310328	0.687901	-0.915555	99
Es	3.261623	0.648800	-0.822012	99
Es	-0.573983	0.806258	0.371009	99
Es	1.164441	0.622171	-1.691547	99
Es	-1.949603	-0.512684	0.312701	99
Es	-0.967956	-1.032893	0.858411	99
Es	-1.197437	-0.585657	0.287861	99
Es	0.932693	0.834886	-2.108450	99
Es	1.183111	0.743030	0.697063	99
Es	3.358092	0.625794	-0.380438	99
Es	3.252795	0.669949	-0.976299	99
Es	1.055016	0.522038	-0.130932	99
Es	1.589096	0.774157	-0.937392	99
Es	-0.752867	-1.494349	1.425614	99
Es	-1.020560	-0.899700	-0.364316	99
Es	1.241835	0.788883	-2.602191	99
49
Properties=species:S:1:pos:R:3:Z:I:1 energy=-663.8546082551828 field_type=dipole dipole="0.000000 0.000000 0.000000" charge=0
C	-0.752851	-1.494376	1.425639	6
C	-1.197461	-0.585676	0.287839	6
C	-0.574181	0.806284	0.371049	6
N	0.868199	0.778984	0.202969	7
C	1.589269	0.774144	-0.937381	6
N	0.932639	0.835184	-2.108561	7
S	3.246839	0.722184	-0.894391	16
H	-1.262111	-2.460726	1.357259	1
H	-0.993871	-1.052316	2.397519	1
H	0.325009	-1.680086	1.389439	1
H	-2.288721	-0.486496	0.324159	1
H	-0.947751	-1.059776	-0.668361	1
H	-0.777891	1.260844	1.346419	1
H	-1.010021	1.455834	-0.394911	1
H	1.429059	0.716024	1.045249	1
H	-0.060941	0.684774	-2.181641	1
H	1.474789	0.785194	-2.962291	1
Es	-0.869648	1.246946	-0.158310	99
Es	2.315053	0.820876	-0.919310	99
Es	-1.197439	-0.585658	0.287862	99
Es	0.256630	0.791440	0.254817	99
Es	1.080008	0.532845	-0.186928	99
Es	-1.020218	-0.897881	-0.365615	99
Es	3.355512	0.865972	-0.401369	99
Es	2.987332	0.407803	-0.879292	99
Es	1.240220	0.784151	-2.601377	99
Es	-1.104090	-2.145138	1.377854	99
Es	1.042623	1.041885	-0.052568	99
Es	-0.707625	1.106391	1.031023	99
Es	-1.950048	-0.509749	0.312193	99
Es	0.335624	0.755450	-2.144574	99
Es	-0.920291	-1.186589	2.081056	99
Es	1.032261	1.089167	-1.907763	99
Es	1.589096	0.774157	-0.937392	99
Es	-0.015128	-1.615681	1.400500	99
Es	3.368396	0.680523	-0.920059	99
Es	-0.968342	-1.033026	0.858106	99
Es	3.250687	0.742260	-0.821948	99
Es	3.402837	0.817512	-1.401267	99
Es	1.182691	0.728123	0.696099	99
Es	-0.752867	-1.494349	1.425613	99
Es	-0.573983	0.806259	0.371009	99
Es	-0.875385	0.109068	0.327466	99
Es	0.932711	0.834858	-2.108426	99
Es	3.246896	0.722326	-0.894624	99
Es	3.167595	0.637999	-0.887707	99
Es	3.199037	0.827613	-0.947592	99
Es	0.868214	0.778853	0.202870	99
Es	1.172300	0.625745	-1.670553	99
49
Properties=species:S:1:pos:R:3:Z:I:1 energy=-663.8546082551828 field_type=dipole dipole="0.000000 0.000000 0.000000" charge=0
C	-0.752851	-1.494376	1.425639	6
C	-1.197461	-0.585676	0.287839	6
C	-0.574181	0.806284	0.371049	6
N	0.868199	0.778984	0.202969	7
C	1.589269	0.774144	-0.937381	6
N	0.932639	0.835184	-2.108561	7
S	3.246839	0.722184	-0.894391	16
H	-1.262111	-2.460726	1.357259	1
H	-0.993871	-1.052316	2.397519	1
H	0.325009	-1.680086	1.389439	1
H	-2.288721	-0.486496	0.324159	1
H	-0.947751	-1.059776	-0.668361	1
H	-0.777891	1.260844	1.346419	1
H	-1.010021	1.455834	-0.394911	1
H	1.429059	0.716024	1.045249	1
H	-0.060941	0.684774	-2.181641	1
H	1.474789	0.785194	-2.962291	1
Es	-0.708304	1.109032	1.031029	99
Es	0.932733	0.834768	-2.108393	99
Es	2.987953	0.990263	-0.905828	99
Es	1.057550	0.522962	-0.136573	99
Es	1.063859	1.051109	-0.103442	99
Es	0.339831	0.732890	-2.144133	99
Es	1.241641	0.791698	-2.603074	99
Es	-0.752868	-1.494348	1.425613	99
Es	3.401345	0.607007	-1.401365	99
Es	3.263325	0.603959	-0.890200	99
Es	0.257135	0.778372	0.254460	99
Es	1.161424	0.617517	-1.697972	99
Es	-0.866998	1.244953	-0.156527	99
Es	-1.949393	-0.512530	0.312751	99
Es	1.037591	1.110765	-1.879963	99
Es	-0.919256	-1.184640	2.079780	99
Es	3.361116	0.629911	-0.378302	99
Es	0.868217	0.778927	0.202871	99
Es	-0.016197	-1.612061	1.400133	99
Es	-1.106404	-2.149614	1.377126	99
Es	3.246864	0.722404	-0.891092	99
Es	3.246722	0.722266	-0.892312	99
Es	-0.573984	0.806259	0.371010	99
Es	3.354303	0.801470	-0.902980	99
Es	-1.020561	-0.899700	-0.364699	99
Es	2.310224	0.688179	-0.915765	99
Es	1.183329	0.741581	0.697306	99
Es	3.121147	0.760702	-0.895369	99
Es	-1.197438	-0.585658	0.287861	99
Es	-0.875314	0.110413	0.327014	99
Es	1.589096	0.774156	-0.937392	99
Es	-0.968031	-1.032859	0.858221	99
49
Properties=species:S:1:pos:R:3:Z:I:1 energy=-663.8546082551828 field_type=dipole dipole="0.000000 0.000000 0.000000" charge=0
C	-0.752851	-1.494376	1.425639	6
C	-1.197461	-0.585676	0.287839	6
C	-0.574181	0.806284	0.371049	6
N	0.868199	0.778984	0.202969	7
C	1.589269	0.774144	-0.937381	6
N	0.932639	0.835184	-2.108561	7
S	3.246839	0.722184	-0.894391	16
H	-1.262111	-2.460726	1.357259	1
H	-0.993871	-1.052316	2.397519	1
H	0.325009	-1.680086	1.389439	1
H	-2.288721	-0.486496	0.324159	1
H	-0.947751	-1.059776	-0.668361	1
H	-0.777891	1.260844	1.346419	1
H	-1.010021	1.455834	-0.394911	1
H	1.429059	0.716024	1.045249	1
H	-0.060941	0.684774	-2.181641	1
H	1.474789	0.785194	-2.962291	1
Es	1.065250	1.050494	-0.105885	99
Es	-0.967997	-1.032895	0.858522	99
Es	-0.752867	-1.494349	1.425613	99
Es	0.339479	0.732210	-2.144123	99
Es	-1.197438	-0.585658	0.287862	99
Es	-0.573984	0.806258	0.371008	99
Es	1.183113	0.742278	0.696878	99
Es	-0.867045	1.245219	-0.155991	99
Es	1.056673	0.523065	-0.133938	99
Es	3.372275	0.757535	-0.906436	99
Es	2.310083	0.687870	-0.915690	99
Es	3.207374	0.707529	-0.985128	99
Es	1.162576	0.619805	-1.695604	99
Es	3.246744	0.721753	-0.895274	99
Es	1.589096	0.774154	-0.937392	99
Es	1.241595	0.789852	-2.602022	99
Es	3.172746	0.801638	-0.841399	99
Es	-0.919055	-1.184861	2.078436	99
Es	2.990875	0.997163	-0.906051	99
Es	3.400143	0.603181	-1.399582	99
Es	-1.020526	-0.899481	-0.363793	99
Es	3.359602	0.627056	-0.379844	99
Es	0.932692	0.834883	-2.108456	99
Es	-0.015558	-1.611685	1.400389	99
Es	-1.107269	-2.149629	1.377489	99
Es	-0.875333	0.110165	0.326994	99
Es	3.233406	0.622429	-0.843725	99
Es	-0.708032	1.108765	1.030253	99
Es	-1.949884	-0.512818	0.312430	99
Es	0.868219	0.778867	0.202865	99
Es	1.036762	1.110916	-1.882989	99
Es	0.256942	0.778444	0.254380	99
49
Properties=species:S:1:pos:R:3:Z:I:1 energy=-663.8546082551828 field_type=dipole dipole="0.000000 0.000000 0.000000" charge=0
C	-0.752851	-1.494376	1.425639	6
C	-1.197461	-0.585676	0.287839	6
C	-0.574181	0.806284	0.371049	6
N	0.868199	0.778984	0.202969	7
C	1.589269	0.774144	-0.937381	6
N	0.932639	0.835184	-2.108561	7
S	3.246839	0.722184	-0.894391	16
H	-1.262111	-2.460726	1.357259	1
H	-0.993871	-1.052316	2.397519	1
H	0.325009	-1.680086	1.389439	1
H	-2.288721	-0.486496	0.324159	1
H	-0.947751	-1.059776	-0.668361	1
H	-0.777891	1.260844	1.346419	1
H	-1.010021	1.455834	-0.394911	1
H	1.429059	0.716024	1.045249	1
H	-0.060941	0.684774	-2.181641	1
H	1.474789	0.785194	-2.962291	1
Es	0.868203	0.778884	0.202901	99
Es	3.358094	0.623229	-0.381476	99
Es	-0.919013	-1.184947	2.078363	99
Es	-1.020669	-0.899380	-0.363678	99
Es	-0.752867	-1.494349	1.425614	99
Es	-0.573983	0.806258	0.371009	99
Es	3.371344	0.699393	-0.919355	99
Es	0.339439	0.732302	-2.144004	99
Es	3.246551	0.722090	-0.894025	99
Es	-0.015533	-1.611727	1.400423	99
Es	-1.949944	-0.512931	0.312567	99
Es	3.165140	0.687497	-0.980677	99
Es	3.221268	0.672224	-0.810040	99
Es	-0.875211	0.110206	0.326949	99
Es	1.038096	1.111924	-1.881151	99
Es	0.932691	0.834901	-2.108456	99
Es	3.228495	0.829704	-0.867941	99
Es	2.310234	0.687209	-0.915791	99
Es	-1.197437	-0.585657	0.287862	99
Es	-0.867024	1.245204	-0.155962	99
Es	0.257017	0.777931	0.254596	99
Es	1.161732	0.618771	-1.697580	99
Es	1.589096	0.774157	-0.937393	99
Es	-0.967915	-1.032845	0.858331	99
Es	-1.107345	-2.149591	1.377479	99
Es	3.401686	0.607483	-1.400803	99
Es	1.064420	1.051590	-0.103628	99
Es	1.182722	0.741456	0.696448	99
Es	-0.708111	1.108728	1.030144	99
Es	1.241200	0.789673	-2.601879	99
Es	2.990476	0.997394	-0.903164	99
Es	1.057805	0.523373	-0.135887	99
