50
Properties=species:S:1:pos:R:3:Z:I:1 energy=-704.6453315024488 field_type=dipole dipole="0.000000 0.000000 0.000000" charge=0
C	-2.279668	-1.303090	0.136516	6
C	-0.761688	-1.249340	0.178716	6
C	-0.250878	0.171320	-0.022204	6
S	1.533562	0.240450	0.036586	16
C	1.871933	1.953880	-0.284364	6
O	1.951962	-0.041290	1.396096	8
O	2.053473	-0.522280	-1.082524	8
H	-2.626368	-2.332450	0.269996	1
H	-2.658698	-0.938750	-0.823534	1
H	-2.715758	-0.691650	0.932966	1
H	-0.355508	-1.907100	-0.598274	1
H	-0.411438	-1.642730	1.139886	1
H	-0.626288	0.836560	0.761316	1
H	-0.557548	0.559140	-0.999134	1
H	1.473463	2.213800	-1.266663	1
H	2.954153	2.095420	-0.270984	1
H	1.405292	2.558110	0.495596	1
Es	2.325069	-0.420175	-1.018028	99
Es	1.751382	0.190649	1.454804	99
Es	2.580918	2.029994	-0.272222	99
Es	-0.489204	-1.684518	-0.350188	99
Es	-0.250732	0.171324	-0.022203	99
Es	-2.510173	-2.001564	0.227300	99
Es	1.533561	0.240452	0.036582	99
Es	-2.572673	-0.881181	0.680011	99
Es	1.867052	-0.334470	-1.244202	99
Es	-1.516353	-1.258009	0.155195	99
Es	1.552600	2.343162	0.236250	99
Es	-2.533477	-1.050032	-0.519920	99
Es	-0.526743	-1.505264	0.829389	99
Es	1.444865	0.250274	0.114904	99
Es	-0.761694	-1.249232	0.178701	99
Es	1.843600	-0.315756	1.380040	99
Es	-0.487831	0.622850	0.503380	99
Es	1.568380	0.127264	0.030528	99
Es	1.871896	1.953766	-0.284343	99
Es	1.810131	0.041735	0.882885	99
Es	2.053354	-0.522101	-1.082253	99
Es	1.867665	-0.253178	-0.653911	99
Es	2.228516	0.036225	1.325955	99
Es	0.577511	0.208715	0.003868	99
Es	-0.441387	0.436571	-0.678799	99
Es	1.706028	1.174954	-0.138556	99
Es	1.597740	2.114248	-0.935255	99
Es	-2.279628	-1.303081	0.136516	99
Es	1.951864	-0.041241	1.395796	99
Es	-0.473993	-0.513210	0.076186	99
Es	1.495711	0.275521	-0.069924	99
Es	1.939356	-0.772524	-0.971917	99
Es	1.625206	0.308876	0.070812	99
50
Properties=species:S:1:pos:R:3:Z:I:1 energy=-704.6453315024488 field_type=dipole dipole="0.000000 0.000000 0.000000" charge=0
C	-2.279668	-1.303090	0.136516	6
C	-0.761688	-1.249340	0.178716	6
C	-0.250878	0.171320	-0.022204	6
S	1.533562	0.240450	0.036586	16
C	1.871933	1.953880	-0.284364	6
O	1.951962	-0.041290	1.396096	8
O	2.053473	-0.522280	-1.082524	8
H	-2.626368	-2.332450	0.269996	1
H	-2.658698	-0.938750	-0.823534	1
H	-2.715758	-0.691650	0.932966	1
H	-0.355508	-1.907100	-0.598274	1
H	-0.411438	-1.642730	1.139886	1
H	-0.626288	0.836560	0.761316	1
H	-0.557548	0.559140	-0.999134	1
H	1.473463	2.213800	-1.266663	1
H	2.954153	2.095420	-0.270984	1
H	1.405292	2.558110	0.495596	1
Es	-0.526879	-1.505111	0.830627	99
Es	2.224018	0.015312	1.323945	99
Es	-0.441349	0.436199	-0.680159	99
Es	-0.250750	0.171319	-0.022201	99
Es	1.433292	0.208335	-0.017598	99
Es	1.835247	-0.305128	1.377216	99
Es	1.622889	0.180198	-0.009583	99
Es	1.526029	0.219215	0.156106	99
Es	1.552839	2.343728	0.237800	99
Es	1.951842	-0.041193	1.395782	99
Es	0.576532	0.207713	0.003908	99
Es	-2.279630	-1.303080	0.136515	99
Es	1.870976	-0.331977	-1.255597	99
Es	2.316302	-0.429666	-1.013559	99
Es	1.761192	0.201366	1.465762	99
Es	1.941628	-0.764278	-0.974657	99
Es	2.053380	-0.522134	-1.082294	99
Es	-2.508874	-2.000575	0.227095	99
Es	-0.487889	0.623188	0.504708	99
Es	1.598026	2.114132	-0.936864	99
Es	-0.489288	-1.684828	-0.351569	99
Es	-0.761697	-1.249232	0.178701	99
Es	1.870172	-0.254352	-0.644364	99
Es	1.551980	0.354240	0.017386	99
Es	-1.516158	-1.257898	0.155270	99
Es	1.533561	0.240409	0.036594	99
Es	-0.473888	-0.512947	0.076298	99
Es	1.813127	0.041373	0.876905	99
Es	1.871897	1.953764	-0.284342	99
Es	-2.572956	-0.881060	0.681481	99
Es	1.707160	1.175678	-0.138605	99
Es	2.579248	2.028764	-0.272093	99
Es	-2.533463	-1.050429	-0.521232	99
50
Properties=species:S:1:pos:R:3:Z:I:1 energy=-704.6453315024488 field_type=dipole dipole="0.000000 0.000000 0.000000" charge=0
C	-2.279668	-1.303090	0.136516	6
C	-0.761688	-1.249340	0.178716	6
C	-0.250878	0.171320	-0.022204	6
S	1.533562	0.240450	0.036586	16
C	1.871933	1.953880	-0.284364	6
O	1.951962	-0.041290	1.396096	8
O	2.053473	-0.522280	-1.082524	8
H	-2.626368	-2.332450	0.269996	1
H	-2.658698	-0.938750	-0.823534	1
H	-2.715758	-0.691650	0.932966	1
H	-0.355508	-1.907100	-0.598274	1
H	-0.411438	-1.642730	1.139886	1
H	-0.626288	0.836560	0.761316	1
H	-0.557548	0.559140	-0.999134	1
H	1.473463	2.213800	-1.266663	1
H	2.954153	2.095420	-0.270984	1
H	1.405292	2.558110	0.495596	1
Es	2.216632	0.016495	1.317024	99
Es	-1.516066	-1.257986	0.155193	99
Es	1.707615	1.176201	-0.138739	99
Es	1.871897	1.953766	-0.284343	99
Es	2.053364	-0.522080	-1.082291	99
Es	-0.761697	-1.249229	0.178700	99
Es	1.437696	0.284846	0.086018	99
Es	-2.572985	-0.881007	0.682253	99
Es	2.578652	2.028122	-0.271771	99
Es	-0.441335	0.436070	-0.680708	99
Es	-2.508287	-1.999976	0.226997	99
Es	-2.533442	-1.050616	-0.521906	99
Es	-2.279628	-1.303080	0.136516	99
Es	1.866657	-0.336818	-1.260776	99
Es	0.576051	0.207355	0.003955	99
Es	-0.473754	-0.512814	0.076092	99
Es	1.951822	-0.041248	1.395785	99
Es	-0.527046	-1.504971	0.831289	99
Es	-0.489324	-1.685009	-0.352149	99
Es	1.810055	0.045675	0.875716	99
Es	1.512044	0.129885	0.011131	99
Es	1.552809	2.343810	0.238429	99
Es	1.760491	0.196251	1.483009	99
Es	1.533565	0.240431	0.036563	99
Es	1.624152	0.245174	0.114913	99
Es	2.312500	-0.425520	-1.013841	99
Es	1.869305	-0.256569	-0.641671	99
Es	1.560284	0.302018	-0.065724	99
Es	1.598279	2.114096	-0.937676	99
Es	-0.250742	0.171324	-0.022202	99
Es	-0.487999	0.623195	0.505464	99
Es	1.950534	-0.761383	-0.971994	99
Es	1.846420	-0.305364	1.368126	99
50
Properties=species:S:1:pos:R:3:Z:I:1 energy=-704.6453315024488 field_type=dipole dipole="0.000000 0.000000 0.000000" charge=0
C	-2.279668	-1.303090	0.136516	6
C	-0.761688	-1.249340	0.178716	6
C	-0.250878	0.171320	-0.022204	6
S	1.533562	0.240450	0.036586	16
C	1.871933	1.953880	-0.284364	6
O	1.951962	-0.041290	1.396096	8
O	2.053473	-0.522280	-1.082524	8
H	-2.626368	-2.332450	0.269996	1
H	-2.658698	-0.938750	-0.823534	1
H	-2.715758	-0.691650	0.932966	1
H	-0.355508	-1.907100	-0.598274	1
H	-0.411438	-1.642730	1.139886	1
H	-0.626288	0.836560	0.761316	1
H	-0.557548	0.559140	-0.999134	1
H	1.473463	2.213800	-1.266663	1
H	2.954153	2.095420	-0.270984	1
H	1.405292	2.558110	0.495596	1
Es	-2.279628	-1.303080	0.136516	99
Es	1.870403	-0.337539	-1.266585	99
Es	1.808451	0.042457	0.873491	99
Es	1.951908	-0.041259	1.396041	99
Es	1.871896	1.953766	-0.284343	99
Es	1.561008	0.202136	-0.080425	99
Es	1.707840	1.176443	-0.138763	99
Es	1.585126	0.341454	0.061400	99
Es	-2.507926	-1.999744	0.226923	99
Es	-2.533419	-1.050796	-0.522152	99
Es	-0.441295	0.435974	-0.681032	99
Es	1.533549	0.240455	0.036573	99
Es	1.423452	0.257519	0.046539	99
Es	1.564615	0.160827	0.118825	99
Es	1.945262	-0.757022	-0.967778	99
Es	-0.250745	0.171324	-0.022201	99
Es	2.310714	-0.433615	-1.011514	99
Es	-0.527027	-1.504930	0.831517	99
Es	-0.488050	0.623208	0.505736	99
Es	2.578334	2.027805	-0.271775	99
Es	-0.761696	-1.249232	0.178700	99
Es	2.214270	0.016644	1.315541	99
Es	-0.489386	-1.685044	-0.352536	99
Es	0.575771	0.207236	0.003995	99
Es	-0.473702	-0.512819	0.076153	99
Es	1.849903	-0.302242	1.369162	99
Es	2.053640	-0.522188	-1.082521	99
Es	-2.573156	-0.881009	0.682552	99
Es	1.598325	2.114061	-0.937979	99
Es	1.760820	0.196201	1.485455	99
Es	-1.515948	-1.257898	0.155316	99
Es	1.552895	2.343904	0.238789	99
Es	1.872313	-0.251954	-0.642240	99
50
Properties=species:S:1:pos:R:3:Z:I:1 energy=-704.6453315024488 field_type=dipole dipole="0.000000 0.000000 0.000000" charge=0
C	-2.279668	-1.303090	0.136516	6
C	-0.761688	-1.249340	0.178716	6
C	-0.250878	0.171320	-0.022204	6
S	1.533562	0.240450	0.036586	16
C	1.871933	1.953880	-0.284364	6
O	1.951962	-0.041290	1.396096	8
O	2.053473	-0.522280	-1.082524	8
H	-2.626368	-2.332450	0.269996	1
H	-2.658698	-0.938750	-0.823534	1
H	-2.715758	-0.691650	0.932966	1
H	-0.355508	-1.907100	-0.598274	1
H	-0.411438	-1.642730	1.139886	1
H	-0.626288	0.836560	0.761316	1
H	-0.557548	0.559140	-0.999134	1
H	1.473463	2.213800	-1.266663	1
H	2.954153	2.095420	-0.270984	1
H	1.405292	2.558110	0.495596	1
Es	1.588113	0.242821	-0.077098	99
Es	1.847913	-0.299921	1.371177	99
Es	-2.533399	-1.050838	-0.522307	99
Es	2.578131	2.027721	-0.271763	99
Es	1.811201	0.039262	0.872143	99
Es	2.214260	0.014741	1.317966	99
Es	1.760107	0.199077	1.482646	99
Es	1.574580	0.154136	0.100141	99
Es	2.053481	-0.522198	-1.082317	99
Es	1.533602	0.240820	0.036470	99
Es	2.306327	-0.437284	-0.998016	99
Es	-2.573111	-0.880967	0.682686	99
Es	-0.489401	-1.685096	-0.352718	99
Es	-0.473703	-0.512763	0.076225	99
Es	-0.488026	0.623199	0.505853	99
Es	-0.250742	0.171323	-0.022201	99
Es	1.951861	-0.041237	1.395795	99
Es	1.946231	-0.748610	-0.956395	99
Es	-1.515930	-1.257943	0.155354	99
Es	-2.279628	-1.303080	0.136516	99
Es	1.864624	-0.243788	-0.648707	99
Es	1.427991	0.219587	0.024554	99
Es	1.707977	1.176419	-0.138763	99
Es	1.871896	1.953766	-0.284343	99
Es	1.552950	2.343957	0.238906	99
Es	-2.507802	-1.999675	0.226954	99
Es	1.598380	2.114068	-0.938113	99
Es	-0.527119	-1.504954	0.831555	99
Es	0.575667	0.207200	0.003943	99
Es	1.881660	-0.350423	-1.285218	99
Es	1.543443	0.344978	0.098837	99
Es	-0.441321	0.435978	-0.681079	99
Es	-0.761697	-1.249229	0.178699	99
50
Properties=species:S:1:pos:R:3:Z:I:1 energy=-704.6453315024488 field_type=dipole dipole="0.000000 0.000000 0.000000" charge=0
C	-2.279668	-1.303090	0.136516	6
C	-0.761688	-1.249340	0.178716	6
C	-0.250878	0.171320	-0.022204	6
S	1.533562	0.240450	0.036586	16
C	1.871933	1.953880	-0.284364	6
O	1.951962	-0.041290	1.396096	8
O	2.053473	-0.522280	-1.082524	8
H	-2.626368	-2.332450	0.269996	1
H	-2.658698	-0.938750	-0.823534	1
H	-2.715758	-0.691650	0.932966	1
H	-0.355508	-1.907100	-0.598274	1
H	-0.411438	-1.642730	1.139886	1
H	-0.626288	0.836560	0.761316	1
H	-0.557548	0.559140	-0.999134	1
H	1.473463	2.213800	-1.266663	1
H	2.954153	2.095420	-0.270984	1
H	1.405292	2.558110	0.495596	1
Es	1.951876	-0.041260	1.395886	99
Es	-1.515837	-1.257831	0.155166	99
Es	2.304307	-0.436015	-0.996138	99
Es	1.598402	2.113973	-0.938138	99
Es	-0.441329	0.435954	-0.681134	99
Es	1.448188	0.297511	0.098514	99
Es	2.209189	0.006348	1.303427	99
Es	-2.573110	-0.881009	0.682784	99
Es	1.541798	0.144959	0.079614	99
Es	1.849246	-0.301845	1.353452	99
Es	1.506800	0.227593	-0.087442	99
Es	1.533690	0.239633	0.036783	99
Es	-0.527236	-1.504983	0.831735	99
Es	0.575595	0.207188	0.003954	99
Es	1.552880	2.343976	0.238780	99
Es	-2.507748	-1.999720	0.226862	99
Es	1.882995	-0.354545	-1.288838	99
Es	-0.487986	0.623226	0.505873	99
Es	1.772250	0.192144	1.509578	99
Es	1.707997	1.176449	-0.138667	99
Es	-2.279628	-1.303080	0.136516	99
Es	-0.250743	0.171323	-0.022201	99
Es	2.578185	2.027791	-0.271706	99
Es	-0.473619	-0.512787	0.076188	99
Es	1.802744	0.056491	0.877371	99
Es	-2.533402	-1.050782	-0.522258	99
Es	-0.489469	-1.685134	-0.352675	99
Es	1.863763	-0.240922	-0.651078	99
Es	-0.761695	-1.249230	0.178700	99
Es	2.053350	-0.522116	-1.082281	99
Es	1.637305	0.292636	0.055434	99
Es	1.947864	-0.748657	-0.952338	99
Es	1.871896	1.953767	-0.284344	99
50
Properties=species:S:1:pos:R:3:Z:I:1 energy=-704.6453315024488 field_type=dipole dipole="0.000000 0.000000 0.000000" charge=0
C	-2.279668	-1.303090	0.136516	6
C	-0.761688	-1.249340	0.178716	6
C	-0.250878	0.171320	-0.022204	6
S	1.533562	0.240450	0.036586	16
C	1.871933	1.953880	-0.284364	6
O	1.951962	-0.041290	1.396096	8
O	2.053473	-0.522280	-1.082524	8
H	-2.626368	-2.332450	0.269996	1
H	-2.658698	-0.938750	-0.823534	1
H	-2.715758	-0.691650	0.932966	1
H	-0.355508	-1.907100	-0.598274	1
H	-0.411438	-1.642730	1.139886	1
H	-0.626288	0.836560	0.761316	1
H	-0.557548	0.559140	-0.999134	1
H	1.473463	2.213800	-1.266663	1
H	2.954153	2.095420	-0.270984	1
H	1.405292	2.558110	0.495596	1
Es	2.578121	2.027578	-0.271625	99
Es	-2.507589	-1.999603	0.226934	99
Es	1.708082	1.176653	-0.138744	99
Es	-2.279628	-1.303090	0.136517	99
Es	-2.573070	-0.880936	0.682920	99
Es	1.777804	0.201739	1.502920	99
Es	-0.250744	0.171323	-0.022201	99
Es	1.877811	-0.355482	-1.288280	99
Es	1.579994	0.162351	0.104503	99
Es	2.209957	-0.002157	1.304823	99
Es	1.438694	0.193585	-0.008660	99
Es	-0.487925	0.623233	0.506040	99
Es	1.804670	0.050034	0.874872	99
Es	1.871896	1.953766	-0.284343	99
Es	1.502477	0.336535	0.103362	99
Es	2.304754	-0.440569	-1.001931	99
Es	1.552917	2.343903	0.238974	99
Es	-0.441221	0.436034	-0.681307	99
Es	1.598391	2.114023	-0.938329	99
Es	1.946715	-0.743258	-0.950934	99
Es	1.951847	-0.041227	1.395783	99
Es	-0.527198	-1.504946	0.831834	99
Es	-0.473596	-0.512827	0.076080	99
Es	1.869627	-0.240776	-0.647311	99
Es	-0.489598	-1.685212	-0.352807	99
Es	-1.515937	-1.257854	0.155327	99
Es	-2.533324	-1.050851	-0.522530	99
Es	1.840986	-0.296427	1.361356	99
Es	1.613499	0.269833	-0.052397	99
Es	2.053346	-0.522118	-1.082272	99
Es	0.575372	0.206978	0.003974	99
Es	1.533091	0.240042	0.036129	99
Es	-0.761703	-1.249233	0.178700	99
50
Properties=species:S:1:pos:R:3:Z:I:1 energy=-704.6453315024488 field_type=dipole dipole="0.000000 0.000000 0.000000" charge=0
C	-2.279668	-1.303090	0.136516	6
C	-0.761688	-1.249340	0.178716	6
C	-0.250878	0.171320	-0.022204	6
S	1.533562	0.240450	0.036586	16
C	1.871933	1.953880	-0.284364	6
O	1.951962	-0.041290	1.396096	8
O	2.053473	-0.522280	-1.082524	8
H	-2.626368	-2.332450	0.269996	1
H	-2.658698	-0.938750	-0.823534	1
H	-2.715758	-0.691650	0.932966	1
H	-0.355508	-1.907100	-0.598274	1
H	-0.411438	-1.642730	1.139886	1
H	-0.626288	0.836560	0.761316	1
H	-0.557548	0.559140	-0.999134	1
H	1.473463	2.213800	-1.266663	1
H	2.954153	2.095420	-0.270984	1
H	1.405292	2.558110	0.495596	1
Es	1.533666	0.240093	0.036742	99
Es	-0.527311	-1.504886	0.831805	99
Es	1.458213	0.266646	0.130383	99
Es	-0.441137	0.435935	-0.681159	99
Es	-0.250745	0.171325	-0.022201	99
Es	2.300402	-0.440662	-0.995593	99
Es	1.854685	-0.298815	1.349895	99
Es	2.578218	2.027621	-0.271814	99
Es	1.560072	0.136132	0.043697	99
Es	1.481510	0.258953	-0.073955	99
Es	1.598383	2.114002	-0.938079	99
Es	1.707975	1.176485	-0.138719	99
Es	1.552980	2.344045	0.238898	99
Es	-2.533229	-1.050869	-0.522337	99
Es	2.053339	-0.522085	-1.082265	99
Es	-0.489565	-1.685326	-0.352799	99
Es	-1.515832	-1.257806	0.155273	99
Es	-2.279628	-1.303081	0.136516	99
Es	1.946241	-0.745396	-0.952027	99
Es	-0.473697	-0.512869	0.076111	99
Es	1.871896	1.953766	-0.284343	99
Es	1.885116	-0.354241	-1.292239	99
Es	1.634316	0.300528	0.046026	99
Es	1.767752	0.187802	1.513335	99
Es	1.801701	0.054794	0.876499	99
Es	-2.573080	-0.880804	0.682812	99
Es	-2.507666	-1.999869	0.226927	99
Es	2.209163	0.009432	1.304066	99
Es	-0.761696	-1.249230	0.178700	99
Es	1.867116	-0.239865	-0.648596	99
Es	1.951941	-0.041248	1.395946	99
Es	-0.487876	0.623466	0.506012	99
Es	0.575296	0.207073	0.003867	99
50
Properties=species:S:1:pos:R:3:Z:I:1 energy=-704.6453315024488 field_type=dipole dipole="0.000000 0.000000 0.000000" charge=0
C	-2.279668	-1.303090	0.136516	6
C	-0.761688	-1.249340	0.178716	6
C	-0.250878	0.171320	-0.022204	6
S	1.533562	0.240450	0.036586	16
C	1.871933	1.953880	-0.284364	6
O	1.951962	-0.041290	1.396096	8
O	2.053473	-0.522280	-1.082524	8
H	-2.626368	-2.332450	0.269996	1
H	-2.658698	-0.938750	-0.823534	1
H	-2.715758	-0.691650	0.932966	1
H	-0.355508	-1.907100	-0.598274	1
H	-0.411438	-1.642730	1.139886	1
H	-0.626288	0.836560	0.761316	1
H	-0.557548	0.559140	-0.999134	1
H	1.473463	2.213800	-1.266663	1
H	2.954153	2.095420	-0.270984	1
H	1.405292	2.558110	0.495596	1
Es	-0.527400	-1.505064	0.831765	99
Es	-0.473471	-0.512694	0.076236	99
Es	1.708113	1.176511	-0.138600	99
Es	-2.507734	-1.999787	0.226972	99
Es	-0.441149	0.435952	-0.681340	99
Es	1.764340	0.178611	1.521634	99
Es	1.955521	-0.747349	-0.952866	99
Es	1.446061	0.281333	0.012272	99
Es	-0.250741	0.171322	-0.022202	99
Es	-1.515733	-1.257896	0.155249	99
Es	1.598333	2.114041	-0.938298	99
Es	-2.279627	-1.303082	0.136516	99
Es	-0.489677	-1.685297	-0.352777	99
Es	2.577974	2.027529	-0.271791	99
Es	1.795449	0.055670	0.878085	99
Es	1.533984	0.241364	0.036213	99
Es	1.874065	-0.356676	-1.286614	99
Es	-2.572944	-0.880882	0.682822	99
Es	-0.761696	-1.249230	0.178700	99
Es	1.555456	0.150495	-0.048211	99
Es	-0.487916	0.623358	0.505963	99
Es	1.553162	2.344055	0.238988	99
Es	1.865413	-0.298472	1.344247	99
Es	1.524883	0.203107	0.158139	99
Es	0.575236	0.207134	0.004013	99
Es	1.607371	0.326037	0.024496	99
Es	1.866196	-0.245118	-0.646250	99
Es	2.208129	0.017412	1.299803	99
Es	2.053313	-0.522082	-1.082294	99
Es	-2.533321	-1.050768	-0.522399	99
Es	1.871897	1.953769	-0.284343	99
Es	2.303107	-0.430983	-1.002722	99
Es	1.951921	-0.041274	1.395975	99
50
Properties=species:S:1:pos:R:3:Z:I:1 energy=-704.6453315024488 field_type=dipole dipole="0.000000 0.000000 0.000000" charge=0
C	-2.279668	-1.303090	0.136516	6
C	-0.761688	-1.249340	0.178716	6
C	-0.250878	0.171320	-0.022204	6
S	1.533562	0.240450	0.036586	16
C	1.871933	1.953880	-0.284364	6
O	1.951962	-0.041290	1.396096	8
O	2.053473	-0.522280	-1.082524	8
H	-2.626368	-2.332450	0.269996	1
H	-2.658698	-0.938750	-0.823534	1
H	-2.715758	-0.691650	0.932966	1
H	-0.355508	-1.907100	-0.598274	1
H	-0.411438	-1.642730	1.139886	1
H	-0.626288	0.836560	0.761316	1
H	-0.557548	0.559140	-0.999134	1
H	1.473463	2.213800	-1.266663	1
H	2.954153	2.095420	-0.270984	1
H	1.405292	2.558110	0.495596	1
Es	1.846372	-0.295790	1.358973	99
Es	1.531647	0.215574	0.161584	99
Es	1.598198	2.113842	-0.938203	99
Es	2.053379	-0.522160	-1.082338	99
Es	1.951844	-0.041176	1.395787	99
Es	1.954158	-0.740500	-0.947349	99
Es	-0.441165	0.435981	-0.681080	99
Es	-2.573078	-0.880901	0.682939	99
Es	2.578353	2.027530	-0.271819	99
Es	0.575514	0.207080	0.003949	99
Es	-2.507703	-1.999624	0.226837	99
Es	-0.488064	0.623274	0.505973	99
Es	-0.250743	0.171324	-0.022201	99
Es	2.209069	0.001745	1.304729	99
Es	-0.473668	-0.512807	0.076117	99
Es	1.596035	0.334055	0.010495	99
Es	1.880391	-0.363555	-1.295877	99
Es	1.774547	0.197542	1.506159	99
Es	2.301211	-0.434849	-0.996070	99
Es	-2.533313	-1.050839	-0.522357	99
Es	-0.527372	-1.504921	0.831708	99
Es	-0.761696	-1.249231	0.178700	99
Es	-2.279625	-1.303081	0.136516	99
Es	1.566335	0.146094	-0.035537	99
Es	1.534139	0.241177	0.037245	99
Es	1.552927	2.343952	0.239016	99
Es	1.863061	-0.241119	-0.649123	99
Es	1.708151	1.176778	-0.138714	99
Es	1.871896	1.953762	-0.284339	99
Es	-0.489486	-1.685305	-0.352854	99
Es	1.439608	0.265472	0.009122	99
Es	1.803352	0.049709	0.874121	99
Es	-1.515758	-1.257988	0.155270	99
50
Properties=species:S:1:pos:R:3:Z:I:1 energy=-704.6453315024488 field_type=dipole dipole="0.000000 0.000000 0.000000" charge=0
C	-2.279668	-1.303090	0.136516	6
C	-0.761688	-1.249340	0.178716	6
C	-0.250878	0.171320	-0.022204	6
S	1.533562	0.240450	0.036586	16
C	1.871933	1.953880	-0.284364	6
O	1.951962	-0.041290	1.396096	8
O	2.053473	-0.522280	-1.082524	8
H	-2.626368	-2.332450	0.269996	1
H	-2.658698	-0.938750	-0.823534	1
H	-2.715758	-0.691650	0.932966	1
H	-0.355508	-1.907100	-0.598274	1
H	-0.411438	-1.642730	1.139886	1
H	-0.626288	0.836560	0.761316	1
H	-0.557548	0.559140	-0.999134	1
H	1.473463	2.213800	-1.266663	1
H	2.954153	2.095420	-0.270984	1
H	1.405292	2.558110	0.495596	1
Es	1.881352	-0.355178	-1.290967	99
Es	-0.527350	-1.504944	0.831810	99
Es	1.524100	0.274514	0.160299	99
Es	-0.487914	0.623324	0.506056	99
Es	0.575275	0.206894	0.004021	99
Es	1.598308	2.113941	-0.938239	99
Es	1.708051	1.176764	-0.138777	99
Es	2.578425	2.027570	-0.271617	99
Es	-0.489569	-1.685301	-0.352847	99
Es	-0.441126	0.436008	-0.681324	99
Es	-0.761696	-1.249230	0.178700	99
Es	2.053347	-0.522104	-1.082302	99
Es	1.771892	0.189790	1.516473	99
Es	-0.250743	0.171323	-0.022201	99
Es	1.524377	0.330659	-0.035361	99
Es	1.801060	0.053297	0.875035	99
Es	-1.515732	-1.257780	0.155274	99
Es	1.951728	-0.040992	1.395746	99
Es	1.456412	0.155266	0.002757	99
Es	-2.533278	-1.050895	-0.522356	99
Es	1.533484	0.240477	0.036579	99
Es	-2.507635	-1.999732	0.226879	99
Es	-0.473593	-0.512791	0.076152	99
Es	1.629391	0.201436	0.018656	99
Es	-2.573156	-0.880884	0.682854	99
Es	1.871897	1.953766	-0.284343	99
Es	1.860120	-0.248375	-0.645296	99
Es	-2.279629	-1.303080	0.136516	99
Es	2.206273	0.005915	1.301671	99
Es	1.957392	-0.746298	-0.957130	99
Es	1.854256	-0.295953	1.350834	99
Es	2.299974	-0.430201	-0.995078	99
Es	1.552822	2.343837	0.238909	99
50
Properties=species:S:1:pos:R:3:Z:I:1 energy=-704.6453315024488 field_type=dipole dipole="0.000000 0.000000 0.000000" charge=0
C	-2.279668	-1.303090	0.136516	6
C	-0.761688	-1.249340	0.178716	6
C	-0.250878	0.171320	-0.022204	6
S	1.533562	0.240450	0.036586	16
C	1.871933	1.953880	-0.284364	6
O	1.951962	-0.041290	1.396096	8
O	2.053473	-0.522280	-1.082524	8
H	-2.626368	-2.332450	0.269996	1
H	-2.658698	-0.938750	-0.823534	1
H	-2.715758	-0.691650	0.932966	1
H	-0.355508	-1.907100	-0.598274	1
H	-0.411438	-1.642730	1.139886	1
H	-0.626288	0.836560	0.761316	1
H	-0.557548	0.559140	-0.999134	1
H	1.473463	2.213800	-1.266663	1
H	2.954153	2.095420	-0.270984	1
H	1.405292	2.558110	0.495596	1
Es	1.553017	2.344089	0.239249	99
Es	-2.573109	-0.880880	0.683097	99
Es	1.499620	0.325380	0.020801	99
Es	1.839084	-0.296316	1.361660	99
Es	1.865089	-0.247715	-0.642965	99
Es	1.808877	0.051296	0.872380	99
Es	1.441334	0.183619	0.083335	99
Es	-0.489644	-1.685308	-0.352987	99
Es	-1.515725	-1.257822	0.155225	99
Es	1.780536	0.203456	1.503932	99
Es	-2.533281	-1.050913	-0.522511	99
Es	1.598507	2.114017	-0.938393	99
Es	1.708198	1.176668	-0.138805	99
Es	2.053374	-0.522136	-1.082332	99
Es	-2.507446	-1.999630	0.226844	99
Es	-0.487923	0.623409	0.506150	99
Es	1.965908	-0.744635	-0.951525	99
Es	2.204812	-0.005228	1.305990	99
Es	1.623300	0.258187	0.120689	99
Es	1.868299	-0.363590	-1.288001	99
Es	1.569936	0.194716	-0.078525	99
Es	-0.250743	0.171323	-0.022201	99
Es	-2.279628	-1.303080	0.136515	99
Es	1.533564	0.240449	0.036588	99
Es	0.575162	0.206972	0.003946	99
Es	-0.761696	-1.249230	0.178699	99
Es	2.577848	2.027350	-0.271750	99
Es	-0.527449	-1.505036	0.831895	99
Es	1.951880	-0.041221	1.395805	99
Es	1.871900	1.953766	-0.284342	99
Es	-0.473525	-0.512736	0.076234	99
Es	-0.441128	0.435909	-0.681364	99
Es	2.299568	-0.424086	-1.005954	99
