42
Properties=species:S:1:pos:R:3:Z:I:1 energy=-681.3039899303071 field_type=dipole dipole="0.000000 0.000000 0.000000" charge=0
C	-0.596522	-1.903870	0.287245	6
O	-1.353452	-0.736720	0.011235	8
C	-0.619182	0.392530	-0.125135	6
N	-1.348152	1.472790	-0.382285	7
S	-0.334792	2.775990	-0.524945	16
C	1.111148	1.906050	-0.241905	6
C	0.792798	0.579430	-0.033545	6
H	-1.292892	-2.743380	0.375475	1
H	-0.061292	-1.814150	1.238805	1
H	0.096008	-2.130600	-0.530655	1
H	2.078248	2.387650	-0.242205	1
H	1.528088	-0.185720	0.167915	1
Es	-0.619334	0.392344	-0.125114	99
Es	-0.420981	2.856795	-0.506945	99
Es	-1.022313	-0.325071	-0.033408	99
Es	1.748890	2.228825	-0.242949	99
Es	-0.309257	2.759445	-0.643524	99
Es	-1.505579	-0.666037	0.246618	99
Es	-1.068263	-2.469843	0.346697	99
Es	-0.596647	-1.903648	0.287194	99
Es	1.111061	1.906177	-0.241935	99
Es	-1.347565	1.472763	-0.382231	99
Es	0.092600	0.425113	-0.067556	99
Es	0.904807	1.109888	-0.427012	99
Es	-0.367729	2.675524	-0.478878	99
Es	-0.239909	2.809131	-0.469553	99
Es	-0.976383	1.040245	-0.552458	99
Es	-0.335047	2.776154	-0.525112	99
Es	-1.690649	1.529367	-0.422821	99
Es	0.457776	2.345521	-0.375916	99
Es	-0.264128	2.847540	-0.972009	99
Es	-0.343692	3.009397	-0.129340	99
Es	0.854199	1.217246	0.166297	99
Es	-1.353022	-0.736714	0.011304	99
Es	0.792751	0.579413	-0.033528	99
Es	-0.897221	2.005506	-0.436827	99
Es	1.276999	0.059926	0.102022	99
Es	-1.465079	-0.756343	-0.255893	99
Es	-0.221921	-1.835709	0.932932	99
Es	-0.115323	-2.050724	-0.268460	99
Es	-1.024298	1.136966	-0.013560	99
Es	-1.033732	-1.154114	0.113978	99
42
Properties=species:S:1:pos:R:3:Z:I:1 energy=-681.3039899303071 field_type=dipole dipole="0.000000 0.000000 0.000000" charge=0
C	-0.596522	-1.903870	0.287245	6
O	-1.353452	-0.736720	0.011235	8
C	-0.619182	0.392530	-0.125135	6
N	-1.348152	1.472790	-0.382285	7
S	-0.334792	2.775990	-0.524945	16
C	1.111148	1.906050	-0.241905	6
C	0.792798	0.579430	-0.033545	6
H	-1.292892	-2.743380	0.375475	1
H	-0.061292	-1.814150	1.238805	1
H	0.096008	-2.130600	-0.530655	1
H	2.078248	2.387650	-0.242205	1
H	1.528088	-0.185720	0.167915	1
Es	-1.023637	-0.316211	-0.033462	99
Es	-1.502494	-0.669662	0.234000	99
Es	-1.036589	-1.160349	0.115462	99
Es	-0.156180	2.594508	-0.510210	99
Es	-1.347564	1.472765	-0.382228	99
Es	0.792755	0.579406	-0.033560	99
Es	-0.299179	2.654803	-0.520565	99
Es	1.749118	2.229002	-0.243220	99
Es	-0.427746	2.783752	-0.582416	99
Es	-0.596646	-1.903657	0.287196	99
Es	1.111062	1.906181	-0.241939	99
Es	0.903324	1.110552	-0.424558	99
Es	0.468306	2.350461	-0.367528	99
Es	-0.443893	3.258756	-0.598708	99
Es	-1.688919	1.524665	-0.422655	99
Es	-1.068902	-2.473079	0.346966	99
Es	-0.251572	2.854000	-0.572511	99
Es	-0.902637	2.009858	-0.437657	99
Es	0.848983	1.213021	0.164165	99
Es	-1.353131	-0.736691	0.011248	99
Es	1.277405	0.059405	0.102416	99
Es	0.091778	0.426217	-0.067721	99
Es	-0.979828	1.041646	-0.549386	99
Es	-0.333709	2.775909	-0.524491	99
Es	-0.221740	-1.835128	0.930254	99
Es	-0.619334	0.392337	-0.125111	99
Es	-1.027503	1.137046	-0.016511	99
Es	-0.361725	2.809530	-0.424717	99
Es	-1.463465	-0.754982	-0.244587	99
Es	-0.115332	-2.048977	-0.265950	99
42
Properties=species:S:1:pos:R:3:Z:I:1 energy=-681.3039899303071 field_type=dipole dipole="0.000000 0.000000 0.000000" charge=0
C	-0.596522	-1.903870	0.287245	6
O	-1.353452	-0.736720	0.011235	8
C	-0.619182	0.392530	-0.125135	6
N	-1.348152	1.472790	-0.382285	7
S	-0.334792	2.775990	-0.524945	16
C	1.111148	1.906050	-0.241905	6
C	0.792798	0.579430	-0.033545	6
H	-1.292892	-2.743380	0.375475	1
H	-0.061292	-1.814150	1.238805	1
H	0.096008	-2.130600	-0.530655	1
H	2.078248	2.387650	-0.242205	1
H	1.528088	-0.185720	0.167915	1
Es	-1.459087	-0.753708	-0.236299	99
Es	-1.068964	-2.474901	0.347471	99
Es	0.091297	0.426943	-0.068560	99
Es	0.900362	1.109317	-0.422663	99
Es	1.111063	1.906176	-0.241940	99
Es	-0.441606	3.255385	-0.623238	99
Es	-0.619334	0.392332	-0.125113	99
Es	-0.596645	-1.903657	0.287196	99
Es	-0.115533	-2.048069	-0.264407	99
Es	-1.347543	1.472768	-0.382227	99
Es	-0.241677	2.858719	-0.548963	99
Es	-1.038757	-1.163879	0.115377	99
Es	0.469023	2.348153	-0.379470	99
Es	-0.334862	2.776136	-0.523934	99
Es	-0.309147	2.647250	-0.519217	99
Es	-0.979396	1.040545	-0.546920	99
Es	-1.502772	-0.671496	0.227149	99
Es	-1.025370	-0.311872	-0.035028	99
Es	0.792752	0.579411	-0.033544	99
Es	-1.353054	-0.736690	0.011306	99
Es	-0.157486	2.603221	-0.472441	99
Es	0.848542	1.213553	0.162672	99
Es	-0.221762	-1.834725	0.928288	99
Es	-0.902946	2.011624	-0.439603	99
Es	-1.026413	1.137058	-0.018498	99
Es	1.749291	2.228957	-0.243016	99
Es	-0.439134	2.805180	-0.573718	99
Es	-0.349136	2.790629	-0.458715	99
Es	-1.688480	1.521863	-0.421880	99
Es	1.277782	0.058864	0.101948	99
42
Properties=species:S:1:pos:R:3:Z:I:1 energy=-681.3039899303071 field_type=dipole dipole="0.000000 0.000000 0.000000" charge=0
C	-0.596522	-1.903870	0.287245	6
O	-1.353452	-0.736720	0.011235	8
C	-0.619182	0.392530	-0.125135	6
N	-1.348152	1.472790	-0.382285	7
S	-0.334792	2.775990	-0.524945	16
C	1.111148	1.906050	-0.241905	6
C	0.792798	0.579430	-0.033545	6
H	-1.292892	-2.743380	0.375475	1
H	-0.061292	-1.814150	1.238805	1
H	0.096008	-2.130600	-0.530655	1
H	2.078248	2.387650	-0.242205	1
H	1.528088	-0.185720	0.167915	1
Es	-0.220001	2.738596	-0.520658	99
Es	-0.596643	-1.903660	0.287197	99
Es	-0.441908	3.256864	-0.617205	99
Es	-0.335046	2.774898	-0.532654	99
Es	0.844388	1.210068	0.162519	99
Es	1.111061	1.906181	-0.241930	99
Es	-0.903880	2.013328	-0.437796	99
Es	-1.025009	1.135150	-0.019191	99
Es	-1.352906	-0.736669	0.011067	99
Es	-1.040098	-1.167302	0.108645	99
Es	1.749061	2.228959	-0.243838	99
Es	-1.687056	1.521241	-0.418236	99
Es	-0.619334	0.392333	-0.125119	99
Es	0.792751	0.579405	-0.033533	99
Es	-0.427423	2.683539	-0.505797	99
Es	-0.334841	2.775660	-0.527258	99
Es	-1.068942	-2.475598	0.348354	99
Es	0.468879	2.347084	-0.384973	99
Es	-0.115046	-2.047803	-0.263927	99
Es	-1.347558	1.472765	-0.382226	99
Es	-0.222423	-1.834598	0.926823	99
Es	0.902102	1.112050	-0.422974	99
Es	1.277765	0.058459	0.101915	99
Es	-0.155944	2.604293	-0.476067	99
Es	-0.356693	2.905252	-0.537760	99
Es	0.091306	0.427522	-0.067868	99
Es	-1.026296	-0.312950	-0.053913	99
Es	-0.979860	1.040606	-0.548566	99
Es	-1.407320	-0.662296	0.215726	99
Es	-1.552075	-0.758290	-0.198740	99
42
Properties=species:S:1:pos:R:3:Z:I:1 energy=-681.3039899303071 field_type=dipole dipole="0.000000 0.000000 0.000000" charge=0
C	-0.596522	-1.903870	0.287245	6
O	-1.353452	-0.736720	0.011235	8
C	-0.619182	0.392530	-0.125135	6
N	-1.348152	1.472790	-0.382285	7
S	-0.334792	2.775990	-0.524945	16
C	1.111148	1.906050	-0.241905	6
C	0.792798	0.579430	-0.033545	6
H	-1.292892	-2.743380	0.375475	1
H	-0.061292	-1.814150	1.238805	1
H	0.096008	-2.130600	-0.530655	1
H	2.078248	2.387650	-0.242205	1
H	1.528088	-0.185720	0.167915	1
Es	-0.367680	2.894955	-0.570605	99
Es	-0.407284	2.663659	-0.529505	99
Es	-1.027106	1.134793	-0.016467	99
Es	0.894564	1.104674	-0.422530	99
Es	-0.341470	2.783107	-0.491120	99
Es	-1.032379	-0.303540	-0.014863	99
Es	-1.068715	-2.476170	0.346593	99
Es	-0.222643	2.760447	-0.507635	99
Es	0.091584	0.427556	-0.069210	99
Es	-1.347550	1.472771	-0.382240	99
Es	-0.596648	-1.903658	0.287196	99
Es	1.748570	2.229373	-0.242112	99
Es	0.850345	1.216991	0.162457	99
Es	-1.042866	-1.166247	0.124060	99
Es	0.466810	2.350224	-0.367158	99
Es	-0.441297	3.256055	-0.622968	99
Es	-0.978519	1.040177	-0.547762	99
Es	-0.220517	-1.834597	0.927751	99
Es	-0.117255	-2.047300	-0.262770	99
Es	1.111061	1.906182	-0.241932	99
Es	-0.334798	2.775798	-0.524869	99
Es	-0.619334	0.392334	-0.125120	99
Es	-0.154286	2.603983	-0.484557	99
Es	0.792753	0.579404	-0.033550	99
Es	1.277359	0.058252	0.102701	99
Es	-1.618992	-0.702985	0.135968	99
Es	-0.904451	2.013879	-0.441827	99
Es	-1.331294	-0.728277	-0.174517	99
Es	-1.352901	-0.736558	0.011674	99
Es	-1.684049	1.519804	-0.423068	99
42
Properties=species:S:1:pos:R:3:Z:I:1 energy=-681.3039899303071 field_type=dipole dipole="0.000000 0.000000 0.000000" charge=0
C	-0.596522	-1.903870	0.287245	6
O	-1.353452	-0.736720	0.011235	8
C	-0.619182	0.392530	-0.125135	6
N	-1.348152	1.472790	-0.382285	7
S	-0.334792	2.775990	-0.524945	16
C	1.111148	1.906050	-0.241905	6
C	0.792798	0.579430	-0.033545	6
H	-1.292892	-2.743380	0.375475	1
H	-0.061292	-1.814150	1.238805	1
H	0.096008	-2.130600	-0.530655	1
H	2.078248	2.387650	-0.242205	1
H	1.528088	-0.185720	0.167915	1
Es	0.840863	1.208268	0.162865	99
Es	-0.222743	-1.834505	0.925753	99
Es	0.091421	0.427971	-0.068062	99
Es	-1.068820	-2.476245	0.348817	99
Es	-0.596643	-1.903647	0.287191	99
Es	-0.154169	2.605888	-0.478047	99
Es	1.748672	2.228978	-0.244047	99
Es	-1.029489	-0.309659	-0.057732	99
Es	-1.043327	-1.170380	0.110430	99
Es	-1.352836	-0.736533	0.011158	99
Es	1.111061	1.906180	-0.241936	99
Es	-1.602630	-0.754202	-0.146359	99
Es	-1.025238	1.133367	-0.017612	99
Es	0.792752	0.579404	-0.033551	99
Es	0.902482	1.113536	-0.423379	99
Es	0.468485	2.346657	-0.387491	99
Es	-0.619335	0.392333	-0.125115	99
Es	-0.262151	2.667749	-0.505131	99
Es	-0.451685	2.761817	-0.510864	99
Es	-0.335149	2.775113	-0.528534	99
Es	-0.290625	2.897432	-0.554033	99
Es	-0.334842	2.775810	-0.525541	99
Es	-1.350022	-0.666749	0.165349	99
Es	-1.347548	1.472772	-0.382225	99
Es	-0.905144	2.015142	-0.437589	99
Es	-0.979934	1.039776	-0.550122	99
Es	-1.683461	1.520425	-0.417418	99
Es	-0.114967	-2.047499	-0.263334	99
Es	-0.441438	3.257984	-0.613221	99
Es	1.277470	0.057901	0.101794	99
42
Properties=species:S:1:pos:R:3:Z:I:1 energy=-681.3039899303071 field_type=dipole dipole="0.000000 0.000000 0.000000" charge=0
C	-0.596522	-1.903870	0.287245	6
O	-1.353452	-0.736720	0.011235	8
C	-0.619182	0.392530	-0.125135	6
N	-1.348152	1.472790	-0.382285	7
S	-0.334792	2.775990	-0.524945	16
C	1.111148	1.906050	-0.241905	6
C	0.792798	0.579430	-0.033545	6
H	-1.292892	-2.743380	0.375475	1
H	-0.061292	-1.814150	1.238805	1
H	0.096008	-2.130600	-0.530655	1
H	2.078248	2.387650	-0.242205	1
H	1.528088	-0.185720	0.167915	1
Es	-0.221550	-1.834838	0.927744	99
Es	-1.654005	-0.733635	-0.010874	99
Es	-1.319065	-0.710591	0.017481	99
Es	-0.392629	2.657207	-0.537604	99
Es	-1.068825	-2.475515	0.347219	99
Es	-0.619335	0.392333	-0.125113	99
Es	0.843155	1.212319	0.165520	99
Es	1.111061	1.906179	-0.241936	99
Es	-1.044830	-1.171091	0.115029	99
Es	0.467779	2.348289	-0.377787	99
Es	-0.440990	3.256501	-0.622722	99
Es	1.276572	0.057646	0.102151	99
Es	-0.596644	-1.903660	0.287197	99
Es	-0.385362	2.885887	-0.570594	99
Es	0.092240	0.427533	-0.068958	99
Es	-1.027619	1.134233	-0.012334	99
Es	1.747876	2.229290	-0.243204	99
Es	-1.347552	1.472764	-0.382225	99
Es	-0.227023	2.771198	-0.542542	99
Es	-1.326397	-0.720581	-0.002267	99
Es	-0.116065	-2.047747	-0.263608	99
Es	-0.334718	2.775981	-0.524659	99
Es	0.898703	1.109667	-0.425592	99
Es	-0.979385	1.036995	-0.552342	99
Es	-1.678209	1.520600	-0.420781	99
Es	-1.033870	-0.301873	-0.036692	99
Es	-0.334106	2.787651	-0.449069	99
Es	-0.906547	2.015726	-0.439879	99
Es	0.792752	0.579407	-0.033535	99
Es	-0.154401	2.607210	-0.476008	99
42
Properties=species:S:1:pos:R:3:Z:I:1 energy=-681.3039899303071 field_type=dipole dipole="0.000000 0.000000 0.000000" charge=0
C	-0.596522	-1.903870	0.287245	6
O	-1.353452	-0.736720	0.011235	8
C	-0.619182	0.392530	-0.125135	6
N	-1.348152	1.472790	-0.382285	7
S	-0.334792	2.775990	-0.524945	16
C	1.111148	1.906050	-0.241905	6
C	0.792798	0.579430	-0.033545	6
H	-1.292892	-2.743380	0.375475	1
H	-0.061292	-1.814150	1.238805	1
H	0.096008	-2.130600	-0.530655	1
H	2.078248	2.387650	-0.242205	1
H	1.528088	-0.185720	0.167915	1
Es	0.092297	0.427844	-0.068785	99
Es	-1.033933	-0.302333	-0.040936	99
Es	-0.352308	2.796804	-0.449496	99
Es	-1.045060	-1.171344	0.114743	99
Es	-1.026624	1.134003	-0.013779	99
Es	-0.441175	3.257191	-0.619075	99
Es	-1.294959	-0.690220	0.027984	99
Es	1.111060	1.906180	-0.241931	99
Es	-0.906797	2.016229	-0.439738	99
Es	0.792754	0.579403	-0.033550	99
Es	-0.979552	1.037403	-0.552237	99
Es	-1.678517	1.520053	-0.419125	99
Es	0.842738	1.211693	0.165072	99
Es	-1.347627	1.472795	-0.382216	99
Es	1.747925	2.229146	-0.243372	99
Es	-0.596652	-1.903657	0.287195	99
Es	-0.375612	2.876807	-0.595280	99
Es	-0.334754	2.776088	-0.524742	99
Es	-1.651080	-0.737053	-0.030503	99
Es	0.467879	2.347803	-0.381083	99
Es	-0.115679	-2.047629	-0.263283	99
Es	1.276609	0.057430	0.102172	99
Es	-0.229449	2.776289	-0.517967	99
Es	-0.154021	2.607276	-0.477591	99
Es	0.898573	1.109777	-0.425354	99
Es	-0.381823	2.652091	-0.536077	99
Es	-0.222067	-1.834682	0.926740	99
Es	-1.352973	-0.736675	0.011405	99
Es	-0.619335	0.392334	-0.125108	99
Es	-1.068827	-2.475959	0.347931	99
42
Properties=species:S:1:pos:R:3:Z:I:1 energy=-681.3039899303071 field_type=dipole dipole="0.000000 0.000000 0.000000" charge=0
C	-0.596522	-1.903870	0.287245	6
O	-1.353452	-0.736720	0.011235	8
C	-0.619182	0.392530	-0.125135	6
N	-1.348152	1.472790	-0.382285	7
S	-0.334792	2.775990	-0.524945	16
C	1.111148	1.906050	-0.241905	6
C	0.792798	0.579430	-0.033545	6
H	-1.292892	-2.743380	0.375475	1
H	-0.061292	-1.814150	1.238805	1
H	0.096008	-2.130600	-0.530655	1
H	2.078248	2.387650	-0.242205	1
H	1.528088	-0.185720	0.167915	1
Es	-0.116119	-2.047334	-0.262772	99
Es	-1.034395	-0.301682	-0.038717	99
Es	-1.026704	1.132503	-0.013852	99
Es	-1.292931	-0.693217	0.011094	99
Es	-0.619335	0.392338	-0.125108	99
Es	-0.285913	2.653879	-0.503176	99
Es	0.792752	0.579405	-0.033542	99
Es	-1.068716	-2.476360	0.347576	99
Es	0.844536	1.213219	0.164255	99
Es	0.896544	1.108048	-0.424850	99
Es	-1.652198	-0.734564	-0.016076	99
Es	-0.596645	-1.903657	0.287197	99
Es	-0.221782	-1.834654	0.926641	99
Es	-1.353050	-0.736714	0.011207	99
Es	-0.978880	1.039035	-0.551628	99
Es	0.092036	0.428056	-0.068513	99
Es	0.467264	2.348602	-0.376373	99
Es	-1.678568	1.519262	-0.419934	99
Es	-0.389900	2.768998	-0.593756	99
Es	-1.045343	-1.171418	0.115122	99
Es	1.111061	1.906180	-0.241936	99
Es	-0.153602	2.606969	-0.480772	99
Es	1.747937	2.229178	-0.243144	99
Es	-1.347548	1.472777	-0.382236	99
Es	-0.440722	3.257190	-0.619327	99
Es	1.276779	0.057414	0.102332	99
Es	-0.334728	2.775943	-0.525079	99
Es	-0.907031	2.016577	-0.440050	99
Es	-0.397845	2.792810	-0.459422	99
Es	-0.265945	2.886300	-0.543146	99
42
Properties=species:S:1:pos:R:3:Z:I:1 energy=-681.3039899303071 field_type=dipole dipole="0.000000 0.000000 0.000000" charge=0
C	-0.596522	-1.903870	0.287245	6
O	-1.353452	-0.736720	0.011235	8
C	-0.619182	0.392530	-0.125135	6
N	-1.348152	1.472790	-0.382285	7
S	-0.334792	2.775990	-0.524945	16
C	1.111148	1.906050	-0.241905	6
C	0.792798	0.579430	-0.033545	6
H	-1.292892	-2.743380	0.375475	1
H	-0.061292	-1.814150	1.238805	1
H	0.096008	-2.130600	-0.530655	1
H	2.078248	2.387650	-0.242205	1
H	1.528088	-0.185720	0.167915	1
Es	-1.293157	-0.693117	0.012186	99
Es	-1.352887	-0.736539	0.011724	99
Es	-0.596646	-1.903650	0.287192	99
Es	0.467286	2.348479	-0.377958	99
Es	0.842916	1.212096	0.164591	99
Es	-0.115968	-2.047407	-0.262813	99
Es	-0.360966	2.895512	-0.574316	99
Es	-0.223285	2.750894	-0.514128	99
Es	-1.068728	-2.476345	0.347820	99
Es	0.897430	1.109065	-0.425212	99
Es	-0.221961	-1.834688	0.926393	99
Es	0.092187	0.428232	-0.068772	99
Es	-0.979418	1.036768	-0.552198	99
Es	-0.412806	2.669563	-0.533549	99
Es	1.747742	2.229036	-0.243303	99
Es	-1.677344	1.519381	-0.418926	99
Es	-0.441022	3.257273	-0.619610	99
Es	0.792753	0.579405	-0.033542	99
Es	-0.342311	2.785921	-0.477926	99
Es	1.276592	0.057150	0.102307	99
Es	-1.034684	-0.301334	-0.037520	99
Es	-1.045745	-1.171558	0.115728	99
Es	-0.153436	2.607627	-0.479519	99
Es	-1.026330	1.134040	-0.013487	99
Es	1.111061	1.906181	-0.241937	99
Es	-1.347546	1.472772	-0.382227	99
Es	-0.907471	2.016949	-0.440114	99
Es	-1.651334	-0.735012	-0.019393	99
Es	-0.334575	2.776059	-0.524366	99
Es	-0.619335	0.392332	-0.125113	99
42
Properties=species:S:1:pos:R:3:Z:I:1 energy=-681.3039899303071 field_type=dipole dipole="0.000000 0.000000 0.000000" charge=0
C	-0.596522	-1.903870	0.287245	6
O	-1.353452	-0.736720	0.011235	8
C	-0.619182	0.392530	-0.125135	6
N	-1.348152	1.472790	-0.382285	7
S	-0.334792	2.775990	-0.524945	16
C	1.111148	1.906050	-0.241905	6
C	0.792798	0.579430	-0.033545	6
H	-1.292892	-2.743380	0.375475	1
H	-0.061292	-1.814150	1.238805	1
H	0.096008	-2.130600	-0.530655	1
H	2.078248	2.387650	-0.242205	1
H	1.528088	-0.185720	0.167915	1
Es	-1.677134	1.519256	-0.419288	99
Es	-0.440566	3.257616	-0.617826	99
Es	-1.034507	-0.302167	-0.043133	99
Es	-1.026586	1.134059	-0.013401	99
Es	-0.258920	2.670848	-0.500521	99
Es	-1.352913	-0.736687	0.011050	99
Es	-0.115779	-2.047251	-0.262590	99
Es	0.840829	1.210594	0.164435	99
Es	-0.222213	-1.834576	0.926021	99
Es	-1.045984	-1.171784	0.115472	99
Es	0.467489	2.347744	-0.381053	99
Es	-1.297324	-0.687782	0.041802	99
Es	0.898911	1.110897	-0.424899	99
Es	-0.297453	2.902074	-0.548136	99
Es	-0.979303	1.036352	-0.551937	99
Es	-0.619335	0.392332	-0.125113	99
Es	-0.448089	2.752872	-0.528238	99
Es	-0.907546	2.017110	-0.439556	99
Es	-0.334691	2.775328	-0.527806	99
Es	-1.347548	1.472773	-0.382226	99
Es	1.276633	0.057121	0.102253	99
Es	0.092095	0.428237	-0.068849	99
Es	-0.153024	2.607932	-0.478635	99
Es	-0.335295	2.776829	-0.519514	99
Es	-1.068706	-2.476607	0.348014	99
Es	-0.596647	-1.903657	0.287193	99
Es	1.111061	1.906180	-0.241937	99
Es	1.747918	2.229153	-0.243494	99
Es	-1.647116	-0.739116	-0.042518	99
Es	0.792753	0.579402	-0.033557	99
42
Properties=species:S:1:pos:R:3:Z:I:1 energy=-681.3039899303071 field_type=dipole dipole="0.000000 0.000000 0.000000" charge=0
C	-0.596522	-1.903870	0.287245	6
O	-1.353452	-0.736720	0.011235	8
C	-0.619182	0.392530	-0.125135	6
N	-1.348152	1.472790	-0.382285	7
S	-0.334792	2.775990	-0.524945	16
C	1.111148	1.906050	-0.241905	6
C	0.792798	0.579430	-0.033545	6
H	-1.292892	-2.743380	0.375475	1
H	-0.061292	-1.814150	1.238805	1
H	0.096008	-2.130600	-0.530655	1
H	2.078248	2.387650	-0.242205	1
H	1.528088	-0.185720	0.167915	1
Es	1.276744	0.057055	0.102145	99
Es	-0.439520	2.777397	-0.536403	99
Es	-1.352861	-0.736699	0.010927	99
Es	0.792752	0.579404	-0.033549	99
Es	-1.295855	-0.688973	0.035068	99
Es	-0.334950	2.776134	-0.523698	99
Es	0.842970	1.212322	0.164058	99
Es	0.467387	2.347952	-0.380856	99
Es	-0.287226	2.654486	-0.489429	99
Es	-1.347532	1.472771	-0.382226	99
Es	-0.153590	2.608611	-0.475409	99
Es	-0.979217	1.037596	-0.551647	99
Es	-0.333158	2.773147	-0.537737	99
Es	-0.115889	-2.046977	-0.262296	99
Es	1.747912	2.229008	-0.243309	99
Es	-0.907574	2.017186	-0.439995	99
Es	-1.068613	-2.476919	0.347830	99
Es	-0.619333	0.392331	-0.125121	99
Es	-1.045912	-1.171991	0.113905	99
Es	-0.279232	2.896489	-0.538166	99
Es	-0.222211	-1.834618	0.925778	99
Es	-1.034337	-0.302331	-0.043646	99
Es	0.092134	0.428405	-0.068890	99
Es	1.111059	1.906180	-0.241937	99
Es	-1.677506	1.518957	-0.418903	99
Es	-0.596644	-1.903657	0.287195	99
Es	0.896845	1.109006	-0.424587	99
Es	-1.648816	-0.737500	-0.033481	99
Es	-0.440496	3.257295	-0.619706	99
Es	-1.026319	1.133018	-0.013900	99
42
Properties=species:S:1:pos:R:3:Z:I:1 energy=-681.3039899303071 field_type=dipole dipole="0.000000 0.000000 0.000000" charge=0
C	-0.596522	-1.903870	0.287245	6
O	-1.353452	-0.736720	0.011235	8
C	-0.619182	0.392530	-0.125135	6
N	-1.348152	1.472790	-0.382285	7
S	-0.334792	2.775990	-0.524945	16
C	1.111148	1.906050	-0.241905	6
C	0.792798	0.579430	-0.033545	6
H	-1.292892	-2.743380	0.375475	1
H	-0.061292	-1.814150	1.238805	1
H	0.096008	-2.130600	-0.530655	1
H	2.078248	2.387650	-0.242205	1
H	1.528088	-0.185720	0.167915	1
Es	-0.596645	-1.903655	0.287194	99
Es	0.894135	1.106559	-0.423921	99
Es	-1.347545	1.472771	-0.382231	99
Es	-0.321277	2.780234	-0.483887	99
Es	-1.352968	-0.736634	0.011536	99
Es	-0.238993	2.753571	-0.562658	99
Es	-0.370348	2.902828	-0.545663	99
Es	-0.408567	2.665150	-0.507453	99
Es	-1.295345	-0.689696	0.030772	99
Es	-1.068486	-2.477397	0.348115	99
Es	-1.648445	-0.737451	-0.033094	99
Es	-0.221870	-1.834427	0.925107	99
Es	0.845633	1.214077	0.163119	99
Es	-0.153290	2.608481	-0.476818	99
Es	-0.978812	1.038231	-0.550908	99
Es	-0.440832	3.257083	-0.621142	99
Es	-1.046024	-1.171707	0.115751	99
Es	-0.334735	2.776088	-0.524930	99
Es	1.747969	2.228951	-0.243250	99
Es	0.467035	2.348259	-0.379084	99
Es	-1.034807	-0.301903	-0.042330	99
Es	-1.025977	1.133107	-0.014812	99
Es	-1.677935	1.518267	-0.419069	99
Es	-0.116499	-2.046844	-0.261744	99
Es	0.792752	0.579405	-0.033544	99
Es	0.091922	0.428691	-0.068605	99
Es	-0.619337	0.392332	-0.125111	99
Es	1.276885	0.057019	0.102492	99
Es	1.111061	1.906181	-0.241936	99
Es	-0.907644	2.017515	-0.439880	99
42
Properties=species:S:1:pos:R:3:Z:I:1 energy=-681.3039899303071 field_type=dipole dipole="0.000000 0.000000 0.000000" charge=0
C	-0.596522	-1.903870	0.287245	6
O	-1.353452	-0.736720	0.011235	8
C	-0.619182	0.392530	-0.125135	6
N	-1.348152	1.472790	-0.382285	7
S	-0.334792	2.775990	-0.524945	16
C	1.111148	1.906050	-0.241905	6
C	0.792798	0.579430	-0.033545	6
H	-1.292892	-2.743380	0.375475	1
H	-0.061292	-1.814150	1.238805	1
H	0.096008	-2.130600	-0.530655	1
H	2.078248	2.387650	-0.242205	1
H	1.528088	-0.185720	0.167915	1
Es	1.276934	0.056988	0.102553	99
Es	-0.907369	2.017316	-0.440698	99
Es	-0.375876	2.901466	-0.541561	99
Es	-0.596652	-1.903654	0.287196	99
Es	-0.116911	-2.046629	-0.261299	99
Es	-1.026094	1.134548	-0.014763	99
Es	-1.046148	-1.171477	0.117156	99
Es	0.897727	1.109832	-0.423778	99
Es	0.092027	0.428664	-0.068986	99
Es	-0.334772	2.776020	-0.524862	99
Es	-0.440957	3.257243	-0.620231	99
Es	-0.247835	2.771924	-0.472807	99
Es	-0.221629	-1.834396	0.924986	99
Es	1.111061	1.906180	-0.241936	99
Es	0.466729	2.348762	-0.376195	99
Es	0.792752	0.579405	-0.033542	99
Es	-1.347540	1.472770	-0.382230	99
Es	-1.291547	-0.697024	-0.010041	99
Es	-0.401038	2.658309	-0.518893	99
Es	-1.068393	-2.477710	0.347854	99
Es	-0.314382	2.770221	-0.566097	99
Es	-0.152738	2.607944	-0.480578	99
Es	-1.678141	1.518004	-0.420215	99
Es	0.841656	1.211037	0.163393	99
Es	-1.035581	-0.300643	-0.036172	99
Es	-1.352991	-0.736711	0.011242	99
Es	-0.978622	1.036822	-0.549624	99
Es	-1.651271	-0.731457	0.000355	99
Es	1.747945	2.228999	-0.243104	99
Es	-0.619336	0.392333	-0.125109	99
42
Properties=species:S:1:pos:R:3:Z:I:1 energy=-681.3039899303071 field_type=dipole dipole="0.000000 0.000000 0.000000" charge=0
C	-0.596522	-1.903870	0.287245	6
O	-1.353452	-0.736720	0.011235	8
C	-0.619182	0.392530	-0.125135	6
N	-1.348152	1.472790	-0.382285	7
S	-0.334792	2.775990	-0.524945	16
C	1.111148	1.906050	-0.241905	6
C	0.792798	0.579430	-0.033545	6
H	-1.292892	-2.743380	0.375475	1
H	-0.061292	-1.814150	1.238805	1
H	0.096008	-2.130600	-0.530655	1
H	2.078248	2.387650	-0.242205	1
H	1.528088	-0.185720	0.167915	1
Es	-0.334652	2.775940	-0.524786	99
Es	-0.619335	0.392332	-0.125113	99
Es	-0.152943	2.608345	-0.479540	99
Es	-0.221877	-1.834466	0.925116	99
Es	-1.347550	1.472764	-0.382228	99
Es	-1.649462	-0.734585	-0.019608	99
Es	-0.265584	2.888543	-0.538880	99
Es	-0.440342	3.257140	-0.621137	99
Es	-0.907808	2.017555	-0.440754	99
Es	-1.046871	-1.172153	0.116037	99
Es	-1.068408	-2.477582	0.347833	99
Es	-1.293127	-0.692764	0.013702	99
Es	0.466755	2.348657	-0.377278	99
Es	-0.596644	-1.903656	0.287199	99
Es	-1.035102	-0.301163	-0.038845	99
Es	-0.335437	2.774461	-0.536253	99
Es	0.895741	1.108197	-0.424043	99
Es	0.843350	1.212549	0.163353	99
Es	-1.025801	1.133467	-0.014844	99
Es	-0.299701	2.646595	-0.504350	99
Es	-0.978623	1.037578	-0.550580	99
Es	0.792753	0.579404	-0.033547	99
Es	-1.677708	1.517946	-0.419214	99
Es	-0.116582	-2.046654	-0.261465	99
Es	1.747885	2.228898	-0.243141	99
Es	1.276842	0.056881	0.102516	99
Es	-1.353015	-0.736694	0.011332	99
Es	-0.438890	2.792541	-0.519014	99
Es	1.111062	1.906180	-0.241936	99
Es	0.092085	0.428829	-0.068516	99
42
Properties=species:S:1:pos:R:3:Z:I:1 energy=-681.3039899303071 field_type=dipole dipole="0.000000 0.000000 0.000000" charge=0
C	-0.596522	-1.903870	0.287245	6
O	-1.353452	-0.736720	0.011235	8
C	-0.619182	0.392530	-0.125135	6
N	-1.348152	1.472790	-0.382285	7
S	-0.334792	2.775990	-0.524945	16
C	1.111148	1.906050	-0.241905	6
C	0.792798	0.579430	-0.033545	6
H	-1.292892	-2.743380	0.375475	1
H	-0.061292	-1.814150	1.238805	1
H	0.096008	-2.130600	-0.530655	1
H	2.078248	2.387650	-0.242205	1
H	1.528088	-0.185720	0.167915	1
Es	-0.266024	2.888464	-0.543841	99
Es	-0.439164	2.790335	-0.528518	99
Es	1.747927	2.228879	-0.243001	99
Es	-0.116553	-2.046549	-0.261241	99
Es	-0.978546	1.039320	-0.551078	99
Es	0.842444	1.211818	0.163109	99
Es	0.792752	0.579405	-0.033544	99
Es	-1.649657	-0.734455	-0.016702	99
Es	-1.068357	-2.477771	0.347904	99
Es	-1.347544	1.472771	-0.382231	99
Es	-1.352964	-0.736644	0.011511	99
Es	-0.334770	2.775817	-0.525588	99
Es	-1.035462	-0.301043	-0.039326	99
Es	-0.152007	2.607203	-0.485978	99
Es	-0.334874	2.775633	-0.526770	99
Es	-1.046474	-1.172033	0.115686	99
Es	-1.026168	1.131568	-0.014801	99
Es	-0.907713	2.017675	-0.440300	99
Es	-1.292900	-0.693183	0.011416	99
Es	0.466323	2.349267	-0.374016	99
Es	-0.619338	0.392332	-0.125104	99
Es	-0.440647	3.257943	-0.616983	99
Es	-0.299540	2.647700	-0.499491	99
Es	1.276929	0.056770	0.102431	99
Es	0.091968	0.428958	-0.068717	99
Es	-0.596647	-1.903658	0.287196	99
Es	-1.677435	1.517968	-0.419181	99
Es	1.111061	1.906180	-0.241935	99
Es	-0.222020	-1.834438	0.924840	99
Es	0.896409	1.108854	-0.423734	99
42
Properties=species:S:1:pos:R:3:Z:I:1 energy=-681.3039899303071 field_type=dipole dipole="0.000000 0.000000 0.000000" charge=0
C	-0.596522	-1.903870	0.287245	6
O	-1.353452	-0.736720	0.011235	8
C	-0.619182	0.392530	-0.125135	6
N	-1.348152	1.472790	-0.382285	7
S	-0.334792	2.775990	-0.524945	16
C	1.111148	1.906050	-0.241905	6
C	0.792798	0.579430	-0.033545	6
H	-1.292892	-2.743380	0.375475	1
H	-0.061292	-1.814150	1.238805	1
H	0.096008	-2.130600	-0.530655	1
H	2.078248	2.387650	-0.242205	1
H	1.528088	-0.185720	0.167915	1
Es	-0.596638	-1.903672	0.287194	99
Es	-0.391766	2.653672	-0.512256	99
Es	-0.384216	2.895028	-0.557042	99
Es	-0.222208	-1.834396	0.924141	99
Es	0.091826	0.429223	-0.068518	99
Es	-0.116570	-2.046355	-0.260950	99
Es	0.842300	1.211454	0.162596	99
Es	-1.649766	-0.734622	-0.015955	99
Es	-0.322423	2.770511	-0.552125	99
Es	-0.241028	2.782950	-0.477092	99
Es	-0.907841	2.017975	-0.439901	99
Es	-1.677717	1.517527	-0.419082	99
Es	-0.334331	2.775807	-0.525884	99
Es	-1.025944	1.131659	-0.015450	99
Es	0.792752	0.579404	-0.033535	99
Es	-0.152437	2.608888	-0.477209	99
Es	-1.068250	-2.478116	0.348213	99
Es	0.466905	2.348048	-0.380301	99
Es	-0.441016	3.257386	-0.619635	99
Es	1.276965	0.056657	0.102321	99
Es	-1.293724	-0.693573	0.012311	99
Es	-0.978489	1.039328	-0.550347	99
Es	-0.619337	0.392332	-0.125106	99
Es	-1.352067	-0.736378	0.009930	99
Es	1.748026	2.228952	-0.243183	99
Es	-1.347543	1.472765	-0.382237	99
Es	1.111061	1.906179	-0.241934	99
Es	0.896336	1.109108	-0.423396	99
Es	-1.035681	-0.300788	-0.038656	99
Es	-1.046168	-1.171868	0.115104	99
42
Properties=species:S:1:pos:R:3:Z:I:1 energy=-681.3039899303071 field_type=dipole dipole="0.000000 0.000000 0.000000" charge=0
C	-0.596522	-1.903870	0.287245	6
O	-1.353452	-0.736720	0.011235	8
C	-0.619182	0.392530	-0.125135	6
N	-1.348152	1.472790	-0.382285	7
S	-0.334792	2.775990	-0.524945	16
C	1.111148	1.906050	-0.241905	6
C	0.792798	0.579430	-0.033545	6
H	-1.292892	-2.743380	0.375475	1
H	-0.061292	-1.814150	1.238805	1
H	0.096008	-2.130600	-0.530655	1
H	2.078248	2.387650	-0.242205	1
H	1.528088	-0.185720	0.167915	1
Es	-1.649374	-0.733086	-0.009500	99
Es	1.747996	2.228847	-0.243134	99
Es	-0.440247	3.257618	-0.619106	99
Es	-0.332996	2.774183	-0.533723	99
Es	0.895068	1.108389	-0.423361	99
Es	-1.347537	1.472776	-0.382225	99
Es	-0.221994	-1.834332	0.924161	99
Es	-0.259120	2.675654	-0.484669	99
Es	-1.352848	-0.736728	0.010753	99
Es	-1.025776	1.132595	-0.015076	99
Es	-1.292297	-0.694667	0.003348	99
Es	1.111061	1.906181	-0.241937	99
Es	-0.619336	0.392333	-0.125108	99
Es	-0.152134	2.608407	-0.481948	99
Es	0.466515	2.348692	-0.377015	99
Es	-0.596644	-1.903652	0.287187	99
Es	-1.046928	-1.172294	0.115616	99
Es	-0.116839	-2.046295	-0.260747	99
Es	-0.334753	2.775356	-0.527022	99
Es	1.276971	0.056753	0.102402	99
Es	0.091739	0.429081	-0.068828	99
Es	0.792752	0.579404	-0.033544	99
Es	-0.978347	1.037836	-0.549932	99
Es	0.843051	1.212647	0.162680	99
Es	-0.908523	2.018458	-0.440547	99
Es	-1.676879	1.516898	-0.419385	99
Es	-1.068218	-2.478248	0.348081	99
Es	-1.035851	-0.300513	-0.037555	99
Es	-0.301504	2.904409	-0.541119	99
Es	-0.445998	2.748383	-0.536732	99
