37
Properties=species:S:1:pos:R:3:Z:I:1 energy=-715.8189355850316 field_type=dipole dipole="0.000000 0.000000 0.000000" charge=0
O	-1.899877	0.129297	0.523835	8
S	-0.487517	0.039667	0.786315	16
O	0.209842	-0.604192	1.868375	8
C	0.126583	-0.804643	-0.637765	6
C	0.543763	-1.382602	-1.607095	6
C	0.099953	1.714177	0.778015	6
N	0.498123	2.809587	0.750805	7
H	0.909133	-1.901292	-2.462485	1
Es	0.100056	-0.832644	1.694772	99
Es	0.209640	-0.604040	1.868105	99
Es	-1.834613	-0.162501	0.473574	99
Es	-1.657685	0.262170	0.302005	99
Es	0.177061	2.325730	0.489009	99
Es	-0.487520	0.039681	0.786314	99
Es	-0.442589	0.022668	0.678316	99
Es	0.137479	-1.343041	-0.944813	99
Es	0.497965	2.809157	0.750820	99
Es	0.156195	-0.847180	-1.312864	99
Es	0.597046	2.183114	0.784360	99
Es	0.777287	-1.715992	-2.154793	99
Es	-0.135874	1.005882	0.762066	99
Es	-0.403154	0.083735	0.856722	99
Es	0.618725	3.146995	0.745904	99
Es	-0.117760	-0.394200	-0.030684	99
Es	-2.046449	0.282252	0.691551	99
Es	0.187228	-0.504970	2.116036	99
Es	-0.145142	-0.334699	1.582916	99
Es	0.378276	-0.439091	1.601162	99
Es	0.661403	-1.019752	-0.991954	99
Es	0.543818	-1.382708	-1.607237	99
Es	-0.524495	-0.063933	0.829550	99
Es	0.135634	2.314564	1.019975	99
Es	-1.423453	0.108098	0.759041	99
Es	-1.899501	0.129315	0.523926	99
Es	0.099805	1.713722	0.778015	99
Es	0.126438	-0.804437	-0.637431	99
Es	-0.579401	0.116546	0.780210	99
37
Properties=species:S:1:pos:R:3:Z:I:1 energy=-715.8189355850316 field_type=dipole dipole="0.000000 0.000000 0.000000" charge=0
O	-1.899877	0.129297	0.523835	8
S	-0.487517	0.039667	0.786315	16
O	0.209842	-0.604192	1.868375	8
C	0.126583	-0.804643	-0.637765	6
C	0.543763	-1.382602	-1.607095	6
C	0.099953	1.714177	0.778015	6
N	0.498123	2.809587	0.750805	7
H	0.909133	-1.901292	-2.462485	1
Es	0.099789	1.713715	0.777998	99
Es	-0.493694	0.006162	0.671504	99
Es	-0.576204	0.114581	0.811465	99
Es	-0.116267	-0.391136	-0.031416	99
Es	0.543819	-1.382715	-1.607243	99
Es	0.209679	-0.604033	1.868136	99
Es	-0.148851	-0.353402	1.583751	99
Es	-1.428377	0.104468	0.755083	99
Es	0.154951	2.337730	0.506207	99
Es	-0.495568	-0.055256	0.855352	99
Es	0.658089	-1.018406	-0.994069	99
Es	0.159506	-0.848064	-1.310836	99
Es	0.162420	2.303926	1.038716	99
Es	-0.134183	1.005202	0.758350	99
Es	0.776360	-1.717997	-2.154587	99
Es	0.126434	-0.804433	-0.637422	99
Es	-1.851984	-0.172546	0.468274	99
Es	0.196274	-0.470935	2.106900	99
Es	0.355471	-0.430801	1.589941	99
Es	-0.487326	0.039721	0.786140	99
Es	-1.647765	0.257192	0.312649	99
Es	-1.899648	0.129281	0.523864	99
Es	-0.384353	0.093529	0.806671	99
Es	0.616485	3.148763	0.750851	99
Es	0.136827	-1.344821	-0.944208	99
Es	-2.033763	0.300980	0.690163	99
Es	0.497966	2.809156	0.750818	99
Es	0.117509	-0.856164	1.714108	99
Es	0.592826	2.180746	0.747409	99
37
Properties=species:S:1:pos:R:3:Z:I:1 energy=-715.8189355850316 field_type=dipole dipole="0.000000 0.000000 0.000000" charge=0
O	-1.899877	0.129297	0.523835	8
S	-0.487517	0.039667	0.786315	16
O	0.209842	-0.604192	1.868375	8
C	0.126583	-0.804643	-0.637765	6
C	0.543763	-1.382602	-1.607095	6
C	0.099953	1.714177	0.778015	6
N	0.498123	2.809587	0.750805	7
H	0.909133	-1.901292	-2.462485	1
Es	-1.433111	0.105654	0.757469	99
Es	-0.475191	0.135561	0.720260	99
Es	-1.641948	0.257997	0.326129	99
Es	0.573951	2.176255	0.663786	99
Es	0.497957	2.809130	0.750816	99
Es	0.126444	-0.804417	-0.637426	99
Es	-0.134346	1.005293	0.756499	99
Es	-0.449847	0.061664	0.901326	99
Es	0.775933	-1.718697	-2.154680	99
Es	-0.590513	0.021135	0.790085	99
Es	-0.488177	0.039670	0.786383	99
Es	-2.035922	0.303434	0.686131	99
Es	0.658469	-1.028687	-0.989789	99
Es	-1.899624	0.129284	0.523880	99
Es	0.099798	1.713717	0.778005	99
Es	-0.133348	-0.342725	1.567702	99
Es	-0.115524	-0.390018	-0.031592	99
Es	-1.850853	-0.177020	0.456454	99
Es	0.178944	-0.470140	2.108818	99
Es	0.237862	2.280952	1.065349	99
Es	0.365153	-0.440280	1.608482	99
Es	0.109662	-0.858037	1.709657	99
Es	0.543816	-1.382713	-1.607241	99
Es	0.098578	2.364662	0.563155	99
Es	0.616409	3.149269	0.752829	99
Es	0.209666	-0.604016	1.868120	99
Es	0.126547	-1.340517	-0.950987	99
Es	0.169068	-0.842644	-1.308058	99
Es	-0.433429	-0.059325	0.733009	99
37
Properties=species:S:1:pos:R:3:Z:I:1 energy=-715.8189355850316 field_type=dipole dipole="0.000000 0.000000 0.000000" charge=0
O	-1.899877	0.129297	0.523835	8
S	-0.487517	0.039667	0.786315	16
O	0.209842	-0.604192	1.868375	8
C	0.126583	-0.804643	-0.637765	6
C	0.543763	-1.382602	-1.607095	6
C	0.099953	1.714177	0.778015	6
N	0.498123	2.809587	0.750805	7
H	0.909133	-1.901292	-2.462485	1
Es	-0.498151	0.103392	0.698424	99
Es	0.099803	1.713707	0.777994	99
Es	0.190880	-0.456594	2.105763	99
Es	0.584757	2.193358	0.831017	99
Es	0.209699	-0.604047	1.868147	99
Es	0.775855	-1.719338	-2.154468	99
Es	-0.140745	-0.355129	1.573337	99
Es	0.126442	-0.804415	-0.637423	99
Es	0.162132	-0.847335	-1.310034	99
Es	-0.487518	0.039561	0.786665	99
Es	-0.115313	-0.389277	-0.031843	99
Es	-1.855306	-0.177704	0.458739	99
Es	0.097963	2.326824	0.990611	99
Es	0.121112	-0.864367	1.718423	99
Es	0.136824	-1.344622	-0.944274	99
Es	-0.384926	0.062812	0.826184	99
Es	0.497959	2.809145	0.750815	99
Es	0.227704	2.301765	0.470559	99
Es	-2.028218	0.304637	0.699485	99
Es	-0.570870	0.075249	0.868453	99
Es	0.543818	-1.382714	-1.607243	99
Es	-1.899585	0.129280	0.523881	99
Es	0.613650	3.149909	0.753511	99
Es	-1.427684	0.103622	0.744998	99
Es	-1.650573	0.259636	0.322894	99
Es	0.349168	-0.435087	1.597028	99
Es	-0.495709	-0.082327	0.751382	99
Es	0.654954	-1.020081	-0.994496	99
Es	-0.131700	1.004578	0.756040	99
37
Properties=species:S:1:pos:R:3:Z:I:1 energy=-715.8189355850316 field_type=dipole dipole="0.000000 0.000000 0.000000" charge=0
O	-1.899877	0.129297	0.523835	8
S	-0.487517	0.039667	0.786315	16
O	0.209842	-0.604192	1.868375	8
C	0.126583	-0.804643	-0.637765	6
C	0.543763	-1.382602	-1.607095	6
C	0.099953	1.714177	0.778015	6
N	0.498123	2.809587	0.750805	7
H	0.909133	-1.901292	-2.462485	1
Es	-1.646345	0.259408	0.331249	99
Es	-1.860434	-0.177507	0.450455	99
Es	0.657172	-1.019984	-0.994152	99
Es	0.126436	-0.804407	-0.637426	99
Es	0.241344	2.279473	1.066815	99
Es	0.098066	2.365313	0.569014	99
Es	-0.115112	-0.389000	-0.031838	99
Es	0.122469	-0.863764	1.708943	99
Es	0.614817	3.149728	0.755390	99
Es	0.099799	1.713719	0.778009	99
Es	0.209676	-0.604034	1.868126	99
Es	0.356001	-0.432759	1.610600	99
Es	-2.025803	0.308256	0.697609	99
Es	0.163957	-0.848862	-1.307707	99
Es	-0.485236	0.008790	0.896601	99
Es	-0.133346	1.005171	0.754565	99
Es	-0.132302	-0.352158	1.565338	99
Es	-1.429145	0.099966	0.746845	99
Es	-0.487482	0.039661	0.786334	99
Es	0.132802	-1.343316	-0.946919	99
Es	0.571493	2.176768	0.655962	99
Es	-1.899629	0.129288	0.523856	99
Es	0.775613	-1.719547	-2.154484	99
Es	0.497957	2.809130	0.750816	99
Es	0.174228	-0.462420	2.109690	99
Es	0.543819	-1.382712	-1.607247	99
Es	-0.408397	0.126719	0.770636	99
Es	-0.589600	0.083117	0.767392	99
Es	-0.466395	-0.059592	0.710097	99
37
Properties=species:S:1:pos:R:3:Z:I:1 energy=-715.8189355850316 field_type=dipole dipole="0.000000 0.000000 0.000000" charge=0
O	-1.899877	0.129297	0.523835	8
S	-0.487517	0.039667	0.786315	16
O	0.209842	-0.604192	1.868375	8
C	0.126583	-0.804643	-0.637765	6
C	0.543763	-1.382602	-1.607095	6
C	0.099953	1.714177	0.778015	6
N	0.498123	2.809587	0.750805	7
H	0.909133	-1.901292	-2.462485	1
Es	0.169356	-0.453708	2.106350	99
Es	-1.425331	0.099831	0.738535	99
Es	-1.861735	-0.177756	0.455459	99
Es	-1.899612	0.129297	0.523878	99
Es	0.497958	2.809132	0.750816	99
Es	0.286833	2.268395	1.071616	99
Es	0.134201	-1.344904	-0.945822	99
Es	0.099788	1.713707	0.778004	99
Es	0.359928	-0.431615	1.605859	99
Es	0.550019	2.178388	0.611952	99
Es	-0.586009	0.054833	0.716781	99
Es	-0.114931	-0.389123	-0.031685	99
Es	-0.484756	0.042211	0.783044	99
Es	-0.131765	-0.360136	1.564202	99
Es	-0.416641	-0.068103	0.764403	99
Es	0.126441	-0.804423	-0.637425	99
Es	-0.133993	1.005199	0.755497	99
Es	0.074182	2.374597	0.608410	99
Es	0.209687	-0.604053	1.868118	99
Es	0.775660	-1.719241	-2.154731	99
Es	0.162920	-0.850281	-1.307336	99
Es	0.122794	-0.865681	1.718156	99
Es	0.543816	-1.382710	-1.607241	99
Es	-0.485907	0.041211	0.784459	99
Es	-1.653113	0.259950	0.326139	99
Es	0.656612	-1.017071	-0.995573	99
Es	-2.021557	0.307985	0.706039	99
Es	0.615387	3.149908	0.754263	99
Es	-0.463811	0.128604	0.882401	99
37
Properties=species:S:1:pos:R:3:Z:I:1 energy=-715.8189355850316 field_type=dipole dipole="0.000000 0.000000 0.000000" charge=0
O	-1.899877	0.129297	0.523835	8
S	-0.487517	0.039667	0.786315	16
O	0.209842	-0.604192	1.868375	8
C	0.126583	-0.804643	-0.637765	6
C	0.543763	-1.382602	-1.607095	6
C	0.099953	1.714177	0.778015	6
N	0.498123	2.809587	0.750805	7
H	0.909133	-1.901292	-2.462485	1
Es	-1.429082	0.096799	0.740679	99
Es	-0.131034	1.004299	0.756120	99
Es	0.497957	2.809131	0.750816	99
Es	-1.647291	0.259515	0.330251	99
Es	-0.486945	0.039862	0.786391	99
Es	0.543821	-1.382719	-1.607239	99
Es	0.548100	2.209750	0.915183	99
Es	0.775800	-1.719891	-2.154341	99
Es	-1.899638	0.129295	0.523880	99
Es	-0.592725	0.020217	0.798897	99
Es	0.175079	-0.458250	2.108435	99
Es	0.350905	-0.431401	1.610668	99
Es	-0.441891	0.055046	0.896135	99
Es	0.126453	-0.804424	-0.637426	99
Es	-0.481820	0.139267	0.729942	99
Es	0.612755	3.150705	0.755309	99
Es	0.099796	1.713703	0.778007	99
Es	-1.862848	-0.177131	0.451180	99
Es	0.209684	-0.604030	1.868147	99
Es	-0.433766	-0.055699	0.719659	99
Es	0.160627	-0.850285	-1.309224	99
Es	0.653547	-1.015532	-0.996912	99
Es	-0.115062	-0.388639	-0.031984	99
Es	0.139517	-1.346373	-0.942634	99
Es	0.126393	-0.867225	1.709834	99
Es	0.314285	2.260449	0.459228	99
Es	-0.132035	-0.354310	1.565571	99
Es	-2.022400	0.311023	0.704032	99
Es	0.048240	2.351294	0.915965	99
37
Properties=species:S:1:pos:R:3:Z:I:1 energy=-715.8189355850316 field_type=dipole dipole="0.000000 0.000000 0.000000" charge=0
O	-1.899877	0.129297	0.523835	8
S	-0.487517	0.039667	0.786315	16
O	0.209842	-0.604192	1.868375	8
C	0.126583	-0.804643	-0.637765	6
C	0.543763	-1.382602	-1.607095	6
C	0.099953	1.714177	0.778015	6
N	0.498123	2.809587	0.750805	7
H	0.909133	-1.901292	-2.462485	1
Es	-1.899558	0.129273	0.523910	99
Es	-0.464032	0.162615	0.811939	99
Es	-0.487699	0.039710	0.786485	99
Es	0.209804	-0.604076	1.868234	99
Es	0.063974	2.342279	0.946825	99
Es	-1.854044	-0.179009	0.447618	99
Es	-1.647906	0.260821	0.334081	99
Es	0.612441	3.150691	0.755218	99
Es	-0.133701	-0.358992	1.562697	99
Es	-0.440451	-0.007370	0.677661	99
Es	-0.455012	-0.021959	0.869553	99
Es	0.282389	2.275333	0.460327	99
Es	-1.430592	0.101603	0.741926	99
Es	0.497962	2.809141	0.750818	99
Es	0.776127	-1.720102	-2.154072	99
Es	0.141940	-0.867221	-1.310887	99
Es	0.159983	-1.351871	-0.930915	99
Es	-0.130585	1.004267	0.755356	99
Es	0.543819	-1.382721	-1.607244	99
Es	0.133558	-0.869464	1.713782	99
Es	0.126431	-0.804408	-0.637423	99
Es	-2.029186	0.306829	0.702494	99
Es	0.173971	-0.452703	2.106800	99
Es	0.346420	-0.430032	1.611078	99
Es	0.564129	2.203898	0.884105	99
Es	-0.589934	0.025760	0.785432	99
Es	0.099776	1.713718	0.777987	99
Es	-0.115397	-0.388324	-0.032277	99
Es	0.651797	-0.993242	-1.006940	99
37
Properties=species:S:1:pos:R:3:Z:I:1 energy=-715.8189355850316 field_type=dipole dipole="0.000000 0.000000 0.000000" charge=0
O	-1.899877	0.129297	0.523835	8
S	-0.487517	0.039667	0.786315	16
O	0.209842	-0.604192	1.868375	8
C	0.126583	-0.804643	-0.637765	6
C	0.543763	-1.382602	-1.607095	6
C	0.099953	1.714177	0.778015	6
N	0.498123	2.809587	0.750805	7
H	0.909133	-1.901292	-2.462485	1
Es	-0.135737	-0.364201	1.567454	99
Es	0.347542	-0.425820	1.605141	99
Es	0.099782	1.713708	0.778016	99
Es	-0.132430	1.004602	0.756398	99
Es	0.209643	-0.604035	1.868100	99
Es	-0.458849	-0.010964	0.881059	99
Es	-0.481589	0.164658	0.801282	99
Es	0.613296	3.150475	0.755763	99
Es	-1.646901	0.265366	0.333882	99
Es	-0.590276	0.011554	0.770348	99
Es	0.126443	-0.804417	-0.637424	99
Es	0.775803	-1.719776	-2.154448	99
Es	0.497961	2.809139	0.750816	99
Es	0.023350	2.375579	0.796663	99
Es	-1.899577	0.129283	0.523896	99
Es	0.421197	2.215961	0.486710	99
Es	-1.429308	0.090468	0.738205	99
Es	0.133936	-0.868399	1.714430	99
Es	0.652718	-1.001772	-1.003046	99
Es	0.174619	-0.452741	2.107478	99
Es	0.149979	-0.860251	-1.309884	99
Es	0.466949	2.229894	1.006255	99
Es	0.151226	-1.350259	-0.935732	99
Es	-0.115300	-0.388685	-0.031980	99
Es	-0.487562	0.039445	0.786562	99
Es	-1.865718	-0.173957	0.443053	99
Es	-0.418831	-0.005933	0.691816	99
Es	0.543820	-1.382715	-1.607242	99
Es	-2.019765	0.308235	0.711002	99
37
Properties=species:S:1:pos:R:3:Z:I:1 energy=-715.8189355850316 field_type=dipole dipole="0.000000 0.000000 0.000000" charge=0
O	-1.899877	0.129297	0.523835	8
S	-0.487517	0.039667	0.786315	16
O	0.209842	-0.604192	1.868375	8
C	0.126583	-0.804643	-0.637765	6
C	0.543763	-1.382602	-1.607095	6
C	0.099953	1.714177	0.778015	6
N	0.498123	2.809587	0.750805	7
H	0.909133	-1.901292	-2.462485	1
Es	-0.114444	-0.388381	-0.031864	99
Es	-1.431088	0.089967	0.739249	99
Es	0.116327	-1.336717	-0.958335	99
Es	0.136627	-0.870509	1.712600	99
Es	0.653209	-1.044196	-0.984708	99
Es	0.126439	-0.804430	-0.637419	99
Es	-1.645460	0.268467	0.339797	99
Es	0.552365	2.208235	0.906013	99
Es	0.209729	-0.604068	1.868175	99
Es	0.775240	-1.720133	-2.154414	99
Es	0.497957	2.809130	0.750816	99
Es	-0.487493	0.039634	0.786288	99
Es	0.164783	-0.450446	2.107688	99
Es	-0.415685	0.127833	0.764103	99
Es	-1.899628	0.129287	0.523879	99
Es	0.099813	1.713703	0.778016	99
Es	-0.581469	0.066161	0.739153	99
Es	-0.128310	-0.359769	1.555872	99
Es	-1.864993	-0.174170	0.435402	99
Es	-0.444601	-0.070288	0.737509	99
Es	0.304923	2.265120	0.458536	99
Es	0.184054	-0.831382	-1.305749	99
Es	-0.130756	1.004285	0.755275	99
Es	0.543818	-1.382716	-1.607245	99
Es	-0.507848	0.035399	0.904015	99
Es	0.612733	3.150585	0.756204	99
Es	0.053057	2.348284	0.925782	99
Es	-2.020054	0.305958	0.711614	99
Es	0.347177	-0.430401	1.618317	99
37
Properties=species:S:1:pos:R:3:Z:I:1 energy=-715.8189355850316 field_type=dipole dipole="0.000000 0.000000 0.000000" charge=0
O	-1.899877	0.129297	0.523835	8
S	-0.487517	0.039667	0.786315	16
O	0.209842	-0.604192	1.868375	8
C	0.126583	-0.804643	-0.637765	6
C	0.543763	-1.382602	-1.607095	6
C	0.099953	1.714177	0.778015	6
N	0.498123	2.809587	0.750805	7
H	0.909133	-1.901292	-2.462485	1
Es	-0.561820	-0.041630	0.805102	99
Es	0.209714	-0.604071	1.868179	99
Es	-1.865329	-0.175659	0.438931	99
Es	-0.490661	0.132072	0.878680	99
Es	-0.381929	-0.011946	0.771055	99
Es	-0.515204	0.080535	0.689981	99
Es	0.176800	-0.464838	2.115260	99
Es	0.497956	2.809130	0.750815	99
Es	0.543823	-1.382716	-1.607241	99
Es	0.613010	3.150371	0.757227	99
Es	0.350164	-0.440286	1.618174	99
Es	0.587032	2.187802	0.782729	99
Es	0.132416	2.312663	1.021905	99
Es	-1.435073	0.090193	0.741231	99
Es	0.774689	-1.719913	-2.154896	99
Es	-2.021030	0.311877	0.706672	99
Es	0.239822	-0.798317	-1.288889	99
Es	-1.899582	0.129303	0.523859	99
Es	0.069287	-1.311167	-0.999504	99
Es	-1.640187	0.263750	0.339214	99
Es	0.099804	1.713706	0.778003	99
Es	-0.120120	-0.341936	1.564687	99
Es	0.190513	2.321002	0.486971	99
Es	0.644407	-1.102551	-0.960736	99
Es	0.126458	-0.804414	-0.637420	99
Es	-0.487540	0.039687	0.786288	99
Es	-0.113815	-0.388830	-0.031127	99
Es	0.113485	-0.864009	1.696353	99
Es	-0.130669	1.004634	0.753065	99
37
Properties=species:S:1:pos:R:3:Z:I:1 energy=-715.8189355850316 field_type=dipole dipole="0.000000 0.000000 0.000000" charge=0
O	-1.899877	0.129297	0.523835	8
S	-0.487517	0.039667	0.786315	16
O	0.209842	-0.604192	1.868375	8
C	0.126583	-0.804643	-0.637765	6
C	0.543763	-1.382602	-1.607095	6
C	0.099953	1.714177	0.778015	6
N	0.498123	2.809587	0.750805	7
H	0.909133	-1.901292	-2.462485	1
Es	0.137796	-0.868136	1.723208	99
Es	0.099801	1.713708	0.778010	99
Es	-0.574954	0.053627	0.727358	99
Es	-0.130893	1.004438	0.755850	99
Es	-0.404990	0.097952	0.731051	99
Es	0.001938	-1.094562	-1.226735	99
Es	0.543830	-1.382719	-1.607239	99
Es	-2.025349	0.308726	0.707922	99
Es	0.776799	-1.719115	-2.154664	99
Es	-1.647619	0.261261	0.326674	99
Es	-1.857792	-0.176594	0.453598	99
Es	-1.899650	0.129293	0.523868	99
Es	-0.118067	-0.391686	-0.030626	99
Es	0.613914	3.149900	0.753986	99
Es	0.509970	-0.790372	-1.144828	99
Es	-0.487502	0.039665	0.786302	99
Es	0.281952	2.275518	0.458971	99
Es	0.064512	2.342247	0.952742	99
Es	-0.461497	-0.080479	0.784953	99
Es	0.497960	2.809135	0.750815	99
Es	0.156548	-0.446661	2.104600	99
Es	-0.131755	-0.370137	1.554333	99
Es	0.357634	-0.426243	1.612323	99
Es	0.443893	-1.324948	-0.878355	99
Es	-1.430869	0.096776	0.738072	99
Es	-0.508204	0.087964	0.901439	99
Es	0.126430	-0.804408	-0.637420	99
Es	0.209710	-0.604039	1.868150	99
Es	0.562878	2.204330	0.880211	99
37
Properties=species:S:1:pos:R:3:Z:I:1 energy=-715.8189355850316 field_type=dipole dipole="0.000000 0.000000 0.000000" charge=0
O	-1.899877	0.129297	0.523835	8
S	-0.487517	0.039667	0.786315	16
O	0.209842	-0.604192	1.868375	8
C	0.126583	-0.804643	-0.637765	6
C	0.543763	-1.382602	-1.607095	6
C	0.099953	1.714177	0.778015	6
N	0.498123	2.809587	0.750805	7
H	0.909133	-1.901292	-2.462485	1
Es	0.775601	-1.720107	-2.154426	99
Es	0.126444	-0.804412	-0.637420	99
Es	0.349629	-0.431281	1.605454	99
Es	-1.881973	-0.167118	0.428663	99
Es	0.543819	-1.382717	-1.607243	99
Es	-1.430753	0.075365	0.734951	99
Es	0.304972	2.263371	1.070071	99
Es	-0.133167	1.005124	0.753895	99
Es	-2.008323	0.316092	0.716934	99
Es	-1.899660	0.129254	0.523904	99
Es	-0.130063	-0.359944	1.567093	99
Es	0.539834	2.180852	0.592109	99
Es	-1.640583	0.265759	0.345568	99
Es	0.175472	-0.450394	2.107291	99
Es	0.497957	2.809136	0.750815	99
Es	0.067218	2.376827	0.628154	99
Es	-0.399140	-0.045066	0.787938	99
Es	-0.479941	0.128243	0.878255	99
Es	0.613481	3.150315	0.757635	99
Es	0.132080	-1.344080	-0.947531	99
Es	-0.114989	-0.388202	-0.032080	99
Es	-0.487419	0.039720	0.786348	99
Es	0.166298	-0.849083	-1.306121	99
Es	0.125359	-0.869463	1.714533	99
Es	0.655449	-1.019306	-0.994943	99
Es	0.099790	1.713715	0.778011	99
Es	-0.584455	-0.011992	0.791087	99
Es	0.209696	-0.604052	1.868157	99
Es	-0.486210	0.087886	0.687468	99
37
Properties=species:S:1:pos:R:3:Z:I:1 energy=-715.8189355850316 field_type=dipole dipole="0.000000 0.000000 0.000000" charge=0
O	-1.899877	0.129297	0.523835	8
S	-0.487517	0.039667	0.786315	16
O	0.209842	-0.604192	1.868375	8
C	0.126583	-0.804643	-0.637765	6
C	0.543763	-1.382602	-1.607095	6
C	0.099953	1.714177	0.778015	6
N	0.498123	2.809587	0.750805	7
H	0.909133	-1.901292	-2.462485	1
Es	-0.487196	0.098698	0.695378	99
Es	0.147268	-1.348767	-0.938140	99
Es	-0.137317	-0.370547	1.570314	99
Es	-1.863886	-0.176243	0.438871	99
Es	0.329132	2.257877	1.067093	99
Es	-0.383232	0.040841	0.818661	99
Es	0.126442	-0.804413	-0.637417	99
Es	-1.652602	0.263761	0.340215	99
Es	-0.133114	1.005047	0.754128	99
Es	-0.114925	-0.388126	-0.032119	99
Es	0.341595	-0.420906	1.602322	99
Es	0.152591	-0.860112	-1.308269	99
Es	-0.520983	-0.078750	0.758034	99
Es	0.613788	3.150245	0.757508	99
Es	-0.558244	0.098290	0.872700	99
Es	0.099791	1.713710	0.777996	99
Es	-2.019306	0.308385	0.714082	99
Es	-1.899464	0.129281	0.523947	99
Es	0.056243	2.379734	0.648993	99
Es	0.526305	2.183600	0.574117	99
Es	0.140663	-0.869696	1.713937	99
Es	-0.487521	0.039637	0.786330	99
Es	-1.426000	0.094187	0.732907	99
Es	0.653981	-1.003650	-1.002136	99
Es	0.543821	-1.382717	-1.607244	99
Es	0.775470	-1.720135	-2.154449	99
Es	0.209700	-0.604060	1.868144	99
Es	0.497957	2.809130	0.750816	99
Es	0.175464	-0.449860	2.107853	99
37
Properties=species:S:1:pos:R:3:Z:I:1 energy=-715.8189355850316 field_type=dipole dipole="0.000000 0.000000 0.000000" charge=0
O	-1.899877	0.129297	0.523835	8
S	-0.487517	0.039667	0.786315	16
O	0.209842	-0.604192	1.868375	8
C	0.126583	-0.804643	-0.637765	6
C	0.543763	-1.382602	-1.607095	6
C	0.099953	1.714177	0.778015	6
N	0.498123	2.809587	0.750805	7
H	0.909133	-1.901292	-2.462485	1
Es	0.147972	-1.349379	-0.937560	99
Es	-0.448568	0.108001	0.712352	99
Es	0.497957	2.809130	0.750816	99
Es	0.651781	-1.006206	-1.001458	99
Es	0.166828	-0.442979	2.104890	99
Es	-0.433912	-0.074710	0.769817	99
Es	0.775683	-1.720339	-2.154170	99
Es	-1.642882	0.263653	0.338455	99
Es	-0.478940	0.093341	0.901881	99
Es	0.537293	2.213265	0.928199	99
Es	0.042244	2.354890	0.901466	99
Es	-1.867263	-0.174352	0.439471	99
Es	0.209676	-0.604032	1.868141	99
Es	-0.114831	-0.387976	-0.032233	99
Es	0.612043	3.150920	0.756727	99
Es	-0.487563	0.039611	0.786324	99
Es	-1.899683	0.129264	0.523845	99
Es	0.346039	-0.428747	1.610953	99
Es	0.331321	2.253226	0.460119	99
Es	-0.588147	0.032507	0.760725	99
Es	0.126451	-0.804411	-0.637421	99
Es	-1.432807	0.088065	0.736694	99
Es	-0.130587	1.004216	0.755326	99
Es	0.099802	1.713702	0.778015	99
Es	0.153805	-0.856909	-1.309674	99
Es	-0.131216	-0.367331	1.558009	99
Es	0.138685	-0.872127	1.720573	99
Es	-2.018579	0.312862	0.711528	99
Es	0.543821	-1.382715	-1.607241	99
37
Properties=species:S:1:pos:R:3:Z:I:1 energy=-715.8189355850316 field_type=dipole dipole="0.000000 0.000000 0.000000" charge=0
O	-1.899877	0.129297	0.523835	8
S	-0.487517	0.039667	0.786315	16
O	0.209842	-0.604192	1.868375	8
C	0.126583	-0.804643	-0.637765	6
C	0.543763	-1.382602	-1.607095	6
C	0.099953	1.714177	0.778015	6
N	0.498123	2.809587	0.750805	7
H	0.909133	-1.901292	-2.462485	1
Es	-0.131878	1.005072	0.752398	99
Es	0.209685	-0.604040	1.868140	99
Es	0.099800	1.713711	0.777989	99
Es	-0.490409	-0.055661	0.692533	99
Es	-0.480716	0.039961	0.786475	99
Es	-0.134129	-0.361596	1.575532	99
Es	0.145007	2.344202	0.520578	99
Es	0.063407	-1.307274	-1.005773	99
Es	-1.862302	-0.174606	0.432218	99
Es	0.645634	-1.106583	-0.958268	99
Es	0.585761	2.180411	0.720651	99
Es	0.184039	-0.456288	2.111622	99
Es	0.341312	-0.425881	1.601378	99
Es	-0.499261	0.163830	0.758958	99
Es	0.543815	-1.382716	-1.607246	99
Es	-2.021958	0.305640	0.712374	99
Es	0.126442	-0.804427	-0.637411	99
Es	-1.427634	0.092716	0.736837	99
Es	-1.649773	0.266351	0.344652	99
Es	0.129149	-0.867224	1.705991	99
Es	0.179705	2.296879	1.049662	99
Es	0.613724	3.149892	0.758604	99
Es	0.244586	-0.798152	-1.285020	99
Es	-0.502979	0.010237	0.904811	99
Es	-1.899600	0.129286	0.523887	99
Es	0.774814	-1.719859	-2.154955	99
Es	0.497957	2.809130	0.750816	99
Es	-0.463737	0.040349	0.788267	99
Es	-0.114039	-0.388918	-0.031129	99
37
Properties=species:S:1:pos:R:3:Z:I:1 energy=-715.8189355850316 field_type=dipole dipole="0.000000 0.000000 0.000000" charge=0
O	-1.899877	0.129297	0.523835	8
S	-0.487517	0.039667	0.786315	16
O	0.209842	-0.604192	1.868375	8
C	0.126583	-0.804643	-0.637765	6
C	0.543763	-1.382602	-1.607095	6
C	0.099953	1.714177	0.778015	6
N	0.498123	2.809587	0.750805	7
H	0.909133	-1.901292	-2.462485	1
Es	-0.125451	-0.353329	1.560466	99
Es	-1.429297	0.088682	0.730956	99
Es	0.775222	-1.720318	-2.154478	99
Es	0.127501	-0.869522	1.707372	99
Es	0.497958	2.809132	0.750816	99
Es	0.209711	-0.604067	1.868173	99
Es	0.552420	2.208434	0.899582	99
Es	0.099808	1.713707	0.778005	99
Es	0.190965	-0.827158	-1.303845	99
Es	0.172297	-0.453505	2.110052	99
Es	0.301805	2.266993	0.457664	99
Es	-0.114277	-0.388068	-0.031847	99
Es	0.345966	-0.434745	1.616554	99
Es	0.126440	-0.804414	-0.637414	99
Es	-1.899758	0.129277	0.523867	99
Es	-0.588609	0.034531	0.824405	99
Es	-0.129913	1.004199	0.754376	99
Es	0.543817	-1.382717	-1.607245	99
Es	-1.868269	-0.174676	0.441094	99
Es	0.651838	-1.051097	-0.982112	99
Es	-2.015131	0.311356	0.717604	99
Es	0.056491	2.345927	0.932830	99
Es	-0.417716	0.096476	0.871008	99
Es	-0.448460	-0.077195	0.750906	99
Es	-1.648687	0.264889	0.336409	99
Es	0.611465	3.150951	0.757471	99
Es	-0.494840	0.105199	0.698434	99
Es	-0.487530	0.039683	0.786307	99
Es	0.110656	-1.334181	-0.962839	99
37
Properties=species:S:1:pos:R:3:Z:I:1 energy=-715.8189355850316 field_type=dipole dipole="0.000000 0.000000 0.000000" charge=0
O	-1.899877	0.129297	0.523835	8
S	-0.487517	0.039667	0.786315	16
O	0.209842	-0.604192	1.868375	8
C	0.126583	-0.804643	-0.637765	6
C	0.543763	-1.382602	-1.607095	6
C	0.099953	1.714177	0.778015	6
N	0.498123	2.809587	0.750805	7
H	0.909133	-1.901292	-2.462485	1
Es	-0.487436	0.039663	0.786360	99
Es	-2.012790	0.315271	0.715458	99
Es	-0.592893	0.034201	0.830064	99
Es	0.347791	-0.428726	1.603225	99
Es	0.129158	-0.869121	1.715557	99
Es	-0.133123	-0.363155	1.568309	99
Es	0.543815	-1.382719	-1.607245	99
Es	-0.115026	-0.388106	-0.032124	99
Es	0.612544	3.150470	0.758418	99
Es	0.330378	2.257514	1.067218	99
Es	0.497963	2.809147	0.750814	99
Es	-1.899536	0.129292	0.523886	99
Es	-0.472185	-0.036781	0.682615	99
Es	-0.433756	0.002742	0.856392	99
Es	-0.132688	1.005001	0.753878	99
Es	0.099772	1.713718	0.778031	99
Es	-1.645018	0.263186	0.345289	99
Es	0.524951	2.184291	0.570969	99
Es	0.126445	-0.804413	-0.637419	99
Es	0.654643	-1.011533	-0.998536	99
Es	0.176620	-0.450071	2.107283	99
Es	0.140497	-1.346059	-0.942439	99
Es	0.158637	-0.854749	-1.307741	99
Es	-0.450876	0.158895	0.775616	99
Es	0.209680	-0.604034	1.868138	99
Es	-1.875819	-0.169936	0.431690	99
Es	-1.428088	0.081626	0.733740	99
Es	0.057125	2.379208	0.651378	99
Es	0.775638	-1.720382	-2.154254	99
37
Properties=species:S:1:pos:R:3:Z:I:1 energy=-715.8189355850316 field_type=dipole dipole="0.000000 0.000000 0.000000" charge=0
O	-1.899877	0.129297	0.523835	8
S	-0.487517	0.039667	0.786315	16
O	0.209842	-0.604192	1.868375	8
C	0.126583	-0.804643	-0.637765	6
C	0.543763	-1.382602	-1.607095	6
C	0.099953	1.714177	0.778015	6
N	0.498123	2.809587	0.750805	7
H	0.909133	-1.901292	-2.462485	1
Es	-0.130166	1.004198	0.754667	99
Es	-0.403097	0.107725	0.762670	99
Es	0.611146	3.151113	0.757283	99
Es	0.543817	-1.382715	-1.607244	99
Es	-0.487534	0.039658	0.786310	99
Es	-0.114580	-0.387807	-0.032193	99
Es	0.209737	-0.604038	1.868174	99
Es	-1.424699	0.082881	0.725213	99
Es	0.044258	2.353320	0.907442	99
Es	0.327779	2.255020	0.459699	99
Es	0.125388	-0.868248	1.697139	99
Es	-0.485106	0.021317	0.902737	99
Es	-0.122984	-0.346562	1.563360	99
Es	0.135485	-1.344738	-0.945358	99
Es	-0.478530	-0.068366	0.717714	99
Es	-1.651574	0.262176	0.337974	99
Es	-1.878961	-0.171712	0.440662	99
Es	0.165710	-0.846711	-1.308334	99
Es	0.099804	1.713706	0.778014	99
Es	0.652209	-1.021058	-0.995019	99
Es	0.497960	2.809136	0.750815	99
Es	0.126461	-0.804391	-0.637426	99
Es	-2.006410	0.316958	0.722180	99
Es	-0.582829	0.098340	0.761633	99
Es	0.539254	2.212875	0.922793	99
Es	0.168778	-0.463987	2.111682	99
Es	0.349071	-0.432369	1.622224	99
Es	-1.899513	0.129280	0.523934	99
Es	0.775548	-1.720558	-2.154178	99
37
Properties=species:S:1:pos:R:3:Z:I:1 energy=-715.8189355850316 field_type=dipole dipole="0.000000 0.000000 0.000000" charge=0
O	-1.899877	0.129297	0.523835	8
S	-0.487517	0.039667	0.786315	16
O	0.209842	-0.604192	1.868375	8
C	0.126583	-0.804643	-0.637765	6
C	0.543763	-1.382602	-1.607095	6
C	0.099953	1.714177	0.778015	6
N	0.498123	2.809587	0.750805	7
H	0.909133	-1.901292	-2.462485	1
Es	-0.129221	-0.362335	1.564480	99
Es	-2.021998	0.308718	0.712834	99
Es	-0.466321	-0.084846	0.782546	99
Es	0.775805	-1.720167	-2.154319	99
Es	0.209639	-0.603984	1.868112	99
Es	0.651667	-0.988246	-1.009286	99
Es	0.126441	-0.804415	-0.637418	99
Es	-0.554424	0.063453	0.709265	99
Es	0.466968	2.200554	0.514140	99
Es	0.612979	3.150503	0.757821	99
Es	-1.427952	0.097228	0.732834	99
Es	-0.396496	0.092804	0.757316	99
Es	-0.132463	1.004769	0.754931	99
Es	-0.487462	0.039668	0.786327	99
Es	0.170091	-0.451254	2.108830	99
Es	0.028966	2.380872	0.737945	99
Es	-1.899556	0.129268	0.523902	99
Es	0.130235	-0.869169	1.712091	99
Es	0.349278	-0.428422	1.608994	99
Es	-1.859676	-0.178281	0.441518	99
Es	0.415902	2.239822	1.037010	99
Es	0.161596	-1.352996	-0.930187	99
Es	-0.532445	0.087657	0.895640	99
Es	0.099792	1.713712	0.778008	99
Es	-0.115279	-0.388150	-0.032203	99
Es	0.497958	2.809128	0.750817	99
Es	-1.652059	0.262489	0.338983	99
Es	0.543814	-1.382713	-1.607249	99
Es	0.140644	-0.871222	-1.309116	99
37
Properties=species:S:1:pos:R:3:Z:I:1 energy=-715.8189355850316 field_type=dipole dipole="0.000000 0.000000 0.000000" charge=0
O	-1.899877	0.129297	0.523835	8
S	-0.487517	0.039667	0.786315	16
O	0.209842	-0.604192	1.868375	8
C	0.126583	-0.804643	-0.637765	6
C	0.543763	-1.382602	-1.607095	6
C	0.099953	1.714177	0.778015	6
N	0.498123	2.809587	0.750805	7
H	0.909133	-1.901292	-2.462485	1
Es	0.651762	-0.991339	-1.008066	99
Es	0.497956	2.809128	0.750817	99
Es	0.141661	-0.873251	1.720279	99
Es	-0.126536	-0.369448	1.552951	99
Es	0.345019	-0.429188	1.615674	99
Es	0.543817	-1.382716	-1.607246	99
Es	-0.131447	1.004926	0.752120	99
Es	-1.659242	0.259810	0.340285	99
Es	-1.899544	0.129293	0.523892	99
Es	-1.422635	0.101637	0.728264	99
Es	0.143396	-0.869120	-1.308658	99
Es	-0.527129	0.152483	0.837282	99
Es	-0.546741	-0.003372	0.684063	99
Es	0.160216	-0.439138	2.105458	99
Es	-1.860516	-0.180520	0.443102	99
Es	0.775257	-1.720575	-2.154336	99
Es	0.126449	-0.804409	-0.637427	99
Es	-0.114770	-0.387768	-0.032242	99
Es	-0.487584	0.039592	0.786407	99
Es	-2.019285	0.309188	0.714407	99
Es	-0.494149	-0.032932	0.857702	99
Es	0.124351	2.354259	0.546242	99
Es	0.612810	3.150426	0.758669	99
Es	-0.381488	0.043005	0.765650	99
Es	0.158723	-1.352060	-0.931807	99
Es	0.205506	2.288955	1.058915	99
Es	0.099780	1.713708	0.777998	99
Es	0.581074	2.177934	0.685997	99
Es	0.209711	-0.604068	1.868177	99
