40
Properties=species:S:1:pos:R:3:Z:I:1 energy=-269.7666998038468 field_type=dipole dipole="0.000000 0.000000 0.000000" charge=0
C	0.913035	-1.288209	0.079816	6
C	-0.573235	-1.432739	0.000066	6
C	-1.554755	-0.526239	-0.048064	6
C	-1.461255	0.906941	-0.014334	6
C	-0.371945	1.679431	-0.014334	6
C	1.011255	1.292771	-0.048514	6
C	1.541985	0.066481	-0.000344	6
H	1.337695	-1.887769	-0.735734	1
H	1.246785	-1.758859	1.012956	1
H	-0.890955	-2.475809	-0.021284	1
H	-2.577245	-0.899939	-0.104894	1
H	-2.427105	1.411221	0.011426	1
H	-0.528485	2.757951	0.011226	1
H	1.702625	2.134251	-0.105724	1
H	2.631595	0.020511	-0.022264	1
Es	1.011206	1.292850	-0.048510	99
Es	-0.779902	-2.147002	-0.014339	99
Es	-2.252197	-0.777748	-0.087005	99
Es	-0.890611	1.256652	0.304075	99
Es	0.314260	1.466683	-0.032746	99
Es	1.132982	-1.598421	0.708791	99
Es	1.232230	0.673131	-0.350329	99
Es	-2.122219	1.246025	0.003185	99
Es	-0.900527	1.270555	-0.332603	99
Es	1.247458	0.706998	0.298255	99
Es	1.479697	1.867781	-0.087668	99
Es	0.913001	-1.288161	0.079812	99
Es	-1.461341	0.906867	-0.014341	99
Es	-1.080192	-0.942726	0.298567	99
Es	1.542015	0.066347	-0.000340	99
Es	1.194383	-0.592952	0.041292	99
Es	1.195650	-1.687037	-0.471682	99
Es	2.284394	0.024766	-0.015163	99
Es	-1.487772	0.189042	-0.032596	99
Es	-1.554816	-0.526160	-0.048067	99
Es	-1.043278	-0.939915	-0.349768	99
Es	0.163858	-1.323239	0.041306	99
Es	-0.573117	-1.432811	0.000070	99
Es	-0.371846	1.679486	-0.014337	99
Es	-0.473225	2.415447	0.003063	99
40
Properties=species:S:1:pos:R:3:Z:I:1 energy=-269.7666998038468 field_type=dipole dipole="0.000000 0.000000 0.000000" charge=0
C	0.913035	-1.288209	0.079816	6
C	-0.573235	-1.432739	0.000066	6
C	-1.554755	-0.526239	-0.048064	6
C	-1.461255	0.906941	-0.014334	6
C	-0.371945	1.679431	-0.014334	6
C	1.011255	1.292771	-0.048514	6
C	1.541985	0.066481	-0.000344	6
H	1.337695	-1.887769	-0.735734	1
H	1.246785	-1.758859	1.012956	1
H	-0.890955	-2.475809	-0.021284	1
H	-2.577245	-0.899939	-0.104894	1
H	-2.427105	1.411221	0.011426	1
H	-0.528485	2.757951	0.011226	1
H	1.702625	2.134251	-0.105724	1
H	2.631595	0.020511	-0.022264	1
Es	0.161982	-1.324103	0.041769	99
Es	0.913001	-1.288161	0.079811	99
Es	-1.554821	-0.526158	-0.048070	99
Es	1.246818	0.705599	0.293590	99
Es	-0.781216	-2.148220	-0.014221	99
Es	-0.891584	1.258039	0.291882	99
Es	1.542016	0.066343	-0.000341	99
Es	2.285989	0.025609	-0.015098	99
Es	1.481027	1.867116	-0.087482	99
Es	1.132122	-1.597238	0.704558	99
Es	1.195921	-0.591356	0.041510	99
Es	-2.251992	-0.779251	-0.086734	99
Es	-1.042691	-0.940197	-0.344953	99
Es	-0.900427	1.270480	-0.319689	99
Es	1.196298	-1.688211	-0.468426	99
Es	-0.371845	1.679489	-0.014339	99
Es	-1.461343	0.906866	-0.014335	99
Es	-0.573119	-1.432811	0.000068	99
Es	-1.484319	0.188816	-0.032769	99
Es	1.232417	0.672397	-0.345229	99
Es	-0.476460	2.418089	0.002340	99
Es	-1.078501	-0.942612	0.293939	99
Es	1.011201	1.292859	-0.048525	99
Es	0.313224	1.463179	-0.032884	99
Es	-2.123612	1.249898	0.002553	99
40
Properties=species:S:1:pos:R:3:Z:I:1 energy=-269.7666998038468 field_type=dipole dipole="0.000000 0.000000 0.000000" charge=0
C	0.913035	-1.288209	0.079816	6
C	-0.573235	-1.432739	0.000066	6
C	-1.554755	-0.526239	-0.048064	6
C	-1.461255	0.906941	-0.014334	6
C	-0.371945	1.679431	-0.014334	6
C	1.011255	1.292771	-0.048514	6
C	1.541985	0.066481	-0.000344	6
H	1.337695	-1.887769	-0.735734	1
H	1.246785	-1.758859	1.012956	1
H	-0.890955	-2.475809	-0.021284	1
H	-2.577245	-0.899939	-0.104894	1
H	-2.427105	1.411221	0.011426	1
H	-0.528485	2.757951	0.011226	1
H	1.702625	2.134251	-0.105724	1
H	2.631595	0.020511	-0.022264	1
Es	1.197981	-1.690636	-0.465273	99
Es	0.160600	-1.325048	0.042501	99
Es	-1.077264	-0.942527	0.291116	99
Es	-0.781980	-2.148864	-0.013908	99
Es	-0.573113	-1.432814	0.000072	99
Es	-1.554822	-0.526158	-0.048065	99
Es	1.232182	0.672351	-0.342208	99
Es	-0.371843	1.679491	-0.014336	99
Es	-1.042532	-0.940044	-0.341829	99
Es	-0.892466	1.259243	0.282950	99
Es	1.542016	0.066342	-0.000340	99
Es	-0.900308	1.270285	-0.310474	99
Es	-2.251672	-0.780384	-0.086853	99
Es	-2.123872	1.252573	0.001803	99
Es	1.481951	1.866572	-0.087534	99
Es	1.197251	-0.590447	0.042046	99
Es	1.011201	1.292862	-0.048515	99
Es	0.312600	1.460763	-0.032891	99
Es	-1.461342	0.906867	-0.014343	99
Es	-0.478997	2.419161	0.001687	99
Es	0.913005	-1.288167	0.079812	99
Es	-1.481779	0.188722	-0.032684	99
Es	2.286918	0.026189	-0.014683	99
Es	1.246280	0.704309	0.290646	99
Es	1.130094	-1.594182	0.700229	99
40
Properties=species:S:1:pos:R:3:Z:I:1 energy=-269.7666998038468 field_type=dipole dipole="0.000000 0.000000 0.000000" charge=0
C	0.913035	-1.288209	0.079816	6
C	-0.573235	-1.432739	0.000066	6
C	-1.554755	-0.526239	-0.048064	6
C	-1.461255	0.906941	-0.014334	6
C	-0.371945	1.679431	-0.014334	6
C	1.011255	1.292771	-0.048514	6
C	1.541985	0.066481	-0.000344	6
H	1.337695	-1.887769	-0.735734	1
H	1.246785	-1.758859	1.012956	1
H	-0.890955	-2.475809	-0.021284	1
H	-2.577245	-0.899939	-0.104894	1
H	-2.427105	1.411221	0.011426	1
H	-0.528485	2.757951	0.011226	1
H	1.702625	2.134251	-0.105724	1
H	2.631595	0.020511	-0.022264	1
Es	-1.076191	-0.942796	0.289486	99
Es	1.011201	1.292861	-0.048525	99
Es	1.482348	1.866096	-0.088224	99
Es	1.198076	-0.589971	0.042581	99
Es	0.913000	-1.288160	0.079810	99
Es	-0.371847	1.679489	-0.014344	99
Es	-0.900104	1.269970	-0.303845	99
Es	0.311959	1.458869	-0.032982	99
Es	-1.461345	0.906864	-0.014336	99
Es	0.159835	-1.325725	0.042726	99
Es	-0.480728	2.419595	0.000503	99
Es	-1.479732	0.188658	-0.032841	99
Es	-0.893298	1.260483	0.276903	99
Es	-1.042787	-0.939704	-0.339826	99
Es	1.246166	0.703377	0.289044	99
Es	2.287408	0.026549	-0.013886	99
Es	1.232000	0.672510	-0.340238	99
Es	1.542015	0.066338	-0.000336	99
Es	1.206457	-1.702409	-0.454343	99
Es	-2.251486	-0.780901	-0.087523	99
Es	-0.573111	-1.432813	0.000071	99
Es	-1.554821	-0.526158	-0.048076	99
Es	-2.123698	1.254405	0.000633	99
Es	1.121191	-1.581741	0.689595	99
Es	-0.782422	-2.149228	-0.013105	99
40
Properties=species:S:1:pos:R:3:Z:I:1 energy=-269.7666998038468 field_type=dipole dipole="0.000000 0.000000 0.000000" charge=0
C	0.913035	-1.288209	0.079816	6
C	-0.573235	-1.432739	0.000066	6
C	-1.554755	-0.526239	-0.048064	6
C	-1.461255	0.906941	-0.014334	6
C	-0.371945	1.679431	-0.014334	6
C	1.011255	1.292771	-0.048514	6
C	1.541985	0.066481	-0.000344	6
H	1.337695	-1.887769	-0.735734	1
H	1.246785	-1.758859	1.012956	1
H	-0.890955	-2.475809	-0.021284	1
H	-2.577245	-0.899939	-0.104894	1
H	-2.427105	1.411221	0.011426	1
H	-0.528485	2.757951	0.011226	1
H	1.702625	2.134251	-0.105724	1
H	2.631595	0.020511	-0.022264	1
Es	-1.461345	0.906865	-0.014336	99
Es	-2.250864	-0.780982	-0.088544	99
Es	-0.573113	-1.432813	0.000079	99
Es	1.231321	0.674226	-0.339625	99
Es	-1.479324	0.188678	-0.033418	99
Es	1.246728	0.701201	0.288861	99
Es	-0.899930	1.269719	-0.300062	99
Es	-2.123488	1.255274	-0.000559	99
Es	-0.782415	-2.149235	-0.012065	99
Es	0.159631	-1.325804	0.042821	99
Es	-0.371844	1.679490	-0.014338	99
Es	1.542015	0.066341	-0.000342	99
Es	1.482108	1.865590	-0.089240	99
Es	-1.554824	-0.526156	-0.048074	99
Es	-1.074655	-0.943667	0.289463	99
Es	0.311784	1.458354	-0.033429	99
Es	0.913000	-1.288160	0.079810	99
Es	-0.481575	2.419714	-0.000736	99
Es	1.011200	1.292861	-0.048523	99
Es	1.109187	-1.564894	0.660299	99
Es	2.287396	0.026309	-0.012837	99
Es	1.198339	-0.589711	0.042549	99
Es	-0.893837	1.261217	0.274099	99
Es	1.218270	-1.719245	-0.423574	99
Es	-1.043680	-0.938713	-0.339358	99
40
Properties=species:S:1:pos:R:3:Z:I:1 energy=-269.7666998038468 field_type=dipole dipole="0.000000 0.000000 0.000000" charge=0
C	0.913035	-1.288209	0.079816	6
C	-0.573235	-1.432739	0.000066	6
C	-1.554755	-0.526239	-0.048064	6
C	-1.461255	0.906941	-0.014334	6
C	-0.371945	1.679431	-0.014334	6
C	1.011255	1.292771	-0.048514	6
C	1.541985	0.066481	-0.000344	6
H	1.337695	-1.887769	-0.735734	1
H	1.246785	-1.758859	1.012956	1
H	-0.890955	-2.475809	-0.021284	1
H	-2.577245	-0.899939	-0.104894	1
H	-2.427105	1.411221	0.011426	1
H	-0.528485	2.757951	0.011226	1
H	1.702625	2.134251	-0.105724	1
H	2.631595	0.020511	-0.022264	1
Es	1.011200	1.292861	-0.048524	99
Es	-2.250398	-0.780666	-0.089136	99
Es	1.230820	0.674845	-0.339329	99
Es	0.913000	-1.288161	0.079812	99
Es	-0.899726	1.269323	-0.298812	99
Es	-0.371845	1.679490	-0.014347	99
Es	-1.554822	-0.526157	-0.048076	99
Es	1.542015	0.066342	-0.000333	99
Es	-0.482101	2.419721	-0.001320	99
Es	1.247136	0.700154	0.288698	99
Es	-0.894322	1.261928	0.272947	99
Es	-1.073872	-0.944344	0.289683	99
Es	1.198225	-0.589572	0.042559	99
Es	1.481742	1.865052	-0.089836	99
Es	1.103132	-1.556391	0.635274	99
Es	1.224442	-1.727772	-0.397367	99
Es	-1.044079	-0.938213	-0.339288	99
Es	-1.479101	0.188667	-0.033275	99
Es	0.311721	1.458401	-0.033321	99
Es	-0.782232	-2.149228	-0.011598	99
Es	-2.123352	1.255765	-0.001368	99
Es	2.287325	0.026197	-0.012388	99
Es	0.159635	-1.325837	0.042537	99
Es	-1.461345	0.906865	-0.014338	99
Es	-0.573112	-1.432812	0.000069	99
40
Properties=species:S:1:pos:R:3:Z:I:1 energy=-269.7666998038468 field_type=dipole dipole="0.000000 0.000000 0.000000" charge=0
C	0.913035	-1.288209	0.079816	6
C	-0.573235	-1.432739	0.000066	6
C	-1.554755	-0.526239	-0.048064	6
C	-1.461255	0.906941	-0.014334	6
C	-0.371945	1.679431	-0.014334	6
C	1.011255	1.292771	-0.048514	6
C	1.541985	0.066481	-0.000344	6
H	1.337695	-1.887769	-0.735734	1
H	1.246785	-1.758859	1.012956	1
H	-0.890955	-2.475809	-0.021284	1
H	-2.577245	-0.899939	-0.104894	1
H	-2.427105	1.411221	0.011426	1
H	-0.528485	2.757951	0.011226	1
H	1.702625	2.134251	-0.105724	1
H	2.631595	0.020511	-0.022264	1
Es	1.099842	-1.551772	0.617456	99
Es	1.198105	-0.589319	0.042426	99
Es	1.227810	-1.732445	-0.378912	99
Es	-0.371843	1.679490	-0.014333	99
Es	1.481402	1.864665	-0.090160	99
Es	1.011200	1.292859	-0.048532	99
Es	0.913001	-1.288160	0.079811	99
Es	-0.781922	-2.149362	-0.011271	99
Es	1.247431	0.699103	0.288145	99
Es	-0.573114	-1.432814	0.000074	99
Es	1.542015	0.066343	-0.000331	99
Es	-0.894610	1.262383	0.271421	99
Es	1.230489	0.675596	-0.338562	99
Es	-0.482576	2.419733	-0.001836	99
Es	-0.899544	1.269173	-0.297078	99
Es	-1.554821	-0.526157	-0.048074	99
Es	0.311651	1.458302	-0.033346	99
Es	0.159403	-1.325661	0.042447	99
Es	-2.249848	-0.780532	-0.089474	99
Es	-1.073656	-0.944560	0.290177	99
Es	-2.123190	1.256205	-0.001795	99
Es	-1.043963	-0.938058	-0.339733	99
Es	-1.461345	0.906865	-0.014339	99
Es	-1.479173	0.188721	-0.033238	99
Es	2.287344	0.025861	-0.012018	99
40
Properties=species:S:1:pos:R:3:Z:I:1 energy=-269.7666998038468 field_type=dipole dipole="0.000000 0.000000 0.000000" charge=0
C	0.913035	-1.288209	0.079816	6
C	-0.573235	-1.432739	0.000066	6
C	-1.554755	-0.526239	-0.048064	6
C	-1.461255	0.906941	-0.014334	6
C	-0.371945	1.679431	-0.014334	6
C	1.011255	1.292771	-0.048514	6
C	1.541985	0.066481	-0.000344	6
H	1.337695	-1.887769	-0.735734	1
H	1.246785	-1.758859	1.012956	1
H	-0.890955	-2.475809	-0.021284	1
H	-2.577245	-0.899939	-0.104894	1
H	-2.427105	1.411221	0.011426	1
H	-0.528485	2.757951	0.011226	1
H	1.702625	2.134251	-0.105724	1
H	2.631595	0.020511	-0.022264	1
Es	-1.554821	-0.526157	-0.048071	99
Es	-1.461345	0.906865	-0.014337	99
Es	1.230556	0.674880	-0.339939	99
Es	1.481096	1.864320	-0.090349	99
Es	-1.073751	-0.944567	0.291034	99
Es	-2.249410	-0.780330	-0.089709	99
Es	1.542015	0.066342	-0.000336	99
Es	1.198134	-0.589391	0.042286	99
Es	-0.371845	1.679489	-0.014326	99
Es	1.247290	0.699522	0.289598	99
Es	-0.899629	1.269273	-0.296183	99
Es	-0.573114	-1.432814	0.000074	99
Es	1.230209	-1.735859	-0.363124	99
Es	-1.043606	-0.938138	-0.340542	99
Es	-2.123131	1.256432	-0.002132	99
Es	-0.894847	1.262578	0.270706	99
Es	0.311658	1.458349	-0.033462	99
Es	-0.781793	-2.149288	-0.011050	99
Es	2.287242	0.025838	-0.011763	99
Es	1.097518	-1.548386	0.602161	99
Es	-1.479063	0.188746	-0.033217	99
Es	-0.482817	2.419730	-0.002242	99
Es	0.913003	-1.288162	0.079811	99
Es	0.159338	-1.325674	0.042565	99
Es	1.011199	1.292860	-0.048528	99
40
Properties=species:S:1:pos:R:3:Z:I:1 energy=-269.7666998038468 field_type=dipole dipole="0.000000 0.000000 0.000000" charge=0
C	0.913035	-1.288209	0.079816	6
C	-0.573235	-1.432739	0.000066	6
C	-1.554755	-0.526239	-0.048064	6
C	-1.461255	0.906941	-0.014334	6
C	-0.371945	1.679431	-0.014334	6
C	1.011255	1.292771	-0.048514	6
C	1.541985	0.066481	-0.000344	6
H	1.337695	-1.887769	-0.735734	1
H	1.246785	-1.758859	1.012956	1
H	-0.890955	-2.475809	-0.021284	1
H	-2.577245	-0.899939	-0.104894	1
H	-2.427105	1.411221	0.011426	1
H	-0.528485	2.757951	0.011226	1
H	1.702625	2.134251	-0.105724	1
H	2.631595	0.020511	-0.022264	1
Es	-1.554821	-0.526157	-0.048075	99
Es	1.542015	0.066342	-0.000332	99
Es	1.247638	0.698392	0.288107	99
Es	-2.249104	-0.780149	-0.089806	99
Es	-0.371843	1.679491	-0.014337	99
Es	0.311581	1.458118	-0.033258	99
Es	0.159324	-1.325559	0.042573	99
Es	1.198095	-0.589335	0.042371	99
Es	1.230148	0.675778	-0.338488	99
Es	2.287239	0.025734	-0.011696	99
Es	-0.483148	2.419714	-0.002531	99
Es	1.011199	1.292859	-0.048531	99
Es	-1.044231	-0.937561	-0.339780	99
Es	-1.461345	0.906864	-0.014336	99
Es	1.480925	1.864109	-0.090435	99
Es	-2.122979	1.256755	-0.002564	99
Es	1.231319	-1.737442	-0.355423	99
Es	-0.894932	1.262799	0.268846	99
Es	-0.899745	1.269391	-0.293965	99
Es	-0.781672	-2.149287	-0.010996	99
Es	-1.478863	0.188750	-0.033113	99
Es	-0.573114	-1.432814	0.000078	99
Es	-1.073027	-0.945253	0.290293	99
Es	1.096426	-1.546918	0.594510	99
Es	0.913001	-1.288162	0.079810	99
40
Properties=species:S:1:pos:R:3:Z:I:1 energy=-269.7666998038468 field_type=dipole dipole="0.000000 0.000000 0.000000" charge=0
C	0.913035	-1.288209	0.079816	6
C	-0.573235	-1.432739	0.000066	6
C	-1.554755	-0.526239	-0.048064	6
C	-1.461255	0.906941	-0.014334	6
C	-0.371945	1.679431	-0.014334	6
C	1.011255	1.292771	-0.048514	6
C	1.541985	0.066481	-0.000344	6
H	1.337695	-1.887769	-0.735734	1
H	1.246785	-1.758859	1.012956	1
H	-0.890955	-2.475809	-0.021284	1
H	-2.577245	-0.899939	-0.104894	1
H	-2.427105	1.411221	0.011426	1
H	-0.528485	2.757951	0.011226	1
H	1.702625	2.134251	-0.105724	1
H	2.631595	0.020511	-0.022264	1
Es	0.159228	-1.325480	0.042491	99
Es	2.287198	0.025564	-0.011648	99
Es	-0.781511	-2.149338	-0.010793	99
Es	-0.483397	2.419721	-0.002773	99
Es	-1.479123	0.188832	-0.033080	99
Es	0.311566	1.458379	-0.033271	99
Es	-2.248709	-0.780136	-0.089940	99
Es	-0.899469	1.269152	-0.294282	99
Es	1.232708	-1.739459	-0.344189	99
Es	1.198092	-0.589246	0.042219	99
Es	1.247246	0.700007	0.291191	99
Es	-0.895177	1.263064	0.268954	99
Es	1.230484	0.673992	-0.341282	99
Es	-1.044604	-0.937153	-0.339144	99
Es	-2.122914	1.256947	-0.002611	99
Es	-1.554820	-0.526157	-0.048079	99
Es	-0.573115	-1.432814	0.000079	99
Es	1.095065	-1.544919	0.583744	99
Es	0.913002	-1.288162	0.079811	99
Es	-1.461345	0.906864	-0.014337	99
Es	1.480705	1.863712	-0.090714	99
Es	-1.072393	-0.945602	0.289757	99
Es	-0.371844	1.679489	-0.014318	99
Es	1.011200	1.292860	-0.048527	99
Es	1.542015	0.066342	-0.000335	99
40
Properties=species:S:1:pos:R:3:Z:I:1 energy=-269.7666998038468 field_type=dipole dipole="0.000000 0.000000 0.000000" charge=0
C	0.913035	-1.288209	0.079816	6
C	-0.573235	-1.432739	0.000066	6
C	-1.554755	-0.526239	-0.048064	6
C	-1.461255	0.906941	-0.014334	6
C	-0.371945	1.679431	-0.014334	6
C	1.011255	1.292771	-0.048514	6
C	1.541985	0.066481	-0.000344	6
H	1.337695	-1.887769	-0.735734	1
H	1.246785	-1.758859	1.012956	1
H	-0.890955	-2.475809	-0.021284	1
H	-2.577245	-0.899939	-0.104894	1
H	-2.427105	1.411221	0.011426	1
H	-0.528485	2.757951	0.011226	1
H	1.702625	2.134251	-0.105724	1
H	2.631595	0.020511	-0.022264	1
Es	-1.554818	-0.526158	-0.048088	99
Es	2.287127	0.025397	-0.011514	99
Es	1.233453	-1.740507	-0.337962	99
Es	0.913000	-1.288162	0.079813	99
Es	-2.122815	1.257211	-0.002776	99
Es	-2.248485	-0.780057	-0.090004	99
Es	-1.479075	0.188835	-0.033006	99
Es	1.480562	1.863474	-0.090727	99
Es	1.230109	0.675217	-0.339732	99
Es	-0.899502	1.269225	-0.293371	99
Es	1.011200	1.292860	-0.048526	99
Es	-1.072677	-0.945483	0.290557	99
Es	-0.573114	-1.432813	0.000076	99
Es	1.094322	-1.543914	0.577570	99
Es	1.198079	-0.589223	0.042290	99
Es	-1.044159	-0.937286	-0.339978	99
Es	-0.483711	2.419712	-0.002910	99
Es	-0.895167	1.263160	0.268161	99
Es	1.542015	0.066342	-0.000329	99
Es	0.311524	1.458316	-0.033271	99
Es	0.159098	-1.325398	0.042555	99
Es	-0.781378	-2.149349	-0.010805	99
Es	-1.461345	0.906865	-0.014343	99
Es	1.247689	0.698707	0.289580	99
Es	-0.371843	1.679491	-0.014338	99
40
Properties=species:S:1:pos:R:3:Z:I:1 energy=-269.7666998038468 field_type=dipole dipole="0.000000 0.000000 0.000000" charge=0
C	0.913035	-1.288209	0.079816	6
C	-0.573235	-1.432739	0.000066	6
C	-1.554755	-0.526239	-0.048064	6
C	-1.461255	0.906941	-0.014334	6
C	-0.371945	1.679431	-0.014334	6
C	1.011255	1.292771	-0.048514	6
C	1.541985	0.066481	-0.000344	6
H	1.337695	-1.887769	-0.735734	1
H	1.246785	-1.758859	1.012956	1
H	-0.890955	-2.475809	-0.021284	1
H	-2.577245	-0.899939	-0.104894	1
H	-2.427105	1.411221	0.011426	1
H	-0.528485	2.757951	0.011226	1
H	1.702625	2.134251	-0.105724	1
H	2.631595	0.020511	-0.022264	1
Es	1.234123	-1.741433	-0.332334	99
Es	-2.248201	-0.779977	-0.090058	99
Es	-0.573115	-1.432814	0.000074	99
Es	0.311487	1.458292	-0.033159	99
Es	-0.781301	-2.149367	-0.010676	99
Es	-0.895302	1.263312	0.267670	99
Es	-0.899572	1.269207	-0.292721	99
Es	-2.122760	1.257350	-0.003012	99
Es	-0.483797	2.419702	-0.003134	99
Es	1.011200	1.292860	-0.048527	99
Es	-1.072289	-0.945717	0.290203	99
Es	1.542014	0.066342	-0.000334	99
Es	0.913005	-1.288165	0.079822	99
Es	1.480398	1.863287	-0.090806	99
Es	1.093691	-1.543024	0.572015	99
Es	0.159126	-1.325413	0.042422	99
Es	-0.371843	1.679491	-0.014335	99
Es	1.230132	0.674895	-0.340413	99
Es	-1.044461	-0.937068	-0.339496	99
Es	-1.479054	0.188887	-0.032994	99
Es	1.247597	0.698877	0.290277	99
Es	-1.554820	-0.526157	-0.048077	99
Es	2.287107	0.025342	-0.011380	99
Es	-1.461345	0.906865	-0.014338	99
Es	1.198068	-0.589112	0.042235	99
