41
Properties=species:S:1:pos:R:3:Z:I:1 energy=-302.9727002984491 field_type=dipole dipole="0.000000 0.000000 0.000000" charge=0
C	-2.188602	0.120767	0.361465	6
C	-0.851112	0.141737	0.256305	6
C	-0.011042	1.390777	0.154725	6
N	1.148138	0.894627	-0.539185	7
C	1.267828	-0.454863	-0.438405	6
N	2.349118	-1.099743	-0.708025	7
C	0.001248	-1.094183	0.081455	6
H	-2.737602	-0.816153	0.375065	1
H	-2.765692	1.037657	0.429215	1
H	0.265878	1.751697	1.150135	1
H	-0.501392	2.185147	-0.413875	1
H	2.007178	1.427997	-0.539395	1
H	2.210718	-2.103233	-0.550675	1
H	-0.400992	-1.794863	-0.654365	1
H	0.206328	-1.587373	1.035555	1
Es	-0.268551	-1.559392	-0.406477	99
Es	-2.563554	-0.512741	0.372824	99
Es	-2.583628	0.741141	0.408498	99
Es	1.267715	-0.454702	-0.438409	99
Es	-0.443422	-0.490864	0.183556	99
Es	1.232382	0.343139	-0.396847	99
Es	1.062403	0.774155	-0.814134	99
Es	-0.349309	1.931331	-0.224508	99
Es	-1.507574	0.126428	0.642831	99
Es	-1.564606	0.142155	-0.013266	99
Es	-2.188692	0.120767	0.361490	99
Es	1.148276	0.894392	-0.538615	99
Es	-0.850954	0.141740	0.256298	99
Es	0.001265	-1.094105	0.081449	99
Es	0.668424	1.123488	-0.224173	99
Es	-0.441410	0.776588	0.216231	99
Es	2.348665	-1.099890	-0.707868	99
Es	-0.010918	1.390673	0.154650	99
Es	2.670477	-0.956759	-0.823171	99
Es	0.140033	-1.416876	0.715880	99
Es	0.172641	1.633883	0.834999	99
Es	1.836556	-0.892224	-0.868192	99
Es	1.652889	1.212762	-0.522235	99
Es	2.009720	-0.836794	-0.331348	99
Es	0.630293	-0.784972	-0.183687	99
Es	2.245671	-1.706820	-0.608136	99
41
Properties=species:S:1:pos:R:3:Z:I:1 energy=-302.9727002984491 field_type=dipole dipole="0.000000 0.000000 0.000000" charge=0
C	-2.188602	0.120767	0.361465	6
C	-0.851112	0.141737	0.256305	6
C	-0.011042	1.390777	0.154725	6
N	1.148138	0.894627	-0.539185	7
C	1.267828	-0.454863	-0.438405	6
N	2.349118	-1.099743	-0.708025	7
C	0.001248	-1.094183	0.081455	6
H	-2.737602	-0.816153	0.375065	1
H	-2.765692	1.037657	0.429215	1
H	0.265878	1.751697	1.150135	1
H	-0.501392	2.185147	-0.413875	1
H	2.007178	1.427997	-0.539395	1
H	2.210718	-2.103233	-0.550675	1
H	-0.400992	-1.794863	-0.654365	1
H	0.206328	-1.587373	1.035555	1
Es	0.631532	-0.786227	-0.184313	99
Es	-0.441797	0.776537	0.217850	99
Es	1.228442	0.331055	-0.411907	99
Es	0.139679	-1.416578	0.712678	99
Es	1.267718	-0.454711	-0.438409	99
Es	-1.564528	0.142203	-0.011277	99
Es	0.659744	1.128178	-0.235073	99
Es	1.148290	0.894408	-0.538578	99
Es	-2.562096	-0.512144	0.372015	99
Es	-0.350303	1.932221	-0.224129	99
Es	-0.445391	-0.490674	0.184640	99
Es	1.835867	-0.891483	-0.869140	99
Es	-0.010921	1.390675	0.154654	99
Es	1.654036	1.212288	-0.523264	99
Es	0.171800	1.632744	0.833412	99
Es	0.001264	-1.094106	0.081450	99
Es	-1.507819	0.126038	0.641114	99
Es	2.247004	-1.706932	-0.607776	99
Es	1.074567	0.781275	-0.787053	99
Es	-0.850952	0.141741	0.256302	99
Es	-0.266885	-1.559716	-0.404636	99
Es	-2.188693	0.120768	0.361480	99
Es	2.008035	-0.840255	-0.334573	99
Es	2.348667	-1.099886	-0.707854	99
Es	-2.584975	0.742779	0.408509	99
Es	2.672507	-0.953693	-0.818482	99
41
Properties=species:S:1:pos:R:3:Z:I:1 energy=-302.9727002984491 field_type=dipole dipole="0.000000 0.000000 0.000000" charge=0
C	-2.188602	0.120767	0.361465	6
C	-0.851112	0.141737	0.256305	6
C	-0.011042	1.390777	0.154725	6
N	1.148138	0.894627	-0.539185	7
C	1.267828	-0.454863	-0.438405	6
N	2.349118	-1.099743	-0.708025	7
C	0.001248	-1.094183	0.081455	6
H	-2.737602	-0.816153	0.375065	1
H	-2.765692	1.037657	0.429215	1
H	0.265878	1.751697	1.150135	1
H	-0.501392	2.185147	-0.413875	1
H	2.007178	1.427997	-0.539395	1
H	2.210718	-2.103233	-0.550675	1
H	-0.400992	-1.794863	-0.654365	1
H	0.206328	-1.587373	1.035555	1
Es	0.632313	-0.786832	-0.185180	99
Es	0.171336	1.631907	0.832265	99
Es	2.247466	-1.706484	-0.607920	99
Es	0.655274	1.130482	-0.242595	99
Es	-0.850953	0.141739	0.256298	99
Es	2.008547	-0.842930	-0.335829	99
Es	1.267717	-0.454710	-0.438410	99
Es	2.673679	-0.952402	-0.816725	99
Es	1.834387	-0.890307	-0.869026	99
Es	-2.188696	0.120767	0.361490	99
Es	-0.010922	1.390675	0.154653	99
Es	-0.266062	-1.559895	-0.403106	99
Es	-0.442079	0.776330	0.219069	99
Es	0.001263	-1.094106	0.081449	99
Es	1.081439	0.785279	-0.769203	99
Es	1.148260	0.894476	-0.538666	99
Es	-2.560946	-0.511486	0.371711	99
Es	-2.585991	0.743431	0.408764	99
Es	0.139669	-1.416057	0.710337	99
Es	1.654576	1.211463	-0.523253	99
Es	-1.564747	0.142321	-0.011005	99
Es	-1.507786	0.125786	0.640299	99
Es	2.348660	-1.099885	-0.707864	99
Es	1.225813	0.324819	-0.421893	99
Es	-0.350971	1.932832	-0.223803	99
Es	-0.446456	-0.490709	0.185783	99
41
Properties=species:S:1:pos:R:3:Z:I:1 energy=-302.9727002984491 field_type=dipole dipole="0.000000 0.000000 0.000000" charge=0
C	-2.188602	0.120767	0.361465	6
C	-0.851112	0.141737	0.256305	6
C	-0.011042	1.390777	0.154725	6
N	1.148138	0.894627	-0.539185	7
C	1.267828	-0.454863	-0.438405	6
N	2.349118	-1.099743	-0.708025	7
C	0.001248	-1.094183	0.081455	6
H	-2.737602	-0.816153	0.375065	1
H	-2.765692	1.037657	0.429215	1
H	0.265878	1.751697	1.150135	1
H	-0.501392	2.185147	-0.413875	1
H	2.007178	1.427997	-0.539395	1
H	2.210718	-2.103233	-0.550675	1
H	-0.400992	-1.794863	-0.654365	1
H	0.206328	-1.587373	1.035555	1
Es	0.170893	1.631161	0.831563	99
Es	-0.265158	-1.559875	-0.402099	99
Es	-1.564741	0.142650	-0.010904	99
Es	2.247635	-1.706034	-0.608060	99
Es	2.674587	-0.951538	-0.815983	99
Es	0.001261	-1.094106	0.081447	99
Es	2.009294	-0.845033	-0.336855	99
Es	-0.010915	1.390675	0.154657	99
Es	-1.507862	0.125367	0.640321	99
Es	1.832964	-0.889337	-0.868346	99
Es	0.633204	-0.787506	-0.185078	99
Es	-0.442102	0.776275	0.219892	99
Es	-0.447239	-0.490624	0.185966	99
Es	-0.850951	0.141741	0.256297	99
Es	-2.586803	0.743627	0.408908	99
Es	1.086111	0.787760	-0.756098	99
Es	1.223895	0.321162	-0.429017	99
Es	-0.351581	1.933236	-0.223554	99
Es	0.652367	1.131998	-0.248772	99
Es	1.655000	1.210635	-0.522927	99
Es	-2.188696	0.120767	0.361491	99
Es	2.348653	-1.099883	-0.707863	99
Es	-2.560086	-0.510758	0.371214	99
Es	0.139068	-1.415590	0.708472	99
Es	1.148276	0.894446	-0.538624	99
Es	1.267718	-0.454711	-0.438408	99
41
Properties=species:S:1:pos:R:3:Z:I:1 energy=-302.9727002984491 field_type=dipole dipole="0.000000 0.000000 0.000000" charge=0
C	-2.188602	0.120767	0.361465	6
C	-0.851112	0.141737	0.256305	6
C	-0.011042	1.390777	0.154725	6
N	1.148138	0.894627	-0.539185	7
C	1.267828	-0.454863	-0.438405	6
N	2.349118	-1.099743	-0.708025	7
C	0.001248	-1.094183	0.081455	6
H	-2.737602	-0.816153	0.375065	1
H	-2.765692	1.037657	0.429215	1
H	0.265878	1.751697	1.150135	1
H	-0.501392	2.185147	-0.413875	1
H	2.007178	1.427997	-0.539395	1
H	2.210718	-2.103233	-0.550675	1
H	-0.400992	-1.794863	-0.654365	1
H	0.206328	-1.587373	1.035555	1
Es	1.832336	-0.888781	-0.868512	99
Es	1.267716	-0.454709	-0.438410	99
Es	-0.264699	-1.559993	-0.401218	99
Es	-1.507758	0.125267	0.640190	99
Es	-2.587416	0.743805	0.409023	99
Es	1.655235	1.209972	-0.522467	99
Es	0.650968	1.132544	-0.252165	99
Es	1.089263	0.790779	-0.745587	99
Es	-2.559388	-0.510141	0.371083	99
Es	0.170477	1.630433	0.830886	99
Es	0.633919	-0.787946	-0.185189	99
Es	-0.447683	-0.490737	0.186313	99
Es	0.001264	-1.094106	0.081448	99
Es	2.675506	-0.951098	-0.814680	99
Es	-0.010920	1.390674	0.154653	99
Es	0.138639	-1.414979	0.707039	99
Es	-0.850952	0.141740	0.256300	99
Es	-0.352069	1.933673	-0.223348	99
Es	2.348633	-1.099899	-0.707839	99
Es	-1.564919	0.142719	-0.010922	99
Es	1.148304	0.894348	-0.538533	99
Es	2.009377	-0.846360	-0.337584	99
Es	1.222117	0.317820	-0.436492	99
Es	-2.188696	0.120767	0.361489	99
Es	2.247617	-1.705518	-0.608199	99
Es	-0.442077	0.776229	0.220362	99
41
Properties=species:S:1:pos:R:3:Z:I:1 energy=-302.9727002984491 field_type=dipole dipole="0.000000 0.000000 0.000000" charge=0
C	-2.188602	0.120767	0.361465	6
C	-0.851112	0.141737	0.256305	6
C	-0.011042	1.390777	0.154725	6
N	1.148138	0.894627	-0.539185	7
C	1.267828	-0.454863	-0.438405	6
N	2.349118	-1.099743	-0.708025	7
C	0.001248	-1.094183	0.081455	6
H	-2.737602	-0.816153	0.375065	1
H	-2.765692	1.037657	0.429215	1
H	0.265878	1.751697	1.150135	1
H	-0.501392	2.185147	-0.413875	1
H	2.007178	1.427997	-0.539395	1
H	2.210718	-2.103233	-0.550675	1
H	-0.400992	-1.794863	-0.654365	1
H	0.206328	-1.587373	1.035555	1
Es	-0.264306	-1.560072	-0.400599	99
Es	1.148320	0.894307	-0.538489	99
Es	2.348661	-1.099888	-0.707864	99
Es	1.830414	-0.887484	-0.867195	99
Es	-2.558758	-0.509599	0.370734	99
Es	-0.352434	1.933887	-0.223167	99
Es	2.247625	-1.705172	-0.608183	99
Es	0.649656	1.133222	-0.255710	99
Es	1.655280	1.209543	-0.522460	99
Es	2.675867	-0.950820	-0.815069	99
Es	1.091448	0.791677	-0.738298	99
Es	2.011105	-0.848208	-0.338432	99
Es	-2.188697	0.120768	0.361489	99
Es	-0.442176	0.776080	0.220763	99
Es	0.138337	-1.414467	0.705678	99
Es	-2.588001	0.743782	0.409214	99
Es	1.221289	0.316392	-0.440009	99
Es	0.634489	-0.788327	-0.185178	99
Es	1.267716	-0.454709	-0.438412	99
Es	0.001264	-1.094105	0.081449	99
Es	-0.010922	1.390675	0.154652	99
Es	-0.447963	-0.490719	0.186718	99
Es	-1.564800	0.142924	-0.010961	99
Es	0.170257	1.630012	0.830325	99
Es	-0.850954	0.141738	0.256295	99
Es	-1.507924	0.125067	0.640349	99
41
Properties=species:S:1:pos:R:3:Z:I:1 energy=-302.9727002984491 field_type=dipole dipole="0.000000 0.000000 0.000000" charge=0
C	-2.188602	0.120767	0.361465	6
C	-0.851112	0.141737	0.256305	6
C	-0.011042	1.390777	0.154725	6
N	1.148138	0.894627	-0.539185	7
C	1.267828	-0.454863	-0.438405	6
N	2.349118	-1.099743	-0.708025	7
C	0.001248	-1.094183	0.081455	6
H	-2.737602	-0.816153	0.375065	1
H	-2.765692	1.037657	0.429215	1
H	0.265878	1.751697	1.150135	1
H	-0.501392	2.185147	-0.413875	1
H	2.007178	1.427997	-0.539395	1
H	2.210718	-2.103233	-0.550675	1
H	-0.400992	-1.794863	-0.654365	1
H	0.206328	-1.587373	1.035555	1
Es	-0.352883	1.934119	-0.223022	99
Es	0.170021	1.629555	0.829723	99
Es	1.220298	0.314875	-0.444183	99
Es	-0.442107	0.775899	0.221243	99
Es	-1.507876	0.124938	0.640486	99
Es	1.148341	0.894299	-0.538413	99
Es	-0.263897	-1.559964	-0.400063	99
Es	1.829857	-0.886997	-0.867140	99
Es	0.635372	-0.788735	-0.184772	99
Es	-2.188696	0.120767	0.361484	99
Es	2.011360	-0.849162	-0.338922	99
Es	-2.558198	-0.509053	0.370727	99
Es	2.247757	-1.704957	-0.608433	99
Es	-2.588511	0.743755	0.409230	99
Es	-0.448231	-0.490758	0.186805	99
Es	-1.564901	0.142985	-0.011117	99
Es	2.348643	-1.099884	-0.707853	99
Es	-0.010920	1.390674	0.154651	99
Es	-0.850951	0.141739	0.256302	99
Es	0.649009	1.133618	-0.257693	99
Es	0.137677	-1.414058	0.704375	99
Es	1.267715	-0.454708	-0.438411	99
Es	1.093139	0.793170	-0.732594	99
Es	1.655285	1.208970	-0.521885	99
Es	0.001266	-1.094101	0.081447	99
Es	2.676221	-0.950483	-0.814336	99
41
Properties=species:S:1:pos:R:3:Z:I:1 energy=-302.9727002984491 field_type=dipole dipole="0.000000 0.000000 0.000000" charge=0
C	-2.188602	0.120767	0.361465	6
C	-0.851112	0.141737	0.256305	6
C	-0.011042	1.390777	0.154725	6
N	1.148138	0.894627	-0.539185	7
C	1.267828	-0.454863	-0.438405	6
N	2.349118	-1.099743	-0.708025	7
C	0.001248	-1.094183	0.081455	6
H	-2.737602	-0.816153	0.375065	1
H	-2.765692	1.037657	0.429215	1
H	0.265878	1.751697	1.150135	1
H	-0.501392	2.185147	-0.413875	1
H	2.007178	1.427997	-0.539395	1
H	2.210718	-2.103233	-0.550675	1
H	-0.400992	-1.794863	-0.654365	1
H	0.206328	-1.587373	1.035555	1
Es	0.648264	1.133883	-0.260165	99
Es	-0.448477	-0.490744	0.186829	99
Es	1.829035	-0.886597	-0.866862	99
Es	0.001263	-1.094105	0.081448	99
Es	-2.557770	-0.508616	0.370728	99
Es	-0.353306	1.934223	-0.223003	99
Es	2.011903	-0.849998	-0.339334	99
Es	1.267716	-0.454710	-0.438412	99
Es	-1.564937	0.142982	-0.011262	99
Es	-2.188697	0.120767	0.361489	99
Es	0.169788	1.629214	0.829360	99
Es	1.095146	0.795542	-0.725615	99
Es	-0.441914	0.775947	0.221442	99
Es	-0.010920	1.390675	0.154653	99
Es	-1.507878	0.124904	0.640641	99
Es	0.137442	-1.413765	0.703605	99
Es	0.635731	-0.789014	-0.184749	99
Es	1.148355	0.893627	-0.538383	99
Es	1.655490	1.208396	-0.521178	99
Es	2.676712	-0.950492	-0.814184	99
Es	-0.263574	-1.559838	-0.399457	99
Es	2.348648	-1.099884	-0.707855	99
Es	-0.850951	0.141739	0.256299	99
Es	2.247632	-1.704482	-0.608427	99
Es	-2.588895	0.743718	0.409283	99
Es	1.218984	0.313130	-0.449251	99
41
Properties=species:S:1:pos:R:3:Z:I:1 energy=-302.9727002984491 field_type=dipole dipole="0.000000 0.000000 0.000000" charge=0
C	-2.188602	0.120767	0.361465	6
C	-0.851112	0.141737	0.256305	6
C	-0.011042	1.390777	0.154725	6
N	1.148138	0.894627	-0.539185	7
C	1.267828	-0.454863	-0.438405	6
N	2.349118	-1.099743	-0.708025	7
C	0.001248	-1.094183	0.081455	6
H	-2.737602	-0.816153	0.375065	1
H	-2.765692	1.037657	0.429215	1
H	0.265878	1.751697	1.150135	1
H	-0.501392	2.185147	-0.413875	1
H	2.007178	1.427997	-0.539395	1
H	2.210718	-2.103233	-0.550675	1
H	-0.400992	-1.794863	-0.654365	1
H	0.206328	-1.587373	1.035555	1
Es	-2.589263	0.743636	0.409365	99
Es	-0.448529	-0.490691	0.186737	99
Es	2.012647	-0.851069	-0.340125	99
Es	-0.441966	0.775702	0.221726	99
Es	0.636156	-0.789382	-0.184606	99
Es	2.247601	-1.704298	-0.608463	99
Es	2.348636	-1.099884	-0.707855	99
Es	0.137070	-1.413462	0.702890	99
Es	-0.263322	-1.559723	-0.398968	99
Es	0.647808	1.134123	-0.261754	99
Es	-0.353594	1.934409	-0.222874	99
Es	1.148381	0.893952	-0.538318	99
Es	-0.850951	0.141739	0.256299	99
Es	0.001263	-1.094105	0.081448	99
Es	-1.564904	0.143140	-0.011447	99
Es	1.828145	-0.885758	-0.866361	99
Es	0.169679	1.628887	0.828974	99
Es	-2.188696	0.120768	0.361489	99
Es	-0.010922	1.390675	0.154653	99
Es	-1.507918	0.124775	0.640915	99
Es	1.218039	0.311967	-0.452879	99
Es	2.677010	-0.950369	-0.813866	99
Es	1.096439	0.796238	-0.720478	99
Es	1.655640	1.208076	-0.521002	99
Es	1.267714	-0.454710	-0.438417	99
Es	-2.557372	-0.508134	0.370553	99
41
Properties=species:S:1:pos:R:3:Z:I:1 energy=-302.9727002984491 field_type=dipole dipole="0.000000 0.000000 0.000000" charge=0
C	-2.188602	0.120767	0.361465	6
C	-0.851112	0.141737	0.256305	6
C	-0.011042	1.390777	0.154725	6
N	1.148138	0.894627	-0.539185	7
C	1.267828	-0.454863	-0.438405	6
N	2.349118	-1.099743	-0.708025	7
C	0.001248	-1.094183	0.081455	6
H	-2.737602	-0.816153	0.375065	1
H	-2.765692	1.037657	0.429215	1
H	0.265878	1.751697	1.150135	1
H	-0.501392	2.185147	-0.413875	1
H	2.007178	1.427997	-0.539395	1
H	2.210718	-2.103233	-0.550675	1
H	-0.400992	-1.794863	-0.654365	1
H	0.206328	-1.587373	1.035555	1
Es	2.348631	-1.099880	-0.707854	99
Es	0.001264	-1.094109	0.081453	99
Es	1.267715	-0.454710	-0.438413	99
Es	1.096927	0.795575	-0.719025	99
Es	-2.557031	-0.507793	0.370508	99
Es	-0.850949	0.141739	0.256299	99
Es	2.247745	-1.704258	-0.608551	99
Es	-0.448695	-0.490748	0.186987	99
Es	-0.263189	-1.559818	-0.398607	99
Es	2.677024	-0.950175	-0.813840	99
Es	1.827743	-0.885493	-0.866050	99
Es	0.136449	-1.412876	0.701619	99
Es	0.169448	1.628451	0.828645	99
Es	0.636988	-0.789806	-0.184039	99
Es	-0.010921	1.390673	0.154651	99
Es	0.647438	1.134354	-0.263139	99
Es	2.012965	-0.851531	-0.340393	99
Es	-2.589535	0.743651	0.409475	99
Es	1.148314	0.894368	-0.538506	99
Es	-2.188698	0.120768	0.361486	99
Es	-0.353865	1.934598	-0.222680	99
Es	1.218134	0.312160	-0.452696	99
Es	-1.507891	0.124648	0.640824	99
Es	-1.564976	0.143157	-0.011452	99
Es	1.655578	1.207846	-0.520892	99
Es	-0.441820	0.775710	0.221830	99
41
Properties=species:S:1:pos:R:3:Z:I:1 energy=-302.9727002984491 field_type=dipole dipole="0.000000 0.000000 0.000000" charge=0
C	-2.188602	0.120767	0.361465	6
C	-0.851112	0.141737	0.256305	6
C	-0.011042	1.390777	0.154725	6
N	1.148138	0.894627	-0.539185	7
C	1.267828	-0.454863	-0.438405	6
N	2.349118	-1.099743	-0.708025	7
C	0.001248	-1.094183	0.081455	6
H	-2.737602	-0.816153	0.375065	1
H	-2.765692	1.037657	0.429215	1
H	0.265878	1.751697	1.150135	1
H	-0.501392	2.185147	-0.413875	1
H	2.007178	1.427997	-0.539395	1
H	2.210718	-2.103233	-0.550675	1
H	-0.400992	-1.794863	-0.654365	1
H	0.206328	-1.587373	1.035555	1
Es	0.169381	1.628230	0.828318	99
Es	0.001263	-1.094108	0.081451	99
Es	1.826433	-0.884314	-0.865010	99
Es	0.136402	-1.412667	0.701179	99
Es	2.348654	-1.099885	-0.707862	99
Es	1.098005	0.796741	-0.715195	99
Es	0.637109	-0.789882	-0.184143	99
Es	1.655466	1.207514	-0.520318	99
Es	2.247423	-1.703951	-0.608543	99
Es	2.014176	-0.852937	-0.341409	99
Es	-1.507942	0.124615	0.641025	99
Es	-2.589814	0.743537	0.409603	99
Es	-0.354084	1.934711	-0.222623	99
Es	1.148300	0.894423	-0.538553	99
Es	-0.448907	-0.490831	0.186901	99
Es	-2.188696	0.120768	0.361489	99
Es	1.267716	-0.454710	-0.438412	99
Es	-1.564939	0.143227	-0.011642	99
Es	1.217366	0.310974	-0.456112	99
Es	-0.010923	1.390677	0.154656	99
Es	-0.441784	0.775680	0.221996	99
Es	0.647247	1.134386	-0.263936	99
Es	-2.556729	-0.507443	0.370511	99
Es	-0.262880	-1.559771	-0.398258	99
Es	2.677500	-0.950220	-0.813776	99
Es	-0.850950	0.141739	0.256301	99
41
Properties=species:S:1:pos:R:3:Z:I:1 energy=-302.9727002984491 field_type=dipole dipole="0.000000 0.000000 0.000000" charge=0
C	-2.188602	0.120767	0.361465	6
C	-0.851112	0.141737	0.256305	6
C	-0.011042	1.390777	0.154725	6
N	1.148138	0.894627	-0.539185	7
C	1.267828	-0.454863	-0.438405	6
N	2.349118	-1.099743	-0.708025	7
C	0.001248	-1.094183	0.081455	6
H	-2.737602	-0.816153	0.375065	1
H	-2.765692	1.037657	0.429215	1
H	0.265878	1.751697	1.150135	1
H	-0.501392	2.185147	-0.413875	1
H	2.007178	1.427997	-0.539395	1
H	2.210718	-2.103233	-0.550675	1
H	-0.400992	-1.794863	-0.654365	1
H	0.206328	-1.587373	1.035555	1
Es	1.217045	0.310668	-0.457263	99
Es	-2.556406	-0.507079	0.370476	99
Es	0.001263	-1.094104	0.081447	99
Es	2.014530	-0.853632	-0.341383	99
Es	0.136056	-1.412268	0.700474	99
Es	-1.564928	0.143315	-0.011872	99
Es	-2.188697	0.120768	0.361484	99
Es	0.169283	1.628005	0.828103	99
Es	0.647015	1.134630	-0.264982	99
Es	-0.262785	-1.559827	-0.397946	99
Es	1.098541	0.796488	-0.711814	99
Es	1.267715	-0.454710	-0.438413	99
Es	-0.354350	1.934801	-0.222544	99
Es	-0.850951	0.141739	0.256300	99
Es	2.677406	-0.950088	-0.813562	99
Es	1.655603	1.207682	-0.521200	99
Es	-2.590090	0.743482	0.409673	99
Es	-0.010920	1.390674	0.154650	99
Es	2.348631	-1.099881	-0.707853	99
Es	1.148236	0.894523	-0.538746	99
Es	2.247786	-1.703724	-0.608942	99
Es	-1.507977	0.124493	0.641041	99
Es	-0.448930	-0.490824	0.186962	99
Es	-0.441706	0.775476	0.222273	99
Es	1.825883	-0.883971	-0.864829	99
Es	0.637537	-0.790132	-0.183897	99
41
Properties=species:S:1:pos:R:3:Z:I:1 energy=-302.9727002984491 field_type=dipole dipole="0.000000 0.000000 0.000000" charge=0
C	-2.188602	0.120767	0.361465	6
C	-0.851112	0.141737	0.256305	6
C	-0.011042	1.390777	0.154725	6
N	1.148138	0.894627	-0.539185	7
C	1.267828	-0.454863	-0.438405	6
N	2.349118	-1.099743	-0.708025	7
C	0.001248	-1.094183	0.081455	6
H	-2.737602	-0.816153	0.375065	1
H	-2.765692	1.037657	0.429215	1
H	0.265878	1.751697	1.150135	1
H	-0.501392	2.185147	-0.413875	1
H	2.007178	1.427997	-0.539395	1
H	2.210718	-2.103233	-0.550675	1
H	-0.400992	-1.794863	-0.654365	1
H	0.206328	-1.587373	1.035555	1
Es	-1.507884	0.124609	0.641120	99
Es	1.099399	0.797917	-0.709855	99
Es	0.001263	-1.094105	0.081448	99
Es	-0.010918	1.390674	0.154653	99
Es	-2.590200	0.743459	0.409709	99
Es	2.015335	-0.854013	-0.342157	99
Es	-0.441647	0.775506	0.222200	99
Es	0.646856	1.134665	-0.265620	99
Es	-2.188697	0.120766	0.361490	99
Es	-0.262627	-1.559636	-0.397590	99
Es	1.216373	0.309903	-0.460253	99
Es	-1.565039	0.143262	-0.011838	99
Es	2.677423	-0.950038	-0.814067	99
Es	-2.556275	-0.506937	0.370491	99
Es	-0.850948	0.141740	0.256300	99
Es	1.148317	0.894361	-0.538502	99
Es	2.247750	-1.703766	-0.608504	99
Es	0.135848	-1.412139	0.700004	99
Es	0.637763	-0.790386	-0.183821	99
Es	1.825149	-0.883535	-0.863949	99
Es	0.169164	1.627746	0.827794	99
Es	-0.354553	1.934905	-0.222433	99
Es	-0.449001	-0.490814	0.187016	99
Es	1.655581	1.206953	-0.519732	99
Es	2.348644	-1.099882	-0.707858	99
Es	1.267717	-0.454711	-0.438409	99
41
Properties=species:S:1:pos:R:3:Z:I:1 energy=-302.9727002984491 field_type=dipole dipole="0.000000 0.000000 0.000000" charge=0
C	-2.188602	0.120767	0.361465	6
C	-0.851112	0.141737	0.256305	6
C	-0.011042	1.390777	0.154725	6
N	1.148138	0.894627	-0.539185	7
C	1.267828	-0.454863	-0.438405	6
N	2.349118	-1.099743	-0.708025	7
C	0.001248	-1.094183	0.081455	6
H	-2.737602	-0.816153	0.375065	1
H	-2.765692	1.037657	0.429215	1
H	0.265878	1.751697	1.150135	1
H	-0.501392	2.185147	-0.413875	1
H	2.007178	1.427997	-0.539395	1
H	2.210718	-2.103233	-0.550675	1
H	-0.400992	-1.794863	-0.654365	1
H	0.206328	-1.587373	1.035555	1
Es	-1.507937	0.124540	0.641295	99
Es	0.169117	1.627562	0.827433	99
Es	1.148358	0.894259	-0.538371	99
Es	0.001265	-1.094112	0.081455	99
Es	2.348641	-1.099885	-0.707855	99
Es	0.135641	-1.411919	0.699564	99
Es	-1.564999	0.143243	-0.011999	99
Es	-0.449013	-0.490853	0.187069	99
Es	2.247795	-1.703646	-0.608723	99
Es	1.099906	0.798261	-0.707074	99
Es	-0.441604	0.775438	0.222467	99
Es	2.015196	-0.854448	-0.342420	99
Es	-2.590484	0.743362	0.409660	99
Es	0.646708	1.134670	-0.266199	99
Es	2.677637	-0.949865	-0.813406	99
Es	-2.555966	-0.506541	0.370466	99
Es	-0.262530	-1.559616	-0.397383	99
Es	-0.354762	1.935015	-0.222359	99
Es	0.638066	-0.790517	-0.183693	99
Es	-0.010920	1.390675	0.154653	99
Es	-0.850951	0.141739	0.256302	99
Es	1.655626	1.206966	-0.520116	99
Es	1.215920	0.309501	-0.462069	99
Es	1.267715	-0.454710	-0.438412	99
Es	1.825064	-0.883383	-0.864139	99
Es	-2.188698	0.120767	0.361492	99
41
Properties=species:S:1:pos:R:3:Z:I:1 energy=-302.9727002984491 field_type=dipole dipole="0.000000 0.000000 0.000000" charge=0
C	-2.188602	0.120767	0.361465	6
C	-0.851112	0.141737	0.256305	6
C	-0.011042	1.390777	0.154725	6
N	1.148138	0.894627	-0.539185	7
C	1.267828	-0.454863	-0.438405	6
N	2.349118	-1.099743	-0.708025	7
C	0.001248	-1.094183	0.081455	6
H	-2.737602	-0.816153	0.375065	1
H	-2.765692	1.037657	0.429215	1
H	0.265878	1.751697	1.150135	1
H	-0.501392	2.185147	-0.413875	1
H	2.007178	1.427997	-0.539395	1
H	2.210718	-2.103233	-0.550675	1
H	-0.400992	-1.794863	-0.654365	1
H	0.206328	-1.587373	1.035555	1
Es	1.100290	0.799628	-0.705484	99
Es	-2.555784	-0.506393	0.370406	99
Es	-0.262499	-1.559681	-0.397139	99
Es	-0.010920	1.390674	0.154651	99
Es	-1.507950	0.124496	0.641306	99
Es	-2.590641	0.743304	0.409785	99
Es	1.267715	-0.454710	-0.438413	99
Es	-0.850951	0.141739	0.256298	99
Es	1.148329	0.893029	-0.538473	99
Es	0.646628	1.134811	-0.266694	99
Es	1.824044	-0.882446	-0.863099	99
Es	-2.188697	0.120768	0.361491	99
Es	-0.354795	1.935094	-0.222280	99
Es	0.638414	-0.790725	-0.183541	99
Es	0.135460	-1.411574	0.698882	99
Es	2.247744	-1.703564	-0.608720	99
Es	0.168985	1.627348	0.827432	99
Es	2.348632	-1.099876	-0.707856	99
Es	-0.441661	0.775416	0.222344	99
Es	2.677613	-0.950012	-0.813772	99
Es	-1.565008	0.143309	-0.012059	99
Es	1.215806	0.309267	-0.462947	99
Es	1.655471	1.206893	-0.520142	99
Es	0.001264	-1.094105	0.081448	99
Es	2.016313	-0.855342	-0.343075	99
Es	-0.449012	-0.490847	0.187290	99
41
Properties=species:S:1:pos:R:3:Z:I:1 energy=-302.9727002984491 field_type=dipole dipole="0.000000 0.000000 0.000000" charge=0
C	-2.188602	0.120767	0.361465	6
C	-0.851112	0.141737	0.256305	6
C	-0.011042	1.390777	0.154725	6
N	1.148138	0.894627	-0.539185	7
C	1.267828	-0.454863	-0.438405	6
N	2.349118	-1.099743	-0.708025	7
C	0.001248	-1.094183	0.081455	6
H	-2.737602	-0.816153	0.375065	1
H	-2.765692	1.037657	0.429215	1
H	0.265878	1.751697	1.150135	1
H	-0.501392	2.185147	-0.413875	1
H	2.007178	1.427997	-0.539395	1
H	2.210718	-2.103233	-0.550675	1
H	-0.400992	-1.794863	-0.654365	1
H	0.206328	-1.587373	1.035555	1
Es	1.824670	-0.882904	-0.863755	99
Es	0.001262	-1.094106	0.081447	99
Es	1.148279	0.894460	-0.538615	99
Es	1.655487	1.206501	-0.519529	99
Es	-0.850951	0.141739	0.256294	99
Es	-0.010917	1.390674	0.154652	99
Es	2.247418	-1.703384	-0.608749	99
Es	-1.507960	0.124471	0.641481	99
Es	1.100992	0.798633	-0.703372	99
Es	2.678053	-0.950054	-0.813369	99
Es	-2.590762	0.743271	0.409740	99
Es	-0.449163	-0.490891	0.187110	99
Es	-1.564990	0.143281	-0.012083	99
Es	0.638498	-0.790871	-0.183595	99
Es	1.267716	-0.454709	-0.438412	99
Es	-2.555646	-0.506160	0.370401	99
Es	-0.355054	1.935264	-0.222088	99
Es	0.135391	-1.411441	0.698684	99
Es	-0.262321	-1.559592	-0.396812	99
Es	2.015620	-0.854951	-0.342823	99
Es	-2.188696	0.120767	0.361495	99
Es	-0.441522	0.775381	0.222560	99
Es	0.646355	1.135006	-0.267991	99
Es	2.348651	-1.099878	-0.707860	99
Es	1.215434	0.308908	-0.464149	99
Es	0.168948	1.627085	0.826978	99
