41
Properties=species:S:1:pos:R:3:Z:I:1 energy=-302.94407363180477 field_type=dipole dipole="0.000000 0.000000 0.000000" charge=0
C	-1.420784	0.660145	0.349327	6
C	0.089606	0.603365	0.420327	6
C	0.708706	1.690985	-0.390453	6
N	1.432576	1.258855	-1.368963	7
N	1.410486	-0.167985	-1.342593	7
C	0.671726	-0.541925	-0.343543	6
C	0.429836	-1.963655	0.025867	6
H	-1.795484	1.597425	0.774067	1
H	-1.868724	-0.170315	0.904507	1
H	-1.780264	0.598405	-0.684423	1
H	0.463916	0.630865	1.445947	1
H	0.553146	2.751995	-0.152063	1
H	0.996306	-2.628875	-0.631033	1
H	-0.634724	-2.191995	-0.066983	1
H	0.743676	-2.127295	1.060017	1
Es	1.601420	-0.370723	-1.600790	99
Es	0.599124	2.404329	-0.228320	99
Es	0.671688	-0.541952	-0.343488	99
Es	0.638952	-2.059317	0.722776	99
Es	-1.420711	0.660141	0.349334	99
Es	-1.665267	1.296755	0.640000	99
Es	-1.652109	0.617265	-0.350395	99
Es	-0.286524	-2.101843	-0.034725	99
Es	-0.641339	0.625840	0.377862	99
Es	0.708664	1.691011	-0.390399	99
Es	1.432243	1.258572	-1.368516	99
Es	0.859294	-0.312295	-1.079416	99
Es	0.806390	-2.408072	-0.410875	99
Es	-1.716491	0.094785	0.727986	99
Es	0.381300	1.172144	0.044702	99
Es	1.410168	-0.167654	-1.342168	99
Es	0.875858	1.443391	-1.099528	99
Es	1.319360	-0.310764	-0.741392	99
Es	0.429827	-1.963581	0.025872	99
Es	0.343962	0.618086	1.097636	99
Es	0.089590	0.603366	0.420305	99
Es	1.337843	1.440803	-0.762221	99
Es	1.629239	1.443041	-1.635292	99
Es	0.548830	-1.248677	-0.161071	99
Es	1.402996	0.550319	-1.333093	99
Es	0.358801	0.006799	0.068884	99
41
Properties=species:S:1:pos:R:3:Z:I:1 energy=-302.94407363180477 field_type=dipole dipole="0.000000 0.000000 0.000000" charge=0
C	-1.420784	0.660145	0.349327	6
C	0.089606	0.603365	0.420327	6
C	0.708706	1.690985	-0.390453	6
N	1.432576	1.258855	-1.368963	7
N	1.410486	-0.167985	-1.342593	7
C	0.671726	-0.541925	-0.343543	6
C	0.429836	-1.963655	0.025867	6
H	-1.795484	1.597425	0.774067	1
H	-1.868724	-0.170315	0.904507	1
H	-1.780264	0.598405	-0.684423	1
H	0.463916	0.630865	1.445947	1
H	0.553146	2.751995	-0.152063	1
H	0.996306	-2.628875	-0.631033	1
H	-0.634724	-2.191995	-0.066983	1
H	0.743676	-2.127295	1.060017	1
Es	0.671687	-0.541952	-0.343487	99
Es	1.333024	1.438459	-0.764465	99
Es	0.548085	-1.247710	-0.160601	99
Es	-0.284463	-2.100935	-0.033422	99
Es	0.342324	0.617972	1.096300	99
Es	0.879573	1.440985	-1.095565	99
Es	0.708667	1.691008	-0.390404	99
Es	-1.650895	0.617465	-0.349101	99
Es	0.636915	-2.058877	0.721921	99
Es	-1.664994	1.298201	0.639589	99
Es	1.410173	-0.167653	-1.342175	99
Es	1.603324	-0.375103	-1.603578	99
Es	1.401339	0.550543	-1.331081	99
Es	-0.641094	0.625954	0.378447	99
Es	1.432245	1.258551	-1.368520	99
Es	0.599532	2.404426	-0.228687	99
Es	-1.420707	0.660142	0.349334	99
Es	0.358484	0.005856	0.069354	99
Es	0.863389	-0.309561	-1.075767	99
Es	0.089588	0.603366	0.420304	99
Es	0.381105	1.173364	0.045244	99
Es	0.807270	-2.410406	-0.412060	99
Es	0.429828	-1.963581	0.025872	99
Es	1.631228	1.447285	-1.638366	99
Es	-1.716721	0.092979	0.728375	99
Es	1.314202	-0.309008	-0.743789	99
41
Properties=species:S:1:pos:R:3:Z:I:1 energy=-302.94407363180477 field_type=dipole dipole="0.000000 0.000000 0.000000" charge=0
C	-1.420784	0.660145	0.349327	6
C	0.089606	0.603365	0.420327	6
C	0.708706	1.690985	-0.390453	6
N	1.432576	1.258855	-1.368963	7
N	1.410486	-0.167985	-1.342593	7
C	0.671726	-0.541925	-0.343543	6
C	0.429836	-1.963655	0.025867	6
H	-1.795484	1.597425	0.774067	1
H	-1.868724	-0.170315	0.904507	1
H	-1.780264	0.598405	-0.684423	1
H	0.463916	0.630865	1.445947	1
H	0.553146	2.751995	-0.152063	1
H	0.996306	-2.628875	-0.631033	1
H	-0.634724	-2.191995	-0.066983	1
H	0.743676	-2.127295	1.060017	1
Es	0.429827	-1.963581	0.025873	99
Es	0.341082	0.617959	1.095471	99
Es	0.865480	-0.308691	-1.072519	99
Es	1.400102	0.550738	-1.329216	99
Es	1.330313	1.436707	-0.766038	99
Es	0.089584	0.603366	0.420304	99
Es	0.671683	-0.541955	-0.343485	99
Es	1.432248	1.258549	-1.368522	99
Es	-0.282756	-2.100015	-0.032716	99
Es	-1.650209	0.617708	-0.348346	99
Es	0.380679	1.174215	0.045522	99
Es	-1.420705	0.660144	0.349334	99
Es	1.410172	-0.167653	-1.342169	99
Es	1.632562	1.449683	-1.640228	99
Es	0.635559	-2.058808	0.721546	99
Es	0.708668	1.691008	-0.390403	99
Es	0.547466	-1.247042	-0.160245	99
Es	0.599749	2.404323	-0.229019	99
Es	-1.664575	1.298998	0.639350	99
Es	1.312257	-0.306958	-0.746035	99
Es	0.807581	-2.411799	-0.413099	99
Es	0.881954	1.439627	-1.093203	99
Es	1.604069	-0.377618	-1.605598	99
Es	-0.640877	0.625841	0.378614	99
Es	0.358054	0.005143	0.069833	99
Es	-1.716857	0.091881	0.728664	99
41
Properties=species:S:1:pos:R:3:Z:I:1 energy=-302.94407363180477 field_type=dipole dipole="0.000000 0.000000 0.000000" charge=0
C	-1.420784	0.660145	0.349327	6
C	0.089606	0.603365	0.420327	6
C	0.708706	1.690985	-0.390453	6
N	1.432576	1.258855	-1.368963	7
N	1.410486	-0.167985	-1.342593	7
C	0.671726	-0.541925	-0.343543	6
C	0.429836	-1.963655	0.025867	6
H	-1.795484	1.597425	0.774067	1
H	-1.868724	-0.170315	0.904507	1
H	-1.780264	0.598405	-0.684423	1
H	0.463916	0.630865	1.445947	1
H	0.553146	2.751995	-0.152063	1
H	0.996306	-2.628875	-0.631033	1
H	-0.634724	-2.191995	-0.066983	1
H	0.743676	-2.127295	1.060017	1
Es	0.339980	0.617870	1.094645	99
Es	0.867216	-0.307360	-1.071777	99
Es	0.380500	1.174951	0.046036	99
Es	0.089597	0.603366	0.420313	99
Es	1.432246	1.258562	-1.368521	99
Es	0.634334	-2.058721	0.721355	99
Es	-1.664292	1.299710	0.639020	99
Es	0.671684	-0.541955	-0.343484	99
Es	0.600042	2.404100	-0.229302	99
Es	1.398705	0.550999	-1.327513	99
Es	0.357887	0.004567	0.070362	99
Es	-1.716975	0.091055	0.728877	99
Es	1.633790	1.451022	-1.641562	99
Es	-0.640645	0.625782	0.378632	99
Es	-1.649646	0.617795	-0.347524	99
Es	1.309856	-0.306361	-0.746934	99
Es	1.410171	-0.167675	-1.342171	99
Es	1.605415	-0.379014	-1.606358	99
Es	-1.420708	0.660142	0.349338	99
Es	0.708669	1.691009	-0.390400	99
Es	0.429828	-1.963580	0.025871	99
Es	-0.281254	-2.099374	-0.032408	99
Es	0.807976	-2.412713	-0.413808	99
Es	0.883759	1.438447	-1.091939	99
Es	1.328131	1.435823	-0.767189	99
Es	0.546842	-1.246678	-0.159888	99
41
Properties=species:S:1:pos:R:3:Z:I:1 energy=-302.94407363180477 field_type=dipole dipole="0.000000 0.000000 0.000000" charge=0
C	-1.420784	0.660145	0.349327	6
C	0.089606	0.603365	0.420327	6
C	0.708706	1.690985	-0.390453	6
N	1.432576	1.258855	-1.368963	7
N	1.410486	-0.167985	-1.342593	7
C	0.671726	-0.541925	-0.343543	6
C	0.429836	-1.963655	0.025867	6
H	-1.795484	1.597425	0.774067	1
H	-1.868724	-0.170315	0.904507	1
H	-1.780264	0.598405	-0.684423	1
H	0.463916	0.630865	1.445947	1
H	0.553146	2.751995	-0.152063	1
H	0.996306	-2.628875	-0.631033	1
H	-0.634724	-2.191995	-0.066983	1
H	0.743676	-2.127295	1.060017	1
Es	-1.649309	0.617957	-0.346780	99
Es	0.429823	-1.963582	0.025875	99
Es	0.357399	0.004049	0.070715	99
Es	0.089593	0.603366	0.420307	99
Es	0.600277	2.403893	-0.229545	99
Es	1.410170	-0.167696	-1.342170	99
Es	0.885003	1.437685	-1.090838	99
Es	0.708665	1.691010	-0.390402	99
Es	1.634561	1.452043	-1.642495	99
Es	0.808268	-2.413302	-0.414483	99
Es	0.380279	1.175483	0.046300	99
Es	-1.420707	0.660142	0.349336	99
Es	1.606151	-0.379745	-1.607510	99
Es	-1.717119	0.090414	0.729123	99
Es	1.326720	1.434832	-0.768147	99
Es	0.671681	-0.541956	-0.343486	99
Es	-0.279583	-2.098721	-0.032497	99
Es	1.432243	1.258556	-1.368517	99
Es	0.339570	0.617770	1.093670	99
Es	0.868167	-0.306827	-1.070483	99
Es	-1.663935	1.300171	0.638707	99
Es	0.633086	-2.058811	0.721607	99
Es	0.546164	-1.246373	-0.159605	99
Es	1.397749	0.551106	-1.325893	99
Es	-0.640603	0.625810	0.379005	99
Es	1.308796	-0.305505	-0.748126	99
41
Properties=species:S:1:pos:R:3:Z:I:1 energy=-302.94407363180477 field_type=dipole dipole="0.000000 0.000000 0.000000" charge=0
C	-1.420784	0.660145	0.349327	6
C	0.089606	0.603365	0.420327	6
C	0.708706	1.690985	-0.390453	6
N	1.432576	1.258855	-1.368963	7
N	1.410486	-0.167985	-1.342593	7
C	0.671726	-0.541925	-0.343543	6
C	0.429836	-1.963655	0.025867	6
H	-1.795484	1.597425	0.774067	1
H	-1.868724	-0.170315	0.904507	1
H	-1.780264	0.598405	-0.684423	1
H	0.463916	0.630865	1.445947	1
H	0.553146	2.751995	-0.152063	1
H	0.996306	-2.628875	-0.631033	1
H	-0.634724	-2.191995	-0.066983	1
H	0.743676	-2.127295	1.060017	1
Es	0.357096	0.003607	0.071125	99
Es	1.325960	1.433898	-0.768796	99
Es	-1.663671	1.300568	0.638397	99
Es	-0.640415	0.625673	0.379097	99
Es	1.432247	1.258550	-1.368522	99
Es	0.631080	-2.059454	0.722458	99
Es	0.339202	0.617697	1.092680	99
Es	0.089591	0.603366	0.420303	99
Es	1.635202	1.452337	-1.643694	99
Es	1.410174	-0.167647	-1.342174	99
Es	1.606921	-0.380364	-1.608136	99
Es	0.708660	1.691012	-0.390406	99
Es	0.868813	-0.306690	-1.069273	99
Es	1.396530	0.551530	-1.324534	99
Es	0.429828	-1.963582	0.025873	99
Es	0.671681	-0.541956	-0.343486	99
Es	1.308031	-0.304440	-0.749297	99
Es	-0.277443	-2.097668	-0.033428	99
Es	-1.649144	0.618111	-0.345790	99
Es	0.885983	1.437259	-1.089822	99
Es	0.545900	-1.246093	-0.159335	99
Es	-1.717321	0.089921	0.729249	99
Es	0.600510	2.403657	-0.229790	99
Es	-1.420712	0.660142	0.349337	99
Es	0.379981	1.176086	0.046596	99
Es	0.808427	-2.413750	-0.414963	99
41
Properties=species:S:1:pos:R:3:Z:I:1 energy=-302.94407363180477 field_type=dipole dipole="0.000000 0.000000 0.000000" charge=0
C	-1.420784	0.660145	0.349327	6
C	0.089606	0.603365	0.420327	6
C	0.708706	1.690985	-0.390453	6
N	1.432576	1.258855	-1.368963	7
N	1.410486	-0.167985	-1.342593	7
C	0.671726	-0.541925	-0.343543	6
C	0.429836	-1.963655	0.025867	6
H	-1.795484	1.597425	0.774067	1
H	-1.868724	-0.170315	0.904507	1
H	-1.780264	0.598405	-0.684423	1
H	0.463916	0.630865	1.445947	1
H	0.553146	2.751995	-0.152063	1
H	0.996306	-2.628875	-0.631033	1
H	-0.634724	-2.191995	-0.066983	1
H	0.743676	-2.127295	1.060017	1
Es	1.324930	1.433986	-0.769104	99
Es	1.396016	0.551675	-1.323309	99
Es	1.607063	-0.380803	-1.608880	99
Es	0.379991	1.176508	0.047044	99
Es	0.869242	-0.306510	-1.068008	99
Es	0.356930	0.003238	0.071535	99
Es	0.671681	-0.541955	-0.343486	99
Es	1.432253	1.258545	-1.368530	99
Es	-0.640978	0.625648	0.379947	99
Es	0.808697	-2.413982	-0.415497	99
Es	0.339363	0.617639	1.090793	99
Es	1.307588	-0.303701	-0.750422	99
Es	1.635768	1.452455	-1.644329	99
Es	0.886839	1.436415	-1.089758	99
Es	0.429827	-1.963581	0.025872	99
Es	0.600772	2.403429	-0.229929	99
Es	-1.663299	1.300827	0.638044	99
Es	1.410173	-0.167649	-1.342174	99
Es	-1.420706	0.660142	0.349341	99
Es	0.545342	-1.245920	-0.159035	99
Es	0.628840	-2.060114	0.723497	99
Es	0.708667	1.691010	-0.390400	99
Es	-0.274888	-2.096692	-0.034441	99
Es	-1.717469	0.089594	0.729578	99
Es	-1.649124	0.618200	-0.344982	99
Es	0.089591	0.603366	0.420304	99
41
Properties=species:S:1:pos:R:3:Z:I:1 energy=-302.94407363180477 field_type=dipole dipole="0.000000 0.000000 0.000000" charge=0
C	-1.420784	0.660145	0.349327	6
C	0.089606	0.603365	0.420327	6
C	0.708706	1.690985	-0.390453	6
N	1.432576	1.258855	-1.368963	7
N	1.410486	-0.167985	-1.342593	7
C	0.671726	-0.541925	-0.343543	6
C	0.429836	-1.963655	0.025867	6
H	-1.795484	1.597425	0.774067	1
H	-1.868724	-0.170315	0.904507	1
H	-1.780264	0.598405	-0.684423	1
H	0.463916	0.630865	1.445947	1
H	0.553146	2.751995	-0.152063	1
H	0.996306	-2.628875	-0.631033	1
H	-0.634724	-2.191995	-0.066983	1
H	0.743676	-2.127295	1.060017	1
Es	1.432246	1.258557	-1.368519	99
Es	-1.649343	0.618399	-0.343898	99
Es	1.395516	0.551666	-1.322489	99
Es	-1.420708	0.660142	0.349342	99
Es	1.307207	-0.302691	-0.751872	99
Es	-0.269530	-2.094392	-0.037211	99
Es	1.324604	1.432618	-0.769876	99
Es	0.623316	-2.062052	0.726066	99
Es	0.089588	0.603367	0.420299	99
Es	1.636383	1.452699	-1.644615	99
Es	0.429827	-1.963580	0.025872	99
Es	-1.663080	1.300912	0.637826	99
Es	0.545158	-1.245920	-0.158751	99
Es	1.410174	-0.167649	-1.342176	99
Es	0.708668	1.691010	-0.390400	99
Es	1.607962	-0.380819	-1.609091	99
Es	0.887059	1.436842	-1.089029	99
Es	-1.717649	0.089363	0.729720	99
Es	0.868994	-0.306863	-1.066851	99
Es	0.601053	2.403227	-0.230013	99
Es	0.339910	0.617469	1.088713	99
Es	0.671692	-0.541952	-0.343483	99
Es	0.379739	1.176910	0.047366	99
Es	0.808892	-2.414117	-0.415848	99
Es	-0.641315	0.625597	0.380942	99
Es	0.356744	0.003028	0.071646	99
41
Properties=species:S:1:pos:R:3:Z:I:1 energy=-302.94407363180477 field_type=dipole dipole="0.000000 0.000000 0.000000" charge=0
C	-1.420784	0.660145	0.349327	6
C	0.089606	0.603365	0.420327	6
C	0.708706	1.690985	-0.390453	6
N	1.432576	1.258855	-1.368963	7
N	1.410486	-0.167985	-1.342593	7
C	0.671726	-0.541925	-0.343543	6
C	0.429836	-1.963655	0.025867	6
H	-1.795484	1.597425	0.774067	1
H	-1.868724	-0.170315	0.904507	1
H	-1.780264	0.598405	-0.684423	1
H	0.463916	0.630865	1.445947	1
H	0.553146	2.751995	-0.152063	1
H	0.996306	-2.628875	-0.631033	1
H	-0.634724	-2.191995	-0.066983	1
H	0.743676	-2.127295	1.060017	1
Es	1.608289	-0.380420	-1.609696	99
Es	0.601407	2.402948	-0.229920	99
Es	1.323735	1.433477	-0.769298	99
Es	0.089590	0.603366	0.420301	99
Es	1.395063	0.551798	-1.321413	99
Es	1.306958	-0.303402	-0.751179	99
Es	0.887785	1.435647	-1.089685	99
Es	-1.420704	0.660142	0.349344	99
Es	0.356527	0.002975	0.071852	99
Es	-1.662929	1.300980	0.637803	99
Es	-0.263742	-2.092416	-0.039107	99
Es	0.869110	-0.305883	-1.067626	99
Es	1.432244	1.258548	-1.368518	99
Es	0.429828	-1.963580	0.025872	99
Es	0.544856	-1.245955	-0.158680	99
Es	-1.648712	0.618283	-0.345015	99
Es	-0.644521	0.625822	0.389039	99
Es	0.379655	1.177007	0.047411	99
Es	0.617535	-2.063842	0.727945	99
Es	1.410169	-0.167674	-1.342168	99
Es	1.636786	1.452363	-1.645163	99
Es	0.708665	1.691011	-0.390402	99
Es	0.809054	-2.414078	-0.416102	99
Es	-1.717607	0.089324	0.729845	99
Es	0.342392	0.617282	1.081719	99
Es	0.671679	-0.541956	-0.343487	99
41
Properties=species:S:1:pos:R:3:Z:I:1 energy=-302.94407363180477 field_type=dipole dipole="0.000000 0.000000 0.000000" charge=0
C	-1.420784	0.660145	0.349327	6
C	0.089606	0.603365	0.420327	6
C	0.708706	1.690985	-0.390453	6
N	1.432576	1.258855	-1.368963	7
N	1.410486	-0.167985	-1.342593	7
C	0.671726	-0.541925	-0.343543	6
C	0.429836	-1.963655	0.025867	6
H	-1.795484	1.597425	0.774067	1
H	-1.868724	-0.170315	0.904507	1
H	-1.780264	0.598405	-0.684423	1
H	0.463916	0.630865	1.445947	1
H	0.553146	2.751995	-0.152063	1
H	0.996306	-2.628875	-0.631033	1
H	-0.634724	-2.191995	-0.066983	1
H	0.743676	-2.127295	1.060017	1
Es	1.432250	1.258548	-1.368526	99
Es	0.379632	1.176990	0.047486	99
Es	1.394671	0.551815	-1.321047	99
Es	0.887806	1.435628	-1.089896	99
Es	0.089594	0.603366	0.420315	99
Es	-1.662827	1.300771	0.637846	99
Es	1.636995	1.451972	-1.645507	99
Es	0.671677	-0.541955	-0.343490	99
Es	0.356444	0.003096	0.071975	99
Es	1.608401	-0.380196	-1.610001	99
Es	1.307432	-0.301260	-0.754179	99
Es	0.601623	2.402756	-0.229836	99
Es	-1.647382	0.618193	-0.347245	99
Es	0.429826	-1.963582	0.025872	99
Es	-0.647013	0.626066	0.397196	99
Es	0.612742	-2.065177	0.729167	99
Es	0.544823	-1.246269	-0.158626	99
Es	0.343498	0.617111	1.075755	99
Es	-1.717707	0.089409	0.729904	99
Es	-1.420704	0.660141	0.349346	99
Es	-0.259039	-2.090770	-0.040205	99
Es	1.410176	-0.167647	-1.342179	99
Es	0.708661	1.691015	-0.390402	99
Es	1.323725	1.433453	-0.769146	99
Es	0.868640	-0.307864	-1.064482	99
Es	0.809166	-2.413843	-0.416425	99
41
Properties=species:S:1:pos:R:3:Z:I:1 energy=-302.94407363180477 field_type=dipole dipole="0.000000 0.000000 0.000000" charge=0
C	-1.420784	0.660145	0.349327	6
C	0.089606	0.603365	0.420327	6
C	0.708706	1.690985	-0.390453	6
N	1.432576	1.258855	-1.368963	7
N	1.410486	-0.167985	-1.342593	7
C	0.671726	-0.541925	-0.343543	6
C	0.429836	-1.963655	0.025867	6
H	-1.795484	1.597425	0.774067	1
H	-1.868724	-0.170315	0.904507	1
H	-1.780264	0.598405	-0.684423	1
H	0.463916	0.630865	1.445947	1
H	0.553146	2.751995	-0.152063	1
H	0.996306	-2.628875	-0.631033	1
H	-0.634724	-2.191995	-0.066983	1
H	0.743676	-2.127295	1.060017	1
Es	0.089581	0.603366	0.420294	99
Es	0.544677	-1.246441	-0.158669	99
Es	-0.255938	-2.089779	-0.040621	99
Es	0.356292	0.003148	0.072074	99
Es	0.343806	0.616978	1.071220	99
Es	0.609704	-2.065977	0.729752	99
Es	-1.717831	0.089531	0.730085	99
Es	1.636946	1.451722	-1.645984	99
Es	1.608389	-0.379998	-1.610430	99
Es	0.429827	-1.963580	0.025872	99
Es	0.708664	1.691010	-0.390403	99
Es	0.601828	2.402529	-0.229900	99
Es	-1.646478	0.618139	-0.348537	99
Es	0.868971	-0.308579	-1.062839	99
Es	1.410171	-0.167660	-1.342174	99
Es	1.324594	1.432315	-0.769262	99
Es	0.887191	1.436447	-1.089419	99
Es	-1.662634	1.300578	0.637799	99
Es	0.809161	-2.413684	-0.416687	99
Es	-0.648204	0.626272	0.403036	99
Es	1.394301	0.552025	-1.320753	99
Es	-1.420709	0.660142	0.349340	99
Es	1.432246	1.258557	-1.368520	99
Es	1.307321	-0.300423	-0.755703	99
Es	0.379552	1.177087	0.047585	99
Es	0.671681	-0.541956	-0.343486	99
41
Properties=species:S:1:pos:R:3:Z:I:1 energy=-302.94407363180477 field_type=dipole dipole="0.000000 0.000000 0.000000" charge=0
C	-1.420784	0.660145	0.349327	6
C	0.089606	0.603365	0.420327	6
C	0.708706	1.690985	-0.390453	6
N	1.432576	1.258855	-1.368963	7
N	1.410486	-0.167985	-1.342593	7
C	0.671726	-0.541925	-0.343543	6
C	0.429836	-1.963655	0.025867	6
H	-1.795484	1.597425	0.774067	1
H	-1.868724	-0.170315	0.904507	1
H	-1.780264	0.598405	-0.684423	1
H	0.463916	0.630865	1.445947	1
H	0.553146	2.751995	-0.152063	1
H	0.996306	-2.628875	-0.631033	1
H	-0.634724	-2.191995	-0.066983	1
H	0.743676	-2.127295	1.060017	1
Es	1.323333	1.433985	-0.768582	99
Es	0.089588	0.603368	0.420295	99
Es	0.544639	-1.246595	-0.158601	99
Es	0.888277	1.434818	-1.090165	99
Es	1.432248	1.258561	-1.368523	99
Es	1.307015	-0.299170	-0.757863	99
Es	-0.650466	0.626638	0.410702	99
Es	0.809356	-2.413444	-0.416793	99
Es	-0.256071	-2.089818	-0.040694	99
Es	1.394006	0.552034	-1.320447	99
Es	0.356053	0.003296	0.072010	99
Es	0.343788	0.616855	1.066064	99
Es	0.601767	2.402359	-0.229942	99
Es	1.410171	-0.167655	-1.342173	99
Es	0.429828	-1.963581	0.025872	99
Es	0.708669	1.691011	-0.390398	99
Es	-1.717904	0.089673	0.730278	99
Es	1.637156	1.451294	-1.646193	99
Es	0.869591	-0.309924	-1.060440	99
Es	0.609805	-2.065851	0.729918	99
Es	0.671683	-0.541956	-0.343484	99
Es	0.379530	1.176999	0.047575	99
Es	1.608355	-0.379535	-1.610875	99
Es	-1.662561	1.300398	0.637687	99
Es	-1.644041	0.617870	-0.350899	99
Es	-1.420706	0.660141	0.349344	99
41
Properties=species:S:1:pos:R:3:Z:I:1 energy=-302.94407363180477 field_type=dipole dipole="0.000000 0.000000 0.000000" charge=0
C	-1.420784	0.660145	0.349327	6
C	0.089606	0.603365	0.420327	6
C	0.708706	1.690985	-0.390453	6
N	1.432576	1.258855	-1.368963	7
N	1.410486	-0.167985	-1.342593	7
C	0.671726	-0.541925	-0.343543	6
C	0.429836	-1.963655	0.025867	6
H	-1.795484	1.597425	0.774067	1
H	-1.868724	-0.170315	0.904507	1
H	-1.780264	0.598405	-0.684423	1
H	0.463916	0.630865	1.445947	1
H	0.553146	2.751995	-0.152063	1
H	0.996306	-2.628875	-0.631033	1
H	-0.634724	-2.191995	-0.066983	1
H	0.743676	-2.127295	1.060017	1
Es	-1.662366	1.300382	0.637591	99
Es	0.379430	1.177071	0.047646	99
Es	0.708669	1.691011	-0.390398	99
Es	1.637140	1.450894	-1.646674	99
Es	-1.718043	0.089899	0.730453	99
Es	0.868208	-0.306380	-1.066598	99
Es	0.612028	-2.065225	0.729805	99
Es	-0.258470	-2.090250	-0.040553	99
Es	-1.639725	0.617415	-0.353445	99
Es	1.608628	-0.379254	-1.611036	99
Es	0.356089	0.003328	0.072138	99
Es	0.809376	-2.413272	-0.416926	99
Es	1.393652	0.552274	-1.320055	99
Es	0.342658	0.616689	1.058147	99
Es	0.429820	-1.963585	0.025871	99
Es	1.432246	1.258561	-1.368520	99
Es	0.671677	-0.541955	-0.343489	99
Es	-1.420702	0.660142	0.349348	99
Es	1.325150	1.431541	-0.769390	99
Es	0.089584	0.603365	0.420294	99
Es	0.601997	2.402242	-0.229842	99
Es	0.886812	1.437111	-1.089146	99
Es	-0.653613	0.626888	0.421192	99
Es	0.544754	-1.246817	-0.158670	99
Es	1.410170	-0.167659	-1.342174	99
Es	1.307940	-0.302644	-0.751901	99
41
Properties=species:S:1:pos:R:3:Z:I:1 energy=-302.94407363180477 field_type=dipole dipole="0.000000 0.000000 0.000000" charge=0
C	-1.420784	0.660145	0.349327	6
C	0.089606	0.603365	0.420327	6
C	0.708706	1.690985	-0.390453	6
N	1.432576	1.258855	-1.368963	7
N	1.410486	-0.167985	-1.342593	7
C	0.671726	-0.541925	-0.343543	6
C	0.429836	-1.963655	0.025867	6
H	-1.795484	1.597425	0.774067	1
H	-1.868724	-0.170315	0.904507	1
H	-1.780264	0.598405	-0.684423	1
H	0.463916	0.630865	1.445947	1
H	0.553146	2.751995	-0.152063	1
H	0.996306	-2.628875	-0.631033	1
H	-0.634724	-2.191995	-0.066983	1
H	0.743676	-2.127295	1.060017	1
Es	0.342828	0.616650	1.058945	99
Es	0.379415	1.177095	0.047708	99
Es	0.606962	-2.066574	0.730282	99
Es	0.708673	1.691009	-0.390396	99
Es	-1.662343	1.300248	0.637609	99
Es	1.393597	0.552221	-1.319887	99
Es	-1.420704	0.660141	0.349346	99
Es	-1.717992	0.089876	0.730534	99
Es	0.429826	-1.963581	0.025872	99
Es	0.602159	2.402116	-0.229808	99
Es	1.307633	-0.300411	-0.755585	99
Es	0.868497	-0.308381	-1.062729	99
Es	1.608624	-0.379229	-1.611239	99
Es	1.325220	1.431488	-0.769268	99
Es	0.544650	-1.246952	-0.158495	99
Es	-0.253513	-2.088779	-0.041080	99
Es	0.089589	0.603366	0.420300	99
Es	-1.642045	0.617658	-0.352431	99
Es	1.410176	-0.167643	-1.342179	99
Es	1.432245	1.258564	-1.368519	99
Es	0.356010	0.003444	0.072160	99
Es	0.886837	1.436988	-1.089245	99
Es	0.809473	-2.413143	-0.417153	99
Es	-0.651581	0.626795	0.419293	99
Es	1.637185	1.450758	-1.646883	99
Es	0.671689	-0.541955	-0.343481	99
41
Properties=species:S:1:pos:R:3:Z:I:1 energy=-302.94407363180477 field_type=dipole dipole="0.000000 0.000000 0.000000" charge=0
C	-1.420784	0.660145	0.349327	6
C	0.089606	0.603365	0.420327	6
C	0.708706	1.690985	-0.390453	6
N	1.432576	1.258855	-1.368963	7
N	1.410486	-0.167985	-1.342593	7
C	0.671726	-0.541925	-0.343543	6
C	0.429836	-1.963655	0.025867	6
H	-1.795484	1.597425	0.774067	1
H	-1.868724	-0.170315	0.904507	1
H	-1.780264	0.598405	-0.684423	1
H	0.463916	0.630865	1.445947	1
H	0.553146	2.751995	-0.152063	1
H	0.996306	-2.628875	-0.631033	1
H	-0.634724	-2.191995	-0.066983	1
H	0.743676	-2.127295	1.060017	1
Es	1.410168	-0.167655	-1.342175	99
Es	0.429829	-1.963578	0.025871	99
Es	-1.420703	0.660141	0.349346	99
Es	1.637123	1.450460	-1.647161	99
Es	1.432247	1.258558	-1.368522	99
Es	0.602192	2.401950	-0.229917	99
Es	1.393286	0.552256	-1.319638	99
Es	0.708668	1.691011	-0.390400	99
Es	-1.662289	1.300160	0.637652	99
Es	1.325418	1.431455	-0.769229	99
Es	-0.653737	0.626999	0.424092	99
Es	0.544490	-1.247126	-0.158541	99
Es	-1.639188	0.617439	-0.353933	99
Es	0.886661	1.437061	-1.089171	99
Es	-0.255741	-2.089427	-0.040917	99
Es	0.809548	-2.412909	-0.417281	99
Es	1.608565	-0.378843	-1.611637	99
Es	0.609352	-2.065878	0.730350	99
Es	0.355867	0.003479	0.072173	99
Es	0.089585	0.603367	0.420295	99
Es	0.379296	1.177069	0.047695	99
Es	0.869269	-0.309680	-1.060369	99
Es	1.307265	-0.299215	-0.757763	99
Es	-1.718027	0.090000	0.730565	99
Es	0.671680	-0.541957	-0.343486	99
Es	0.342285	0.616634	1.055771	99
41
Properties=species:S:1:pos:R:3:Z:I:1 energy=-302.94407363180477 field_type=dipole dipole="0.000000 0.000000 0.000000" charge=0
C	-1.420784	0.660145	0.349327	6
C	0.089606	0.603365	0.420327	6
C	0.708706	1.690985	-0.390453	6
N	1.432576	1.258855	-1.368963	7
N	1.410486	-0.167985	-1.342593	7
C	0.671726	-0.541925	-0.343543	6
C	0.429836	-1.963655	0.025867	6
H	-1.795484	1.597425	0.774067	1
H	-1.868724	-0.170315	0.904507	1
H	-1.780264	0.598405	-0.684423	1
H	0.463916	0.630865	1.445947	1
H	0.553146	2.751995	-0.152063	1
H	0.996306	-2.628875	-0.631033	1
H	-0.634724	-2.191995	-0.066983	1
H	0.743676	-2.127295	1.060017	1
Es	-0.652508	0.626965	0.425937	99
Es	0.809627	-2.412769	-0.417438	99
Es	1.324233	1.433475	-0.767979	99
Es	0.708669	1.691011	-0.390398	99
Es	0.869334	-0.309800	-1.059920	99
Es	1.432249	1.258563	-1.368525	99
Es	-1.662247	1.300046	0.637539	99
Es	1.637152	1.450370	-1.647263	99
Es	0.544451	-1.247281	-0.158570	99
Es	0.355869	0.003470	0.072269	99
Es	1.393325	0.552315	-1.319667	99
Es	0.602182	2.401833	-0.229924	99
Es	-1.639954	0.617465	-0.353723	99
Es	1.608497	-0.378742	-1.611791	99
Es	1.410174	-0.167646	-1.342178	99
Es	0.671681	-0.541955	-0.343486	99
Es	0.429827	-1.963581	0.025872	99
Es	0.089590	0.603365	0.420300	99
Es	-1.420704	0.660141	0.349346	99
Es	0.341797	0.616592	1.053682	99
Es	-1.718118	0.090125	0.730691	99
Es	-0.254043	-2.088929	-0.041066	99
Es	0.607688	-2.066234	0.730599	99
Es	0.887778	1.434879	-1.090474	99
Es	1.307225	-0.298999	-0.757976	99
Es	0.379332	1.177090	0.047813	99
41
Properties=species:S:1:pos:R:3:Z:I:1 energy=-302.94407363180477 field_type=dipole dipole="0.000000 0.000000 0.000000" charge=0
C	-1.420784	0.660145	0.349327	6
C	0.089606	0.603365	0.420327	6
C	0.708706	1.690985	-0.390453	6
N	1.432576	1.258855	-1.368963	7
N	1.410486	-0.167985	-1.342593	7
C	0.671726	-0.541925	-0.343543	6
C	0.429836	-1.963655	0.025867	6
H	-1.795484	1.597425	0.774067	1
H	-1.868724	-0.170315	0.904507	1
H	-1.780264	0.598405	-0.684423	1
H	0.463916	0.630865	1.445947	1
H	0.553146	2.751995	-0.152063	1
H	0.996306	-2.628875	-0.631033	1
H	-0.634724	-2.191995	-0.066983	1
H	0.743676	-2.127295	1.060017	1
Es	-1.662742	1.299631	0.637399	99
Es	0.708669	1.691010	-0.390399	99
Es	0.356078	0.003050	0.072698	99
Es	1.432245	1.258555	-1.368519	99
Es	0.601897	2.401685	-0.230233	99
Es	1.324228	1.432752	-0.768573	99
Es	-1.645819	0.621139	-0.309438	99
Es	0.810330	-2.412568	-0.417204	99
Es	0.544399	-1.247127	-0.158305	99
Es	0.318009	0.618087	1.105204	99
Es	1.393637	0.552263	-1.318567	99
Es	1.307345	-0.299738	-0.756700	99
Es	-1.420704	0.660143	0.349347	99
Es	0.886603	1.435643	-1.090568	99
Es	-0.264201	-2.091716	-0.039916	99
Es	0.429828	-1.963581	0.025872	99
Es	0.671678	-0.541956	-0.343488	99
Es	0.616881	-2.063641	0.728598	99
Es	0.089586	0.603366	0.420302	99
Es	-0.623445	0.623084	0.329553	99
Es	0.867958	-0.308930	-1.062401	99
Es	1.638980	1.450049	-1.646320	99
Es	0.379497	1.176997	0.048044	99
Es	1.610447	-0.378420	-1.610818	99
Es	1.410167	-0.167698	-1.342165	99
Es	-1.718440	0.089689	0.730270	99
