38
Properties=species:S:1:pos:R:3:Z:I:1 energy=-301.7959745529229 field_type=dipole dipole="0.000000 0.000000 0.000000" charge=0
C	-2.054594	-0.014898	0.002544	6
C	-0.562414	-0.018018	0.000174	6
N	0.162746	-1.093768	-0.000376	7
C	1.446796	-0.645258	-0.001916	6
N	2.426436	-1.461528	-0.003386	7
C	1.471437	0.816092	-0.001606	6
C	0.203076	1.226662	-0.000316	6
H	-2.434694	-1.039618	-0.010846	1
H	-2.421744	0.513622	-0.881166	1
H	-2.418303	0.489172	0.901834	1
H	1.997696	-2.394999	-0.003116	1
H	2.374936	1.397251	-0.002236	1
H	-0.191374	2.225291	0.000414	1
Es	-0.098715	-0.654792	0.276183	99
Es	1.471512	0.816028	-0.001606	99
Es	0.068918	-1.452950	0.000148	99
Es	-0.562467	-0.017962	0.000174	99
Es	1.446705	-0.645208	-0.001920	99
Es	2.794867	-1.396429	-0.003703	99
Es	0.808868	1.026392	0.311314	99
Es	-2.310859	-0.697920	-0.006416	99
Es	0.202956	1.226660	-0.000314	99
Es	2.425926	-1.461586	-0.003385	99
Es	0.808417	1.026734	-0.313079	99
Es	-0.225444	0.642393	0.000074	99
Es	-2.280266	0.329308	0.604190	99
Es	0.162873	-1.093245	-0.000376	99
Es	1.972494	-1.075094	-0.281275	99
Es	-0.073876	1.894457	0.000129	99
Es	-2.054534	-0.014868	0.002544	99
Es	1.973218	-1.075316	0.275759	99
Es	-0.097718	-0.655728	-0.277475	99
Es	1.504476	0.098046	-0.001901	99
Es	2.172938	-2.015922	-0.003204	99
Es	2.077595	1.204421	-0.002082	99
Es	-2.283013	0.345844	-0.588759	99
Es	-1.309493	-0.016633	0.001066	99
Es	0.729286	-0.889990	-0.000740	99
38
Properties=species:S:1:pos:R:3:Z:I:1 energy=-301.7959745529229 field_type=dipole dipole="0.000000 0.000000 0.000000" charge=0
C	-2.054594	-0.014898	0.002544	6
C	-0.562414	-0.018018	0.000174	6
N	0.162746	-1.093768	-0.000376	7
C	1.446796	-0.645258	-0.001916	6
N	2.426436	-1.461528	-0.003386	7
C	1.471437	0.816092	-0.001606	6
C	0.203076	1.226662	-0.000316	6
H	-2.434694	-1.039618	-0.010846	1
H	-2.421744	0.513622	-0.881166	1
H	-2.418303	0.489172	0.901834	1
H	1.997696	-2.394999	-0.003116	1
H	2.374936	1.397251	-0.002236	1
H	-0.191374	2.225291	0.000414	1
Es	-0.562470	-0.017958	0.000175	99
Es	-2.281956	0.327827	0.601700	99
Es	1.505880	0.095623	-0.001844	99
Es	-0.219906	0.641652	0.000070	99
Es	-2.312143	-0.693777	-0.006184	99
Es	2.171471	-2.010288	-0.003445	99
Es	2.802142	-1.396768	-0.003747	99
Es	-0.097522	-0.655912	0.276335	99
Es	0.162881	-1.093228	-0.000374	99
Es	-2.054535	-0.014870	0.002543	99
Es	1.970317	-1.077554	-0.278490	99
Es	2.074615	1.203002	-0.002041	99
Es	1.471515	0.816026	-0.001606	99
Es	-1.306000	-0.016043	0.001274	99
Es	1.970849	-1.077886	0.273196	99
Es	-0.096942	-0.656288	-0.276883	99
Es	0.064577	-1.444319	-0.000453	99
Es	0.202957	1.226662	-0.000326	99
Es	2.425905	-1.461578	-0.003385	99
Es	1.446702	-0.645206	-0.001916	99
Es	-2.285106	0.344797	-0.586678	99
Es	0.806710	1.026589	-0.312334	99
Es	0.735761	-0.896590	-0.000834	99
Es	-0.077800	1.896844	0.000119	99
Es	0.806759	1.025882	0.310476	99
38
Properties=species:S:1:pos:R:3:Z:I:1 energy=-301.7959745529229 field_type=dipole dipole="0.000000 0.000000 0.000000" charge=0
C	-2.054594	-0.014898	0.002544	6
C	-0.562414	-0.018018	0.000174	6
N	0.162746	-1.093768	-0.000376	7
C	1.446796	-0.645258	-0.001916	6
N	2.426436	-1.461528	-0.003386	7
C	1.471437	0.816092	-0.001606	6
C	0.203076	1.226662	-0.000316	6
H	-2.434694	-1.039618	-0.010846	1
H	-2.421744	0.513622	-0.881166	1
H	-2.418303	0.489172	0.901834	1
H	1.997696	-2.394999	-0.003116	1
H	2.374936	1.397251	-0.002236	1
H	-0.191374	2.225291	0.000414	1
Es	0.162889	-1.093224	-0.000376	99
Es	0.804259	1.026179	-0.311279	99
Es	-0.105959	-0.649737	0.272254	99
Es	0.202954	1.226664	-0.000310	99
Es	1.969280	-1.078729	-0.276562	99
Es	-2.280383	0.324690	0.599222	99
Es	-2.287817	0.346720	-0.584496	99
Es	-0.562470	-0.017958	0.000175	99
Es	-1.303954	-0.016373	0.001366	99
Es	-0.083935	-0.662197	-0.273576	99
Es	-0.215509	0.641392	0.000086	99
Es	1.508391	0.094310	-0.001859	99
Es	0.805487	1.026368	0.309309	99
Es	2.070959	1.202553	-0.001865	99
Es	1.446703	-0.645208	-0.001936	99
Es	-0.081020	1.896819	0.000099	99
Es	2.425918	-1.461584	-0.003385	99
Es	-2.054534	-0.014866	0.002545	99
Es	2.168347	-2.004370	-0.003165	99
Es	1.970086	-1.078941	0.271040	99
Es	0.740630	-0.906501	-0.000376	99
Es	1.471516	0.816027	-0.001607	99
Es	-2.313608	-0.689915	-0.006008	99
Es	0.059130	-1.435044	-0.000255	99
Es	2.807303	-1.400436	-0.003690	99
38
Properties=species:S:1:pos:R:3:Z:I:1 energy=-301.7959745529229 field_type=dipole dipole="0.000000 0.000000 0.000000" charge=0
C	-2.054594	-0.014898	0.002544	6
C	-0.562414	-0.018018	0.000174	6
N	0.162746	-1.093768	-0.000376	7
C	1.446796	-0.645258	-0.001916	6
N	2.426436	-1.461528	-0.003386	7
C	1.471437	0.816092	-0.001606	6
C	0.203076	1.226662	-0.000316	6
H	-2.434694	-1.039618	-0.010846	1
H	-2.421744	0.513622	-0.881166	1
H	-2.418303	0.489172	0.901834	1
H	1.997696	-2.394999	-0.003116	1
H	2.374936	1.397251	-0.002236	1
H	-0.191374	2.225291	0.000414	1
Es	1.970257	-1.078874	0.272832	99
Es	0.202955	1.226666	-0.000318	99
Es	1.446701	-0.645205	-0.001916	99
Es	2.425844	-1.461590	-0.003385	99
Es	1.471516	0.816026	-0.001607	99
Es	-2.281995	0.325433	0.600624	99
Es	-0.562470	-0.017958	0.000174	99
Es	2.066772	1.200931	-0.002205	99
Es	-2.054538	-0.014871	0.002544	99
Es	2.166497	-1.998253	-0.003289	99
Es	-2.287502	0.345174	-0.585489	99
Es	1.511196	0.094174	-0.001781	99
Es	-0.185698	-0.604413	-0.007497	99
Es	2.809449	-1.406697	-0.004156	99
Es	0.000986	-0.708251	0.008069	99
Es	0.802273	1.026005	0.311513	99
Es	-0.212046	0.643221	0.000283	99
Es	0.801263	1.025590	-0.313540	99
Es	-2.312399	-0.685326	-0.006112	99
Es	-0.083338	1.895767	0.000342	99
Es	0.743747	-0.917106	-0.001215	99
Es	1.969000	-1.078689	-0.278142	99
Es	-1.303928	-0.018143	0.001133	99
Es	0.162893	-1.093209	-0.000376	99
Es	0.057230	-1.423762	-0.001137	99
38
Properties=species:S:1:pos:R:3:Z:I:1 energy=-301.7959745529229 field_type=dipole dipole="0.000000 0.000000 0.000000" charge=0
C	-2.054594	-0.014898	0.002544	6
C	-0.562414	-0.018018	0.000174	6
N	0.162746	-1.093768	-0.000376	7
C	1.446796	-0.645258	-0.001916	6
N	2.426436	-1.461528	-0.003386	7
C	1.471437	0.816092	-0.001606	6
C	0.203076	1.226662	-0.000316	6
H	-2.434694	-1.039618	-0.010846	1
H	-2.421744	0.513622	-0.881166	1
H	-2.418303	0.489172	0.901834	1
H	1.997696	-2.394999	-0.003116	1
H	2.374936	1.397251	-0.002236	1
H	-0.191374	2.225291	0.000414	1
Es	0.793251	1.019178	-0.310947	99
Es	2.163604	-1.992165	-0.003813	99
Es	1.513541	0.094438	-0.001619	99
Es	-2.266574	0.307196	0.588717	99
Es	-1.303306	-0.018759	0.000472	99
Es	-0.185556	-0.604369	0.017739	99
Es	-0.084297	1.895436	0.001480	99
Es	1.969724	-1.078612	0.272384	99
Es	-0.562470	-0.017958	0.000174	99
Es	-2.302749	0.363298	-0.571953	99
Es	1.471517	0.816029	-0.001606	99
Es	0.807280	1.031915	0.307672	99
Es	0.202953	1.226666	-0.000311	99
Es	-0.211021	0.642687	0.002226	99
Es	0.057292	-1.412968	-0.003194	99
Es	2.425880	-1.461579	-0.003385	99
Es	0.003823	-0.707650	-0.014422	99
Es	2.063628	1.200242	-0.002865	99
Es	0.162895	-1.093193	-0.000376	99
Es	1.446702	-0.645205	-0.001912	99
Es	0.744363	-0.928070	-0.002320	99
Es	-2.054534	-0.014867	0.002544	99
Es	-2.312978	-0.683149	-0.006599	99
Es	2.812235	-1.412706	-0.006142	99
Es	1.969458	-1.079196	-0.276594	99
38
Properties=species:S:1:pos:R:3:Z:I:1 energy=-301.7959745529229 field_type=dipole dipole="0.000000 0.000000 0.000000" charge=0
C	-2.054594	-0.014898	0.002544	6
C	-0.562414	-0.018018	0.000174	6
N	0.162746	-1.093768	-0.000376	7
C	1.446796	-0.645258	-0.001916	6
N	2.426436	-1.461528	-0.003386	7
C	1.471437	0.816092	-0.001606	6
C	0.203076	1.226662	-0.000316	6
H	-2.434694	-1.039618	-0.010846	1
H	-2.421744	0.513622	-0.881166	1
H	-2.418303	0.489172	0.901834	1
H	1.997696	-2.394999	-0.003116	1
H	2.374936	1.397251	-0.002236	1
H	-0.191374	2.225291	0.000414	1
Es	2.813127	-1.417786	-0.008009	99
Es	1.515375	0.094981	-0.001454	99
Es	-0.085211	1.894808	0.002726	99
Es	0.744262	-0.938917	-0.002836	99
Es	0.004980	-0.706273	-0.042738	99
Es	0.057983	-1.401993	-0.006757	99
Es	0.162889	-1.093252	-0.000365	99
Es	0.805452	1.030702	0.309306	99
Es	-0.562469	-0.017958	0.000178	99
Es	2.425869	-1.461575	-0.003385	99
Es	-2.249649	0.286812	0.552342	99
Es	-0.209774	0.643704	0.003581	99
Es	-1.303426	-0.020004	-0.000294	99
Es	2.162448	-1.987390	-0.004515	99
Es	0.792736	1.019147	-0.313176	99
Es	0.202951	1.226666	-0.000312	99
Es	1.446701	-0.645208	-0.001910	99
Es	-0.184264	-0.605066	0.049574	99
Es	2.060682	1.198808	-0.003198	99
Es	-2.312122	-0.680391	-0.007376	99
Es	1.969612	-1.079236	-0.276934	99
Es	-2.054535	-0.014868	0.002544	99
Es	1.969701	-1.078397	0.273590	99
Es	-2.320170	0.383300	-0.533622	99
Es	1.471515	0.816026	-0.001611	99
38
Properties=species:S:1:pos:R:3:Z:I:1 energy=-301.7959745529229 field_type=dipole dipole="0.000000 0.000000 0.000000" charge=0
C	-2.054594	-0.014898	0.002544	6
C	-0.562414	-0.018018	0.000174	6
N	0.162746	-1.093768	-0.000376	7
C	1.446796	-0.645258	-0.001916	6
N	2.426436	-1.461528	-0.003386	7
C	1.471437	0.816092	-0.001606	6
C	0.203076	1.226662	-0.000316	6
H	-2.434694	-1.039618	-0.010846	1
H	-2.421744	0.513622	-0.881166	1
H	-2.418303	0.489172	0.901834	1
H	1.997696	-2.394999	-0.003116	1
H	2.374936	1.397251	-0.002236	1
H	-0.191374	2.225291	0.000414	1
Es	-0.085586	1.894694	0.001429	99
Es	0.747236	0.980689	0.154127	99
Es	1.471515	0.816026	-0.001604	99
Es	-2.273967	0.315236	0.596898	99
Es	1.969038	-1.078034	-0.277735	99
Es	0.009345	-0.706169	-0.002791	99
Es	0.162891	-1.093200	-0.000380	99
Es	-1.303462	-0.020979	0.000481	99
Es	1.970787	-1.078971	0.272657	99
Es	0.058914	-1.394225	-0.006438	99
Es	0.202957	1.226664	-0.000317	99
Es	2.813940	-1.423121	-0.004814	99
Es	-2.311602	-0.678117	-0.006475	99
Es	2.058012	1.197644	-0.000755	99
Es	-2.054536	-0.014866	0.002541	99
Es	2.161075	-1.982850	-0.003982	99
Es	-2.296004	0.354931	-0.580813	99
Es	1.446702	-0.645207	-0.001912	99
Es	0.743747	-0.947242	-0.000451	99
Es	-0.562469	-0.017958	0.000176	99
Es	0.847691	1.067813	-0.153416	99
Es	1.516928	0.095555	-0.001525	99
Es	-0.209226	0.643559	-0.002562	99
Es	2.425873	-1.461580	-0.003385	99
Es	-0.185138	-0.603654	0.006394	99
38
Properties=species:S:1:pos:R:3:Z:I:1 energy=-301.7959745529229 field_type=dipole dipole="0.000000 0.000000 0.000000" charge=0
C	-2.054594	-0.014898	0.002544	6
C	-0.562414	-0.018018	0.000174	6
N	0.162746	-1.093768	-0.000376	7
C	1.446796	-0.645258	-0.001916	6
N	2.426436	-1.461528	-0.003386	7
C	1.471437	0.816092	-0.001606	6
C	0.203076	1.226662	-0.000316	6
H	-2.434694	-1.039618	-0.010846	1
H	-2.421744	0.513622	-0.881166	1
H	-2.418303	0.489172	0.901834	1
H	1.997696	-2.394999	-0.003116	1
H	2.374936	1.397251	-0.002236	1
H	-0.191374	2.225291	0.000414	1
Es	-1.303585	-0.021448	0.003607	99
Es	-0.208394	0.644541	-0.005356	99
Es	1.517878	0.095929	-0.002335	99
Es	1.471518	0.816026	-0.001604	99
Es	-2.311277	-0.677020	-0.003682	99
Es	1.446701	-0.645208	-0.001925	99
Es	-2.329486	0.382593	0.506811	99
Es	0.742824	-0.952998	0.002122	99
Es	2.425863	-1.461578	-0.003385	99
Es	2.814332	-1.427108	0.002326	99
Es	0.059751	-1.388193	0.008446	99
Es	-2.240536	0.287313	-0.498100	99
Es	0.007830	-0.704999	0.046771	99
Es	1.971753	-1.079423	0.269660	99
Es	-2.054535	-0.014865	0.002545	99
Es	2.056583	1.196717	-0.000591	99
Es	1.968211	-1.077611	-0.278121	99
Es	0.202954	1.226666	-0.000323	99
Es	-0.085908	1.894324	-0.003519	99
Es	0.808771	1.034810	-0.307621	99
Es	0.162884	-1.093277	-0.000367	99
Es	0.786107	1.013247	0.308813	99
Es	-0.183407	-0.604901	-0.057571	99
Es	-0.562469	-0.017958	0.000168	99
Es	2.160302	-1.978937	-0.001423	99
38
Properties=species:S:1:pos:R:3:Z:I:1 energy=-301.7959745529229 field_type=dipole dipole="0.000000 0.000000 0.000000" charge=0
C	-2.054594	-0.014898	0.002544	6
C	-0.562414	-0.018018	0.000174	6
N	0.162746	-1.093768	-0.000376	7
C	1.446796	-0.645258	-0.001916	6
N	2.426436	-1.461528	-0.003386	7
C	1.471437	0.816092	-0.001606	6
C	0.203076	1.226662	-0.000316	6
H	-2.434694	-1.039618	-0.010846	1
H	-2.421744	0.513622	-0.881166	1
H	-2.418303	0.489172	0.901834	1
H	1.997696	-2.394999	-0.003116	1
H	2.374936	1.397251	-0.002236	1
H	-0.191374	2.225291	0.000414	1
Es	2.055374	1.195997	-0.000633	99
Es	1.968771	-1.077604	-0.279723	99
Es	2.425887	-1.461571	-0.003385	99
Es	0.202953	1.226666	-0.000321	99
Es	-1.303700	-0.022038	0.003716	99
Es	1.446702	-0.645207	-0.001926	99
Es	0.061071	-1.381082	0.009681	99
Es	0.788090	1.015219	0.311570	99
Es	1.971341	-1.079272	0.271128	99
Es	-2.054536	-0.014867	0.002545	99
Es	-0.562469	-0.017958	0.000169	99
Es	0.741351	-0.960370	0.002315	99
Es	-0.207964	0.645153	-0.005345	99
Es	1.518596	0.096222	-0.002404	99
Es	-0.086072	1.894183	-0.003860	99
Es	-0.182730	-0.604883	-0.063169	99
Es	2.814309	-1.428659	0.002834	99
Es	-2.310807	-0.675990	-0.003199	99
Es	-2.333755	0.387732	0.487530	99
Es	0.162894	-1.093190	-0.000383	99
Es	1.471515	0.816026	-0.001605	99
Es	0.008563	-0.704360	0.051361	99
Es	0.805745	1.032180	-0.310755	99
Es	-2.236558	0.281890	-0.479505	99
Es	2.160092	-1.977579	-0.001288	99
38
Properties=species:S:1:pos:R:3:Z:I:1 energy=-301.7959745529229 field_type=dipole dipole="0.000000 0.000000 0.000000" charge=0
C	-2.054594	-0.014898	0.002544	6
C	-0.562414	-0.018018	0.000174	6
N	0.162746	-1.093768	-0.000376	7
C	1.446796	-0.645258	-0.001916	6
N	2.426436	-1.461528	-0.003386	7
C	1.471437	0.816092	-0.001606	6
C	0.203076	1.226662	-0.000316	6
H	-2.434694	-1.039618	-0.010846	1
H	-2.421744	0.513622	-0.881166	1
H	-2.418303	0.489172	0.901834	1
H	1.997696	-2.394999	-0.003116	1
H	2.374936	1.397251	-0.002236	1
H	-0.191374	2.225291	0.000414	1
Es	0.008882	-0.703924	0.054958	99
Es	-2.336257	0.391111	0.474123	99
Es	2.425854	-1.461578	-0.003385	99
Es	0.741104	-0.962457	0.002807	99
Es	-2.233923	0.278605	-0.466517	99
Es	0.061422	-1.378992	0.009975	99
Es	-0.182193	-0.604911	-0.067544	99
Es	1.446701	-0.645210	-0.001926	99
Es	-0.562469	-0.017959	0.000168	99
Es	0.162866	-1.093342	-0.000351	99
Es	0.786089	1.013551	0.310862	99
Es	1.519421	0.096642	-0.002446	99
Es	-2.310714	-0.675325	-0.002994	99
Es	2.159265	-1.972471	-0.001200	99
Es	1.971046	-1.078957	0.272165	99
Es	-0.207664	0.645369	-0.005628	99
Es	1.471516	0.816027	-0.001604	99
Es	2.814673	-1.434236	0.003152	99
Es	-0.086045	1.894204	-0.004122	99
Es	0.202955	1.226666	-0.000324	99
Es	2.054023	1.195269	-0.000556	99
Es	-1.303730	-0.022184	0.003851	99
Es	0.806934	1.033152	-0.309880	99
Es	1.969442	-1.077542	-0.280782	99
Es	-2.054536	-0.014868	0.002545	99
38
Properties=species:S:1:pos:R:3:Z:I:1 energy=-301.7959745529229 field_type=dipole dipole="0.000000 0.000000 0.000000" charge=0
C	-2.054594	-0.014898	0.002544	6
C	-0.562414	-0.018018	0.000174	6
N	0.162746	-1.093768	-0.000376	7
C	1.446796	-0.645258	-0.001916	6
N	2.426436	-1.461528	-0.003386	7
C	1.471437	0.816092	-0.001606	6
C	0.203076	1.226662	-0.000316	6
H	-2.434694	-1.039618	-0.010846	1
H	-2.421744	0.513622	-0.881166	1
H	-2.418303	0.489172	0.901834	1
H	1.997696	-2.394999	-0.003116	1
H	2.374936	1.397251	-0.002236	1
H	-0.191374	2.225291	0.000414	1
Es	-0.182158	-0.604499	-0.064317	99
Es	2.814657	-1.437734	0.003793	99
Es	1.446702	-0.645206	-0.001927	99
Es	-0.086076	1.894163	-0.004415	99
Es	0.740270	-0.966542	0.003202	99
Es	2.425842	-1.461571	-0.003385	99
Es	0.062233	-1.375199	0.010728	99
Es	0.009740	-0.703902	0.050912	99
Es	0.806460	1.032824	-0.310303	99
Es	2.158934	-1.969298	-0.001280	99
Es	1.471515	0.816026	-0.001604	99
Es	-0.562468	-0.017957	0.000167	99
Es	-0.207381	0.645797	-0.005902	99
Es	-2.310555	-0.675034	-0.003005	99
Es	-1.303819	-0.022422	0.004126	99
Es	0.202951	1.226665	-0.000323	99
Es	1.519618	0.096836	-0.002494	99
Es	0.162891	-1.093205	-0.000375	99
Es	0.786001	1.013585	0.311475	99
Es	2.053305	1.194772	-0.000579	99
Es	1.971360	-1.078963	0.271895	99
Es	-2.054536	-0.014864	0.002547	99
Es	1.969408	-1.077283	-0.280853	99
Es	-2.231947	0.276277	-0.456524	99
Es	-2.338284	0.393372	0.463790	99
38
Properties=species:S:1:pos:R:3:Z:I:1 energy=-301.7959745529229 field_type=dipole dipole="0.000000 0.000000 0.000000" charge=0
C	-2.054594	-0.014898	0.002544	6
C	-0.562414	-0.018018	0.000174	6
N	0.162746	-1.093768	-0.000376	7
C	1.446796	-0.645258	-0.001916	6
N	2.426436	-1.461528	-0.003386	7
C	1.471437	0.816092	-0.001606	6
C	0.203076	1.226662	-0.000316	6
H	-2.434694	-1.039618	-0.010846	1
H	-2.421744	0.513622	-0.881166	1
H	-2.418303	0.489172	0.901834	1
H	1.997696	-2.394999	-0.003116	1
H	2.374936	1.397251	-0.002236	1
H	-0.191374	2.225291	0.000414	1
Es	1.971880	-1.078916	0.271213	99
Es	0.202952	1.226666	-0.000324	99
Es	-2.310361	-0.674239	-0.002829	99
Es	-2.054534	-0.014867	0.002544	99
Es	-0.086260	1.894020	-0.004478	99
Es	1.446702	-0.645208	-0.001930	99
Es	0.009624	-0.703158	0.059665	99
Es	0.739636	-0.969517	0.003206	99
Es	-2.339722	0.395316	0.455205	99
Es	-0.562469	-0.017958	0.000166	99
Es	2.158715	-1.968537	-0.001291	99
Es	1.471514	0.816026	-0.001607	99
Es	1.969036	-1.077177	-0.280074	99
Es	0.808052	1.034214	-0.308768	99
Es	-0.181593	-0.605032	-0.072844	99
Es	0.063127	-1.372226	0.010552	99
Es	2.425881	-1.461567	-0.003385	99
Es	-2.230503	0.274333	-0.448135	99
Es	2.052550	1.194324	-0.000583	99
Es	-0.207062	0.645977	-0.006206	99
Es	0.162901	-1.093199	-0.000371	99
Es	-1.303894	-0.022842	0.004124	99
Es	0.783840	1.011815	0.310194	99
Es	2.814656	-1.438681	0.003812	99
Es	1.519996	0.097072	-0.002509	99
38
Properties=species:S:1:pos:R:3:Z:I:1 energy=-301.7959745529229 field_type=dipole dipole="0.000000 0.000000 0.000000" charge=0
C	-2.054594	-0.014898	0.002544	6
C	-0.562414	-0.018018	0.000174	6
N	0.162746	-1.093768	-0.000376	7
C	1.446796	-0.645258	-0.001916	6
N	2.426436	-1.461528	-0.003386	7
C	1.471437	0.816092	-0.001606	6
C	0.203076	1.226662	-0.000316	6
H	-2.434694	-1.039618	-0.010846	1
H	-2.421744	0.513622	-0.881166	1
H	-2.418303	0.489172	0.901834	1
H	1.997696	-2.394999	-0.003116	1
H	2.374936	1.397251	-0.002236	1
H	-0.191374	2.225291	0.000414	1
Es	0.202951	1.226665	-0.000323	99
Es	0.806930	1.033182	-0.310161	99
Es	-0.562469	-0.017959	0.000167	99
Es	-2.054535	-0.014868	0.002544	99
Es	-1.303925	-0.022979	0.004202	99
Es	0.162897	-1.093199	-0.000364	99
Es	1.968665	-1.077215	-0.279529	99
Es	-0.206921	0.646082	-0.006162	99
Es	1.972062	-1.079077	0.270467	99
Es	-0.181683	-0.604649	-0.069187	99
Es	0.064261	-1.367958	0.011319	99
Es	2.814605	-1.437897	0.004156	99
Es	1.471515	0.816027	-0.001605	99
Es	0.010301	-0.703274	0.055320	99
Es	1.446701	-0.645210	-0.001927	99
Es	2.052114	1.194024	-0.000578	99
Es	-2.340926	0.396860	0.447887	99
Es	-2.310242	-0.673798	-0.002704	99
Es	1.520186	0.097168	-0.002523	99
Es	2.158969	-1.969111	-0.001192	99
Es	0.738441	-0.973798	0.003268	99
Es	0.784546	1.012476	0.311323	99
Es	-0.086311	1.893970	-0.004622	99
Es	-2.229301	0.272765	-0.441042	99
Es	2.425833	-1.461588	-0.003385	99
38
Properties=species:S:1:pos:R:3:Z:I:1 energy=-301.7959745529229 field_type=dipole dipole="0.000000 0.000000 0.000000" charge=0
C	-2.054594	-0.014898	0.002544	6
C	-0.562414	-0.018018	0.000174	6
N	0.162746	-1.093768	-0.000376	7
C	1.446796	-0.645258	-0.001916	6
N	2.426436	-1.461528	-0.003386	7
C	1.471437	0.816092	-0.001606	6
C	0.203076	1.226662	-0.000316	6
H	-2.434694	-1.039618	-0.010846	1
H	-2.421744	0.513622	-0.881166	1
H	-2.418303	0.489172	0.901834	1
H	1.997696	-2.394999	-0.003116	1
H	2.374936	1.397251	-0.002236	1
H	-0.191374	2.225291	0.000414	1
Es	2.814630	-1.441854	-0.011439	99
Es	1.471518	0.816031	-0.001607	99
Es	0.202960	1.226657	-0.000310	99
Es	-1.304062	-0.023369	-0.001719	99
Es	-0.181392	-0.604931	0.072104	99
Es	2.158753	-1.965413	-0.004909	99
Es	0.802584	1.028677	0.312446	99
Es	2.425859	-1.461582	-0.003385	99
Es	0.063941	-1.369683	-0.010864	99
Es	-0.562469	-0.017959	0.000182	99
Es	-2.225923	0.259149	0.445078	99
Es	-0.206524	0.646758	0.005565	99
Es	1.520500	0.097317	-0.001199	99
Es	1.446700	-0.645211	-0.001906	99
Es	-2.344366	0.410449	-0.423001	99
Es	-0.086475	1.893860	0.004684	99
Es	-2.310036	-0.673349	-0.008625	99
Es	0.162897	-1.093188	-0.000383	99
Es	-2.054540	-0.014872	0.002543	99
Es	2.051754	1.193813	-0.003436	99
Es	0.009990	-0.702943	-0.060241	99
Es	0.788440	1.016370	-0.317103	99
Es	1.970404	-1.077376	0.276089	99
Es	0.739022	-0.972008	-0.005050	99
Es	1.970496	-1.078703	-0.278165	99
38
Properties=species:S:1:pos:R:3:Z:I:1 energy=-301.7959745529229 field_type=dipole dipole="0.000000 0.000000 0.000000" charge=0
C	-2.054594	-0.014898	0.002544	6
C	-0.562414	-0.018018	0.000174	6
N	0.162746	-1.093768	-0.000376	7
C	1.446796	-0.645258	-0.001916	6
N	2.426436	-1.461528	-0.003386	7
C	1.471437	0.816092	-0.001606	6
C	0.203076	1.226662	-0.000316	6
H	-2.434694	-1.039618	-0.010846	1
H	-2.421744	0.513622	-0.881166	1
H	-2.418303	0.489172	0.901834	1
H	1.997696	-2.394999	-0.003116	1
H	2.374936	1.397251	-0.002236	1
H	-0.191374	2.225291	0.000414	1
Es	0.788497	1.016399	-0.317372	99
Es	0.738023	-0.975641	-0.005304	99
Es	0.010053	-0.702898	-0.060359	99
Es	-0.206590	0.646620	0.005758	99
Es	2.158637	-1.963637	-0.004936	99
Es	-1.303909	-0.022852	-0.001613	99
Es	1.446701	-0.645205	-0.001906	99
Es	0.162893	-1.093205	-0.000382	99
Es	0.802450	1.028601	0.312498	99
Es	2.814560	-1.443822	-0.011510	99
Es	-2.310112	-0.673656	-0.008793	99
Es	1.970572	-1.078591	-0.278330	99
Es	-0.086322	1.893977	0.004744	99
Es	-2.054537	-0.014870	0.002544	99
Es	1.471515	0.816026	-0.001608	99
Es	1.520562	0.097390	-0.001073	99
Es	0.064978	-1.366133	-0.010825	99
Es	-2.225141	0.258133	0.439457	99
Es	-0.181271	-0.604846	0.072376	99
Es	1.970465	-1.077340	0.276179	99
Es	2.425841	-1.461587	-0.003385	99
Es	-0.562469	-0.017959	0.000180	99
Es	0.202953	1.226666	-0.000309	99
Es	-2.345158	0.411446	-0.417311	99
Es	2.051471	1.193624	-0.003371	99
38
Properties=species:S:1:pos:R:3:Z:I:1 energy=-301.7959745529229 field_type=dipole dipole="0.000000 0.000000 0.000000" charge=0
C	-2.054594	-0.014898	0.002544	6
C	-0.562414	-0.018018	0.000174	6
N	0.162746	-1.093768	-0.000376	7
C	1.446796	-0.645258	-0.001916	6
N	2.426436	-1.461528	-0.003386	7
C	1.471437	0.816092	-0.001606	6
C	0.203076	1.226662	-0.000316	6
H	-2.434694	-1.039618	-0.010846	1
H	-2.421744	0.513622	-0.881166	1
H	-2.418303	0.489172	0.901834	1
H	1.997696	-2.394999	-0.003116	1
H	2.374936	1.397251	-0.002236	1
H	-0.191374	2.225291	0.000414	1
Es	0.738076	-0.975709	-0.005229	99
Es	1.471533	0.816044	-0.001606	99
Es	0.787706	1.015743	-0.317107	99
Es	0.202930	1.226656	-0.000308	99
Es	-0.206397	0.646870	0.005880	99
Es	2.158342	-1.958664	-0.004802	99
Es	2.425850	-1.461581	-0.003385	99
Es	1.520453	0.097390	-0.001116	99
Es	-0.086315	1.893990	0.004771	99
Es	1.970684	-1.078409	-0.278489	99
Es	-2.054534	-0.014867	0.002544	99
Es	0.064716	-1.366383	-0.010896	99
Es	-0.180533	-0.604902	0.077562	99
Es	0.803230	1.029295	0.312149	99
Es	0.009716	-0.702514	-0.065577	99
Es	-0.562469	-0.017958	0.000182	99
Es	2.051256	1.193390	-0.003437	99
Es	1.446702	-0.645208	-0.001904	99
Es	0.162875	-1.093222	-0.000377	99
Es	-2.224330	0.257250	0.433960	99
Es	2.814372	-1.449266	-0.011622	99
Es	-1.303913	-0.022800	-0.001559	99
Es	1.970766	-1.077132	0.276396	99
Es	-2.345838	0.412459	-0.411837	99
Es	-2.310215	-0.673829	-0.008843	99
38
Properties=species:S:1:pos:R:3:Z:I:1 energy=-301.7959745529229 field_type=dipole dipole="0.000000 0.000000 0.000000" charge=0
C	-2.054594	-0.014898	0.002544	6
C	-0.562414	-0.018018	0.000174	6
N	0.162746	-1.093768	-0.000376	7
C	1.446796	-0.645258	-0.001916	6
N	2.426436	-1.461528	-0.003386	7
C	1.471437	0.816092	-0.001606	6
C	0.203076	1.226662	-0.000316	6
H	-2.434694	-1.039618	-0.010846	1
H	-2.421744	0.513622	-0.881166	1
H	-2.418303	0.489172	0.901834	1
H	1.997696	-2.394999	-0.003116	1
H	2.374936	1.397251	-0.002236	1
H	-0.191374	2.225291	0.000414	1
Es	0.162901	-1.093192	-0.000375	99
Es	-2.344625	0.401561	0.423917	99
Es	-0.206394	0.646682	-0.006387	99
Es	1.969890	-1.077112	-0.281879	99
Es	2.814424	-1.443708	0.004600	99
Es	2.425887	-1.461574	-0.003385	99
Es	1.446703	-0.645208	-0.001929	99
Es	0.065813	-1.362450	0.011671	99
Es	-1.304179	-0.023888	0.004464	99
Es	1.471515	0.816027	-0.001608	99
Es	0.202957	1.226664	-0.000325	99
Es	0.010690	-0.702301	0.063132	99
Es	0.807583	1.033673	-0.309838	99
Es	-0.562469	-0.017958	0.000166	99
Es	2.158462	-1.963916	-0.001164	99
Es	-2.054537	-0.014863	0.002547	99
Es	-2.225648	0.267943	-0.417863	99
Es	2.050296	1.192835	-0.000594	99
Es	1.521051	0.097664	-0.002700	99
Es	-0.086335	1.893935	-0.004949	99
Es	0.782742	1.011137	0.311084	99
Es	-2.309748	-0.672273	-0.002282	99
Es	-0.180587	-0.604794	-0.077470	99
Es	1.971319	-1.078697	0.272797	99
Es	0.736954	-0.979548	0.003717	99
38
Properties=species:S:1:pos:R:3:Z:I:1 energy=-301.7959745529229 field_type=dipole dipole="0.000000 0.000000 0.000000" charge=0
C	-2.054594	-0.014898	0.002544	6
C	-0.562414	-0.018018	0.000174	6
N	0.162746	-1.093768	-0.000376	7
C	1.446796	-0.645258	-0.001916	6
N	2.426436	-1.461528	-0.003386	7
C	1.471437	0.816092	-0.001606	6
C	0.203076	1.226662	-0.000316	6
H	-2.434694	-1.039618	-0.010846	1
H	-2.421744	0.513622	-0.881166	1
H	-2.418303	0.489172	0.901834	1
H	1.997696	-2.394999	-0.003116	1
H	2.374936	1.397251	-0.002236	1
H	-0.191374	2.225291	0.000414	1
Es	0.066763	-1.360010	-0.011119	99
Es	-1.304137	-0.023681	-0.001744	99
Es	-0.086349	1.893952	0.004842	99
Es	1.520497	0.097488	-0.001070	99
Es	-2.223183	0.256024	0.426230	99
Es	1.471515	0.816025	-0.001608	99
Es	1.970681	-1.077149	0.276465	99
Es	2.425852	-1.461587	-0.003385	99
Es	-2.309876	-0.672786	-0.008790	99
Es	0.803667	1.029628	0.312130	99
Es	0.009951	-0.702461	-0.065022	99
Es	-2.054537	-0.014868	0.002546	99
Es	2.814344	-1.447467	-0.011770	99
Es	-0.206295	0.647042	0.005862	99
Es	0.736095	-0.982096	-0.005471	99
Es	-2.347082	0.413582	-0.403940	99
Es	-0.562469	-0.017959	0.000184	99
Es	1.970743	-1.078433	-0.278433	99
Es	0.202960	1.226660	-0.000306	99
Es	2.050984	1.193216	-0.003547	99
Es	2.158350	-1.960455	-0.004900	99
Es	0.787047	1.015195	-0.316939	99
Es	0.162899	-1.093205	-0.000386	99
Es	1.446702	-0.645208	-0.001904	99
Es	-0.180459	-0.604807	0.077426	99
38
Properties=species:S:1:pos:R:3:Z:I:1 energy=-301.7959745529229 field_type=dipole dipole="0.000000 0.000000 0.000000" charge=0
C	-2.054594	-0.014898	0.002544	6
C	-0.562414	-0.018018	0.000174	6
N	0.162746	-1.093768	-0.000376	7
C	1.446796	-0.645258	-0.001916	6
N	2.426436	-1.461528	-0.003386	7
C	1.471437	0.816092	-0.001606	6
C	0.203076	1.226662	-0.000316	6
H	-2.434694	-1.039618	-0.010846	1
H	-2.421744	0.513622	-0.881166	1
H	-2.418303	0.489172	0.901834	1
H	1.997696	-2.394999	-0.003116	1
H	2.374936	1.397251	-0.002236	1
H	-0.191374	2.225291	0.000414	1
Es	-0.180252	-0.604855	0.079012	99
Es	2.050564	1.193012	-0.003455	99
Es	-0.206121	0.647201	0.005821	99
Es	1.446701	-0.645210	-0.001902	99
Es	-0.562469	-0.017959	0.000181	99
Es	0.162902	-1.093192	-0.000381	99
Es	1.971403	-1.078558	-0.277103	99
Es	1.969839	-1.077225	0.275431	99
Es	-1.304160	-0.023753	-0.001864	99
Es	-2.347570	0.413973	-0.400989	99
Es	0.202957	1.226664	-0.000310	99
Es	2.158525	-1.961427	-0.005025	99
Es	1.520813	0.097629	-0.001158	99
Es	1.471515	0.816026	-0.001608	99
Es	2.814377	-1.446275	-0.011844	99
Es	2.425862	-1.461582	-0.003385	99
Es	0.803880	1.029768	0.312019	99
Es	0.067231	-1.358793	-0.010840	99
Es	0.735688	-0.983356	-0.005517	99
Es	-0.086483	1.893847	0.004847	99
Es	0.786400	1.014737	-0.316815	99
Es	-2.222786	0.255542	0.423454	99
Es	0.010111	-0.702183	-0.066928	99
Es	-2.054538	-0.014870	0.002544	99
Es	-2.309727	-0.672521	-0.008837	99
38
Properties=species:S:1:pos:R:3:Z:I:1 energy=-301.7959745529229 field_type=dipole dipole="0.000000 0.000000 0.000000" charge=0
C	-2.054594	-0.014898	0.002544	6
C	-0.562414	-0.018018	0.000174	6
N	0.162746	-1.093768	-0.000376	7
C	1.446796	-0.645258	-0.001916	6
N	2.426436	-1.461528	-0.003386	7
C	1.471437	0.816092	-0.001606	6
C	0.203076	1.226662	-0.000316	6
H	-2.434694	-1.039618	-0.010846	1
H	-2.421744	0.513622	-0.881166	1
H	-2.418303	0.489172	0.901834	1
H	1.997696	-2.394999	-0.003116	1
H	2.374936	1.397251	-0.002236	1
H	-0.191374	2.225291	0.000414	1
Es	2.814284	-1.448331	-0.011787	99
Es	0.067375	-1.358440	-0.010814	99
Es	1.471515	0.816026	-0.001616	99
Es	-1.304108	-0.023603	-0.001710	99
Es	0.162895	-1.093190	-0.000376	99
Es	-0.180121	-0.604977	0.080669	99
Es	-2.309882	-0.672629	-0.009028	99
Es	1.970564	-1.078431	-0.278719	99
Es	2.425870	-1.461581	-0.003385	99
Es	0.202950	1.226665	-0.000308	99
Es	2.158405	-1.959597	-0.004883	99
Es	0.010103	-0.702015	-0.068429	99
Es	2.050263	1.192786	-0.003457	99
Es	1.520985	0.097735	-0.001189	99
Es	-0.206097	0.647196	0.005876	99
Es	-0.562469	-0.017959	0.000181	99
Es	-2.054534	-0.014867	0.002544	99
Es	1.970844	-1.077154	0.276706	99
Es	-2.222262	0.254841	0.419146	99
Es	-0.086382	1.893921	0.004910	99
Es	1.446702	-0.645208	-0.001903	99
Es	-2.347937	0.414795	-0.396620	99
Es	0.735580	-0.983718	-0.005598	99
Es	0.804073	1.029925	0.311968	99
Es	0.786046	1.014448	-0.316830	99
38
Properties=species:S:1:pos:R:3:Z:I:1 energy=-301.7959745529229 field_type=dipole dipole="0.000000 0.000000 0.000000" charge=0
C	-2.054594	-0.014898	0.002544	6
C	-0.562414	-0.018018	0.000174	6
N	0.162746	-1.093768	-0.000376	7
C	1.446796	-0.645258	-0.001916	6
N	2.426436	-1.461528	-0.003386	7
C	1.471437	0.816092	-0.001606	6
C	0.203076	1.226662	-0.000316	6
H	-2.434694	-1.039618	-0.010846	1
H	-2.421744	0.513622	-0.881166	1
H	-2.418303	0.489172	0.901834	1
H	1.997696	-2.394999	-0.003116	1
H	2.374936	1.397251	-0.002236	1
H	-0.191374	2.225291	0.000414	1
Es	-2.348292	0.414870	-0.395187	99
Es	-0.180716	-0.604833	0.075944	99
Es	-2.054534	-0.014867	0.002544	99
Es	0.162898	-1.093204	-0.000373	99
Es	-2.309828	-0.672763	-0.008909	99
Es	-1.304010	-0.023245	-0.001804	99
Es	0.803973	1.029881	0.311932	99
Es	1.970906	-1.078530	-0.278110	99
Es	2.425894	-1.461581	-0.003385	99
Es	1.471515	0.816026	-0.001610	99
Es	1.446702	-0.645208	-0.001903	99
Es	0.734958	-0.985654	-0.005774	99
Es	0.010835	-0.702208	-0.063446	99
Es	1.520762	0.097649	-0.001111	99
Es	2.158395	-1.960640	-0.004918	99
Es	0.068278	-1.356259	-0.011039	99
Es	-0.562469	-0.017959	0.000182	99
Es	2.814327	-1.447194	-0.012046	99
Es	0.202947	1.226665	-0.000304	99
Es	0.785724	1.014159	-0.317021	99
Es	2.050343	1.192792	-0.003469	99
Es	-0.205941	0.647327	0.006121	99
Es	-2.222014	0.254675	0.417731	99
Es	1.970449	-1.077131	0.276300	99
Es	-0.086438	1.893870	0.005006	99
38
Properties=species:S:1:pos:R:3:Z:I:1 energy=-301.7959745529229 field_type=dipole dipole="0.000000 0.000000 0.000000" charge=0
C	-2.054594	-0.014898	0.002544	6
C	-0.562414	-0.018018	0.000174	6
N	0.162746	-1.093768	-0.000376	7
C	1.446796	-0.645258	-0.001916	6
N	2.426436	-1.461528	-0.003386	7
C	1.471437	0.816092	-0.001606	6
C	0.203076	1.226662	-0.000316	6
H	-2.434694	-1.039618	-0.010846	1
H	-2.421744	0.513622	-0.881166	1
H	-2.418303	0.489172	0.901834	1
H	1.997696	-2.394999	-0.003116	1
H	2.374936	1.397251	-0.002236	1
H	-0.191374	2.225291	0.000414	1
Es	0.010483	-0.702071	-0.066280	99
Es	0.734867	-0.985837	-0.005802	99
Es	-0.562469	-0.017959	0.000182	99
Es	1.446702	-0.645206	-0.001905	99
Es	1.521063	0.097779	-0.001098	99
Es	0.068048	-1.356368	-0.010922	99
Es	-2.054535	-0.014867	0.002545	99
Es	-0.180163	-0.604727	0.078734	99
Es	-1.304089	-0.023459	-0.001856	99
Es	1.970567	-1.077057	0.276670	99
Es	1.971033	-1.078389	-0.278258	99
Es	-2.221590	0.254208	0.414628	99
Es	0.785564	1.014043	-0.316829	99
Es	-2.348584	0.415446	-0.392006	99
Es	1.471516	0.816026	-0.001606	99
Es	-0.206002	0.647315	0.006041	99
Es	-0.086354	1.893946	0.004970	99
Es	2.050010	1.192595	-0.003438	99
Es	2.158376	-1.957749	-0.004944	99
Es	0.202948	1.226665	-0.000308	99
Es	2.425866	-1.461581	-0.003385	99
Es	2.814077	-1.450366	-0.012179	99
Es	0.162891	-1.093207	-0.000381	99
Es	0.804323	1.030167	0.311757	99
Es	-2.309886	-0.672708	-0.008981	99
38
Properties=species:S:1:pos:R:3:Z:I:1 energy=-301.7959745529229 field_type=dipole dipole="0.000000 0.000000 0.000000" charge=0
C	-2.054594	-0.014898	0.002544	6
C	-0.562414	-0.018018	0.000174	6
N	0.162746	-1.093768	-0.000376	7
C	1.446796	-0.645258	-0.001916	6
N	2.426436	-1.461528	-0.003386	7
C	1.471437	0.816092	-0.001606	6
C	0.203076	1.226662	-0.000316	6
H	-2.434694	-1.039618	-0.010846	1
H	-2.421744	0.513622	-0.881166	1
H	-2.418303	0.489172	0.901834	1
H	1.997696	-2.394999	-0.003116	1
H	2.374936	1.397251	-0.002236	1
H	-0.191374	2.225291	0.000414	1
Es	0.782811	1.011400	0.311960	99
Es	1.446703	-0.645208	-0.001928	99
Es	0.734246	-0.987642	0.004016	99
Es	1.471515	0.816026	-0.001606	99
Es	-0.206029	0.646986	-0.006176	99
Es	-0.562469	-0.017958	0.000165	99
Es	-2.054533	-0.014865	0.002545	99
Es	0.202935	1.226658	-0.000331	99
Es	2.425853	-1.461586	-0.003385	99
Es	0.010558	-0.701202	0.073182	99
Es	2.814090	-1.448235	0.004752	99
Es	1.970616	-1.076969	-0.282439	99
Es	2.158140	-1.960029	-0.001107	99
Es	0.162897	-1.093188	-0.000373	99
Es	1.521703	0.098061	-0.002790	99
Es	1.971136	-1.078307	0.273394	99
Es	-2.309745	-0.672283	-0.002022	99
Es	0.068297	-1.354645	0.012336	99
Es	0.806698	1.032714	-0.311146	99
Es	-0.179168	-0.605121	-0.088029	99
Es	-0.086402	1.893873	-0.005094	99
Es	-2.347516	0.405439	0.402539	99
Es	-1.304008	-0.023364	0.004334	99
Es	-2.222738	0.264078	-0.396601	99
Es	2.049073	1.192008	-0.000848	99
