42
Properties=species:S:1:pos:R:3:Z:I:1 energy=-286.96296779328367 field_type=dipole dipole="0.000000 0.000000 0.000000" charge=0
C	-0.026581	-2.211849	-0.387975	6
C	-0.655931	-0.991449	0.264115	6
C	0.285959	0.174561	0.268455	6
C	0.384769	1.080840	-0.929305	6
C	-0.260621	1.584261	0.340885	6
C	0.428239	2.560561	1.138115	6
N	0.984359	3.349041	1.781935	7
H	-0.723301	-3.055540	-0.371095	1
H	0.886459	-2.510809	0.137425	1
H	0.238929	-2.006719	-1.430255	1
H	-0.926551	-1.232479	1.298345	1
H	-1.585351	-0.741769	-0.261275	1
H	1.200079	-0.045629	0.812125	1
H	-0.258751	0.891421	-1.781415	1
H	1.367579	1.452991	-1.200495	1
H	-1.339291	1.702571	0.320415	1
Es	-0.260442	1.584248	0.340870	99
Es	0.428071	2.560319	1.137917	99
Es	0.984145	3.348735	1.781686	99
Es	0.595826	-2.410293	-0.026014	99
Es	-0.655891	-0.991436	0.264097	99
Es	-0.334494	-1.595584	-0.063046	99
Es	0.702550	3.206349	1.270181	99
Es	-0.026594	-2.211821	-0.387960	99
Es	0.904191	0.038554	0.633935	99
Es	-1.288921	-0.811141	-0.099888	99
Es	0.980952	2.804368	1.489654	99
Es	-0.972283	1.668848	0.335802	99
Es	0.516938	2.962334	1.709640	99
Es	0.104882	2.097752	0.757300	99
Es	0.418759	0.492706	-0.437603	99
Es	-0.836938	-1.153581	0.970340	99
Es	1.042535	1.336921	-1.103454	99
Es	-0.502975	-2.783885	-0.374871	99
Es	0.035523	1.524123	-0.335594	99
Es	-0.039246	0.904651	0.500567	99
Es	-0.191258	-0.385586	0.258724	99
Es	0.384691	1.080856	-0.929107	99
Es	0.285891	0.174768	0.268389	99
Es	1.161627	3.597662	1.986650	99
Es	0.152271	-2.067072	-1.098141	99
Es	-0.058529	0.953204	-1.495280	99
42
Properties=species:S:1:pos:R:3:Z:I:1 energy=-286.96296779328367 field_type=dipole dipole="0.000000 0.000000 0.000000" charge=0
C	-0.026581	-2.211849	-0.387975	6
C	-0.655931	-0.991449	0.264115	6
C	0.285959	0.174561	0.268455	6
C	0.384769	1.080840	-0.929305	6
C	-0.260621	1.584261	0.340885	6
C	0.428239	2.560561	1.138115	6
N	0.984359	3.349041	1.781935	7
H	-0.723301	-3.055540	-0.371095	1
H	0.886459	-2.510809	0.137425	1
H	0.238929	-2.006719	-1.430255	1
H	-0.926551	-1.232479	1.298345	1
H	-1.585351	-0.741769	-0.261275	1
H	1.200079	-0.045629	0.812125	1
H	-0.258751	0.891421	-1.781415	1
H	1.367579	1.452991	-1.200495	1
H	-1.339291	1.702571	0.320415	1
Es	-0.041143	0.906189	0.500130	99
Es	0.285891	0.174757	0.268395	99
Es	0.421073	0.493725	-0.436951	99
Es	-0.334474	-1.595638	-0.062900	99
Es	0.984146	3.348736	1.781687	99
Es	-0.503078	-2.785193	-0.375024	99
Es	-0.655890	-0.991436	0.264095	99
Es	1.040946	1.336010	-1.102513	99
Es	0.594767	-2.409867	-0.027313	99
Es	0.903382	0.038881	0.633127	99
Es	0.428070	2.560311	1.137911	99
Es	0.384691	1.080854	-0.929109	99
Es	0.107059	2.098502	0.758175	99
Es	0.034333	1.523605	-0.334919	99
Es	-0.969730	1.667784	0.335244	99
Es	-1.288025	-0.811497	-0.098738	99
Es	-0.026594	-2.211821	-0.387959	99
Es	-0.837575	-1.153225	0.969551	99
Es	0.551440	2.928362	1.723717	99
Es	0.660848	3.212897	1.292560	99
Es	0.988938	2.829272	1.450482	99
Es	-0.058480	0.951811	-1.496878	99
Es	0.153009	-2.067278	-1.097332	99
Es	-0.260447	1.584254	0.340888	99
Es	1.159253	3.601579	1.990408	99
Es	-0.191129	-0.385579	0.258059	99
42
Properties=species:S:1:pos:R:3:Z:I:1 energy=-286.96296779328367 field_type=dipole dipole="0.000000 0.000000 0.000000" charge=0
C	-0.026581	-2.211849	-0.387975	6
C	-0.655931	-0.991449	0.264115	6
C	0.285959	0.174561	0.268455	6
C	0.384769	1.080840	-0.929305	6
C	-0.260621	1.584261	0.340885	6
C	0.428239	2.560561	1.138115	6
N	0.984359	3.349041	1.781935	7
H	-0.723301	-3.055540	-0.371095	1
H	0.886459	-2.510809	0.137425	1
H	0.238929	-2.006719	-1.430255	1
H	-0.926551	-1.232479	1.298345	1
H	-1.585351	-0.741769	-0.261275	1
H	1.200079	-0.045629	0.812125	1
H	-0.258751	0.891421	-1.781415	1
H	1.367579	1.452991	-1.200495	1
H	-1.339291	1.702571	0.320415	1
Es	-0.967504	1.667217	0.334820	99
Es	0.108130	2.099030	0.758708	99
Es	0.979133	2.943617	1.323958	99
Es	-0.042077	0.906414	0.499635	99
Es	-0.655889	-0.991436	0.264095	99
Es	1.039520	1.335267	-1.101745	99
Es	-0.334403	-1.595628	-0.062858	99
Es	0.428072	2.560305	1.137905	99
Es	-0.190970	-0.385792	0.257778	99
Es	-0.838015	-1.153236	0.968794	99
Es	0.033329	1.524279	-0.334089	99
Es	0.902577	0.039202	0.632442	99
Es	1.157482	3.604844	1.990968	99
Es	0.384691	1.080861	-0.929107	99
Es	0.422867	0.494580	-0.436195	99
Es	0.688777	2.827466	1.740764	99
Es	-0.503233	-2.786086	-0.375232	99
Es	-0.058397	0.950778	-1.498069	99
Es	-0.260444	1.584242	0.340886	99
Es	0.285890	0.174759	0.268396	99
Es	0.594199	-2.409664	-0.028439	99
Es	-1.287358	-0.811559	-0.097863	99
Es	-0.026594	-2.211821	-0.387959	99
Es	0.534125	3.196903	1.402090	99
Es	0.153231	-2.067282	-1.096572	99
Es	0.984144	3.348734	1.781685	99
42
Properties=species:S:1:pos:R:3:Z:I:1 energy=-286.96296779328367 field_type=dipole dipole="0.000000 0.000000 0.000000" charge=0
C	-0.026581	-2.211849	-0.387975	6
C	-0.655931	-0.991449	0.264115	6
C	0.285959	0.174561	0.268455	6
C	0.384769	1.080840	-0.929305	6
C	-0.260621	1.584261	0.340885	6
C	0.428239	2.560561	1.138115	6
N	0.984359	3.349041	1.781935	7
H	-0.723301	-3.055540	-0.371095	1
H	0.886459	-2.510809	0.137425	1
H	0.238929	-2.006719	-1.430255	1
H	-0.926551	-1.232479	1.298345	1
H	-1.585351	-0.741769	-0.261275	1
H	1.200079	-0.045629	0.812125	1
H	-0.258751	0.891421	-1.781415	1
H	1.367579	1.452991	-1.200495	1
H	-1.339291	1.702571	0.320415	1
Es	-0.026594	-2.211820	-0.387959	99
Es	0.984145	3.348735	1.781686	99
Es	-0.503417	-2.786904	-0.375597	99
Es	0.593660	-2.409386	-0.029136	99
Es	0.285890	0.174762	0.268396	99
Es	0.704255	2.819136	1.736562	99
Es	0.902143	0.039340	0.632109	99
Es	0.527122	3.190102	1.414266	99
Es	-1.287026	-0.811694	-0.097255	99
Es	-0.260441	1.584251	0.340862	99
Es	-0.334359	-1.595533	-0.062892	99
Es	0.424223	0.495544	-0.435773	99
Es	0.108674	2.099789	0.758744	99
Es	-0.655887	-0.991437	0.264095	99
Es	0.032777	1.524497	-0.333771	99
Es	1.038240	1.334526	-1.101229	99
Es	-0.190779	-0.385708	0.257546	99
Es	0.971167	2.957744	1.315309	99
Es	0.153608	-2.067250	-1.095755	99
Es	1.156403	3.605978	1.992281	99
Es	-0.043107	0.906934	0.499589	99
Es	0.428074	2.560300	1.137902	99
Es	-0.965496	1.666746	0.334791	99
Es	0.384689	1.080857	-0.929111	99
Es	-0.058459	0.949794	-1.498907	99
Es	-0.838225	-1.153308	0.968043	99
42
Properties=species:S:1:pos:R:3:Z:I:1 energy=-286.96296779328367 field_type=dipole dipole="0.000000 0.000000 0.000000" charge=0
C	-0.026581	-2.211849	-0.387975	6
C	-0.655931	-0.991449	0.264115	6
C	0.285959	0.174561	0.268455	6
C	0.384769	1.080840	-0.929305	6
C	-0.260621	1.584261	0.340885	6
C	0.428239	2.560561	1.138115	6
N	0.984359	3.349041	1.781935	7
H	-0.723301	-3.055540	-0.371095	1
H	0.886459	-2.510809	0.137425	1
H	0.238929	-2.006719	-1.430255	1
H	-0.926551	-1.232479	1.298345	1
H	-1.585351	-0.741769	-0.261275	1
H	1.200079	-0.045629	0.812125	1
H	-0.258751	0.891421	-1.781415	1
H	1.367579	1.452991	-1.200495	1
H	-1.339291	1.702571	0.320415	1
Es	-0.190738	-0.385778	0.257090	99
Es	0.108629	2.100241	0.759249	99
Es	0.848826	3.120011	1.243104	99
Es	-0.963968	1.666368	0.334580	99
Es	0.285890	0.174758	0.268399	99
Es	-0.334471	-1.595628	-0.062884	99
Es	-0.044019	0.907791	0.499459	99
Es	-0.655889	-0.991436	0.264095	99
Es	0.032768	1.524689	-0.333462	99
Es	0.478339	3.076725	1.584684	99
Es	0.593278	-2.409353	-0.029622	99
Es	-0.503455	-2.787321	-0.375962	99
Es	-0.026594	-2.211822	-0.387961	99
Es	-0.838417	-1.153204	0.967650	99
Es	0.901795	0.039325	0.631771	99
Es	0.428082	2.560293	1.137900	99
Es	0.984151	3.348745	1.781694	99
Es	0.878749	2.770438	1.634983	99
Es	0.384694	1.080849	-0.929113	99
Es	-0.058374	0.948835	-1.499712	99
Es	1.037088	1.333668	-1.100630	99
Es	-1.286621	-0.811647	-0.096750	99
Es	1.152955	3.605718	1.996067	99
Es	-0.260448	1.584254	0.340869	99
Es	0.153836	-2.067204	-1.095224	99
Es	0.425196	0.496680	-0.435479	99
42
Properties=species:S:1:pos:R:3:Z:I:1 energy=-286.96296779328367 field_type=dipole dipole="0.000000 0.000000 0.000000" charge=0
C	-0.026581	-2.211849	-0.387975	6
C	-0.655931	-0.991449	0.264115	6
C	0.285959	0.174561	0.268455	6
C	0.384769	1.080840	-0.929305	6
C	-0.260621	1.584261	0.340885	6
C	0.428239	2.560561	1.138115	6
N	0.984359	3.349041	1.781935	7
H	-0.723301	-3.055540	-0.371095	1
H	0.886459	-2.510809	0.137425	1
H	0.238929	-2.006719	-1.430255	1
H	-0.926551	-1.232479	1.298345	1
H	-1.585351	-0.741769	-0.261275	1
H	1.200079	-0.045629	0.812125	1
H	-0.258751	0.891421	-1.781415	1
H	1.367579	1.452991	-1.200495	1
H	-1.339291	1.702571	0.320415	1
Es	-0.655888	-0.991436	0.264095	99
Es	0.108810	2.100423	0.759580	99
Es	1.036360	1.333510	-1.100247	99
Es	0.972381	2.820253	1.476803	99
Es	0.984148	3.348741	1.781691	99
Es	0.285889	0.174761	0.268394	99
Es	0.032542	1.524122	-0.333681	99
Es	-0.058518	0.948313	-1.500231	99
Es	0.428076	2.560297	1.137901	99
Es	0.901522	0.039542	0.631726	99
Es	-0.962476	1.666127	0.334736	99
Es	-0.838471	-1.153487	0.967118	99
Es	-0.026595	-2.211821	-0.387961	99
Es	0.153982	-2.066983	-1.094693	99
Es	-0.190635	-0.385807	0.256985	99
Es	-0.334430	-1.595577	-0.062978	99
Es	0.426010	0.497608	-0.435206	99
Es	-0.044740	0.908134	0.499556	99
Es	-0.503731	-2.787853	-0.376208	99
Es	0.684416	3.204757	1.280090	99
Es	0.546128	2.944374	1.704573	99
Es	0.593029	-2.409130	-0.030023	99
Es	0.384688	1.080856	-0.929109	99
Es	-1.286503	-0.811718	-0.096390	99
Es	-0.260442	1.584259	0.340869	99
Es	1.155726	3.603731	1.997407	99
42
Properties=species:S:1:pos:R:3:Z:I:1 energy=-286.96296779328367 field_type=dipole dipole="0.000000 0.000000 0.000000" charge=0
C	-0.026581	-2.211849	-0.387975	6
C	-0.655931	-0.991449	0.264115	6
C	0.285959	0.174561	0.268455	6
C	0.384769	1.080840	-0.929305	6
C	-0.260621	1.584261	0.340885	6
C	0.428239	2.560561	1.138115	6
N	0.984359	3.349041	1.781935	7
H	-0.723301	-3.055540	-0.371095	1
H	0.886459	-2.510809	0.137425	1
H	0.238929	-2.006719	-1.430255	1
H	-0.926551	-1.232479	1.298345	1
H	-1.585351	-0.741769	-0.261275	1
H	1.200079	-0.045629	0.812125	1
H	-0.258751	0.891421	-1.781415	1
H	1.367579	1.452991	-1.200495	1
H	-1.339291	1.702571	0.320415	1
Es	0.285890	0.174763	0.268394	99
Es	-0.045347	0.909077	0.499855	99
Es	1.154198	3.604052	1.998609	99
Es	0.154159	-2.066903	-1.094253	99
Es	-0.260443	1.584257	0.340872	99
Es	0.384688	1.080862	-0.929104	99
Es	0.108791	2.100720	0.759787	99
Es	-0.190553	-0.385821	0.256931	99
Es	0.942844	2.787950	1.546857	99
Es	-1.286151	-0.811681	-0.095952	99
Es	-0.503791	-2.788231	-0.376486	99
Es	-0.058461	0.947431	-1.500545	99
Es	-0.334358	-1.595617	-0.062871	99
Es	-0.838654	-1.153500	0.966608	99
Es	-0.655886	-0.991436	0.264095	99
Es	0.592575	-2.409105	-0.030592	99
Es	1.035785	1.332706	-1.099982	99
Es	-0.961422	1.665803	0.334868	99
Es	0.749759	3.181894	1.253770	99
Es	0.984145	3.348735	1.781686	99
Es	0.426391	0.498832	-0.435212	99
Es	0.032592	1.524055	-0.333791	99
Es	-0.026594	-2.211821	-0.387960	99
Es	0.901201	0.039585	0.631366	99
Es	0.428078	2.560295	1.137898	99
Es	0.511845	2.999092	1.659949	99
42
Properties=species:S:1:pos:R:3:Z:I:1 energy=-286.96296779328367 field_type=dipole dipole="0.000000 0.000000 0.000000" charge=0
C	-0.026581	-2.211849	-0.387975	6
C	-0.655931	-0.991449	0.264115	6
C	0.285959	0.174561	0.268455	6
C	0.384769	1.080840	-0.929305	6
C	-0.260621	1.584261	0.340885	6
C	0.428239	2.560561	1.138115	6
N	0.984359	3.349041	1.781935	7
H	-0.723301	-3.055540	-0.371095	1
H	0.886459	-2.510809	0.137425	1
H	0.238929	-2.006719	-1.430255	1
H	-0.926551	-1.232479	1.298345	1
H	-1.585351	-0.741769	-0.261275	1
H	1.200079	-0.045629	0.812125	1
H	-0.258751	0.891421	-1.781415	1
H	1.367579	1.452991	-1.200495	1
H	-1.339291	1.702571	0.320415	1
Es	1.034818	1.332351	-1.099715	99
Es	0.428076	2.560299	1.137897	99
Es	-0.655889	-0.991436	0.264093	99
Es	0.634247	3.211775	1.309622	99
Es	-0.045581	0.908585	0.499252	99
Es	0.032283	1.524945	-0.333478	99
Es	0.984146	3.348737	1.781688	99
Es	0.426966	0.499104	-0.434325	99
Es	0.384689	1.080856	-0.929108	99
Es	-0.334174	-1.595582	-0.062712	99
Es	-0.260444	1.584267	0.340865	99
Es	-0.504106	-2.788487	-0.377105	99
Es	0.285891	0.174760	0.268393	99
Es	0.590388	2.898574	1.727855	99
Es	1.156046	3.604053	1.997800	99
Es	0.901255	0.039627	0.631411	99
Es	0.154133	-2.066736	-1.093424	99
Es	0.592594	-2.409220	-0.030939	99
Es	-0.838533	-1.153530	0.965985	99
Es	0.108819	2.100924	0.759899	99
Es	-0.960321	1.665765	0.334767	99
Es	-0.026594	-2.211822	-0.387961	99
Es	0.977842	2.858679	1.423953	99
Es	-1.286304	-0.811687	-0.095741	99
Es	-0.190488	-0.385848	0.256664	99
Es	-0.058478	0.947041	-1.500843	99
42
Properties=species:S:1:pos:R:3:Z:I:1 energy=-286.96296779328367 field_type=dipole dipole="0.000000 0.000000 0.000000" charge=0
C	-0.026581	-2.211849	-0.387975	6
C	-0.655931	-0.991449	0.264115	6
C	0.285959	0.174561	0.268455	6
C	0.384769	1.080840	-0.929305	6
C	-0.260621	1.584261	0.340885	6
C	0.428239	2.560561	1.138115	6
N	0.984359	3.349041	1.781935	7
H	-0.723301	-3.055540	-0.371095	1
H	0.886459	-2.510809	0.137425	1
H	0.238929	-2.006719	-1.430255	1
H	-0.926551	-1.232479	1.298345	1
H	-1.585351	-0.741769	-0.261275	1
H	1.200079	-0.045629	0.812125	1
H	-0.258751	0.891421	-1.781415	1
H	1.367579	1.452991	-1.200495	1
H	-1.339291	1.702571	0.320415	1
Es	0.491740	3.127221	1.513152	99
Es	0.108847	2.101417	0.759569	99
Es	-0.058295	0.946638	-1.501244	99
Es	0.285889	0.174760	0.268396	99
Es	-0.026595	-2.211821	-0.387961	99
Es	-0.959086	1.665809	0.334692	99
Es	-0.655888	-0.991436	0.264096	99
Es	0.384694	1.080858	-0.929098	99
Es	-1.285916	-0.811598	-0.095451	99
Es	0.428073	2.560300	1.137898	99
Es	1.152963	3.606750	1.997116	99
Es	0.984145	3.348735	1.781686	99
Es	-0.504007	-2.788767	-0.377388	99
Es	0.901159	0.039599	0.631129	99
Es	0.808494	2.778344	1.689512	99
Es	-0.260443	1.584263	0.340868	99
Es	0.032409	1.525772	-0.333478	99
Es	-0.334262	-1.595510	-0.062840	99
Es	-0.838759	-1.153531	0.965654	99
Es	0.905274	3.060406	1.260000	99
Es	0.427564	0.499344	-0.433822	99
Es	0.154190	-2.066829	-1.092945	99
Es	1.033452	1.331487	-1.099299	99
Es	-0.190410	-0.385892	0.256449	99
Es	-0.046332	0.908839	0.499416	99
Es	0.592381	-2.409164	-0.031310	99
42
Properties=species:S:1:pos:R:3:Z:I:1 energy=-286.96296779328367 field_type=dipole dipole="0.000000 0.000000 0.000000" charge=0
C	-0.026581	-2.211849	-0.387975	6
C	-0.655931	-0.991449	0.264115	6
C	0.285959	0.174561	0.268455	6
C	0.384769	1.080840	-0.929305	6
C	-0.260621	1.584261	0.340885	6
C	0.428239	2.560561	1.138115	6
N	0.984359	3.349041	1.781935	7
H	-0.723301	-3.055540	-0.371095	1
H	0.886459	-2.510809	0.137425	1
H	0.238929	-2.006719	-1.430255	1
H	-0.926551	-1.232479	1.298345	1
H	-1.585351	-0.741769	-0.261275	1
H	1.200079	-0.045629	0.812125	1
H	-0.258751	0.891421	-1.781415	1
H	1.367579	1.452991	-1.200495	1
H	-1.339291	1.702571	0.320415	1
Es	1.033608	1.331555	-1.099363	99
Es	-0.655889	-0.991435	0.264095	99
Es	-0.958413	1.665574	0.334972	99
Es	0.900955	0.039716	0.631184	99
Es	-0.260446	1.584249	0.340889	99
Es	0.984142	3.348734	1.781686	99
Es	-0.190370	-0.385811	0.256474	99
Es	-0.058506	0.946126	-1.501191	99
Es	0.032160	1.525116	-0.333714	99
Es	0.285890	0.174759	0.268394	99
Es	0.610344	2.882328	1.732322	99
Es	0.975980	2.874780	1.406016	99
Es	0.615634	3.211830	1.323058	99
Es	-0.334180	-1.595501	-0.062778	99
Es	0.154274	-2.066579	-1.092485	99
Es	0.109063	2.101195	0.759971	99
Es	-1.285972	-0.811704	-0.095256	99
Es	0.592246	-2.409068	-0.031537	99
Es	0.428077	2.560300	1.137893	99
Es	1.156349	3.604095	1.998183	99
Es	-0.838696	-1.153737	0.965174	99
Es	-0.046536	0.909252	0.499409	99
Es	0.384690	1.080856	-0.929106	99
Es	0.427766	0.500259	-0.433829	99
Es	-0.026595	-2.211820	-0.387959	99
Es	-0.504296	-2.789073	-0.377706	99
42
Properties=species:S:1:pos:R:3:Z:I:1 energy=-286.96296779328367 field_type=dipole dipole="0.000000 0.000000 0.000000" charge=0
C	-0.026581	-2.211849	-0.387975	6
C	-0.655931	-0.991449	0.264115	6
C	0.285959	0.174561	0.268455	6
C	0.384769	1.080840	-0.929305	6
C	-0.260621	1.584261	0.340885	6
C	0.428239	2.560561	1.138115	6
N	0.984359	3.349041	1.781935	7
H	-0.723301	-3.055540	-0.371095	1
H	0.886459	-2.510809	0.137425	1
H	0.238929	-2.006719	-1.430255	1
H	-0.926551	-1.232479	1.298345	1
H	-1.585351	-0.741769	-0.261275	1
H	1.200079	-0.045629	0.812125	1
H	-0.258751	0.891421	-1.781415	1
H	1.367579	1.452991	-1.200495	1
H	-1.339291	1.702571	0.320415	1
Es	0.109055	2.101276	0.760068	99
Es	1.156344	3.604176	1.998249	99
Es	0.427824	0.501023	-0.433727	99
Es	0.900867	0.039748	0.630984	99
Es	0.384691	1.080848	-0.929110	99
Es	-0.334102	-1.595540	-0.062704	99
Es	-0.058492	0.945553	-1.501362	99
Es	0.592081	-2.409080	-0.031830	99
Es	0.428077	2.560298	1.137895	99
Es	-1.285909	-0.811627	-0.095061	99
Es	-0.957792	1.665502	0.334988	99
Es	0.613119	3.211922	1.324316	99
Es	0.615312	2.878187	1.733322	99
Es	0.285889	0.174763	0.268395	99
Es	-0.260448	1.584269	0.340859	99
Es	0.032285	1.524885	-0.333714	99
Es	-0.838699	-1.153700	0.964796	99
Es	-0.026595	-2.211821	-0.387961	99
Es	-0.046931	0.909834	0.499579	99
Es	-0.504363	-2.789263	-0.378011	99
Es	0.154313	-2.066527	-1.092067	99
Es	1.033316	1.331170	-1.099151	99
Es	0.984145	3.348735	1.781686	99
Es	-0.190327	-0.385899	0.256453	99
Es	0.973511	2.878702	1.403806	99
Es	-0.655890	-0.991436	0.264095	99
42
Properties=species:S:1:pos:R:3:Z:I:1 energy=-286.96296779328367 field_type=dipole dipole="0.000000 0.000000 0.000000" charge=0
C	-0.026581	-2.211849	-0.387975	6
C	-0.655931	-0.991449	0.264115	6
C	0.285959	0.174561	0.268455	6
C	0.384769	1.080840	-0.929305	6
C	-0.260621	1.584261	0.340885	6
C	0.428239	2.560561	1.138115	6
N	0.984359	3.349041	1.781935	7
H	-0.723301	-3.055540	-0.371095	1
H	0.886459	-2.510809	0.137425	1
H	0.238929	-2.006719	-1.430255	1
H	-0.926551	-1.232479	1.298345	1
H	-1.585351	-0.741769	-0.261275	1
H	1.200079	-0.045629	0.812125	1
H	-0.258751	0.891421	-1.781415	1
H	1.367579	1.452991	-1.200495	1
H	-1.339291	1.702571	0.320415	1
Es	-0.504420	-2.789491	-0.378076	99
Es	1.155024	3.606188	1.997076	99
Es	0.591723	-2.409033	-0.032267	99
Es	-0.260442	1.584253	0.340876	99
Es	-0.655888	-0.991436	0.264094	99
Es	0.428428	0.501173	-0.433452	99
Es	0.428079	2.560297	1.137894	99
Es	0.984145	3.348735	1.781686	99
Es	0.108779	2.101820	0.759846	99
Es	-0.026595	-2.211822	-0.387961	99
Es	0.154367	-2.066440	-1.091886	99
Es	0.900639	0.039798	0.630938	99
Es	-0.838843	-1.153772	0.964663	99
Es	-0.047847	0.909281	0.500001	99
Es	-0.333965	-1.595486	-0.062524	99
Es	0.032219	1.525699	-0.334288	99
Es	0.285886	0.174768	0.268397	99
Es	0.521539	3.176079	1.434239	99
Es	1.032214	1.330665	-1.098870	99
Es	-0.058437	0.945442	-1.501606	99
Es	0.732806	2.804323	1.724709	99
Es	-1.285600	-0.811729	-0.094837	99
Es	-0.190325	-0.385807	0.256298	99
Es	0.948936	2.986040	1.304118	99
Es	-0.955831	1.665600	0.334835	99
Es	0.384689	1.080852	-0.929108	99
42
Properties=species:S:1:pos:R:3:Z:I:1 energy=-286.96296779328367 field_type=dipole dipole="0.000000 0.000000 0.000000" charge=0
C	-0.026581	-2.211849	-0.387975	6
C	-0.655931	-0.991449	0.264115	6
C	0.285959	0.174561	0.268455	6
C	0.384769	1.080840	-0.929305	6
C	-0.260621	1.584261	0.340885	6
C	0.428239	2.560561	1.138115	6
N	0.984359	3.349041	1.781935	7
H	-0.723301	-3.055540	-0.371095	1
H	0.886459	-2.510809	0.137425	1
H	0.238929	-2.006719	-1.430255	1
H	-0.926551	-1.232479	1.298345	1
H	-1.585351	-0.741769	-0.261275	1
H	1.200079	-0.045629	0.812125	1
H	-0.258751	0.891421	-1.781415	1
H	1.367579	1.452991	-1.200495	1
H	-1.339291	1.702571	0.320415	1
Es	-0.058428	0.944927	-1.501606	99
Es	-0.956471	1.665283	0.335194	99
Es	-0.838791	-1.153788	0.964106	99
Es	-0.655889	-0.991436	0.264095	99
Es	-0.504518	-2.789605	-0.378471	99
Es	-0.260444	1.584262	0.340873	99
Es	-0.026595	-2.211821	-0.387961	99
Es	0.154375	-2.066418	-1.091388	99
Es	0.971306	2.875733	1.409379	99
Es	-0.047483	0.910322	0.499465	99
Es	0.984145	3.348735	1.781686	99
Es	0.900751	0.039687	0.630914	99
Es	0.032251	1.525367	-0.333964	99
Es	1.156269	3.603705	1.999135	99
Es	0.611206	2.881629	1.731895	99
Es	0.591849	-2.409017	-0.032233	99
Es	0.108885	2.101440	0.760336	99
Es	0.384685	1.080862	-0.929100	99
Es	1.032293	1.330426	-1.098812	99
Es	0.428076	2.560298	1.137894	99
Es	0.285888	0.174767	0.268397	99
Es	-1.285742	-0.811615	-0.094789	99
Es	0.428284	0.501751	-0.433281	99
Es	-0.190235	-0.385776	0.256297	99
Es	0.619667	3.211810	1.319381	99
Es	-0.334054	-1.595534	-0.062648	99
42
Properties=species:S:1:pos:R:3:Z:I:1 energy=-286.96296779328367 field_type=dipole dipole="0.000000 0.000000 0.000000" charge=0
C	-0.026581	-2.211849	-0.387975	6
C	-0.655931	-0.991449	0.264115	6
C	0.285959	0.174561	0.268455	6
C	0.384769	1.080840	-0.929305	6
C	-0.260621	1.584261	0.340885	6
C	0.428239	2.560561	1.138115	6
N	0.984359	3.349041	1.781935	7
H	-0.723301	-3.055540	-0.371095	1
H	0.886459	-2.510809	0.137425	1
H	0.238929	-2.006719	-1.430255	1
H	-0.926551	-1.232479	1.298345	1
H	-1.585351	-0.741769	-0.261275	1
H	1.200079	-0.045629	0.812125	1
H	-0.258751	0.891421	-1.781415	1
H	1.367579	1.452991	-1.200495	1
H	-1.339291	1.702571	0.320415	1
Es	0.428090	2.560296	1.137893	99
Es	-0.838722	-1.153732	0.963916	99
Es	0.154380	-2.066369	-1.090946	99
Es	0.900791	0.039687	0.630913	99
Es	0.032241	1.527199	-0.334140	99
Es	-0.190168	-0.385800	0.255908	99
Es	-1.285785	-0.811623	-0.094688	99
Es	-0.026595	-2.211820	-0.387961	99
Es	0.384688	1.080855	-0.929108	99
Es	0.915866	3.044802	1.267615	99
Es	-0.334058	-1.595540	-0.062583	99
Es	0.787438	2.783510	1.700639	99
Es	0.108641	2.102102	0.759864	99
Es	-0.260443	1.584272	0.340863	99
Es	1.153544	3.606272	1.998177	99
Es	0.285889	0.174760	0.268398	99
Es	-0.048018	0.909340	0.499467	99
Es	-0.655890	-0.991436	0.264096	99
Es	1.030696	1.329483	-1.098411	99
Es	-0.504521	-2.789634	-0.378938	99
Es	0.591886	-2.409137	-0.032297	99
Es	-0.058309	0.945014	-1.501899	99
Es	0.501599	3.137785	1.493912	99
Es	-0.954893	1.665310	0.335208	99
Es	0.984149	3.348741	1.781691	99
Es	0.428783	0.501658	-0.432790	99
